8NU
 OpenBabel10252313443D

 58 62  0  0  0  0  0  0  0  0999 V2000
    5.7980    4.5200  -12.8980 C   0  0  0  0  0  0  0  0  0  0  0  0
    7.1440    4.0330  -13.3650 C   0  0  0  0  0  0  0  0  0  0  0  0
    8.2620    4.6000  -12.9090 C   0  0  0  0  0  0  0  0  0  0  0  0
    8.2060    5.7460  -11.8970 C   0  0  0  0  0  0  0  0  0  0  0  0
    8.7980    5.2360  -10.5560 C   0  0  0  0  0  0  0  0  0  0  0  0
    9.8570    7.3230   -9.9030 C   0  0  0  0  0  0  0  0  0  0  0  0
   10.0850    8.3470   -8.7770 C   0  0  0  0  0  0  0  0  0  0  0  0
   10.5980    7.5820   -7.5530 C   0  0  2  0  0  0  0  0  0  0  0  0
    9.5690    6.5280   -7.1200 C   0  0  0  0  0  0  0  0  0  0  0  0
    9.3630    5.5650   -8.2800 C   0  0  0  0  0  0  0  0  0  0  0  0
   10.9780    8.5130   -6.4340 C   0  0  0  0  0  0  0  0  0  0  0  0
   11.6040    9.3870   -4.5610 C   0  0  0  0  0  0  0  0  0  0  0  0
   11.3460    8.1840   -5.1480 C   0  0  0  0  0  0  0  0  0  0  0  0
   11.4800    6.9760   -4.4820 C   0  0  0  0  0  0  0  0  0  0  0  0
   11.8930    7.0420   -3.1520 C   0  0  0  0  0  0  0  0  0  0  0  0
   12.1580    8.2710   -2.5380 C   0  0  0  0  0  0  0  0  0  0  0  0
   12.0170    9.4710   -3.2390 C   0  0  0  0  0  0  0  0  0  0  0  0
    9.5440    4.0890  -13.3910 C   0  0  0  0  0  0  0  0  0  0  0  0
   10.8280    2.5500  -14.8120 C   0  0  0  0  0  0  0  0  0  0  0  0
   10.6590    1.6890  -16.0720 C   0  0  0  0  0  0  0  0  0  0  0  0
    9.6330    0.6130  -15.7710 C   0  0  0  0  0  0  0  0  0  0  0  0
    8.2570    1.2840  -15.6410 C   0  0  0  0  0  0  0  0  0  0  0  0
    8.3110    2.4650  -14.7030 C   0  0  0  0  0  0  0  0  0  0  0  0
   12.5550    8.2900   -1.2570 F   0  0  0  0  0  0  0  0  0  0  0  0
    8.8820    6.2720   -9.4860 N   0  3  2  0  0  0  0  0  0  0  0  0
   11.0470    9.8420   -6.5210 N   0  0  0  0  0  0  0  0  0  0  0  0
    9.5520    3.0330  -14.3060 N   0  0  0  0  0  0  0  0  0  0  0  0
    7.2090    2.9460  -14.2700 N   0  0  0  0  0  0  0  0  0  0  0  0
   11.4040   10.3280   -5.4310 O   0  0  0  0  0  0  0  0  0  0  0  0
   10.7140    4.6530  -12.9830 O   0  0  0  0  0  0  0  0  0  0  0  0
    5.9298    5.3402  -12.2236 H   0  0  0  0  0  0  0  0  0  0  0  0
    5.2852    3.7254  -12.3974 H   0  0  0  0  0  0  0  0  0  0  0  0
    5.2224    4.8405  -13.7412 H   0  0  0  0  0  0  0  0  0  0  0  0
    7.1911    6.0523  -11.7520 H   0  0  0  0  0  0  0  0  0  0  0  0
    8.7675    6.5836  -12.2548 H   0  0  0  0  0  0  0  0  0  0  0  0
    9.7851    4.8685  -10.7442 H   0  0  0  0  0  0  0  0  0  0  0  0
    8.1326    4.4790  -10.1966 H   0  0  0  0  0  0  0  0  0  0  0  0
   10.7894    6.8577  -10.1460 H   0  0  0  0  0  0  0  0  0  0  0  0
    9.4594    7.8366  -10.7533 H   0  0  0  0  0  0  0  0  0  0  0  0
    9.1653    8.8399   -8.5402 H   0  0  0  0  0  0  0  0  0  0  0  0
   10.7937    9.0887   -9.0811 H   0  0  0  0  0  0  0  0  0  0  0  0
   11.4959    7.0668   -7.8236 H   0  0  0  0  0  0  0  0  0  0  0  0
    8.6427    7.0044   -6.8751 H   0  0  0  0  0  0  0  0  0  0  0  0
    9.9189    6.0003   -6.2574 H   0  0  0  0  0  0  0  0  0  0  0  0
    8.6410    4.8277   -7.9970 H   0  0  0  0  0  0  0  0  0  0  0  0
   10.3022    5.1066   -8.5093 H   0  0  0  0  0  0  0  0  0  0  0  0
   11.2844    6.0752   -4.9460 H   0  0  0  0  0  0  0  0  0  0  0  0
   12.0051    6.1700   -2.6115 H   0  0  0  0  0  0  0  0  0  0  0  0
   12.2116   10.3810   -2.7928 H   0  0  0  0  0  0  0  0  0  0  0  0
   11.3004    1.9622  -14.0529 H   0  0  0  0  0  0  0  0  0  0  0  0
   11.4240    3.4002  -15.0705 H   0  0  0  0  0  0  0  0  0  0  0  0
   11.5937    1.2371  -16.3309 H   0  0  0  0  0  0  0  0  0  0  0  0
   10.3342    2.2926  -16.8936 H   0  0  0  0  0  0  0  0  0  0  0  0
    9.8834    0.1199  -14.8550 H   0  0  0  0  0  0  0  0  0  0  0  0
    9.6173   -0.1127  -16.5571 H   0  0  0  0  0  0  0  0  0  0  0  0
    7.5551    0.5702  -15.2631 H   0  0  0  0  0  0  0  0  0  0  0  0
    7.9580    1.6328  -16.6073 H   0  0  0  0  0  0  0  0  0  0  0  0
    7.9863    6.7273   -9.3103 H   0  0  0  0  0  0  0  0  0  0  0  0
  1  2  1  0  0  0  0
  1 31  1  0  0  0  0
  1 32  1  0  0  0  0
  1 33  1  0  0  0  0
  2  3  2  0  0  0  0
  2 28  1  0  0  0  0
  3  4  1  0  0  0  0
  3 18  1  0  0  0  0
  4  5  1  0  0  0  0
  4 34  1  0  0  0  0
  4 35  1  0  0  0  0
  5 25  1  0  0  0  0
  5 36  1  0  0  0  0
  5 37  1  0  0  0  0
  6  7  1  0  0  0  0
  6 25  1  0  0  0  0
  6 38  1  0  0  0  0
  6 39  1  0  0  0  0
  7  8  1  0  0  0  0
  7 40  1  0  0  0  0
  7 41  1  0  0  0  0
  8 11  1  0  0  0  0
  8  9  1  0  0  0  0
  8 42  1  6  0  0  0
  9 10  1  0  0  0  0
  9 43  1  0  0  0  0
  9 44  1  0  0  0  0
 10 25  1  0  0  0  0
 10 45  1  0  0  0  0
 10 46  1  0  0  0  0
 11 26  2  0  0  0  0
 11 13  1  0  0  0  0
 12 29  1  0  0  0  0
 12 17  2  0  0  0  0
 12 13  1  0  0  0  0
 13 14  2  0  0  0  0
 14 15  1  0  0  0  0
 14 47  1  0  0  0  0
 15 16  2  0  0  0  0
 15 48  1  0  0  0  0
 16 17  1  0  0  0  0
 16 24  1  0  0  0  0
 17 49  1  0  0  0  0
 18 30  2  0  0  0  0
 18 27  1  0  0  0  0
 19 27  1  0  0  0  0
 19 20  1  0  0  0  0
 19 50  1  0  0  0  0
 19 51  1  0  0  0  0
 20 21  1  0  0  0  0
 20 52  1  0  0  0  0
 20 53  1  0  0  0  0
 21 22  1  0  0  0  0
 21 54  1  0  0  0  0
 21 55  1  0  0  0  0
 22 23  1  0  0  0  0
 22 56  1  0  0  0  0
 22 57  1  0  0  0  0
 23 27  1  0  0  0  0
 23 28  2  0  0  0  0
 25 58  1  1  0  0  0
 26 29  1  0  0  0  0
M  CHG  1  25   1
M  END
>  <model_server_result.job_id>
9Wi6sWyThiBSeKSYlw9Hbw

>  <model_server_result.datetime_utc>
2023-10-09 09:25:43

>  <model_server_result.server_version>
0.9.10

>  <model_server_result.query_name>
ligand

>  <model_server_result.source_id>
pdb-bcif

>  <model_server_result.entry_id>
6cm4

>  <model_server_params.name>
atom_site

>  <model_server_params.value>
{"label_asym_id":"B","auth_seq_id":2001}

>  <model_server_stats.io_time_ms>
5

>  <model_server_stats.parse_time_ms>
74

>  <model_server_stats.create_model_time_ms>
3

>  <model_server_stats.query_time_ms>
195

>  <model_server_stats.encode_time_ms>
0

>  <model_server_stats.element_count>
30

$$$$
