
     RDKit          3D

 22 24  0  0  0  0  0  0  0  0999 V2000
   11.6870    9.2513   -4.3300 C   0  0  0  0  0  0  0  0  0  0  0  0
   11.3452    8.0966   -5.0345 C   0  0  0  0  0  0  0  0  0  0  0  0
   11.4178    6.8700   -4.3594 C   0  0  0  0  0  0  0  0  0  0  0  0
   11.8135    6.8641   -3.0629 N   0  0  0  0  0  0  0  0  0  0  0  0
   12.1400    8.0122   -2.4050 C   0  0  0  0  0  0  0  0  0  0  0  0
   12.0764    9.1937   -3.0351 N   0  0  0  0  0  0  0  0  0  0  0  0
   11.6427   10.1959   -4.8406 H   0  0  0  0  0  0  0  0  0  0  0  0
   11.1732    5.9528   -4.8321 H   0  0  0  0  0  0  0  0  0  0  0  0
   12.4517    7.9635   -1.3675 H   0  0  0  0  0  0  0  0  0  0  0  0
   10.9059    8.1364   -6.4471 C   0  0  0  0  0  0  0  0  0  0  0  0
   10.5010    9.3284   -6.9014 N   0  0  0  0  0  0  0  0  0  0  0  0
   10.0606    9.0343   -8.5823 S   0  0  0  0  0  0  0  0  0  0  0  0
   10.4416    7.3732   -8.5589 C   0  0  0  0  0  0  0  0  0  0  0  0
   10.3569    6.3988   -9.5829 C   0  0  0  0  0  0  0  0  0  0  0  0
   10.7322    5.0945   -9.3299 C   0  0  0  0  0  0  0  0  0  0  0  0
   11.1722    4.8421   -8.0612 C   0  0  0  0  0  0  0  0  0  0  0  0
   11.2508    5.7804   -7.0845 C   0  0  0  0  0  0  0  0  0  0  0  0
   10.8719    7.1147   -7.3243 C   0  0  0  0  0  0  0  0  0  0  0  0
    9.9967    6.6886  -10.5590 H   0  0  0  0  0  0  0  0  0  0  0  0
   10.6539    4.3904  -10.1266 H   0  0  0  0  0  0  0  0  0  0  0  0
   11.4705    3.8043   -7.8618 H   0  0  0  0  0  0  0  0  0  0  0  0
   11.6225    5.4430   -6.1291 H   0  0  0  0  0  0  0  0  0  0  0  0
  1  6  2  0
  2  3  2  0
  2  1  1  0
  3  4  1  0
  4  5  2  0
  6  5  1  0
  1  7  1  0
  3  8  1  0
  5  9  1  0
 10 11  2  0
 11 12  1  0
 12 13  1  0
 13 14  2  0
 14 15  1  0
 15 16  2  0
 16 17  1  0
 17 18  2  0
 18 10  1  0
 18 13  1  0
 14 19  1  0
 15 20  1  0
 16 21  1  0
 17 22  1  0
  2 10  1  0
M  END
>  <Score>  (1) 
-7.33583

$$$$

     RDKit          3D

 22 23  0  0  0  0  0  0  0  0999 V2000
   11.6912    9.2554   -4.3173 C   0  0  0  0  0  0  0  0  0  0  0  0
   11.3430    8.0847   -5.0387 C   0  0  0  0  0  0  0  0  0  0  0  0
   11.4130    6.8686   -4.3735 C   0  0  0  0  0  0  0  0  0  0  0  0
   11.8176    6.8764   -3.0540 N   0  0  0  0  0  0  0  0  0  0  0  0
   12.1399    8.0055   -2.4036 C   0  0  0  0  0  0  0  0  0  0  0  0
   12.0753    9.1974   -3.0399 N   0  0  0  0  0  0  0  0  0  0  0  0
   11.6213   10.1795   -4.8752 H   0  0  0  0  0  0  0  0  0  0  0  0
   11.1614    5.9266   -4.8001 H   0  0  0  0  0  0  0  0  0  0  0  0
   12.4535    7.9540   -1.3605 H   0  0  0  0  0  0  0  0  0  0  0  0
   10.9103    8.1663   -6.3730 N   0  0  0  0  0  0  0  0  0  0  0  0
    9.8532    8.9371   -6.8805 C   0  0  0  0  0  0  0  0  0  0  0  0
    8.7913    9.3955   -6.1786 C   0  0  0  0  0  0  0  0  0  0  0  0
    7.8211   10.1779   -6.7995 C   0  0  0  0  0  0  0  0  0  0  0  0
    7.8796   10.5222   -8.1259 C   0  0  0  0  0  0  0  0  0  0  0  0
    6.9174   11.2869   -8.7024 F   0  0  0  0  0  0  0  0  0  0  0  0
    8.9615   10.0579   -8.8545 C   0  0  0  0  0  0  0  0  0  0  0  0
    9.9139    9.2870   -8.2326 C   0  0  0  0  0  0  0  0  0  0  0  0
   11.4794    7.5535   -7.0515 H   0  0  0  0  0  0  0  0  0  0  0  0
    8.6892    9.1314   -5.1213 H   0  0  0  0  0  0  0  0  0  0  0  0
    6.9861   10.5249   -6.1973 H   0  0  0  0  0  0  0  0  0  0  0  0
    9.0564   10.3050   -9.9224 H   0  0  0  0  0  0  0  0  0  0  0  0
   10.7449    8.9487   -8.8562 H   0  0  0  0  0  0  0  0  0  0  0  0
  1  6  2  0
  2  3  2  0
  2  1  1  0
  3  4  1  0
  4  5  2  0
  6  5  1  0
  1  7  1  0
  3  8  1  0
  5  9  1  0
 10 11  1  0
 11 12  2  0
 12 13  1  0
 13 14  2  0
 14 15  1  0
 14 16  1  0
 16 17  2  0
 17 11  1  0
 10 18  1  0
 12 19  1  0
 13 20  1  0
 16 21  1  0
 17 22  1  0
  2 10  1  0
M  END
>  <Score>  (1) 
-7.33192

$$$$

     RDKit          3D

 28 29  0  0  0  0  0  0  0  0999 V2000
   11.6902    9.2577   -4.3214 C   0  0  0  0  0  0  0  0  0  0  0  0
   11.3431    8.0910   -5.0398 C   0  0  0  0  0  0  0  0  0  0  0  0
   11.4159    6.8661   -4.3641 C   0  0  0  0  0  0  0  0  0  0  0  0
   11.8159    6.8709   -3.0574 N   0  0  0  0  0  0  0  0  0  0  0  0
   12.1395    8.0059   -2.4045 C   0  0  0  0  0  0  0  0  0  0  0  0
   12.0754    9.1964   -3.0397 N   0  0  0  0  0  0  0  0  0  0  0  0
   11.6196   10.1752   -4.8804 H   0  0  0  0  0  0  0  0  0  0  0  0
   11.1591    5.9538   -4.8781 H   0  0  0  0  0  0  0  0  0  0  0  0
   12.4552    8.0168   -1.3759 H   0  0  0  0  0  0  0  0  0  0  0  0
   10.9384    8.1615   -6.3888 N   0  0  0  0  0  0  0  0  0  0  0  0
   11.4669    7.2418   -7.3230 C   0  0  0  0  0  0  0  0  0  0  0  0
   11.0239    7.3480   -8.7056 C   0  0  0  0  0  0  0  0  0  0  0  0
   10.1392    8.2451   -9.2332 C   0  0  0  0  0  0  0  0  0  0  0  0
    9.7902    8.2510  -10.5764 C   0  0  0  0  0  0  0  0  0  0  0  0
   10.3516    7.3208  -11.4180 C   0  0  0  0  0  0  0  0  0  0  0  0
    9.9527    7.3563  -12.8589 C   0  0  0  0  0  0  0  0  0  0  0  0
   11.2468    6.3981  -10.9323 C   0  0  0  0  0  0  0  0  0  0  0  0
   11.5685    6.4224   -9.5981 C   0  0  0  0  0  0  0  0  0  0  0  0
   10.2576    8.8947   -6.6560 H   0  0  0  0  0  0  0  0  0  0  0  0
   12.5927    7.3338   -7.2854 H   0  0  0  0  0  0  0  0  0  0  0  0
   11.2918    6.1714   -7.0062 H   0  0  0  0  0  0  0  0  0  0  0  0
    9.7015    8.9733   -8.5675 H   0  0  0  0  0  0  0  0  0  0  0  0
    9.0755    8.9943  -10.9423 H   0  0  0  0  0  0  0  0  0  0  0  0
    8.9482    6.9043  -12.9885 H   0  0  0  0  0  0  0  0  0  0  0  0
   10.7474    6.7896  -13.4084 H   0  0  0  0  0  0  0  0  0  0  0  0
    9.8842    8.3907  -13.2409 H   0  0  0  0  0  0  0  0  0  0  0  0
   11.6706    5.6786  -11.6250 H   0  0  0  0  0  0  0  0  0  0  0  0
   12.2814    5.6743   -9.2547 H   0  0  0  0  0  0  0  0  0  0  0  0
  1  6  2  0
  2  3  2  0
  2  1  1  0
  3  4  1  0
  4  5  2  0
  6  5  1  0
  1  7  1  0
  3  8  1  0
  5  9  1  0
 10 11  1  0
 11 12  1  0
 12 13  2  0
 13 14  1  0
 14 15  2  0
 15 16  1  0
 15 17  1  0
 17 18  2  0
 18 12  1  0
 10 19  1  0
 11 20  1  0
 11 21  1  0
 13 22  1  0
 14 23  1  0
 16 24  1  0
 16 25  1  0
 16 26  1  0
 17 27  1  0
 18 28  1  0
  2 10  1  0
M  END
>  <Score>  (1) 
-7.33134

$$$$

     RDKit          3D

 26 27  0  0  0  0  0  0  0  0999 V2000
   11.6891    9.2576   -4.3251 C   0  0  0  0  0  0  0  0  0  0  0  0
   11.3436    8.0932   -5.0390 C   0  0  0  0  0  0  0  0  0  0  0  0
   11.4165    6.8643   -4.3615 C   0  0  0  0  0  0  0  0  0  0  0  0
   11.8146    6.8687   -3.0610 N   0  0  0  0  0  0  0  0  0  0  0  0
   12.1399    8.0106   -2.4047 C   0  0  0  0  0  0  0  0  0  0  0  0
   12.0763    9.1936   -3.0358 N   0  0  0  0  0  0  0  0  0  0  0  0
   11.6388   10.1992   -4.8263 H   0  0  0  0  0  0  0  0  0  0  0  0
   11.1744    5.9345   -4.8211 H   0  0  0  0  0  0  0  0  0  0  0  0
   12.4510    7.9522   -1.3663 H   0  0  0  0  0  0  0  0  0  0  0  0
    9.9609    6.1796   -9.9663 H   0  0  0  0  0  0  0  0  0  0  0  0
    9.4076    6.2560   -8.9853 C   0  0  0  0  0  0  0  0  0  0  0  0
   10.0359    7.3129   -8.1797 C   0  0  2  0  0  0  0  0  0  0  0  0
   10.3092    6.9235   -6.8489 O   0  0  0  0  0  0  0  0  0  0  0  0
   10.9235    8.1238   -6.4241 C   0  0  1  0  0  0  0  0  0  0  0  0
    9.8871    9.1629   -6.7488 C   0  0  1  0  0  0  0  0  0  0  0  0
   10.5069   10.3108   -7.2443 O   0  0  0  0  0  0  0  0  0  0  0  0
    9.1332    8.5141   -7.9173 C   0  0  2  0  0  0  0  0  0  0  0  0
    7.8951    8.1249   -7.4232 O   0  0  0  0  0  0  0  0  0  0  0  0
    8.3453    6.4406   -9.2660 H   0  0  0  0  0  0  0  0  0  0  0  0
    9.4570    5.2605   -8.5121 H   0  0  0  0  0  0  0  0  0  0  0  0
   10.9928    7.7121   -8.5708 H   0  0  0  0  0  0  0  0  0  0  0  0
   11.7825    8.2727   -7.0791 H   0  0  0  0  0  0  0  0  0  0  0  0
    9.2114    9.3804   -5.9071 H   0  0  0  0  0  0  0  0  0  0  0  0
   10.5672   10.2668   -8.2175 H   0  0  0  0  0  0  0  0  0  0  0  0
    9.0805    9.1759   -8.7866 H   0  0  0  0  0  0  0  0  0  0  0  0
    7.2875    7.8083   -8.1325 H   0  0  0  0  0  0  0  0  0  0  0  0
  1  6  2  0
  2  3  2  0
  2  1  1  0
  3  4  1  0
  4  5  2  0
  6  5  1  0
  1  7  1  0
  3  8  1  0
  5  9  1  0
 10 11  1  0
 11 12  1  0
 12 13  1  0
 13 14  1  0
 14 15  1  0
 15 16  1  0
 15 17  1  0
 17 18  1  0
 17 12  1  0
 11 19  1  0
 11 20  1  0
 12 21  1  6
 14 22  1  6
 15 23  1  1
 16 24  1  0
 17 25  1  6
 18 26  1  0
  2 14  1  0
M  END
>  <Score>  (1) 
-7.32746

$$$$

     RDKit          3D

 25 26  0  0  0  0  0  0  0  0999 V2000
   11.6905    9.2596   -4.3212 C   0  0  0  0  0  0  0  0  0  0  0  0
   11.3432    8.0888   -5.0389 C   0  0  0  0  0  0  0  0  0  0  0  0
   11.4156    6.8665   -4.3653 C   0  0  0  0  0  0  0  0  0  0  0  0
   11.8159    6.8708   -3.0573 N   0  0  0  0  0  0  0  0  0  0  0  0
   12.1395    8.0062   -2.4047 C   0  0  0  0  0  0  0  0  0  0  0  0
   12.0754    9.1960   -3.0396 N   0  0  0  0  0  0  0  0  0  0  0  0
   11.6452   10.2173   -4.8115 H   0  0  0  0  0  0  0  0  0  0  0  0
   11.1669    5.9290   -4.8436 H   0  0  0  0  0  0  0  0  0  0  0  0
   12.4518    7.9688   -1.3698 H   0  0  0  0  0  0  0  0  0  0  0  0
   10.9216    8.1402   -6.4361 C   0  0  0  0  0  0  0  0  0  0  0  0
   10.8963    9.4969   -7.0035 C   0  0  0  0  0  0  0  0  0  0  0  0
   11.2279   10.6412   -6.3280 C   0  0  0  0  0  0  0  0  0  0  0  0
   11.1729   11.8405   -6.9364 N   0  0  0  0  0  0  0  0  0  0  0  0
   10.7948   11.9677   -8.2185 C   0  0  0  0  0  0  0  0  0  0  0  0
   10.7214   13.2050   -8.9001 N   0  0  0  0  0  0  0  0  0  0  0  0
   10.4691   10.8378   -8.8797 N   0  0  0  0  0  0  0  0  0  0  0  0
   10.5074    9.6330   -8.3238 C   0  0  0  0  0  0  0  0  0  0  0  0
   10.1471    8.4694   -9.0866 N   0  0  0  0  0  0  0  0  0  0  0  0
    9.8699    7.7469   -6.4900 H   0  0  0  0  0  0  0  0  0  0  0  0
   11.5352    7.4438   -7.0373 H   0  0  0  0  0  0  0  0  0  0  0  0
   11.5294   10.5688   -5.3161 H   0  0  0  0  0  0  0  0  0  0  0  0
   11.4354   13.5553   -9.5558 H   0  0  0  0  0  0  0  0  0  0  0  0
    9.8888   13.8321   -8.7446 H   0  0  0  0  0  0  0  0  0  0  0  0
   10.2854    7.5112   -8.7219 H   0  0  0  0  0  0  0  0  0  0  0  0
    9.7386    8.5843  -10.0243 H   0  0  0  0  0  0  0  0  0  0  0  0
  1  6  2  0
  2  3  2  0
  2  1  1  0
  3  4  1  0
  4  5  2  0
  6  5  1  0
  1  7  1  0
  3  8  1  0
  5  9  1  0
 10 11  1  0
 11 12  2  0
 12 13  1  0
 13 14  2  0
 14 15  1  0
 14 16  1  0
 16 17  2  0
 17 18  1  0
 17 11  1  0
 10 19  1  0
 10 20  1  0
 12 21  1  0
 15 22  1  0
 15 23  1  0
 18 24  1  0
 18 25  1  0
  2 10  1  0
M  END
>  <Score>  (1) 
-7.31833

$$$$

     RDKit          3D

 23 25  0  0  0  0  0  0  0  0999 V2000
   11.6889    9.2572   -4.3254 C   0  0  0  0  0  0  0  0  0  0  0  0
   11.3439    8.0929   -5.0379 C   0  0  0  0  0  0  0  0  0  0  0  0
   11.4158    6.8649   -4.3639 C   0  0  0  0  0  0  0  0  0  0  0  0
   11.8154    6.8699   -3.0586 N   0  0  0  0  0  0  0  0  0  0  0  0
   12.1397    8.0087   -2.4049 C   0  0  0  0  0  0  0  0  0  0  0  0
   12.0762    9.1943   -3.0362 N   0  0  0  0  0  0  0  0  0  0  0  0
   11.6164   10.1721   -4.8897 H   0  0  0  0  0  0  0  0  0  0  0  0
   11.1571    5.9677   -4.8897 H   0  0  0  0  0  0  0  0  0  0  0  0
   12.4411    7.8968   -1.3789 H   0  0  0  0  0  0  0  0  0  0  0  0
   10.9369    8.1750   -6.3987 N   0  0  0  0  0  0  0  0  0  0  0  0
   10.2402    9.1783   -6.9458 C   0  0  0  0  0  0  0  0  0  0  0  0
    9.9079   10.0511   -6.3932 H   0  0  0  0  0  0  0  0  0  0  0  0
   10.0215    8.9409   -8.2588 N   0  0  0  0  0  0  0  0  0  0  0  0
   10.5767    7.7713   -8.5868 C   0  0  0  0  0  0  0  0  0  0  0  0
   10.6662    7.0449   -9.7508 C   0  0  0  0  0  0  0  0  0  0  0  0
   11.3245    5.8379   -9.7683 C   0  0  0  0  0  0  0  0  0  0  0  0
   11.8883    5.3877   -8.5784 C   0  0  0  0  0  0  0  0  0  0  0  0
   11.8089    6.1023   -7.4010 C   0  0  0  0  0  0  0  0  0  0  0  0
   11.1514    7.3001   -7.3991 C   0  0  0  0  0  0  0  0  0  0  0  0
   10.2230    7.4126  -10.6574 H   0  0  0  0  0  0  0  0  0  0  0  0
   11.4143    5.2352  -10.6755 H   0  0  0  0  0  0  0  0  0  0  0  0
   12.3936    4.4474   -8.6206 H   0  0  0  0  0  0  0  0  0  0  0  0
   12.2649    5.7066   -6.5039 H   0  0  0  0  0  0  0  0  0  0  0  0
  1  6  2  0
  2  3  2  0
  2  1  1  0
  3  4  1  0
  4  5  2  0
  6  5  1  0
  1  7  1  0
  3  8  1  0
  5  9  1  0
 10 11  1  0
 11 12  1  0
 11 13  2  0
 13 14  1  0
 14 15  2  0
 15 16  1  0
 16 17  2  0
 17 18  1  0
 18 19  2  0
 19 10  1  0
 19 14  1  0
 15 20  1  0
 16 21  1  0
 17 22  1  0
 18 23  1  0
  2 10  1  0
M  END
>  <Score>  (1) 
-7.31652

$$$$

     RDKit          3D

 20 21  0  0  0  0  0  0  0  0999 V2000
   11.6896    9.2571   -4.3231 C   0  0  0  0  0  0  0  0  0  0  0  0
   11.3434    8.0933   -5.0396 C   0  0  0  0  0  0  0  0  0  0  0  0
   11.4160    6.8642   -4.3631 C   0  0  0  0  0  0  0  0  0  0  0  0
   11.8160    6.8722   -3.0576 N   0  0  0  0  0  0  0  0  0  0  0  0
   12.1392    8.0053   -2.4052 C   0  0  0  0  0  0  0  0  0  0  0  0
   12.0757    9.1960   -3.0384 N   0  0  0  0  0  0  0  0  0  0  0  0
   11.6150   10.1725   -4.8941 H   0  0  0  0  0  0  0  0  0  0  0  0
   11.1599    5.9691   -4.8804 H   0  0  0  0  0  0  0  0  0  0  0  0
   12.4514    7.9559   -1.3665 H   0  0  0  0  0  0  0  0  0  0  0  0
   10.9281    8.1549   -6.4204 C   0  0  0  0  0  0  0  0  0  0  0  0
   11.3613    7.2958   -7.3947 C   0  0  0  0  0  0  0  0  0  0  0  0
   10.9663    7.3547   -8.7071 C   0  0  0  0  0  0  0  0  0  0  0  0
   10.0680    8.3539   -9.0620 C   0  0  0  0  0  0  0  0  0  0  0  0
    9.5390    8.4616  -10.7321 Cl  0  0  0  0  0  0  0  0  0  0  0  0
    9.6103    9.2342   -8.1154 C   0  0  0  0  0  0  0  0  0  0  0  0
   10.0323    9.1419   -6.8037 C   0  0  0  0  0  0  0  0  0  0  0  0
   12.0587    6.5228   -7.1103 H   0  0  0  0  0  0  0  0  0  0  0  0
   11.2984    6.6871   -9.4816 H   0  0  0  0  0  0  0  0  0  0  0  0
    8.9016   10.0283   -8.3775 H   0  0  0  0  0  0  0  0  0  0  0  0
    9.6445    9.8588   -6.0897 H   0  0  0  0  0  0  0  0  0  0  0  0
  1  6  2  0
  2  3  2  0
  2  1  1  0
  3  4  1  0
  4  5  2  0
  6  5  1  0
  1  7  1  0
  3  8  1  0
  5  9  1  0
 10 11  2  0
 11 12  1  0
 12 13  2  0
 13 14  1  0
 13 15  1  0
 15 16  2  0
 16 10  1  0
 11 17  1  0
 12 18  1  0
 15 19  1  0
 16 20  1  0
  2 10  1  0
M  END
>  <Score>  (1) 
-7.31576

$$$$

     RDKit          3D

 23 24  0  0  0  0  0  0  0  0999 V2000
   11.6888    9.2522   -4.3240 C   0  0  0  0  0  0  0  0  0  0  0  0
   11.3436    8.0905   -5.0381 C   0  0  0  0  0  0  0  0  0  0  0  0
   11.4156    6.8733   -4.3676 C   0  0  0  0  0  0  0  0  0  0  0  0
   11.8170    6.8704   -3.0537 N   0  0  0  0  0  0  0  0  0  0  0  0
   12.1393    8.0055   -2.4052 C   0  0  0  0  0  0  0  0  0  0  0  0
   12.0758    9.1961   -3.0383 N   0  0  0  0  0  0  0  0  0  0  0  0
   11.6194   10.1729   -4.8801 H   0  0  0  0  0  0  0  0  0  0  0  0
   11.1675    5.9402   -4.8457 H   0  0  0  0  0  0  0  0  0  0  0  0
   12.4572    8.0252   -1.3724 H   0  0  0  0  0  0  0  0  0  0  0  0
    9.4331    9.5402  -10.8559 H   0  0  0  0  0  0  0  0  0  0  0  0
    9.7050    8.5717  -10.4650 C   0  0  0  0  0  0  0  0  0  0  0  0
    9.6389    7.5981  -11.2535 O   0  0  0  0  0  0  0  0  0  0  0  0
   10.1263    8.4388   -9.0749 C   0  0  0  0  0  0  0  0  0  0  0  0
   10.1902    9.5155   -8.2351 C   0  0  0  0  0  0  0  0  0  0  0  0
   10.5855    9.3735   -6.9408 N   0  0  0  0  0  0  0  0  0  0  0  0
   10.9279    8.1840   -6.4313 C   0  0  0  0  0  0  0  0  0  0  0  0
   10.8713    7.0857   -7.2583 C   0  0  0  0  0  0  0  0  0  0  0  0
   10.4720    7.1914   -8.5872 C   0  0  0  0  0  0  0  0  0  0  0  0
   10.4133    6.0593   -9.4406 N   0  0  0  0  0  0  0  0  0  0  0  0
    9.5232    5.7224   -9.8636 H   0  0  0  0  0  0  0  0  0  0  0  0
    9.9226   10.5003   -8.6015 H   0  0  0  0  0  0  0  0  0  0  0  0
   11.1290    6.1031   -6.9247 H   0  0  0  0  0  0  0  0  0  0  0  0
   11.2869    5.5372   -9.6597 H   0  0  0  0  0  0  0  0  0  0  0  0
  1  6  2  0
  2  3  2  0
  2  1  1  0
  3  4  1  0
  4  5  2  0
  6  5  1  0
  1  7  1  0
  3  8  1  0
  5  9  1  0
 10 11  1  0
 11 12  2  0
 11 13  1  0
 13 14  2  0
 14 15  1  0
 15 16  2  0
 16 17  1  0
 17 18  2  0
 18 19  1  0
 19 20  1  0
 18 13  1  0
 14 21  1  0
 17 22  1  0
 19 23  1  0
  2 16  1  0
M  END
>  <Score>  (1) 
-7.31041

$$$$

     RDKit          3D

 27 28  0  0  0  0  0  0  0  0999 V2000
   11.6894    9.2577   -4.3242 C   0  0  0  0  0  0  0  0  0  0  0  0
   11.3437    8.0931   -5.0388 C   0  0  0  0  0  0  0  0  0  0  0  0
   11.4161    6.8643   -4.3628 C   0  0  0  0  0  0  0  0  0  0  0  0
   11.8153    6.8699   -3.0591 N   0  0  0  0  0  0  0  0  0  0  0  0
   12.1397    8.0084   -2.4048 C   0  0  0  0  0  0  0  0  0  0  0  0
   12.0759    9.1947   -3.0372 N   0  0  0  0  0  0  0  0  0  0  0  0
   11.6296   10.2023   -4.8572 H   0  0  0  0  0  0  0  0  0  0  0  0
   11.1584    5.9417   -4.8759 H   0  0  0  0  0  0  0  0  0  0  0  0
   12.4540    7.9647   -1.3612 H   0  0  0  0  0  0  0  0  0  0  0  0
   10.9167    8.1667   -6.4617 C   0  0  2  0  0  0  0  0  0  0  0  0
   11.2455    9.3873   -6.9675 O   0  0  0  0  0  0  0  0  0  0  0  0
   10.1263   10.0754   -7.3372 C   0  0  1  0  0  0  0  0  0  0  0  0
   10.2900   10.4393   -8.8181 C   0  0  0  0  0  0  0  0  0  0  0  0
   11.4145   11.2264   -9.0265 O   0  0  0  0  0  0  0  0  0  0  0  0
    8.9300    9.1948   -7.2319 C   0  0  1  0  0  0  0  0  0  0  0  0
    8.3601    8.9093   -8.4767 O   0  0  0  0  0  0  0  0  0  0  0  0
    9.4564    7.9349   -6.6286 C   0  0  1  0  0  0  0  0  0  0  0  0
    9.1717    6.8408   -7.4577 O   0  0  0  0  0  0  0  0  0  0  0  0
   11.5000    7.3928   -7.0028 H   0  0  0  0  0  0  0  0  0  0  0  0
    9.9761   10.9966   -6.7431 H   0  0  0  0  0  0  0  0  0  0  0  0
    9.4143   11.0141   -9.1590 H   0  0  0  0  0  0  0  0  0  0  0  0
   10.3750    9.5392   -9.4402 H   0  0  0  0  0  0  0  0  0  0  0  0
   11.8769   10.9976   -9.8632 H   0  0  0  0  0  0  0  0  0  0  0  0
    8.1621    9.6047   -6.5342 H   0  0  0  0  0  0  0  0  0  0  0  0
    8.8458    8.1680   -8.8901 H   0  0  0  0  0  0  0  0  0  0  0  0
    8.9775    7.7033   -5.6373 H   0  0  0  0  0  0  0  0  0  0  0  0
    9.6044    6.0278   -7.1081 H   0  0  0  0  0  0  0  0  0  0  0  0
  1  6  2  0
  2  3  2  0
  2  1  1  0
  3  4  1  0
  4  5  2  0
  6  5  1  0
  1  7  1  0
  3  8  1  0
  5  9  1  0
 10 11  1  0
 11 12  1  0
 12 13  1  0
 13 14  1  0
 12 15  1  0
 15 16  1  0
 15 17  1  0
 17 18  1  0
 17 10  1  0
 10 19  1  6
 12 20  1  1
 13 21  1  0
 13 22  1  0
 14 23  1  0
 15 24  1  1
 16 25  1  0
 17 26  1  1
 18 27  1  0
  2 10  1  0
M  END
>  <Score>  (1) 
-7.31033

$$$$

     RDKit          3D

 26 27  0  0  0  0  0  0  0  0999 V2000
   11.6891    9.2574   -4.3250 C   0  0  0  0  0  0  0  0  0  0  0  0
   11.3437    8.0937   -5.0389 C   0  0  0  0  0  0  0  0  0  0  0  0
   11.4163    6.8639   -4.3621 C   0  0  0  0  0  0  0  0  0  0  0  0
   11.8149    6.8693   -3.0601 N   0  0  0  0  0  0  0  0  0  0  0  0
   12.1398    8.0099   -2.4049 C   0  0  0  0  0  0  0  0  0  0  0  0
   12.0762    9.1938   -3.0361 N   0  0  0  0  0  0  0  0  0  0  0  0
   11.6470   10.2255   -4.8085 H   0  0  0  0  0  0  0  0  0  0  0  0
   11.1611    5.9609   -4.8740 H   0  0  0  0  0  0  0  0  0  0  0  0
   12.4423    7.8995   -1.3761 H   0  0  0  0  0  0  0  0  0  0  0  0
    9.4305    6.3569   -9.6793 H   0  0  0  0  0  0  0  0  0  0  0  0
   10.2501    5.9507   -9.0549 C   0  0  0  0  0  0  0  0  0  0  0  0
   10.1193    6.4056   -7.5992 C   0  0  1  0  0  0  0  0  0  0  0  0
   11.2424    7.0289   -7.1465 O   0  0  0  0  0  0  0  0  0  0  0  0
   10.9178    8.1526   -6.4529 C   0  0  1  0  0  0  0  0  0  0  0  0
    9.4480    8.4011   -6.5644 C   0  0  1  0  0  0  0  0  0  0  0  0
    9.1866    9.6850   -7.0409 O   0  0  0  0  0  0  0  0  0  0  0  0
    8.9553    7.3245   -7.4846 C   0  0  2  0  0  0  0  0  0  0  0  0
    7.8431    6.6896   -6.9020 O   0  0  0  0  0  0  0  0  0  0  0  0
   10.2132    4.8532   -9.1261 H   0  0  0  0  0  0  0  0  0  0  0  0
   11.1906    6.3822   -9.4461 H   0  0  0  0  0  0  0  0  0  0  0  0
    9.9535    5.4925   -6.9761 H   0  0  0  0  0  0  0  0  0  0  0  0
   11.4571    9.0157   -6.9134 H   0  0  0  0  0  0  0  0  0  0  0  0
    8.9273    8.3243   -5.5752 H   0  0  0  0  0  0  0  0  0  0  0  0
    9.9890   10.0949   -7.4188 H   0  0  0  0  0  0  0  0  0  0  0  0
    8.7195    7.7536   -8.4732 H   0  0  0  0  0  0  0  0  0  0  0  0
    8.1733    5.9368   -6.3421 H   0  0  0  0  0  0  0  0  0  0  0  0
  1  6  2  0
  2  3  2  0
  2  1  1  0
  3  4  1  0
  4  5  2  0
  6  5  1  0
  1  7  1  0
  3  8  1  0
  5  9  1  0
 10 11  1  0
 11 12  1  0
 12 13  1  0
 13 14  1  0
 14 15  1  0
 15 16  1  0
 15 17  1  0
 17 18  1  0
 17 12  1  0
 11 19  1  0
 11 20  1  0
 12 21  1  1
 14 22  1  6
 15 23  1  1
 16 24  1  0
 17 25  1  6
 18 26  1  0
  2 14  1  0
M  END
>  <Score>  (1) 
-7.30837

$$$$

     RDKit          3D

 20 21  0  0  0  0  0  0  0  0999 V2000
   12.3025    8.1254   -2.3018 C   0  0  0  0  0  0  0  0  0  0  0  0
   12.0209    6.8823   -2.9142 C   0  0  0  0  0  0  0  0  0  0  0  0
   11.5249    6.8953   -4.2232 C   0  0  0  0  0  0  0  0  0  0  0  0
   11.3426    8.1138   -4.8314 N   0  0  0  0  0  0  0  0  0  0  0  0
   11.6228    9.2735   -4.2141 C   0  0  0  0  0  0  0  0  0  0  0  0
   12.1013    9.2806   -2.9533 N   0  0  0  0  0  0  0  0  0  0  0  0
   12.6834    8.0634   -1.2912 H   0  0  0  0  0  0  0  0  0  0  0  0
   12.1810    5.9642   -2.3962 H   0  0  0  0  0  0  0  0  0  0  0  0
   11.2920    5.9729   -4.7407 H   0  0  0  0  0  0  0  0  0  0  0  0
   11.4088   10.5375   -4.9102 C   0  0  0  0  0  0  0  0  0  0  0  0
   12.4291   11.0887   -5.6636 C   0  0  0  0  0  0  0  0  0  0  0  0
   12.3018   12.2715   -6.3445 C   0  0  0  0  0  0  0  0  0  0  0  0
   11.0841   12.9289   -6.2595 C   0  0  0  0  0  0  0  0  0  0  0  0
   10.9099   14.1145   -6.9230 F   0  0  0  0  0  0  0  0  0  0  0  0
   10.0450   12.4078   -5.5170 C   0  0  0  0  0  0  0  0  0  0  0  0
   10.2072   11.2134   -4.8432 C   0  0  0  0  0  0  0  0  0  0  0  0
    8.9305   10.5036   -3.8877 Cl  0  0  0  0  0  0  0  0  0  0  0  0
   13.3691   10.5629   -5.7180 H   0  0  0  0  0  0  0  0  0  0  0  0
   13.1260   12.6744   -6.9269 H   0  0  0  0  0  0  0  0  0  0  0  0
    9.0867   12.9422   -5.4607 H   0  0  0  0  0  0  0  0  0  0  0  0
  2  1  2  0
  3  2  1  0
  4  3  2  0
  4  5  1  0
  5  6  2  0
  6  1  1  0
  1  7  1  0
  2  8  1  0
  3  9  1  0
 10 11  2  0
 11 12  1  0
 12 13  2  0
 13 14  1  0
 13 15  1  0
 15 16  2  0
 16 17  1  0
 16 10  1  0
 11 18  1  0
 12 19  1  0
 15 20  1  0
  5 10  1  0
M  END
>  <Score>  (1) 
-7.51469

$$$$

     RDKit          3D

 26 27  0  0  0  0  0  0  0  0999 V2000
   11.6892    9.2574   -4.3245 C   0  0  0  0  0  0  0  0  0  0  0  0
   11.3437    8.0936   -5.0390 C   0  0  0  0  0  0  0  0  0  0  0  0
   11.4162    6.8639   -4.3622 C   0  0  0  0  0  0  0  0  0  0  0  0
   11.8150    6.8697   -3.0598 N   0  0  0  0  0  0  0  0  0  0  0  0
   12.1398    8.0091   -2.4047 C   0  0  0  0  0  0  0  0  0  0  0  0
   12.0761    9.1943   -3.0367 N   0  0  0  0  0  0  0  0  0  0  0  0
   11.6441   10.2172   -4.8152 H   0  0  0  0  0  0  0  0  0  0  0  0
   11.1604    5.9471   -4.8715 H   0  0  0  0  0  0  0  0  0  0  0  0
   12.4525    7.9846   -1.3731 H   0  0  0  0  0  0  0  0  0  0  0  0
    9.7900    7.1930   -9.9838 H   0  0  0  0  0  0  0  0  0  0  0  0
   10.2080    7.7623   -9.1072 C   0  0  0  0  0  0  0  0  0  0  0  0
    9.3350    7.6287   -7.9028 C   0  0  1  0  0  0  0  0  0  0  0  0
   10.0383    7.1535   -6.7766 O   0  0  0  0  0  0  0  0  0  0  0  0
   10.9175    8.1621   -6.4574 C   0  0  1  0  0  0  0  0  0  0  0  0
   10.2489    9.4766   -6.7806 C   0  0  2  0  0  0  0  0  0  0  0  0
   10.0186   10.2426   -5.6366 O   0  0  0  0  0  0  0  0  0  0  0  0
    8.9246    9.0130   -7.3895 C   0  0  2  0  0  0  0  0  0  0  0  0
    7.9298    8.9115   -6.4343 O   0  0  0  0  0  0  0  0  0  0  0  0
   10.2051    8.8367   -9.4370 H   0  0  0  0  0  0  0  0  0  0  0  0
   11.2424    7.3964   -8.9381 H   0  0  0  0  0  0  0  0  0  0  0  0
    8.4581    7.0029   -8.1107 H   0  0  0  0  0  0  0  0  0  0  0  0
   11.8350    8.0272   -7.0739 H   0  0  0  0  0  0  0  0  0  0  0  0
   10.8043   10.0540   -7.5193 H   0  0  0  0  0  0  0  0  0  0  0  0
    9.1516   10.6927   -5.7683 H   0  0  0  0  0  0  0  0  0  0  0  0
    8.6118    9.6582   -8.2222 H   0  0  0  0  0  0  0  0  0  0  0  0
    7.0919    9.3786   -6.7333 H   0  0  0  0  0  0  0  0  0  0  0  0
  1  6  2  0
  2  3  2  0
  2  1  1  0
  3  4  1  0
  4  5  2  0
  6  5  1  0
  1  7  1  0
  3  8  1  0
  5  9  1  0
 10 11  1  0
 11 12  1  0
 12 13  1  0
 13 14  1  0
 14 15  1  0
 15 16  1  0
 15 17  1  0
 17 18  1  0
 17 12  1  0
 11 19  1  0
 11 20  1  0
 12 21  1  6
 14 22  1  6
 15 23  1  6
 16 24  1  0
 17 25  1  6
 18 26  1  0
  2 14  1  0
M  END
>  <Score>  (1) 
-7.29779

$$$$

     RDKit          3D

 25 26  0  0  0  0  0  0  0  0999 V2000
   11.6892    9.2578   -4.3250 C   0  0  0  0  0  0  0  0  0  0  0  0
   11.3437    8.0937   -5.0387 C   0  0  0  0  0  0  0  0  0  0  0  0
   11.4164    6.8628   -4.3613 C   0  0  0  0  0  0  0  0  0  0  0  0
   11.8149    6.8708   -3.0605 N   0  0  0  0  0  0  0  0  0  0  0  0
   12.1395    8.0066   -2.4047 C   0  0  0  0  0  0  0  0  0  0  0  0
   12.0762    9.1963   -3.0368 N   0  0  0  0  0  0  0  0  0  0  0  0
   11.6537   10.2242   -4.7859 H   0  0  0  0  0  0  0  0  0  0  0  0
   11.1723    5.9425   -4.8305 H   0  0  0  0  0  0  0  0  0  0  0  0
   12.4441    7.9028   -1.3715 H   0  0  0  0  0  0  0  0  0  0  0  0
   10.9302    8.1526   -6.4132 C   0  0  0  0  0  0  0  0  0  0  0  0
   10.8059    9.3384   -7.1158 C   0  0  0  0  0  0  0  0  0  0  0  0
   10.4047    9.3769   -8.4433 C   0  0  0  0  0  0  0  0  0  0  0  0
   10.1225    8.1664   -9.0704 C   0  0  0  0  0  0  0  0  0  0  0  0
   10.2332    6.9590   -8.4073 C   0  0  0  0  0  0  0  0  0  0  0  0
    9.8673    5.4582   -9.2368 S   0  0  0  0  0  6  0  0  0  0  0  0
    8.2093    5.0592   -9.0558 N   0  0  0  0  0  0  0  0  0  0  0  0
   10.1723    5.6878  -10.6961 O   0  0  0  0  0  0  0  0  0  0  0  0
   10.7620    4.3689   -8.7404 O   0  0  0  0  0  0  0  0  0  0  0  0
   10.6380    6.9838   -7.0836 C   0  0  0  0  0  0  0  0  0  0  0  0
   11.0401   10.2405   -6.5703 H   0  0  0  0  0  0  0  0  0  0  0  0
   10.3194   10.3264   -8.9588 H   0  0  0  0  0  0  0  0  0  0  0  0
    9.8084    8.1737  -10.1036 H   0  0  0  0  0  0  0  0  0  0  0  0
    7.8425    4.7458   -9.9805 H   0  0  0  0  0  0  0  0  0  0  0  0
    7.6737    5.9079   -8.7685 H   0  0  0  0  0  0  0  0  0  0  0  0
   10.7153    6.0147   -6.5903 H   0  0  0  0  0  0  0  0  0  0  0  0
  1  6  2  0
  2  3  2  0
  2  1  1  0
  3  4  1  0
  4  5  2  0
  6  5  1  0
  1  7  1  0
  3  8  1  0
  5  9  1  0
 10 11  2  0
 11 12  1  0
 12 13  2  0
 13 14  1  0
 14 15  1  0
 15 16  1  0
 15 17  2  0
 15 18  2  0
 14 19  2  0
 19 10  1  0
 11 20  1  0
 12 21  1  0
 13 22  1  0
 16 23  1  0
 16 24  1  0
 19 25  1  0
  2 10  1  0
M  END
>  <Score>  (1) 
-7.29603

$$$$

     RDKit          3D

 24 26  0  0  0  0  0  0  0  0999 V2000
   11.6875    9.2521   -4.3284 C   0  0  0  0  0  0  0  0  0  0  0  0
   11.3444    8.0917   -5.0357 C   0  0  0  0  0  0  0  0  0  0  0  0
   11.4148    6.8714   -4.3694 C   0  0  0  0  0  0  0  0  0  0  0  0
   11.8169    6.8705   -3.0541 N   0  0  0  0  0  0  0  0  0  0  0  0
   12.1396    8.0070   -2.4047 C   0  0  0  0  0  0  0  0  0  0  0  0
   12.0768    9.1953   -3.0347 N   0  0  0  0  0  0  0  0  0  0  0  0
   11.6201   10.1722   -4.8777 H   0  0  0  0  0  0  0  0  0  0  0  0
   11.1749    5.9432   -4.8225 H   0  0  0  0  0  0  0  0  0  0  0  0
   12.4413    7.9162   -1.3855 H   0  0  0  0  0  0  0  0  0  0  0  0
    9.1053    4.5062   -7.5335 H   0  0  0  0  0  0  0  0  0  0  0  0
    8.8910    4.7869   -8.5567 C   0  0  0  0  0  0  0  0  0  0  0  0
    8.3266    4.0047   -9.3396 O   0  0  0  0  0  0  0  0  0  0  0  0
    9.2857    6.1224   -9.0002 C   0  0  0  0  0  0  0  0  0  0  0  0
    9.0951    6.6462  -10.2545 C   0  0  0  0  0  0  0  0  0  0  0  0
    9.5937    7.8713  -10.2341 N   0  0  0  0  0  0  0  0  0  0  0  0
   10.0894    8.1686   -9.0573 N   0  0  0  0  0  0  0  0  0  0  0  0
   10.6875    9.2658   -8.5654 C   0  0  0  0  0  0  0  0  0  0  0  0
   11.1030    9.2443   -7.2388 C   0  0  0  0  0  0  0  0  0  0  0  0
   10.9261    8.1590   -6.4283 C   0  0  0  0  0  0  0  0  0  0  0  0
   10.3208    7.0829   -6.9696 N   0  0  0  0  0  0  0  0  0  0  0  0
    9.9125    7.1041   -8.2733 C   0  0  0  0  0  0  0  0  0  0  0  0
    8.6242    6.1310  -11.0799 H   0  0  0  0  0  0  0  0  0  0  0  0
   10.8333   10.1297   -9.1949 H   0  0  0  0  0  0  0  0  0  0  0  0
   11.5774   10.1214   -6.8569 H   0  0  0  0  0  0  0  0  0  0  0  0
  1  6  2  0
  2  3  2  0
  2  1  1  0
  3  4  1  0
  4  5  2  0
  6  5  1  0
  1  7  1  0
  3  8  1  0
  5  9  1  0
 10 11  1  0
 11 12  2  0
 11 13  1  0
 13 14  1  0
 14 15  2  0
 15 16  1  0
 16 17  1  0
 17 18  2  0
 18 19  1  0
 19 20  2  0
 20 21  1  0
 21 13  2  0
 21 16  1  0
 14 22  1  0
 17 23  1  0
 18 24  1  0
  2 19  1  0
M  END
>  <Score>  (1) 
-7.29596

$$$$

     RDKit          3D

 28 29  0  0  0  0  0  0  0  0999 V2000
   11.6894    9.2576   -4.3241 C   0  0  0  0  0  0  0  0  0  0  0  0
   11.3436    8.0924   -5.0388 C   0  0  0  0  0  0  0  0  0  0  0  0
   11.4159    6.8650   -4.3636 C   0  0  0  0  0  0  0  0  0  0  0  0
   11.8155    6.8702   -3.0584 N   0  0  0  0  0  0  0  0  0  0  0  0
   12.1396    8.0081   -2.4050 C   0  0  0  0  0  0  0  0  0  0  0  0
   12.0760    9.1948   -3.0371 N   0  0  0  0  0  0  0  0  0  0  0  0
   11.6203   10.1735   -4.8774 H   0  0  0  0  0  0  0  0  0  0  0  0
   11.1593    5.9544   -4.8775 H   0  0  0  0  0  0  0  0  0  0  0  0
   12.4452    7.9176   -1.3730 H   0  0  0  0  0  0  0  0  0  0  0  0
   10.9248    8.1764   -6.4385 C   0  0  2  0  0  0  0  0  0  0  0  0
   11.5503    7.1464   -7.3242 C   0  0  0  0  0  0  0  0  0  0  0  0
   12.0540    7.6436   -8.6223 C   0  0  0  0  0  0  0  0  0  0  0  0
   11.2515    8.6997   -9.2827 C   0  0  2  0  0  0  0  0  0  0  0  0
   12.1782    9.5400  -10.0578 N   0  0  0  0  0  0  0  0  0  0  0  0
   10.4429    9.5527   -8.3568 C   0  0  0  0  0  0  0  0  0  0  0  0
   11.1637    9.5760   -7.0207 C   0  0  0  0  0  0  0  0  0  0  0  0
    9.8252    8.0307   -6.4784 H   0  0  0  0  0  0  0  0  0  0  0  0
   10.8637    6.2675   -7.4660 H   0  0  0  0  0  0  0  0  0  0  0  0
   12.4298    6.7223   -6.7559 H   0  0  0  0  0  0  0  0  0  0  0  0
   13.1273    7.9572   -8.5159 H   0  0  0  0  0  0  0  0  0  0  0  0
   12.1010    6.7629   -9.3295 H   0  0  0  0  0  0  0  0  0  0  0  0
   10.5361    8.2844  -10.0516 H   0  0  0  0  0  0  0  0  0  0  0  0
   11.6817   10.2732  -10.5787 H   0  0  0  0  0  0  0  0  0  0  0  0
   12.9778    9.8623   -9.4854 H   0  0  0  0  0  0  0  0  0  0  0  0
    9.4428    9.0594   -8.2379 H   0  0  0  0  0  0  0  0  0  0  0  0
   10.2645   10.5611   -8.7620 H   0  0  0  0  0  0  0  0  0  0  0  0
   12.2370    9.7460   -7.2286 H   0  0  0  0  0  0  0  0  0  0  0  0
   10.7269   10.3433   -6.3632 H   0  0  0  0  0  0  0  0  0  0  0  0
  1  6  2  0
  2  3  2  0
  2  1  1  0
  3  4  1  0
  4  5  2  0
  6  5  1  0
  1  7  1  0
  3  8  1  0
  5  9  1  0
 10 11  1  0
 11 12  1  0
 12 13  1  0
 13 14  1  0
 13 15  1  0
 15 16  1  0
 16 10  1  0
 10 17  1  1
 11 18  1  0
 11 19  1  0
 12 20  1  0
 12 21  1  0
 13 22  1  6
 14 23  1  0
 14 24  1  0
 15 25  1  0
 15 26  1  0
 16 27  1  0
 16 28  1  0
  2 10  1  0
M  END
>  <Score>  (1) 
-7.29569

$$$$

     RDKit          3D

 20 21  0  0  0  0  0  0  0  0999 V2000
   11.6896    9.2576   -4.3235 C   0  0  0  0  0  0  0  0  0  0  0  0
   11.3435    8.0914   -5.0386 C   0  0  0  0  0  0  0  0  0  0  0  0
   11.4157    6.8661   -4.3649 C   0  0  0  0  0  0  0  0  0  0  0  0
   11.8159    6.8706   -3.0572 N   0  0  0  0  0  0  0  0  0  0  0  0
   12.1395    8.0070   -2.4049 C   0  0  0  0  0  0  0  0  0  0  0  0
   12.0758    9.1953   -3.0379 N   0  0  0  0  0  0  0  0  0  0  0  0
   11.6474   10.2238   -4.8067 H   0  0  0  0  0  0  0  0  0  0  0  0
   11.1689    5.9422   -4.8454 H   0  0  0  0  0  0  0  0  0  0  0  0
   12.4434    7.9003   -1.3727 H   0  0  0  0  0  0  0  0  0  0  0  0
   10.9262    8.1649   -6.4251 C   0  0  0  0  0  0  0  0  0  0  0  0
   10.5784    6.9931   -7.0811 C   0  0  0  0  0  0  0  0  0  0  0  0
   10.1702    7.0141   -8.4104 C   0  0  0  0  0  0  0  0  0  0  0  0
   10.0990    8.1980   -9.1151 C   0  0  0  0  0  0  0  0  0  0  0  0
   10.4446    9.3655   -8.4647 C   0  0  0  0  0  0  0  0  0  0  0  0
   10.8565    9.3504   -7.1259 C   0  0  0  0  0  0  0  0  0  0  0  0
   11.2877   10.8259   -6.3303 Cl  0  0  0  0  0  0  0  0  0  0  0  0
   10.6356    6.0674   -6.5249 H   0  0  0  0  0  0  0  0  0  0  0  0
    9.9029    6.0737   -8.8986 H   0  0  0  0  0  0  0  0  0  0  0  0
    9.7824    8.2406  -10.1565 H   0  0  0  0  0  0  0  0  0  0  0  0
   10.3899   10.3053   -9.0184 H   0  0  0  0  0  0  0  0  0  0  0  0
  1  6  2  0
  2  3  2  0
  2  1  1  0
  3  4  1  0
  4  5  2  0
  6  5  1  0
  1  7  1  0
  3  8  1  0
  5  9  1  0
 10 11  2  0
 11 12  1  0
 12 13  2  0
 13 14  1  0
 14 15  2  0
 15 16  1  0
 15 10  1  0
 11 17  1  0
 12 18  1  0
 13 19  1  0
 14 20  1  0
  2 10  1  0
M  END
>  <Score>  (1) 
-7.29099

$$$$

     RDKit          3D

 31 32  0  0  0  0  0  0  0  0999 V2000
   11.6900    9.2590   -4.3224 C   0  0  0  0  0  0  0  0  0  0  0  0
   11.3434    8.0902   -5.0386 C   0  0  0  0  0  0  0  0  0  0  0  0
   11.4156    6.8658   -4.3651 C   0  0  0  0  0  0  0  0  0  0  0  0
   11.8159    6.8708   -3.0572 N   0  0  0  0  0  0  0  0  0  0  0  0
   12.1395    8.0067   -2.4049 C   0  0  0  0  0  0  0  0  0  0  0  0
   12.0756    9.1955   -3.0387 N   0  0  0  0  0  0  0  0  0  0  0  0
   11.6268   10.1910   -4.8623 H   0  0  0  0  0  0  0  0  0  0  0  0
   11.1582    5.9742   -4.8883 H   0  0  0  0  0  0  0  0  0  0  0  0
   12.4455    7.9178   -1.3722 H   0  0  0  0  0  0  0  0  0  0  0  0
   10.9182    8.1574   -6.4532 C   0  0  2  0  0  0  0  0  0  0  0  0
   10.9114    9.4639   -6.9417 O   0  0  0  0  0  0  0  0  0  0  0  0
   10.8087    9.3611   -8.3259 C   0  0  2  0  0  0  0  0  0  0  0  0
   11.2237   10.6217   -9.0326 C   0  0  0  0  0  0  0  0  0  0  0  0
   10.4577   11.7148   -8.6741 O   0  0  0  0  0  0  0  0  0  0  0  0
    9.4151    8.9247   -8.6521 C   0  0  1  0  0  0  0  0  0  0  0  0
    9.0872    9.0241   -9.9839 O   0  0  0  0  0  0  0  0  0  0  0  0
    9.2919    7.4795   -8.1586 C   0  0  2  0  0  0  0  0  0  0  0  0
    8.0799    6.9271   -8.4805 O   0  0  0  0  0  0  0  0  0  0  0  0
    9.6051    7.4487   -6.6896 C   0  0  2  0  0  0  0  0  0  0  0  0
    8.5656    7.9958   -5.9496 O   0  0  0  0  0  0  0  0  0  0  0  0
   11.6832    7.6116   -7.0530 H   0  0  0  0  0  0  0  0  0  0  0  0
   11.4975    8.5491   -8.6494 H   0  0  0  0  0  0  0  0  0  0  0  0
   11.2837   10.4597  -10.1118 H   0  0  0  0  0  0  0  0  0  0  0  0
   12.2735   10.8396   -8.6925 H   0  0  0  0  0  0  0  0  0  0  0  0
   11.0259   12.5258   -8.6693 H   0  0  0  0  0  0  0  0  0  0  0  0
    8.6555    9.5023   -8.0596 H   0  0  0  0  0  0  0  0  0  0  0  0
    8.7817    9.9380  -10.1675 H   0  0  0  0  0  0  0  0  0  0  0  0
   10.1179    6.9236   -8.6877 H   0  0  0  0  0  0  0  0  0  0  0  0
    7.3497    7.5757   -8.6052 H   0  0  0  0  0  0  0  0  0  0  0  0
    9.7585    6.3873   -6.4024 H   0  0  0  0  0  0  0  0  0  0  0  0
    7.7996    7.3673   -6.0388 H   0  0  0  0  0  0  0  0  0  0  0  0
  1  6  2  0
  2  3  2  0
  2  1  1  0
  3  4  1  0
  4  5  2  0
  6  5  1  0
  1  7  1  0
  3  8  1  0
  5  9  1  0
 10 11  1  0
 11 12  1  0
 12 13  1  0
 13 14  1  0
 12 15  1  0
 15 16  1  0
 15 17  1  0
 17 18  1  0
 17 19  1  0
 19 20  1  0
 19 10  1  0
 10 21  1  6
 12 22  1  6
 13 23  1  0
 13 24  1  0
 14 25  1  0
 15 26  1  1
 16 27  1  0
 17 28  1  6
 18 29  1  0
 19 30  1  1
 20 31  1  0
  2 10  1  0
M  END
>  <Score>  (1) 
-7.2865

$$$$

     RDKit          3D

 21 22  0  0  0  0  0  0  0  0999 V2000
   11.6892    9.2595   -4.3253 C   0  0  0  0  0  0  0  0  0  0  0  0
   11.3432    8.0908   -5.0394 C   0  0  0  0  0  0  0  0  0  0  0  0
   11.4161    6.8653   -4.3630 C   0  0  0  0  0  0  0  0  0  0  0  0
   11.8163    6.8731   -3.0569 N   0  0  0  0  0  0  0  0  0  0  0  0
   12.1387    8.0030   -2.4061 C   0  0  0  0  0  0  0  0  0  0  0  0
   12.0764    9.1963   -3.0363 N   0  0  0  0  0  0  0  0  0  0  0  0
   11.6426   10.2214   -4.8205 H   0  0  0  0  0  0  0  0  0  0  0  0
   11.1576    5.9858   -4.8939 H   0  0  0  0  0  0  0  0  0  0  0  0
   12.4542    7.9607   -1.3604 H   0  0  0  0  0  0  0  0  0  0  0  0
   10.9283    8.1425   -6.4166 C   0  0  0  0  0  0  0  0  0  0  0  0
   11.6763    7.4759   -7.3783 C   0  0  0  0  0  0  0  0  0  0  0  0
   11.3256    7.4932   -8.7014 C   0  0  0  0  0  0  0  0  0  0  0  0
   10.2107    8.1831   -9.0932 C   0  0  0  0  0  0  0  0  0  0  0  0
    9.8359    8.2080  -10.4632 C   0  0  0  0  0  0  0  0  0  0  0  0
    9.5485    8.2402  -11.5697 N   0  0  0  0  0  0  0  0  0  0  0  0
    9.4268    8.8668   -8.1751 C   0  0  0  0  0  0  0  0  0  0  0  0
    8.5584    9.3948   -8.5388 H   0  0  0  0  0  0  0  0  0  0  0  0
    9.8249    8.8155   -6.8626 C   0  0  0  0  0  0  0  0  0  0  0  0
   12.5608    6.9290   -7.0632 H   0  0  0  0  0  0  0  0  0  0  0  0
   11.9237    6.9640   -9.4499 H   0  0  0  0  0  0  0  0  0  0  0  0
    9.2179    9.3479   -6.1313 H   0  0  0  0  0  0  0  0  0  0  0  0
  1  6  2  0
  2  3  2  0
  2  1  1  0
  3  4  1  0
  4  5  2  0
  6  5  1  0
  1  7  1  0
  3  8  1  0
  5  9  1  0
 10 11  2  0
 11 12  1  0
 12 13  2  0
 13 14  1  0
 14 15  3  0
 13 16  1  0
 16 17  1  0
 16 18  2  0
 18 10  1  0
 11 19  1  0
 12 20  1  0
 18 21  1  0
  2 10  1  0
M  END
>  <Score>  (1) 
-7.28587

$$$$

     RDKit          3D

 20 21  0  0  0  0  0  0  0  0999 V2000
   11.6894    9.2569   -4.3239 C   0  0  0  0  0  0  0  0  0  0  0  0
   11.3439    8.0938   -5.0383 C   0  0  0  0  0  0  0  0  0  0  0  0
   11.4153    6.8643   -4.3655 C   0  0  0  0  0  0  0  0  0  0  0  0
   11.8167    6.8711   -3.0550 N   0  0  0  0  0  0  0  0  0  0  0  0
   12.1386    8.0096   -2.4086 C   0  0  0  0  0  0  0  0  0  0  0  0
   12.0762    9.1923   -3.0358 N   0  0  0  0  0  0  0  0  0  0  0  0
   11.6249   10.1738   -4.8634 H   0  0  0  0  0  0  0  0  0  0  0  0
   11.1584    5.9456   -4.8775 H   0  0  0  0  0  0  0  0  0  0  0  0
   12.4459    7.9302   -1.3758 H   0  0  0  0  0  0  0  0  0  0  0  0
   10.9248    8.1730   -6.4364 C   0  0  0  0  0  0  0  0  0  0  0  0
   10.1429    7.1942   -7.0217 C   0  0  0  0  0  0  0  0  0  0  0  0
    9.7804    6.1538   -6.2362 F   0  0  0  0  0  0  0  0  0  0  0  0
    9.7575    7.2901   -8.3496 C   0  0  0  0  0  0  0  0  0  0  0  0
   10.1367    8.3586   -9.1321 C   0  0  0  0  0  0  0  0  0  0  0  0
   10.9177    9.3397   -8.5532 C   0  0  0  0  0  0  0  0  0  0  0  0
   11.3084    9.2460   -7.2142 C   0  0  0  0  0  0  0  0  0  0  0  0
   12.0830   10.2250   -6.6550 F   0  0  0  0  0  0  0  0  0  0  0  0
    9.1440    6.5128   -8.7954 H   0  0  0  0  0  0  0  0  0  0  0  0
    9.8537    8.4643  -10.1707 H   0  0  0  0  0  0  0  0  0  0  0  0
   11.2519   10.2117   -9.1159 H   0  0  0  0  0  0  0  0  0  0  0  0
  1  6  2  0
  2  3  2  0
  2  1  1  0
  3  4  1  0
  4  5  2  0
  6  5  1  0
  1  7  1  0
  3  8  1  0
  5  9  1  0
 10 11  2  0
 11 12  1  0
 11 13  1  0
 13 14  2  0
 14 15  1  0
 15 16  2  0
 16 17  1  0
 16 10  1  0
 13 18  1  0
 14 19  1  0
 15 20  1  0
  2 10  1  0
M  END
>  <Score>  (1) 
-7.28584

$$$$

     RDKit          3D

 27 28  0  0  0  0  0  0  0  0999 V2000
   11.6895    9.2577   -4.3239 C   0  0  0  0  0  0  0  0  0  0  0  0
   11.3437    8.0925   -5.0385 C   0  0  0  0  0  0  0  0  0  0  0  0
   11.4157    6.8647   -4.3642 C   0  0  0  0  0  0  0  0  0  0  0  0
   11.8158    6.8709   -3.0576 N   0  0  0  0  0  0  0  0  0  0  0  0
   12.1394    8.0068   -2.4051 C   0  0  0  0  0  0  0  0  0  0  0  0
   12.0758    9.1954   -3.0378 N   0  0  0  0  0  0  0  0  0  0  0  0
   11.6178   10.1729   -4.8852 H   0  0  0  0  0  0  0  0  0  0  0  0
   11.1627    5.9461   -4.8634 H   0  0  0  0  0  0  0  0  0  0  0  0
   12.4447    7.9095   -1.3719 H   0  0  0  0  0  0  0  0  0  0  0  0
   10.9257    8.1667   -6.4322 C   0  0  1  0  0  0  0  0  0  0  0  0
   10.6192    6.9194   -6.9890 O   0  0  0  0  0  0  0  0  0  0  0  0
   10.1507    7.3156   -8.2407 C   0  0  1  0  0  0  0  0  0  0  0  0
    9.6221    6.1537   -9.0401 C   0  0  0  0  0  0  0  0  0  0  0  0
    8.5644    5.5161   -8.4024 O   0  0  0  0  0  0  0  0  0  0  0  0
    9.0638    8.2974   -7.8616 C   0  0  1  0  0  0  0  0  0  0  0  0
    7.9066    7.6337   -7.4490 O   0  0  0  0  0  0  0  0  0  0  0  0
    9.7224    9.0190   -6.6857 C   0  0  1  0  0  0  0  0  0  0  0  0
    8.8813    9.1563   -5.6134 O   0  0  0  0  0  0  0  0  0  0  0  0
   11.7684    8.5683   -7.0478 H   0  0  0  0  0  0  0  0  0  0  0  0
   10.9316    7.8812   -8.7802 H   0  0  0  0  0  0  0  0  0  0  0  0
    9.3714    6.4293  -10.0767 H   0  0  0  0  0  0  0  0  0  0  0  0
   10.4582    5.4126   -9.1110 H   0  0  0  0  0  0  0  0  0  0  0  0
    8.5481    4.5343   -8.5896 H   0  0  0  0  0  0  0  0  0  0  0  0
    8.8339    8.9811   -8.6897 H   0  0  0  0  0  0  0  0  0  0  0  0
    7.1141    8.1947   -7.6163 H   0  0  0  0  0  0  0  0  0  0  0  0
   10.0539   10.0395   -7.0268 H   0  0  0  0  0  0  0  0  0  0  0  0
    7.9492    8.9870   -5.9299 H   0  0  0  0  0  0  0  0  0  0  0  0
  1  6  2  0
  2  3  2  0
  2  1  1  0
  3  4  1  0
  4  5  2  0
  6  5  1  0
  1  7  1  0
  3  8  1  0
  5  9  1  0
 10 11  1  0
 11 12  1  0
 12 13  1  0
 13 14  1  0
 12 15  1  0
 15 16  1  0
 15 17  1  0
 17 18  1  0
 17 10  1  0
 10 19  1  6
 12 20  1  6
 13 21  1  0
 13 22  1  0
 14 23  1  0
 15 24  1  6
 16 25  1  0
 17 26  1  6
 18 27  1  0
  2 10  1  0
M  END
>  <Score>  (1) 
-7.28188

$$$$

     RDKit          3D

 22 23  0  0  0  0  0  0  0  0999 V2000
   11.6895    9.2582   -4.3239 C   0  0  0  0  0  0  0  0  0  0  0  0
   11.3433    8.0899   -5.0388 C   0  0  0  0  0  0  0  0  0  0  0  0
   11.4154    6.8671   -4.3662 C   0  0  0  0  0  0  0  0  0  0  0  0
   11.8162    6.8704   -3.0563 N   0  0  0  0  0  0  0  0  0  0  0  0
   12.1396    8.0078   -2.4051 C   0  0  0  0  0  0  0  0  0  0  0  0
   12.0761    9.1946   -3.0367 N   0  0  0  0  0  0  0  0  0  0  0  0
   11.6362   10.2071   -4.8377 H   0  0  0  0  0  0  0  0  0  0  0  0
   11.1592    5.9411   -4.8730 H   0  0  0  0  0  0  0  0  0  0  0  0
   12.4467    7.9335   -1.3737 H   0  0  0  0  0  0  0  0  0  0  0  0
    8.8072    8.4803  -10.8571 H   0  0  0  0  0  0  0  0  0  0  0  0
    9.8369    8.3743  -10.5593 C   0  0  0  0  0  0  0  0  0  0  0  0
   10.7321    8.3109  -11.4347 O   0  0  0  0  0  0  0  0  0  0  0  0
   10.2209    8.3018   -9.1626 C   0  0  0  0  0  0  0  0  0  0  0  0
   11.5383    8.1655   -8.7869 C   0  0  0  0  0  0  0  0  0  0  0  0
   11.8693    8.0999   -7.4462 C   0  0  0  0  0  0  0  0  0  0  0  0
   10.9242    8.1655   -6.4371 C   0  0  0  0  0  0  0  0  0  0  0  0
    9.6114    8.3016   -6.8207 C   0  0  0  0  0  0  0  0  0  0  0  0
    9.2648    8.3686   -8.1564 C   0  0  0  0  0  0  0  0  0  0  0  0
   12.3401    8.1067   -9.5288 H   0  0  0  0  0  0  0  0  0  0  0  0
   12.9133    7.9914   -7.1253 H   0  0  0  0  0  0  0  0  0  0  0  0
    8.8380    8.3570   -6.0647 H   0  0  0  0  0  0  0  0  0  0  0  0
    8.2447    8.4751   -8.4851 H   0  0  0  0  0  0  0  0  0  0  0  0
  1  6  2  0
  2  3  2  0
  2  1  1  0
  3  4  1  0
  4  5  2  0
  6  5  1  0
  1  7  1  0
  3  8  1  0
  5  9  1  0
 10 11  1  0
 11 12  2  0
 11 13  1  0
 13 14  2  0
 14 15  1  0
 15 16  2  0
 16 17  1  0
 17 18  2  0
 18 13  1  0
 14 19  1  0
 15 20  1  0
 17 21  1  0
 18 22  1  0
  2 16  1  0
M  END
>  <Score>  (1) 
-7.28124

$$$$

     RDKit          3D

 25 26  0  0  0  0  0  0  0  0999 V2000
   12.3020    8.1222   -2.3028 C   0  0  0  0  0  0  0  0  0  0  0  0
   12.0216    6.8849   -2.9127 C   0  0  0  0  0  0  0  0  0  0  0  0
   11.5246    6.8964   -4.2242 C   0  0  0  0  0  0  0  0  0  0  0  0
   11.3424    8.1106   -4.8317 N   0  0  0  0  0  0  0  0  0  0  0  0
   11.6230    9.2758   -4.2137 C   0  0  0  0  0  0  0  0  0  0  0  0
   12.1014    9.2811   -2.9530 N   0  0  0  0  0  0  0  0  0  0  0  0
   12.6845    8.0998   -1.2921 H   0  0  0  0  0  0  0  0  0  0  0  0
   12.1696    5.9520   -2.4248 H   0  0  0  0  0  0  0  0  0  0  0  0
   11.2950    5.9742   -4.7330 H   0  0  0  0  0  0  0  0  0  0  0  0
   11.3949   10.5342   -4.9468 C   0  0  0  0  0  0  0  0  0  0  0  0
   12.6395   11.3293   -5.1057 C   0  0  0  0  0  0  0  0  0  0  0  0
   13.8545   10.9410   -4.6288 C   0  0  0  0  0  0  0  0  0  0  0  0
   14.9422   11.7184   -4.8125 N   0  0  0  0  0  0  0  0  0  0  0  0
   14.8553   12.8945   -5.4696 C   0  0  0  0  0  0  0  0  0  0  0  0
   16.0553   13.6420   -5.6124 N   0  0  0  0  0  0  0  0  0  0  0  0
   13.6702   13.2668   -5.9313 N   0  0  0  0  0  0  0  0  0  0  0  0
   12.5441   12.5272   -5.7766 C   0  0  0  0  0  0  0  0  0  0  0  0
   11.3001   12.9973   -6.3041 N   0  0  0  0  0  0  0  0  0  0  0  0
   10.9648   10.2700   -5.9350 H   0  0  0  0  0  0  0  0  0  0  0  0
   10.5971   11.1287   -4.4284 H   0  0  0  0  0  0  0  0  0  0  0  0
   13.9496   10.0051   -4.1003 H   0  0  0  0  0  0  0  0  0  0  0  0
   16.2976   14.4401   -4.9674 H   0  0  0  0  0  0  0  0  0  0  0  0
   16.6904   13.3550   -6.3986 H   0  0  0  0  0  0  0  0  0  0  0  0
   10.4358   12.7833   -5.7929 H   0  0  0  0  0  0  0  0  0  0  0  0
   11.2362   13.5477   -7.1856 H   0  0  0  0  0  0  0  0  0  0  0  0
  2  1  2  0
  3  2  1  0
  4  3  2  0
  4  5  1  0
  5  6  2  0
  6  1  1  0
  1  7  1  0
  2  8  1  0
  3  9  1  0
 10 11  1  0
 11 12  2  0
 12 13  1  0
 13 14  2  0
 14 15  1  0
 14 16  1  0
 16 17  2  0
 17 18  1  0
 17 11  1  0
 10 19  1  0
 10 20  1  0
 12 21  1  0
 15 22  1  0
 15 23  1  0
 18 24  1  0
 18 25  1  0
  5 10  1  0
M  END
>  <Score>  (1) 
-7.51431

$$$$

     RDKit          3D

 28 29  0  0  0  0  0  0  0  0999 V2000
   11.6898    9.2583   -4.3229 C   0  0  0  0  0  0  0  0  0  0  0  0
   11.3429    8.0906   -5.0406 C   0  0  0  0  0  0  0  0  0  0  0  0
   11.4161    6.8660   -4.3634 C   0  0  0  0  0  0  0  0  0  0  0  0
   11.8148    6.8679   -3.0599 N   0  0  0  0  0  0  0  0  0  0  0  0
   12.1402    8.0135   -2.4049 C   0  0  0  0  0  0  0  0  0  0  0  0
   12.0762    9.1918   -3.0353 N   0  0  0  0  0  0  0  0  0  0  0  0
   11.6246   10.1906   -4.8669 H   0  0  0  0  0  0  0  0  0  0  0  0
   11.1594    5.9486   -4.8752 H   0  0  0  0  0  0  0  0  0  0  0  0
   12.4542    7.9943   -1.3708 H   0  0  0  0  0  0  0  0  0  0  0  0
   10.9305    8.1672   -6.4204 C   0  0  0  0  0  0  0  0  0  0  0  0
    9.6849    8.6702   -6.7255 C   0  0  0  0  0  0  0  0  0  0  0  0
    9.2120    8.7762   -8.0234 C   0  0  0  0  0  0  0  0  0  0  0  0
   10.0434    8.3531   -9.0354 C   0  0  0  0  0  0  0  0  0  0  0  0
    9.6233    8.4354  -10.3522 O   0  0  0  0  0  0  0  0  0  0  0  0
    8.3360    8.9552  -10.6595 C   0  0  0  0  0  0  0  0  0  0  0  0
   11.2981    7.8422   -8.7868 C   0  0  0  0  0  0  0  0  0  0  0  0
   12.1125    7.4242   -9.8304 O   0  0  0  0  0  0  0  0  0  0  0  0
   13.3989    6.8987   -9.6025 C   0  0  0  0  0  0  0  0  0  0  0  0
   11.7400    7.7513   -7.4613 C   0  0  0  0  0  0  0  0  0  0  0  0
    9.0576    8.9939   -5.9081 H   0  0  0  0  0  0  0  0  0  0  0  0
    8.2243    9.1768   -8.2412 H   0  0  0  0  0  0  0  0  0  0  0  0
    8.1577    8.7558  -11.7172 H   0  0  0  0  0  0  0  0  0  0  0  0
    7.5399    8.4878  -10.0343 H   0  0  0  0  0  0  0  0  0  0  0  0
    8.3583   10.0316  -10.3998 H   0  0  0  0  0  0  0  0  0  0  0  0
   14.1163    7.7574   -9.4642 H   0  0  0  0  0  0  0  0  0  0  0  0
   13.4591    6.2237   -8.7273 H   0  0  0  0  0  0  0  0  0  0  0  0
   13.6636    6.3085  -10.5296 H   0  0  0  0  0  0  0  0  0  0  0  0
   12.7154    7.3588   -7.2085 H   0  0  0  0  0  0  0  0  0  0  0  0
  1  6  2  0
  2  3  2  0
  2  1  1  0
  3  4  1  0
  4  5  2  0
  6  5  1  0
  1  7  1  0
  3  8  1  0
  5  9  1  0
 10 11  2  0
 11 12  1  0
 12 13  2  0
 13 14  1  0
 14 15  1  0
 13 16  1  0
 16 17  1  0
 17 18  1  0
 16 19  2  0
 19 10  1  0
 11 20  1  0
 12 21  1  0
 15 22  1  0
 15 23  1  0
 15 24  1  0
 18 25  1  0
 18 26  1  0
 18 27  1  0
 19 28  1  0
  2 10  1  0
M  END
>  <Score>  (1) 
-7.28114

$$$$

     RDKit          3D

 23 25  0  0  0  0  0  0  0  0999 V2000
   11.6907    9.2491   -4.3166 C   0  0  0  0  0  0  0  0  0  0  0  0
   11.3387    8.0798   -5.0518 C   0  0  0  0  0  0  0  0  0  0  0  0
   11.4138    6.8822   -4.3747 C   0  0  0  0  0  0  0  0  0  0  0  0
   11.8200    6.8811   -3.0483 N   0  0  0  0  0  0  0  0  0  0  0  0
   12.1408    8.0101   -2.4026 C   0  0  0  0  0  0  0  0  0  0  0  0
   12.0759    9.1857   -3.0330 N   0  0  0  0  0  0  0  0  0  0  0  0
   11.6324   10.1671   -4.8625 H   0  0  0  0  0  0  0  0  0  0  0  0
   11.1415    5.9610   -4.8114 H   0  0  0  0  0  0  0  0  0  0  0  0
   12.4455    7.9113   -1.3722 H   0  0  0  0  0  0  0  0  0  0  0  0
   10.8637    8.2599   -6.4162 C   0  0  0  0  0  0  0  0  0  0  0  0
   10.9859    9.4637   -7.1365 C   0  0  0  0  0  0  0  0  0  0  0  0
   10.5029    9.2604   -8.3540 N   0  0  0  0  0  0  0  0  0  0  0  0
   10.0729    7.9951   -8.4738 C   0  0  0  0  0  0  0  0  0  0  0  0
    9.5126    7.3115   -9.5452 C   0  0  0  0  0  0  0  0  0  0  0  0
    9.1612    5.9879   -9.4547 C   0  0  0  0  0  0  0  0  0  0  0  0
    8.7219    5.4497  -10.2919 H   0  0  0  0  0  0  0  0  0  0  0  0
    9.3982    5.3856   -8.2444 C   0  0  0  0  0  0  0  0  0  0  0  0
    9.9646    6.1135   -7.1906 C   0  0  0  0  0  0  0  0  0  0  0  0
   10.3016    7.4030   -7.2866 N   0  0  0  0  0  0  0  0  0  0  0  0
   11.4075   10.3687   -6.7055 H   0  0  0  0  0  0  0  0  0  0  0  0
    9.3496    7.8378  -10.4748 H   0  0  0  0  0  0  0  0  0  0  0  0
    9.1469    4.3511   -8.1074 H   0  0  0  0  0  0  0  0  0  0  0  0
   10.1473    5.5759   -6.2927 H   0  0  0  0  0  0  0  0  0  0  0  0
  1  6  2  0
  2  3  2  0
  2  1  1  0
  3  4  1  0
  4  5  2  0
  6  5  1  0
  1  7  1  0
  3  8  1  0
  5  9  1  0
 10 11  2  0
 11 12  1  0
 12 13  2  0
 13 14  1  0
 14 15  2  0
 15 16  1  0
 15 17  1  0
 17 18  2  0
 18 19  1  0
 19 10  1  0
 19 13  1  0
 11 20  1  0
 14 21  1  0
 17 22  1  0
 18 23  1  0
  2 10  1  0
M  END
>  <Score>  (1) 
-7.27937

$$$$

     RDKit          3D

 31 32  0  0  0  0  0  0  0  0999 V2000
   11.6899    9.2593   -4.3230 C   0  0  0  0  0  0  0  0  0  0  0  0
   11.3432    8.0894   -5.0389 C   0  0  0  0  0  0  0  0  0  0  0  0
   11.4158    6.8665   -4.3643 C   0  0  0  0  0  0  0  0  0  0  0  0
   11.8155    6.8700   -3.0582 N   0  0  0  0  0  0  0  0  0  0  0  0
   12.1395    8.0085   -2.4055 C   0  0  0  0  0  0  0  0  0  0  0  0
   12.0759    9.1943   -3.0371 N   0  0  0  0  0  0  0  0  0  0  0  0
   11.6331   10.2093   -4.8482 H   0  0  0  0  0  0  0  0  0  0  0  0
   11.1568    5.9616   -4.8883 H   0  0  0  0  0  0  0  0  0  0  0  0
   12.4432    7.9005   -1.3736 H   0  0  0  0  0  0  0  0  0  0  0  0
   10.9168    8.1721   -6.4632 C   0  0  2  0  0  0  0  0  0  0  0  0
   10.9725    6.9155   -6.9871 O   0  0  0  0  0  0  0  0  0  0  0  0
   10.8331    6.8227   -8.3476 C   0  0  1  0  0  0  0  0  0  0  0  0
    9.4105    7.0224   -8.8251 C   0  0  0  0  0  0  0  0  0  0  0  0
    8.5388    6.0949   -8.2998 O   0  0  0  0  0  0  0  0  0  0  0  0
   11.7238    7.7633   -9.1189 C   0  0  2  0  0  0  0  0  0  0  0  0
   13.0359    7.4052   -8.8625 O   0  0  0  0  0  0  0  0  0  0  0  0
   11.5235    9.1897   -8.5927 C   0  0  2  0  0  0  0  0  0  0  0  0
   12.3988   10.0461   -9.2561 O   0  0  0  0  0  0  0  0  0  0  0  0
   11.8920    9.1385   -7.1305 C   0  0  2  0  0  0  0  0  0  0  0  0
   13.1589    8.5459   -7.0163 O   0  0  0  0  0  0  0  0  0  0  0  0
    9.9325    8.6498   -6.4907 H   0  0  0  0  0  0  0  0  0  0  0  0
   11.1206    5.7900   -8.6466 H   0  0  0  0  0  0  0  0  0  0  0  0
    9.4436    6.8892   -9.9430 H   0  0  0  0  0  0  0  0  0  0  0  0
    9.0339    8.0471   -8.6092 H   0  0  0  0  0  0  0  0  0  0  0  0
    8.9163    5.1886   -8.2896 H   0  0  0  0  0  0  0  0  0  0  0  0
   11.4809    7.6837  -10.1833 H   0  0  0  0  0  0  0  0  0  0  0  0
   13.6625    8.0555   -9.2711 H   0  0  0  0  0  0  0  0  0  0  0  0
   10.4800    9.4843   -8.7287 H   0  0  0  0  0  0  0  0  0  0  0  0
   12.6643    9.7030  -10.1361 H   0  0  0  0  0  0  0  0  0  0  0  0
   11.8139   10.0960   -6.6163 H   0  0  0  0  0  0  0  0  0  0  0  0
   13.8609    9.2002   -6.7927 H   0  0  0  0  0  0  0  0  0  0  0  0
  1  6  2  0
  2  3  2  0
  2  1  1  0
  3  4  1  0
  4  5  2  0
  6  5  1  0
  1  7  1  0
  3  8  1  0
  5  9  1  0
 10 11  1  0
 11 12  1  0
 12 13  1  0
 13 14  1  0
 12 15  1  0
 15 16  1  0
 15 17  1  0
 17 18  1  0
 17 19  1  0
 19 20  1  0
 19 10  1  0
 10 21  1  1
 12 22  1  6
 13 23  1  0
 13 24  1  0
 14 25  1  0
 15 26  1  6
 16 27  1  0
 17 28  1  1
 18 29  1  0
 19 30  1  1
 20 31  1  0
  2 10  1  0
M  END
>  <Score>  (1) 
-7.27809

$$$$

     RDKit          3D

 22 23  0  0  0  0  0  0  0  0999 V2000
   11.6874    9.2552   -4.3297 C   0  0  0  0  0  0  0  0  0  0  0  0
   11.3452    8.0910   -5.0330 C   0  0  0  0  0  0  0  0  0  0  0  0
   11.4148    6.8681   -4.3685 C   0  0  0  0  0  0  0  0  0  0  0  0
   11.8159    6.8705   -3.0574 N   0  0  0  0  0  0  0  0  0  0  0  0
   12.1397    8.0087   -2.4048 C   0  0  0  0  0  0  0  0  0  0  0  0
   12.0771    9.1946   -3.0335 N   0  0  0  0  0  0  0  0  0  0  0  0
   11.6292   10.2010   -4.8580 H   0  0  0  0  0  0  0  0  0  0  0  0
   11.1590    5.9581   -4.8799 H   0  0  0  0  0  0  0  0  0  0  0  0
   12.4459    7.9117   -1.3687 H   0  0  0  0  0  0  0  0  0  0  0  0
   10.9259    8.1539   -6.4268 C   0  0  0  0  0  0  0  0  0  0  0  0
   10.5614    9.3016   -7.0219 N   0  0  0  0  0  0  0  0  0  0  0  0
   10.1769    9.3216   -8.3213 C   0  0  0  0  0  0  0  0  0  0  0  0
    9.7700   10.5824   -8.9972 C   0  0  0  0  0  0  0  0  0  0  0  0
   10.1632    8.1700   -9.0176 N   0  0  0  0  0  0  0  0  0  0  0  0
   10.5260    7.0060   -8.4375 C   0  0  0  0  0  0  0  0  0  0  0  0
   10.5289    5.7641   -9.1284 N   0  0  0  0  0  0  0  0  0  0  0  0
   10.8991    7.0343   -7.1497 N   0  0  0  0  0  0  0  0  0  0  0  0
    9.5434   11.3663   -8.2301 H   0  0  0  0  0  0  0  0  0  0  0  0
   10.5834   10.9697   -9.6405 H   0  0  0  0  0  0  0  0  0  0  0  0
    8.8526   10.4296   -9.5740 H   0  0  0  0  0  0  0  0  0  0  0  0
   11.3561    5.1319   -9.0152 H   0  0  0  0  0  0  0  0  0  0  0  0
    9.7296    5.4566   -9.7500 H   0  0  0  0  0  0  0  0  0  0  0  0
  1  6  2  0
  2  3  2  0
  2  1  1  0
  3  4  1  0
  4  5  2  0
  6  5  1  0
  1  7  1  0
  3  8  1  0
  5  9  1  0
 10 11  2  0
 11 12  1  0
 12 13  1  0
 12 14  2  0
 14 15  1  0
 15 16  1  0
 15 17  2  0
 17 10  1  0
 13 18  1  0
 13 19  1  0
 13 20  1  0
 16 21  1  0
 16 22  1  0
  2 10  1  0
M  END
>  <Score>  (1) 
-7.27772

$$$$

     RDKit          3D

 20 21  0  0  0  0  0  0  0  0999 V2000
   11.6900    9.2603   -4.3227 C   0  0  0  0  0  0  0  0  0  0  0  0
   11.3426    8.0895   -5.0414 C   0  0  0  0  0  0  0  0  0  0  0  0
   11.4151    6.8653   -4.3663 C   0  0  0  0  0  0  0  0  0  0  0  0
   11.8167    6.8710   -3.0550 N   0  0  0  0  0  0  0  0  0  0  0  0
   12.1394    8.0080   -2.4055 C   0  0  0  0  0  0  0  0  0  0  0  0
   12.0762    9.1939   -3.0361 N   0  0  0  0  0  0  0  0  0  0  0  0
   11.6241   10.1832   -4.8631 H   0  0  0  0  0  0  0  0  0  0  0  0
   11.1572    5.9656   -4.8877 H   0  0  0  0  0  0  0  0  0  0  0  0
   12.4573    8.0259   -1.3740 H   0  0  0  0  0  0  0  0  0  0  0  0
   10.9307    8.1709   -6.4303 C   0  0  0  0  0  0  0  0  0  0  0  0
   10.3071    9.2702   -6.9772 C   0  0  0  0  0  0  0  0  0  0  0  0
    9.9545    9.2473   -8.3069 C   0  0  0  0  0  0  0  0  0  0  0  0
   10.2068    8.1543   -9.1109 C   0  0  0  0  0  0  0  0  0  0  0  0
    9.8915    8.2306  -10.1460 H   0  0  0  0  0  0  0  0  0  0  0  0
   10.8314    7.0390   -8.5854 C   0  0  0  0  0  0  0  0  0  0  0  0
   11.0674    5.9842   -9.3911 F   0  0  0  0  0  0  0  0  0  0  0  0
   11.1794    7.0759   -7.2507 C   0  0  0  0  0  0  0  0  0  0  0  0
   11.6675    6.1959   -6.8506 H   0  0  0  0  0  0  0  0  0  0  0  0
   10.1058   10.1306   -6.3520 H   0  0  0  0  0  0  0  0  0  0  0  0
    9.4663   10.1329   -8.7001 H   0  0  0  0  0  0  0  0  0  0  0  0
  1  6  2  0
  2  3  2  0
  2  1  1  0
  3  4  1  0
  4  5  2  0
  6  5  1  0
  1  7  1  0
  3  8  1  0
  5  9  1  0
 10 11  2  0
 11 12  1  0
 12 13  2  0
 13 14  1  0
 13 15  1  0
 15 16  1  0
 15 17  2  0
 17 18  1  0
 17 10  1  0
 11 19  1  0
 12 20  1  0
  2 10  1  0
M  END
>  <Score>  (1) 
-7.27707

$$$$

     RDKit          3D

 24 26  0  0  0  0  0  0  0  0999 V2000
   11.6874    9.2547   -4.3294 C   0  0  0  0  0  0  0  0  0  0  0  0
   11.3449    8.0954   -5.0359 C   0  0  0  0  0  0  0  0  0  0  0  0
   11.4155    6.8649   -4.3648 C   0  0  0  0  0  0  0  0  0  0  0  0
   11.8154    6.8692   -3.0584 N   0  0  0  0  0  0  0  0  0  0  0  0
   12.1398    8.0103   -2.4051 C   0  0  0  0  0  0  0  0  0  0  0  0
   12.0770    9.1934   -3.0335 N   0  0  0  0  0  0  0  0  0  0  0  0
   11.6406   10.2194   -4.8148 H   0  0  0  0  0  0  0  0  0  0  0  0
   11.1577    5.9537   -4.8823 H   0  0  0  0  0  0  0  0  0  0  0  0
   12.4426    7.8872   -1.3710 H   0  0  0  0  0  0  0  0  0  0  0  0
   10.9169    8.1198   -6.4248 C   0  0  0  0  0  0  0  0  0  0  0  0
   10.8883    9.3253   -7.1366 C   0  0  0  0  0  0  0  0  0  0  0  0
   10.4979    9.4013   -8.4554 C   0  0  0  0  0  0  0  0  0  0  0  0
   10.1236    8.2491   -9.0909 C   0  0  0  0  0  0  0  0  0  0  0  0
   10.1302    7.0263   -8.4414 C   0  0  0  0  0  0  0  0  0  0  0  0
    9.8011    5.7732   -8.8690 N   0  0  0  0  0  0  0  0  0  0  0  0
    9.9905    4.9651   -7.8272 C   0  0  0  0  0  0  0  0  0  0  0  0
   10.4375    5.6541   -6.7201 C   0  0  0  0  0  0  0  0  0  0  0  0
   10.5269    6.9820   -7.1185 C   0  0  0  0  0  0  0  0  0  0  0  0
   11.1997   10.2047   -6.5671 H   0  0  0  0  0  0  0  0  0  0  0  0
   10.5097   10.3791   -8.9181 H   0  0  0  0  0  0  0  0  0  0  0  0
    9.8191    8.3264  -10.1288 H   0  0  0  0  0  0  0  0  0  0  0  0
    9.4767    5.5942   -9.8396 H   0  0  0  0  0  0  0  0  0  0  0  0
    9.8106    3.9002   -7.8631 H   0  0  0  0  0  0  0  0  0  0  0  0
   10.6785    5.3021   -5.7395 H   0  0  0  0  0  0  0  0  0  0  0  0
  1  6  2  0
  2  3  2  0
  2  1  1  0
  3  4  1  0
  4  5  2  0
  6  5  1  0
  1  7  1  0
  3  8  1  0
  5  9  1  0
 10 11  2  0
 11 12  1  0
 12 13  2  0
 13 14  1  0
 14 15  1  0
 15 16  1  0
 16 17  2  0
 17 18  1  0
 18 10  1  0
 18 14  2  0
 11 19  1  0
 12 20  1  0
 13 21  1  0
 15 22  1  0
 16 23  1  0
 17 24  1  0
  2 10  1  0
M  END
>  <Score>  (1) 
-7.27605

$$$$

     RDKit          3D

 22 23  0  0  0  0  0  0  0  0999 V2000
   11.6892    9.2565   -4.3244 C   0  0  0  0  0  0  0  0  0  0  0  0
   11.3442    8.0934   -5.0373 C   0  0  0  0  0  0  0  0  0  0  0  0
   11.4169    6.8657   -4.3606 C   0  0  0  0  0  0  0  0  0  0  0  0
   11.8145    6.8695   -3.0615 N   0  0  0  0  0  0  0  0  0  0  0  0
   12.1398    8.0057   -2.4036 C   0  0  0  0  0  0  0  0  0  0  0  0
   12.0755    9.1972   -3.0395 N   0  0  0  0  0  0  0  0  0  0  0  0
   11.6423   10.2028   -4.8160 H   0  0  0  0  0  0  0  0  0  0  0  0
   11.1708    5.9304   -4.8318 H   0  0  0  0  0  0  0  0  0  0  0  0
   12.4422    7.9135   -1.3816 H   0  0  0  0  0  0  0  0  0  0  0  0
   10.9261    8.1104   -6.4101 C   0  0  0  0  0  0  0  0  0  0  0  0
   10.9272    6.9358   -7.1338 C   0  0  0  0  0  0  0  0  0  0  0  0
   10.5420    6.8660   -8.4527 C   0  0  0  0  0  0  0  0  0  0  0  0
   10.1329    8.0129   -9.0971 C   0  0  0  0  0  0  0  0  0  0  0  0
    9.7405    7.9189  -10.4541 N   0  0  0  0  0  0  0  0  0  0  0  0
   10.1289    9.1898   -8.3811 C   0  0  0  0  0  0  0  0  0  0  0  0
   10.5180    9.2415   -7.0608 C   0  0  0  0  0  0  0  0  0  0  0  0
   11.2415    6.0059   -6.6693 H   0  0  0  0  0  0  0  0  0  0  0  0
   10.5559    5.9179   -8.9936 H   0  0  0  0  0  0  0  0  0  0  0  0
   10.3301    8.3335  -11.1997 H   0  0  0  0  0  0  0  0  0  0  0  0
    8.8640    7.4384  -10.7298 H   0  0  0  0  0  0  0  0  0  0  0  0
    9.8100   10.1110   -8.8660 H   0  0  0  0  0  0  0  0  0  0  0  0
   10.4932   10.1971   -6.5509 H   0  0  0  0  0  0  0  0  0  0  0  0
  1  6  2  0
  2  3  2  0
  2  1  1  0
  3  4  1  0
  4  5  2  0
  6  5  1  0
  1  7  1  0
  3  8  1  0
  5  9  1  0
 10 11  2  0
 11 12  1  0
 12 13  2  0
 13 14  1  0
 13 15  1  0
 15 16  2  0
 16 10  1  0
 11 17  1  0
 12 18  1  0
 14 19  1  0
 14 20  1  0
 15 21  1  0
 16 22  1  0
  2 10  1  0
M  END
>  <Score>  (1) 
-7.27274

$$$$

     RDKit          3D

 27 28  0  0  0  0  0  0  0  0999 V2000
   11.6903    9.2583   -4.3213 C   0  0  0  0  0  0  0  0  0  0  0  0
   11.3434    8.0915   -5.0390 C   0  0  0  0  0  0  0  0  0  0  0  0
   11.4156    6.8650   -4.3647 C   0  0  0  0  0  0  0  0  0  0  0  0
   11.8161    6.8714   -3.0569 N   0  0  0  0  0  0  0  0  0  0  0  0
   12.1394    8.0050   -2.4045 C   0  0  0  0  0  0  0  0  0  0  0  0
   12.0752    9.1968   -3.0406 N   0  0  0  0  0  0  0  0  0  0  0  0
   11.6321   10.1932   -4.8458 H   0  0  0  0  0  0  0  0  0  0  0  0
   11.1628    5.9486   -4.8641 H   0  0  0  0  0  0  0  0  0  0  0  0
   12.4551    8.0229   -1.3783 H   0  0  0  0  0  0  0  0  0  0  0  0
   10.9255    8.1804   -6.4375 C   0  0  2  0  0  0  0  0  0  0  0  0
   11.2569    7.0280   -7.1768 O   0  0  0  0  0  0  0  0  0  0  0  0
   10.8071    7.4063   -8.4439 C   0  0  2  0  0  0  0  0  0  0  0  0
   11.2383    6.4322   -9.5112 C   0  0  0  0  0  0  0  0  0  0  0  0
   10.6931    5.1890   -9.1742 O   0  0  0  0  0  0  0  0  0  0  0  0
   11.3690    8.7912   -8.6681 C   0  0  1  0  0  0  0  0  0  0  0  0
   10.4134    9.5820   -9.2965 O   0  0  0  0  0  0  0  0  0  0  0  0
   11.5881    9.2599   -7.2246 C   0  0  1  0  0  0  0  0  0  0  0  0
   11.0158   10.5128   -7.0288 O   0  0  0  0  0  0  0  0  0  0  0  0
    9.8295    8.2684   -6.4758 H   0  0  0  0  0  0  0  0  0  0  0  0
    9.7009    7.4521   -8.3878 H   0  0  0  0  0  0  0  0  0  0  0  0
   10.7375    6.7399  -10.4528 H   0  0  0  0  0  0  0  0  0  0  0  0
   12.3143    6.3748   -9.6434 H   0  0  0  0  0  0  0  0  0  0  0  0
    9.7201    5.1540   -9.3488 H   0  0  0  0  0  0  0  0  0  0  0  0
   12.3270    8.7693   -9.2160 H   0  0  0  0  0  0  0  0  0  0  0  0
    9.4989    9.2426   -9.1592 H   0  0  0  0  0  0  0  0  0  0  0  0
   12.6687    9.2874   -7.0231 H   0  0  0  0  0  0  0  0  0  0  0  0
   11.6037   10.9827   -6.3707 H   0  0  0  0  0  0  0  0  0  0  0  0
  1  6  2  0
  2  3  2  0
  2  1  1  0
  3  4  1  0
  4  5  2  0
  6  5  1  0
  1  7  1  0
  3  8  1  0
  5  9  1  0
 10 11  1  0
 11 12  1  0
 12 13  1  0
 13 14  1  0
 12 15  1  0
 15 16  1  0
 15 17  1  0
 17 18  1  0
 17 10  1  0
 10 19  1  1
 12 20  1  1
 13 21  1  0
 13 22  1  0
 14 23  1  0
 15 24  1  6
 16 25  1  0
 17 26  1  1
 18 27  1  0
  2 10  1  0
M  END
>  <Score>  (1) 
-7.26373

$$$$

     RDKit          3D

 21 22  0  0  0  0  0  0  0  0999 V2000
   11.6894    9.2585   -4.3244 C   0  0  0  0  0  0  0  0  0  0  0  0
   11.3438    8.0876   -5.0364 C   0  0  0  0  0  0  0  0  0  0  0  0
   11.4157    6.8697   -4.3660 C   0  0  0  0  0  0  0  0  0  0  0  0
   11.8153    6.8685   -3.0586 N   0  0  0  0  0  0  0  0  0  0  0  0
   12.1399    8.0088   -2.4043 C   0  0  0  0  0  0  0  0  0  0  0  0
   12.0760    9.1948   -3.0373 N   0  0  0  0  0  0  0  0  0  0  0  0
   11.6373   10.1964   -4.8291 H   0  0  0  0  0  0  0  0  0  0  0  0
   11.1714    5.9510   -4.8367 H   0  0  0  0  0  0  0  0  0  0  0  0
   12.4510    7.9569   -1.3692 H   0  0  0  0  0  0  0  0  0  0  0  0
   10.9312    8.1523   -6.4088 C   0  0  0  0  0  0  0  0  0  0  0  0
   11.8363    8.0867   -7.4478 C   0  0  0  0  0  0  0  0  0  0  0  0
   11.4536    8.1478   -8.7719 C   0  0  0  0  0  0  0  0  0  0  0  0
   10.1083    8.2806   -9.0978 C   0  0  0  0  0  0  0  0  0  0  0  0
    9.7106    8.3434  -10.4356 O   0  0  0  0  0  0  0  0  0  0  0  0
    9.2111    8.3453   -8.0541 C   0  0  0  0  0  0  0  0  0  0  0  0
    8.1529    8.4497   -8.3127 H   0  0  0  0  0  0  0  0  0  0  0  0
    9.5832    8.2852   -6.7262 C   0  0  0  0  0  0  0  0  0  0  0  0
   12.8868    7.9843   -7.2449 H   0  0  0  0  0  0  0  0  0  0  0  0
   12.1569    8.0972   -9.5876 H   0  0  0  0  0  0  0  0  0  0  0  0
    8.7261    8.4396  -10.6100 H   0  0  0  0  0  0  0  0  0  0  0  0
    8.8514    8.3392   -5.9445 H   0  0  0  0  0  0  0  0  0  0  0  0
  1  6  2  0
  2  3  2  0
  2  1  1  0
  3  4  1  0
  4  5  2  0
  6  5  1  0
  1  7  1  0
  3  8  1  0
  5  9  1  0
 10 11  2  0
 11 12  1  0
 12 13  2  0
 13 14  1  0
 13 15  1  0
 15 16  1  0
 15 17  2  0
 17 10  1  0
 11 18  1  0
 12 19  1  0
 14 20  1  0
 17 21  1  0
  2 10  1  0
M  END
>  <Score>  (1) 
-7.25867

$$$$

     RDKit          3D

 22 23  0  0  0  0  0  0  0  0999 V2000
   11.6869    9.2539   -4.3321 C   0  0  0  0  0  0  0  0  0  0  0  0
   11.3439    8.1008   -5.0398 C   0  0  0  0  0  0  0  0  0  0  0  0
   11.4184    6.8655   -4.3561 C   0  0  0  0  0  0  0  0  0  0  0  0
   11.8144    6.8664   -3.0612 N   0  0  0  0  0  0  0  0  0  0  0  0
   12.1399    8.0115   -2.4048 C   0  0  0  0  0  0  0  0  0  0  0  0
   12.0766    9.1899   -3.0330 N   0  0  0  0  0  0  0  0  0  0  0  0
   11.6738   10.2305   -4.7934 H   0  0  0  0  0  0  0  0  0  0  0  0
   11.1528    5.9763   -4.9077 H   0  0  0  0  0  0  0  0  0  0  0  0
   12.4555    8.0071   -1.3697 H   0  0  0  0  0  0  0  0  0  0  0  0
   10.9080    8.1099   -6.3800 N   0  0  0  0  0  0  0  0  0  0  0  0
   10.7340    6.9846   -7.2004 C   0  0  0  0  0  0  0  0  0  0  0  0
    9.8362    7.0701   -8.2709 C   0  0  0  0  0  0  0  0  0  0  0  0
    9.6266    6.0302   -9.1363 C   0  0  0  0  0  0  0  0  0  0  0  0
   10.3176    4.8507   -8.9593 C   0  0  0  0  0  0  0  0  0  0  0  0
   10.1312    3.7947   -9.8044 F   0  0  0  0  0  0  0  0  0  0  0  0
   11.2098    4.7138   -7.9266 C   0  0  0  0  0  0  0  0  0  0  0  0
   12.1236    3.2374   -7.6442 Cl  0  0  0  0  0  0  0  0  0  0  0  0
   11.4036    5.7974   -7.0561 C   0  0  0  0  0  0  0  0  0  0  0  0
   10.6888    9.0742   -6.8116 H   0  0  0  0  0  0  0  0  0  0  0  0
    9.2798    7.9952   -8.4276 H   0  0  0  0  0  0  0  0  0  0  0  0
    8.9316    6.0911   -9.9680 H   0  0  0  0  0  0  0  0  0  0  0  0
   12.1229    5.7122   -6.2448 H   0  0  0  0  0  0  0  0  0  0  0  0
  1  6  2  0
  2  3  2  0
  2  1  1  0
  3  4  1  0
  4  5  2  0
  6  5  1  0
  1  7  1  0
  3  8  1  0
  5  9  1  0
 10 11  1  0
 11 12  2  0
 12 13  1  0
 13 14  2  0
 14 15  1  0
 14 16  1  0
 16 17  1  0
 16 18  2  0
 18 11  1  0
 10 19  1  0
 12 20  1  0
 13 21  1  0
 18 22  1  0
  2 10  1  0
M  END
>  <Score>  (1) 
-7.25155

$$$$

     RDKit          3D

 28 29  0  0  0  0  0  0  0  0999 V2000
   12.3026    8.1235   -2.3014 C   0  0  0  0  0  0  0  0  0  0  0  0
   12.0213    6.8831   -2.9133 C   0  0  0  0  0  0  0  0  0  0  0  0
   11.5243    6.8982   -4.2252 C   0  0  0  0  0  0  0  0  0  0  0  0
   11.3423    8.1076   -4.8316 N   0  0  0  0  0  0  0  0  0  0  0  0
   11.6238    9.2772   -4.2118 C   0  0  0  0  0  0  0  0  0  0  0  0
   12.1007    9.2814   -2.9547 N   0  0  0  0  0  0  0  0  0  0  0  0
   12.6891    8.1219   -1.2822 H   0  0  0  0  0  0  0  0  0  0  0  0
   12.1865    5.9758   -2.3827 H   0  0  0  0  0  0  0  0  0  0  0  0
   11.2928    5.9765   -4.7391 H   0  0  0  0  0  0  0  0  0  0  0  0
   11.4007   10.5393   -4.9320 C   0  0  2  0  0  0  0  0  0  0  0  0
   12.3835   11.6193   -4.5383 C   0  0  0  0  0  0  0  0  0  0  0  0
   12.1886   12.7865   -5.4811 C   0  0  0  0  0  0  0  0  0  0  0  0
   10.7647   13.3076   -5.3088 C   0  0  0  0  0  0  0  0  0  0  0  0
    9.8434   12.1983   -5.7759 C   0  0  0  0  0  0  0  0  0  0  0  0
    9.9944   11.0716   -4.7551 C   0  0  2  0  0  0  0  0  0  0  0  0
    9.9387   11.7249   -3.4430 N   0  0  0  0  0  0  0  0  0  0  0  0
   11.5416   10.3769   -6.0311 H   0  0  0  0  0  0  0  0  0  0  0  0
   13.3986   11.2092   -4.7375 H   0  0  0  0  0  0  0  0  0  0  0  0
   12.2844   11.9402   -3.5012 H   0  0  0  0  0  0  0  0  0  0  0  0
   12.2527   12.4368   -6.5344 H   0  0  0  0  0  0  0  0  0  0  0  0
   12.9154   13.5856   -5.3169 H   0  0  0  0  0  0  0  0  0  0  0  0
   10.6231   13.4559   -4.2172 H   0  0  0  0  0  0  0  0  0  0  0  0
   10.6017   14.2472   -5.8545 H   0  0  0  0  0  0  0  0  0  0  0  0
   10.1978   11.8258   -6.7701 H   0  0  0  0  0  0  0  0  0  0  0  0
    8.7982   12.5290   -5.8754 H   0  0  0  0  0  0  0  0  0  0  0  0
    9.2268   10.3048   -4.8558 H   0  0  0  0  0  0  0  0  0  0  0  0
    9.0917   12.3562   -3.4101 H   0  0  0  0  0  0  0  0  0  0  0  0
    9.7924   11.0185   -2.6997 H   0  0  0  0  0  0  0  0  0  0  0  0
  2  1  2  0
  3  2  1  0
  4  3  2  0
  4  5  1  0
  5  6  2  0
  6  1  1  0
  1  7  1  0
  2  8  1  0
  3  9  1  0
 10 11  1  0
 11 12  1  0
 12 13  1  0
 13 14  1  0
 14 15  1  0
 15 16  1  0
 15 10  1  0
 10 17  1  6
 11 18  1  0
 11 19  1  0
 12 20  1  0
 12 21  1  0
 13 22  1  0
 13 23  1  0
 14 24  1  0
 14 25  1  0
 15 26  1  1
 16 27  1  0
 16 28  1  0
  5 10  1  0
M  END
>  <Score>  (1) 
-7.50865

$$$$

     RDKit          3D

 24 25  0  0  0  0  0  0  0  0999 V2000
   11.6892    9.2559   -4.3240 C   0  0  0  0  0  0  0  0  0  0  0  0
   11.3440    8.0952   -5.0385 C   0  0  0  0  0  0  0  0  0  0  0  0
   11.4161    6.8625   -4.3622 C   0  0  0  0  0  0  0  0  0  0  0  0
   11.8148    6.8698   -3.0605 N   0  0  0  0  0  0  0  0  0  0  0  0
   12.1398    8.0116   -2.4055 C   0  0  0  0  0  0  0  0  0  0  0  0
   12.0761    9.1930   -3.0362 N   0  0  0  0  0  0  0  0  0  0  0  0
   11.6493   10.2218   -4.8001 H   0  0  0  0  0  0  0  0  0  0  0  0
   11.1602    5.9429   -4.8701 H   0  0  0  0  0  0  0  0  0  0  0  0
   12.4535    7.9608   -1.3629 H   0  0  0  0  0  0  0  0  0  0  0  0
   10.9304    8.1533   -6.4126 C   0  0  0  0  0  0  0  0  0  0  0  0
    9.6201    8.0279   -6.8383 C   0  0  0  0  0  0  0  0  0  0  0  0
    9.2610    8.0888   -8.1585 C   0  0  0  0  0  0  0  0  0  0  0  0
   10.2343    8.2819   -9.1060 C   0  0  0  0  0  0  0  0  0  0  0  0
    9.9722    8.3352  -10.1794 H   0  0  0  0  0  0  0  0  0  0  0  0
   11.5453    8.4103   -8.7173 C   0  0  0  0  0  0  0  0  0  0  0  0
   12.5445    8.6075   -9.6779 O   0  0  0  0  0  0  0  0  0  0  0  0
   12.1908    8.6728  -11.0407 C   0  0  0  0  0  0  0  0  0  0  0  0
   11.8888    8.3471   -7.3921 C   0  0  0  0  0  0  0  0  0  0  0  0
    8.8564    7.8763   -6.0945 H   0  0  0  0  0  0  0  0  0  0  0  0
    8.2138    7.9874   -8.4815 H   0  0  0  0  0  0  0  0  0  0  0  0
   13.0135    9.0004  -11.6855 H   0  0  0  0  0  0  0  0  0  0  0  0
   11.3728    9.4404  -11.1664 H   0  0  0  0  0  0  0  0  0  0  0  0
   11.7879    7.6703  -11.3175 H   0  0  0  0  0  0  0  0  0  0  0  0
   12.9518    8.4544   -7.1181 H   0  0  0  0  0  0  0  0  0  0  0  0
  1  6  2  0
  2  3  2  0
  2  1  1  0
  3  4  1  0
  4  5  2  0
  6  5  1  0
  1  7  1  0
  3  8  1  0
  5  9  1  0
 10 11  2  0
 11 12  1  0
 12 13  2  0
 13 14  1  0
 13 15  1  0
 15 16  1  0
 16 17  1  0
 15 18  2  0
 18 10  1  0
 11 19  1  0
 12 20  1  0
 17 21  1  0
 17 22  1  0
 17 23  1  0
 18 24  1  0
  2 10  1  0
M  END
>  <Score>  (1) 
-7.25068

$$$$

     RDKit          3D

 20 21  0  0  0  0  0  0  0  0999 V2000
   11.6896    9.2583   -4.3236 C   0  0  0  0  0  0  0  0  0  0  0  0
   11.3435    8.0918   -5.0389 C   0  0  0  0  0  0  0  0  0  0  0  0
   11.4160    6.8649   -4.3634 C   0  0  0  0  0  0  0  0  0  0  0  0
   11.8153    6.8698   -3.0589 N   0  0  0  0  0  0  0  0  0  0  0  0
   12.1397    8.0087   -2.4049 C   0  0  0  0  0  0  0  0  0  0  0  0
   12.0759    9.1945   -3.0373 N   0  0  0  0  0  0  0  0  0  0  0  0
   11.6210   10.1719   -4.8745 H   0  0  0  0  0  0  0  0  0  0  0  0
   11.1674    5.9531   -4.8507 H   0  0  0  0  0  0  0  0  0  0  0  0
   12.4498    7.9549   -1.3712 H   0  0  0  0  0  0  0  0  0  0  0  0
   10.9258    8.1578   -6.4285 C   0  0  0  0  0  0  0  0  0  0  0  0
   10.5784    7.0455   -7.1674 C   0  0  0  0  0  0  0  0  0  0  0  0
   10.1846    7.1385   -8.4886 C   0  0  0  0  0  0  0  0  0  0  0  0
   10.1208    8.3570   -9.1322 C   0  0  0  0  0  0  0  0  0  0  0  0
   10.4682    9.4691   -8.3937 C   0  0  0  0  0  0  0  0  0  0  0  0
   10.8628    9.3814   -7.0718 C   0  0  0  0  0  0  0  0  0  0  0  0
   11.2050   10.4843   -6.3465 F   0  0  0  0  0  0  0  0  0  0  0  0
   10.6248    6.0828   -6.6714 H   0  0  0  0  0  0  0  0  0  0  0  0
    9.9149    6.2359   -9.0476 H   0  0  0  0  0  0  0  0  0  0  0  0
    9.8111    8.4376  -10.1739 H   0  0  0  0  0  0  0  0  0  0  0  0
   10.4312   10.4602   -8.8685 H   0  0  0  0  0  0  0  0  0  0  0  0
  1  6  2  0
  2  3  2  0
  2  1  1  0
  3  4  1  0
  4  5  2  0
  6  5  1  0
  1  7  1  0
  3  8  1  0
  5  9  1  0
 10 11  2  0
 11 12  1  0
 12 13  2  0
 13 14  1  0
 14 15  2  0
 15 16  1  0
 15 10  1  0
 11 17  1  0
 12 18  1  0
 13 19  1  0
 14 20  1  0
  2 10  1  0
M  END
>  <Score>  (1) 
-7.25012

$$$$

     RDKit          3D

 24 25  0  0  0  0  0  0  0  0999 V2000
   11.6904    9.2598   -4.3215 C   0  0  0  0  0  0  0  0  0  0  0  0
   11.3432    8.0859   -5.0378 C   0  0  0  0  0  0  0  0  0  0  0  0
   11.4151    6.8695   -4.3678 C   0  0  0  0  0  0  0  0  0  0  0  0
   11.8164    6.8709   -3.0559 N   0  0  0  0  0  0  0  0  0  0  0  0
   12.1394    8.0057   -2.4048 C   0  0  0  0  0  0  0  0  0  0  0  0
   12.0755    9.1963   -3.0392 N   0  0  0  0  0  0  0  0  0  0  0  0
   11.6321   10.1886   -4.8440 H   0  0  0  0  0  0  0  0  0  0  0  0
   11.1584    5.9767   -4.8927 H   0  0  0  0  0  0  0  0  0  0  0  0
   12.4418    7.9128   -1.3823 H   0  0  0  0  0  0  0  0  0  0  0  0
    8.9702    7.3401  -11.2001 H   0  0  0  0  0  0  0  0  0  0  0  0
    9.6176    8.4678  -10.7629 S   0  0  0  0  0  6  0  0  0  0  0  0
   10.8499    8.7050  -11.6015 O   0  0  0  0  0  0  0  0  0  0  0  0
    8.7105    9.6469  -10.9646 O   0  0  0  0  0  0  0  0  0  0  0  0
   10.1156    8.3446   -9.1083 C   0  0  0  0  0  0  0  0  0  0  0  0
   10.1526    7.1094   -8.4868 C   0  0  0  0  0  0  0  0  0  0  0  0
   10.5566    7.0740   -7.1703 C   0  0  0  0  0  0  0  0  0  0  0  0
   10.9241    8.1853   -6.4378 C   0  0  0  0  0  0  0  0  0  0  0  0
   10.8721    9.4086   -7.1036 C   0  0  0  0  0  0  0  0  0  0  0  0
   11.2438   10.6149   -6.4050 C   0  0  0  0  0  0  0  0  0  0  0  0
   11.5621   11.5939   -5.8437 N   0  0  0  0  0  0  0  0  0  0  0  0
   10.4727    9.4843   -8.4213 C   0  0  0  0  0  0  0  0  0  0  0  0
    9.8696    6.2027   -9.0303 H   0  0  0  0  0  0  0  0  0  0  0  0
   10.6041    6.1265   -6.6320 H   0  0  0  0  0  0  0  0  0  0  0  0
   10.4293   10.4255   -8.9438 H   0  0  0  0  0  0  0  0  0  0  0  0
  1  6  2  0
  2  3  2  0
  2  1  1  0
  3  4  1  0
  4  5  2  0
  6  5  1  0
  1  7  1  0
  3  8  1  0
  5  9  1  0
 10 11  1  0
 11 12  2  0
 11 13  2  0
 11 14  1  0
 14 15  2  0
 15 16  1  0
 16 17  2  0
 17 18  1  0
 18 19  1  0
 19 20  3  0
 18 21  2  0
 21 14  1  0
 15 22  1  0
 16 23  1  0
 21 24  1  0
  2 17  1  0
M  END
>  <Score>  (1) 
-7.23977

$$$$

     RDKit          3D

 28 29  0  0  0  0  0  0  0  0999 V2000
   11.6896    9.2584   -4.3238 C   0  0  0  0  0  0  0  0  0  0  0  0
   11.3434    8.0911   -5.0389 C   0  0  0  0  0  0  0  0  0  0  0  0
   11.4155    6.8656   -4.3651 C   0  0  0  0  0  0  0  0  0  0  0  0
   11.8162    6.8717   -3.0568 N   0  0  0  0  0  0  0  0  0  0  0  0
   12.1394    8.0075   -2.4054 C   0  0  0  0  0  0  0  0  0  0  0  0
   12.0759    9.1937   -3.0370 N   0  0  0  0  0  0  0  0  0  0  0  0
   11.6293   10.2056   -4.8594 H   0  0  0  0  0  0  0  0  0  0  0  0
   11.1641    5.9571   -4.8629 H   0  0  0  0  0  0  0  0  0  0  0  0
   12.4466    7.9455   -1.3787 H   0  0  0  0  0  0  0  0  0  0  0  0
   10.9183    8.1771   -6.4601 C   0  0  2  0  0  0  0  0  0  0  0  0
   10.9158    6.8128   -7.0872 C   0  0  0  0  0  0  0  0  0  0  0  0
   11.8490    6.6861   -8.2552 C   0  0  0  0  0  0  0  0  0  0  0  0
   11.6971    7.7584   -9.2789 C   0  0  1  0  0  0  0  0  0  0  0  0
   10.7254    7.3682  -10.2822 N   0  0  0  0  0  0  0  0  0  0  0  0
   11.3070    9.0939   -8.6834 C   0  0  0  0  0  0  0  0  0  0  0  0
   11.8034    9.1143   -7.2582 C   0  0  0  0  0  0  0  0  0  0  0  0
    9.9001    8.5677   -6.4751 H   0  0  0  0  0  0  0  0  0  0  0  0
    9.8878    6.5223   -7.4246 H   0  0  0  0  0  0  0  0  0  0  0  0
   11.2083    6.0322   -6.3477 H   0  0  0  0  0  0  0  0  0  0  0  0
   11.6579    5.7021   -8.7294 H   0  0  0  0  0  0  0  0  0  0  0  0
   12.8959    6.6696   -7.8793 H   0  0  0  0  0  0  0  0  0  0  0  0
   12.6721    7.9103   -9.8007 H   0  0  0  0  0  0  0  0  0  0  0  0
    9.7584    7.6090   -9.9597 H   0  0  0  0  0  0  0  0  0  0  0  0
   10.8367    6.3637  -10.4894 H   0  0  0  0  0  0  0  0  0  0  0  0
   10.2076    9.2072   -8.6437 H   0  0  0  0  0  0  0  0  0  0  0  0
   11.7297    9.8997   -9.3064 H   0  0  0  0  0  0  0  0  0  0  0  0
   11.7295   10.1055   -6.8024 H   0  0  0  0  0  0  0  0  0  0  0  0
   12.8443    8.7156   -7.1980 H   0  0  0  0  0  0  0  0  0  0  0  0
  1  6  2  0
  2  3  2  0
  2  1  1  0
  3  4  1  0
  4  5  2  0
  6  5  1  0
  1  7  1  0
  3  8  1  0
  5  9  1  0
 10 11  1  0
 11 12  1  0
 12 13  1  0
 13 14  1  0
 13 15  1  0
 15 16  1  0
 16 10  1  0
 10 17  1  1
 11 18  1  0
 11 19  1  0
 12 20  1  0
 12 21  1  0
 13 22  1  6
 14 23  1  0
 14 24  1  0
 15 25  1  0
 15 26  1  0
 16 27  1  0
 16 28  1  0
  2 10  1  0
M  END
>  <Score>  (1) 
-7.23884

$$$$

     RDKit          3D

 31 32  0  0  0  0  0  0  0  0999 V2000
   11.6896    9.2582   -4.3236 C   0  0  0  0  0  0  0  0  0  0  0  0
   11.3436    8.0919   -5.0387 C   0  0  0  0  0  0  0  0  0  0  0  0
   11.4158    6.8650   -4.3639 C   0  0  0  0  0  0  0  0  0  0  0  0
   11.8156    6.8704   -3.0582 N   0  0  0  0  0  0  0  0  0  0  0  0
   12.1396    8.0076   -2.4049 C   0  0  0  0  0  0  0  0  0  0  0  0
   12.0758    9.1950   -3.0377 N   0  0  0  0  0  0  0  0  0  0  0  0
   11.6322   10.2001   -4.8480 H   0  0  0  0  0  0  0  0  0  0  0  0
   11.1578    5.9790   -4.8913 H   0  0  0  0  0  0  0  0  0  0  0  0
   12.4539    7.9959   -1.3727 H   0  0  0  0  0  0  0  0  0  0  0  0
   10.9167    8.1644   -6.4606 C   0  0  1  0  0  0  0  0  0  0  0  0
   10.6458    6.9065   -6.8968 O   0  0  0  0  0  0  0  0  0  0  0  0
   10.1583    6.7737   -8.1517 C   0  0  2  0  0  0  0  0  0  0  0  0
   11.2781    6.1954   -9.0303 C   0  0  0  0  0  0  0  0  0  0  0  0
   11.6687    4.9586   -8.5321 O   0  0  0  0  0  0  0  0  0  0  0  0
    9.5535    7.9539   -8.7906 C   0  0  1  0  0  0  0  0  0  0  0  0
    8.3819    7.5979   -9.5019 O   0  0  0  0  0  0  0  0  0  0  0  0
    9.2254    9.1061   -7.9305 C   0  0  1  0  0  0  0  0  0  0  0  0
    7.8378    9.3832   -7.9224 O   0  0  0  0  0  0  0  0  0  0  0  0
    9.6337    8.9661   -6.4949 C   0  0  2  0  0  0  0  0  0  0  0  0
    9.9035   10.2141   -5.9463 O   0  0  0  0  0  0  0  0  0  0  0  0
   11.7048    8.6988   -7.0159 H   0  0  0  0  0  0  0  0  0  0  0  0
    9.3808    5.9527   -8.1279 H   0  0  0  0  0  0  0  0  0  0  0  0
   10.9719    6.1683  -10.0847 H   0  0  0  0  0  0  0  0  0  0  0  0
   12.1843    6.8591   -8.9663 H   0  0  0  0  0  0  0  0  0  0  0  0
   12.1765    4.4698   -9.2229 H   0  0  0  0  0  0  0  0  0  0  0  0
   10.2573    8.3145   -9.5985 H   0  0  0  0  0  0  0  0  0  0  0  0
    8.0820    6.7150   -9.1270 H   0  0  0  0  0  0  0  0  0  0  0  0
    9.6909   10.0678   -8.2985 H   0  0  0  0  0  0  0  0  0  0  0  0
    7.5700    9.7557   -8.8014 H   0  0  0  0  0  0  0  0  0  0  0  0
    8.8593    8.4802   -5.8756 H   0  0  0  0  0  0  0  0  0  0  0  0
    9.2824   10.9205   -6.2683 H   0  0  0  0  0  0  0  0  0  0  0  0
  1  6  2  0
  2  3  2  0
  2  1  1  0
  3  4  1  0
  4  5  2  0
  6  5  1  0
  1  7  1  0
  3  8  1  0
  5  9  1  0
 10 11  1  0
 11 12  1  0
 12 13  1  0
 13 14  1  0
 12 15  1  0
 15 16  1  0
 15 17  1  0
 17 18  1  0
 17 19  1  0
 19 20  1  0
 19 10  1  0
 10 21  1  6
 12 22  1  1
 13 23  1  0
 13 24  1  0
 14 25  1  0
 15 26  1  6
 16 27  1  0
 17 28  1  6
 18 29  1  0
 19 30  1  1
 20 31  1  0
  2 10  1  0
M  END
>  <Score>  (1) 
-7.23598

$$$$

     RDKit          3D

 31 32  0  0  0  0  0  0  0  0999 V2000
   11.6884    9.2499   -4.3252 C   0  0  0  0  0  0  0  0  0  0  0  0
   11.3430    8.0948   -5.0411 C   0  0  0  0  0  0  0  0  0  0  0  0
   11.4174    6.8699   -4.3608 C   0  0  0  0  0  0  0  0  0  0  0  0
   11.8150    6.8691   -3.0601 N   0  0  0  0  0  0  0  0  0  0  0  0
   12.1396    8.0118   -2.4061 C   0  0  0  0  0  0  0  0  0  0  0  0
   12.0767    9.1926   -3.0338 N   0  0  0  0  0  0  0  0  0  0  0  0
   11.6697   10.2247   -4.7783 H   0  0  0  0  0  0  0  0  0  0  0  0
   11.1587    5.9462   -4.8773 H   0  0  0  0  0  0  0  0  0  0  0  0
   12.4438    7.9022   -1.3711 H   0  0  0  0  0  0  0  0  0  0  0  0
   10.9191    8.1203   -6.3729 N   0  0  0  0  0  0  0  0  0  0  0  0
   11.7528    8.3373   -7.5365 C   0  0  0  0  0  0  0  0  0  0  0  0
   12.1952    9.7848   -7.5026 C   0  0  0  0  0  0  0  0  0  0  0  0
   12.8893   10.4737   -8.5479 C   0  0  0  0  0  0  0  0  0  0  0  0
   12.1835   11.2302   -9.6827 C   0  0  0  0  0  0  0  0  0  0  0  0
   11.2424   10.2517  -10.4825 C   0  0  0  0  0  0  0  0  0  0  0  0
   11.0703    9.1639   -9.6241 C   0  0  0  0  0  0  0  0  0  0  0  0
   10.8732    8.0419   -8.8076 C   0  0  0  0  0  0  0  0  0  0  0  0
    9.8721    7.9600   -6.5263 H   0  0  0  0  0  0  0  0  0  0  0  0
   12.5987    7.6611   -7.5069 H   0  0  0  0  0  0  0  0  0  0  0  0
   12.9088    9.7562   -6.6141 H   0  0  0  0  0  0  0  0  0  0  0  0
   11.4024   10.4608   -7.0560 H   0  0  0  0  0  0  0  0  0  0  0  0
   13.4114   11.3652   -8.0515 H   0  0  0  0  0  0  0  0  0  0  0  0
   13.8025    9.9267   -8.9336 H   0  0  0  0  0  0  0  0  0  0  0  0
   12.9726   11.5675  -10.3488 H   0  0  0  0  0  0  0  0  0  0  0  0
   11.5789   12.0301   -9.2396 H   0  0  0  0  0  0  0  0  0  0  0  0
   10.3444   10.8772  -10.7395 H   0  0  0  0  0  0  0  0  0  0  0  0
   11.7106   10.0770  -11.4914 H   0  0  0  0  0  0  0  0  0  0  0  0
   10.6544    9.8468   -8.8072 H   0  0  0  0  0  0  0  0  0  0  0  0
   12.1944    8.9559   -9.6462 H   0  0  0  0  0  0  0  0  0  0  0  0
   11.2127    7.0361   -9.1716 H   0  0  0  0  0  0  0  0  0  0  0  0
    9.8190    7.8246   -8.4713 H   0  0  0  0  0  0  0  0  0  0  0  0
  1  6  2  0
  2  3  2  0
  2  1  1  0
  3  4  1  0
  4  5  2  0
  6  5  1  0
  1  7  1  0
  3  8  1  0
  5  9  1  0
 10 11  1  0
 11 12  1  0
 12 13  1  0
 13 14  1  0
 14 15  1  0
 15 16  1  0
 16 17  1  0
 17 11  1  0
 10 18  1  0
 11 19  1  0
 12 20  1  0
 12 21  1  0
 13 22  1  0
 13 23  1  0
 14 24  1  0
 14 25  1  0
 15 26  1  0
 15 27  1  0
 16 28  1  0
 16 29  1  0
 17 30  1  0
 17 31  1  0
  2 10  1  0
M  END
>  <Score>  (1) 
-7.2348

$$$$

     RDKit          3D

 32 34  0  0  0  0  0  0  0  0999 V2000
   11.6891    9.2572   -4.3250 C   0  0  0  0  0  0  0  0  0  0  0  0
   11.3436    8.0949   -5.0395 C   0  0  0  0  0  0  0  0  0  0  0  0
   11.4166    6.8630   -4.3608 C   0  0  0  0  0  0  0  0  0  0  0  0
   11.8147    6.8692   -3.0608 N   0  0  0  0  0  0  0  0  0  0  0  0
   12.1398    8.0098   -2.4048 C   0  0  0  0  0  0  0  0  0  0  0  0
   12.0762    9.1939   -3.0362 N   0  0  0  0  0  0  0  0  0  0  0  0
   11.6454   10.2301   -4.8155 H   0  0  0  0  0  0  0  0  0  0  0  0
   11.1634    5.9503   -4.8627 H   0  0  0  0  0  0  0  0  0  0  0  0
   12.4502    7.9667   -1.3743 H   0  0  0  0  0  0  0  0  0  0  0  0
   10.9451    8.1530   -6.3640 O   0  0  0  0  0  0  0  0  0  0  0  0
   10.3195    7.0373   -6.9211 C   0  0  0  0  0  0  0  0  0  0  0  0
    9.9478    7.2357   -8.3385 C   0  0  0  0  0  0  0  0  0  0  0  0
   10.1922    8.3957   -9.0334 C   0  0  0  0  0  0  0  0  0  0  0  0
    9.8138    8.4910  -10.3419 C   0  0  0  0  0  0  0  0  0  0  0  0
   10.0783    9.7451  -11.0919 C   0  0  0  0  0  0  0  0  0  0  0  0
    9.2023    7.4857  -10.9942 N   0  0  0  0  0  0  0  0  0  0  0  0
    8.9451    6.3326  -10.3481 C   0  0  0  0  0  0  0  0  0  0  0  0
    8.3179    5.3059  -11.0237 C   0  0  0  0  0  0  0  0  0  0  0  0
    8.0754    4.1477  -10.3253 C   0  0  0  0  0  0  0  0  0  0  0  0
    8.4389    3.9957   -8.9922 C   0  0  0  0  0  0  0  0  0  0  0  0
    9.0652    5.0343   -8.3352 C   0  0  0  0  0  0  0  0  0  0  0  0
    9.3165    6.2004   -9.0158 C   0  0  0  0  0  0  0  0  0  0  0  0
   11.0088    6.1674   -6.7851 H   0  0  0  0  0  0  0  0  0  0  0  0
    9.3848    6.7452   -6.3602 H   0  0  0  0  0  0  0  0  0  0  0  0
   10.6897    9.1957   -8.4803 H   0  0  0  0  0  0  0  0  0  0  0  0
   10.2988    9.4532  -12.1536 H   0  0  0  0  0  0  0  0  0  0  0  0
    9.1640   10.3932  -11.1566 H   0  0  0  0  0  0  0  0  0  0  0  0
   10.9477   10.3018  -10.6819 H   0  0  0  0  0  0  0  0  0  0  0  0
    8.0425    5.4471  -12.0659 H   0  0  0  0  0  0  0  0  0  0  0  0
    7.5869    3.3251  -10.8220 H   0  0  0  0  0  0  0  0  0  0  0  0
    8.2277    3.0557   -8.4709 H   0  0  0  0  0  0  0  0  0  0  0  0
    9.3545    4.9406   -7.3092 H   0  0  0  0  0  0  0  0  0  0  0  0
  1  6  2  0
  2  3  2  0
  2  1  1  0
  3  4  1  0
  4  5  2  0
  6  5  1  0
  1  7  1  0
  3  8  1  0
  5  9  1  0
 10 11  1  0
 11 12  1  0
 12 13  2  0
 13 14  1  0
 14 15  1  0
 14 16  2  0
 16 17  1  0
 17 18  2  0
 18 19  1  0
 19 20  2  0
 20 21  1  0
 21 22  2  0
 22 12  1  0
 22 17  1  0
 11 23  1  0
 11 24  1  0
 13 25  1  0
 15 26  1  0
 15 27  1  0
 15 28  1  0
 18 29  1  0
 19 30  1  0
 20 31  1  0
 21 32  1  0
  2 10  1  0
M  END
>  <Score>  (1) 
-7.22735

$$$$

     RDKit          3D

 32 33  0  0  0  0  0  0  0  0999 V2000
   11.6889    9.2581   -4.3260 C   0  0  0  0  0  0  0  0  0  0  0  0
   11.3434    8.0897   -5.0385 C   0  0  0  0  0  0  0  0  0  0  0  0
   11.4168    6.8669   -4.3613 C   0  0  0  0  0  0  0  0  0  0  0  0
   11.8146    6.8706   -3.0617 N   0  0  0  0  0  0  0  0  0  0  0  0
   12.1396    8.0077   -2.4049 C   0  0  0  0  0  0  0  0  0  0  0  0
   12.0768    9.1950   -3.0346 N   0  0  0  0  0  0  0  0  0  0  0  0
   11.6436   10.2113   -4.8152 H   0  0  0  0  0  0  0  0  0  0  0  0
   11.1532    6.0018   -4.9148 H   0  0  0  0  0  0  0  0  0  0  0  0
   12.4429    7.8947   -1.3725 H   0  0  0  0  0  0  0  0  0  0  0  0
   10.9311    8.1519   -6.4107 C   0  0  0  0  0  0  0  0  0  0  0  0
   11.8041    7.7914   -7.4274 C   0  0  0  0  0  0  0  0  0  0  0  0
   11.4497    7.8360   -8.7557 C   0  0  0  0  0  0  0  0  0  0  0  0
   12.3257    7.4750   -9.7596 O   0  0  0  0  0  0  0  0  0  0  0  0
   13.6231    7.0488   -9.3919 C   0  0  0  0  0  0  0  0  0  0  0  0
   10.1748    8.2549   -9.1128 C   0  0  0  0  0  0  0  0  0  0  0  0
    9.7398    8.3282  -10.4274 O   0  0  0  0  0  0  0  0  0  0  0  0
    9.8912    9.4890  -11.2222 C   0  0  0  0  0  0  0  0  0  0  0  0
    9.3037    8.6141   -8.1092 C   0  0  0  0  0  0  0  0  0  0  0  0
    8.0309    9.0321   -8.4674 O   0  0  0  0  0  0  0  0  0  0  0  0
    7.0585    9.4217   -7.5413 C   0  0  0  0  0  0  0  0  0  0  0  0
    9.6787    8.5631   -6.7652 C   0  0  0  0  0  0  0  0  0  0  0  0
   12.8058    7.4598   -7.1933 H   0  0  0  0  0  0  0  0  0  0  0  0
   14.2450    7.8852   -9.0340 H   0  0  0  0  0  0  0  0  0  0  0  0
   14.0834    6.6339  -10.3219 H   0  0  0  0  0  0  0  0  0  0  0  0
   13.5711    6.2280   -8.6225 H   0  0  0  0  0  0  0  0  0  0  0  0
    9.1193   10.2399  -10.9930 H   0  0  0  0  0  0  0  0  0  0  0  0
   10.9015    9.9176  -11.1611 H   0  0  0  0  0  0  0  0  0  0  0  0
    9.7305    9.1816  -12.2770 H   0  0  0  0  0  0  0  0  0  0  0  0
    7.4030   10.3976   -7.0983 H   0  0  0  0  0  0  0  0  0  0  0  0
    6.1012    9.5885   -8.0636 H   0  0  0  0  0  0  0  0  0  0  0  0
    6.9836    8.7020   -6.7101 H   0  0  0  0  0  0  0  0  0  0  0  0
    8.9298    8.8636   -6.0427 H   0  0  0  0  0  0  0  0  0  0  0  0
  1  6  2  0
  2  3  2  0
  2  1  1  0
  3  4  1  0
  4  5  2  0
  6  5  1  0
  1  7  1  0
  3  8  1  0
  5  9  1  0
 10 11  2  0
 11 12  1  0
 12 13  1  0
 13 14  1  0
 12 15  2  0
 15 16  1  0
 16 17  1  0
 15 18  1  0
 18 19  1  0
 19 20  1  0
 18 21  2  0
 21 10  1  0
 11 22  1  0
 14 23  1  0
 14 24  1  0
 14 25  1  0
 17 26  1  0
 17 27  1  0
 17 28  1  0
 20 29  1  0
 20 30  1  0
 20 31  1  0
 21 32  1  0
  2 10  1  0
M  END
>  <Score>  (1) 
-7.22609

$$$$

     RDKit          3D

 24 26  0  0  0  0  0  0  0  0999 V2000
   11.6912    9.2597   -4.3187 C   0  0  0  0  0  0  0  0  0  0  0  0
   11.3427    8.0843   -5.0395 C   0  0  0  0  0  0  0  0  0  0  0  0
   11.4159    6.8718   -4.3653 C   0  0  0  0  0  0  0  0  0  0  0  0
   11.8155    6.8692   -3.0584 N   0  0  0  0  0  0  0  0  0  0  0  0
   12.1400    8.0060   -2.4033 C   0  0  0  0  0  0  0  0  0  0  0  0
   12.0747    9.1971   -3.0417 N   0  0  0  0  0  0  0  0  0  0  0  0
   11.6341   10.2094   -4.8442 H   0  0  0  0  0  0  0  0  0  0  0  0
   11.1550    5.9502   -4.8344 H   0  0  0  0  0  0  0  0  0  0  0  0
   12.4567    8.0287   -1.3765 H   0  0  0  0  0  0  0  0  0  0  0  0
   10.8890    8.2043   -6.4246 C   0  0  0  0  0  0  0  0  0  0  0  0
   11.4861    9.1464   -7.2109 N   0  0  0  0  0  0  0  0  0  0  0  0
   11.1188    9.3021   -8.4867 C   0  0  0  0  0  0  0  0  0  0  0  0
   10.1487    8.5071   -8.9709 N   0  0  0  0  0  0  0  0  0  0  0  0
    9.5319    7.5677   -8.2432 C   0  0  0  0  0  0  0  0  0  0  0  0
    8.5483    6.7452   -8.7405 C   0  0  0  0  0  0  0  0  0  0  0  0
    7.9300    5.7723   -7.9845 C   0  0  0  0  0  0  0  0  0  0  0  0
    8.2978    5.5962   -6.6668 C   0  0  0  0  0  0  0  0  0  0  0  0
    7.8074    4.8215   -6.0624 H   0  0  0  0  0  0  0  0  0  0  0  0
    9.2808    6.4073   -6.1431 C   0  0  0  0  0  0  0  0  0  0  0  0
    9.8940    7.3792   -6.9033 C   0  0  0  0  0  0  0  0  0  0  0  0
   11.6007   10.0612   -9.1179 H   0  0  0  0  0  0  0  0  0  0  0  0
    8.2612    6.8895   -9.7861 H   0  0  0  0  0  0  0  0  0  0  0  0
    7.1570    5.1250   -8.3720 H   0  0  0  0  0  0  0  0  0  0  0  0
    9.5760    6.2541   -5.1232 H   0  0  0  0  0  0  0  0  0  0  0  0
  1  6  2  0
  2  3  2  0
  2  1  1  0
  3  4  1  0
  4  5  2  0
  6  5  1  0
  1  7  1  0
  3  8  1  0
  5  9  1  0
 10 11  2  0
 11 12  1  0
 12 13  2  0
 13 14  1  0
 14 15  2  0
 15 16  1  0
 16 17  2  0
 17 18  1  0
 17 19  1  0
 19 20  2  0
 20 10  1  0
 20 14  1  0
 12 21  1  0
 15 22  1  0
 16 23  1  0
 19 24  1  0
  2 10  1  0
M  END
>  <Score>  (1) 
-7.22451

$$$$

     RDKit          3D

 26 27  0  0  0  0  0  0  0  0999 V2000
   11.6894    9.2577   -4.3240 C   0  0  0  0  0  0  0  0  0  0  0  0
   11.3435    8.0933   -5.0392 C   0  0  0  0  0  0  0  0  0  0  0  0
   11.4163    6.8640   -4.3620 C   0  0  0  0  0  0  0  0  0  0  0  0
   11.8150    6.8695   -3.0600 N   0  0  0  0  0  0  0  0  0  0  0  0
   12.1398    8.0091   -2.4047 C   0  0  0  0  0  0  0  0  0  0  0  0
   12.0760    9.1945   -3.0370 N   0  0  0  0  0  0  0  0  0  0  0  0
   11.6208   10.1793   -4.8777 H   0  0  0  0  0  0  0  0  0  0  0  0
   11.1565    5.9666   -4.8910 H   0  0  0  0  0  0  0  0  0  0  0  0
   12.4488    7.9478   -1.3719 H   0  0  0  0  0  0  0  0  0  0  0  0
   10.2738    6.3601  -10.2574 H   0  0  0  0  0  0  0  0  0  0  0  0
   10.5723    6.0027   -9.2486 C   0  0  0  0  0  0  0  0  0  0  0  0
   10.4941    7.1559   -8.3099 C   0  0  2  0  0  0  0  0  0  0  0  0
   11.2548    6.9876   -7.1511 O   0  0  0  0  0  0  0  0  0  0  0  0
   10.9204    8.1454   -6.4420 C   0  0  1  0  0  0  0  0  0  0  0  0
    9.4588    8.3811   -6.6379 C   0  0  2  0  0  0  0  0  0  0  0  0
    8.6976    8.2498   -5.5067 O   0  0  0  0  0  0  0  0  0  0  0  0
    9.1123    7.3250   -7.6973 C   0  0  2  0  0  0  0  0  0  0  0  0
    8.6933    6.2028   -7.0152 O   0  0  0  0  0  0  0  0  0  0  0  0
    9.9568    5.1566   -8.9238 H   0  0  0  0  0  0  0  0  0  0  0  0
   11.6521    5.7151   -9.3423 H   0  0  0  0  0  0  0  0  0  0  0  0
   10.7340    8.1283   -8.8056 H   0  0  0  0  0  0  0  0  0  0  0  0
   11.5056    8.9714   -6.9401 H   0  0  0  0  0  0  0  0  0  0  0  0
    9.2948    9.3638   -7.1575 H   0  0  0  0  0  0  0  0  0  0  0  0
    7.9134    8.8836   -5.5687 H   0  0  0  0  0  0  0  0  0  0  0  0
    8.3775    7.7140   -8.4254 H   0  0  0  0  0  0  0  0  0  0  0  0
    8.4484    5.4436   -7.5777 H   0  0  0  0  0  0  0  0  0  0  0  0
  1  6  2  0
  2  3  2  0
  2  1  1  0
  3  4  1  0
  4  5  2  0
  6  5  1  0
  1  7  1  0
  3  8  1  0
  5  9  1  0
 10 11  1  0
 11 12  1  0
 12 13  1  0
 13 14  1  0
 14 15  1  0
 15 16  1  0
 15 17  1  0
 17 18  1  0
 17 12  1  0
 11 19  1  0
 11 20  1  0
 12 21  1  6
 14 22  1  6
 15 23  1  6
 16 24  1  0
 17 25  1  6
 18 26  1  0
  2 14  1  0
M  END
>  <Score>  (1) 
-7.22316

$$$$

     RDKit          3D

 22 23  0  0  0  0  0  0  0  0999 V2000
   12.3034    8.1218   -2.2990 C   0  0  0  0  0  0  0  0  0  0  0  0
   12.0215    6.8856   -2.9131 C   0  0  0  0  0  0  0  0  0  0  0  0
   11.5244    6.9022   -4.2253 C   0  0  0  0  0  0  0  0  0  0  0  0
   11.3431    8.1011   -4.8289 N   0  0  0  0  0  0  0  0  0  0  0  0
   11.6273    9.2870   -4.2036 C   0  0  0  0  0  0  0  0  0  0  0  0
   12.0953    9.2733   -2.9681 N   0  0  0  0  0  0  0  0  0  0  0  0
   12.6862    8.0950   -1.2869 H   0  0  0  0  0  0  0  0  0  0  0  0
   12.1821    5.9510   -2.3918 H   0  0  0  0  0  0  0  0  0  0  0  0
   11.2894    5.9854   -4.7490 H   0  0  0  0  0  0  0  0  0  0  0  0
   11.3875   10.4688   -4.9430 N   0  0  0  0  0  0  0  0  0  0  0  0
   10.8890   10.5798   -6.2419 C   0  0  0  0  0  0  0  0  0  0  0  0
   10.4342    9.5101   -6.9681 C   0  0  0  0  0  0  0  0  0  0  0  0
    9.9446    9.6434   -8.2778 C   0  0  0  0  0  0  0  0  0  0  0  0
    9.9243   10.8924   -8.8422 C   0  0  0  0  0  0  0  0  0  0  0  0
    9.2661   11.0999  -10.6146 Br  0  0  0  0  0  0  0  0  0  0  0  0
   10.3692   11.9967   -8.1550 C   0  0  0  0  0  0  0  0  0  0  0  0
   10.8399   11.8148   -6.8742 C   0  0  0  0  0  0  0  0  0  0  0  0
   11.6072   11.4197   -4.4645 H   0  0  0  0  0  0  0  0  0  0  0  0
   10.4134    8.5122   -6.5989 H   0  0  0  0  0  0  0  0  0  0  0  0
    9.5900    8.7658   -8.8265 H   0  0  0  0  0  0  0  0  0  0  0  0
   10.3394   12.9667   -8.6293 H   0  0  0  0  0  0  0  0  0  0  0  0
   11.1859   12.6741   -6.3412 H   0  0  0  0  0  0  0  0  0  0  0  0
  2  1  2  0
  3  2  1  0
  4  3  2  0
  4  5  1  0
  5  6  2  0
  6  1  1  0
  1  7  1  0
  2  8  1  0
  3  9  1  0
 10 11  1  0
 11 12  2  0
 12 13  1  0
 13 14  2  0
 14 15  1  0
 14 16  1  0
 16 17  2  0
 17 11  1  0
 10 18  1  0
 12 19  1  0
 13 20  1  0
 16 21  1  0
 17 22  1  0
  5 10  1  0
M  END
>  <Score>  (1) 
-7.48554

$$$$

     RDKit          3D

 23 24  0  0  0  0  0  0  0  0999 V2000
   11.6902    9.2583   -4.3216 C   0  0  0  0  0  0  0  0  0  0  0  0
   11.3436    8.0919   -5.0386 C   0  0  0  0  0  0  0  0  0  0  0  0
   11.4155    6.8646   -4.3647 C   0  0  0  0  0  0  0  0  0  0  0  0
   11.8163    6.8725   -3.0565 N   0  0  0  0  0  0  0  0  0  0  0  0
   12.1392    8.0026   -2.4042 C   0  0  0  0  0  0  0  0  0  0  0  0
   12.0751    9.1981   -3.0414 N   0  0  0  0  0  0  0  0  0  0  0  0
   11.6228   10.1928   -4.8762 H   0  0  0  0  0  0  0  0  0  0  0  0
   11.1589    5.9795   -4.8881 H   0  0  0  0  0  0  0  0  0  0  0  0
   12.4519    7.9771   -1.3723 H   0  0  0  0  0  0  0  0  0  0  0  0
    8.6059    5.8208  -10.0689 H   0  0  0  0  0  0  0  0  0  0  0  0
    9.7939    5.6574   -9.4087 S   0  0  0  0  0  6  0  0  0  0  0  0
    9.6966    4.4412   -8.5098 O   0  0  0  0  0  0  0  0  0  0  0  0
   10.8901    5.3748  -10.4037 O   0  0  0  0  0  0  0  0  0  0  0  0
   10.2062    7.0787   -8.4714 C   0  0  0  0  0  0  0  0  0  0  0  0
   10.1212    8.2944   -9.1034 C   0  0  0  0  0  0  0  0  0  0  0  0
   10.4382    9.4452   -8.3993 C   0  0  0  0  0  0  0  0  0  0  0  0
   10.8318    9.3583   -7.0841 C   0  0  0  0  0  0  0  0  0  0  0  0
   10.9258    8.1475   -6.4241 C   0  0  0  0  0  0  0  0  0  0  0  0
   10.6007    7.0176   -7.1608 C   0  0  0  0  0  0  0  0  0  0  0  0
    9.8072    8.3573  -10.1506 H   0  0  0  0  0  0  0  0  0  0  0  0
   10.3685   10.4091   -8.9080 H   0  0  0  0  0  0  0  0  0  0  0  0
   11.0739   10.2930   -6.5626 H   0  0  0  0  0  0  0  0  0  0  0  0
   10.6567    6.0462   -6.6951 H   0  0  0  0  0  0  0  0  0  0  0  0
  1  6  2  0
  2  3  2  0
  2  1  1  0
  3  4  1  0
  4  5  2  0
  6  5  1  0
  1  7  1  0
  3  8  1  0
  5  9  1  0
 10 11  1  0
 11 12  2  0
 11 13  2  0
 11 14  1  0
 14 15  2  0
 15 16  1  0
 16 17  2  0
 17 18  1  0
 18 19  2  0
 19 14  1  0
 15 20  1  0
 16 21  1  0
 17 22  1  0
 19 23  1  0
  2 18  1  0
M  END
>  <Score>  (1) 
-7.21976

$$$$

     RDKit          3D

 23 25  0  0  0  0  0  0  0  0999 V2000
   11.6894    9.2574   -4.3239 C   0  0  0  0  0  0  0  0  0  0  0  0
   11.3439    8.0918   -5.0377 C   0  0  0  0  0  0  0  0  0  0  0  0
   11.4154    6.8658   -4.3656 C   0  0  0  0  0  0  0  0  0  0  0  0
   11.8161    6.8708   -3.0568 N   0  0  0  0  0  0  0  0  0  0  0  0
   12.1395    8.0067   -2.4049 C   0  0  0  0  0  0  0  0  0  0  0  0
   12.0758    9.1957   -3.0381 N   0  0  0  0  0  0  0  0  0  0  0  0
   11.6230   10.1820   -4.8715 H   0  0  0  0  0  0  0  0  0  0  0  0
   11.1624    5.9395   -4.8620 H   0  0  0  0  0  0  0  0  0  0  0  0
   12.4510    7.9512   -1.3662 H   0  0  0  0  0  0  0  0  0  0  0  0
   10.9348    8.1555   -6.3983 N   0  0  0  0  0  0  0  0  0  0  0  0
   10.5562    9.2487   -7.0383 N   0  0  0  0  0  0  0  0  0  0  0  0
   10.2339    8.9650   -8.3094 C   0  0  0  0  0  0  0  0  0  0  0  0
    9.8964    9.7115   -9.0161 H   0  0  0  0  0  0  0  0  0  0  0  0
   10.4122    7.6185   -8.5057 C   0  0  0  0  0  0  0  0  0  0  0  0
   10.2262    6.8367   -9.6092 C   0  0  0  0  0  0  0  0  0  0  0  0
    9.7692    7.3546  -10.8614 N   0  0  0  0  0  0  0  0  0  0  0  0
   10.5013    5.5086   -9.4636 N   0  0  0  0  0  0  0  0  0  0  0  0
   10.9313    5.0241   -8.2839 C   0  0  0  0  0  0  0  0  0  0  0  0
   11.1111    5.8154   -7.1959 N   0  0  0  0  0  0  0  0  0  0  0  0
   10.8550    7.1324   -7.2829 C   0  0  0  0  0  0  0  0  0  0  0  0
    8.7815    7.2429  -11.1709 H   0  0  0  0  0  0  0  0  0  0  0  0
   10.4207    7.8613  -11.5003 H   0  0  0  0  0  0  0  0  0  0  0  0
   11.1627    3.9694   -8.1243 H   0  0  0  0  0  0  0  0  0  0  0  0
  1  6  2  0
  2  3  2  0
  2  1  1  0
  3  4  1  0
  4  5  2  0
  6  5  1  0
  1  7  1  0
  3  8  1  0
  5  9  1  0
 10 11  1  0
 11 12  2  0
 12 13  1  0
 12 14  1  0
 14 15  2  0
 15 16  1  0
 15 17  1  0
 17 18  2  0
 18 19  1  0
 19 20  2  0
 20 10  1  0
 20 14  1  0
 16 21  1  0
 16 22  1  0
 18 23  1  0
  2 10  1  0
M  END
>  <Score>  (1) 
-7.21687

$$$$

     RDKit          3D

 26 27  0  0  0  0  0  0  0  0999 V2000
   11.6905    9.2593   -4.3212 C   0  0  0  0  0  0  0  0  0  0  0  0
   11.3432    8.0896   -5.0390 C   0  0  0  0  0  0  0  0  0  0  0  0
   11.4154    6.8661   -4.3656 C   0  0  0  0  0  0  0  0  0  0  0  0
   11.8162    6.8713   -3.0565 N   0  0  0  0  0  0  0  0  0  0  0  0
   12.1394    8.0054   -2.4048 C   0  0  0  0  0  0  0  0  0  0  0  0
   12.0753    9.1964   -3.0400 N   0  0  0  0  0  0  0  0  0  0  0  0
   11.6282   10.2011   -4.8613 H   0  0  0  0  0  0  0  0  0  0  0  0
   11.1621    5.9573   -4.8696 H   0  0  0  0  0  0  0  0  0  0  0  0
   12.4559    8.0286   -1.3779 H   0  0  0  0  0  0  0  0  0  0  0  0
   11.9457    6.0196   -9.5325 H   0  0  0  0  0  0  0  0  0  0  0  0
   11.7515    7.0955   -9.6933 C   0  0  0  0  0  0  0  0  0  0  0  0
   11.1082    7.7736   -8.5180 C   0  0  2  0  0  0  0  0  0  0  0  0
   11.7634    7.4902   -7.3145 O   0  0  0  0  0  0  0  0  0  0  0  0
   10.9316    8.2056   -6.4271 C   0  0  1  0  0  0  0  0  0  0  0  0
    9.5833    7.6354   -6.7406 C   0  0  1  0  0  0  0  0  0  0  0  0
    8.6358    8.6479   -6.6288 O   0  0  0  0  0  0  0  0  0  0  0  0
    9.7157    7.3252   -8.2381 C   0  0  1  0  0  0  0  0  0  0  0  0
    8.8421    8.0756   -8.9964 O   0  0  0  0  0  0  0  0  0  0  0  0
   11.1415    7.3049  -10.5807 H   0  0  0  0  0  0  0  0  0  0  0  0
   12.7368    7.5950   -9.8577 H   0  0  0  0  0  0  0  0  0  0  0  0
   11.1365    8.8554   -8.6630 H   0  0  0  0  0  0  0  0  0  0  0  0
   10.9701    9.2535   -6.7492 H   0  0  0  0  0  0  0  0  0  0  0  0
    9.3286    6.7435   -6.1612 H   0  0  0  0  0  0  0  0  0  0  0  0
    9.0692    9.5090   -6.9124 H   0  0  0  0  0  0  0  0  0  0  0  0
    9.5337    6.2491   -8.3950 H   0  0  0  0  0  0  0  0  0  0  0  0
    7.8870    7.8593   -8.8326 H   0  0  0  0  0  0  0  0  0  0  0  0
  1  6  2  0
  2  3  2  0
  2  1  1  0
  3  4  1  0
  4  5  2  0
  6  5  1  0
  1  7  1  0
  3  8  1  0
  5  9  1  0
 10 11  1  0
 11 12  1  0
 12 13  1  0
 13 14  1  0
 14 15  1  0
 15 16  1  0
 15 17  1  0
 17 18  1  0
 17 12  1  0
 11 19  1  0
 11 20  1  0
 12 21  1  6
 14 22  1  6
 15 23  1  1
 16 24  1  0
 17 25  1  1
 18 26  1  0
  2 14  1  0
M  END
>  <Score>  (1) 
-7.2155

$$$$

     RDKit          3D

 20 21  0  0  0  0  0  0  0  0999 V2000
   11.6905    9.2615   -4.3219 C   0  0  0  0  0  0  0  0  0  0  0  0
   11.3441    8.0878   -5.0357 C   0  0  0  0  0  0  0  0  0  0  0  0
   11.4155    6.8675   -4.3658 C   0  0  0  0  0  0  0  0  0  0  0  0
   11.8158    6.8710   -3.0578 N   0  0  0  0  0  0  0  0  0  0  0  0
   12.1396    8.0051   -2.4038 C   0  0  0  0  0  0  0  0  0  0  0  0
   12.0746    9.1951   -3.0420 N   0  0  0  0  0  0  0  0  0  0  0  0
   11.6424   10.2253   -4.8206 H   0  0  0  0  0  0  0  0  0  0  0  0
   11.1569    5.9701   -4.8878 H   0  0  0  0  0  0  0  0  0  0  0  0
   12.4572    8.0125   -1.3685 H   0  0  0  0  0  0  0  0  0  0  0  0
   10.9302    8.1950   -6.4313 C   0  0  0  0  0  0  0  0  0  0  0  0
   11.4507    7.3563   -7.3949 C   0  0  0  0  0  0  0  0  0  0  0  0
   11.0670    7.4498   -8.7144 C   0  0  0  0  0  0  0  0  0  0  0  0
   10.1447    8.3850   -9.1392 C   0  0  0  0  0  0  0  0  0  0  0  0
    9.7597    8.4841  -10.4373 F   0  0  0  0  0  0  0  0  0  0  0  0
    9.6215    9.2264   -8.1779 C   0  0  0  0  0  0  0  0  0  0  0  0
   10.0066    9.1350   -6.8437 C   0  0  0  0  0  0  0  0  0  0  0  0
    9.5906    9.8023   -6.0828 H   0  0  0  0  0  0  0  0  0  0  0  0
   12.1800    6.6173   -7.0496 H   0  0  0  0  0  0  0  0  0  0  0  0
   11.4805    6.7870   -9.4687 H   0  0  0  0  0  0  0  0  0  0  0  0
    8.8911    9.9775   -8.4767 H   0  0  0  0  0  0  0  0  0  0  0  0
  1  6  2  0
  2  3  2  0
  2  1  1  0
  3  4  1  0
  4  5  2  0
  6  5  1  0
  1  7  1  0
  3  8  1  0
  5  9  1  0
 10 11  2  0
 11 12  1  0
 12 13  2  0
 13 14  1  0
 13 15  1  0
 15 16  2  0
 16 17  1  0
 16 10  1  0
 11 18  1  0
 12 19  1  0
 15 20  1  0
  2 10  1  0
M  END
>  <Score>  (1) 
-7.21318

$$$$

     RDKit          3D

 27 28  0  0  0  0  0  0  0  0999 V2000
   11.6902    9.2597   -4.3220 C   0  0  0  0  0  0  0  0  0  0  0  0
   11.3440    8.0862   -5.0353 C   0  0  0  0  0  0  0  0  0  0  0  0
   11.4158    6.8706   -4.3660 C   0  0  0  0  0  0  0  0  0  0  0  0
   11.8149    6.8678   -3.0597 N   0  0  0  0  0  0  0  0  0  0  0  0
   12.1402    8.0083   -2.4030 C   0  0  0  0  0  0  0  0  0  0  0  0
   12.0749    9.1955   -3.0410 N   0  0  0  0  0  0  0  0  0  0  0  0
   11.6293   10.1897   -4.8538 H   0  0  0  0  0  0  0  0  0  0  0  0
   11.1549    5.9701   -4.8975 H   0  0  0  0  0  0  0  0  0  0  0  0
   12.4414    7.8925   -1.3765 H   0  0  0  0  0  0  0  0  0  0  0  0
   10.9208    8.0828   -6.4180 C   0  0  1  0  0  0  0  0  0  0  0  0
   10.6294    6.8450   -6.9308 O   0  0  0  0  0  0  0  0  0  0  0  0
    9.7774    6.9798   -7.9951 C   0  0  2  0  0  0  0  0  0  0  0  0
   10.4154    6.4063   -9.2399 C   0  0  0  0  0  0  0  0  0  0  0  0
   10.6727    5.0594   -8.9950 O   0  0  0  0  0  0  0  0  0  0  0  0
    9.4522    8.4465   -8.1542 C   0  0  1  0  0  0  0  0  0  0  0  0
    8.1721    8.6882   -8.5622 O   0  0  0  0  0  0  0  0  0  0  0  0
    9.7155    8.9195   -6.7183 C   0  0  2  0  0  0  0  0  0  0  0  0
    9.9506   10.2711   -6.6817 O   0  0  0  0  0  0  0  0  0  0  0  0
   11.7641    8.5043   -7.0401 H   0  0  0  0  0  0  0  0  0  0  0  0
    8.8370    6.4626   -7.7577 H   0  0  0  0  0  0  0  0  0  0  0  0
   11.2987    6.9707   -9.5396 H   0  0  0  0  0  0  0  0  0  0  0  0
    9.6830    6.4343  -10.0783 H   0  0  0  0  0  0  0  0  0  0  0  0
   11.4730    4.9189   -8.4205 H   0  0  0  0  0  0  0  0  0  0  0  0
   10.1824    8.8961   -8.8223 H   0  0  0  0  0  0  0  0  0  0  0  0
    7.5337    8.7004   -7.8264 H   0  0  0  0  0  0  0  0  0  0  0  0
    8.8361    8.6214   -6.1068 H   0  0  0  0  0  0  0  0  0  0  0  0
    9.3948   10.7067   -7.4001 H   0  0  0  0  0  0  0  0  0  0  0  0
  1  6  2  0
  2  3  2  0
  2  1  1  0
  3  4  1  0
  4  5  2  0
  6  5  1  0
  1  7  1  0
  3  8  1  0
  5  9  1  0
 10 11  1  0
 11 12  1  0
 12 13  1  0
 13 14  1  0
 12 15  1  0
 15 16  1  0
 15 17  1  0
 17 18  1  0
 17 10  1  0
 10 19  1  6
 12 20  1  1
 13 21  1  0
 13 22  1  0
 14 23  1  0
 15 24  1  6
 16 25  1  0
 17 26  1  1
 18 27  1  0
  2 10  1  0
M  END
>  <Score>  (1) 
-7.20542

$$$$

     RDKit          3D

 27 28  0  0  0  0  0  0  0  0999 V2000
   11.6900    9.2587   -4.3224 C   0  0  0  0  0  0  0  0  0  0  0  0
   11.3434    8.0908   -5.0388 C   0  0  0  0  0  0  0  0  0  0  0  0
   11.4156    6.8655   -4.3647 C   0  0  0  0  0  0  0  0  0  0  0  0
   11.8159    6.8710   -3.0574 N   0  0  0  0  0  0  0  0  0  0  0  0
   12.1395    8.0063   -2.4048 C   0  0  0  0  0  0  0  0  0  0  0  0
   12.0756    9.1958   -3.0389 N   0  0  0  0  0  0  0  0  0  0  0  0
   11.6358   10.1941   -4.8342 H   0  0  0  0  0  0  0  0  0  0  0  0
   11.1621    5.9496   -4.8668 H   0  0  0  0  0  0  0  0  0  0  0  0
   12.4478    7.9218   -1.3660 H   0  0  0  0  0  0  0  0  0  0  0  0
   10.9259    8.1634   -6.4302 C   0  0  1  0  0  0  0  0  0  0  0  0
   12.0052    8.0557   -7.3375 O   0  0  0  0  0  0  0  0  0  0  0  0
   11.2875    8.1312   -8.5467 C   0  0  1  0  0  0  0  0  0  0  0  0
   12.2239    7.9599   -9.7027 C   0  0  0  0  0  0  0  0  0  0  0  0
   12.8721    6.7368   -9.6605 O   0  0  0  0  0  0  0  0  0  0  0  0
   10.2941    7.0333   -8.3867 C   0  0  1  0  0  0  0  0  0  0  0  0
   10.7616    5.7966   -8.8262 O   0  0  0  0  0  0  0  0  0  0  0  0
   10.0599    7.0135   -6.8796 C   0  0  2  0  0  0  0  0  0  0  0  0
    8.7418    7.2353   -6.5551 O   0  0  0  0  0  0  0  0  0  0  0  0
   10.4438    9.1167   -6.6452 H   0  0  0  0  0  0  0  0  0  0  0  0
   10.7798    9.0948   -8.5907 H   0  0  0  0  0  0  0  0  0  0  0  0
   11.7442    8.1743  -10.6551 H   0  0  0  0  0  0  0  0  0  0  0  0
   13.0317    8.7398   -9.5769 H   0  0  0  0  0  0  0  0  0  0  0  0
   12.5069    6.1262  -10.3615 H   0  0  0  0  0  0  0  0  0  0  0  0
    9.3176    7.2525   -8.8551 H   0  0  0  0  0  0  0  0  0  0  0  0
   11.3330    5.3601   -8.1503 H   0  0  0  0  0  0  0  0  0  0  0  0
   10.4255    6.0647   -6.4442 H   0  0  0  0  0  0  0  0  0  0  0  0
    8.5482    6.7862   -5.6748 H   0  0  0  0  0  0  0  0  0  0  0  0
  1  6  2  0
  2  3  2  0
  2  1  1  0
  3  4  1  0
  4  5  2  0
  6  5  1  0
  1  7  1  0
  3  8  1  0
  5  9  1  0
 10 11  1  0
 11 12  1  0
 12 13  1  0
 13 14  1  0
 12 15  1  0
 15 16  1  0
 15 17  1  0
 17 18  1  0
 17 10  1  0
 10 19  1  1
 12 20  1  6
 13 21  1  0
 13 22  1  0
 14 23  1  0
 15 24  1  6
 16 25  1  0
 17 26  1  1
 18 27  1  0
  2 10  1  0
M  END
>  <Score>  (1) 
-7.2045

$$$$

     RDKit          3D

 32 33  0  0  0  0  0  0  0  0999 V2000
   11.6877    9.2540   -4.3284 C   0  0  0  0  0  0  0  0  0  0  0  0
   11.3438    8.0964   -5.0397 C   0  0  0  0  0  0  0  0  0  0  0  0
   11.4171    6.8633   -4.3591 C   0  0  0  0  0  0  0  0  0  0  0  0
   11.8140    6.8705   -3.0634 N   0  0  0  0  0  0  0  0  0  0  0  0
   12.1402    8.0120   -2.4045 C   0  0  0  0  0  0  0  0  0  0  0  0
   12.0773    9.1918   -3.0319 N   0  0  0  0  0  0  0  0  0  0  0  0
   11.6385   10.2101   -4.8312 H   0  0  0  0  0  0  0  0  0  0  0  0
   11.1586    5.9407   -4.8750 H   0  0  0  0  0  0  0  0  0  0  0  0
   12.4407    7.8885   -1.3773 H   0  0  0  0  0  0  0  0  0  0  0  0
   10.9473    8.0808   -6.3311 O   0  0  0  0  0  0  0  0  0  0  0  0
   10.7788    9.0956   -7.2449 C   0  0  1  0  0  0  0  0  0  0  0  0
   11.6006    8.9990   -8.3681 O   0  0  0  0  0  0  0  0  0  0  0  0
   11.6855   10.2465   -8.9748 C   0  0  1  0  0  0  0  0  0  0  0  0
   12.5946   10.0962  -10.1778 C   0  0  0  0  0  0  0  0  0  0  0  0
   12.7473   11.2996  -10.8608 O   0  0  0  0  0  0  0  0  0  0  0  0
   10.3466   10.7602   -9.4365 C   0  0  2  0  0  0  0  0  0  0  0  0
   10.4797   12.1257   -9.7031 O   0  0  0  0  0  0  0  0  0  0  0  0
    9.2761   10.6170   -8.3831 C   0  0  1  0  0  0  0  0  0  0  0  0
    8.0501   10.8789   -8.9411 O   0  0  0  0  0  0  0  0  0  0  0  0
    9.3636    9.2381   -7.7615 C   0  0  2  0  0  0  0  0  0  0  0  0
    8.4246    9.1065   -6.7434 O   0  0  0  0  0  0  0  0  0  0  0  0
   11.0314   10.0634   -6.7647 H   0  0  0  0  0  0  0  0  0  0  0  0
   12.1012   10.9937   -8.2724 H   0  0  0  0  0  0  0  0  0  0  0  0
   13.5708    9.7233   -9.7890 H   0  0  0  0  0  0  0  0  0  0  0  0
   12.1607    9.3157  -10.8360 H   0  0  0  0  0  0  0  0  0  0  0  0
   12.8764   11.9982  -10.1781 H   0  0  0  0  0  0  0  0  0  0  0  0
   10.0033   10.2767  -10.3634 H   0  0  0  0  0  0  0  0  0  0  0  0
    9.6662   12.6264   -9.4549 H   0  0  0  0  0  0  0  0  0  0  0  0
    9.4946   11.3570   -7.5878 H   0  0  0  0  0  0  0  0  0  0  0  0
    7.8506   11.8504   -8.9392 H   0  0  0  0  0  0  0  0  0  0  0  0
    9.1560    8.5011   -8.5656 H   0  0  0  0  0  0  0  0  0  0  0  0
    7.5351    9.0815   -7.1794 H   0  0  0  0  0  0  0  0  0  0  0  0
  1  6  2  0
  2  3  2  0
  2  1  1  0
  3  4  1  0
  4  5  2  0
  6  5  1  0
  1  7  1  0
  3  8  1  0
  5  9  1  0
 10 11  1  0
 11 12  1  0
 12 13  1  0
 13 14  1  0
 14 15  1  0
 13 16  1  0
 16 17  1  0
 16 18  1  0
 18 19  1  0
 18 20  1  0
 20 21  1  0
 20 11  1  0
 11 22  1  1
 13 23  1  1
 14 24  1  0
 14 25  1  0
 15 26  1  0
 16 27  1  6
 17 28  1  0
 18 29  1  1
 19 30  1  0
 20 31  1  6
 21 32  1  0
  2 10  1  0
M  END
>  <Score>  (1) 
-7.19907

$$$$

     RDKit          3D

 25 26  0  0  0  0  0  0  0  0999 V2000
   11.6897    9.2557   -4.3224 C   0  0  0  0  0  0  0  0  0  0  0  0
   11.3428    8.0903   -5.0406 C   0  0  0  0  0  0  0  0  0  0  0  0
   11.4171    6.8692   -4.3611 C   0  0  0  0  0  0  0  0  0  0  0  0
   11.8143    6.8677   -3.0616 N   0  0  0  0  0  0  0  0  0  0  0  0
   12.1402    8.0100   -2.4038 C   0  0  0  0  0  0  0  0  0  0  0  0
   12.0759    9.1951   -3.0375 N   0  0  0  0  0  0  0  0  0  0  0  0
   11.6514   10.2231   -4.7932 H   0  0  0  0  0  0  0  0  0  0  0  0
   11.1629    5.9627   -4.8688 H   0  0  0  0  0  0  0  0  0  0  0  0
   12.4466    7.9323   -1.3737 H   0  0  0  0  0  0  0  0  0  0  0  0
   10.9334    8.1727   -6.4092 N   0  0  0  0  0  0  0  0  0  0  0  0
   11.5037    7.2178   -7.3132 C   0  0  0  0  0  0  0  0  0  0  0  0
   11.0759    7.3161   -8.7028 C   0  0  0  0  0  0  0  0  0  0  0  0
   11.6286    6.3888   -9.5857 C   0  0  0  0  0  0  0  0  0  0  0  0
   11.2996    6.3860  -10.9174 C   0  0  0  0  0  0  0  0  0  0  0  0
   10.4188    7.2839  -11.4505 C   0  0  0  0  0  0  0  0  0  0  0  0
   10.0406    7.2292  -13.1540 Cl  0  0  0  0  0  0  0  0  0  0  0  0
    9.8596    8.2124  -10.5902 C   0  0  0  0  0  0  0  0  0  0  0  0
   10.1926    8.2162   -9.2397 C   0  0  0  0  0  0  0  0  0  0  0  0
   10.2549    8.9180   -6.6409 H   0  0  0  0  0  0  0  0  0  0  0  0
   11.1774    6.2020   -6.9391 H   0  0  0  0  0  0  0  0  0  0  0  0
   12.6122    7.1996   -7.2052 H   0  0  0  0  0  0  0  0  0  0  0  0
   12.3395    5.6393   -9.2379 H   0  0  0  0  0  0  0  0  0  0  0  0
   11.7556    5.6446  -11.5664 H   0  0  0  0  0  0  0  0  0  0  0  0
    9.1686    8.9175  -11.0071 H   0  0  0  0  0  0  0  0  0  0  0  0
    9.7506    8.9404   -8.5919 H   0  0  0  0  0  0  0  0  0  0  0  0
  1  6  2  0
  2  3  2  0
  2  1  1  0
  3  4  1  0
  4  5  2  0
  6  5  1  0
  1  7  1  0
  3  8  1  0
  5  9  1  0
 10 11  1  0
 11 12  1  0
 12 13  2  0
 13 14  1  0
 14 15  2  0
 15 16  1  0
 15 17  1  0
 17 18  2  0
 18 12  1  0
 10 19  1  0
 11 20  1  0
 11 21  1  0
 13 22  1  0
 14 23  1  0
 17 24  1  0
 18 25  1  0
  2 10  1  0
M  END
>  <Score>  (1) 
-7.19334

$$$$

     RDKit          3D

 23 25  0  0  0  0  0  0  0  0999 V2000
   11.6902    9.2496   -4.3186 C   0  0  0  0  0  0  0  0  0  0  0  0
   11.3433    8.0869   -5.0379 C   0  0  0  0  0  0  0  0  0  0  0  0
   11.4127    6.8704   -4.3760 C   0  0  0  0  0  0  0  0  0  0  0  0
   11.8185    6.8797   -3.0521 N   0  0  0  0  0  0  0  0  0  0  0  0
   12.1394    8.0101   -2.4065 C   0  0  0  0  0  0  0  0  0  0  0  0
   12.0760    9.1914   -3.0359 N   0  0  0  0  0  0  0  0  0  0  0  0
   11.6402   10.1890   -4.8176 H   0  0  0  0  0  0  0  0  0  0  0  0
   11.1683    5.9507   -4.8468 H   0  0  0  0  0  0  0  0  0  0  0  0
   12.4523    7.9776   -1.3714 H   0  0  0  0  0  0  0  0  0  0  0  0
   10.9541    8.2182   -6.3578 N   0  0  0  0  0  0  0  0  0  0  0  0
   10.8454    9.3970   -7.1351 C   0  0  0  0  0  0  0  0  0  0  0  0
   11.1127   10.6380   -6.7048 N   0  0  0  0  0  0  0  0  0  0  0  0
   11.0029   11.7419   -7.4586 C   0  0  0  0  0  0  0  0  0  0  0  0
   10.5977   11.6463   -8.7494 N   0  0  0  0  0  0  0  0  0  0  0  0
   10.3042   10.4382   -9.2771 C   0  0  0  0  0  0  0  0  0  0  0  0
   10.4296    9.3339   -8.4721 C   0  0  0  0  0  0  0  0  0  0  0  0
   10.0819    8.2825   -9.2330 N   0  0  0  0  0  0  0  0  0  0  0  0
    9.7564    8.7285  -10.4569 C   0  0  0  0  0  0  0  0  0  0  0  0
    9.8864   10.0657  -10.5106 N   0  0  0  0  0  0  0  0  0  0  0  0
    9.7160   10.7278  -11.3045 H   0  0  0  0  0  0  0  0  0  0  0  0
   10.6932    7.3262   -6.8921 H   0  0  0  0  0  0  0  0  0  0  0  0
   11.2203   12.7397   -7.1046 H   0  0  0  0  0  0  0  0  0  0  0  0
    9.4331    8.1345  -11.3020 H   0  0  0  0  0  0  0  0  0  0  0  0
  1  6  2  0
  2  3  2  0
  2  1  1  0
  3  4  1  0
  4  5  2  0
  6  5  1  0
  1  7  1  0
  3  8  1  0
  5  9  1  0
 10 11  1  0
 11 12  2  0
 12 13  1  0
 13 14  2  0
 14 15  1  0
 15 16  2  0
 16 17  1  0
 17 18  2  0
 18 19  1  0
 19 20  1  0
 16 11  1  0
 19 15  1  0
 10 21  1  0
 13 22  1  0
 18 23  1  0
  2 10  1  0
M  END
>  <Score>  (1) 
-7.1932

$$$$

     RDKit          3D

 25 26  0  0  0  0  0  0  0  0999 V2000
   11.6892    9.2573   -4.3246 C   0  0  0  0  0  0  0  0  0  0  0  0
   11.3438    8.0930   -5.0384 C   0  0  0  0  0  0  0  0  0  0  0  0
   11.4158    6.8646   -4.3637 C   0  0  0  0  0  0  0  0  0  0  0  0
   11.8155    6.8702   -3.0583 N   0  0  0  0  0  0  0  0  0  0  0  0
   12.1396    8.0082   -2.4049 C   0  0  0  0  0  0  0  0  0  0  0  0
   12.0760    9.1947   -3.0370 N   0  0  0  0  0  0  0  0  0  0  0  0
   11.6412   10.1998   -4.8184 H   0  0  0  0  0  0  0  0  0  0  0  0
   11.1589    5.9488   -4.8768 H   0  0  0  0  0  0  0  0  0  0  0  0
   12.4512    7.9695   -1.3718 H   0  0  0  0  0  0  0  0  0  0  0  0
   11.0188    8.8074  -10.1983 H   0  0  0  0  0  0  0  0  0  0  0  0
   11.3067    8.9339   -9.1577 C   0  0  0  0  0  0  0  0  0  0  0  0
   12.4723    8.7481   -8.8570 O   0  0  0  0  0  0  0  0  0  0  0  0
   10.2934    9.3255   -8.1294 C   0  0  2  0  0  0  0  0  0  0  0  0
   10.9215    9.4167   -6.8932 O   0  0  0  0  0  0  0  0  0  0  0  0
   10.9192    8.1014   -6.4300 C   0  0  2  0  0  0  0  0  0  0  0  0
    9.4738    7.7122   -6.6284 C   0  0  2  0  0  0  0  0  0  0  0  0
    9.2696    6.3570   -6.6824 O   0  0  0  0  0  0  0  0  0  0  0  0
    9.2117    8.2991   -8.0225 C   0  0  2  0  0  0  0  0  0  0  0  0
    9.4513    7.2710   -8.9460 O   0  0  0  0  0  0  0  0  0  0  0  0
    9.8731   10.3182   -8.3935 H   0  0  0  0  0  0  0  0  0  0  0  0
   11.5852    7.5154   -7.0807 H   0  0  0  0  0  0  0  0  0  0  0  0
    8.8482    8.2144   -5.8826 H   0  0  0  0  0  0  0  0  0  0  0  0
   10.0670    5.8170   -6.4954 H   0  0  0  0  0  0  0  0  0  0  0  0
    8.1902    8.7009   -8.0899 H   0  0  0  0  0  0  0  0  0  0  0  0
    8.5919    7.0233   -9.3951 H   0  0  0  0  0  0  0  0  0  0  0  0
  1  6  2  0
  2  3  2  0
  2  1  1  0
  3  4  1  0
  4  5  2  0
  6  5  1  0
  1  7  1  0
  3  8  1  0
  5  9  1  0
 10 11  1  0
 11 12  2  0
 11 13  1  0
 13 14  1  0
 14 15  1  0
 15 16  1  0
 16 17  1  0
 16 18  1  0
 18 19  1  0
 18 13  1  0
 13 20  1  6
 15 21  1  6
 16 22  1  1
 17 23  1  0
 18 24  1  1
 19 25  1  0
  2 15  1  0
M  END
>  <Score>  (1) 
-7.19138

$$$$

     RDKit          3D

 25 26  0  0  0  0  0  0  0  0999 V2000
   12.3012    8.1235   -2.3051 C   0  0  0  0  0  0  0  0  0  0  0  0
   12.0212    6.8841   -2.9136 C   0  0  0  0  0  0  0  0  0  0  0  0
   11.5244    6.9015   -4.2252 C   0  0  0  0  0  0  0  0  0  0  0  0
   11.3479    8.1134   -4.8175 N   0  0  0  0  0  0  0  0  0  0  0  0
   11.6199    9.2743   -4.2217 C   0  0  0  0  0  0  0  0  0  0  0  0
   12.1004    9.2742   -2.9549 N   0  0  0  0  0  0  0  0  0  0  0  0
   12.6874    8.0833   -1.2828 H   0  0  0  0  0  0  0  0  0  0  0  0
   12.1756    5.9577   -2.4098 H   0  0  0  0  0  0  0  0  0  0  0  0
   11.3087    5.9632   -4.6959 H   0  0  0  0  0  0  0  0  0  0  0  0
   11.4190   10.5001   -4.8796 N   0  0  0  0  0  0  0  0  0  0  0  0
   11.2137   10.7162   -6.2591 C   0  0  0  0  0  0  0  0  0  0  0  0
   11.1704    9.7639   -7.2384 C   0  0  0  0  0  0  0  0  0  0  0  0
   10.9628   10.0509   -8.5887 C   0  0  0  0  0  0  0  0  0  0  0  0
   10.9370    9.2628   -9.3246 H   0  0  0  0  0  0  0  0  0  0  0  0
   10.7887   11.3546   -8.9874 C   0  0  0  0  0  0  0  0  0  0  0  0
   10.8266   12.3321   -8.0305 C   0  0  0  0  0  0  0  0  0  0  0  0
   11.0324   12.0362   -6.7001 C   0  0  0  0  0  0  0  0  0  0  0  0
   11.0631   13.1307   -5.7166 C   0  0  0  0  0  0  0  0  0  0  0  0
   11.4274   11.3624   -4.2312 H   0  0  0  0  0  0  0  0  0  0  0  0
   11.2962    8.7468   -7.0017 H   0  0  0  0  0  0  0  0  0  0  0  0
   10.6264   11.5713  -10.0488 H   0  0  0  0  0  0  0  0  0  0  0  0
   10.6859   13.3640   -8.3687 H   0  0  0  0  0  0  0  0  0  0  0  0
   10.8053   14.0759   -6.2032 H   0  0  0  0  0  0  0  0  0  0  0  0
   12.0649   13.1432   -5.2285 H   0  0  0  0  0  0  0  0  0  0  0  0
   10.3264   12.9379   -4.9110 H   0  0  0  0  0  0  0  0  0  0  0  0
  2  1  2  0
  3  2  1  0
  4  3  2  0
  4  5  1  0
  5  6  2  0
  6  1  1  0
  1  7  1  0
  2  8  1  0
  3  9  1  0
 10 11  1  0
 11 12  2  0
 12 13  1  0
 13 14  1  0
 13 15  2  0
 15 16  1  0
 16 17  2  0
 17 18  1  0
 17 11  1  0
 10 19  1  0
 12 20  1  0
 15 21  1  0
 16 22  1  0
 18 23  1  0
 18 24  1  0
 18 25  1  0
  5 10  1  0
M  END
>  <Score>  (1) 
-7.48523

$$$$

     RDKit          3D

 32 33  0  0  0  0  0  0  0  0999 V2000
   11.6886    9.2562   -4.3261 C   0  0  0  0  0  0  0  0  0  0  0  0
   11.3444    8.0904   -5.0354 C   0  0  0  0  0  0  0  0  0  0  0  0
   11.4149    6.8689   -4.3684 C   0  0  0  0  0  0  0  0  0  0  0  0
   11.8165    6.8703   -3.0554 N   0  0  0  0  0  0  0  0  0  0  0  0
   12.1396    8.0072   -2.4048 C   0  0  0  0  0  0  0  0  0  0  0  0
   12.0761    9.1950   -3.0370 N   0  0  0  0  0  0  0  0  0  0  0  0
   11.6507   10.2141   -4.7924 H   0  0  0  0  0  0  0  0  0  0  0  0
   11.1598    5.9732   -4.8825 H   0  0  0  0  0  0  0  0  0  0  0  0
   12.4511    7.9598   -1.3688 H   0  0  0  0  0  0  0  0  0  0  0  0
   10.9627    8.2344   -6.3355 O   0  0  0  0  0  0  0  0  0  0  0  0
    9.9220    7.6841   -7.0353 C   0  0  2  0  0  0  0  0  0  0  0  0
   10.2926    6.8995   -8.1236 O   0  0  0  0  0  0  0  0  0  0  0  0
    9.2318    6.0292   -8.3701 C   0  0  2  0  0  0  0  0  0  0  0  0
    9.6017    4.9561   -9.3616 C   0  0  0  0  0  0  0  0  0  0  0  0
    8.4943    4.1326   -9.5522 O   0  0  0  0  0  0  0  0  0  0  0  0
    7.9777    6.7360   -8.7933 C   0  0  2  0  0  0  0  0  0  0  0  0
    7.9681    7.0660  -10.1416 O   0  0  0  0  0  0  0  0  0  0  0  0
    7.6709    7.8994   -7.9077 C   0  0  1  0  0  0  0  0  0  0  0  0
    7.1790    7.4136   -6.6792 O   0  0  0  0  0  0  0  0  0  0  0  0
    8.9215    8.7043   -7.5676 C   0  0  2  0  0  0  0  0  0  0  0  0
    9.3669    9.2567   -8.7689 O   0  0  0  0  0  0  0  0  0  0  0  0
    9.3398    7.0222   -6.3592 H   0  0  0  0  0  0  0  0  0  0  0  0
    9.0129    5.5226   -7.3999 H   0  0  0  0  0  0  0  0  0  0  0  0
    9.8655    5.3776  -10.3513 H   0  0  0  0  0  0  0  0  0  0  0  0
   10.4220    4.3273   -8.9878 H   0  0  0  0  0  0  0  0  0  0  0  0
    8.4276    3.8561  -10.5170 H   0  0  0  0  0  0  0  0  0  0  0  0
    7.1367    5.9933   -8.6568 H   0  0  0  0  0  0  0  0  0  0  0  0
    7.3338    7.8286  -10.2402 H   0  0  0  0  0  0  0  0  0  0  0  0
    6.8834    8.5338   -8.3412 H   0  0  0  0  0  0  0  0  0  0  0  0
    7.3681    6.4454   -6.5786 H   0  0  0  0  0  0  0  0  0  0  0  0
    8.6868    9.4393   -6.8021 H   0  0  0  0  0  0  0  0  0  0  0  0
    9.5893   10.2199   -8.6846 H   0  0  0  0  0  0  0  0  0  0  0  0
  1  6  2  0
  2  3  2  0
  2  1  1  0
  3  4  1  0
  4  5  2  0
  6  5  1  0
  1  7  1  0
  3  8  1  0
  5  9  1  0
 10 11  1  0
 11 12  1  0
 12 13  1  0
 13 14  1  0
 14 15  1  0
 13 16  1  0
 16 17  1  0
 16 18  1  0
 18 19  1  0
 18 20  1  0
 20 21  1  0
 20 11  1  0
 11 22  1  1
 13 23  1  1
 14 24  1  0
 14 25  1  0
 15 26  1  0
 16 27  1  6
 17 28  1  0
 18 29  1  6
 19 30  1  0
 20 31  1  1
 21 32  1  0
  2 10  1  0
M  END
>  <Score>  (1) 
-7.18494

$$$$

     RDKit          3D

 31 32  0  0  0  0  0  0  0  0999 V2000
   11.6895    9.2583   -4.3239 C   0  0  0  0  0  0  0  0  0  0  0  0
   11.3436    8.0914   -5.0386 C   0  0  0  0  0  0  0  0  0  0  0  0
   11.4158    6.8654   -4.3642 C   0  0  0  0  0  0  0  0  0  0  0  0
   11.8157    6.8703   -3.0579 N   0  0  0  0  0  0  0  0  0  0  0  0
   12.1395    8.0079   -2.4054 C   0  0  0  0  0  0  0  0  0  0  0  0
   12.0760    9.1946   -3.0371 N   0  0  0  0  0  0  0  0  0  0  0  0
   11.6192   10.1747   -4.8815 H   0  0  0  0  0  0  0  0  0  0  0  0
   11.1588    5.9631   -4.8821 H   0  0  0  0  0  0  0  0  0  0  0  0
   12.4565    8.0188   -1.3721 H   0  0  0  0  0  0  0  0  0  0  0  0
   10.9239    8.1561   -6.4343 C   0  0  1  0  0  0  0  0  0  0  0  0
    9.6392    8.6318   -6.6226 O   0  0  0  0  0  0  0  0  0  0  0  0
    9.1522    8.3721   -7.8710 C   0  0  2  0  0  0  0  0  0  0  0  0
    8.5692    6.9522   -7.8453 C   0  0  0  0  0  0  0  0  0  0  0  0
    8.0615    6.6602   -9.1173 O   0  0  0  0  0  0  0  0  0  0  0  0
   10.0633    8.5783   -9.0054 C   0  0  2  0  0  0  0  0  0  0  0  0
    9.9434    7.4561   -9.8606 O   0  0  0  0  0  0  0  0  0  0  0  0
   11.5037    8.7521   -8.7031 C   0  0  1  0  0  0  0  0  0  0  0  0
   12.0971    9.7653   -9.4900 O   0  0  0  0  0  0  0  0  0  0  0  0
   11.8115    9.0830   -7.2737 C   0  0  1  0  0  0  0  0  0  0  0  0
   11.4905   10.4033   -7.0386 O   0  0  0  0  0  0  0  0  0  0  0  0
   11.0022    7.1574   -6.9007 H   0  0  0  0  0  0  0  0  0  0  0  0
    8.2495    9.0358   -8.0185 H   0  0  0  0  0  0  0  0  0  0  0  0
    7.7303    6.9373   -7.1216 H   0  0  0  0  0  0  0  0  0  0  0  0
    9.3162    6.2073   -7.5458 H   0  0  0  0  0  0  0  0  0  0  0  0
    7.0677    6.7575   -9.1294 H   0  0  0  0  0  0  0  0  0  0  0  0
    9.7470    9.4468   -9.6553 H   0  0  0  0  0  0  0  0  0  0  0  0
   10.3997    6.7176   -9.3434 H   0  0  0  0  0  0  0  0  0  0  0  0
   12.1004    7.8249   -8.9492 H   0  0  0  0  0  0  0  0  0  0  0  0
   11.4600   10.5158   -9.6330 H   0  0  0  0  0  0  0  0  0  0  0  0
   12.8744    8.9239   -7.0756 H   0  0  0  0  0  0  0  0  0  0  0  0
   12.0929   10.9667   -7.5644 H   0  0  0  0  0  0  0  0  0  0  0  0
  1  6  2  0
  2  3  2  0
  2  1  1  0
  3  4  1  0
  4  5  2  0
  6  5  1  0
  1  7  1  0
  3  8  1  0
  5  9  1  0
 10 11  1  0
 11 12  1  0
 12 13  1  0
 13 14  1  0
 12 15  1  0
 15 16  1  0
 15 17  1  0
 17 18  1  0
 17 19  1  0
 19 20  1  0
 19 10  1  0
 10 21  1  6
 12 22  1  6
 13 23  1  0
 13 24  1  0
 14 25  1  0
 15 26  1  6
 16 27  1  0
 17 28  1  6
 18 29  1  0
 19 30  1  1
 20 31  1  0
  2 10  1  0
M  END
>  <Score>  (1) 
-7.17977

$$$$

     RDKit          3D

 21 22  0  0  0  0  0  0  0  0999 V2000
   11.6898    9.2569   -4.3224 C   0  0  0  0  0  0  0  0  0  0  0  0
   11.3430    8.0923   -5.0407 C   0  0  0  0  0  0  0  0  0  0  0  0
   11.4166    6.8658   -4.3616 C   0  0  0  0  0  0  0  0  0  0  0  0
   11.8149    6.8694   -3.0600 N   0  0  0  0  0  0  0  0  0  0  0  0
   12.1399    8.0089   -2.4043 C   0  0  0  0  0  0  0  0  0  0  0  0
   12.0757    9.1947   -3.0379 N   0  0  0  0  0  0  0  0  0  0  0  0
   11.6358   10.2127   -4.8406 H   0  0  0  0  0  0  0  0  0  0  0  0
   11.1570    5.9833   -4.8955 H   0  0  0  0  0  0  0  0  0  0  0  0
   12.4426    7.8926   -1.3726 H   0  0  0  0  0  0  0  0  0  0  0  0
   10.9485    8.1505   -6.3519 O   0  0  0  0  0  0  0  0  0  0  0  0
   11.3591    9.0892   -7.2683 C   0  0  0  0  0  0  0  0  0  0  0  0
   12.2417   10.0890   -6.9145 C   0  0  0  0  0  0  0  0  0  0  0  0
   12.6718   11.0502   -7.8242 C   0  0  0  0  0  0  0  0  0  0  0  0
   12.1985   10.9986   -9.1198 C   0  0  0  0  0  0  0  0  0  0  0  0
   12.5962   11.9152  -10.0243 F   0  0  0  0  0  0  0  0  0  0  0  0
   11.3161   10.0010   -9.4781 C   0  0  0  0  0  0  0  0  0  0  0  0
   10.8844    9.0348   -8.5620 C   0  0  0  0  0  0  0  0  0  0  0  0
   10.0133    8.0603   -8.9388 F   0  0  0  0  0  0  0  0  0  0  0  0
   12.5893   10.0934   -5.8867 H   0  0  0  0  0  0  0  0  0  0  0  0
   13.3688   11.8101   -7.4773 H   0  0  0  0  0  0  0  0  0  0  0  0
   10.9106    9.9124  -10.4866 H   0  0  0  0  0  0  0  0  0  0  0  0
  1  6  2  0
  2  3  2  0
  2  1  1  0
  3  4  1  0
  4  5  2  0
  6  5  1  0
  1  7  1  0
  3  8  1  0
  5  9  1  0
 10 11  1  0
 11 12  2  0
 12 13  1  0
 13 14  2  0
 14 15  1  0
 14 16  1  0
 16 17  2  0
 17 18  1  0
 17 11  1  0
 12 19  1  0
 13 20  1  0
 16 21  1  0
  2 10  1  0
M  END
>  <Score>  (1) 
-7.17833

$$$$

     RDKit          3D

 28 29  0  0  0  0  0  0  0  0999 V2000
   11.6913    9.2583   -4.3184 C   0  0  0  0  0  0  0  0  0  0  0  0
   11.3422    8.0829   -5.0388 C   0  0  0  0  0  0  0  0  0  0  0  0
   11.4143    6.8702   -4.3716 C   0  0  0  0  0  0  0  0  0  0  0  0
   11.8174    6.8751   -3.0536 N   0  0  0  0  0  0  0  0  0  0  0  0
   12.1387    8.0069   -2.4071 C   0  0  0  0  0  0  0  0  0  0  0  0
   12.0760    9.1948   -3.0374 N   0  0  0  0  0  0  0  0  0  0  0  0
   11.6373   10.2089   -4.8356 H   0  0  0  0  0  0  0  0  0  0  0  0
   11.1836    5.9548   -4.8592 H   0  0  0  0  0  0  0  0  0  0  0  0
   12.4459    7.9298   -1.3735 H   0  0  0  0  0  0  0  0  0  0  0  0
   10.9749    8.2335   -6.3979 N   0  0  0  0  0  0  0  0  0  0  0  0
    9.7896    7.7656   -7.0068 C   0  0  0  0  0  0  0  0  0  0  0  0
    8.6046    7.5052   -6.3600 C   0  0  0  0  0  0  0  0  0  0  0  0
    7.4728    7.0172   -7.0092 C   0  0  0  0  0  0  0  0  0  0  0  0
    6.2102    6.7544   -6.2359 C   0  0  0  0  0  0  0  0  0  0  0  0
    7.5234    6.7788   -8.3642 C   0  0  0  0  0  0  0  0  0  0  0  0
    8.6967    7.0314   -9.0380 C   0  0  0  0  0  0  0  0  0  0  0  0
    8.8130    6.7946  -10.4997 C   0  0  0  0  0  0  0  0  0  0  0  0
    9.8035    7.5120   -8.3820 C   0  0  0  0  0  0  0  0  0  0  0  0
   11.6561    8.7550   -7.0437 H   0  0  0  0  0  0  0  0  0  0  0  0
    8.5306    7.7033   -5.2961 H   0  0  0  0  0  0  0  0  0  0  0  0
    6.3556    5.8160   -5.6905 H   0  0  0  0  0  0  0  0  0  0  0  0
    6.0039    7.6178   -5.5868 H   0  0  0  0  0  0  0  0  0  0  0  0
    5.3886    6.6404   -6.9529 H   0  0  0  0  0  0  0  0  0  0  0  0
    6.6539    6.3958   -8.9058 H   0  0  0  0  0  0  0  0  0  0  0  0
    9.1771    7.7167  -11.0101 H   0  0  0  0  0  0  0  0  0  0  0  0
    7.8465    6.4860  -10.9469 H   0  0  0  0  0  0  0  0  0  0  0  0
    9.5326    5.9852  -10.7316 H   0  0  0  0  0  0  0  0  0  0  0  0
   10.7246    7.7088   -8.9181 H   0  0  0  0  0  0  0  0  0  0  0  0
  1  6  2  0
  2  3  2  0
  2  1  1  0
  3  4  1  0
  4  5  2  0
  6  5  1  0
  1  7  1  0
  3  8  1  0
  5  9  1  0
 10 11  1  0
 11 12  2  0
 12 13  1  0
 13 14  1  0
 13 15  2  0
 15 16  1  0
 16 17  1  0
 16 18  2  0
 18 11  1  0
 10 19  1  0
 12 20  1  0
 14 21  1  0
 14 22  1  0
 14 23  1  0
 15 24  1  0
 17 25  1  0
 17 26  1  0
 17 27  1  0
 18 28  1  0
  2 10  1  0
M  END
>  <Score>  (1) 
-7.17689

$$$$

     RDKit          3D

 31 32  0  0  0  0  0  0  0  0999 V2000
   11.6892    9.2585   -4.3250 C   0  0  0  0  0  0  0  0  0  0  0  0
   11.3438    8.0886   -5.0369 C   0  0  0  0  0  0  0  0  0  0  0  0
   11.4156    6.8682   -4.3657 C   0  0  0  0  0  0  0  0  0  0  0  0
   11.8153    6.8690   -3.0588 N   0  0  0  0  0  0  0  0  0  0  0  0
   12.1399    8.0094   -2.4046 C   0  0  0  0  0  0  0  0  0  0  0  0
   12.0763    9.1943   -3.0361 N   0  0  0  0  0  0  0  0  0  0  0  0
   11.6241   10.1724   -4.8646 H   0  0  0  0  0  0  0  0  0  0  0  0
   11.1603    5.9514   -4.8731 H   0  0  0  0  0  0  0  0  0  0  0  0
   12.4437    7.9183   -1.3782 H   0  0  0  0  0  0  0  0  0  0  0  0
   10.9281    8.1785   -6.4285 C   0  0  1  0  0  0  0  0  0  0  0  0
    9.7870    7.3926   -6.7082 O   0  0  0  0  0  0  0  0  0  0  0  0
    9.9539    7.0061   -8.0416 C   0  0  1  0  0  0  0  0  0  0  0  0
    8.7381    6.2371   -8.5479 C   0  0  0  0  0  0  0  0  0  0  0  0
    9.0023    5.9019   -9.8704 O   0  0  0  0  0  0  0  0  0  0  0  0
   10.3717    8.1053   -8.9423 C   0  0  1  0  0  0  0  0  0  0  0  0
    9.4813    8.1099  -10.0439 O   0  0  0  0  0  0  0  0  0  0  0  0
   10.3997    9.4723   -8.3879 C   0  0  1  0  0  0  0  0  0  0  0  0
    9.2795   10.2335   -8.7978 O   0  0  0  0  0  0  0  0  0  0  0  0
   10.5651    9.5537   -6.8924 C   0  0  2  0  0  0  0  0  0  0  0  0
   11.5020   10.5080   -6.5044 O   0  0  0  0  0  0  0  0  0  0  0  0
   11.7965    7.8431   -7.0689 H   0  0  0  0  0  0  0  0  0  0  0  0
   10.7689    6.2219   -7.9962 H   0  0  0  0  0  0  0  0  0  0  0  0
    7.8014    6.7995   -8.4169 H   0  0  0  0  0  0  0  0  0  0  0  0
    8.7139    5.2767   -7.9570 H   0  0  0  0  0  0  0  0  0  0  0  0
    8.8641    4.9511  -10.0296 H   0  0  0  0  0  0  0  0  0  0  0  0
   11.3741    7.8723   -9.4081 H   0  0  0  0  0  0  0  0  0  0  0  0
    9.8855    8.7283  -10.7141 H   0  0  0  0  0  0  0  0  0  0  0  0
   11.2781   10.0447   -8.8127 H   0  0  0  0  0  0  0  0  0  0  0  0
    8.4562    9.9361   -8.3777 H   0  0  0  0  0  0  0  0  0  0  0  0
    9.5758    9.8595   -6.4748 H   0  0  0  0  0  0  0  0  0  0  0  0
   12.1892   10.5332   -7.2094 H   0  0  0  0  0  0  0  0  0  0  0  0
  1  6  2  0
  2  3  2  0
  2  1  1  0
  3  4  1  0
  4  5  2  0
  6  5  1  0
  1  7  1  0
  3  8  1  0
  5  9  1  0
 10 11  1  0
 11 12  1  0
 12 13  1  0
 13 14  1  0
 12 15  1  0
 15 16  1  0
 15 17  1  0
 17 18  1  0
 17 19  1  0
 19 20  1  0
 19 10  1  0
 10 21  1  6
 12 22  1  1
 13 23  1  0
 13 24  1  0
 14 25  1  0
 15 26  1  6
 16 27  1  0
 17 28  1  6
 18 29  1  0
 19 30  1  1
 20 31  1  0
  2 10  1  0
M  END
>  <Score>  (1) 
-7.17655

$$$$

     RDKit          3D

 25 26  0  0  0  0  0  0  0  0999 V2000
   11.6885    9.2565   -4.3265 C   0  0  0  0  0  0  0  0  0  0  0  0
   11.3436    8.0899   -5.0377 C   0  0  0  0  0  0  0  0  0  0  0  0
   11.4154    6.8690   -4.3666 C   0  0  0  0  0  0  0  0  0  0  0  0
   11.8162    6.8717   -3.0568 N   0  0  0  0  0  0  0  0  0  0  0  0
   12.1397    8.0095   -2.4052 C   0  0  0  0  0  0  0  0  0  0  0  0
   12.0765    9.1914   -3.0343 N   0  0  0  0  0  0  0  0  0  0  0  0
   11.6319   10.1914   -4.8457 H   0  0  0  0  0  0  0  0  0  0  0  0
   11.1606    5.9603   -4.8754 H   0  0  0  0  0  0  0  0  0  0  0  0
   12.4567    7.9973   -1.3638 H   0  0  0  0  0  0  0  0  0  0  0  0
   10.9344    8.1593   -6.4011 N   0  0  0  0  0  0  0  0  0  0  0  0
   11.2074    7.0588   -7.2525 C   0  0  0  0  0  0  0  0  0  0  0  0
   10.7579    7.1733   -8.6358 C   0  0  0  0  0  0  0  0  0  0  0  0
    9.9590    8.1654   -9.1522 C   0  0  0  0  0  0  0  0  0  0  0  0
    9.5937    8.1716  -10.5064 C   0  0  0  0  0  0  0  0  0  0  0  0
   10.0190    7.1873  -11.3710 C   0  0  0  0  0  0  0  0  0  0  0  0
    9.6408    7.2353  -12.6692 F   0  0  0  0  0  0  0  0  0  0  0  0
   10.8191    6.1910  -10.8602 C   0  0  0  0  0  0  0  0  0  0  0  0
   11.1781    6.1832   -9.5340 C   0  0  0  0  0  0  0  0  0  0  0  0
   10.4534    9.0215   -6.7072 H   0  0  0  0  0  0  0  0  0  0  0  0
   12.3107    6.8280   -7.2385 H   0  0  0  0  0  0  0  0  0  0  0  0
   10.7552    6.1157   -6.8339 H   0  0  0  0  0  0  0  0  0  0  0  0
    9.6138    8.9404   -8.5010 H   0  0  0  0  0  0  0  0  0  0  0  0
    8.9574    8.9813  -10.8694 H   0  0  0  0  0  0  0  0  0  0  0  0
   11.1582    5.4120  -11.5347 H   0  0  0  0  0  0  0  0  0  0  0  0
   11.8135    5.3717   -9.1791 H   0  0  0  0  0  0  0  0  0  0  0  0
  1  6  2  0
  2  3  2  0
  2  1  1  0
  3  4  1  0
  4  5  2  0
  6  5  1  0
  1  7  1  0
  3  8  1  0
  5  9  1  0
 10 11  1  0
 11 12  1  0
 12 13  2  0
 13 14  1  0
 14 15  2  0
 15 16  1  0
 15 17  1  0
 17 18  2  0
 18 12  1  0
 10 19  1  0
 11 20  1  0
 11 21  1  0
 13 22  1  0
 14 23  1  0
 17 24  1  0
 18 25  1  0
  2 10  1  0
M  END
>  <Score>  (1) 
-7.17652

$$$$

     RDKit          3D

 34 35  0  0  0  0  0  0  0  0999 V2000
   11.6872    9.2534   -4.3300 C   0  0  0  0  0  0  0  0  0  0  0  0
   11.3450    8.0940   -5.0347 C   0  0  0  0  0  0  0  0  0  0  0  0
   11.4150    6.8678   -4.3677 C   0  0  0  0  0  0  0  0  0  0  0  0
   11.8162    6.8696   -3.0561 N   0  0  0  0  0  0  0  0  0  0  0  0
   12.1397    8.0093   -2.4050 C   0  0  0  0  0  0  0  0  0  0  0  0
   12.0770    9.1938   -3.0336 N   0  0  0  0  0  0  0  0  0  0  0  0
   11.6551   10.2277   -4.7897 H   0  0  0  0  0  0  0  0  0  0  0  0
   11.1588    5.9709   -4.8850 H   0  0  0  0  0  0  0  0  0  0  0  0
   12.4422    7.9302   -1.3871 H   0  0  0  0  0  0  0  0  0  0  0  0
   14.6942    9.1331  -12.5967 H   0  0  0  0  0  0  0  0  0  0  0  0
   14.4928    8.3641  -11.7963 C   0  0  0  0  0  0  0  0  0  0  0  0
   14.3636    8.9998  -10.4491 C   0  0  0  0  0  0  0  0  0  0  0  0
   12.9464    9.0946   -9.9688 C   0  0  1  0  0  0  0  0  0  0  0  0
   12.2772    7.7511   -9.8466 C   0  0  0  0  0  0  0  0  0  0  0  0
   11.1849    7.9032   -8.8082 C   0  0  0  0  0  0  0  0  0  0  0  0
   11.8495    7.7916   -7.4480 C   0  0  2  0  0  0  0  0  0  0  0  0
   10.9367    8.1585   -6.3847 N   0  0  0  0  0  0  0  0  0  0  0  0
   13.0172    8.7672   -7.4744 C   0  0  0  0  0  0  0  0  0  0  0  0
   12.9000    9.7604   -8.6287 C   0  0  0  0  0  0  0  0  0  0  0  0
   13.6072    7.7637  -12.0923 H   0  0  0  0  0  0  0  0  0  0  0  0
   15.3720    7.6916  -11.8039 H   0  0  0  0  0  0  0  0  0  0  0  0
   14.9877    8.4917   -9.6811 H   0  0  0  0  0  0  0  0  0  0  0  0
   14.7572   10.0347  -10.5263 H   0  0  0  0  0  0  0  0  0  0  0  0
   12.3681    9.6685  -10.7322 H   0  0  0  0  0  0  0  0  0  0  0  0
   13.0100    6.9805   -9.4966 H   0  0  0  0  0  0  0  0  0  0  0  0
   11.8522    7.3861  -10.7921 H   0  0  0  0  0  0  0  0  0  0  0  0
   10.3822    7.1513   -8.9374 H   0  0  0  0  0  0  0  0  0  0  0  0
   10.7142    8.9052   -8.8568 H   0  0  0  0  0  0  0  0  0  0  0  0
   12.2309    6.7659   -7.2807 H   0  0  0  0  0  0  0  0  0  0  0  0
    9.9832    8.4661   -6.6601 H   0  0  0  0  0  0  0  0  0  0  0  0
   13.9623    8.2275   -7.5562 H   0  0  0  0  0  0  0  0  0  0  0  0
   12.9714    9.3908   -6.5580 H   0  0  0  0  0  0  0  0  0  0  0  0
   12.0311   10.4119   -8.4849 H   0  0  0  0  0  0  0  0  0  0  0  0
   13.8028   10.4153   -8.5263 H   0  0  0  0  0  0  0  0  0  0  0  0
  1  6  2  0
  2  3  2  0
  2  1  1  0
  3  4  1  0
  4  5  2  0
  6  5  1  0
  1  7  1  0
  3  8  1  0
  5  9  1  0
 10 11  1  0
 11 12  1  0
 12 13  1  0
 13 14  1  0
 14 15  1  0
 15 16  1  0
 16 17  1  0
 16 18  1  0
 18 19  1  0
 19 13  1  0
 11 20  1  0
 11 21  1  0
 12 22  1  0
 12 23  1  0
 13 24  1  6
 14 25  1  0
 14 26  1  0
 15 27  1  0
 15 28  1  0
 16 29  1  1
 17 30  1  0
 18 31  1  0
 18 32  1  0
 19 33  1  0
 19 34  1  0
  2 17  1  0
M  END
>  <Score>  (1) 
-7.17634

$$$$

     RDKit          3D

 24 25  0  0  0  0  0  0  0  0999 V2000
   11.6881    9.2495   -4.3249 C   0  0  0  0  0  0  0  0  0  0  0  0
   11.3445    8.0885   -5.0357 C   0  0  0  0  0  0  0  0  0  0  0  0
   11.4133    6.8697   -4.3727 C   0  0  0  0  0  0  0  0  0  0  0  0
   11.8175    6.8768   -3.0545 N   0  0  0  0  0  0  0  0  0  0  0  0
   12.1390    8.0078   -2.4074 C   0  0  0  0  0  0  0  0  0  0  0  0
   12.0776    9.1956   -3.0317 N   0  0  0  0  0  0  0  0  0  0  0  0
   11.6554   10.2224   -4.7787 H   0  0  0  0  0  0  0  0  0  0  0  0
   11.1439    5.9470   -4.8494 H   0  0  0  0  0  0  0  0  0  0  0  0
   12.4553    8.0074   -1.3738 H   0  0  0  0  0  0  0  0  0  0  0  0
   10.9206    8.2592   -6.3618 N   0  0  0  0  0  0  0  0  0  0  0  0
   11.4371    9.1416   -7.3352 C   0  0  0  0  0  0  0  0  0  0  0  0
   12.3356   10.1585   -7.0998 C   0  0  0  0  0  0  0  0  0  0  0  0
   12.7736   11.0113   -8.1160 C   0  0  0  0  0  0  0  0  0  0  0  0
   12.3024   10.8439   -9.3925 C   0  0  0  0  0  0  0  0  0  0  0  0
   11.3969    9.8346   -9.6733 C   0  0  0  0  0  0  0  0  0  0  0  0
   10.9936    9.0232   -8.6579 C   0  0  0  0  0  0  0  0  0  0  0  0
   10.0575    7.9771   -8.9479 N   0  0  0  0  0  0  0  0  0  0  0  0
   10.1042    7.6315   -6.6493 H   0  0  0  0  0  0  0  0  0  0  0  0
   12.6956   10.3114   -6.0956 H   0  0  0  0  0  0  0  0  0  0  0  0
   13.4755   11.7964   -7.9064 H   0  0  0  0  0  0  0  0  0  0  0  0
   12.6456   11.5064  -10.1700 H   0  0  0  0  0  0  0  0  0  0  0  0
   11.0238    9.7053  -10.6929 H   0  0  0  0  0  0  0  0  0  0  0  0
    9.0405    8.1351   -8.7451 H   0  0  0  0  0  0  0  0  0  0  0  0
   10.4032    7.0963   -9.3477 H   0  0  0  0  0  0  0  0  0  0  0  0
  1  6  2  0
  2  3  2  0
  2  1  1  0
  3  4  1  0
  4  5  2  0
  6  5  1  0
  1  7  1  0
  3  8  1  0
  5  9  1  0
 10 11  1  0
 11 12  2  0
 12 13  1  0
 13 14  2  0
 14 15  1  0
 15 16  2  0
 16 17  1  0
 16 11  1  0
 10 18  1  0
 12 19  1  0
 13 20  1  0
 14 21  1  0
 15 22  1  0
 17 23  1  0
 17 24  1  0
  2 10  1  0
M  END
>  <Score>  (1) 
-7.17623

$$$$

     RDKit          3D

 25 26  0  0  0  0  0  0  0  0999 V2000
   11.6896    9.2586   -4.3238 C   0  0  0  0  0  0  0  0  0  0  0  0
   11.3435    8.0907   -5.0386 C   0  0  0  0  0  0  0  0  0  0  0  0
   11.4164    6.8662   -4.3624 C   0  0  0  0  0  0  0  0  0  0  0  0
   11.8150    6.8695   -3.0598 N   0  0  0  0  0  0  0  0  0  0  0  0
   12.1395    8.0079   -2.4051 C   0  0  0  0  0  0  0  0  0  0  0  0
   12.0760    9.1950   -3.0372 N   0  0  0  0  0  0  0  0  0  0  0  0
   11.6426   10.2117   -4.8181 H   0  0  0  0  0  0  0  0  0  0  0  0
   11.1550    5.9969   -4.9069 H   0  0  0  0  0  0  0  0  0  0  0  0
   12.4548    7.9888   -1.3670 H   0  0  0  0  0  0  0  0  0  0  0  0
   11.8229    8.5209  -10.6719 H   0  0  0  0  0  0  0  0  0  0  0  0
   12.2654    8.3781   -9.6925 C   0  0  0  0  0  0  0  0  0  0  0  0
   13.4694    8.2851   -9.6116 O   0  0  0  0  0  0  0  0  0  0  0  0
   11.3397    8.3103   -8.5376 C   0  0  1  0  0  0  0  0  0  0  0  0
   12.0142    8.1253   -7.3312 O   0  0  0  0  0  0  0  0  0  0  0  0
   10.9322    8.2139   -6.4278 C   0  0  2  0  0  0  0  0  0  0  0  0
   10.3662    9.5630   -6.7873 C   0  0  2  0  0  0  0  0  0  0  0  0
    9.0054    9.5743   -6.4761 O   0  0  0  0  0  0  0  0  0  0  0  0
   10.5859    9.5840   -8.3018 C   0  0  2  0  0  0  0  0  0  0  0  0
    9.3239    9.4816   -8.8979 O   0  0  0  0  0  0  0  0  0  0  0  0
   10.6596    7.4540   -8.6585 H   0  0  0  0  0  0  0  0  0  0  0  0
   10.2427    7.4164   -6.6976 H   0  0  0  0  0  0  0  0  0  0  0  0
   10.9150   10.3860   -6.3302 H   0  0  0  0  0  0  0  0  0  0  0  0
    8.6870    8.6303   -6.5421 H   0  0  0  0  0  0  0  0  0  0  0  0
   11.1268   10.4902   -8.6149 H   0  0  0  0  0  0  0  0  0  0  0  0
    8.7171   10.1728   -8.5154 H   0  0  0  0  0  0  0  0  0  0  0  0
  1  6  2  0
  2  3  2  0
  2  1  1  0
  3  4  1  0
  4  5  2  0
  6  5  1  0
  1  7  1  0
  3  8  1  0
  5  9  1  0
 10 11  1  0
 11 12  2  0
 11 13  1  0
 13 14  1  0
 14 15  1  0
 15 16  1  0
 16 17  1  0
 16 18  1  0
 18 19  1  0
 18 13  1  0
 13 20  1  6
 15 21  1  6
 16 22  1  1
 17 23  1  0
 18 24  1  1
 19 25  1  0
  2 15  1  0
M  END
>  <Score>  (1) 
-7.17536

$$$$

     RDKit          3D

 24 25  0  0  0  0  0  0  0  0999 V2000
   11.6880    9.2568   -4.3284 C   0  0  0  0  0  0  0  0  0  0  0  0
   11.3442    8.0921   -5.0367 C   0  0  0  0  0  0  0  0  0  0  0  0
   11.4153    6.8670   -4.3663 C   0  0  0  0  0  0  0  0  0  0  0  0
   11.8166    6.8714   -3.0553 N   0  0  0  0  0  0  0  0  0  0  0  0
   12.1391    8.0055   -2.4056 C   0  0  0  0  0  0  0  0  0  0  0  0
   12.0768    9.1952   -3.0347 N   0  0  0  0  0  0  0  0  0  0  0  0
   11.6403   10.2194   -4.8303 H   0  0  0  0  0  0  0  0  0  0  0  0
   11.1575    5.9881   -4.8964 H   0  0  0  0  0  0  0  0  0  0  0  0
   12.4567    7.9797   -1.3587 H   0  0  0  0  0  0  0  0  0  0  0  0
   10.9240    8.1326   -6.4271 C   0  0  0  0  0  0  0  0  0  0  0  0
    9.5779    8.3011   -6.7124 C   0  0  0  0  0  0  0  0  0  0  0  0
    9.1730    8.3403   -8.0351 C   0  0  0  0  0  0  0  0  0  0  0  0
   10.0915    8.2139   -9.0598 C   0  0  0  0  0  0  0  0  0  0  0  0
    9.6049    8.2632  -10.3587 O   0  0  0  0  0  0  0  0  0  0  0  0
   10.5178    8.1373  -11.4474 C   0  0  0  0  0  0  0  0  0  0  0  0
   11.4182    8.0482   -8.7437 C   0  0  0  0  0  0  0  0  0  0  0  0
   11.8598    8.0044   -7.4227 C   0  0  0  0  0  0  0  0  0  0  0  0
    8.8296    8.4037   -5.9437 H   0  0  0  0  0  0  0  0  0  0  0  0
    8.1042    8.4747   -8.2312 H   0  0  0  0  0  0  0  0  0  0  0  0
   11.1743    7.2571  -11.1952 H   0  0  0  0  0  0  0  0  0  0  0  0
    9.9974    7.8412  -12.3850 H   0  0  0  0  0  0  0  0  0  0  0  0
   11.1583    9.0232  -11.5676 H   0  0  0  0  0  0  0  0  0  0  0  0
   12.1433    7.9487   -9.5378 H   0  0  0  0  0  0  0  0  0  0  0  0
   12.9122    7.8727   -7.1760 H   0  0  0  0  0  0  0  0  0  0  0  0
  1  6  2  0
  2  3  2  0
  2  1  1  0
  3  4  1  0
  4  5  2  0
  6  5  1  0
  1  7  1  0
  3  8  1  0
  5  9  1  0
 10 11  2  0
 11 12  1  0
 12 13  2  0
 13 14  1  0
 14 15  1  0
 13 16  1  0
 16 17  2  0
 17 10  1  0
 11 18  1  0
 12 19  1  0
 15 20  1  0
 15 21  1  0
 15 22  1  0
 16 23  1  0
 17 24  1  0
  2 10  1  0
M  END
>  <Score>  (1) 
-7.17228

$$$$

     RDKit          3D

 23 25  0  0  0  0  0  0  0  0999 V2000
   12.3029    8.1237   -2.3005 C   0  0  0  0  0  0  0  0  0  0  0  0
   12.0209    6.8821   -2.9142 C   0  0  0  0  0  0  0  0  0  0  0  0
   11.5248    6.8955   -4.2235 C   0  0  0  0  0  0  0  0  0  0  0  0
   11.3432    8.1137   -4.8299 N   0  0  0  0  0  0  0  0  0  0  0  0
   11.6235    9.2749   -4.2123 C   0  0  0  0  0  0  0  0  0  0  0  0
   12.0996    9.2810   -2.9577 N   0  0  0  0  0  0  0  0  0  0  0  0
   12.6856    8.0765   -1.2868 H   0  0  0  0  0  0  0  0  0  0  0  0
   12.1833    5.9587   -2.3894 H   0  0  0  0  0  0  0  0  0  0  0  0
   11.2986    5.9795   -4.7240 H   0  0  0  0  0  0  0  0  0  0  0  0
   11.3918   10.5155   -4.9530 C   0  0  0  0  0  0  0  0  0  0  0  0
   10.7884   11.6307   -4.4719 N   0  0  0  0  0  0  0  0  0  0  0  0
   10.7449   12.5633   -5.4082 N   0  0  0  0  0  0  0  0  0  0  0  0
   11.3109   12.1258   -6.5526 C   0  0  0  0  0  0  0  0  0  0  0  0
   11.5241   12.6768   -7.7993 C   0  0  0  0  0  0  0  0  0  0  0  0
   12.1503   11.9411   -8.7788 C   0  0  0  0  0  0  0  0  0  0  0  0
   12.5622   10.6493   -8.5028 C   0  0  0  0  0  0  0  0  0  0  0  0
   13.0557   10.0189   -9.2166 H   0  0  0  0  0  0  0  0  0  0  0  0
   12.3369   10.1169   -7.2421 C   0  0  0  0  0  0  0  0  0  0  0  0
   11.7167   10.8267   -6.2504 C   0  0  0  0  0  0  0  0  0  0  0  0
   10.3417   13.5363   -5.3461 H   0  0  0  0  0  0  0  0  0  0  0  0
   11.2155   13.6773   -8.0434 H   0  0  0  0  0  0  0  0  0  0  0  0
   12.3364   12.3432   -9.7770 H   0  0  0  0  0  0  0  0  0  0  0  0
   12.6706    9.0872   -7.0378 H   0  0  0  0  0  0  0  0  0  0  0  0
  2  1  2  0
  3  2  1  0
  4  3  2  0
  4  5  1  0
  5  6  2  0
  6  1  1  0
  1  7  1  0
  2  8  1  0
  3  9  1  0
 10 11  2  0
 11 12  1  0
 12 13  1  0
 13 14  2  0
 14 15  1  0
 15 16  2  0
 16 17  1  0
 16 18  1  0
 18 19  2  0
 19 10  1  0
 19 13  1  0
 12 20  1  0
 14 21  1  0
 15 22  1  0
 18 23  1  0
  5 10  1  0
M  END
>  <Score>  (1) 
-7.48508

$$$$

     RDKit          3D

 24 26  0  0  0  0  0  0  0  0999 V2000
   11.6906    9.2595   -4.3209 C   0  0  0  0  0  0  0  0  0  0  0  0
   11.3431    8.0893   -5.0392 C   0  0  0  0  0  0  0  0  0  0  0  0
   11.4155    6.8661   -4.3653 C   0  0  0  0  0  0  0  0  0  0  0  0
   11.8162    6.8713   -3.0567 N   0  0  0  0  0  0  0  0  0  0  0  0
   12.1393    8.0053   -2.4048 C   0  0  0  0  0  0  0  0  0  0  0  0
   12.0753    9.1965   -3.0400 N   0  0  0  0  0  0  0  0  0  0  0  0
   11.6281   10.2053   -4.8633 H   0  0  0  0  0  0  0  0  0  0  0  0
   11.1586    5.9771   -4.8881 H   0  0  0  0  0  0  0  0  0  0  0  0
   12.4526    7.9542   -1.3619 H   0  0  0  0  0  0  0  0  0  0  0  0
   10.9385    8.1679   -6.3908 N   0  0  0  0  0  0  0  0  0  0  0  0
   10.7395    9.2742   -7.1301 C   0  0  0  0  0  0  0  0  0  0  0  0
   10.3440    8.9363   -8.4222 C   0  0  0  0  0  0  0  0  0  0  0  0
   10.1183    9.6375   -9.2219 H   0  0  0  0  0  0  0  0  0  0  0  0
   10.3101    7.5609   -8.4391 C   0  0  0  0  0  0  0  0  0  0  0  0
    9.9949    6.6551   -9.4248 C   0  0  0  0  0  0  0  0  0  0  0  0
    9.6080    7.0944  -10.7424 N   0  0  0  0  0  0  0  0  0  0  0  0
   10.0453    5.3300   -9.1644 N   0  0  0  0  0  0  0  0  0  0  0  0
   10.4017    4.8904   -7.9484 C   0  0  0  0  0  0  0  0  0  0  0  0
   10.7161    5.7783   -6.9640 N   0  0  0  0  0  0  0  0  0  0  0  0
   10.6733    7.1064   -7.1993 C   0  0  0  0  0  0  0  0  0  0  0  0
   10.8738   10.2905   -6.7542 H   0  0  0  0  0  0  0  0  0  0  0  0
   10.2587    7.0466  -11.5526 H   0  0  0  0  0  0  0  0  0  0  0  0
    8.6561    7.4766  -10.9247 H   0  0  0  0  0  0  0  0  0  0  0  0
   10.4573    3.8419   -7.6901 H   0  0  0  0  0  0  0  0  0  0  0  0
  1  6  2  0
  2  3  2  0
  2  1  1  0
  3  4  1  0
  4  5  2  0
  6  5  1  0
  1  7  1  0
  3  8  1  0
  5  9  1  0
 10 11  1  0
 11 12  2  0
 12 13  1  0
 12 14  1  0
 14 15  2  0
 15 16  1  0
 15 17  1  0
 17 18  2  0
 18 19  1  0
 19 20  2  0
 20 10  1  0
 20 14  1  0
 11 21  1  0
 16 22  1  0
 16 23  1  0
 18 24  1  0
  2 10  1  0
M  END
>  <Score>  (1) 
-7.167

$$$$

     RDKit          3D

 22 23  0  0  0  0  0  0  0  0999 V2000
   11.6901    9.2590   -4.3222 C   0  0  0  0  0  0  0  0  0  0  0  0
   11.3433    8.0903   -5.0389 C   0  0  0  0  0  0  0  0  0  0  0  0
   11.4155    6.8657   -4.3653 C   0  0  0  0  0  0  0  0  0  0  0  0
   11.8162    6.8713   -3.0567 N   0  0  0  0  0  0  0  0  0  0  0  0
   12.1394    8.0059   -2.4050 C   0  0  0  0  0  0  0  0  0  0  0  0
   12.0756    9.1958   -3.0389 N   0  0  0  0  0  0  0  0  0  0  0  0
   11.6178   10.1698   -4.8841 H   0  0  0  0  0  0  0  0  0  0  0  0
   11.1614    5.9538   -4.8704 H   0  0  0  0  0  0  0  0  0  0  0  0
   12.4488    7.9432   -1.3703 H   0  0  0  0  0  0  0  0  0  0  0  0
   10.9285    8.1785   -6.4271 C   0  0  0  0  0  0  0  0  0  0  0  0
   10.0371    7.2466   -6.9368 C   0  0  0  0  0  0  0  0  0  0  0  0
    9.6338    7.3020   -8.2193 N   0  0  0  0  0  0  0  0  0  0  0  0
   10.0749    8.2577   -9.0580 C   0  0  0  0  0  0  0  0  0  0  0  0
    9.6658    8.3395  -10.4154 N   0  0  0  0  0  0  0  0  0  0  0  0
   10.9403    9.1712   -8.5820 N   0  0  0  0  0  0  0  0  0  0  0  0
   11.3740    9.1540   -7.2964 C   0  0  0  0  0  0  0  0  0  0  0  0
   12.2894   10.1352   -6.8262 N   0  0  0  0  0  0  0  0  0  0  0  0
    9.6854    6.4784   -6.2547 H   0  0  0  0  0  0  0  0  0  0  0  0
    8.6790    8.3303  -10.7445 H   0  0  0  0  0  0  0  0  0  0  0  0
   10.4141    8.4142  -11.1346 H   0  0  0  0  0  0  0  0  0  0  0  0
   12.0375   10.9267   -6.1963 H   0  0  0  0  0  0  0  0  0  0  0  0
   13.2846   10.0655   -7.1280 H   0  0  0  0  0  0  0  0  0  0  0  0
  1  6  2  0
  2  3  2  0
  2  1  1  0
  3  4  1  0
  4  5  2  0
  6  5  1  0
  1  7  1  0
  3  8  1  0
  5  9  1  0
 10 11  2  0
 11 12  1  0
 12 13  2  0
 13 14  1  0
 13 15  1  0
 15 16  2  0
 16 17  1  0
 16 10  1  0
 11 18  1  0
 14 19  1  0
 14 20  1  0
 17 21  1  0
 17 22  1  0
  2 10  1  0
M  END
>  <Score>  (1) 
-7.16633

$$$$

     RDKit          3D

 22 23  0  0  0  0  0  0  0  0999 V2000
   11.6887    9.2565   -4.3263 C   0  0  0  0  0  0  0  0  0  0  0  0
   11.3452    8.0940   -5.0340 C   0  0  0  0  0  0  0  0  0  0  0  0
   11.4164    6.8645   -4.3615 C   0  0  0  0  0  0  0  0  0  0  0  0
   11.8147    6.8713   -3.0620 N   0  0  0  0  0  0  0  0  0  0  0  0
   12.1394    8.0058   -2.4044 C   0  0  0  0  0  0  0  0  0  0  0  0
   12.0756    9.1958   -3.0388 N   0  0  0  0  0  0  0  0  0  0  0  0
   11.6333   10.2102   -4.8470 H   0  0  0  0  0  0  0  0  0  0  0  0
   11.1637    5.9614   -4.8730 H   0  0  0  0  0  0  0  0  0  0  0  0
   12.4465    7.9178   -1.3718 H   0  0  0  0  0  0  0  0  0  0  0  0
   11.1699   11.5933   -8.8038 H   0  0  0  0  0  0  0  0  0  0  0  0
   11.0498   10.6198   -9.2539 C   0  0  0  0  0  0  0  0  0  0  0  0
   11.1657   10.5144  -10.5001 O   0  0  0  0  0  0  0  0  0  0  0  0
   10.7594    9.4065   -8.5041 C   0  0  0  0  0  0  0  0  0  0  0  0
   10.0879    8.3536   -9.0877 C   0  0  0  0  0  0  0  0  0  0  0  0
    9.8251    7.2021   -8.3397 C   0  0  0  0  0  0  0  0  0  0  0  0
   10.2495    7.1530   -7.0286 C   0  0  0  0  0  0  0  0  0  0  0  0
   10.9228    8.1937   -6.4246 C   0  0  0  0  0  0  0  0  0  0  0  0
   11.1749    9.3209   -7.1709 C   0  0  0  0  0  0  0  0  0  0  0  0
   12.0339   10.6560   -6.4308 Cl  0  0  0  0  0  0  0  0  0  0  0  0
    9.7600    8.4082  -10.1226 H   0  0  0  0  0  0  0  0  0  0  0  0
    9.2953    6.3826   -8.8082 H   0  0  0  0  0  0  0  0  0  0  0  0
   10.0353    6.2499   -6.4768 H   0  0  0  0  0  0  0  0  0  0  0  0
  1  6  2  0
  2  3  2  0
  2  1  1  0
  3  4  1  0
  4  5  2  0
  6  5  1  0
  1  7  1  0
  3  8  1  0
  5  9  1  0
 10 11  1  0
 11 12  2  0
 11 13  1  0
 13 14  2  0
 14 15  1  0
 15 16  2  0
 16 17  1  0
 17 18  2  0
 18 19  1  0
 18 13  1  0
 14 20  1  0
 15 21  1  0
 16 22  1  0
  2 17  1  0
M  END
>  <Score>  (1) 
-7.16557

$$$$

     RDKit          3D

 25 26  0  0  0  0  0  0  0  0999 V2000
   11.6881    9.2513   -4.3264 C   0  0  0  0  0  0  0  0  0  0  0  0
   11.3427    8.0884   -5.0392 C   0  0  0  0  0  0  0  0  0  0  0  0
   11.4179    6.8764   -4.3622 C   0  0  0  0  0  0  0  0  0  0  0  0
   11.8136    6.8651   -3.0625 N   0  0  0  0  0  0  0  0  0  0  0  0
   12.1406    8.0122   -2.4026 C   0  0  0  0  0  0  0  0  0  0  0  0
   12.0770    9.1945   -3.0341 N   0  0  0  0  0  0  0  0  0  0  0  0
   11.6450   10.2273   -4.8170 H   0  0  0  0  0  0  0  0  0  0  0  0
   11.1943    5.9264   -4.8153 H   0  0  0  0  0  0  0  0  0  0  0  0
   12.4539    8.0010   -1.3730 H   0  0  0  0  0  0  0  0  0  0  0  0
   10.9779    8.2070   -6.3767 N   0  0  0  0  0  0  0  0  0  0  0  0
    9.9735    7.5254   -7.0889 C   0  0  0  0  0  0  0  0  0  0  0  0
   10.0334    7.4056   -8.4846 C   0  0  0  0  0  0  0  0  0  0  0  0
    9.0584    6.7720   -9.2180 C   0  0  0  0  0  0  0  0  0  0  0  0
    7.9626    6.2188   -8.5998 C   0  0  0  0  0  0  0  0  0  0  0  0
    7.8839    6.3254   -7.2314 C   0  0  0  0  0  0  0  0  0  0  0  0
    6.6991    5.7308   -6.5312 C   0  0  0  0  0  0  0  0  0  0  0  0
    8.8774    6.9718   -6.4810 C   0  0  0  0  0  0  0  0  0  0  0  0
   11.5471    8.9194   -6.9459 H   0  0  0  0  0  0  0  0  0  0  0  0
   10.9098    7.8512   -8.9517 H   0  0  0  0  0  0  0  0  0  0  0  0
    9.1206    6.6888  -10.2932 H   0  0  0  0  0  0  0  0  0  0  0  0
    7.1737    5.7121   -9.1352 H   0  0  0  0  0  0  0  0  0  0  0  0
    5.8016    6.2893   -6.8703 H   0  0  0  0  0  0  0  0  0  0  0  0
    6.6069    4.6918   -6.8633 H   0  0  0  0  0  0  0  0  0  0  0  0
    6.8490    5.8182   -5.4282 H   0  0  0  0  0  0  0  0  0  0  0  0
    8.7432    7.0352   -5.4123 H   0  0  0  0  0  0  0  0  0  0  0  0
  1  6  2  0
  2  3  2  0
  2  1  1  0
  3  4  1  0
  4  5  2  0
  6  5  1  0
  1  7  1  0
  3  8  1  0
  5  9  1  0
 10 11  1  0
 11 12  2  0
 12 13  1  0
 13 14  2  0
 14 15  1  0
 15 16  1  0
 15 17  2  0
 17 11  1  0
 10 18  1  0
 12 19  1  0
 13 20  1  0
 14 21  1  0
 16 22  1  0
 16 23  1  0
 16 24  1  0
 17 25  1  0
  2 10  1  0
M  END
>  <Score>  (1) 
-7.16535

$$$$

     RDKit          3D

 25 27  0  0  0  0  0  0  0  0999 V2000
   11.6878    9.2555   -4.3289 C   0  0  0  0  0  0  0  0  0  0  0  0
   11.3441    8.0872   -5.0342 C   0  0  0  0  0  0  0  0  0  0  0  0
   11.4145    6.8717   -4.3715 C   0  0  0  0  0  0  0  0  0  0  0  0
   11.8168    6.8718   -3.0544 N   0  0  0  0  0  0  0  0  0  0  0  0
   12.1393    8.0080   -2.4053 C   0  0  0  0  0  0  0  0  0  0  0  0
   12.0774    9.1938   -3.0327 N   0  0  0  0  0  0  0  0  0  0  0  0
   11.6211   10.1728   -4.8755 H   0  0  0  0  0  0  0  0  0  0  0  0
   11.1886    5.9320   -4.8367 H   0  0  0  0  0  0  0  0  0  0  0  0
   12.4558    8.0232   -1.3748 H   0  0  0  0  0  0  0  0  0  0  0  0
   10.9721    8.1940   -6.3992 N   0  0  0  0  0  0  0  0  0  0  0  0
   11.8508    8.2434   -7.4993 C   0  0  0  0  0  0  0  0  0  0  0  0
   13.1199    7.7233   -7.5046 C   0  0  0  0  0  0  0  0  0  0  0  0
   13.9251    7.8524   -8.6432 C   0  0  0  0  0  0  0  0  0  0  0  0
   13.4720    8.4948   -9.7734 C   0  0  0  0  0  0  0  0  0  0  0  0
   12.2012    9.0195   -9.7802 C   0  0  0  0  0  0  0  0  0  0  0  0
   11.4078    8.8931   -8.6592 C   0  0  0  0  0  0  0  0  0  0  0  0
   11.9732    9.6184  -11.0332 O   0  0  0  0  0  0  0  0  0  0  0  0
   13.0301    9.2029  -11.8527 C   0  0  0  0  0  0  0  0  0  0  0  0
   14.0724    8.7518  -11.0204 O   0  0  0  0  0  0  0  0  0  0  0  0
    9.9247    8.2413   -6.6431 H   0  0  0  0  0  0  0  0  0  0  0  0
   13.4922    7.1992   -6.6408 H   0  0  0  0  0  0  0  0  0  0  0  0
   14.9271    7.4180   -8.5865 H   0  0  0  0  0  0  0  0  0  0  0  0
   10.4026    9.3107   -8.6706 H   0  0  0  0  0  0  0  0  0  0  0  0
   13.3795   10.0393  -12.5117 H   0  0  0  0  0  0  0  0  0  0  0  0
   12.7083    8.3972  -12.5697 H   0  0  0  0  0  0  0  0  0  0  0  0
  1  6  2  0
  2  3  2  0
  2  1  1  0
  3  4  1  0
  4  5  2  0
  6  5  1  0
  1  7  1  0
  3  8  1  0
  5  9  1  0
 10 11  1  0
 11 12  2  0
 12 13  1  0
 13 14  2  0
 14 15  1  0
 15 16  2  0
 15 17  1  0
 17 18  1  0
 18 19  1  0
 16 11  1  0
 19 14  1  0
 10 20  1  0
 12 21  1  0
 13 22  1  0
 16 23  1  0
 18 24  1  0
 18 25  1  0
  2 10  1  0
M  END
>  <Score>  (1) 
-7.16477

$$$$

     RDKit          3D

 24 25  0  0  0  0  0  0  0  0999 V2000
   11.6882    9.2572   -4.3280 C   0  0  0  0  0  0  0  0  0  0  0  0
   11.3441    8.0918   -5.0370 C   0  0  0  0  0  0  0  0  0  0  0  0
   11.4160    6.8663   -4.3639 C   0  0  0  0  0  0  0  0  0  0  0  0
   11.8148    6.8689   -3.0602 N   0  0  0  0  0  0  0  0  0  0  0  0
   12.1401    8.0110   -2.4043 C   0  0  0  0  0  0  0  0  0  0  0  0
   12.0769    9.1928   -3.0336 N   0  0  0  0  0  0  0  0  0  0  0  0
   11.6279   10.2049   -4.8640 H   0  0  0  0  0  0  0  0  0  0  0  0
   11.1548    5.9884   -4.9043 H   0  0  0  0  0  0  0  0  0  0  0  0
   12.4544    8.0012   -1.3727 H   0  0  0  0  0  0  0  0  0  0  0  0
   10.9255    8.1166   -6.4150 C   0  0  0  0  0  0  0  0  0  0  0  0
    9.5908    8.2764   -6.6969 C   0  0  0  0  0  0  0  0  0  0  0  0
    9.2149    8.2966   -8.0226 C   0  0  0  0  0  0  0  0  0  0  0  0
   10.1146    8.1649   -9.0523 C   0  0  0  0  0  0  0  0  0  0  0  0
    9.5291    8.2040  -10.7387 S   0  0  0  0  0  0  0  0  0  0  0  0
   10.9644    8.0045  -11.8459 C   0  0  0  0  0  0  0  0  0  0  0  0
   11.4438    8.0068   -8.7203 C   0  0  0  0  0  0  0  0  0  0  0  0
   11.8780    7.9790   -7.4104 C   0  0  0  0  0  0  0  0  0  0  0  0
    8.8552    8.3825   -5.9331 H   0  0  0  0  0  0  0  0  0  0  0  0
    8.1532    8.4237   -8.2461 H   0  0  0  0  0  0  0  0  0  0  0  0
   11.5870    7.1798  -11.3893 H   0  0  0  0  0  0  0  0  0  0  0  0
   10.6577    7.7622  -12.8794 H   0  0  0  0  0  0  0  0  0  0  0  0
   11.5969    8.9168  -11.7828 H   0  0  0  0  0  0  0  0  0  0  0  0
   12.1518    7.9027   -9.5543 H   0  0  0  0  0  0  0  0  0  0  0  0
   12.9421    7.8519   -7.1694 H   0  0  0  0  0  0  0  0  0  0  0  0
  1  6  2  0
  2  3  2  0
  2  1  1  0
  3  4  1  0
  4  5  2  0
  6  5  1  0
  1  7  1  0
  3  8  1  0
  5  9  1  0
 10 11  2  0
 11 12  1  0
 12 13  2  0
 13 14  1  0
 14 15  1  0
 13 16  1  0
 16 17  2  0
 17 10  1  0
 11 18  1  0
 12 19  1  0
 15 20  1  0
 15 21  1  0
 15 22  1  0
 16 23  1  0
 17 24  1  0
  2 10  1  0
M  END
>  <Score>  (1) 
-7.16197

$$$$

     RDKit          3D

 22 23  0  0  0  0  0  0  0  0999 V2000
   11.6913    9.2577   -4.3182 C   0  0  0  0  0  0  0  0  0  0  0  0
   11.3418    8.0819   -5.0398 C   0  0  0  0  0  0  0  0  0  0  0  0
   11.4178    6.8766   -4.3627 C   0  0  0  0  0  0  0  0  0  0  0  0
   11.8146    6.8670   -3.0600 N   0  0  0  0  0  0  0  0  0  0  0  0
   12.1389    8.0072   -2.4065 C   0  0  0  0  0  0  0  0  0  0  0  0
   12.0757    9.1975   -3.0398 N   0  0  0  0  0  0  0  0  0  0  0  0
   11.6437   10.2174   -4.8178 H   0  0  0  0  0  0  0  0  0  0  0  0
   11.1991    5.9355   -4.8216 H   0  0  0  0  0  0  0  0  0  0  0  0
   12.4436    7.9129   -1.3749 H   0  0  0  0  0  0  0  0  0  0  0  0
   10.9863    8.2312   -6.3852 N   0  0  0  0  0  0  0  0  0  0  0  0
   11.0243    9.4225   -7.1598 C   0  0  0  0  0  0  0  0  0  0  0  0
   11.6303   10.5891   -6.7588 C   0  0  0  0  0  0  0  0  0  0  0  0
   11.6573   11.7151   -7.5958 C   0  0  0  0  0  0  0  0  0  0  0  0
   11.0853   11.7094   -8.8476 C   0  0  0  0  0  0  0  0  0  0  0  0
   11.1296   12.8187   -9.6331 F   0  0  0  0  0  0  0  0  0  0  0  0
   10.4778   10.5418   -9.2537 C   0  0  0  0  0  0  0  0  0  0  0  0
   10.4498    9.4351   -8.4334 C   0  0  0  0  0  0  0  0  0  0  0  0
    9.8493    8.2841   -8.8344 F   0  0  0  0  0  0  0  0  0  0  0  0
   10.6492    7.3274   -6.8660 H   0  0  0  0  0  0  0  0  0  0  0  0
   12.1173   10.6426   -5.7883 H   0  0  0  0  0  0  0  0  0  0  0  0
   12.1473   12.6222   -7.2405 H   0  0  0  0  0  0  0  0  0  0  0  0
   10.0255   10.5267  -10.2367 H   0  0  0  0  0  0  0  0  0  0  0  0
  1  6  2  0
  2  3  2  0
  2  1  1  0
  3  4  1  0
  4  5  2  0
  6  5  1  0
  1  7  1  0
  3  8  1  0
  5  9  1  0
 10 11  1  0
 11 12  2  0
 12 13  1  0
 13 14  2  0
 14 15  1  0
 14 16  1  0
 16 17  2  0
 17 18  1  0
 17 11  1  0
 10 19  1  0
 12 20  1  0
 13 21  1  0
 16 22  1  0
  2 10  1  0
M  END
>  <Score>  (1) 
-7.1596

$$$$

     RDKit          3D

 34 35  0  0  0  0  0  0  0  0999 V2000
   11.6875    9.2525   -4.3285 C   0  0  0  0  0  0  0  0  0  0  0  0
   11.3443    8.0946   -5.0372 C   0  0  0  0  0  0  0  0  0  0  0  0
   11.4159    6.8680   -4.3648 C   0  0  0  0  0  0  0  0  0  0  0  0
   11.8155    6.8693   -3.0580 N   0  0  0  0  0  0  0  0  0  0  0  0
   12.1399    8.0094   -2.4044 C   0  0  0  0  0  0  0  0  0  0  0  0
   12.0769    9.1943   -3.0341 N   0  0  0  0  0  0  0  0  0  0  0  0
   11.6521   10.2076   -4.7883 H   0  0  0  0  0  0  0  0  0  0  0  0
   11.1580    5.9545   -4.8820 H   0  0  0  0  0  0  0  0  0  0  0  0
   12.4441    7.9106   -1.3740 H   0  0  0  0  0  0  0  0  0  0  0  0
   14.7500    9.9431  -10.9274 H   0  0  0  0  0  0  0  0  0  0  0  0
   13.8918   10.2898  -11.5229 C   0  0  0  0  0  0  0  0  0  0  0  0
   12.7792    9.2662  -11.3487 C   0  0  0  0  0  0  0  0  0  0  0  0
   13.0325    8.4759  -10.0603 C   0  0  1  0  0  0  0  0  0  0  0  0
   13.0451    9.4202   -8.8930 C   0  0  0  0  0  0  0  0  0  0  0  0
   13.0276    8.6048   -7.6120 C   0  0  0  0  0  0  0  0  0  0  0  0
   11.7600    7.7918   -7.4882 C   0  0  1  0  0  0  0  0  0  0  0  0
   10.9398    8.1587   -6.3797 N   0  0  0  0  0  0  0  0  0  0  0  0
   11.0306    7.8895   -8.8108 C   0  0  0  0  0  0  0  0  0  0  0  0
   11.9522    7.4279   -9.9191 C   0  0  0  0  0  0  0  0  0  0  0  0
   14.1813   10.3219  -12.5955 H   0  0  0  0  0  0  0  0  0  0  0  0
   13.5877   11.2848  -11.1417 H   0  0  0  0  0  0  0  0  0  0  0  0
   11.8333    9.8088  -11.2808 H   0  0  0  0  0  0  0  0  0  0  0  0
   12.7881    8.5894  -12.2071 H   0  0  0  0  0  0  0  0  0  0  0  0
   14.0296    7.9922  -10.1066 H   0  0  0  0  0  0  0  0  0  0  0  0
   12.2901   10.2020   -8.9251 H   0  0  0  0  0  0  0  0  0  0  0  0
   14.0419    9.9344   -8.9070 H   0  0  0  0  0  0  0  0  0  0  0  0
   13.0659    9.3027   -6.7495 H   0  0  0  0  0  0  0  0  0  0  0  0
   13.9221    7.9502   -7.6562 H   0  0  0  0  0  0  0  0  0  0  0  0
   12.0202    6.7094   -7.3642 H   0  0  0  0  0  0  0  0  0  0  0  0
    9.9696    8.4983   -6.5951 H   0  0  0  0  0  0  0  0  0  0  0  0
   10.7050    8.9233   -9.0416 H   0  0  0  0  0  0  0  0  0  0  0  0
   10.0943    7.2808   -8.7799 H   0  0  0  0  0  0  0  0  0  0  0  0
   12.3532    6.4181   -9.7130 H   0  0  0  0  0  0  0  0  0  0  0  0
   11.3284    7.3736  -10.8475 H   0  0  0  0  0  0  0  0  0  0  0  0
  1  6  2  0
  2  3  2  0
  2  1  1  0
  3  4  1  0
  4  5  2  0
  6  5  1  0
  1  7  1  0
  3  8  1  0
  5  9  1  0
 10 11  1  0
 11 12  1  0
 12 13  1  0
 13 14  1  0
 14 15  1  0
 15 16  1  0
 16 17  1  0
 16 18  1  0
 18 19  1  0
 19 13  1  0
 11 20  1  0
 11 21  1  0
 12 22  1  0
 12 23  1  0
 13 24  1  6
 14 25  1  0
 14 26  1  0
 15 27  1  0
 15 28  1  0
 16 29  1  1
 17 30  1  0
 18 31  1  0
 18 32  1  0
 19 33  1  0
 19 34  1  0
  2 17  1  0
M  END
>  <Score>  (1) 
-7.15131

$$$$

     RDKit          3D

 32 33  0  0  0  0  0  0  0  0999 V2000
   11.6880    9.2561   -4.3283 C   0  0  0  0  0  0  0  0  0  0  0  0
   11.3447    8.0918   -5.0351 C   0  0  0  0  0  0  0  0  0  0  0  0
   11.4148    6.8673   -4.3682 C   0  0  0  0  0  0  0  0  0  0  0  0
   11.8165    6.8708   -3.0554 N   0  0  0  0  0  0  0  0  0  0  0  0
   12.1394    8.0075   -2.4055 C   0  0  0  0  0  0  0  0  0  0  0  0
   12.0767    9.1945   -3.0346 N   0  0  0  0  0  0  0  0  0  0  0  0
   11.6266   10.1764   -4.8579 H   0  0  0  0  0  0  0  0  0  0  0  0
   11.1695    5.9359   -4.8376 H   0  0  0  0  0  0  0  0  0  0  0  0
   12.4486    7.9474   -1.3726 H   0  0  0  0  0  0  0  0  0  0  0  0
   10.9469    8.0690   -6.3278 O   0  0  0  0  0  0  0  0  0  0  0  0
   11.4932    7.4413   -7.4224 C   0  0  2  0  0  0  0  0  0  0  0  0
   11.9013    8.3386   -8.4337 O   0  0  0  0  0  0  0  0  0  0  0  0
   12.2090    7.5803   -9.5420 C   0  0  2  0  0  0  0  0  0  0  0  0
   13.2642    8.1955  -10.4221 C   0  0  0  0  0  0  0  0  0  0  0  0
   12.9331    9.4236  -10.9263 O   0  0  0  0  0  0  0  0  0  0  0  0
   10.9405    7.2693  -10.2760 C   0  0  1  0  0  0  0  0  0  0  0  0
   11.1583    6.2185  -11.1618 O   0  0  0  0  0  0  0  0  0  0  0  0
    9.8814    6.9349   -9.2532 C   0  0  1  0  0  0  0  0  0  0  0  0
    9.0345    5.9878   -9.7699 O   0  0  0  0  0  0  0  0  0  0  0  0
   10.4777    6.4478   -7.9527 C   0  0  1  0  0  0  0  0  0  0  0  0
   11.0310    5.1696   -8.0863 O   0  0  0  0  0  0  0  0  0  0  0  0
   12.4263    6.8542   -7.1797 H   0  0  0  0  0  0  0  0  0  0  0  0
   12.6293    6.5927   -9.1975 H   0  0  0  0  0  0  0  0  0  0  0  0
   13.3815    7.4994  -11.2985 H   0  0  0  0  0  0  0  0  0  0  0  0
   14.2473    8.1974   -9.9156 H   0  0  0  0  0  0  0  0  0  0  0  0
   13.6534   10.0587  -10.6810 H   0  0  0  0  0  0  0  0  0  0  0  0
   10.5807    8.1529  -10.8692 H   0  0  0  0  0  0  0  0  0  0  0  0
   10.6807    6.3845  -11.9965 H   0  0  0  0  0  0  0  0  0  0  0  0
    9.2898    7.8402   -9.0230 H   0  0  0  0  0  0  0  0  0  0  0  0
    8.4476    5.5456   -9.1353 H   0  0  0  0  0  0  0  0  0  0  0  0
    9.6213    6.3223   -7.2484 H   0  0  0  0  0  0  0  0  0  0  0  0
   10.5915    4.6337   -8.7682 H   0  0  0  0  0  0  0  0  0  0  0  0
  1  6  2  0
  2  3  2  0
  2  1  1  0
  3  4  1  0
  4  5  2  0
  6  5  1  0
  1  7  1  0
  3  8  1  0
  5  9  1  0
 10 11  1  0
 11 12  1  0
 12 13  1  0
 13 14  1  0
 14 15  1  0
 13 16  1  0
 16 17  1  0
 16 18  1  0
 18 19  1  0
 18 20  1  0
 20 21  1  0
 20 11  1  0
 11 22  1  1
 13 23  1  1
 14 24  1  0
 14 25  1  0
 15 26  1  0
 16 27  1  6
 17 28  1  0
 18 29  1  1
 19 30  1  0
 20 31  1  1
 21 32  1  0
  2 10  1  0
M  END
>  <Score>  (1) 
-7.144

$$$$

     RDKit          3D

 25 26  0  0  0  0  0  0  0  0999 V2000
   11.6900    9.2588   -4.3225 C   0  0  0  0  0  0  0  0  0  0  0  0
   11.3435    8.0895   -5.0382 C   0  0  0  0  0  0  0  0  0  0  0  0
   11.4152    6.8666   -4.3664 C   0  0  0  0  0  0  0  0  0  0  0  0
   11.8163    6.8713   -3.0561 N   0  0  0  0  0  0  0  0  0  0  0  0
   12.1394    8.0059   -2.4050 C   0  0  0  0  0  0  0  0  0  0  0  0
   12.0756    9.1959   -3.0388 N   0  0  0  0  0  0  0  0  0  0  0  0
   11.6349   10.2001   -4.8393 H   0  0  0  0  0  0  0  0  0  0  0  0
   11.1664    5.9339   -4.8468 H   0  0  0  0  0  0  0  0  0  0  0  0
   12.4421    7.9023   -1.3776 H   0  0  0  0  0  0  0  0  0  0  0  0
   11.1716    6.6847  -10.5248 H   0  0  0  0  0  0  0  0  0  0  0  0
   11.6009    6.6444   -9.5425 C   0  0  0  0  0  0  0  0  0  0  0  0
   12.5104    5.8806   -9.3251 O   0  0  0  0  0  0  0  0  0  0  0  0
   11.0870    7.5058   -8.4835 C   0  0  2  0  0  0  0  0  0  0  0  0
   11.7470    7.3368   -7.2676 O   0  0  0  0  0  0  0  0  0  0  0  0
   10.9206    8.0896   -6.4211 C   0  0  1  0  0  0  0  0  0  0  0  0
    9.5787    7.4531   -6.6681 C   0  0  1  0  0  0  0  0  0  0  0  0
    8.5136    8.2780   -6.3532 O   0  0  0  0  0  0  0  0  0  0  0  0
    9.6167    7.2746   -8.1912 C   0  0  1  0  0  0  0  0  0  0  0  0
    8.9177    8.3339   -8.7947 O   0  0  0  0  0  0  0  0  0  0  0  0
   11.2696    8.5800   -8.7744 H   0  0  0  0  0  0  0  0  0  0  0  0
   10.8785    9.1215   -6.8297 H   0  0  0  0  0  0  0  0  0  0  0  0
    9.4824    6.4607   -6.2140 H   0  0  0  0  0  0  0  0  0  0  0  0
    7.7361    7.9701   -6.9117 H   0  0  0  0  0  0  0  0  0  0  0  0
    9.2620    6.2923   -8.5037 H   0  0  0  0  0  0  0  0  0  0  0  0
    8.2537    8.0238   -9.4498 H   0  0  0  0  0  0  0  0  0  0  0  0
  1  6  2  0
  2  3  2  0
  2  1  1  0
  3  4  1  0
  4  5  2  0
  6  5  1  0
  1  7  1  0
  3  8  1  0
  5  9  1  0
 10 11  1  0
 11 12  2  0
 11 13  1  0
 13 14  1  0
 14 15  1  0
 15 16  1  0
 16 17  1  0
 16 18  1  0
 18 19  1  0
 18 13  1  0
 13 20  1  6
 15 21  1  6
 16 22  1  1
 17 23  1  0
 18 24  1  1
 19 25  1  0
  2 15  1  0
M  END
>  <Score>  (1) 
-7.14387

$$$$

     RDKit          3D

 22 23  0  0  0  0  0  0  0  0999 V2000
   12.3008    8.1260   -2.3063 C   0  0  0  0  0  0  0  0  0  0  0  0
   12.0219    6.8818   -2.9115 C   0  0  0  0  0  0  0  0  0  0  0  0
   11.5238    6.8940   -4.2262 C   0  0  0  0  0  0  0  0  0  0  0  0
   11.3474    8.1196   -4.8193 N   0  0  0  0  0  0  0  0  0  0  0  0
   11.6198    9.2731   -4.2219 C   0  0  0  0  0  0  0  0  0  0  0  0
   12.1013    9.2764   -2.9528 N   0  0  0  0  0  0  0  0  0  0  0  0
   12.6852    8.1190   -1.2921 H   0  0  0  0  0  0  0  0  0  0  0  0
   12.1854    5.9587   -2.3840 H   0  0  0  0  0  0  0  0  0  0  0  0
   11.3008    5.9776   -4.7180 H   0  0  0  0  0  0  0  0  0  0  0  0
   11.4223   10.5010   -4.8716 N   0  0  0  0  0  0  0  0  0  0  0  0
   12.3682   11.4993   -5.1727 C   0  0  0  0  0  0  0  0  0  0  0  0
   13.7156   11.3946   -4.9626 C   0  0  0  0  0  0  0  0  0  0  0  0
   14.5915   12.4465   -5.2851 C   0  0  0  0  0  0  0  0  0  0  0  0
   14.1397   13.6237   -5.8240 C   0  0  0  0  0  0  0  0  0  0  0  0
   14.9876   14.6336   -6.1328 F   0  0  0  0  0  0  0  0  0  0  0  0
   12.7869   13.7399   -6.0397 C   0  0  0  0  0  0  0  0  0  0  0  0
   11.9360   12.7062   -5.7214 C   0  0  0  0  0  0  0  0  0  0  0  0
   10.4074   10.7069   -5.1852 H   0  0  0  0  0  0  0  0  0  0  0  0
   14.1349   10.5067   -4.5506 H   0  0  0  0  0  0  0  0  0  0  0  0
   15.6541   12.3558   -5.1160 H   0  0  0  0  0  0  0  0  0  0  0  0
   12.4176   14.6730   -6.4684 H   0  0  0  0  0  0  0  0  0  0  0  0
   10.8666   12.8219   -5.9011 H   0  0  0  0  0  0  0  0  0  0  0  0
  2  1  2  0
  3  2  1  0
  4  3  2  0
  4  5  1  0
  5  6  2  0
  6  1  1  0
  1  7  1  0
  2  8  1  0
  3  9  1  0
 10 11  1  0
 11 12  2  0
 12 13  1  0
 13 14  2  0
 14 15  1  0
 14 16  1  0
 16 17  2  0
 17 11  1  0
 10 18  1  0
 12 19  1  0
 13 20  1  0
 16 21  1  0
 17 22  1  0
  5 10  1  0
M  END
>  <Score>  (1) 
-7.48408

$$$$

     RDKit          3D

 27 28  0  0  0  0  0  0  0  0999 V2000
   11.6904    9.2596   -4.3214 C   0  0  0  0  0  0  0  0  0  0  0  0
   11.3433    8.0882   -5.0383 C   0  0  0  0  0  0  0  0  0  0  0  0
   11.4151    6.8672   -4.3671 C   0  0  0  0  0  0  0  0  0  0  0  0
   11.8165    6.8714   -3.0557 N   0  0  0  0  0  0  0  0  0  0  0  0
   12.1393    8.0055   -2.4049 C   0  0  0  0  0  0  0  0  0  0  0  0
   12.0754    9.1961   -3.0397 N   0  0  0  0  0  0  0  0  0  0  0  0
   11.6342   10.1879   -4.8371 H   0  0  0  0  0  0  0  0  0  0  0  0
   11.1602    5.9530   -4.8742 H   0  0  0  0  0  0  0  0  0  0  0  0
   12.4504    7.9718   -1.3755 H   0  0  0  0  0  0  0  0  0  0  0  0
   10.9198    8.1165   -6.4336 C   0  0  1  0  0  0  0  0  0  0  0  0
    9.5444    7.9180   -6.4815 O   0  0  0  0  0  0  0  0  0  0  0  0
    9.0781    8.3988   -7.6714 C   0  0  2  0  0  0  0  0  0  0  0  0
    8.7969    7.2505   -8.5998 C   0  0  0  0  0  0  0  0  0  0  0  0
    7.8510    6.3984   -8.0693 O   0  0  0  0  0  0  0  0  0  0  0  0
   10.0980    9.3318   -8.2447 C   0  0  2  0  0  0  0  0  0  0  0  0
   10.7817    8.6828   -9.2519 O   0  0  0  0  0  0  0  0  0  0  0  0
   11.0550    9.4967   -7.0635 C   0  0  1  0  0  0  0  0  0  0  0  0
   10.5808   10.4815   -6.2009 O   0  0  0  0  0  0  0  0  0  0  0  0
   11.4714    7.3985   -7.0872 H   0  0  0  0  0  0  0  0  0  0  0  0
    8.1250    8.9635   -7.4561 H   0  0  0  0  0  0  0  0  0  0  0  0
    9.7584    6.7452   -8.8198 H   0  0  0  0  0  0  0  0  0  0  0  0
    8.4384    7.6683   -9.5745 H   0  0  0  0  0  0  0  0  0  0  0  0
    7.4418    6.7301   -7.2341 H   0  0  0  0  0  0  0  0  0  0  0  0
    9.6775   10.3080   -8.5552 H   0  0  0  0  0  0  0  0  0  0  0  0
   11.2714    9.3146   -9.8604 H   0  0  0  0  0  0  0  0  0  0  0  0
   12.0758    9.7144   -7.3795 H   0  0  0  0  0  0  0  0  0  0  0  0
    9.8222   10.0527   -5.6956 H   0  0  0  0  0  0  0  0  0  0  0  0
  1  6  2  0
  2  3  2  0
  2  1  1  0
  3  4  1  0
  4  5  2  0
  6  5  1  0
  1  7  1  0
  3  8  1  0
  5  9  1  0
 10 11  1  0
 11 12  1  0
 12 13  1  0
 13 14  1  0
 12 15  1  0
 15 16  1  0
 15 17  1  0
 17 18  1  0
 17 10  1  0
 10 19  1  6
 12 20  1  1
 13 21  1  0
 13 22  1  0
 14 23  1  0
 15 24  1  6
 16 25  1  0
 17 26  1  6
 18 27  1  0
  2 10  1  0
M  END
>  <Score>  (1) 
-7.13851

$$$$

     RDKit          3D

 32 33  0  0  0  0  0  0  0  0999 V2000
   11.6886    9.2577   -4.3266 C   0  0  0  0  0  0  0  0  0  0  0  0
   11.3445    8.0878   -5.0343 C   0  0  0  0  0  0  0  0  0  0  0  0
   11.4162    6.8709   -4.3648 C   0  0  0  0  0  0  0  0  0  0  0  0
   11.8139    6.8659   -3.0620 N   0  0  0  0  0  0  0  0  0  0  0  0
   12.1406    8.0122   -2.4032 C   0  0  0  0  0  0  0  0  0  0  0  0
   12.0762    9.1935   -3.0361 N   0  0  0  0  0  0  0  0  0  0  0  0
   11.6541   10.2261   -4.7856 H   0  0  0  0  0  0  0  0  0  0  0  0
   11.1655    5.9719   -4.8636 H   0  0  0  0  0  0  0  0  0  0  0  0
   12.4450    7.9055   -1.3694 H   0  0  0  0  0  0  0  0  0  0  0  0
   10.9681    8.2544   -6.3250 O   0  0  0  0  0  0  0  0  0  0  0  0
   10.1026    9.1892   -6.8895 C   0  0  2  0  0  0  0  0  0  0  0  0
    9.0258    8.5415   -7.4144 O   0  0  0  0  0  0  0  0  0  0  0  0
    9.0694    8.1485   -8.6990 C   0  0  2  0  0  0  0  0  0  0  0  0
    8.4585    6.7444   -8.7950 C   0  0  0  0  0  0  0  0  0  0  0  0
    8.4702    6.2744  -10.0941 O   0  0  0  0  0  0  0  0  0  0  0  0
   10.3983    8.2108   -9.3740 C   0  0  1  0  0  0  0  0  0  0  0  0
   10.2443    7.9475  -10.7340 O   0  0  0  0  0  0  0  0  0  0  0  0
   10.8787    9.6341   -9.2474 C   0  0  2  0  0  0  0  0  0  0  0  0
   12.1065    9.7477   -9.8669 O   0  0  0  0  0  0  0  0  0  0  0  0
   10.8804   10.0612   -7.8168 C   0  0  2  0  0  0  0  0  0  0  0  0
   12.2295   10.0953   -7.4073 O   0  0  0  0  0  0  0  0  0  0  0  0
    9.7279    9.8387   -6.0683 H   0  0  0  0  0  0  0  0  0  0  0  0
    8.3676    8.7974   -9.2974 H   0  0  0  0  0  0  0  0  0  0  0  0
    9.0912    6.0852   -8.1579 H   0  0  0  0  0  0  0  0  0  0  0  0
    7.4450    6.7778   -8.3695 H   0  0  0  0  0  0  0  0  0  0  0  0
    7.5608    6.1977  -10.4861 H   0  0  0  0  0  0  0  0  0  0  0  0
   11.1133    7.5256   -8.8798 H   0  0  0  0  0  0  0  0  0  0  0  0
   10.5206    7.0304  -10.9851 H   0  0  0  0  0  0  0  0  0  0  0  0
   10.1514   10.2657   -9.8344 H   0  0  0  0  0  0  0  0  0  0  0  0
   12.5018    8.8530   -9.9885 H   0  0  0  0  0  0  0  0  0  0  0  0
   10.5487   11.1265   -7.7887 H   0  0  0  0  0  0  0  0  0  0  0  0
   12.3791   10.8101   -6.7361 H   0  0  0  0  0  0  0  0  0  0  0  0
  1  6  2  0
  2  3  2  0
  2  1  1  0
  3  4  1  0
  4  5  2  0
  6  5  1  0
  1  7  1  0
  3  8  1  0
  5  9  1  0
 10 11  1  0
 11 12  1  0
 12 13  1  0
 13 14  1  0
 14 15  1  0
 13 16  1  0
 16 17  1  0
 16 18  1  0
 18 19  1  0
 18 20  1  0
 20 21  1  0
 20 11  1  0
 11 22  1  1
 13 23  1  6
 14 24  1  0
 14 25  1  0
 15 26  1  0
 16 27  1  1
 17 28  1  0
 18 29  1  6
 19 30  1  0
 20 31  1  6
 21 32  1  0
  2 10  1  0
M  END
>  <Score>  (1) 
-7.12829

$$$$

     RDKit          3D

 31 32  0  0  0  0  0  0  0  0999 V2000
   11.6892    9.2578   -4.3247 C   0  0  0  0  0  0  0  0  0  0  0  0
   11.3437    8.0920   -5.0383 C   0  0  0  0  0  0  0  0  0  0  0  0
   11.4158    6.8652   -4.3640 C   0  0  0  0  0  0  0  0  0  0  0  0
   11.8154    6.8700   -3.0586 N   0  0  0  0  0  0  0  0  0  0  0  0
   12.1397    8.0092   -2.4050 C   0  0  0  0  0  0  0  0  0  0  0  0
   12.0761    9.1937   -3.0364 N   0  0  0  0  0  0  0  0  0  0  0  0
   11.6192   10.1817   -4.8839 H   0  0  0  0  0  0  0  0  0  0  0  0
   11.1577    5.9436   -4.8789 H   0  0  0  0  0  0  0  0  0  0  0  0
   12.4505    7.9535   -1.3686 H   0  0  0  0  0  0  0  0  0  0  0  0
   10.9163    8.1636   -6.4620 C   0  0  1  0  0  0  0  0  0  0  0  0
   10.9780    6.8823   -6.9759 O   0  0  0  0  0  0  0  0  0  0  0  0
   10.4032    6.8536   -8.2185 C   0  0  1  0  0  0  0  0  0  0  0  0
   10.8128    5.6829   -9.0641 C   0  0  0  0  0  0  0  0  0  0  0  0
   10.5000    4.4644   -8.5128 O   0  0  0  0  0  0  0  0  0  0  0  0
    8.9068    6.9250   -8.0133 C   0  0  2  0  0  0  0  0  0  0  0  0
    8.1832    6.5887   -9.1197 O   0  0  0  0  0  0  0  0  0  0  0  0
    8.6436    8.3445   -7.5453 C   0  0  2  0  0  0  0  0  0  0  0  0
    8.6548    9.1430   -8.7098 O   0  0  0  0  0  0  0  0  0  0  0  0
    9.6253    8.8508   -6.5715 C   0  0  2  0  0  0  0  0  0  0  0  0
    9.8684   10.2134   -6.8657 O   0  0  0  0  0  0  0  0  0  0  0  0
   11.7231    8.7514   -6.9856 H   0  0  0  0  0  0  0  0  0  0  0  0
   10.7251    7.7770   -8.7587 H   0  0  0  0  0  0  0  0  0  0  0  0
   10.3570    5.8243  -10.0698 H   0  0  0  0  0  0  0  0  0  0  0  0
   11.9071    5.7351   -9.1964 H   0  0  0  0  0  0  0  0  0  0  0  0
   10.5584    3.7880   -9.2512 H   0  0  0  0  0  0  0  0  0  0  0  0
    8.5923    6.2645   -7.1559 H   0  0  0  0  0  0  0  0  0  0  0  0
    7.4199    7.1839   -9.2706 H   0  0  0  0  0  0  0  0  0  0  0  0
    7.5928    8.4366   -7.1482 H   0  0  0  0  0  0  0  0  0  0  0  0
    9.5400    9.5316   -8.8785 H   0  0  0  0  0  0  0  0  0  0  0  0
    9.1288    8.8773   -5.5570 H   0  0  0  0  0  0  0  0  0  0  0  0
   10.7207   10.3057   -7.3838 H   0  0  0  0  0  0  0  0  0  0  0  0
  1  6  2  0
  2  3  2  0
  2  1  1  0
  3  4  1  0
  4  5  2  0
  6  5  1  0
  1  7  1  0
  3  8  1  0
  5  9  1  0
 10 11  1  0
 11 12  1  0
 12 13  1  0
 13 14  1  0
 12 15  1  0
 15 16  1  0
 15 17  1  0
 17 18  1  0
 17 19  1  0
 19 20  1  0
 19 10  1  0
 10 21  1  6
 12 22  1  6
 13 23  1  0
 13 24  1  0
 14 25  1  0
 15 26  1  1
 16 27  1  0
 17 28  1  1
 18 29  1  0
 19 30  1  1
 20 31  1  0
  2 10  1  0
M  END
>  <Score>  (1) 
-7.1226

$$$$

     RDKit          3D

 22 23  0  0  0  0  0  0  0  0999 V2000
   11.6876    9.2547   -4.3290 C   0  0  0  0  0  0  0  0  0  0  0  0
   11.3442    8.0944   -5.0375 C   0  0  0  0  0  0  0  0  0  0  0  0
   11.4162    6.8663   -4.3633 C   0  0  0  0  0  0  0  0  0  0  0  0
   11.8149    6.8683   -3.0597 N   0  0  0  0  0  0  0  0  0  0  0  0
   12.1400    8.0119   -2.4050 C   0  0  0  0  0  0  0  0  0  0  0  0
   12.0771    9.1924   -3.0325 N   0  0  0  0  0  0  0  0  0  0  0  0
   11.6440   10.2160   -4.8241 H   0  0  0  0  0  0  0  0  0  0  0  0
   11.1619    5.9394   -4.8640 H   0  0  0  0  0  0  0  0  0  0  0  0
   12.4428    7.8985   -1.3738 H   0  0  0  0  0  0  0  0  0  0  0  0
   10.9285    8.0952   -6.4110 C   0  0  0  0  0  0  0  0  0  0  0  0
   10.6605    6.8514   -6.9876 C   0  0  0  0  0  0  0  0  0  0  0  0
   10.2664    6.8365   -8.3010 C   0  0  0  0  0  0  0  0  0  0  0  0
   10.1552    8.0252   -8.9774 C   0  0  0  0  0  0  0  0  0  0  0  0
   10.4182    9.2141   -8.4032 N   0  0  0  0  0  0  0  0  0  0  0  0
   10.8088    9.2716   -7.1122 C   0  0  0  0  0  0  0  0  0  0  0  0
   11.0830   10.5855   -6.5173 C   0  0  0  0  0  0  0  0  0  0  0  0
   10.7633    5.9518   -6.4135 H   0  0  0  0  0  0  0  0  0  0  0  0
   10.0409    5.9003   -8.8148 H   0  0  0  0  0  0  0  0  0  0  0  0
    9.8446    8.0708  -10.0273 H   0  0  0  0  0  0  0  0  0  0  0  0
   12.0685   10.9336   -6.8452 H   0  0  0  0  0  0  0  0  0  0  0  0
   10.3329   11.3112   -6.9400 H   0  0  0  0  0  0  0  0  0  0  0  0
   10.9324   10.5953   -5.4133 H   0  0  0  0  0  0  0  0  0  0  0  0
  1  6  2  0
  2  3  2  0
  2  1  1  0
  3  4  1  0
  4  5  2  0
  6  5  1  0
  1  7  1  0
  3  8  1  0
  5  9  1  0
 10 11  2  0
 11 12  1  0
 12 13  2  0
 13 14  1  0
 14 15  2  0
 15 16  1  0
 15 10  1  0
 11 17  1  0
 12 18  1  0
 13 19  1  0
 16 20  1  0
 16 21  1  0
 16 22  1  0
  2 10  1  0
M  END
>  <Score>  (1) 
-7.1225

$$$$

     RDKit          3D

 31 32  0  0  0  0  0  0  0  0999 V2000
   11.6900    9.2591   -4.3227 C   0  0  0  0  0  0  0  0  0  0  0  0
   11.3433    8.0896   -5.0388 C   0  0  0  0  0  0  0  0  0  0  0  0
   11.4162    6.8664   -4.3633 C   0  0  0  0  0  0  0  0  0  0  0  0
   11.8149    6.8690   -3.0600 N   0  0  0  0  0  0  0  0  0  0  0  0
   12.1399    8.0091   -2.4044 C   0  0  0  0  0  0  0  0  0  0  0  0
   12.0758    9.1948   -3.0378 N   0  0  0  0  0  0  0  0  0  0  0  0
   11.6298   10.1988   -4.8555 H   0  0  0  0  0  0  0  0  0  0  0  0
   11.1587    5.9742   -4.8866 H   0  0  0  0  0  0  0  0  0  0  0  0
   12.4500    7.9502   -1.3690 H   0  0  0  0  0  0  0  0  0  0  0  0
   10.9287    8.2136   -6.4391 C   0  0  2  0  0  0  0  0  0  0  0  0
   10.3113    7.0738   -6.9181 O   0  0  0  0  0  0  0  0  0  0  0  0
    9.7006    7.3027   -8.1358 C   0  0  2  0  0  0  0  0  0  0  0  0
    8.8666    6.0981   -8.5292 C   0  0  0  0  0  0  0  0  0  0  0  0
    9.6559    4.9553   -8.6407 O   0  0  0  0  0  0  0  0  0  0  0  0
   10.7886    7.5696   -9.1553 C   0  0  2  0  0  0  0  0  0  0  0  0
   11.6971    6.4946   -9.1785 O   0  0  0  0  0  0  0  0  0  0  0  0
   11.4839    8.8434   -8.7097 C   0  0  2  0  0  0  0  0  0  0  0  0
   12.3784    9.3199   -9.6235 O   0  0  0  0  0  0  0  0  0  0  0  0
   12.0965    8.5514   -7.3534 C   0  0  1  0  0  0  0  0  0  0  0  0
   12.7955    9.6582   -6.8670 O   0  0  0  0  0  0  0  0  0  0  0  0
   10.2047    9.0472   -6.5482 H   0  0  0  0  0  0  0  0  0  0  0  0
    9.0422    8.1897   -8.1081 H   0  0  0  0  0  0  0  0  0  0  0  0
    8.1245    5.8900   -7.7347 H   0  0  0  0  0  0  0  0  0  0  0  0
    8.3509    6.2840   -9.4911 H   0  0  0  0  0  0  0  0  0  0  0  0
    9.9574    4.6674   -7.7273 H   0  0  0  0  0  0  0  0  0  0  0  0
   10.3488    7.7364  -10.1628 H   0  0  0  0  0  0  0  0  0  0  0  0
   11.4377    5.9243   -9.9462 H   0  0  0  0  0  0  0  0  0  0  0  0
   10.6643    9.5893   -8.5216 H   0  0  0  0  0  0  0  0  0  0  0  0
   11.9255   10.0575  -10.1346 H   0  0  0  0  0  0  0  0  0  0  0  0
   12.7623    7.6549   -7.3946 H   0  0  0  0  0  0  0  0  0  0  0  0
   12.5019   10.4577   -7.3736 H   0  0  0  0  0  0  0  0  0  0  0  0
  1  6  2  0
  2  3  2  0
  2  1  1  0
  3  4  1  0
  4  5  2  0
  6  5  1  0
  1  7  1  0
  3  8  1  0
  5  9  1  0
 10 11  1  0
 11 12  1  0
 12 13  1  0
 13 14  1  0
 12 15  1  0
 15 16  1  0
 15 17  1  0
 17 18  1  0
 17 19  1  0
 19 20  1  0
 19 10  1  0
 10 21  1  1
 12 22  1  1
 13 23  1  0
 13 24  1  0
 14 25  1  0
 15 26  1  6
 16 27  1  0
 17 28  1  1
 18 29  1  0
 19 30  1  6
 20 31  1  0
  2 10  1  0
M  END
>  <Score>  (1) 
-7.11915

$$$$

     RDKit          3D

 25 26  0  0  0  0  0  0  0  0999 V2000
   11.6886    9.2529   -4.3249 C   0  0  0  0  0  0  0  0  0  0  0  0
   11.3444    8.0983   -5.0383 C   0  0  0  0  0  0  0  0  0  0  0  0
   11.4161    6.8626   -4.3622 C   0  0  0  0  0  0  0  0  0  0  0  0
   11.8156    6.8709   -3.0583 N   0  0  0  0  0  0  0  0  0  0  0  0
   12.1393    8.0077   -2.4059 C   0  0  0  0  0  0  0  0  0  0  0  0
   12.0760    9.1955   -3.0374 N   0  0  0  0  0  0  0  0  0  0  0  0
   11.6113   10.1583   -4.9027 H   0  0  0  0  0  0  0  0  0  0  0  0
   11.1587    5.9421   -4.8752 H   0  0  0  0  0  0  0  0  0  0  0  0
   12.4458    7.9315   -1.3759 H   0  0  0  0  0  0  0  0  0  0  0  0
    8.9221    5.0618   -8.1901 H   0  0  0  0  0  0  0  0  0  0  0  0
    9.1496    5.9986   -8.6714 C   0  0  0  0  0  0  0  0  0  0  0  0
    8.7443    6.1586   -9.8104 O   0  0  0  0  0  0  0  0  0  0  0  0
    9.9130    7.1088   -8.0672 C   0  0  2  0  0  0  0  0  0  0  0  0
   10.3285    6.8150   -6.7579 O   0  0  0  0  0  0  0  0  0  0  0  0
   10.9169    8.0595   -6.4197 C   0  0  1  0  0  0  0  0  0  0  0  0
   10.0016    9.1104   -6.8837 C   0  0  1  0  0  0  0  0  0  0  0  0
   10.6560   10.0427   -7.7225 O   0  0  0  0  0  0  0  0  0  0  0  0
    9.0590    8.3349   -7.8200 C   0  0  2  0  0  0  0  0  0  0  0  0
    7.9111    8.0205   -7.1288 O   0  0  0  0  0  0  0  0  0  0  0  0
   10.7933    7.4164   -8.6271 H   0  0  0  0  0  0  0  0  0  0  0  0
   11.8462    8.0915   -7.0639 H   0  0  0  0  0  0  0  0  0  0  0  0
    9.3720    9.6018   -6.1586 H   0  0  0  0  0  0  0  0  0  0  0  0
   10.7718    9.6538   -8.6335 H   0  0  0  0  0  0  0  0  0  0  0  0
    8.8558    8.8996   -8.7443 H   0  0  0  0  0  0  0  0  0  0  0  0
    7.9837    7.1097   -6.7028 H   0  0  0  0  0  0  0  0  0  0  0  0
  1  6  2  0
  2  3  2  0
  2  1  1  0
  3  4  1  0
  4  5  2  0
  6  5  1  0
  1  7  1  0
  3  8  1  0
  5  9  1  0
 10 11  1  0
 11 12  2  0
 11 13  1  0
 13 14  1  0
 14 15  1  0
 15 16  1  0
 16 17  1  0
 16 18  1  0
 18 19  1  0
 18 13  1  0
 13 20  1  6
 15 21  1  6
 16 22  1  1
 17 23  1  0
 18 24  1  6
 19 25  1  0
  2 15  1  0
M  END
>  <Score>  (1) 
-7.11659

$$$$

     RDKit          3D

 22 23  0  0  0  0  0  0  0  0999 V2000
   11.6904    9.2576   -4.3210 C   0  0  0  0  0  0  0  0  0  0  0  0
   11.3433    8.0913   -5.0391 C   0  0  0  0  0  0  0  0  0  0  0  0
   11.4155    6.8657   -4.3651 C   0  0  0  0  0  0  0  0  0  0  0  0
   11.8158    6.8708   -3.0579 N   0  0  0  0  0  0  0  0  0  0  0  0
   12.1401    8.0062   -2.4026 C   0  0  0  0  0  0  0  0  0  0  0  0
   12.0748    9.1964   -3.0413 N   0  0  0  0  0  0  0  0  0  0  0  0
   11.6486   10.2250   -4.8012 H   0  0  0  0  0  0  0  0  0  0  0  0
   11.1579    5.9526   -4.8797 H   0  0  0  0  0  0  0  0  0  0  0  0
   12.4470    7.9482   -1.3762 H   0  0  0  0  0  0  0  0  0  0  0  0
   10.9327    8.1920   -6.4275 C   0  0  0  0  0  0  0  0  0  0  0  0
   11.6785    8.9760   -7.2761 C   0  0  0  0  0  0  0  0  0  0  0  0
   11.2672    9.0596   -8.5921 C   0  0  0  0  0  0  0  0  0  0  0  0
   10.1815    8.4071   -9.0490 N   0  0  0  0  0  0  0  0  0  0  0  0
    9.4696    7.6439   -8.1888 C   0  0  0  0  0  0  0  0  0  0  0  0
    8.2526    6.9032   -8.6652 C   0  0  0  0  0  0  0  0  0  0  0  0
    9.8219    7.5162   -6.8664 C   0  0  0  0  0  0  0  0  0  0  0  0
   12.5516    9.5079   -6.9322 H   0  0  0  0  0  0  0  0  0  0  0  0
   11.8273    9.6653   -9.2865 H   0  0  0  0  0  0  0  0  0  0  0  0
    7.9513    7.2276   -9.6810 H   0  0  0  0  0  0  0  0  0  0  0  0
    8.5368    5.8165   -8.7659 H   0  0  0  0  0  0  0  0  0  0  0  0
    7.4236    6.9688   -7.9552 H   0  0  0  0  0  0  0  0  0  0  0  0
    9.2472    6.8999   -6.1629 H   0  0  0  0  0  0  0  0  0  0  0  0
  1  6  2  0
  2  3  2  0
  2  1  1  0
  3  4  1  0
  4  5  2  0
  6  5  1  0
  1  7  1  0
  3  8  1  0
  5  9  1  0
 10 11  2  0
 11 12  1  0
 12 13  2  0
 13 14  1  0
 14 15  1  0
 14 16  2  0
 16 10  1  0
 11 17  1  0
 12 18  1  0
 15 19  1  0
 15 20  1  0
 15 21  1  0
 16 22  1  0
  2 10  1  0
M  END
>  <Score>  (1) 
-7.11344

$$$$

     RDKit          3D

 32 34  0  0  0  0  0  0  0  0999 V2000
   11.6894    9.2575   -4.3242 C   0  0  0  0  0  0  0  0  0  0  0  0
   11.3437    8.0910   -5.0380 C   0  0  0  0  0  0  0  0  0  0  0  0
   11.4155    6.8666   -4.3656 C   0  0  0  0  0  0  0  0  0  0  0  0
   11.8160    6.8705   -3.0570 N   0  0  0  0  0  0  0  0  0  0  0  0
   12.1395    8.0074   -2.4049 C   0  0  0  0  0  0  0  0  0  0  0  0
   12.0760    9.1951   -3.0373 N   0  0  0  0  0  0  0  0  0  0  0  0
   11.6167   10.1712   -4.8884 H   0  0  0  0  0  0  0  0  0  0  0  0
   11.1611    5.9468   -4.8690 H   0  0  0  0  0  0  0  0  0  0  0  0
   12.4554    8.0149   -1.3746 H   0  0  0  0  0  0  0  0  0  0  0  0
   10.9167    8.1532   -6.4567 C   0  0  2  0  0  0  0  0  0  0  0  0
    9.6078    7.3902   -6.5759 C   0  0  0  0  0  0  0  0  0  0  0  0
    9.6257    6.4324   -6.0208 H   0  0  0  0  0  0  0  0  0  0  0  0
    9.1526    7.2521   -8.0014 C   0  0  0  0  0  0  0  0  0  0  0  0
   10.3840    7.2530   -8.9136 C   0  0  1  0  0  0  0  0  0  0  0  0
   10.9104    8.6333   -9.1457 C   0  0  0  0  0  0  0  0  0  0  0  0
   12.2585    8.6452   -8.4258 C   0  0  0  0  0  0  0  0  0  0  0  0
   11.9822    7.5877   -7.3597 C   0  0  2  0  0  0  0  0  0  0  0  0
   11.4052    6.5328   -8.1624 N   0  0  0  0  0  0  0  0  0  0  0  0
   12.3229    5.9240   -9.0682 C   0  0  0  0  0  0  0  0  0  0  0  0
   10.6757    9.2126   -6.6821 H   0  0  0  0  0  0  0  0  0  0  0  0
    8.8309    8.0233   -6.0578 H   0  0  0  0  0  0  0  0  0  0  0  0
    8.4160    7.9995   -8.3053 H   0  0  0  0  0  0  0  0  0  0  0  0
    8.7016    6.2338   -8.1186 H   0  0  0  0  0  0  0  0  0  0  0  0
   10.1604    6.7371   -9.8732 H   0  0  0  0  0  0  0  0  0  0  0  0
   10.2563    9.4327   -8.7267 H   0  0  0  0  0  0  0  0  0  0  0  0
   11.0954    8.8672  -10.2039 H   0  0  0  0  0  0  0  0  0  0  0  0
   12.4111    9.5964   -7.8707 H   0  0  0  0  0  0  0  0  0  0  0  0
   13.0890    8.3826   -9.0804 H   0  0  0  0  0  0  0  0  0  0  0  0
   12.9034    7.3088   -6.8544 H   0  0  0  0  0  0  0  0  0  0  0  0
   13.3554    5.8510   -8.7085 H   0  0  0  0  0  0  0  0  0  0  0  0
   11.9809    4.8598   -9.2266 H   0  0  0  0  0  0  0  0  0  0  0  0
   12.3206    6.3757  -10.0907 H   0  0  0  0  0  0  0  0  0  0  0  0
  1  6  2  0
  2  3  2  0
  2  1  1  0
  3  4  1  0
  4  5  2  0
  6  5  1  0
  1  7  1  0
  3  8  1  0
  5  9  1  0
 10 11  1  0
 11 12  1  0
 11 13  1  0
 13 14  1  0
 14 15  1  0
 15 16  1  0
 16 17  1  0
 17 18  1  0
 18 19  1  0
 17 10  1  0
 18 14  1  0
 10 20  1  6
 11 21  1  0
 13 22  1  0
 13 23  1  0
 14 24  1  6
 15 25  1  0
 15 26  1  0
 16 27  1  0
 16 28  1  0
 17 29  1  1
 19 30  1  0
 19 31  1  0
 19 32  1  0
  2 10  1  0
M  END
>  <Score>  (1) 
-7.11283

$$$$

     RDKit          3D

 23 24  0  0  0  0  0  0  0  0999 V2000
   11.6897    9.2587   -4.3234 C   0  0  0  0  0  0  0  0  0  0  0  0
   11.3435    8.0909   -5.0386 C   0  0  0  0  0  0  0  0  0  0  0  0
   11.4157    6.8655   -4.3644 C   0  0  0  0  0  0  0  0  0  0  0  0
   11.8156    6.8701   -3.0581 N   0  0  0  0  0  0  0  0  0  0  0  0
   12.1396    8.0082   -2.4050 C   0  0  0  0  0  0  0  0  0  0  0  0
   12.0759    9.1946   -3.0375 N   0  0  0  0  0  0  0  0  0  0  0  0
   11.6165   10.1747   -4.8902 H   0  0  0  0  0  0  0  0  0  0  0  0
   11.1695    5.9357   -4.8374 H   0  0  0  0  0  0  0  0  0  0  0  0
   12.4468    7.9102   -1.3651 H   0  0  0  0  0  0  0  0  0  0  0  0
   10.9196    8.1282   -6.4385 C   0  0  0  0  0  0  0  0  0  0  0  0
   10.2864    6.8703   -6.8470 C   0  0  0  0  0  0  0  0  0  0  0  0
   11.0099    5.8166   -7.3802 C   0  0  0  0  0  0  0  0  0  0  0  0
   10.3693    4.6607   -7.7465 C   0  0  0  0  0  0  0  0  0  0  0  0
    9.0014    4.4866   -7.6080 C   0  0  0  0  0  0  0  0  0  0  0  0
    8.2035    2.9997   -8.0832 Cl  0  0  0  0  0  0  0  0  0  0  0  0
    8.3013    5.5489   -7.0748 C   0  0  0  0  0  0  0  0  0  0  0  0
    8.9323    6.7254   -6.6987 C   0  0  0  0  0  0  0  0  0  0  0  0
   10.1714    8.9642   -6.5410 H   0  0  0  0  0  0  0  0  0  0  0  0
   11.7397    8.4014   -7.1443 H   0  0  0  0  0  0  0  0  0  0  0  0
   12.0855    5.9368   -7.4959 H   0  0  0  0  0  0  0  0  0  0  0  0
   10.9194    3.8268   -8.1651 H   0  0  0  0  0  0  0  0  0  0  0  0
    7.2334    5.4184   -6.9644 H   0  0  0  0  0  0  0  0  0  0  0  0
    8.3198    7.5130   -6.2892 H   0  0  0  0  0  0  0  0  0  0  0  0
  1  6  2  0
  2  3  2  0
  2  1  1  0
  3  4  1  0
  4  5  2  0
  6  5  1  0
  1  7  1  0
  3  8  1  0
  5  9  1  0
 10 11  1  0
 11 12  2  0
 12 13  1  0
 13 14  2  0
 14 15  1  0
 14 16  1  0
 16 17  2  0
 17 11  1  0
 10 18  1  0
 10 19  1  0
 12 20  1  0
 13 21  1  0
 16 22  1  0
 17 23  1  0
  2 10  1  0
M  END
>  <Score>  (1) 
-7.11021

$$$$

     RDKit          3D

 32 34  0  0  0  0  0  0  0  0999 V2000
   11.6873    9.2479   -4.3272 C   0  0  0  0  0  0  0  0  0  0  0  0
   11.3456    8.0973   -5.0344 C   0  0  0  0  0  0  0  0  0  0  0  0
   11.4156    6.8705   -4.3664 C   0  0  0  0  0  0  0  0  0  0  0  0
   11.8169    6.8721   -3.0545 N   0  0  0  0  0  0  0  0  0  0  0  0
   12.1391    8.0038   -2.4052 C   0  0  0  0  0  0  0  0  0  0  0  0
   12.0755    9.1964   -3.0393 N   0  0  0  0  0  0  0  0  0  0  0  0
   11.6153   10.1717   -4.8695 H   0  0  0  0  0  0  0  0  0  0  0  0
   11.1589    5.9590   -4.8800 H   0  0  0  0  0  0  0  0  0  0  0  0
   12.4559    8.0008   -1.3683 H   0  0  0  0  0  0  0  0  0  0  0  0
   10.9423    8.2013   -6.4244 C   0  0  1  0  0  0  0  0  0  0  0  0
    9.4817    8.3122   -6.6584 C   0  0  0  0  0  0  0  0  0  0  0  0
    8.9331    8.9271   -5.9191 H   0  0  0  0  0  0  0  0  0  0  0  0
    9.0956    8.8079   -8.0090 C   0  0  0  0  0  0  0  0  0  0  0  0
   10.0534    9.9121   -8.4253 C   0  0  1  0  0  0  0  0  0  0  0  0
   10.2339   10.9128   -7.2747 C   0  0  0  0  0  0  0  0  0  0  0  0
   11.6372   10.6163   -6.7635 C   0  0  0  0  0  0  0  0  0  0  0  0
   11.7917    9.1925   -7.2049 C   0  0  2  0  0  0  0  0  0  0  0  0
   11.3428    9.3045   -8.5740 N   0  0  0  0  0  0  0  0  0  0  0  0
   11.3864    8.1157   -9.3262 C   0  0  0  0  0  0  0  0  0  0  0  0
   11.2586    7.2154   -6.9074 H   0  0  0  0  0  0  0  0  0  0  0  0
    9.0386    7.2780   -6.5415 H   0  0  0  0  0  0  0  0  0  0  0  0
    9.0580    8.0646   -8.7994 H   0  0  0  0  0  0  0  0  0  0  0  0
    8.0827    9.2918   -7.9747 H   0  0  0  0  0  0  0  0  0  0  0  0
    9.6906   10.4343   -9.3231 H   0  0  0  0  0  0  0  0  0  0  0  0
    9.4769   10.8045   -6.5025 H   0  0  0  0  0  0  0  0  0  0  0  0
   10.1647   11.9549   -7.6616 H   0  0  0  0  0  0  0  0  0  0  0  0
   11.8001   10.8279   -5.7183 H   0  0  0  0  0  0  0  0  0  0  0  0
   12.3046   11.2147   -7.4434 H   0  0  0  0  0  0  0  0  0  0  0  0
   12.8214    8.8269   -7.1943 H   0  0  0  0  0  0  0  0  0  0  0  0
   10.9150    7.2312   -8.9146 H   0  0  0  0  0  0  0  0  0  0  0  0
   10.9309    8.3108  -10.3196 H   0  0  0  0  0  0  0  0  0  0  0  0
   12.4552    7.8602   -9.5227 H   0  0  0  0  0  0  0  0  0  0  0  0
  1  6  2  0
  2  3  2  0
  2  1  1  0
  3  4  1  0
  4  5  2  0
  6  5  1  0
  1  7  1  0
  3  8  1  0
  5  9  1  0
 10 11  1  0
 11 12  1  0
 11 13  1  0
 13 14  1  0
 14 15  1  0
 15 16  1  0
 16 17  1  0
 17 18  1  0
 18 19  1  0
 17 10  1  0
 18 14  1  0
 10 20  1  6
 11 21  1  0
 13 22  1  0
 13 23  1  0
 14 24  1  6
 15 25  1  0
 15 26  1  0
 16 27  1  0
 16 28  1  0
 17 29  1  6
 19 30  1  0
 19 31  1  0
 19 32  1  0
  2 10  1  0
M  END
>  <Score>  (1) 
-7.10859

$$$$

     RDKit          3D

 23 25  0  0  0  0  0  0  0  0999 V2000
   12.3028    8.1207   -2.3005 C   0  0  0  0  0  0  0  0  0  0  0  0
   12.0219    6.8837   -2.9118 C   0  0  0  0  0  0  0  0  0  0  0  0
   11.5239    6.8982   -4.2264 C   0  0  0  0  0  0  0  0  0  0  0  0
   11.3428    8.1081   -4.8304 N   0  0  0  0  0  0  0  0  0  0  0  0
   11.6248    9.2776   -4.2091 C   0  0  0  0  0  0  0  0  0  0  0  0
   12.0989    9.2827   -2.9598 N   0  0  0  0  0  0  0  0  0  0  0  0
   12.6840    8.0729   -1.2906 H   0  0  0  0  0  0  0  0  0  0  0  0
   12.1790    5.9649   -2.4015 H   0  0  0  0  0  0  0  0  0  0  0  0
   11.3088    5.9736   -4.6967 H   0  0  0  0  0  0  0  0  0  0  0  0
   11.4257   10.5627   -4.8687 C   0  0  0  0  0  0  0  0  0  0  0  0
   11.4025   11.7942   -4.2307 C   0  0  0  0  0  0  0  0  0  0  0  0
   11.1954   12.7474   -5.1713 N   0  0  0  0  0  0  0  0  0  0  0  0
   11.0922   14.1027   -5.0576 C   0  0  0  0  0  0  0  0  0  0  0  0
   10.8769   14.8986   -6.1636 C   0  0  0  0  0  0  0  0  0  0  0  0
   10.7725   14.2568   -7.3793 C   0  0  0  0  0  0  0  0  0  0  0  0
   10.6036   14.8691   -8.2540 H   0  0  0  0  0  0  0  0  0  0  0  0
   10.8746   12.8939   -7.5058 C   0  0  0  0  0  0  0  0  0  0  0  0
   11.0932   12.1258   -6.3566 C   0  0  0  0  0  0  0  0  0  0  0  0
   11.2327   10.7967   -6.1773 N   0  0  0  0  0  0  0  0  0  0  0  0
   11.5276   11.9767   -3.1627 H   0  0  0  0  0  0  0  0  0  0  0  0
   11.1861   14.5147   -4.0732 H   0  0  0  0  0  0  0  0  0  0  0  0
   10.7933   15.9880   -6.0775 H   0  0  0  0  0  0  0  0  0  0  0  0
   10.7929   12.3830   -8.4627 H   0  0  0  0  0  0  0  0  0  0  0  0
  2  1  2  0
  3  2  1  0
  4  3  2  0
  4  5  1  0
  5  6  2  0
  6  1  1  0
  1  7  1  0
  2  8  1  0
  3  9  1  0
 10 11  2  0
 11 12  1  0
 12 13  1  0
 13 14  2  0
 14 15  1  0
 15 16  1  0
 15 17  2  0
 17 18  1  0
 18 19  2  0
 19 10  1  0
 18 12  1  0
 11 20  1  0
 13 21  1  0
 14 22  1  0
 17 23  1  0
  5 10  1  0
M  END
>  <Score>  (1) 
-7.47223

$$$$

     RDKit          3D

 25 26  0  0  0  0  0  0  0  0999 V2000
   11.6892    9.2577   -4.3248 C   0  0  0  0  0  0  0  0  0  0  0  0
   11.3442    8.0894   -5.0357 C   0  0  0  0  0  0  0  0  0  0  0  0
   11.4145    6.8681   -4.3692 C   0  0  0  0  0  0  0  0  0  0  0  0
   11.8170    6.8716   -3.0542 N   0  0  0  0  0  0  0  0  0  0  0  0
   12.1393    8.0053   -2.4050 C   0  0  0  0  0  0  0  0  0  0  0  0
   12.0758    9.1960   -3.0380 N   0  0  0  0  0  0  0  0  0  0  0  0
   11.6332   10.1893   -4.8407 H   0  0  0  0  0  0  0  0  0  0  0  0
   11.1631    5.9566   -4.8660 H   0  0  0  0  0  0  0  0  0  0  0  0
   12.4436    7.8969   -1.3711 H   0  0  0  0  0  0  0  0  0  0  0  0
    8.7834   10.1112   -9.5836 H   0  0  0  0  0  0  0  0  0  0  0  0
    8.9019    9.7161   -8.5773 C   0  0  0  0  0  0  0  0  0  0  0  0
    7.8772    9.3481   -8.0346 O   0  0  0  0  0  0  0  0  0  0  0  0
   10.1915    9.6145   -7.8810 C   0  0  1  0  0  0  0  0  0  0  0  0
   10.0028    9.0786   -6.6372 O   0  0  0  0  0  0  0  0  0  0  0  0
   10.9195    8.0800   -6.4210 C   0  0  1  0  0  0  0  0  0  0  0  0
   11.9964    8.1918   -7.4370 C   0  0  1  0  0  0  0  0  0  0  0  0
   12.4518    6.9307   -7.8317 O   0  0  0  0  0  0  0  0  0  0  0  0
   11.1976    8.7680   -8.6178 C   0  0  1  0  0  0  0  0  0  0  0  0
   10.5105    7.7103   -9.1991 O   0  0  0  0  0  0  0  0  0  0  0  0
   10.6483   10.6211   -7.7536 H   0  0  0  0  0  0  0  0  0  0  0  0
   10.3829    7.1047   -6.6087 H   0  0  0  0  0  0  0  0  0  0  0  0
   12.8290    8.8495   -7.1601 H   0  0  0  0  0  0  0  0  0  0  0  0
   13.4147    6.8061   -7.6766 H   0  0  0  0  0  0  0  0  0  0  0  0
   11.8304    9.3221   -9.3091 H   0  0  0  0  0  0  0  0  0  0  0  0
   10.9308    7.3732  -10.0175 H   0  0  0  0  0  0  0  0  0  0  0  0
  1  6  2  0
  2  3  2  0
  2  1  1  0
  3  4  1  0
  4  5  2  0
  6  5  1  0
  1  7  1  0
  3  8  1  0
  5  9  1  0
 10 11  1  0
 11 12  2  0
 11 13  1  0
 13 14  1  0
 14 15  1  0
 15 16  1  0
 16 17  1  0
 16 18  1  0
 18 19  1  0
 18 13  1  0
 13 20  1  1
 15 21  1  6
 16 22  1  1
 17 23  1  0
 18 24  1  6
 19 25  1  0
  2 15  1  0
M  END
>  <Score>  (1) 
-7.10765

$$$$

     RDKit          3D

 31 32  0  0  0  0  0  0  0  0999 V2000
   11.6898    9.2586   -4.3233 C   0  0  0  0  0  0  0  0  0  0  0  0
   11.3435    8.0913   -5.0388 C   0  0  0  0  0  0  0  0  0  0  0  0
   11.4160    6.8652   -4.3634 C   0  0  0  0  0  0  0  0  0  0  0  0
   11.8153    6.8698   -3.0591 N   0  0  0  0  0  0  0  0  0  0  0  0
   12.1397    8.0084   -2.4047 C   0  0  0  0  0  0  0  0  0  0  0  0
   12.0758    9.1948   -3.0377 N   0  0  0  0  0  0  0  0  0  0  0  0
   11.6214   10.1908   -4.8800 H   0  0  0  0  0  0  0  0  0  0  0  0
   11.1705    5.9439   -4.8370 H   0  0  0  0  0  0  0  0  0  0  0  0
   12.4561    8.0073   -1.3695 H   0  0  0  0  0  0  0  0  0  0  0  0
   10.9267    8.1682   -6.4293 C   0  0  1  0  0  0  0  0  0  0  0  0
    9.6484    7.6806   -6.6496 O   0  0  0  0  0  0  0  0  0  0  0  0
    9.3216    7.6207   -7.9739 C   0  0  2  0  0  0  0  0  0  0  0  0
    9.1347    6.1368   -8.3209 C   0  0  0  0  0  0  0  0  0  0  0  0
   10.3372    5.4669   -8.0653 O   0  0  0  0  0  0  0  0  0  0  0  0
   10.2981    8.1929   -8.9243 C   0  0  2  0  0  0  0  0  0  0  0  0
   11.2077    7.1832   -9.3090 O   0  0  0  0  0  0  0  0  0  0  0  0
   10.9963    9.4244   -8.4807 C   0  0  1  0  0  0  0  0  0  0  0  0
   10.6134   10.5759   -9.1563 O   0  0  0  0  0  0  0  0  0  0  0  0
   10.9192    9.6036   -6.9716 C   0  0  2  0  0  0  0  0  0  0  0  0
   11.9509   10.3547   -6.4674 O   0  0  0  0  0  0  0  0  0  0  0  0
   11.6193    7.5382   -7.0358 H   0  0  0  0  0  0  0  0  0  0  0  0
    8.3191    8.0823   -8.1539 H   0  0  0  0  0  0  0  0  0  0  0  0
    8.4095    5.7438   -7.5650 H   0  0  0  0  0  0  0  0  0  0  0  0
    8.8116    5.9917   -9.3516 H   0  0  0  0  0  0  0  0  0  0  0  0
   10.4231    5.3711   -7.0926 H   0  0  0  0  0  0  0  0  0  0  0  0
    9.7425    8.4465   -9.8755 H   0  0  0  0  0  0  0  0  0  0  0  0
   10.8727    6.6447  -10.0442 H   0  0  0  0  0  0  0  0  0  0  0  0
   12.0954    9.2924   -8.7046 H   0  0  0  0  0  0  0  0  0  0  0  0
    9.6520   10.7774   -9.0474 H   0  0  0  0  0  0  0  0  0  0  0  0
    9.9184   10.0729   -6.7737 H   0  0  0  0  0  0  0  0  0  0  0  0
   11.6387   11.3109   -6.4575 H   0  0  0  0  0  0  0  0  0  0  0  0
  1  6  2  0
  2  3  2  0
  2  1  1  0
  3  4  1  0
  4  5  2  0
  6  5  1  0
  1  7  1  0
  3  8  1  0
  5  9  1  0
 10 11  1  0
 11 12  1  0
 12 13  1  0
 13 14  1  0
 12 15  1  0
 15 16  1  0
 15 17  1  0
 17 18  1  0
 17 19  1  0
 19 20  1  0
 19 10  1  0
 10 21  1  6
 12 22  1  1
 13 23  1  0
 13 24  1  0
 14 25  1  0
 15 26  1  6
 16 27  1  0
 17 28  1  1
 18 29  1  0
 19 30  1  6
 20 31  1  0
  2 10  1  0
M  END
>  <Score>  (1) 
-7.09364

$$$$

     RDKit          3D

 25 26  0  0  0  0  0  0  0  0999 V2000
   11.6902    9.2591   -4.3219 C   0  0  0  0  0  0  0  0  0  0  0  0
   11.3433    8.0900   -5.0389 C   0  0  0  0  0  0  0  0  0  0  0  0
   11.4155    6.8659   -4.3652 C   0  0  0  0  0  0  0  0  0  0  0  0
   11.8161    6.8710   -3.0569 N   0  0  0  0  0  0  0  0  0  0  0  0
   12.1394    8.0062   -2.4049 C   0  0  0  0  0  0  0  0  0  0  0  0
   12.0755    9.1958   -3.0392 N   0  0  0  0  0  0  0  0  0  0  0  0
   11.6525   10.2286   -4.7919 H   0  0  0  0  0  0  0  0  0  0  0  0
   11.1580    5.9555   -4.8822 H   0  0  0  0  0  0  0  0  0  0  0  0
   12.4421    7.9111   -1.3809 H   0  0  0  0  0  0  0  0  0  0  0  0
    9.2969   11.6144   -7.1313 H   0  0  0  0  0  0  0  0  0  0  0  0
    9.0147   10.8223   -7.8140 C   0  0  0  0  0  0  0  0  0  0  0  0
    8.1432   11.0353   -8.6350 O   0  0  0  0  0  0  0  0  0  0  0  0
    9.6795    9.5128   -7.7425 C   0  0  1  0  0  0  0  0  0  0  0  0
   10.6202    9.5111   -6.7457 O   0  0  0  0  0  0  0  0  0  0  0  0
   10.9230    8.1890   -6.4489 C   0  0  2  0  0  0  0  0  0  0  0  0
    9.6912    7.3821   -6.7558 C   0  0  2  0  0  0  0  0  0  0  0  0
    9.9282    6.4277   -7.7298 O   0  0  0  0  0  0  0  0  0  0  0  0
    8.7361    8.4062   -7.3208 C   0  0  1  0  0  0  0  0  0  0  0  0
    7.8339    8.8237   -6.3528 O   0  0  0  0  0  0  0  0  0  0  0  0
   10.1046    9.1959   -8.7321 H   0  0  0  0  0  0  0  0  0  0  0  0
   11.7453    7.8321   -7.0855 H   0  0  0  0  0  0  0  0  0  0  0  0
    9.2785    6.9116   -5.8266 H   0  0  0  0  0  0  0  0  0  0  0  0
    9.1493    6.3014   -8.3297 H   0  0  0  0  0  0  0  0  0  0  0  0
    8.1453    8.0237   -8.1724 H   0  0  0  0  0  0  0  0  0  0  0  0
    7.9945    9.7462   -6.0424 H   0  0  0  0  0  0  0  0  0  0  0  0
  1  6  2  0
  2  3  2  0
  2  1  1  0
  3  4  1  0
  4  5  2  0
  6  5  1  0
  1  7  1  0
  3  8  1  0
  5  9  1  0
 10 11  1  0
 11 12  2  0
 11 13  1  0
 13 14  1  0
 14 15  1  0
 15 16  1  0
 16 17  1  0
 16 18  1  0
 18 19  1  0
 18 13  1  0
 13 20  1  6
 15 21  1  6
 16 22  1  1
 17 23  1  0
 18 24  1  6
 19 25  1  0
  2 15  1  0
M  END
>  <Score>  (1) 
-7.09266

$$$$

     RDKit          3D

 29 31  0  0  0  0  0  0  0  0999 V2000
   11.6887    9.2529   -4.3249 C   0  0  0  0  0  0  0  0  0  0  0  0
   11.3434    8.0896   -5.0382 C   0  0  0  0  0  0  0  0  0  0  0  0
   11.4155    6.8726   -4.3678 C   0  0  0  0  0  0  0  0  0  0  0  0
   11.8163    6.8695   -3.0556 N   0  0  0  0  0  0  0  0  0  0  0  0
   12.1398    8.0078   -2.4040 C   0  0  0  0  0  0  0  0  0  0  0  0
   12.0762    9.1956   -3.0365 N   0  0  0  0  0  0  0  0  0  0  0  0
   11.6161   10.1610   -4.8940 H   0  0  0  0  0  0  0  0  0  0  0  0
   11.1642    5.9305   -4.8531 H   0  0  0  0  0  0  0  0  0  0  0  0
   12.4455    7.9073   -1.3681 H   0  0  0  0  0  0  0  0  0  0  0  0
   10.9173    8.1105   -6.4254 C   0  0  2  0  0  0  0  0  0  0  0  0
    9.6642    8.9278   -6.6618 C   0  0  0  0  0  0  0  0  0  0  0  0
    8.9544    8.2991   -7.7604 N   0  0  0  0  0  0  0  0  0  0  0  0
    8.3022    7.1274   -7.2019 C   0  0  0  0  0  0  0  0  0  0  0  0
    9.4123    6.1326   -6.9013 C   0  0  0  0  0  0  0  0  0  0  0  0
   10.7834    6.7514   -7.0633 C   0  0  0  0  0  0  0  0  0  0  0  0
   10.8985    7.0122   -8.5781 C   0  0  0  0  0  0  0  0  0  0  0  0
    9.7872    8.0053   -8.8852 C   0  0  0  0  0  0  0  0  0  0  0  0
   11.7181    8.6485   -7.0153 H   0  0  0  0  0  0  0  0  0  0  0  0
    9.9115    9.9936   -6.8744 H   0  0  0  0  0  0  0  0  0  0  0  0
    9.0170    8.8587   -5.7503 H   0  0  0  0  0  0  0  0  0  0  0  0
    7.8902    7.4429   -6.2153 H   0  0  0  0  0  0  0  0  0  0  0  0
    7.5285    6.7183   -7.8554 H   0  0  0  0  0  0  0  0  0  0  0  0
    9.3355    5.3747   -7.7395 H   0  0  0  0  0  0  0  0  0  0  0  0
    9.2689    5.5691   -5.9855 H   0  0  0  0  0  0  0  0  0  0  0  0
   11.5252    6.0318   -6.7236 H   0  0  0  0  0  0  0  0  0  0  0  0
   11.9010    7.4343   -8.7496 H   0  0  0  0  0  0  0  0  0  0  0  0
   10.7441    6.0553   -9.1225 H   0  0  0  0  0  0  0  0  0  0  0  0
    9.1351    7.6297   -9.6962 H   0  0  0  0  0  0  0  0  0  0  0  0
   10.2907    8.9576   -9.1744 H   0  0  0  0  0  0  0  0  0  0  0  0
  1  6  2  0
  2  3  2  0
  2  1  1  0
  3  4  1  0
  4  5  2  0
  6  5  1  0
  1  7  1  0
  3  8  1  0
  5  9  1  0
 10 11  1  0
 11 12  1  0
 12 13  1  0
 13 14  1  0
 14 15  1  0
 15 16  1  0
 16 17  1  0
 15 10  1  0
 17 12  1  0
 10 18  1  6
 11 19  1  0
 11 20  1  0
 13 21  1  0
 13 22  1  0
 14 23  1  0
 14 24  1  0
 15 25  1  0
 16 26  1  0
 16 27  1  0
 17 28  1  0
 17 29  1  0
  2 10  1  0
M  END
>  <Score>  (1) 
-7.08856

$$$$

     RDKit          3D

 29 31  0  0  0  0  0  0  0  0999 V2000
   11.6882    9.2529   -4.3264 C   0  0  0  0  0  0  0  0  0  0  0  0
   11.3451    8.0919   -5.0337 C   0  0  0  0  0  0  0  0  0  0  0  0
   11.4178    6.8715   -4.3600 C   0  0  0  0  0  0  0  0  0  0  0  0
   11.8131    6.8666   -3.0650 N   0  0  0  0  0  0  0  0  0  0  0  0
   12.1402    8.0106   -2.4039 C   0  0  0  0  0  0  0  0  0  0  0  0
   12.0757    9.1944   -3.0380 N   0  0  0  0  0  0  0  0  0  0  0  0
   11.6534   10.2276   -4.7886 H   0  0  0  0  0  0  0  0  0  0  0  0
   11.1507    6.0070   -4.9309 H   0  0  0  0  0  0  0  0  0  0  0  0
   12.4509    7.9610   -1.3697 H   0  0  0  0  0  0  0  0  0  0  0  0
   10.9377    8.2078   -6.4175 C   0  0  1  0  0  0  0  0  0  0  0  0
    9.9529    9.3382   -6.6311 C   0  0  0  0  0  0  0  0  0  0  0  0
   10.2963    9.9993   -7.8806 N   0  0  0  0  0  0  0  0  0  0  0  0
   10.3741    9.0910   -8.9829 C   0  0  0  0  0  0  0  0  0  0  0  0
   11.3964    7.9733   -8.7782 C   0  0  0  0  0  0  0  0  0  0  0  0
   12.0590    8.2900   -7.4250 C   0  0  0  0  0  0  0  0  0  0  0  0
   12.6342    9.6678   -7.5907 C   0  0  0  0  0  0  0  0  0  0  0  0
   11.5628   10.7042   -7.6760 C   0  0  0  0  0  0  0  0  0  0  0  0
   10.3706    7.2739   -6.7045 H   0  0  0  0  0  0  0  0  0  0  0  0
   10.0663   10.0725   -5.8149 H   0  0  0  0  0  0  0  0  0  0  0  0
    8.9135    9.0055   -6.6996 H   0  0  0  0  0  0  0  0  0  0  0  0
   10.6446    9.6682   -9.8823 H   0  0  0  0  0  0  0  0  0  0  0  0
    9.3580    8.6766   -9.1507 H   0  0  0  0  0  0  0  0  0  0  0  0
   12.1449    7.9511   -9.5809 H   0  0  0  0  0  0  0  0  0  0  0  0
   10.8297    7.0266   -8.7077 H   0  0  0  0  0  0  0  0  0  0  0  0
   12.8107    7.5292   -7.2294 H   0  0  0  0  0  0  0  0  0  0  0  0
   13.4593    9.9027   -6.8944 H   0  0  0  0  0  0  0  0  0  0  0  0
   13.1366    9.6555   -8.6058 H   0  0  0  0  0  0  0  0  0  0  0  0
   11.5019   11.3308   -6.7868 H   0  0  0  0  0  0  0  0  0  0  0  0
   11.6915   11.3796   -8.5644 H   0  0  0  0  0  0  0  0  0  0  0  0
  1  6  2  0
  2  3  2  0
  2  1  1  0
  3  4  1  0
  4  5  2  0
  6  5  1  0
  1  7  1  0
  3  8  1  0
  5  9  1  0
 10 11  1  0
 11 12  1  0
 12 13  1  0
 13 14  1  0
 14 15  1  0
 15 16  1  0
 16 17  1  0
 15 10  1  0
 17 12  1  0
 10 18  1  6
 11 19  1  0
 11 20  1  0
 13 21  1  0
 13 22  1  0
 14 23  1  0
 14 24  1  0
 15 25  1  0
 16 26  1  0
 16 27  1  0
 17 28  1  0
 17 29  1  0
  2 10  1  0
M  END
>  <Score>  (1) 
-7.08769

$$$$

     RDKit          3D

 21 22  0  0  0  0  0  0  0  0999 V2000
   11.6882    9.2543   -4.3269 C   0  0  0  0  0  0  0  0  0  0  0  0
   11.3438    8.0957   -5.0393 C   0  0  0  0  0  0  0  0  0  0  0  0
   11.4171    6.8648   -4.3598 C   0  0  0  0  0  0  0  0  0  0  0  0
   11.8144    6.8696   -3.0618 N   0  0  0  0  0  0  0  0  0  0  0  0
   12.1399    8.0093   -2.4045 C   0  0  0  0  0  0  0  0  0  0  0  0
   12.0767    9.1943   -3.0348 N   0  0  0  0  0  0  0  0  0  0  0  0
   11.6369   10.2116   -4.8368 H   0  0  0  0  0  0  0  0  0  0  0  0
   11.1568    5.9830   -4.8959 H   0  0  0  0  0  0  0  0  0  0  0  0
   12.4561    8.0107   -1.3701 H   0  0  0  0  0  0  0  0  0  0  0  0
   10.9268    8.1657   -6.4272 C   0  0  0  0  0  0  0  0  0  0  0  0
    9.5911    8.2999   -6.7459 C   0  0  0  0  0  0  0  0  0  0  0  0
    9.2251    8.3632   -8.0438 N   0  0  0  0  0  0  0  0  0  0  0  0
   10.1542    8.2964   -9.0285 C   0  0  0  0  0  0  0  0  0  0  0  0
    9.7329    8.3664  -10.3856 N   0  0  0  0  0  0  0  0  0  0  0  0
   11.5029    8.1623   -8.7674 C   0  0  0  0  0  0  0  0  0  0  0  0
   12.2432    8.1092   -9.5560 H   0  0  0  0  0  0  0  0  0  0  0  0
   11.8637    8.0982   -7.4177 C   0  0  0  0  0  0  0  0  0  0  0  0
    8.8446    8.3537   -5.9649 H   0  0  0  0  0  0  0  0  0  0  0  0
    9.9116    7.6055  -11.0731 H   0  0  0  0  0  0  0  0  0  0  0  0
    9.2179    9.2154  -10.7251 H   0  0  0  0  0  0  0  0  0  0  0  0
   12.9029    7.9943   -7.1869 H   0  0  0  0  0  0  0  0  0  0  0  0
  1  6  2  0
  2  3  2  0
  2  1  1  0
  3  4  1  0
  4  5  2  0
  6  5  1  0
  1  7  1  0
  3  8  1  0
  5  9  1  0
 10 11  2  0
 11 12  1  0
 12 13  2  0
 13 14  1  0
 13 15  1  0
 15 16  1  0
 15 17  2  0
 17 10  1  0
 11 18  1  0
 14 19  1  0
 14 20  1  0
 17 21  1  0
  2 10  1  0
M  END
>  <Score>  (1) 
-7.08702

$$$$

     RDKit          3D

 22 23  0  0  0  0  0  0  0  0999 V2000
   11.6888    9.2583   -4.3263 C   0  0  0  0  0  0  0  0  0  0  0  0
   11.3438    8.0889   -5.0368 C   0  0  0  0  0  0  0  0  0  0  0  0
   11.4156    6.8682   -4.3658 C   0  0  0  0  0  0  0  0  0  0  0  0
   11.8152    6.8681   -3.0588 N   0  0  0  0  0  0  0  0  0  0  0  0
   12.1398    8.0122   -2.4058 C   0  0  0  0  0  0  0  0  0  0  0  0
   12.0768    9.1922   -3.0336 N   0  0  0  0  0  0  0  0  0  0  0  0
   11.6215   10.1854   -4.8783 H   0  0  0  0  0  0  0  0  0  0  0  0
   11.1549    5.9917   -4.9050 H   0  0  0  0  0  0  0  0  0  0  0  0
   12.4448    7.9361   -1.3810 H   0  0  0  0  0  0  0  0  0  0  0  0
   10.9267    8.1218   -6.4139 C   0  0  0  0  0  0  0  0  0  0  0  0
   10.8683    6.9475   -7.1221 C   0  0  0  0  0  0  0  0  0  0  0  0
   10.4612    7.0266   -8.4444 C   0  0  0  0  0  0  0  0  0  0  0  0
   10.1392    8.2575   -8.9799 C   0  0  0  0  0  0  0  0  0  0  0  0
    9.6971    8.3398  -10.4166 C   0  0  0  0  0  0  0  0  0  0  0  0
   10.2072    9.3823   -8.2615 N   0  0  0  0  0  0  0  0  0  0  0  0
   10.5978    9.3202   -6.9861 C   0  0  0  0  0  0  0  0  0  0  0  0
   11.1288    5.9759   -6.6785 H   0  0  0  0  0  0  0  0  0  0  0  0
   10.4116    6.1002   -9.0151 H   0  0  0  0  0  0  0  0  0  0  0  0
    8.8873    9.0822  -10.4784 H   0  0  0  0  0  0  0  0  0  0  0  0
   10.5833    8.5931  -11.0348 H   0  0  0  0  0  0  0  0  0  0  0  0
    9.3232    7.3499  -10.7030 H   0  0  0  0  0  0  0  0  0  0  0  0
   10.6456   10.2553   -6.4176 H   0  0  0  0  0  0  0  0  0  0  0  0
  1  6  2  0
  2  3  2  0
  2  1  1  0
  3  4  1  0
  4  5  2  0
  6  5  1  0
  1  7  1  0
  3  8  1  0
  5  9  1  0
 10 11  2  0
 11 12  1  0
 12 13  2  0
 13 14  1  0
 13 15  1  0
 15 16  2  0
 16 10  1  0
 11 17  1  0
 12 18  1  0
 14 19  1  0
 14 20  1  0
 14 21  1  0
 16 22  1  0
  2 10  1  0
M  END
>  <Score>  (1) 
-7.08292

$$$$

     RDKit          3D

 29 30  0  0  0  0  0  0  0  0999 V2000
   11.6892    9.2556   -4.3240 C   0  0  0  0  0  0  0  0  0  0  0  0
   11.3433    8.0951   -5.0407 C   0  0  0  0  0  0  0  0  0  0  0  0
   11.4162    6.8641   -4.3624 C   0  0  0  0  0  0  0  0  0  0  0  0
   11.8158    6.8709   -3.0577 N   0  0  0  0  0  0  0  0  0  0  0  0
   12.1395    8.0073   -2.4051 C   0  0  0  0  0  0  0  0  0  0  0  0
   12.0760    9.1949   -3.0372 N   0  0  0  0  0  0  0  0  0  0  0  0
   11.6502   10.2193   -4.7966 H   0  0  0  0  0  0  0  0  0  0  0  0
   11.1641    5.9477   -4.8591 H   0  0  0  0  0  0  0  0  0  0  0  0
   12.4518    7.9678   -1.3694 H   0  0  0  0  0  0  0  0  0  0  0  0
   10.9341    8.1543   -6.3982 N   0  0  0  0  0  0  0  0  0  0  0  0
   10.2986    6.9813   -6.9637 C   0  0  0  0  0  0  0  0  0  0  0  0
   10.4925    7.1451   -8.4804 C   0  0  1  0  0  0  0  0  0  0  0  0
   10.0638    5.8964   -9.1846 C   0  0  0  0  0  0  0  0  0  0  0  0
    9.7992    8.2707   -8.8292 O   0  0  0  0  0  0  0  0  0  0  0  0
   10.5263    9.3989   -8.4846 C   0  0  2  0  0  0  0  0  0  0  0  0
   11.5621    9.6620   -9.5747 C   0  0  0  0  0  0  0  0  0  0  0  0
   11.1586    9.3449   -7.1424 C   0  0  0  0  0  0  0  0  0  0  0  0
   10.8178    6.0399   -6.7057 H   0  0  0  0  0  0  0  0  0  0  0  0
    9.2307    6.9066   -6.7184 H   0  0  0  0  0  0  0  0  0  0  0  0
   11.5649    7.3068   -8.6619 H   0  0  0  0  0  0  0  0  0  0  0  0
   10.0615    5.0729   -8.4331 H   0  0  0  0  0  0  0  0  0  0  0  0
    9.0395    5.9751   -9.5905 H   0  0  0  0  0  0  0  0  0  0  0  0
   10.7922    5.6197   -9.9750 H   0  0  0  0  0  0  0  0  0  0  0  0
    9.8241   10.2576   -8.5226 H   0  0  0  0  0  0  0  0  0  0  0  0
   11.8811    8.7389  -10.0798 H   0  0  0  0  0  0  0  0  0  0  0  0
   12.4647   10.1080   -9.0896 H   0  0  0  0  0  0  0  0  0  0  0  0
   11.2057   10.4209  -10.2967 H   0  0  0  0  0  0  0  0  0  0  0  0
   12.2640    9.5311   -7.2597 H   0  0  0  0  0  0  0  0  0  0  0  0
   10.8118   10.2069   -6.4990 H   0  0  0  0  0  0  0  0  0  0  0  0
  1  6  2  0
  2  3  2  0
  2  1  1  0
  3  4  1  0
  4  5  2  0
  6  5  1  0
  1  7  1  0
  3  8  1  0
  5  9  1  0
 10 11  1  0
 11 12  1  0
 12 13  1  0
 12 14  1  0
 14 15  1  0
 15 16  1  0
 15 17  1  0
 17 10  1  0
 11 18  1  0
 11 19  1  0
 12 20  1  1
 13 21  1  0
 13 22  1  0
 13 23  1  0
 15 24  1  1
 16 25  1  0
 16 26  1  0
 16 27  1  0
 17 28  1  0
 17 29  1  0
  2 10  1  0
M  END
>  <Score>  (1) 
-7.08014

$$$$

     RDKit          3D

 25 26  0  0  0  0  0  0  0  0999 V2000
   11.6895    9.2524   -4.3222 C   0  0  0  0  0  0  0  0  0  0  0  0
   11.3424    8.0877   -5.0396 C   0  0  0  0  0  0  0  0  0  0  0  0
   11.4144    6.8701   -4.3717 C   0  0  0  0  0  0  0  0  0  0  0  0
   11.8180    6.8750   -3.0518 N   0  0  0  0  0  0  0  0  0  0  0  0
   12.1381    8.0099   -2.4099 C   0  0  0  0  0  0  0  0  0  0  0  0
   12.0776    9.1929   -3.0318 N   0  0  0  0  0  0  0  0  0  0  0  0
   11.6209   10.1697   -4.8752 H   0  0  0  0  0  0  0  0  0  0  0  0
   11.1877    5.9535   -4.8669 H   0  0  0  0  0  0  0  0  0  0  0  0
   12.4487    7.9605   -1.3750 H   0  0  0  0  0  0  0  0  0  0  0  0
   10.9829    8.2293   -6.4010 N   0  0  0  0  0  0  0  0  0  0  0  0
   11.2925    9.2971   -7.2603 C   0  0  0  0  0  0  0  0  0  0  0  0
   12.2121   10.2652   -6.9383 C   0  0  0  0  0  0  0  0  0  0  0  0
   12.5311   11.3005   -7.8299 C   0  0  0  0  0  0  0  0  0  0  0  0
   13.2612   12.0545   -7.5516 H   0  0  0  0  0  0  0  0  0  0  0  0
   11.9388   11.3922   -9.0658 C   0  0  0  0  0  0  0  0  0  0  0  0
   11.0193   10.4231   -9.3887 C   0  0  0  0  0  0  0  0  0  0  0  0
   10.7013    9.4036   -8.5165 C   0  0  0  0  0  0  0  0  0  0  0  0
    9.7088    8.3696   -8.8783 C   0  0  0  0  0  0  0  0  0  0  0  0
   10.4076    7.4358   -6.8479 H   0  0  0  0  0  0  0  0  0  0  0  0
   12.7454   10.2552   -5.9904 H   0  0  0  0  0  0  0  0  0  0  0  0
   12.2210   12.2071   -9.7096 H   0  0  0  0  0  0  0  0  0  0  0  0
   10.5441   10.4786  -10.3553 H   0  0  0  0  0  0  0  0  0  0  0  0
    9.3657    8.5670   -9.9064 H   0  0  0  0  0  0  0  0  0  0  0  0
    8.8750    8.3658   -8.1400 H   0  0  0  0  0  0  0  0  0  0  0  0
   10.1325    7.3467   -8.8671 H   0  0  0  0  0  0  0  0  0  0  0  0
  1  6  2  0
  2  3  2  0
  2  1  1  0
  3  4  1  0
  4  5  2  0
  6  5  1  0
  1  7  1  0
  3  8  1  0
  5  9  1  0
 10 11  1  0
 11 12  2  0
 12 13  1  0
 13 14  1  0
 13 15  2  0
 15 16  1  0
 16 17  2  0
 17 18  1  0
 17 11  1  0
 10 19  1  0
 12 20  1  0
 15 21  1  0
 16 22  1  0
 18 23  1  0
 18 24  1  0
 18 25  1  0
  2 10  1  0
M  END
>  <Score>  (1) 
-7.07973

$$$$

     RDKit          3D

 26 27  0  0  0  0  0  0  0  0999 V2000
   11.6896    9.2583   -4.3237 C   0  0  0  0  0  0  0  0  0  0  0  0
   11.3435    8.0918   -5.0388 C   0  0  0  0  0  0  0  0  0  0  0  0
   11.4159    6.8650   -4.3638 C   0  0  0  0  0  0  0  0  0  0  0  0
   11.8155    6.8701   -3.0585 N   0  0  0  0  0  0  0  0  0  0  0  0
   12.1396    8.0082   -2.4050 C   0  0  0  0  0  0  0  0  0  0  0  0
   12.0759    9.1946   -3.0373 N   0  0  0  0  0  0  0  0  0  0  0  0
   11.6184   10.1802   -4.8859 H   0  0  0  0  0  0  0  0  0  0  0  0
   11.1593    5.9672   -4.8821 H   0  0  0  0  0  0  0  0  0  0  0  0
   12.4539    8.0060   -1.3763 H   0  0  0  0  0  0  0  0  0  0  0  0
   10.9225    8.1552   -6.4384 C   0  0  0  0  0  0  0  0  0  0  0  0
    9.5056    7.6429   -6.5624 C   0  0  0  0  0  0  0  0  0  0  0  0
    9.0176    7.6936   -7.9849 C   0  0  0  0  0  0  0  0  0  0  0  0
    9.9802    6.8656   -8.8332 C   0  0  0  0  0  0  0  0  0  0  0  0
    9.5893    6.7637   -9.8452 H   0  0  0  0  0  0  0  0  0  0  0  0
   11.3177    7.5785   -8.7686 C   0  0  0  0  0  0  0  0  0  0  0  0
   11.8505    7.3933   -7.3669 C   0  0  0  0  0  0  0  0  0  0  0  0
   10.9388    9.2125   -6.7626 H   0  0  0  0  0  0  0  0  0  0  0  0
    8.8588    8.2709   -5.9304 H   0  0  0  0  0  0  0  0  0  0  0  0
    9.4479    6.6151   -6.2066 H   0  0  0  0  0  0  0  0  0  0  0  0
    7.9982    7.2862   -8.0088 H   0  0  0  0  0  0  0  0  0  0  0  0
    9.0707    8.7497   -8.3183 H   0  0  0  0  0  0  0  0  0  0  0  0
   10.0505    5.8672   -8.3252 H   0  0  0  0  0  0  0  0  0  0  0  0
   11.1291    8.6478   -8.9220 H   0  0  0  0  0  0  0  0  0  0  0  0
   12.0252    7.2285   -9.5404 H   0  0  0  0  0  0  0  0  0  0  0  0
   11.8222    6.3307   -7.0474 H   0  0  0  0  0  0  0  0  0  0  0  0
   12.8723    7.7587   -7.2394 H   0  0  0  0  0  0  0  0  0  0  0  0
  1  6  2  0
  2  3  2  0
  2  1  1  0
  3  4  1  0
  4  5  2  0
  6  5  1  0
  1  7  1  0
  3  8  1  0
  5  9  1  0
 10 11  1  0
 11 12  1  0
 12 13  1  0
 13 14  1  0
 13 15  1  0
 15 16  1  0
 16 10  1  0
 10 17  1  0
 11 18  1  0
 11 19  1  0
 12 20  1  0
 12 21  1  0
 13 22  1  0
 15 23  1  0
 15 24  1  0
 16 25  1  0
 16 26  1  0
  2 10  1  0
M  END
>  <Score>  (1) 
-7.07954

$$$$

     RDKit          3D

 24 25  0  0  0  0  0  0  0  0999 V2000
   12.3029    8.1253   -2.3007 C   0  0  0  0  0  0  0  0  0  0  0  0
   12.0204    6.8831   -2.9157 C   0  0  0  0  0  0  0  0  0  0  0  0
   11.5250    6.8955   -4.2231 C   0  0  0  0  0  0  0  0  0  0  0  0
   11.3434    8.1129   -4.8293 N   0  0  0  0  0  0  0  0  0  0  0  0
   11.6230    9.2749   -4.2137 C   0  0  0  0  0  0  0  0  0  0  0  0
   12.1004    9.2793   -2.9554 N   0  0  0  0  0  0  0  0  0  0  0  0
   12.6842    8.0631   -1.2889 H   0  0  0  0  0  0  0  0  0  0  0  0
   12.1754    5.9580   -2.4103 H   0  0  0  0  0  0  0  0  0  0  0  0
   11.2862    5.9919   -4.7581 H   0  0  0  0  0  0  0  0  0  0  0  0
   11.4118   10.5229   -4.9009 N   0  0  0  0  0  0  0  0  0  0  0  0
   11.5375   10.5765   -6.3063 C   0  0  0  0  0  0  0  0  0  0  0  0
   11.3337   11.7734   -6.9532 C   0  0  0  0  0  0  0  0  0  0  0  0
   11.4588   11.8132   -8.3208 C   0  0  0  0  0  0  0  0  0  0  0  0
   11.7813   10.6822   -9.0351 C   0  0  0  0  0  0  0  0  0  0  0  0
   11.9752    9.5104   -8.3443 C   0  0  0  0  0  0  0  0  0  0  0  0
   12.3241    8.2688   -9.0764 C   0  0  0  0  0  0  0  0  0  0  0  0
   11.8574    9.4555   -7.0175 N   0  0  0  0  0  0  0  0  0  0  0  0
   11.1718   11.3596   -4.3578 H   0  0  0  0  0  0  0  0  0  0  0  0
   11.0761   12.6740   -6.3764 H   0  0  0  0  0  0  0  0  0  0  0  0
   11.3012   12.7478   -8.8424 H   0  0  0  0  0  0  0  0  0  0  0  0
   11.8833   10.7003  -10.1180 H   0  0  0  0  0  0  0  0  0  0  0  0
   11.4040    7.7153   -9.3431 H   0  0  0  0  0  0  0  0  0  0  0  0
   12.8788    8.4934  -10.0241 H   0  0  0  0  0  0  0  0  0  0  0  0
   12.9840    7.6586   -8.4164 H   0  0  0  0  0  0  0  0  0  0  0  0
  2  1  2  0
  3  2  1  0
  4  3  2  0
  4  5  1  0
  5  6  2  0
  6  1  1  0
  1  7  1  0
  2  8  1  0
  3  9  1  0
 10 11  1  0
 11 12  2  0
 12 13  1  0
 13 14  2  0
 14 15  1  0
 15 16  1  0
 15 17  2  0
 17 11  1  0
 10 18  1  0
 12 19  1  0
 13 20  1  0
 14 21  1  0
 16 22  1  0
 16 23  1  0
 16 24  1  0
  5 10  1  0
M  END
>  <Score>  (1) 
-7.46893

$$$$

     RDKit          3D

 26 27  0  0  0  0  0  0  0  0999 V2000
   11.6893    9.2587   -4.3246 C   0  0  0  0  0  0  0  0  0  0  0  0
   11.3438    8.0885   -5.0368 C   0  0  0  0  0  0  0  0  0  0  0  0
   11.4149    6.8681   -4.3681 C   0  0  0  0  0  0  0  0  0  0  0  0
   11.8166    6.8709   -3.0551 N   0  0  0  0  0  0  0  0  0  0  0  0
   12.1392    8.0072   -2.4058 C   0  0  0  0  0  0  0  0  0  0  0  0
   12.0762    9.1946   -3.0364 N   0  0  0  0  0  0  0  0  0  0  0  0
   11.6213   10.1846   -4.8781 H   0  0  0  0  0  0  0  0  0  0  0  0
   11.1588    5.9575   -4.8802 H   0  0  0  0  0  0  0  0  0  0  0  0
   12.4558    8.0121   -1.3722 H   0  0  0  0  0  0  0  0  0  0  0  0
   11.5779    5.3504   -9.0839 H   0  0  0  0  0  0  0  0  0  0  0  0
   12.0956    6.3137   -9.2785 C   0  0  0  0  0  0  0  0  0  0  0  0
   11.4049    7.3722   -8.4680 C   0  0  1  0  0  0  0  0  0  0  0  0
   11.2692    6.9950   -7.1272 O   0  0  0  0  0  0  0  0  0  0  0  0
   10.9161    8.1583   -6.4600 C   0  0  2  0  0  0  0  0  0  0  0  0
   11.5971    9.3044   -7.1710 C   0  0  1  0  0  0  0  0  0  0  0  0
   12.4791    9.9810   -6.3367 O   0  0  0  0  0  0  0  0  0  0  0  0
   12.3005    8.6017   -8.3012 C   0  0  2  0  0  0  0  0  0  0  0  0
   12.3452    9.3555   -9.4609 O   0  0  0  0  0  0  0  0  0  0  0  0
   13.1541    6.2647   -8.9525 H   0  0  0  0  0  0  0  0  0  0  0  0
   11.9759    6.5527  -10.3371 H   0  0  0  0  0  0  0  0  0  0  0  0
   10.4117    7.6413   -8.8388 H   0  0  0  0  0  0  0  0  0  0  0  0
    9.8121    8.2358   -6.5117 H   0  0  0  0  0  0  0  0  0  0  0  0
   10.8105    9.9887   -7.5688 H   0  0  0  0  0  0  0  0  0  0  0  0
   13.3972    9.9922   -6.6750 H   0  0  0  0  0  0  0  0  0  0  0  0
   13.2694    8.2526   -7.9475 H   0  0  0  0  0  0  0  0  0  0  0  0
   13.1826    9.1203   -9.9350 H   0  0  0  0  0  0  0  0  0  0  0  0
  1  6  2  0
  2  3  2  0
  2  1  1  0
  3  4  1  0
  4  5  2  0
  6  5  1  0
  1  7  1  0
  3  8  1  0
  5  9  1  0
 10 11  1  0
 11 12  1  0
 12 13  1  0
 13 14  1  0
 14 15  1  0
 15 16  1  0
 15 17  1  0
 17 18  1  0
 17 12  1  0
 11 19  1  0
 11 20  1  0
 12 21  1  6
 14 22  1  1
 15 23  1  6
 16 24  1  0
 17 25  1  1
 18 26  1  0
  2 14  1  0
M  END
>  <Score>  (1) 
-7.0782

$$$$

     RDKit          3D

 24 25  0  0  0  0  0  0  0  0999 V2000
   11.6905    9.2521   -4.3187 C   0  0  0  0  0  0  0  0  0  0  0  0
   11.3434    8.0878   -5.0369 C   0  0  0  0  0  0  0  0  0  0  0  0
   11.4139    6.8689   -4.3727 C   0  0  0  0  0  0  0  0  0  0  0  0
   11.8172    6.8758   -3.0547 N   0  0  0  0  0  0  0  0  0  0  0  0
   12.1395    8.0050   -2.4037 C   0  0  0  0  0  0  0  0  0  0  0  0
   12.0755    9.1984   -3.0405 N   0  0  0  0  0  0  0  0  0  0  0  0
   11.6385   10.2220   -4.8362 H   0  0  0  0  0  0  0  0  0  0  0  0
   11.1814    5.9440   -4.8651 H   0  0  0  0  0  0  0  0  0  0  0  0
   12.4538    8.0264   -1.3823 H   0  0  0  0  0  0  0  0  0  0  0  0
    9.3985    3.5007   -6.2640 H   0  0  0  0  0  0  0  0  0  0  0  0
    9.5070    3.6459   -7.3323 C   0  0  0  0  0  0  0  0  0  0  0  0
    9.2273    2.6980   -8.0790 O   0  0  0  0  0  0  0  0  0  0  0  0
    9.9737    4.9443   -7.8129 C   0  0  0  0  0  0  0  0  0  0  0  0
   10.1451    5.2309   -9.1496 C   0  0  0  0  0  0  0  0  0  0  0  0
   10.5870    6.4642   -9.5826 C   0  0  0  0  0  0  0  0  0  0  0  0
   10.8636    7.4326   -8.6461 C   0  0  0  0  0  0  0  0  0  0  0  0
   10.7073    7.1946   -7.2757 C   0  0  0  0  0  0  0  0  0  0  0  0
   10.9812    8.2417   -6.3799 N   0  0  0  0  0  0  0  0  0  0  0  0
   10.2703    5.9684   -6.9062 C   0  0  0  0  0  0  0  0  0  0  0  0
    9.9235    4.4557   -9.8879 H   0  0  0  0  0  0  0  0  0  0  0  0
   10.7278    6.7114  -10.6159 H   0  0  0  0  0  0  0  0  0  0  0  0
   11.2158    8.4225   -8.9484 H   0  0  0  0  0  0  0  0  0  0  0  0
   10.9077    9.2357   -6.7541 H   0  0  0  0  0  0  0  0  0  0  0  0
   10.1124    5.7340   -5.8801 H   0  0  0  0  0  0  0  0  0  0  0  0
  1  6  2  0
  2  3  2  0
  2  1  1  0
  3  4  1  0
  4  5  2  0
  6  5  1  0
  1  7  1  0
  3  8  1  0
  5  9  1  0
 10 11  1  0
 11 12  2  0
 11 13  1  0
 13 14  2  0
 14 15  1  0
 15 16  2  0
 16 17  1  0
 17 18  1  0
 17 19  2  0
 19 13  1  0
 14 20  1  0
 15 21  1  0
 16 22  1  0
 18 23  1  0
 19 24  1  0
  2 18  1  0
M  END
>  <Score>  (1) 
-7.07719

$$$$

     RDKit          3D

 25 26  0  0  0  0  0  0  0  0999 V2000
   11.6900    9.2587   -4.3226 C   0  0  0  0  0  0  0  0  0  0  0  0
   11.3434    8.0909   -5.0390 C   0  0  0  0  0  0  0  0  0  0  0  0
   11.4157    6.8654   -4.3644 C   0  0  0  0  0  0  0  0  0  0  0  0
   11.8158    6.8707   -3.0577 N   0  0  0  0  0  0  0  0  0  0  0  0
   12.1395    8.0070   -2.4049 C   0  0  0  0  0  0  0  0  0  0  0  0
   12.0757    9.1953   -3.0384 N   0  0  0  0  0  0  0  0  0  0  0  0
   11.6354   10.2079   -4.8402 H   0  0  0  0  0  0  0  0  0  0  0  0
   11.1600    5.9635   -4.8784 H   0  0  0  0  0  0  0  0  0  0  0  0
   12.4533    7.9715   -1.3657 H   0  0  0  0  0  0  0  0  0  0  0  0
    8.8261    2.5642   -8.5421 H   0  0  0  0  0  0  0  0  0  0  0  0
    8.2694    3.3645   -8.1164 C   0  0  0  0  0  0  0  0  0  0  0  0
    7.0321    3.2736   -7.9713 O   0  0  0  0  0  0  0  0  0  0  0  0
    8.9379    4.5758   -7.6970 C   0  0  0  0  0  0  0  0  0  0  0  0
    8.2809    5.6502   -7.1390 C   0  0  0  0  0  0  0  0  0  0  0  0
    8.9033    6.8092   -6.7351 C   0  0  0  0  0  0  0  0  0  0  0  0
   10.2699    6.9055   -6.8973 C   0  0  0  0  0  0  0  0  0  0  0  0
   10.9188    8.1652   -6.4542 C   0  0  0  0  0  0  0  0  0  0  0  0
   10.9676    5.8537   -7.4516 C   0  0  0  0  0  0  0  0  0  0  0  0
   10.3117    4.7074   -7.8452 C   0  0  0  0  0  0  0  0  0  0  0  0
    7.2157    5.5681   -7.0156 H   0  0  0  0  0  0  0  0  0  0  0  0
    8.3311    7.6369   -6.2954 H   0  0  0  0  0  0  0  0  0  0  0  0
   10.1915    9.0071   -6.5764 H   0  0  0  0  0  0  0  0  0  0  0  0
   11.8017    8.4201   -7.0617 H   0  0  0  0  0  0  0  0  0  0  0  0
   12.0372    5.9744   -7.5591 H   0  0  0  0  0  0  0  0  0  0  0  0
   10.9070    3.9131   -8.2740 H   0  0  0  0  0  0  0  0  0  0  0  0
  1  6  2  0
  2  3  2  0
  2  1  1  0
  3  4  1  0
  4  5  2  0
  6  5  1  0
  1  7  1  0
  3  8  1  0
  5  9  1  0
 10 11  1  0
 11 12  2  0
 11 13  1  0
 13 14  2  0
 14 15  1  0
 15 16  2  0
 16 17  1  0
 16 18  1  0
 18 19  2  0
 19 13  1  0
 14 20  1  0
 15 21  1  0
 17 22  1  0
 17 23  1  0
 18 24  1  0
 19 25  1  0
  2 17  1  0
M  END
>  <Score>  (1) 
-7.07626

$$$$

     RDKit          3D

 25 26  0  0  0  0  0  0  0  0999 V2000
   11.6889    9.2513   -4.3231 C   0  0  0  0  0  0  0  0  0  0  0  0
   11.3434    8.0876   -5.0386 C   0  0  0  0  0  0  0  0  0  0  0  0
   11.4147    6.8744   -4.3700 C   0  0  0  0  0  0  0  0  0  0  0  0
   11.8174    6.8738   -3.0538 N   0  0  0  0  0  0  0  0  0  0  0  0
   12.1396    8.0069   -2.4052 C   0  0  0  0  0  0  0  0  0  0  0  0
   12.0760    9.1940   -3.0362 N   0  0  0  0  0  0  0  0  0  0  0  0
   11.6449   10.2155   -4.8107 H   0  0  0  0  0  0  0  0  0  0  0  0
   11.1622    5.9312   -4.8005 H   0  0  0  0  0  0  0  0  0  0  0  0
   12.4523    7.9435   -1.3604 H   0  0  0  0  0  0  0  0  0  0  0  0
   10.9161    8.1981   -6.3720 N   0  0  0  0  0  0  0  0  0  0  0  0
   10.4134    7.1933   -7.2096 C   0  0  0  0  0  0  0  0  0  0  0  0
   10.6265    5.8464   -7.0892 C   0  0  0  0  0  0  0  0  0  0  0  0
   10.0455    4.9713   -7.9679 C   0  0  0  0  0  0  0  0  0  0  0  0
    9.2345    5.3781   -8.9988 C   0  0  0  0  0  0  0  0  0  0  0  0
    8.4971    4.2544  -10.1157 S   0  0  0  0  0  6  0  0  0  0  0  0
    8.6902    4.7105  -11.3964 H   0  0  0  0  0  0  0  0  0  0  0  0
    9.0598    2.8900  -10.0012 O   0  0  0  0  0  0  0  0  0  0  0  0
    6.9968    4.2337   -9.8871 O   0  0  0  0  0  0  0  0  0  0  0  0
    9.0040    6.7257   -9.1440 C   0  0  0  0  0  0  0  0  0  0  0  0
    9.5880    7.5911   -8.2615 C   0  0  0  0  0  0  0  0  0  0  0  0
   10.9908    9.1816   -6.7872 H   0  0  0  0  0  0  0  0  0  0  0  0
   11.2863    5.5103   -6.2832 H   0  0  0  0  0  0  0  0  0  0  0  0
   10.2479    3.9159   -7.8253 H   0  0  0  0  0  0  0  0  0  0  0  0
    8.3648    7.0656   -9.9549 H   0  0  0  0  0  0  0  0  0  0  0  0
    9.3793    8.6575   -8.4114 H   0  0  0  0  0  0  0  0  0  0  0  0
  1  6  2  0
  2  3  2  0
  2  1  1  0
  3  4  1  0
  4  5  2  0
  6  5  1  0
  1  7  1  0
  3  8  1  0
  5  9  1  0
 10 11  1  0
 11 12  2  0
 12 13  1  0
 13 14  2  0
 14 15  1  0
 15 16  1  0
 15 17  2  0
 15 18  2  0
 14 19  1  0
 19 20  2  0
 20 11  1  0
 10 21  1  0
 12 22  1  0
 13 23  1  0
 19 24  1  0
 20 25  1  0
  2 10  1  0
M  END
>  <Score>  (1) 
-7.06654

$$$$

     RDKit          3D

 22 23  0  0  0  0  0  0  0  0999 V2000
   11.6871    9.2518   -4.3294 C   0  0  0  0  0  0  0  0  0  0  0  0
   11.3445    8.0953   -5.0370 C   0  0  0  0  0  0  0  0  0  0  0  0
   11.4167    6.8682   -4.3621 C   0  0  0  0  0  0  0  0  0  0  0  0
   11.8146    6.8708   -3.0615 N   0  0  0  0  0  0  0  0  0  0  0  0
   12.1404    8.0115   -2.4035 C   0  0  0  0  0  0  0  0  0  0  0  0
   12.0766    9.1904   -3.0336 N   0  0  0  0  0  0  0  0  0  0  0  0
   11.6536   10.2163   -4.7839 H   0  0  0  0  0  0  0  0  0  0  0  0
   11.1766    5.9393   -4.8154 H   0  0  0  0  0  0  0  0  0  0  0  0
   12.4519    7.9447   -1.3607 H   0  0  0  0  0  0  0  0  0  0  0  0
   10.9223    8.1293   -6.4300 C   0  0  0  0  0  0  0  0  0  0  0  0
   11.3363    9.0560   -7.3380 C   0  0  0  0  0  0  0  0  0  0  0  0
   10.9123    9.0633   -8.6733 C   0  0  0  0  0  0  0  0  0  0  0  0
   10.0352    8.0885   -9.0909 C   0  0  0  0  0  0  0  0  0  0  0  0
    9.6282    7.1601   -8.1575 C   0  0  0  0  0  0  0  0  0  0  0  0
    8.6790    6.0932   -8.5814 C   0  0  0  0  0  0  0  0  0  0  0  0
   10.0598    7.1892   -6.8844 N   0  0  0  0  0  0  0  0  0  0  0  0
   12.0267    9.8213   -7.0046 H   0  0  0  0  0  0  0  0  0  0  0  0
   11.2576    9.8090   -9.3664 H   0  0  0  0  0  0  0  0  0  0  0  0
    9.6833    8.0670  -10.1342 H   0  0  0  0  0  0  0  0  0  0  0  0
    9.3123    5.2256   -8.8983 H   0  0  0  0  0  0  0  0  0  0  0  0
    8.0621    6.5004   -9.3876 H   0  0  0  0  0  0  0  0  0  0  0  0
    8.0437    5.7860   -7.7021 H   0  0  0  0  0  0  0  0  0  0  0  0
  1  6  2  0
  2  3  2  0
  2  1  1  0
  3  4  1  0
  4  5  2  0
  6  5  1  0
  1  7  1  0
  3  8  1  0
  5  9  1  0
 10 11  2  0
 11 12  1  0
 12 13  2  0
 13 14  1  0
 14 15  1  0
 14 16  2  0
 16 10  1  0
 11 17  1  0
 12 18  1  0
 13 19  1  0
 15 20  1  0
 15 21  1  0
 15 22  1  0
  2 10  1  0
M  END
>  <Score>  (1) 
-7.06321

$$$$

     RDKit          3D

 29 30  0  0  0  0  0  0  0  0999 V2000
   11.6897    9.2572   -4.3230 C   0  0  0  0  0  0  0  0  0  0  0  0
   11.3434    8.0898   -5.0383 C   0  0  0  0  0  0  0  0  0  0  0  0
   11.4153    6.8679   -4.3665 C   0  0  0  0  0  0  0  0  0  0  0  0
   11.8163    6.8708   -3.0561 N   0  0  0  0  0  0  0  0  0  0  0  0
   12.1395    8.0065   -2.4048 C   0  0  0  0  0  0  0  0  0  0  0  0
   12.0758    9.1958   -3.0382 N   0  0  0  0  0  0  0  0  0  0  0  0
   11.6307   10.2043   -4.8542 H   0  0  0  0  0  0  0  0  0  0  0  0
   11.1574    5.9852   -4.8948 H   0  0  0  0  0  0  0  0  0  0  0  0
   12.4441    7.9017   -1.3709 H   0  0  0  0  0  0  0  0  0  0  0  0
   10.9384    8.1547   -6.3863 N   0  0  0  0  0  0  0  0  0  0  0  0
   11.7160    7.4395   -7.3811 C   0  0  0  0  0  0  0  0  0  0  0  0
   11.1269    7.6371   -8.7161 C   0  0  0  0  0  0  0  0  0  0  0  0
   10.1730    6.7659   -9.1733 C   0  0  0  0  0  0  0  0  0  0  0  0
    9.5958    6.9120  -10.4135 C   0  0  0  0  0  0  0  0  0  0  0  0
    9.9834    7.9596  -11.2201 C   0  0  0  0  0  0  0  0  0  0  0  0
    9.3837    8.0899  -12.4776 O   0  0  0  0  0  0  0  0  0  0  0  0
    9.8093    9.1810  -13.2788 C   0  0  0  0  0  0  0  0  0  0  0  0
   10.9416    8.8325  -10.7576 C   0  0  0  0  0  0  0  0  0  0  0  0
   11.5184    8.6840   -9.5147 C   0  0  0  0  0  0  0  0  0  0  0  0
   10.0973    8.7113   -6.6269 H   0  0  0  0  0  0  0  0  0  0  0  0
   12.7441    7.8566   -7.3360 H   0  0  0  0  0  0  0  0  0  0  0  0
   11.6856    6.3587   -7.1073 H   0  0  0  0  0  0  0  0  0  0  0  0
    9.8787    5.9369   -8.5127 H   0  0  0  0  0  0  0  0  0  0  0  0
    8.8364    6.1840  -10.7283 H   0  0  0  0  0  0  0  0  0  0  0  0
   10.8758    9.0852  -13.5815 H   0  0  0  0  0  0  0  0  0  0  0  0
    9.7370   10.1341  -12.6796 H   0  0  0  0  0  0  0  0  0  0  0  0
    9.2273    9.2649  -14.2076 H   0  0  0  0  0  0  0  0  0  0  0  0
   11.2559    9.6727  -11.3982 H   0  0  0  0  0  0  0  0  0  0  0  0
   12.2797    9.4057   -9.1874 H   0  0  0  0  0  0  0  0  0  0  0  0
  1  6  2  0
  2  3  2  0
  2  1  1  0
  3  4  1  0
  4  5  2  0
  6  5  1  0
  1  7  1  0
  3  8  1  0
  5  9  1  0
 10 11  1  0
 11 12  1  0
 12 13  2  0
 13 14  1  0
 14 15  2  0
 15 16  1  0
 16 17  1  0
 15 18  1  0
 18 19  2  0
 19 12  1  0
 10 20  1  0
 11 21  1  0
 11 22  1  0
 13 23  1  0
 14 24  1  0
 17 25  1  0
 17 26  1  0
 17 27  1  0
 18 28  1  0
 19 29  1  0
  2 10  1  0
M  END
>  <Score>  (1) 
-7.05836

$$$$

     RDKit          3D

 26 27  0  0  0  0  0  0  0  0999 V2000
   11.6901    9.2587   -4.3221 C   0  0  0  0  0  0  0  0  0  0  0  0
   11.3433    8.0904   -5.0391 C   0  0  0  0  0  0  0  0  0  0  0  0
   11.4157    6.8658   -4.3646 C   0  0  0  0  0  0  0  0  0  0  0  0
   11.8157    6.8702   -3.0578 N   0  0  0  0  0  0  0  0  0  0  0  0
   12.1396    8.0075   -2.4047 C   0  0  0  0  0  0  0  0  0  0  0  0
   12.0756    9.1954   -3.0387 N   0  0  0  0  0  0  0  0  0  0  0  0
   11.6162   10.1753   -4.8915 H   0  0  0  0  0  0  0  0  0  0  0  0
   11.1622    5.9325   -4.8603 H   0  0  0  0  0  0  0  0  0  0  0  0
   12.4563    8.0111   -1.3700 H   0  0  0  0  0  0  0  0  0  0  0  0
   11.7982    8.5694  -10.6078 H   0  0  0  0  0  0  0  0  0  0  0  0
   12.3564    8.6561   -9.6525 C   0  0  0  0  0  0  0  0  0  0  0  0
   11.4210    8.3139   -8.5423 C   0  0  2  0  0  0  0  0  0  0  0  0
   11.9111    8.6767   -7.2820 O   0  0  0  0  0  0  0  0  0  0  0  0
   10.9207    8.1310   -6.4360 C   0  0  1  0  0  0  0  0  0  0  0  0
   10.5270    6.8186   -7.0192 C   0  0  2  0  0  0  0  0  0  0  0  0
   10.8071    5.7291   -6.2347 O   0  0  0  0  0  0  0  0  0  0  0  0
   11.2667    6.8121   -8.3432 C   0  0  1  0  0  0  0  0  0  0  0  0
   10.5303    6.2242   -9.3603 O   0  0  0  0  0  0  0  0  0  0  0  0
   13.2137    7.9864   -9.7124 H   0  0  0  0  0  0  0  0  0  0  0  0
   12.6223    9.7326   -9.5509 H   0  0  0  0  0  0  0  0  0  0  0  0
   10.4177    8.7373   -8.6752 H   0  0  0  0  0  0  0  0  0  0  0  0
   10.0548    8.8205   -6.5249 H   0  0  0  0  0  0  0  0  0  0  0  0
    9.4369    6.7730   -7.2821 H   0  0  0  0  0  0  0  0  0  0  0  0
   10.8384    4.9325   -6.8261 H   0  0  0  0  0  0  0  0  0  0  0  0
   12.2386    6.3137   -8.1576 H   0  0  0  0  0  0  0  0  0  0  0  0
   10.6249    5.2601   -9.3077 H   0  0  0  0  0  0  0  0  0  0  0  0
  1  6  2  0
  2  3  2  0
  2  1  1  0
  3  4  1  0
  4  5  2  0
  6  5  1  0
  1  7  1  0
  3  8  1  0
  5  9  1  0
 10 11  1  0
 11 12  1  0
 12 13  1  0
 13 14  1  0
 14 15  1  0
 15 16  1  0
 15 17  1  0
 17 18  1  0
 17 12  1  0
 11 19  1  0
 11 20  1  0
 12 21  1  6
 14 22  1  1
 15 23  1  6
 16 24  1  0
 17 25  1  1
 18 26  1  0
  2 14  1  0
M  END
>  <Score>  (1) 
-7.05592

$$$$

     RDKit          3D

 27 28  0  0  0  0  0  0  0  0999 V2000
   11.6898    9.2581   -4.3230 C   0  0  0  0  0  0  0  0  0  0  0  0
   11.3435    8.0920   -5.0390 C   0  0  0  0  0  0  0  0  0  0  0  0
   11.4159    6.8648   -4.3635 C   0  0  0  0  0  0  0  0  0  0  0  0
   11.8155    6.8701   -3.0586 N   0  0  0  0  0  0  0  0  0  0  0  0
   12.1396    8.0078   -2.4048 C   0  0  0  0  0  0  0  0  0  0  0  0
   12.0757    9.1952   -3.0382 N   0  0  0  0  0  0  0  0  0  0  0  0
   11.6388   10.1959   -4.8251 H   0  0  0  0  0  0  0  0  0  0  0  0
   11.1596    5.9352   -4.8699 H   0  0  0  0  0  0  0  0  0  0  0  0
   12.4410    7.8990   -1.3803 H   0  0  0  0  0  0  0  0  0  0  0  0
   10.9251    8.1467   -6.4269 C   0  0  1  0  0  0  0  0  0  0  0  0
   11.7497    7.4144   -7.2911 O   0  0  0  0  0  0  0  0  0  0  0  0
   11.0788    7.2840   -8.4752 C   0  0  1  0  0  0  0  0  0  0  0  0
   11.2168    5.8958   -9.0797 C   0  0  0  0  0  0  0  0  0  0  0  0
   10.6913    4.9986   -8.1543 O   0  0  0  0  0  0  0  0  0  0  0  0
    9.6005    7.4775   -8.1943 C   0  0  2  0  0  0  0  0  0  0  0  0
    9.2636    8.7683   -8.5873 O   0  0  0  0  0  0  0  0  0  0  0  0
    9.5857    7.4437   -6.6787 C   0  0  2  0  0  0  0  0  0  0  0  0
    8.5305    8.1248   -6.1288 O   0  0  0  0  0  0  0  0  0  0  0  0
   10.8373    9.1838   -6.7492 H   0  0  0  0  0  0  0  0  0  0  0  0
   11.4660    8.0641   -9.1759 H   0  0  0  0  0  0  0  0  0  0  0  0
   10.5740    5.8300   -9.9815 H   0  0  0  0  0  0  0  0  0  0  0  0
   12.2384    5.6504   -9.3729 H   0  0  0  0  0  0  0  0  0  0  0  0
   10.9161    4.0664   -8.3322 H   0  0  0  0  0  0  0  0  0  0  0  0
    8.9761    6.7045   -8.6458 H   0  0  0  0  0  0  0  0  0  0  0  0
    9.9613    9.1954   -9.1456 H   0  0  0  0  0  0  0  0  0  0  0  0
    9.6465    6.3742   -6.3670 H   0  0  0  0  0  0  0  0  0  0  0  0
    7.9928    7.4545   -5.6000 H   0  0  0  0  0  0  0  0  0  0  0  0
  1  6  2  0
  2  3  2  0
  2  1  1  0
  3  4  1  0
  4  5  2  0
  6  5  1  0
  1  7  1  0
  3  8  1  0
  5  9  1  0
 10 11  1  0
 11 12  1  0
 12 13  1  0
 13 14  1  0
 12 15  1  0
 15 16  1  0
 15 17  1  0
 17 18  1  0
 17 10  1  0
 10 19  1  6
 12 20  1  6
 13 21  1  0
 13 22  1  0
 14 23  1  0
 15 24  1  6
 16 25  1  0
 17 26  1  6
 18 27  1  0
  2 10  1  0
M  END
>  <Score>  (1) 
-7.05096

$$$$

     RDKit          3D

 28 29  0  0  0  0  0  0  0  0999 V2000
   11.6898    9.2584   -4.3231 C   0  0  0  0  0  0  0  0  0  0  0  0
   11.3435    8.0920   -5.0389 C   0  0  0  0  0  0  0  0  0  0  0  0
   11.4159    6.8647   -4.3636 C   0  0  0  0  0  0  0  0  0  0  0  0
   11.8155    6.8701   -3.0585 N   0  0  0  0  0  0  0  0  0  0  0  0
   12.1396    8.0080   -2.4048 C   0  0  0  0  0  0  0  0  0  0  0  0
   12.0757    9.1949   -3.0380 N   0  0  0  0  0  0  0  0  0  0  0  0
   11.6211   10.1774   -4.8762 H   0  0  0  0  0  0  0  0  0  0  0  0
   11.1570    5.9724   -4.8916 H   0  0  0  0  0  0  0  0  0  0  0  0
   12.4563    7.9987   -1.3655 H   0  0  0  0  0  0  0  0  0  0  0  0
   10.9192    8.1370   -6.4429 C   0  0  1  0  0  0  0  0  0  0  0  0
    9.7716    7.1826   -6.7406 C   0  0  0  0  0  0  0  0  0  0  0  0
    9.7698    7.0486   -8.2679 C   0  0  0  0  0  0  0  0  0  0  0  0
    9.3636    8.4081   -8.8033 C   0  0  0  0  0  0  0  0  0  0  0  0
   10.3518    9.4639   -8.4209 C   0  0  0  0  0  0  0  0  0  0  0  0
   10.6149    9.5253   -6.9369 C   0  0  2  0  0  0  0  0  0  0  0  0
   11.8054   10.3290   -6.7040 N   0  0  0  0  0  0  0  0  0  0  0  0
   11.7793    7.7632   -7.0617 H   0  0  0  0  0  0  0  0  0  0  0  0
    8.8005    7.5942   -6.4605 H   0  0  0  0  0  0  0  0  0  0  0  0
   10.0024    6.2141   -6.2752 H   0  0  0  0  0  0  0  0  0  0  0  0
    9.0944    6.2711   -8.6184 H   0  0  0  0  0  0  0  0  0  0  0  0
   10.8447    6.8658   -8.5369 H   0  0  0  0  0  0  0  0  0  0  0  0
    8.3658    8.6700   -8.4115 H   0  0  0  0  0  0  0  0  0  0  0  0
    9.3603    8.3349   -9.9093 H   0  0  0  0  0  0  0  0  0  0  0  0
   11.3205    9.3269   -8.9559 H   0  0  0  0  0  0  0  0  0  0  0  0
    9.9105   10.4515   -8.7417 H   0  0  0  0  0  0  0  0  0  0  0  0
    9.7664    9.9928   -6.4012 H   0  0  0  0  0  0  0  0  0  0  0  0
   11.7994   11.2283   -7.1928 H   0  0  0  0  0  0  0  0  0  0  0  0
   12.6495    9.7463   -6.9210 H   0  0  0  0  0  0  0  0  0  0  0  0
  1  6  2  0
  2  3  2  0
  2  1  1  0
  3  4  1  0
  4  5  2  0
  6  5  1  0
  1  7  1  0
  3  8  1  0
  5  9  1  0
 10 11  1  0
 11 12  1  0
 12 13  1  0
 13 14  1  0
 14 15  1  0
 15 16  1  0
 15 10  1  0
 10 17  1  6
 11 18  1  0
 11 19  1  0
 12 20  1  0
 12 21  1  0
 13 22  1  0
 13 23  1  0
 14 24  1  0
 14 25  1  0
 15 26  1  1
 16 27  1  0
 16 28  1  0
  2 10  1  0
M  END
>  <Score>  (1) 
-7.05094

$$$$

     RDKit          3D

 19 20  0  0  0  0  0  0  0  0999 V2000
   11.6894    9.2578   -4.3241 C   0  0  0  0  0  0  0  0  0  0  0  0
   11.3436    8.0929   -5.0388 C   0  0  0  0  0  0  0  0  0  0  0  0
   11.4161    6.8643   -4.3629 C   0  0  0  0  0  0  0  0  0  0  0  0
   11.8152    6.8697   -3.0592 N   0  0  0  0  0  0  0  0  0  0  0  0
   12.1397    8.0089   -2.4049 C   0  0  0  0  0  0  0  0  0  0  0  0
   12.0760    9.1944   -3.0370 N   0  0  0  0  0  0  0  0  0  0  0  0
   11.6177   10.1729   -4.8857 H   0  0  0  0  0  0  0  0  0  0  0  0
   11.1591    5.9641   -4.8818 H   0  0  0  0  0  0  0  0  0  0  0  0
   12.4565    8.0170   -1.3716 H   0  0  0  0  0  0  0  0  0  0  0  0
   10.9295    8.1819   -6.4254 C   0  0  0  0  0  0  0  0  0  0  0  0
   10.8891    7.0560   -7.2110 C   0  0  0  0  0  0  0  0  0  0  0  0
   10.4905    7.1720   -8.5280 C   0  0  0  0  0  0  0  0  0  0  0  0
   10.1281    8.3770   -9.0951 C   0  0  0  0  0  0  0  0  0  0  0  0
   10.1769    9.4640   -8.3025 N   0  0  0  0  0  0  0  0  0  0  0  0
   10.5619    9.3775   -7.0157 C   0  0  0  0  0  0  0  0  0  0  0  0
   10.6123   10.4814   -6.2082 F   0  0  0  0  0  0  0  0  0  0  0  0
   11.1697    6.0757   -6.7990 H   0  0  0  0  0  0  0  0  0  0  0  0
   10.4467    6.2965   -9.1818 H   0  0  0  0  0  0  0  0  0  0  0  0
    9.8140    8.4698  -10.1323 H   0  0  0  0  0  0  0  0  0  0  0  0
  1  6  2  0
  2  3  2  0
  2  1  1  0
  3  4  1  0
  4  5  2  0
  6  5  1  0
  1  7  1  0
  3  8  1  0
  5  9  1  0
 10 11  2  0
 11 12  1  0
 12 13  2  0
 13 14  1  0
 14 15  2  0
 15 16  1  0
 15 10  1  0
 11 17  1  0
 12 18  1  0
 13 19  1  0
  2 10  1  0
M  END
>  <Score>  (1) 
-7.0459

$$$$

     RDKit          3D

 20 21  0  0  0  0  0  0  0  0999 V2000
   12.3027    8.1231   -2.3011 C   0  0  0  0  0  0  0  0  0  0  0  0
   12.0213    6.8829   -2.9132 C   0  0  0  0  0  0  0  0  0  0  0  0
   11.5244    6.8974   -4.2249 C   0  0  0  0  0  0  0  0  0  0  0  0
   11.3427    8.1094   -4.8308 N   0  0  0  0  0  0  0  0  0  0  0  0
   11.6238    9.2768   -4.2116 C   0  0  0  0  0  0  0  0  0  0  0  0
   12.1001    9.2814   -2.9564 N   0  0  0  0  0  0  0  0  0  0  0  0
   12.6846    8.0854   -1.2902 H   0  0  0  0  0  0  0  0  0  0  0  0
   12.1707    5.9554   -2.4222 H   0  0  0  0  0  0  0  0  0  0  0  0
   11.2872    6.0048   -4.7568 H   0  0  0  0  0  0  0  0  0  0  0  0
   11.4111   10.5023   -4.9006 N   0  0  0  0  0  0  0  0  0  0  0  0
   10.9086   10.4876   -6.2240 C   0  0  0  0  0  0  0  0  0  0  0  0
    9.7054   10.5106   -6.8530 C   0  0  0  0  0  0  0  0  0  0  0  0
    8.3339   10.5629   -6.4289 N   0  0  0  0  0  0  0  0  0  0  0  0
    8.1018   10.4551   -5.4181 H   0  0  0  0  0  0  0  0  0  0  0  0
   10.3154   10.4636   -8.0811 C   0  0  0  0  0  0  0  0  0  0  0  0
    9.9180   10.4492   -9.2556 O   0  0  0  0  0  0  0  0  0  0  0  0
   11.5390   10.4398   -7.4625 C   0  0  0  0  0  0  0  0  0  0  0  0
   12.7400   10.3930   -7.8782 O   0  0  0  0  0  0  0  0  0  0  0  0
   11.6282   11.4144   -4.4234 H   0  0  0  0  0  0  0  0  0  0  0  0
    7.5673   10.7046   -7.0972 H   0  0  0  0  0  0  0  0  0  0  0  0
  2  1  2  0
  3  2  1  0
  4  3  2  0
  4  5  1  0
  5  6  2  0
  6  1  1  0
  1  7  1  0
  2  8  1  0
  3  9  1  0
 10 11  1  0
 11 12  2  0
 12 13  1  0
 13 14  1  0
 12 15  1  0
 15 16  2  0
 15 17  1  0
 17 18  2  0
 17 11  1  0
 10 19  1  0
 13 20  1  0
  5 10  1  0
M  END
>  <Score>  (1) 
-7.46566

$$$$

     RDKit          3D

 26 28  0  0  0  0  0  0  0  0999 V2000
   12.3030    8.1225   -2.3002 C   0  0  0  0  0  0  0  0  0  0  0  0
   12.0212    6.8825   -2.9134 C   0  0  0  0  0  0  0  0  0  0  0  0
   11.5245    6.8972   -4.2246 C   0  0  0  0  0  0  0  0  0  0  0  0
   11.3433    8.1135   -4.8295 N   0  0  0  0  0  0  0  0  0  0  0  0
   11.6232    9.2729   -4.2130 C   0  0  0  0  0  0  0  0  0  0  0  0
   12.0998    9.2824   -2.9574 N   0  0  0  0  0  0  0  0  0  0  0  0
   12.6881    8.1373   -1.2864 H   0  0  0  0  0  0  0  0  0  0  0  0
   12.1856    5.9674   -2.3845 H   0  0  0  0  0  0  0  0  0  0  0  0
   11.3015    5.9710   -4.7155 H   0  0  0  0  0  0  0  0  0  0  0  0
   11.4251   10.5680   -4.8706 C   0  0  0  0  0  0  0  0  0  0  0  0
   11.1133   11.6924   -4.1220 C   0  0  0  0  0  0  0  0  0  0  0  0
   10.9280   12.9091   -4.7490 C   0  0  0  0  0  0  0  0  0  0  0  0
   11.0535   13.0116   -6.1329 C   0  0  0  0  0  0  0  0  0  0  0  0
   11.3635   11.9018   -6.8927 C   0  0  0  0  0  0  0  0  0  0  0  0
   11.5397   10.7129   -6.2353 C   0  0  0  0  0  0  0  0  0  0  0  0
   11.4868   12.0174   -8.2825 O   0  0  0  0  0  0  0  0  0  0  0  0
   11.8969   13.3061   -8.7540 C   0  0  0  0  0  0  0  0  0  0  0  0
   11.0081   14.3884   -8.1690 C   0  0  0  0  0  0  0  0  0  0  0  0
   10.8691   14.2345   -6.7802 O   0  0  0  0  0  0  0  0  0  0  0  0
   11.0165   11.6058   -3.0400 H   0  0  0  0  0  0  0  0  0  0  0  0
   10.6850   13.7838   -4.1622 H   0  0  0  0  0  0  0  0  0  0  0  0
   11.7848    9.8389   -6.8425 H   0  0  0  0  0  0  0  0  0  0  0  0
   12.9299   13.4958   -8.3907 H   0  0  0  0  0  0  0  0  0  0  0  0
   11.8529   13.3638   -9.8587 H   0  0  0  0  0  0  0  0  0  0  0  0
   10.0268   14.3384   -8.7024 H   0  0  0  0  0  0  0  0  0  0  0  0
   11.4794   15.3613   -8.4449 H   0  0  0  0  0  0  0  0  0  0  0  0
  2  1  2  0
  3  2  1  0
  4  3  2  0
  4  5  1  0
  5  6  2  0
  6  1  1  0
  1  7  1  0
  2  8  1  0
  3  9  1  0
 10 11  2  0
 11 12  1  0
 12 13  2  0
 13 14  1  0
 14 15  2  0
 14 16  1  0
 16 17  1  0
 17 18  1  0
 18 19  1  0
 15 10  1  0
 19 13  1  0
 11 20  1  0
 12 21  1  0
 15 22  1  0
 17 23  1  0
 17 24  1  0
 18 25  1  0
 18 26  1  0
  5 10  1  0
M  END
>  <Score>  (1) 
-8.30706

$$$$

     RDKit          3D

 24 25  0  0  0  0  0  0  0  0999 V2000
   11.6898    9.2584   -4.3229 C   0  0  0  0  0  0  0  0  0  0  0  0
   11.3435    8.0914   -5.0389 C   0  0  0  0  0  0  0  0  0  0  0  0
   11.4158    6.8652   -4.3641 C   0  0  0  0  0  0  0  0  0  0  0  0
   11.8156    6.8704   -3.0580 N   0  0  0  0  0  0  0  0  0  0  0  0
   12.1396    8.0076   -2.4049 C   0  0  0  0  0  0  0  0  0  0  0  0
   12.0757    9.1951   -3.0381 N   0  0  0  0  0  0  0  0  0  0  0  0
   11.6263   10.1933   -4.8650 H   0  0  0  0  0  0  0  0  0  0  0  0
   11.1653    5.9407   -4.8531 H   0  0  0  0  0  0  0  0  0  0  0  0
   12.4535    7.9775   -1.3674 H   0  0  0  0  0  0  0  0  0  0  0  0
   10.9472    8.1435   -6.3537 O   0  0  0  0  0  0  0  0  0  0  0  0
   11.7733    8.3485   -7.4272 C   0  0  0  0  0  0  0  0  0  0  0  0
   13.1391    8.5344   -7.3387 C   0  0  0  0  0  0  0  0  0  0  0  0
   13.9165    8.7367   -8.4627 C   0  0  0  0  0  0  0  0  0  0  0  0
   13.3330    8.7574   -9.7187 C   0  0  0  0  0  0  0  0  0  0  0  0
   11.9749    8.5750   -9.8368 C   0  0  0  0  0  0  0  0  0  0  0  0
   11.2122    8.3727   -8.6864 C   0  0  0  0  0  0  0  0  0  0  0  0
    9.7419    8.1822   -8.8982 C   0  0  0  0  0  0  0  0  0  0  0  0
   13.5600    8.5115   -6.3362 H   0  0  0  0  0  0  0  0  0  0  0  0
   14.9759    8.8764   -8.3411 H   0  0  0  0  0  0  0  0  0  0  0  0
   13.9447    8.9176  -10.6163 H   0  0  0  0  0  0  0  0  0  0  0  0
   11.5140    8.5909  -10.8228 H   0  0  0  0  0  0  0  0  0  0  0  0
    9.2674    8.0113   -7.9332 H   0  0  0  0  0  0  0  0  0  0  0  0
    9.3333    9.0602   -9.4513 H   0  0  0  0  0  0  0  0  0  0  0  0
    9.6566    7.2878   -9.5803 H   0  0  0  0  0  0  0  0  0  0  0  0
  1  6  2  0
  2  3  2  0
  2  1  1  0
  3  4  1  0
  4  5  2  0
  6  5  1  0
  1  7  1  0
  3  8  1  0
  5  9  1  0
 10 11  1  0
 11 12  2  0
 12 13  1  0
 13 14  2  0
 14 15  1  0
 15 16  2  0
 16 17  1  0
 16 11  1  0
 12 18  1  0
 13 19  1  0
 14 20  1  0
 15 21  1  0
 17 22  1  0
 17 23  1  0
 17 24  1  0
  2 10  1  0
M  END
>  <Score>  (1) 
-7.0451

$$$$

     RDKit          3D

 30 31  0  0  0  0  0  0  0  0999 V2000
   11.6905    9.2553   -4.3196 C   0  0  0  0  0  0  0  0  0  0  0  0
   11.3424    8.0882   -5.0411 C   0  0  0  0  0  0  0  0  0  0  0  0
   11.4159    6.8716   -4.3660 C   0  0  0  0  0  0  0  0  0  0  0  0
   11.8170    6.8722   -3.0543 N   0  0  0  0  0  0  0  0  0  0  0  0
   12.1389    8.0036   -2.4058 C   0  0  0  0  0  0  0  0  0  0  0  0
   12.0753    9.1970   -3.0403 N   0  0  0  0  0  0  0  0  0  0  0  0
   11.6397   10.2093   -4.8269 H   0  0  0  0  0  0  0  0  0  0  0  0
   11.1780    5.9519   -4.8260 H   0  0  0  0  0  0  0  0  0  0  0  0
   12.4439    7.9015   -1.3712 H   0  0  0  0  0  0  0  0  0  0  0  0
   10.9438    8.1707   -6.3927 N   0  0  0  0  0  0  0  0  0  0  0  0
   11.7804    8.6248   -7.4694 C   0  0  2  0  0  0  0  0  0  0  0  0
   11.0079    8.6439   -8.7826 C   0  0  0  0  0  0  0  0  0  0  0  0
   11.8063    9.1728   -9.9241 C   0  0  0  0  0  0  0  0  0  0  0  0
   13.0416    8.3544  -10.0844 C   0  0  0  0  0  0  0  0  0  0  0  0
   13.0888    7.2238   -9.0933 C   0  0  0  0  0  0  0  0  0  0  0  0
   12.9816    7.7563   -7.6915 C   0  0  2  0  0  0  0  0  0  0  0  0
   13.0414    6.6202   -6.7959 N   0  0  0  0  0  0  0  0  0  0  0  0
    9.9685    7.8805   -6.6282 H   0  0  0  0  0  0  0  0  0  0  0  0
   12.0717    9.6551   -7.2640 H   0  0  0  0  0  0  0  0  0  0  0  0
   10.0943    9.2725   -8.6864 H   0  0  0  0  0  0  0  0  0  0  0  0
   10.6566    7.6265   -9.0362 H   0  0  0  0  0  0  0  0  0  0  0  0
   11.1775    9.0486  -10.8356 H   0  0  0  0  0  0  0  0  0  0  0  0
   12.0038   10.2640   -9.8594 H   0  0  0  0  0  0  0  0  0  0  0  0
   13.0774    7.9412  -11.1115 H   0  0  0  0  0  0  0  0  0  0  0  0
   13.9710    8.9556   -9.9673 H   0  0  0  0  0  0  0  0  0  0  0  0
   14.0991    6.7214   -9.1440 H   0  0  0  0  0  0  0  0  0  0  0  0
   12.3060    6.4707   -9.2518 H   0  0  0  0  0  0  0  0  0  0  0  0
   13.8856    8.3617   -7.5078 H   0  0  0  0  0  0  0  0  0  0  0  0
   14.0338    6.4245   -6.4956 H   0  0  0  0  0  0  0  0  0  0  0  0
   12.6676    5.7484   -7.2374 H   0  0  0  0  0  0  0  0  0  0  0  0
  1  6  2  0
  2  3  2  0
  2  1  1  0
  3  4  1  0
  4  5  2  0
  6  5  1  0
  1  7  1  0
  3  8  1  0
  5  9  1  0
 10 11  1  0
 11 12  1  0
 12 13  1  0
 13 14  1  0
 14 15  1  0
 15 16  1  0
 16 17  1  0
 16 11  1  0
 10 18  1  0
 11 19  1  1
 12 20  1  0
 12 21  1  0
 13 22  1  0
 13 23  1  0
 14 24  1  0
 14 25  1  0
 15 26  1  0
 15 27  1  0
 16 28  1  1
 17 29  1  0
 17 30  1  0
  2 10  1  0
M  END
>  <Score>  (1) 
-7.04265

$$$$

     RDKit          3D

 32 34  0  0  0  0  0  0  0  0999 V2000
   11.6893    9.2568   -4.3241 C   0  0  0  0  0  0  0  0  0  0  0  0
   11.3437    8.0899   -5.0374 C   0  0  0  0  0  0  0  0  0  0  0  0
   11.4151    6.8684   -4.3675 C   0  0  0  0  0  0  0  0  0  0  0  0
   11.8165    6.8709   -3.0554 N   0  0  0  0  0  0  0  0  0  0  0  0
   12.1395    8.0064   -2.4049 C   0  0  0  0  0  0  0  0  0  0  0  0
   12.0759    9.1957   -3.0377 N   0  0  0  0  0  0  0  0  0  0  0  0
   11.6193   10.1749   -4.8812 H   0  0  0  0  0  0  0  0  0  0  0  0
   11.1604    5.9739   -4.8808 H   0  0  0  0  0  0  0  0  0  0  0  0
   12.4488    7.9451   -1.3712 H   0  0  0  0  0  0  0  0  0  0  0  0
   10.9203    8.1910   -6.4586 C   0  0  1  0  0  0  0  0  0  0  0  0
   11.5269    9.3691   -7.1481 C   0  0  0  0  0  0  0  0  0  0  0  0
   10.8262   10.2432   -7.1306 H   0  0  0  0  0  0  0  0  0  0  0  0
   11.9650    9.1525   -8.5402 C   0  0  0  0  0  0  0  0  0  0  0  0
   12.3661    7.7561   -8.8867 C   0  0  2  0  0  0  0  0  0  0  0  0
   11.1710    7.0813   -9.5715 C   0  0  0  0  0  0  0  0  0  0  0  0
   10.2572    6.8589   -8.3866 C   0  0  0  0  0  0  0  0  0  0  0  0
   11.1815    6.8858   -7.1943 C   0  0  1  0  0  0  0  0  0  0  0  0
   12.5324    6.9590   -7.7052 N   0  0  0  0  0  0  0  0  0  0  0  0
   13.1154    5.6833   -7.9689 C   0  0  0  0  0  0  0  0  0  0  0  0
    9.8183    8.3225   -6.4524 H   0  0  0  0  0  0  0  0  0  0  0  0
   12.4013    9.7034   -6.5178 H   0  0  0  0  0  0  0  0  0  0  0  0
   12.8626    9.8086   -8.7378 H   0  0  0  0  0  0  0  0  0  0  0  0
   11.2096    9.4861   -9.2967 H   0  0  0  0  0  0  0  0  0  0  0  0
   13.2042    7.6940   -9.5859 H   0  0  0  0  0  0  0  0  0  0  0  0
   11.4555    6.1021   -9.9919 H   0  0  0  0  0  0  0  0  0  0  0  0
   10.7227    7.7600  -10.3199 H   0  0  0  0  0  0  0  0  0  0  0  0
    9.6763    5.9233   -8.4620 H   0  0  0  0  0  0  0  0  0  0  0  0
    9.5263    7.7039   -8.3758 H   0  0  0  0  0  0  0  0  0  0  0  0
   11.0095    6.0362   -6.5245 H   0  0  0  0  0  0  0  0  0  0  0  0
   13.5495    5.2749   -7.0245 H   0  0  0  0  0  0  0  0  0  0  0  0
   13.9934    5.8479   -8.6595 H   0  0  0  0  0  0  0  0  0  0  0  0
   12.4528    4.9680   -8.4755 H   0  0  0  0  0  0  0  0  0  0  0  0
  1  6  2  0
  2  3  2  0
  2  1  1  0
  3  4  1  0
  4  5  2  0
  6  5  1  0
  1  7  1  0
  3  8  1  0
  5  9  1  0
 10 11  1  0
 11 12  1  0
 11 13  1  0
 13 14  1  0
 14 15  1  0
 15 16  1  0
 16 17  1  0
 17 18  1  0
 18 19  1  0
 17 10  1  0
 18 14  1  0
 10 20  1  1
 11 21  1  0
 13 22  1  0
 13 23  1  0
 14 24  1  6
 15 25  1  0
 15 26  1  0
 16 27  1  0
 16 28  1  0
 17 29  1  1
 19 30  1  0
 19 31  1  0
 19 32  1  0
  2 10  1  0
M  END
>  <Score>  (1) 
-7.03791

$$$$

     RDKit          3D

 30 31  0  0  0  0  0  0  0  0999 V2000
   11.6876    9.2519   -4.3281 C   0  0  0  0  0  0  0  0  0  0  0  0
   11.3441    8.0922   -5.0367 C   0  0  0  0  0  0  0  0  0  0  0  0
   11.4154    6.8710   -4.3675 C   0  0  0  0  0  0  0  0  0  0  0  0
   11.8162    6.8694   -3.0560 N   0  0  0  0  0  0  0  0  0  0  0  0
   12.1398    8.0086   -2.4044 C   0  0  0  0  0  0  0  0  0  0  0  0
   12.0768    9.1949   -3.0344 N   0  0  0  0  0  0  0  0  0  0  0  0
   11.6611   10.2175   -4.7810 H   0  0  0  0  0  0  0  0  0  0  0  0
   11.1624    5.9536   -4.8676 H   0  0  0  0  0  0  0  0  0  0  0  0
   12.4469    7.9124   -1.3651 H   0  0  0  0  0  0  0  0  0  0  0  0
   10.9293    8.1372   -6.3806 N   0  0  0  0  0  0  0  0  0  0  0  0
   11.4488    8.9965   -7.3918 C   0  0  1  0  0  0  0  0  0  0  0  0
   10.8545    8.6940   -8.7446 C   0  0  0  0  0  0  0  0  0  0  0  0
   10.8835    9.8289   -9.7000 C   0  0  0  0  0  0  0  0  0  0  0  0
   11.7914   10.9488   -9.4205 C   0  0  0  0  0  0  0  0  0  0  0  0
   12.1777   11.1890   -8.0076 C   0  0  0  0  0  0  0  0  0  0  0  0
   11.1816   10.4635   -7.1223 C   0  0  1  0  0  0  0  0  0  0  0  0
    9.8217   10.8268   -7.5192 N   0  0  0  0  0  0  0  0  0  0  0  0
   10.1573    7.4696   -6.6735 H   0  0  0  0  0  0  0  0  0  0  0  0
   12.5437    8.8692   -7.4614 H   0  0  0  0  0  0  0  0  0  0  0  0
    9.8203    8.3189   -8.5523 H   0  0  0  0  0  0  0  0  0  0  0  0
   11.4150    7.8216   -9.1460 H   0  0  0  0  0  0  0  0  0  0  0  0
    9.8445   10.2123   -9.8179 H   0  0  0  0  0  0  0  0  0  0  0  0
   11.1411    9.4125  -10.7197 H   0  0  0  0  0  0  0  0  0  0  0  0
   12.7519   10.8469  -10.0113 H   0  0  0  0  0  0  0  0  0  0  0  0
   11.3612   11.9189   -9.8144 H   0  0  0  0  0  0  0  0  0  0  0  0
   13.1700   10.7181   -7.8041 H   0  0  0  0  0  0  0  0  0  0  0  0
   12.2369   12.2600   -7.7802 H   0  0  0  0  0  0  0  0  0  0  0  0
   11.2809   10.7681   -6.0849 H   0  0  0  0  0  0  0  0  0  0  0  0
    9.1691   10.0206   -7.3997 H   0  0  0  0  0  0  0  0  0  0  0  0
    9.4491   11.6030   -6.9256 H   0  0  0  0  0  0  0  0  0  0  0  0
  1  6  2  0
  2  3  2  0
  2  1  1  0
  3  4  1  0
  4  5  2  0
  6  5  1  0
  1  7  1  0
  3  8  1  0
  5  9  1  0
 10 11  1  0
 11 12  1  0
 12 13  1  0
 13 14  1  0
 14 15  1  0
 15 16  1  0
 16 17  1  0
 16 11  1  0
 10 18  1  0
 11 19  1  6
 12 20  1  0
 12 21  1  0
 13 22  1  0
 13 23  1  0
 14 24  1  0
 14 25  1  0
 15 26  1  0
 15 27  1  0
 16 28  1  1
 17 29  1  0
 17 30  1  0
  2 10  1  0
M  END
>  <Score>  (1) 
-7.03761

$$$$

     RDKit          3D

 25 27  0  0  0  0  0  0  0  0999 V2000
   11.6887    9.2530   -4.3246 C   0  0  0  0  0  0  0  0  0  0  0  0
   11.3431    8.0979   -5.0424 C   0  0  0  0  0  0  0  0  0  0  0  0
   11.4173    6.8625   -4.3583 C   0  0  0  0  0  0  0  0  0  0  0  0
   11.8146    6.8713   -3.0619 N   0  0  0  0  0  0  0  0  0  0  0  0
   12.1399    8.0099   -2.4045 C   0  0  0  0  0  0  0  0  0  0  0  0
   12.0764    9.1933   -3.0352 N   0  0  0  0  0  0  0  0  0  0  0  0
   11.6266   10.1828   -4.8595 H   0  0  0  0  0  0  0  0  0  0  0  0
   11.1595    5.9605   -4.8799 H   0  0  0  0  0  0  0  0  0  0  0  0
   12.4426    7.9038   -1.3766 H   0  0  0  0  0  0  0  0  0  0  0  0
   10.9352    8.1520   -6.3979 N   0  0  0  0  0  0  0  0  0  0  0  0
    9.7769    8.9279   -6.7459 C   0  0  0  0  0  0  0  0  0  0  0  0
    9.5759    9.1603   -8.1950 C   0  0  0  0  0  0  0  0  0  0  0  0
   10.0917    8.1556   -9.0656 N   0  0  0  0  0  0  0  0  0  0  0  0
    9.7564    7.8151  -10.3221 C   0  0  0  0  0  0  0  0  0  0  0  0
    8.9912    8.2482  -10.9692 H   0  0  0  0  0  0  0  0  0  0  0  0
   10.5445    6.7969  -10.7046 N   0  0  0  0  0  0  0  0  0  0  0  0
   11.3404    6.5217   -9.7097 N   0  0  0  0  0  0  0  0  0  0  0  0
   11.0911    7.3342   -8.6891 C   0  0  0  0  0  0  0  0  0  0  0  0
   11.7259    7.4091   -7.3551 C   0  0  0  0  0  0  0  0  0  0  0  0
    9.9219    9.9390   -6.2624 H   0  0  0  0  0  0  0  0  0  0  0  0
    8.8983    8.4221   -6.2565 H   0  0  0  0  0  0  0  0  0  0  0  0
    9.9409   10.1771   -8.5034 H   0  0  0  0  0  0  0  0  0  0  0  0
    8.4627    9.2100   -8.3775 H   0  0  0  0  0  0  0  0  0  0  0  0
   12.7513    7.8148   -7.4548 H   0  0  0  0  0  0  0  0  0  0  0  0
   11.8577    6.3460   -7.0101 H   0  0  0  0  0  0  0  0  0  0  0  0
  1  6  2  0
  2  3  2  0
  2  1  1  0
  3  4  1  0
  4  5  2  0
  6  5  1  0
  1  7  1  0
  3  8  1  0
  5  9  1  0
 10 11  1  0
 11 12  1  0
 12 13  1  0
 13 14  1  0
 14 15  1  0
 14 16  2  0
 16 17  1  0
 17 18  2  0
 18 19  1  0
 19 10  1  0
 18 13  1  0
 11 20  1  0
 11 21  1  0
 12 22  1  0
 12 23  1  0
 19 24  1  0
 19 25  1  0
  2 10  1  0
M  END
>  <Score>  (1) 
-7.03683

$$$$

     RDKit          3D

 22 23  0  0  0  0  0  0  0  0999 V2000
   11.6882    9.2550   -4.3275 C   0  0  0  0  0  0  0  0  0  0  0  0
   11.3440    8.0974   -5.0386 C   0  0  0  0  0  0  0  0  0  0  0  0
   11.4169    6.8619   -4.3595 C   0  0  0  0  0  0  0  0  0  0  0  0
   11.8141    6.8689   -3.0628 N   0  0  0  0  0  0  0  0  0  0  0  0
   12.1400    8.0116   -2.4045 C   0  0  0  0  0  0  0  0  0  0  0  0
   12.0767    9.1931   -3.0341 N   0  0  0  0  0  0  0  0  0  0  0  0
   11.6559   10.2226   -4.8144 H   0  0  0  0  0  0  0  0  0  0  0  0
   11.1620    5.9382   -4.8637 H   0  0  0  0  0  0  0  0  0  0  0  0
   12.4438    7.9132   -1.3751 H   0  0  0  0  0  0  0  0  0  0  0  0
   11.0412   10.6653   -5.3550 H   0  0  0  0  0  0  0  0  0  0  0  0
   10.8041   10.6018   -6.3977 C   0  0  0  0  0  0  0  0  0  0  0  0
   10.5940   11.6346   -7.0772 O   0  0  0  0  0  0  0  0  0  0  0  0
   10.7172    9.3097   -7.0576 C   0  0  0  0  0  0  0  0  0  0  0  0
   10.3589    9.2480   -8.4107 C   0  0  0  0  0  0  0  0  0  0  0  0
   10.2321    8.0659   -9.0879 C   0  0  0  0  0  0  0  0  0  0  0  0
   10.4557    6.8687   -8.4547 C   0  0  0  0  0  0  0  0  0  0  0  0
   10.8087    6.9057   -7.1278 C   0  0  0  0  0  0  0  0  0  0  0  0
   10.9412    8.1062   -6.4280 C   0  0  0  0  0  0  0  0  0  0  0  0
   10.1779   10.1909   -8.9281 H   0  0  0  0  0  0  0  0  0  0  0  0
    9.9558    8.0622  -10.1237 H   0  0  0  0  0  0  0  0  0  0  0  0
   10.3539    5.9134   -8.9977 H   0  0  0  0  0  0  0  0  0  0  0  0
   10.9933    5.9746   -6.5954 H   0  0  0  0  0  0  0  0  0  0  0  0
  1  6  2  0
  2  3  2  0
  2  1  1  0
  3  4  1  0
  4  5  2  0
  6  5  1  0
  1  7  1  0
  3  8  1  0
  5  9  1  0
 10 11  1  0
 11 12  2  0
 11 13  1  0
 13 14  2  0
 14 15  1  0
 15 16  2  0
 16 17  1  0
 17 18  2  0
 18 13  1  0
 14 19  1  0
 15 20  1  0
 16 21  1  0
 17 22  1  0
  2 18  1  0
M  END
>  <Score>  (1) 
-7.02792

$$$$

     RDKit          3D

 26 27  0  0  0  0  0  0  0  0999 V2000
   11.6895    9.2580   -4.3239 C   0  0  0  0  0  0  0  0  0  0  0  0
   11.3436    8.0925   -5.0388 C   0  0  0  0  0  0  0  0  0  0  0  0
   11.4160    6.8646   -4.3631 C   0  0  0  0  0  0  0  0  0  0  0  0
   11.8153    6.8701   -3.0590 N   0  0  0  0  0  0  0  0  0  0  0  0
   12.1397    8.0083   -2.4048 C   0  0  0  0  0  0  0  0  0  0  0  0
   12.0759    9.1946   -3.0373 N   0  0  0  0  0  0  0  0  0  0  0  0
   11.6325   10.2003   -4.8472 H   0  0  0  0  0  0  0  0  0  0  0  0
   11.1596    5.9445   -4.8731 H   0  0  0  0  0  0  0  0  0  0  0  0
   12.4524    7.9559   -1.3634 H   0  0  0  0  0  0  0  0  0  0  0  0
   10.9499    8.1623   -6.3516 O   0  0  0  0  0  0  0  0  0  0  0  0
   11.8601    8.3835   -7.3658 C   0  0  0  0  0  0  0  0  0  0  0  0
   13.1916    8.5364   -7.0428 C   0  0  0  0  0  0  0  0  0  0  0  0
   14.0790    8.7559   -8.0714 C   0  0  0  0  0  0  0  0  0  0  0  0
   13.7043    8.8295   -9.3972 C   0  0  0  0  0  0  0  0  0  0  0  0
   14.8759    9.1125  -10.6821 S   0  0  0  0  0  6  0  0  0  0  0  0
   14.4035    8.3791  -11.8925 O   0  0  0  0  0  0  0  0  0  0  0  0
   16.2222    8.6015  -10.2131 O   0  0  0  0  0  0  0  0  0  0  0  0
   15.0337   10.8002  -10.9454 N   0  0  0  0  0  0  0  0  0  0  0  0
   15.5217   10.9316  -11.8685 H   0  0  0  0  0  0  0  0  0  0  0  0
   12.3555    8.6705   -9.6800 C   0  0  0  0  0  0  0  0  0  0  0  0
   11.4309    8.4492   -8.6866 C   0  0  0  0  0  0  0  0  0  0  0  0
   13.5414    8.4863   -6.0026 H   0  0  0  0  0  0  0  0  0  0  0  0
   15.1430    8.8837   -7.8729 H   0  0  0  0  0  0  0  0  0  0  0  0
   14.0566   11.1752  -11.0924 H   0  0  0  0  0  0  0  0  0  0  0  0
   11.9951    8.7171  -10.6986 H   0  0  0  0  0  0  0  0  0  0  0  0
   10.3715    8.3197   -8.8609 H   0  0  0  0  0  0  0  0  0  0  0  0
  1  6  2  0
  2  3  2  0
  2  1  1  0
  3  4  1  0
  4  5  2  0
  6  5  1  0
  1  7  1  0
  3  8  1  0
  5  9  1  0
 10 11  1  0
 11 12  2  0
 12 13  1  0
 13 14  2  0
 14 15  1  0
 15 16  2  0
 15 17  2  0
 15 18  1  0
 18 19  1  0
 14 20  1  0
 20 21  2  0
 21 11  1  0
 12 22  1  0
 13 23  1  0
 18 24  1  0
 20 25  1  0
 21 26  1  0
  2 10  1  0
M  END
>  <Score>  (1) 
-7.02127

$$$$

     RDKit          3D

 28 29  0  0  0  0  0  0  0  0999 V2000
   11.6892    9.2575   -4.3246 C   0  0  0  0  0  0  0  0  0  0  0  0
   11.3437    8.0935   -5.0390 C   0  0  0  0  0  0  0  0  0  0  0  0
   11.4162    6.8640   -4.3624 C   0  0  0  0  0  0  0  0  0  0  0  0
   11.8150    6.8695   -3.0597 N   0  0  0  0  0  0  0  0  0  0  0  0
   12.1398    8.0095   -2.4049 C   0  0  0  0  0  0  0  0  0  0  0  0
   12.0761    9.1941   -3.0365 N   0  0  0  0  0  0  0  0  0  0  0  0
   11.6244   10.1783   -4.8658 H   0  0  0  0  0  0  0  0  0  0  0  0
   11.1571    5.9659   -4.8887 H   0  0  0  0  0  0  0  0  0  0  0  0
   12.4567    8.0192   -1.3716 H   0  0  0  0  0  0  0  0  0  0  0  0
   10.9279    8.1708   -6.4266 C   0  0  0  0  0  0  0  0  0  0  0  0
   10.5987    7.0075   -7.0879 C   0  0  0  0  0  0  0  0  0  0  0  0
   10.1928    7.0219   -8.4207 C   0  0  0  0  0  0  0  0  0  0  0  0
    9.7639    5.5807   -9.3091 Cl  0  0  0  0  0  0  0  0  0  0  0  0
   10.1203    8.2228   -9.0869 C   0  0  0  0  0  0  0  0  0  0  0  0
    9.7279    8.2725  -10.3883 O   0  0  0  0  0  0  0  0  0  0  0  0
    9.6085    9.4079  -11.1847 C   0  0  0  0  0  0  0  0  0  0  0  0
   10.4454    9.4068   -8.4461 C   0  0  0  0  0  0  0  0  0  0  0  0
   10.8504    9.3674   -7.1076 C   0  0  0  0  0  0  0  0  0  0  0  0
   11.1761   10.5465   -6.4632 O   0  0  0  0  0  0  0  0  0  0  0  0
   11.0973   11.7719   -7.1589 C   0  0  0  0  0  0  0  0  0  0  0  0
   10.6380    6.0374   -6.6128 H   0  0  0  0  0  0  0  0  0  0  0  0
    9.7276    9.2017  -12.2707 H   0  0  0  0  0  0  0  0  0  0  0  0
    8.6961   10.0072  -10.9910 H   0  0  0  0  0  0  0  0  0  0  0  0
   10.4795   10.0823  -10.9317 H   0  0  0  0  0  0  0  0  0  0  0  0
   10.4077   10.3738   -8.9150 H   0  0  0  0  0  0  0  0  0  0  0  0
   11.4708   12.5994   -6.5085 H   0  0  0  0  0  0  0  0  0  0  0  0
   10.0582   12.0355   -7.4435 H   0  0  0  0  0  0  0  0  0  0  0  0
   11.7493   11.7349   -8.0511 H   0  0  0  0  0  0  0  0  0  0  0  0
  1  6  2  0
  2  3  2  0
  2  1  1  0
  3  4  1  0
  4  5  2  0
  6  5  1  0
  1  7  1  0
  3  8  1  0
  5  9  1  0
 10 11  2  0
 11 12  1  0
 12 13  1  0
 12 14  2  0
 14 15  1  0
 15 16  1  0
 14 17  1  0
 17 18  2  0
 18 19  1  0
 19 20  1  0
 18 10  1  0
 11 21  1  0
 16 22  1  0
 16 23  1  0
 16 24  1  0
 17 25  1  0
 20 26  1  0
 20 27  1  0
 20 28  1  0
  2 10  1  0
M  END
>  <Score>  (1) 
-7.01852

$$$$

     RDKit          3D

 23 25  0  0  0  0  0  0  0  0999 V2000
   11.6888    9.2570   -4.3257 C   0  0  0  0  0  0  0  0  0  0  0  0
   11.3439    8.0941   -5.0384 C   0  0  0  0  0  0  0  0  0  0  0  0
   11.4162    6.8640   -4.3623 C   0  0  0  0  0  0  0  0  0  0  0  0
   11.8149    6.8692   -3.0599 N   0  0  0  0  0  0  0  0  0  0  0  0
   12.1398    8.0100   -2.4049 C   0  0  0  0  0  0  0  0  0  0  0  0
   12.0763    9.1937   -3.0356 N   0  0  0  0  0  0  0  0  0  0  0  0
   11.6363   10.2134   -4.8394 H   0  0  0  0  0  0  0  0  0  0  0  0
   11.1676    5.9506   -4.8490 H   0  0  0  0  0  0  0  0  0  0  0  0
   12.4567    8.0228   -1.3729 H   0  0  0  0  0  0  0  0  0  0  0  0
   10.9357    8.1595   -6.3971 N   0  0  0  0  0  0  0  0  0  0  0  0
   11.3439    9.0644   -7.3126 C   0  0  0  0  0  0  0  0  0  0  0  0
   10.7652    8.8364   -8.4869 N   0  0  0  0  0  0  0  0  0  0  0  0
    9.9586    7.7699   -8.3682 C   0  0  0  0  0  0  0  0  0  0  0  0
    9.1392    7.1203   -9.2647 C   0  0  0  0  0  0  0  0  0  0  0  0
    9.0214    7.5543  -10.6295 N   0  0  0  0  0  0  0  0  0  0  0  0
    8.4498    6.0648   -8.8256 N   0  0  0  0  0  0  0  0  0  0  0  0
    8.5625    5.6589   -7.5420 C   0  0  0  0  0  0  0  0  0  0  0  0
    9.3586    6.2849   -6.6587 N   0  0  0  0  0  0  0  0  0  0  0  0
   10.0772    7.3577   -7.0520 C   0  0  0  0  0  0  0  0  0  0  0  0
   12.0479    9.8470   -7.0690 H   0  0  0  0  0  0  0  0  0  0  0  0
    8.9804    8.6039  -10.7931 H   0  0  0  0  0  0  0  0  0  0  0  0
    8.9782    6.8824  -11.4156 H   0  0  0  0  0  0  0  0  0  0  0  0
    7.9570    4.7845   -7.2797 H   0  0  0  0  0  0  0  0  0  0  0  0
  1  6  2  0
  2  3  2  0
  2  1  1  0
  3  4  1  0
  4  5  2  0
  6  5  1  0
  1  7  1  0
  3  8  1  0
  5  9  1  0
 10 11  1  0
 11 12  2  0
 12 13  1  0
 13 14  2  0
 14 15  1  0
 14 16  1  0
 16 17  2  0
 17 18  1  0
 18 19  2  0
 19 10  1  0
 19 13  1  0
 11 20  1  0
 15 21  1  0
 15 22  1  0
 17 23  1  0
  2 10  1  0
M  END
>  <Score>  (1) 
-7.01769

$$$$

     RDKit          3D

 25 26  0  0  0  0  0  0  0  0999 V2000
   11.6891    9.2575   -4.3251 C   0  0  0  0  0  0  0  0  0  0  0  0
   11.3437    8.0935   -5.0388 C   0  0  0  0  0  0  0  0  0  0  0  0
   11.4163    6.8641   -4.3621 C   0  0  0  0  0  0  0  0  0  0  0  0
   11.8148    6.8689   -3.0602 N   0  0  0  0  0  0  0  0  0  0  0  0
   12.1399    8.0105   -2.4049 C   0  0  0  0  0  0  0  0  0  0  0  0
   12.0762    9.1935   -3.0358 N   0  0  0  0  0  0  0  0  0  0  0  0
   11.6464   10.2236   -4.8099 H   0  0  0  0  0  0  0  0  0  0  0  0
   11.1559    5.9733   -4.8953 H   0  0  0  0  0  0  0  0  0  0  0  0
   12.4413    7.9209   -1.3870 H   0  0  0  0  0  0  0  0  0  0  0  0
   10.1214    5.8388   -9.1440 H   0  0  0  0  0  0  0  0  0  0  0  0
   10.7789    6.6303   -9.4720 C   0  0  0  0  0  0  0  0  0  0  0  0
   10.9141    6.8396  -10.6547 O   0  0  0  0  0  0  0  0  0  0  0  0
   11.4996    7.4412   -8.4749 C   0  0  2  0  0  0  0  0  0  0  0  0
   11.2213    7.0581   -7.1917 O   0  0  0  0  0  0  0  0  0  0  0  0
   10.9241    8.1587   -6.4347 C   0  0  2  0  0  0  0  0  0  0  0  0
   11.5515    9.3547   -7.1636 C   0  0  2  0  0  0  0  0  0  0  0  0
   10.9771   10.5434   -6.8174 O   0  0  0  0  0  0  0  0  0  0  0  0
   11.1976    8.9220   -8.5949 C   0  0  1  0  0  0  0  0  0  0  0  0
   11.9597    9.5621   -9.5355 O   0  0  0  0  0  0  0  0  0  0  0  0
   12.6099    7.3281   -8.6463 H   0  0  0  0  0  0  0  0  0  0  0  0
    9.8327    8.3261   -6.4696 H   0  0  0  0  0  0  0  0  0  0  0  0
   12.6344    9.3187   -7.0494 H   0  0  0  0  0  0  0  0  0  0  0  0
   10.0968   10.6759   -7.1992 H   0  0  0  0  0  0  0  0  0  0  0  0
   10.1041    9.0497   -8.7337 H   0  0  0  0  0  0  0  0  0  0  0  0
   11.4913   10.4021   -9.7900 H   0  0  0  0  0  0  0  0  0  0  0  0
  1  6  2  0
  2  3  2  0
  2  1  1  0
  3  4  1  0
  4  5  2  0
  6  5  1  0
  1  7  1  0
  3  8  1  0
  5  9  1  0
 10 11  1  0
 11 12  2  0
 11 13  1  0
 13 14  1  0
 14 15  1  0
 15 16  1  0
 16 17  1  0
 16 18  1  0
 18 19  1  0
 18 13  1  0
 13 20  1  6
 15 21  1  1
 16 22  1  6
 17 23  1  0
 18 24  1  6
 19 25  1  0
  2 15  1  0
M  END
>  <Score>  (1) 
-7.01673

$$$$

     RDKit          3D

 24 26  0  0  0  0  0  0  0  0999 V2000
   12.3030    8.1230   -2.3002 C   0  0  0  0  0  0  0  0  0  0  0  0
   12.0211    6.8820   -2.9137 C   0  0  0  0  0  0  0  0  0  0  0  0
   11.5247    6.8950   -4.2238 C   0  0  0  0  0  0  0  0  0  0  0  0
   11.3437    8.1180   -4.8290 N   0  0  0  0  0  0  0  0  0  0  0  0
   11.6230    9.2699   -4.2130 C   0  0  0  0  0  0  0  0  0  0  0  0
   12.0994    9.2831   -2.9583 N   0  0  0  0  0  0  0  0  0  0  0  0
   12.6840    8.0696   -1.2901 H   0  0  0  0  0  0  0  0  0  0  0  0
   12.1748    5.9547   -2.4114 H   0  0  0  0  0  0  0  0  0  0  0  0
   11.2930    5.9895   -4.7401 H   0  0  0  0  0  0  0  0  0  0  0  0
   11.4095   10.5289   -4.9079 C   0  0  0  0  0  0  0  0  0  0  0  0
   10.1377   11.0029   -5.0711 N   0  0  0  0  0  0  0  0  0  0  0  0
    9.9032   12.1454   -5.6985 C   0  0  0  0  0  0  0  0  0  0  0  0
   10.9234   12.8461   -6.1794 N   0  0  0  0  0  0  0  0  0  0  0  0
   12.1879   12.4619   -6.0663 N   0  0  0  0  0  0  0  0  0  0  0  0
   13.3384   13.0233   -6.4793 C   0  0  0  0  0  0  0  0  0  0  0  0
   13.4097   14.3152   -7.2164 C   0  0  0  0  0  0  0  0  0  0  0  0
   14.3089   12.2112   -6.0998 N   0  0  0  0  0  0  0  0  0  0  0  0
   13.7914   11.1367   -5.4487 C   0  0  0  0  0  0  0  0  0  0  0  0
   14.3496   10.3100   -5.0270 H   0  0  0  0  0  0  0  0  0  0  0  0
   12.4329   11.2910   -5.4239 C   0  0  0  0  0  0  0  0  0  0  0  0
    8.8630   12.4491   -5.7844 H   0  0  0  0  0  0  0  0  0  0  0  0
   12.5503   14.4219   -7.9261 H   0  0  0  0  0  0  0  0  0  0  0  0
   14.3194   14.2995   -7.8382 H   0  0  0  0  0  0  0  0  0  0  0  0
   13.3854   15.1493   -6.4845 H   0  0  0  0  0  0  0  0  0  0  0  0
  2  1  2  0
  3  2  1  0
  4  3  2  0
  4  5  1  0
  5  6  2  0
  6  1  1  0
  1  7  1  0
  2  8  1  0
  3  9  1  0
 10 11  2  0
 11 12  1  0
 12 13  2  0
 13 14  1  0
 14 15  1  0
 15 16  1  0
 15 17  2  0
 17 18  1  0
 18 19  1  0
 18 20  2  0
 20 10  1  0
 20 14  1  0
 12 21  1  0
 16 22  1  0
 16 23  1  0
 16 24  1  0
  5 10  1  0
M  END
>  <Score>  (1) 
-7.46432

$$$$

     RDKit          3D

 23 24  0  0  0  0  0  0  0  0999 V2000
   11.6896    9.2585   -4.3237 C   0  0  0  0  0  0  0  0  0  0  0  0
   11.3436    8.0912   -5.0384 C   0  0  0  0  0  0  0  0  0  0  0  0
   11.4161    6.8649   -4.3629 C   0  0  0  0  0  0  0  0  0  0  0  0
   11.8149    6.8700   -3.0603 N   0  0  0  0  0  0  0  0  0  0  0  0
   12.1398    8.0085   -2.4045 C   0  0  0  0  0  0  0  0  0  0  0  0
   12.0759    9.1949   -3.0373 N   0  0  0  0  0  0  0  0  0  0  0  0
   11.6417   10.2252   -4.8260 H   0  0  0  0  0  0  0  0  0  0  0  0
   11.1742    5.9324   -4.8208 H   0  0  0  0  0  0  0  0  0  0  0  0
   12.4461    7.9152   -1.3692 H   0  0  0  0  0  0  0  0  0  0  0  0
   10.9201    8.1327   -6.4386 C   0  0  0  0  0  0  0  0  0  0  0  0
   10.5999    6.8208   -7.0165 C   0  0  0  0  0  0  0  0  0  0  0  0
   11.5625    6.0574   -7.6410 C   0  0  0  0  0  0  0  0  0  0  0  0
   11.2611    4.8114   -8.1905 C   0  0  0  0  0  0  0  0  0  0  0  0
    9.9856    4.3253   -8.1141 C   0  0  0  0  0  0  0  0  0  0  0  0
    9.0184    5.0643   -7.5007 C   0  0  0  0  0  0  0  0  0  0  0  0
    7.7704    4.5724   -7.4341 F   0  0  0  0  0  0  0  0  0  0  0  0
    9.3223    6.3088   -6.9526 C   0  0  0  0  0  0  0  0  0  0  0  0
    9.9933    8.7615   -6.5262 H   0  0  0  0  0  0  0  0  0  0  0  0
   11.7039    8.6248   -7.0669 H   0  0  0  0  0  0  0  0  0  0  0  0
   12.5876    6.3890   -7.7320 H   0  0  0  0  0  0  0  0  0  0  0  0
   12.0092    4.2042   -8.6827 H   0  0  0  0  0  0  0  0  0  0  0  0
    9.7596    3.3585   -8.5424 H   0  0  0  0  0  0  0  0  0  0  0  0
    8.4998    6.8284   -6.4855 H   0  0  0  0  0  0  0  0  0  0  0  0
  1  6  2  0
  2  3  2  0
  2  1  1  0
  3  4  1  0
  4  5  2  0
  6  5  1  0
  1  7  1  0
  3  8  1  0
  5  9  1  0
 10 11  1  0
 11 12  2  0
 12 13  1  0
 13 14  2  0
 14 15  1  0
 15 16  1  0
 15 17  2  0
 17 11  1  0
 10 18  1  0
 10 19  1  0
 12 20  1  0
 13 21  1  0
 14 22  1  0
 17 23  1  0
  2 10  1  0
M  END
>  <Score>  (1) 
-7.01187

$$$$

     RDKit          3D

 22 23  0  0  0  0  0  0  0  0999 V2000
   11.6888    9.2532   -4.3245 C   0  0  0  0  0  0  0  0  0  0  0  0
   11.3443    8.0897   -5.0354 C   0  0  0  0  0  0  0  0  0  0  0  0
   11.4140    6.8699   -4.3716 C   0  0  0  0  0  0  0  0  0  0  0  0
   11.8174    6.8744   -3.0538 N   0  0  0  0  0  0  0  0  0  0  0  0
   12.1396    8.0055   -2.4041 C   0  0  0  0  0  0  0  0  0  0  0  0
   12.0759    9.1954   -3.0377 N   0  0  0  0  0  0  0  0  0  0  0  0
   11.6180   10.1691   -4.8835 H   0  0  0  0  0  0  0  0  0  0  0  0
   11.1620    5.9648   -4.8725 H   0  0  0  0  0  0  0  0  0  0  0  0
   12.4482    7.9109   -1.3610 H   0  0  0  0  0  0  0  0  0  0  0  0
   10.9295    8.1848   -6.4264 C   0  0  0  0  0  0  0  0  0  0  0  0
   11.5646    7.5772   -7.4814 C   0  0  0  0  0  0  0  0  0  0  0  0
   11.1183    7.7073   -8.7867 C   0  0  0  0  0  0  0  0  0  0  0  0
    9.9989    8.4717   -9.0380 C   0  0  0  0  0  0  0  0  0  0  0  0
    9.5238    8.6074  -10.4465 C   0  0  0  0  0  0  0  0  0  0  0  0
    9.3667    9.0770   -7.9856 C   0  0  0  0  0  0  0  0  0  0  0  0
    9.8462    8.9136   -6.7463 N   0  0  0  0  0  0  0  0  0  0  0  0
   12.4395    6.9788   -7.2906 H   0  0  0  0  0  0  0  0  0  0  0  0
   11.6218    7.2262   -9.6183 H   0  0  0  0  0  0  0  0  0  0  0  0
    9.4627    7.5819  -10.9010 H   0  0  0  0  0  0  0  0  0  0  0  0
    8.5115    9.0261  -10.5053 H   0  0  0  0  0  0  0  0  0  0  0  0
   10.2767    9.1588  -11.0474 H   0  0  0  0  0  0  0  0  0  0  0  0
    8.4876    9.6786   -8.1743 H   0  0  0  0  0  0  0  0  0  0  0  0
  1  6  2  0
  2  3  2  0
  2  1  1  0
  3  4  1  0
  4  5  2  0
  6  5  1  0
  1  7  1  0
  3  8  1  0
  5  9  1  0
 10 11  2  0
 11 12  1  0
 12 13  2  0
 13 14  1  0
 13 15  1  0
 15 16  2  0
 16 10  1  0
 11 17  1  0
 12 18  1  0
 14 19  1  0
 14 20  1  0
 14 21  1  0
 15 22  1  0
  2 10  1  0
M  END
>  <Score>  (1) 
-7.0062

$$$$

     RDKit          3D

 25 26  0  0  0  0  0  0  0  0999 V2000
   11.6912    9.2591   -4.3183 C   0  0  0  0  0  0  0  0  0  0  0  0
   11.3427    8.0845   -5.0398 C   0  0  0  0  0  0  0  0  0  0  0  0
   11.4149    6.8709   -4.3680 C   0  0  0  0  0  0  0  0  0  0  0  0
   11.8169    6.8723   -3.0550 N   0  0  0  0  0  0  0  0  0  0  0  0
   12.1395    8.0031   -2.4042 C   0  0  0  0  0  0  0  0  0  0  0  0
   12.0748    9.1981   -3.0417 N   0  0  0  0  0  0  0  0  0  0  0  0
   11.6284   10.2059   -4.8614 H   0  0  0  0  0  0  0  0  0  0  0  0
   11.1570    5.9423   -4.8138 H   0  0  0  0  0  0  0  0  0  0  0  0
   12.4533    7.9726   -1.3679 H   0  0  0  0  0  0  0  0  0  0  0  0
   10.9170    8.2245   -6.3686 N   0  0  0  0  0  0  0  0  0  0  0  0
   10.7508    7.1300   -7.2321 C   0  0  0  0  0  0  0  0  0  0  0  0
    9.8602    7.1478   -8.2917 C   0  0  0  0  0  0  0  0  0  0  0  0
    9.7599    6.0669   -9.1251 C   0  0  0  0  0  0  0  0  0  0  0  0
   10.5120    4.9183   -8.9778 C   0  0  0  0  0  0  0  0  0  0  0  0
   10.3698    3.7660   -9.9079 C   0  0  0  0  0  0  0  0  0  0  0  0
   11.3921    4.9178   -7.9203 C   0  0  0  0  0  0  0  0  0  0  0  0
   11.9935    4.0235   -7.7867 H   0  0  0  0  0  0  0  0  0  0  0  0
   11.5198    5.9955   -7.0568 C   0  0  0  0  0  0  0  0  0  0  0  0
   10.7109    9.1927   -6.7416 H   0  0  0  0  0  0  0  0  0  0  0  0
    9.2667    8.0153   -8.4336 H   0  0  0  0  0  0  0  0  0  0  0  0
    9.0628    6.0500   -9.9749 H   0  0  0  0  0  0  0  0  0  0  0  0
    9.6927    3.0387   -9.3944 H   0  0  0  0  0  0  0  0  0  0  0  0
    9.9278    4.0969  -10.8646 H   0  0  0  0  0  0  0  0  0  0  0  0
   11.3652    3.3451  -10.1278 H   0  0  0  0  0  0  0  0  0  0  0  0
   12.2582    5.9323   -6.2480 H   0  0  0  0  0  0  0  0  0  0  0  0
  1  6  2  0
  2  3  2  0
  2  1  1  0
  3  4  1  0
  4  5  2  0
  6  5  1  0
  1  7  1  0
  3  8  1  0
  5  9  1  0
 10 11  1  0
 11 12  2  0
 12 13  1  0
 13 14  2  0
 14 15  1  0
 14 16  1  0
 16 17  1  0
 16 18  2  0
 18 11  1  0
 10 19  1  0
 12 20  1  0
 13 21  1  0
 15 22  1  0
 15 23  1  0
 15 24  1  0
 18 25  1  0
  2 10  1  0
M  END
>  <Score>  (1) 
-7.0025

$$$$

     RDKit          3D

 27 28  0  0  0  0  0  0  0  0999 V2000
   11.6891    9.2577   -4.3252 C   0  0  0  0  0  0  0  0  0  0  0  0
   11.3438    8.0926   -5.0383 C   0  0  0  0  0  0  0  0  0  0  0  0
   11.4161    6.8651   -4.3630 C   0  0  0  0  0  0  0  0  0  0  0  0
   11.8153    6.8697   -3.0589 N   0  0  0  0  0  0  0  0  0  0  0  0
   12.1395    8.0087   -2.4054 C   0  0  0  0  0  0  0  0  0  0  0  0
   12.0762    9.1942   -3.0362 N   0  0  0  0  0  0  0  0  0  0  0  0
   11.6341   10.2108   -4.8455 H   0  0  0  0  0  0  0  0  0  0  0  0
   11.1606    5.9417   -4.8686 H   0  0  0  0  0  0  0  0  0  0  0  0
   12.4491    7.9470   -1.3706 H   0  0  0  0  0  0  0  0  0  0  0  0
   10.9180    8.1307   -6.4443 C   0  0  1  0  0  0  0  0  0  0  0  0
   11.2905    6.9311   -7.0825 O   0  0  0  0  0  0  0  0  0  0  0  0
   10.6852    7.0778   -8.3115 C   0  0  1  0  0  0  0  0  0  0  0  0
   10.6191    5.7696   -9.0807 C   0  0  0  0  0  0  0  0  0  0  0  0
    9.9081    4.8077   -8.4059 O   0  0  0  0  0  0  0  0  0  0  0  0
    9.2598    7.5180   -7.9878 C   0  0  2  0  0  0  0  0  0  0  0  0
    8.7894    8.4607   -8.8711 O   0  0  0  0  0  0  0  0  0  0  0  0
    9.4006    8.0446   -6.5744 C   0  0  1  0  0  0  0  0  0  0  0  0
    8.9443    7.0838   -5.6609 O   0  0  0  0  0  0  0  0  0  0  0  0
   11.3352    8.9556   -7.0272 H   0  0  0  0  0  0  0  0  0  0  0  0
   11.1706    7.8698   -8.8986 H   0  0  0  0  0  0  0  0  0  0  0  0
   11.6627    5.4171   -9.2417 H   0  0  0  0  0  0  0  0  0  0  0  0
   10.1332    5.9620  -10.0484 H   0  0  0  0  0  0  0  0  0  0  0  0
   10.4763    4.2216   -7.8475 H   0  0  0  0  0  0  0  0  0  0  0  0
    8.5550    6.6588   -7.9885 H   0  0  0  0  0  0  0  0  0  0  0  0
    8.9864    9.3945   -8.5545 H   0  0  0  0  0  0  0  0  0  0  0  0
    8.9021    8.9986   -6.4073 H   0  0  0  0  0  0  0  0  0  0  0  0
    9.5829    6.3254   -5.6323 H   0  0  0  0  0  0  0  0  0  0  0  0
  1  6  2  0
  2  3  2  0
  2  1  1  0
  3  4  1  0
  4  5  2  0
  6  5  1  0
  1  7  1  0
  3  8  1  0
  5  9  1  0
 10 11  1  0
 11 12  1  0
 12 13  1  0
 13 14  1  0
 12 15  1  0
 15 16  1  0
 15 17  1  0
 17 18  1  0
 17 10  1  0
 10 19  1  6
 12 20  1  6
 13 21  1  0
 13 22  1  0
 14 23  1  0
 15 24  1  1
 16 25  1  0
 17 26  1  6
 18 27  1  0
  2 10  1  0
M  END
>  <Score>  (1) 
-7.00133

$$$$

     RDKit          3D

 31 33  0  0  0  0  0  0  0  0999 V2000
   11.6807    9.2092   -4.3620 C   0  0  0  0  0  0  0  0  0  0  0  0
   12.1278    9.1589   -3.0272 C   0  0  0  0  0  0  0  0  0  0  0  0
   12.1842    7.9027   -2.3997 C   0  0  0  0  0  0  0  0  0  0  0  0
   11.8022    6.8076   -3.1216 N   0  0  0  0  0  0  0  0  0  0  0  0
   11.3784    6.8949   -4.4014 C   0  0  0  0  0  0  0  0  0  0  0  0
   11.3187    8.0868   -5.0150 N   0  0  0  0  0  0  0  0  0  0  0  0
   11.6482   10.1859   -4.8167 H   0  0  0  0  0  0  0  0  0  0  0  0
   12.4167   10.0431   -2.5020 H   0  0  0  0  0  0  0  0  0  0  0  0
   12.5194    7.8336   -1.3873 H   0  0  0  0  0  0  0  0  0  0  0  0
   11.0017    5.6792   -5.0635 N   0  0  0  0  0  0  0  0  0  0  0  0
   10.5564    5.7830   -6.4126 C   0  0  0  0  0  0  0  0  0  0  0  0
   10.4295    6.8668   -7.1850 N   0  0  0  0  0  0  0  0  0  0  0  0
    9.9821    6.5453   -8.3842 N   0  0  0  0  0  0  0  0  0  0  0  0
    9.8059    5.2198   -8.4157 C   0  0  0  0  0  0  0  0  0  0  0  0
   10.1636    4.7317   -7.1827 C   0  0  0  0  0  0  0  0  0  0  0  0
    9.9849    3.2360   -7.1613 C   0  0  0  0  0  0  0  0  0  0  0  0
    8.9521    3.0844   -8.1692 N   0  0  0  0  0  0  0  0  0  0  0  0
    8.0805    3.5211   -7.7520 H   0  0  0  0  0  0  0  0  0  0  0  0
    9.3871    4.0314   -9.2098 C   0  0  0  0  0  0  0  0  0  0  0  0
   10.5696    3.5266   -9.9690 C   0  0  0  0  0  0  0  0  0  0  0  0
    8.2110    4.3560  -10.0929 C   0  0  0  0  0  0  0  0  0  0  0  0
   11.0518    4.7734   -4.5826 H   0  0  0  0  0  0  0  0  0  0  0  0
    9.7968    7.2313   -9.1823 H   0  0  0  0  0  0  0  0  0  0  0  0
    9.6206    2.9493   -6.1454 H   0  0  0  0  0  0  0  0  0  0  0  0
   10.9274    2.7427   -7.4191 H   0  0  0  0  0  0  0  0  0  0  0  0
   10.2521    3.2111  -10.9843 H   0  0  0  0  0  0  0  0  0  0  0  0
   11.0081    2.6522   -9.4554 H   0  0  0  0  0  0  0  0  0  0  0  0
   11.3460    4.3271  -10.1384 H   0  0  0  0  0  0  0  0  0  0  0  0
    7.5477    5.1198   -9.6350 H   0  0  0  0  0  0  0  0  0  0  0  0
    8.5460    4.7619  -11.0744 H   0  0  0  0  0  0  0  0  0  0  0  0
    7.5854    3.4492  -10.2509 H   0  0  0  0  0  0  0  0  0  0  0  0
  1  2  2  0
  2  3  1  0
  4  3  2  0
  5  4  1  0
  6  5  2  0
  6  1  1  0
  1  7  1  0
  2  8  1  0
  3  9  1  0
 10 11  1  0
 11 12  2  0
 12 13  1  0
 13 14  1  0
 14 15  2  0
 15 16  1  0
 16 17  1  0
 17 18  1  0
 17 19  1  0
 19 20  1  0
 19 21  1  0
 15 11  1  0
 19 14  1  0
 10 22  1  0
 13 23  1  0
 16 24  1  0
 16 25  1  0
 20 26  1  0
 20 27  1  0
 20 28  1  0
 21 29  1  0
 21 30  1  0
 21 31  1  0
  5 10  1  0
M  END
>  <Score>  (1) 
-8.29476

$$$$

     RDKit          3D

 31 32  0  0  0  0  0  0  0  0999 V2000
   11.6802    9.2081   -4.3631 C   0  0  0  0  0  0  0  0  0  0  0  0
   12.1281    9.1580   -3.0261 C   0  0  0  0  0  0  0  0  0  0  0  0
   12.1839    7.9031   -2.4007 C   0  0  0  0  0  0  0  0  0  0  0  0
   11.8030    6.8070   -3.1192 N   0  0  0  0  0  0  0  0  0  0  0  0
   11.3783    6.8941   -4.4013 C   0  0  0  0  0  0  0  0  0  0  0  0
   11.3186    8.0898   -5.0166 N   0  0  0  0  0  0  0  0  0  0  0  0
   11.6548   10.1969   -4.8014 H   0  0  0  0  0  0  0  0  0  0  0  0
   12.4136   10.0481   -2.5128 H   0  0  0  0  0  0  0  0  0  0  0  0
   12.5224    7.8127   -1.3710 H   0  0  0  0  0  0  0  0  0  0  0  0
   10.9883    5.6268   -5.0835 C   0  0  1  0  0  0  0  0  0  0  0  0
   10.0043    5.9617   -6.0118 O   0  0  0  0  0  0  0  0  0  0  0  0
   10.0241    5.1472   -7.1240 C   0  0  1  0  0  0  0  0  0  0  0  0
    8.8480    5.5428   -8.0012 C   0  0  0  0  0  0  0  0  0  0  0  0
    8.8694    4.7241   -9.1173 O   0  0  0  0  0  0  0  0  0  0  0  0
   11.2733    5.3444   -7.9691 C   0  0  2  0  0  0  0  0  0  0  0  0
   11.5597    4.1049   -8.5439 O   0  0  0  0  0  0  0  0  0  0  0  0
   12.4247    5.6956   -7.0651 C   0  0  2  0  0  0  0  0  0  0  0  0
   13.5930    5.2200   -7.6538 O   0  0  0  0  0  0  0  0  0  0  0  0
   12.1856    4.9881   -5.7393 C   0  0  1  0  0  0  0  0  0  0  0  0
   13.3254    5.0812   -4.9758 O   0  0  0  0  0  0  0  0  0  0  0  0
   10.6249    4.9147   -4.3139 H   0  0  0  0  0  0  0  0  0  0  0  0
    9.8826    4.0778   -6.8576 H   0  0  0  0  0  0  0  0  0  0  0  0
    9.0193    6.5884   -8.3357 H   0  0  0  0  0  0  0  0  0  0  0  0
    7.8764    5.4180   -7.4728 H   0  0  0  0  0  0  0  0  0  0  0  0
    8.3632    3.9014   -8.9571 H   0  0  0  0  0  0  0  0  0  0  0  0
   11.1454    6.1122   -8.7442 H   0  0  0  0  0  0  0  0  0  0  0  0
   11.0999    4.0867   -9.4186 H   0  0  0  0  0  0  0  0  0  0  0  0
   12.5248    6.7733   -6.9259 H   0  0  0  0  0  0  0  0  0  0  0  0
   13.7099    4.2557   -7.5403 H   0  0  0  0  0  0  0  0  0  0  0  0
   11.9531    3.9328   -5.9908 H   0  0  0  0  0  0  0  0  0  0  0  0
   13.6838    4.1655   -4.8284 H   0  0  0  0  0  0  0  0  0  0  0  0
  1  2  2  0
  2  3  1  0
  4  3  2  0
  5  4  1  0
  6  5  2  0
  6  1  1  0
  1  7  1  0
  2  8  1  0
  3  9  1  0
 10 11  1  0
 11 12  1  0
 12 13  1  0
 13 14  1  0
 12 15  1  0
 15 16  1  0
 15 17  1  0
 17 18  1  0
 17 19  1  0
 19 20  1  0
 19 10  1  0
 10 21  1  1
 12 22  1  1
 13 23  1  0
 13 24  1  0
 14 25  1  0
 15 26  1  6
 16 27  1  0
 17 28  1  1
 18 29  1  0
 19 30  1  6
 20 31  1  0
  5 10  1  0
M  END
>  <Score>  (1) 
-7.79748

$$$$

     RDKit          3D

 33 35  0  0  0  0  0  0  0  0999 V2000
   11.6809    9.2093   -4.3614 C   0  0  0  0  0  0  0  0  0  0  0  0
   12.1278    9.1596   -3.0277 C   0  0  0  0  0  0  0  0  0  0  0  0
   12.1838    7.9011   -2.4001 C   0  0  0  0  0  0  0  0  0  0  0  0
   11.8032    6.8078   -3.1188 N   0  0  0  0  0  0  0  0  0  0  0  0
   11.3779    6.8973   -4.4036 C   0  0  0  0  0  0  0  0  0  0  0  0
   11.3184    8.0849   -5.0154 N   0  0  0  0  0  0  0  0  0  0  0  0
   11.6212   10.1520   -4.8836 H   0  0  0  0  0  0  0  0  0  0  0  0
   12.4108   10.0576   -2.5246 H   0  0  0  0  0  0  0  0  0  0  0  0
   12.5200    7.8227   -1.3817 H   0  0  0  0  0  0  0  0  0  0  0  0
   10.6214    1.6232  -10.2851 H   0  0  0  0  0  0  0  0  0  0  0  0
   10.6041    1.8088   -9.2179 C   0  0  0  0  0  0  0  0  0  0  0  0
   11.1545    0.9421   -8.4566 O   0  0  0  0  0  0  0  0  0  0  0  0
   10.0214    2.9310   -8.6170 N   0  0  0  0  0  0  0  0  0  0  0  0
    9.9656    3.2333   -7.2176 C   0  0  0  0  0  0  0  0  0  0  0  0
   10.1385    4.7298   -7.2559 C   0  0  0  0  0  0  0  0  0  0  0  0
   10.5383    5.7843   -6.4661 C   0  0  0  0  0  0  0  0  0  0  0  0
   10.9880    5.7205   -5.1190 N   0  0  0  0  0  0  0  0  0  0  0  0
   10.4117    6.8783   -7.2405 N   0  0  0  0  0  0  0  0  0  0  0  0
    9.9597    6.5286   -8.4426 N   0  0  0  0  0  0  0  0  0  0  0  0
    9.7747    5.1977   -8.4984 C   0  0  0  0  0  0  0  0  0  0  0  0
    9.3576    4.0119   -9.2893 C   0  0  0  0  0  0  0  0  0  0  0  0
    9.8052    4.1731  -10.7212 C   0  0  0  0  0  0  0  0  0  0  0  0
    7.8504    3.9179   -9.1776 C   0  0  0  0  0  0  0  0  0  0  0  0
    8.9661    3.0145   -6.7935 H   0  0  0  0  0  0  0  0  0  0  0  0
   10.7703    2.7579   -6.6247 H   0  0  0  0  0  0  0  0  0  0  0  0
   11.0305    4.7897   -4.6522 H   0  0  0  0  0  0  0  0  0  0  0  0
    9.7732    7.1752   -9.2289 H   0  0  0  0  0  0  0  0  0  0  0  0
   10.8960    4.1092  -10.7463 H   0  0  0  0  0  0  0  0  0  0  0  0
    9.3584    3.3393  -11.2968 H   0  0  0  0  0  0  0  0  0  0  0  0
    9.4117    5.1490  -11.0770 H   0  0  0  0  0  0  0  0  0  0  0  0
    7.3592    4.3447  -10.0714 H   0  0  0  0  0  0  0  0  0  0  0  0
    7.4688    4.5125   -8.3058 H   0  0  0  0  0  0  0  0  0  0  0  0
    7.4931    2.8778   -9.0556 H   0  0  0  0  0  0  0  0  0  0  0  0
  1  2  2  0
  2  3  1  0
  4  3  2  0
  5  4  1  0
  6  5  2  0
  6  1  1  0
  1  7  1  0
  2  8  1  0
  3  9  1  0
 10 11  1  0
 11 12  2  0
 11 13  1  0
 13 14  1  0
 14 15  1  0
 15 16  1  0
 16 17  1  0
 16 18  2  0
 18 19  1  0
 19 20  1  0
 20 21  1  0
 21 22  1  0
 21 23  1  0
 21 13  1  0
 20 15  2  0
 14 24  1  0
 14 25  1  0
 17 26  1  0
 19 27  1  0
 22 28  1  0
 22 29  1  0
 22 30  1  0
 23 31  1  0
 23 32  1  0
 23 33  1  0
  5 17  1  0
M  END
>  <Score>  (1) 
-7.6904

$$$$

     RDKit          3D

 31 32  0  0  0  0  0  0  0  0999 V2000
   11.6808    9.2072   -4.3611 C   0  0  0  0  0  0  0  0  0  0  0  0
   12.1274    9.1595   -3.0289 C   0  0  0  0  0  0  0  0  0  0  0  0
   12.1838    7.9016   -2.4002 C   0  0  0  0  0  0  0  0  0  0  0  0
   11.8032    6.8072   -3.1185 N   0  0  0  0  0  0  0  0  0  0  0  0
   11.3782    6.8938   -4.4015 C   0  0  0  0  0  0  0  0  0  0  0  0
   11.3187    8.0908   -5.0167 N   0  0  0  0  0  0  0  0  0  0  0  0
   11.6352   10.1710   -4.8495 H   0  0  0  0  0  0  0  0  0  0  0  0
   12.4190   10.0336   -2.4918 H   0  0  0  0  0  0  0  0  0  0  0  0
   12.5206    7.8537   -1.3914 H   0  0  0  0  0  0  0  0  0  0  0  0
   10.9627    5.7090   -5.1892 C   0  0  2  0  0  0  0  0  0  0  0  0
   11.9756    4.7705   -5.3284 O   0  0  0  0  0  0  0  0  0  0  0  0
   12.9875    5.2794   -6.1153 C   0  0  1  0  0  0  0  0  0  0  0  0
   14.1652    4.3485   -6.1886 C   0  0  0  0  0  0  0  0  0  0  0  0
   14.7418    4.0769   -4.9703 O   0  0  0  0  0  0  0  0  0  0  0  0
   12.5161    5.5143   -7.5452 C   0  0  2  0  0  0  0  0  0  0  0  0
   12.9233    6.7750   -7.9109 O   0  0  0  0  0  0  0  0  0  0  0  0
   11.0333    5.3098   -7.5901 C   0  0  1  0  0  0  0  0  0  0  0  0
   10.8036    3.9448   -7.2991 O   0  0  0  0  0  0  0  0  0  0  0  0
   10.3157    6.0829   -6.4932 C   0  0  2  0  0  0  0  0  0  0  0  0
   10.3300    7.4507   -6.7261 O   0  0  0  0  0  0  0  0  0  0  0  0
   10.1622    5.2017   -4.5734 H   0  0  0  0  0  0  0  0  0  0  0  0
   13.3446    6.2273   -5.6440 H   0  0  0  0  0  0  0  0  0  0  0  0
   14.9162    4.8090   -6.8680 H   0  0  0  0  0  0  0  0  0  0  0  0
   13.8203    3.4241   -6.7064 H   0  0  0  0  0  0  0  0  0  0  0  0
   15.7004    3.8317   -5.1518 H   0  0  0  0  0  0  0  0  0  0  0  0
   12.9757    4.7922   -8.2492 H   0  0  0  0  0  0  0  0  0  0  0  0
   12.2176    7.4104   -8.1051 H   0  0  0  0  0  0  0  0  0  0  0  0
   10.6111    5.5019   -8.5772 H   0  0  0  0  0  0  0  0  0  0  0  0
   11.4289    3.3611   -7.7980 H   0  0  0  0  0  0  0  0  0  0  0  0
    9.2450    5.7648   -6.5545 H   0  0  0  0  0  0  0  0  0  0  0  0
    9.4962    7.7402   -7.2143 H   0  0  0  0  0  0  0  0  0  0  0  0
  1  2  2  0
  2  3  1  0
  4  3  2  0
  5  4  1  0
  6  5  2  0
  6  1  1  0
  1  7  1  0
  2  8  1  0
  3  9  1  0
 10 11  1  0
 11 12  1  0
 12 13  1  0
 13 14  1  0
 12 15  1  0
 15 16  1  0
 15 17  1  0
 17 18  1  0
 17 19  1  0
 19 20  1  0
 19 10  1  0
 10 21  1  1
 12 22  1  1
 13 23  1  0
 13 24  1  0
 14 25  1  0
 15 26  1  6
 16 27  1  0
 17 28  1  6
 18 29  1  0
 19 30  1  1
 20 31  1  0
  5 10  1  0
M  END
>  <Score>  (1) 
-7.50053

$$$$

     RDKit          3D

 29 30  0  0  0  0  0  0  0  0999 V2000
   11.6811    9.2102   -4.3611 C   0  0  0  0  0  0  0  0  0  0  0  0
   12.1279    9.1582   -3.0268 C   0  0  0  0  0  0  0  0  0  0  0  0
   12.1840    7.9036   -2.4005 C   0  0  0  0  0  0  0  0  0  0  0  0
   11.8025    6.8063   -3.1204 N   0  0  0  0  0  0  0  0  0  0  0  0
   11.3785    6.8973   -4.4019 C   0  0  0  0  0  0  0  0  0  0  0  0
   11.3180    8.0844   -5.0163 N   0  0  0  0  0  0  0  0  0  0  0  0
   11.6464   10.1670   -4.8151 H   0  0  0  0  0  0  0  0  0  0  0  0
   12.4184   10.0571   -2.5022 H   0  0  0  0  0  0  0  0  0  0  0  0
   12.5201    7.8621   -1.3959 H   0  0  0  0  0  0  0  0  0  0  0  0
   10.9926    5.7032   -5.0987 N   0  0  0  0  0  0  0  0  0  0  0  0
   11.4116    5.4328   -6.4402 C   0  0  0  0  0  0  0  0  0  0  0  0
   10.9421    6.4297   -7.4306 C   0  0  0  0  0  0  0  0  0  0  0  0
   11.4457    6.3546   -8.7111 C   0  0  0  0  0  0  0  0  0  0  0  0
   11.0155    7.2762   -9.6503 C   0  0  0  0  0  0  0  0  0  0  0  0
   10.0865    8.2616   -9.2967 C   0  0  0  0  0  0  0  0  0  0  0  0
    9.5835    8.3401   -8.0255 C   0  0  0  0  0  0  0  0  0  0  0  0
    8.6674    9.3014   -7.6516 O   0  0  0  0  0  0  0  0  0  0  0  0
    8.1545   10.2843   -8.4964 C   0  0  0  0  0  0  0  0  0  0  0  0
   10.0278    7.4086   -7.1040 C   0  0  0  0  0  0  0  0  0  0  0  0
   10.3858    5.0069   -4.6132 H   0  0  0  0  0  0  0  0  0  0  0  0
   11.1758    4.4031   -6.7284 H   0  0  0  0  0  0  0  0  0  0  0  0
   12.5360    5.4924   -6.4381 H   0  0  0  0  0  0  0  0  0  0  0  0
   12.1668    5.6066   -9.0260 H   0  0  0  0  0  0  0  0  0  0  0  0
   11.3634    7.2789  -10.6646 H   0  0  0  0  0  0  0  0  0  0  0  0
    9.7595    8.9689  -10.0261 H   0  0  0  0  0  0  0  0  0  0  0  0
    9.0271   10.7124   -9.0713 H   0  0  0  0  0  0  0  0  0  0  0  0
    7.4658    9.8849   -9.2819 H   0  0  0  0  0  0  0  0  0  0  0  0
    7.6914   11.0992   -7.9102 H   0  0  0  0  0  0  0  0  0  0  0  0
    9.6161    7.4877   -6.1076 H   0  0  0  0  0  0  0  0  0  0  0  0
  1  2  2  0
  2  3  1  0
  4  3  2  0
  5  4  1  0
  6  5  2  0
  6  1  1  0
  1  7  1  0
  2  8  1  0
  3  9  1  0
 10 11  1  0
 11 12  1  0
 12 13  2  0
 13 14  1  0
 14 15  2  0
 15 16  1  0
 16 17  1  0
 17 18  1  0
 16 19  2  0
 19 12  1  0
 10 20  1  0
 11 21  1  0
 11 22  1  0
 13 23  1  0
 14 24  1  0
 15 25  1  0
 18 26  1  0
 18 27  1  0
 18 28  1  0
 19 29  1  0
  5 10  1  0
M  END
>  <Score>  (1) 
-7.40955

$$$$

     RDKit          3D

 27 28  0  0  0  0  0  0  0  0999 V2000
   11.6804    9.2093   -4.3628 C   0  0  0  0  0  0  0  0  0  0  0  0
   12.1283    9.1572   -3.0253 C   0  0  0  0  0  0  0  0  0  0  0  0
   12.1845    7.9058   -2.3999 C   0  0  0  0  0  0  0  0  0  0  0  0
   11.8015    6.8046   -3.1226 N   0  0  0  0  0  0  0  0  0  0  0  0
   11.3792    6.8964   -4.3995 C   0  0  0  0  0  0  0  0  0  0  0  0
   11.3181    8.0867   -5.0168 N   0  0  0  0  0  0  0  0  0  0  0  0
   11.6291   10.1526   -4.8608 H   0  0  0  0  0  0  0  0  0  0  0  0
   12.4133   10.0516   -2.5151 H   0  0  0  0  0  0  0  0  0  0  0  0
   12.5170    7.8145   -1.3874 H   0  0  0  0  0  0  0  0  0  0  0  0
   10.9648    5.7007   -5.1801 C   0  0  2  0  0  0  0  0  0  0  0  0
   12.2032    5.1621   -5.8592 C   0  0  0  0  0  0  0  0  0  0  0  0
   11.8928    4.0199   -6.7923 C   0  0  0  0  0  0  0  0  0  0  0  0
   10.6931    4.2631   -7.6437 C   0  0  2  0  0  0  0  0  0  0  0  0
   11.0615    4.0429   -8.9823 O   0  0  0  0  0  0  0  0  0  0  0  0
   10.2082    5.6954   -7.5687 C   0  0  0  0  0  0  0  0  0  0  0  0
    9.9091    6.1258   -6.1507 C   0  0  0  0  0  0  0  0  0  0  0  0
   10.5504    4.9473   -4.4865 H   0  0  0  0  0  0  0  0  0  0  0  0
   12.8835    4.8141   -5.0576 H   0  0  0  0  0  0  0  0  0  0  0  0
   12.6526    5.9995   -6.4265 H   0  0  0  0  0  0  0  0  0  0  0  0
   12.8089    3.8273   -7.3927 H   0  0  0  0  0  0  0  0  0  0  0  0
   11.7369    3.1002   -6.1837 H   0  0  0  0  0  0  0  0  0  0  0  0
    9.8695    3.5396   -7.4337 H   0  0  0  0  0  0  0  0  0  0  0  0
   11.9667    4.4409   -9.0807 H   0  0  0  0  0  0  0  0  0  0  0  0
   10.9873    6.3409   -8.0118 H   0  0  0  0  0  0  0  0  0  0  0  0
    9.2991    5.7733   -8.1874 H   0  0  0  0  0  0  0  0  0  0  0  0
    9.8049    7.2492   -6.1884 H   0  0  0  0  0  0  0  0  0  0  0  0
    8.8935    5.7558   -5.8894 H   0  0  0  0  0  0  0  0  0  0  0  0
  1  2  2  0
  2  3  1  0
  4  3  2  0
  5  4  1  0
  6  5  2  0
  6  1  1  0
  1  7  1  0
  2  8  1  0
  3  9  1  0
 10 11  1  0
 11 12  1  0
 12 13  1  0
 13 14  1  0
 13 15  1  0
 15 16  1  0
 16 10  1  0
 10 17  1  1
 11 18  1  0
 11 19  1  0
 12 20  1  0
 12 21  1  0
 13 22  1  1
 14 23  1  0
 15 24  1  0
 15 25  1  0
 16 26  1  0
 16 27  1  0
  5 10  1  0
M  END
>  <Score>  (1) 
-7.34094

$$$$

     RDKit          3D

 21 22  0  0  0  0  0  0  0  0999 V2000
   12.3027    8.1196   -2.3008 C   0  0  0  0  0  0  0  0  0  0  0  0
   12.0221    6.8845   -2.9114 C   0  0  0  0  0  0  0  0  0  0  0  0
   11.5240    6.8973   -4.2260 C   0  0  0  0  0  0  0  0  0  0  0  0
   11.3425    8.1100   -4.8314 N   0  0  0  0  0  0  0  0  0  0  0  0
   11.6245    9.2754   -4.2097 C   0  0  0  0  0  0  0  0  0  0  0  0
   12.0993    9.2841   -2.9588 N   0  0  0  0  0  0  0  0  0  0  0  0
   12.6879    8.0874   -1.2817 H   0  0  0  0  0  0  0  0  0  0  0  0
   12.1832    5.9488   -2.3887 H   0  0  0  0  0  0  0  0  0  0  0  0
   11.3094    5.9692   -4.6946 H   0  0  0  0  0  0  0  0  0  0  0  0
   11.4034   10.5294   -4.9238 C   0  0  0  0  0  0  0  0  0  0  0  0
   10.1476   10.8730   -5.3783 C   0  0  0  0  0  0  0  0  0  0  0  0
    9.9109   12.0521   -6.0559 C   0  0  0  0  0  0  0  0  0  0  0  0
   10.9316   12.9443   -6.3089 C   0  0  0  0  0  0  0  0  0  0  0  0
   12.1929   12.6143   -5.8604 C   0  0  0  0  0  0  0  0  0  0  0  0
   12.4211   11.4243   -5.1788 C   0  0  0  0  0  0  0  0  0  0  0  0
   13.6835   11.0819   -4.7235 O   0  0  0  0  0  0  0  0  0  0  0  0
    9.3377   10.1687   -5.1795 H   0  0  0  0  0  0  0  0  0  0  0  0
    8.9170   12.3170   -6.4119 H   0  0  0  0  0  0  0  0  0  0  0  0
   10.7613   13.8758   -6.8406 H   0  0  0  0  0  0  0  0  0  0  0  0
   12.9868   13.3042   -6.0549 H   0  0  0  0  0  0  0  0  0  0  0  0
   14.4348   11.7137   -4.8964 H   0  0  0  0  0  0  0  0  0  0  0  0
  2  1  2  0
  3  2  1  0
  4  3  2  0
  4  5  1  0
  5  6  2  0
  6  1  1  0
  1  7  1  0
  2  8  1  0
  3  9  1  0
 10 11  2  0
 11 12  1  0
 12 13  2  0
 13 14  1  0
 14 15  2  0
 15 16  1  0
 15 10  1  0
 11 17  1  0
 12 18  1  0
 13 19  1  0
 14 20  1  0
 16 21  1  0
  5 10  1  0
M  END
>  <Score>  (1) 
-7.46127

$$$$

     RDKit          3D

 30 31  0  0  0  0  0  0  0  0999 V2000
   11.6807    9.2101   -4.3623 C   0  0  0  0  0  0  0  0  0  0  0  0
   12.1283    9.1574   -3.0254 C   0  0  0  0  0  0  0  0  0  0  0  0
   12.1839    7.9042   -2.4009 C   0  0  0  0  0  0  0  0  0  0  0  0
   11.8025    6.8065   -3.1205 N   0  0  0  0  0  0  0  0  0  0  0  0
   11.3785    6.8972   -4.4018 C   0  0  0  0  0  0  0  0  0  0  0  0
   11.3181    8.0847   -5.0160 N   0  0  0  0  0  0  0  0  0  0  0  0
   11.6304   10.1676   -4.8622 H   0  0  0  0  0  0  0  0  0  0  0  0
   12.4158   10.0372   -2.5023 H   0  0  0  0  0  0  0  0  0  0  0  0
   12.5185    7.8407   -1.3925 H   0  0  0  0  0  0  0  0  0  0  0  0
   10.9986    5.6938   -5.0785 N   0  0  0  0  0  0  0  0  0  0  0  0
   10.5387    5.7845   -6.4650 C   0  0  2  0  0  0  0  0  0  0  0  0
    9.3288    6.6346   -6.6251 C   0  0  0  0  0  0  0  0  0  0  0  0
    8.0584    5.8927   -6.8418 C   0  0  0  0  0  0  0  0  0  0  0  0
    8.1305    4.7735   -7.8202 C   0  0  0  0  0  0  0  0  0  0  0  0
    9.5289    4.5949   -8.3289 C   0  0  0  0  0  0  0  0  0  0  0  0
   10.4174    4.4267   -7.0889 C   0  0  1  0  0  0  0  0  0  0  0  0
   11.6866    3.9071   -7.5483 N   0  0  0  0  0  0  0  0  0  0  0  0
   11.0350    4.7657   -4.6311 H   0  0  0  0  0  0  0  0  0  0  0  0
   11.3825    6.3062   -7.0062 H   0  0  0  0  0  0  0  0  0  0  0  0
    9.4341    7.3904   -7.4527 H   0  0  0  0  0  0  0  0  0  0  0  0
    9.1928    7.2553   -5.6911 H   0  0  0  0  0  0  0  0  0  0  0  0
    7.3037    6.6323   -7.2417 H   0  0  0  0  0  0  0  0  0  0  0  0
    7.6252    5.5722   -5.8569 H   0  0  0  0  0  0  0  0  0  0  0  0
    7.4349    4.8903   -8.6762 H   0  0  0  0  0  0  0  0  0  0  0  0
    7.8657    3.8285   -7.2661 H   0  0  0  0  0  0  0  0  0  0  0  0
    9.8346    5.5632   -8.7992 H   0  0  0  0  0  0  0  0  0  0  0  0
    9.6482    3.7479   -9.0098 H   0  0  0  0  0  0  0  0  0  0  0  0
    9.9093    3.7499   -6.3710 H   0  0  0  0  0  0  0  0  0  0  0  0
   12.4869    4.2690   -6.9772 H   0  0  0  0  0  0  0  0  0  0  0  0
   11.8324    4.0907   -8.5745 H   0  0  0  0  0  0  0  0  0  0  0  0
  1  2  2  0
  2  3  1  0
  4  3  2  0
  5  4  1  0
  6  5  2  0
  6  1  1  0
  1  7  1  0
  2  8  1  0
  3  9  1  0
 10 11  1  0
 11 12  1  0
 12 13  1  0
 13 14  1  0
 14 15  1  0
 15 16  1  0
 16 17  1  0
 16 11  1  0
 10 18  1  0
 11 19  1  6
 12 20  1  0
 12 21  1  0
 13 22  1  0
 13 23  1  0
 14 24  1  0
 14 25  1  0
 15 26  1  0
 15 27  1  0
 16 28  1  1
 17 29  1  0
 17 30  1  0
  5 10  1  0
M  END
>  <Score>  (1) 
-7.28388

$$$$

     RDKit          3D

 26 27  0  0  0  0  0  0  0  0999 V2000
   11.6805    9.2084   -4.3623 C   0  0  0  0  0  0  0  0  0  0  0  0
   12.1279    9.1583   -3.0268 C   0  0  0  0  0  0  0  0  0  0  0  0
   12.1839    7.9027   -2.4006 C   0  0  0  0  0  0  0  0  0  0  0  0
   11.8030    6.8070   -3.1190 N   0  0  0  0  0  0  0  0  0  0  0  0
   11.3783    6.8946   -4.4016 C   0  0  0  0  0  0  0  0  0  0  0  0
   11.3184    8.0889   -5.0167 N   0  0  0  0  0  0  0  0  0  0  0  0
   11.6190   10.1466   -4.8883 H   0  0  0  0  0  0  0  0  0  0  0  0
   12.4127   10.0560   -2.5185 H   0  0  0  0  0  0  0  0  0  0  0  0
   12.5197    7.8323   -1.3860 H   0  0  0  0  0  0  0  0  0  0  0  0
   12.2379    2.3969   -5.8351 H   0  0  0  0  0  0  0  0  0  0  0  0
   13.1507    2.9809   -5.5513 C   0  0  0  0  0  0  0  0  0  0  0  0
   12.7520    4.4349   -5.5858 C   0  0  2  0  0  0  0  0  0  0  0  0
   11.6708    4.6132   -4.7408 O   0  0  0  0  0  0  0  0  0  0  0  0
   10.9633    5.7056   -5.1861 C   0  0  2  0  0  0  0  0  0  0  0  0
   11.2360    5.8710   -6.6568 C   0  0  1  0  0  0  0  0  0  0  0  0
   11.7648    7.1217   -6.9674 O   0  0  0  0  0  0  0  0  0  0  0  0
   12.2130    4.7563   -6.9678 C   0  0  2  0  0  0  0  0  0  0  0  0
   11.5809    3.6360   -7.4628 O   0  0  0  0  0  0  0  0  0  0  0  0
   13.9511    2.8233   -6.2831 H   0  0  0  0  0  0  0  0  0  0  0  0
   13.4540    2.7009   -4.5357 H   0  0  0  0  0  0  0  0  0  0  0  0
   13.6012    5.1040   -5.3712 H   0  0  0  0  0  0  0  0  0  0  0  0
    9.8679    5.5440   -5.0088 H   0  0  0  0  0  0  0  0  0  0  0  0
   10.2964    5.7238   -7.2253 H   0  0  0  0  0  0  0  0  0  0  0  0
   11.0621    7.6840   -7.3511 H   0  0  0  0  0  0  0  0  0  0  0  0
   13.0292    5.1053   -7.6465 H   0  0  0  0  0  0  0  0  0  0  0  0
   10.8846    3.8649   -8.1412 H   0  0  0  0  0  0  0  0  0  0  0  0
  1  2  2  0
  2  3  1  0
  4  3  2  0
  5  4  1  0
  6  5  2  0
  6  1  1  0
  1  7  1  0
  2  8  1  0
  3  9  1  0
 10 11  1  0
 11 12  1  0
 12 13  1  0
 13 14  1  0
 14 15  1  0
 15 16  1  0
 15 17  1  0
 17 18  1  0
 17 12  1  0
 11 19  1  0
 11 20  1  0
 12 21  1  1
 14 22  1  6
 15 23  1  6
 16 24  1  0
 17 25  1  6
 18 26  1  0
  5 14  1  0
M  END
>  <Score>  (1) 
-7.2371

$$$$

     RDKit          3D

 29 30  0  0  0  0  0  0  0  0999 V2000
   11.6807    9.2088   -4.3620 C   0  0  0  0  0  0  0  0  0  0  0  0
   12.1278    9.1579   -3.0269 C   0  0  0  0  0  0  0  0  0  0  0  0
   12.1838    7.9032   -2.4008 C   0  0  0  0  0  0  0  0  0  0  0  0
   11.8028    6.8069   -3.1196 N   0  0  0  0  0  0  0  0  0  0  0  0
   11.3785    6.8940   -4.4008 C   0  0  0  0  0  0  0  0  0  0  0  0
   11.3184    8.0892   -5.0169 N   0  0  0  0  0  0  0  0  0  0  0  0
   11.6517   10.1912   -4.8083 H   0  0  0  0  0  0  0  0  0  0  0  0
   12.4178   10.0599   -2.5048 H   0  0  0  0  0  0  0  0  0  0  0  0
   12.5189    7.8064   -1.3789 H   0  0  0  0  0  0  0  0  0  0  0  0
   10.9831    5.6498   -5.1077 C   0  0  0  0  0  0  0  0  0  0  0  0
   10.5357    5.9519   -6.5319 C   0  0  0  0  0  0  0  0  0  0  0  0
   11.6697    6.6025   -7.2957 C   0  0  0  0  0  0  0  0  0  0  0  0
   11.1999    7.0565   -8.6581 C   0  0  0  0  0  0  0  0  0  0  0  0
   10.0022    7.9529   -8.5840 C   0  0  0  0  0  0  0  0  0  0  0  0
    9.5670    8.1584   -7.1570 C   0  0  0  0  0  0  0  0  0  0  0  0
    9.3266    6.8356   -6.4995 C   0  0  0  0  0  0  0  0  0  0  0  0
   11.8423    4.9188   -5.1667 H   0  0  0  0  0  0  0  0  0  0  0  0
   10.1775    5.0947   -4.5847 H   0  0  0  0  0  0  0  0  0  0  0  0
   10.3088    5.0018   -7.0564 H   0  0  0  0  0  0  0  0  0  0  0  0
   12.1244    7.4465   -6.7809 H   0  0  0  0  0  0  0  0  0  0  0  0
   12.4363    5.8148   -7.4707 H   0  0  0  0  0  0  0  0  0  0  0  0
   12.0371    7.5931   -9.1534 H   0  0  0  0  0  0  0  0  0  0  0  0
   11.0203    6.1367   -9.2637 H   0  0  0  0  0  0  0  0  0  0  0  0
   10.2169    8.9594   -9.0216 H   0  0  0  0  0  0  0  0  0  0  0  0
    9.1770    7.4960   -9.1539 H   0  0  0  0  0  0  0  0  0  0  0  0
   10.3111    8.7214   -6.5719 H   0  0  0  0  0  0  0  0  0  0  0  0
    8.5854    8.7061   -7.1506 H   0  0  0  0  0  0  0  0  0  0  0  0
    8.9710    7.0210   -5.4656 H   0  0  0  0  0  0  0  0  0  0  0  0
    8.4810    6.3215   -7.0228 H   0  0  0  0  0  0  0  0  0  0  0  0
  1  2  2  0
  2  3  1  0
  4  3  2  0
  5  4  1  0
  6  5  2  0
  6  1  1  0
  1  7  1  0
  2  8  1  0
  3  9  1  0
 10 11  1  0
 11 12  1  0
 12 13  1  0
 13 14  1  0
 14 15  1  0
 15 16  1  0
 16 11  1  0
 10 17  1  0
 10 18  1  0
 11 19  1  0
 12 20  1  0
 12 21  1  0
 13 22  1  0
 13 23  1  0
 14 24  1  0
 14 25  1  0
 15 26  1  0
 15 27  1  0
 16 28  1  0
 16 29  1  0
  5 10  1  0
M  END
>  <Score>  (1) 
-7.20888

$$$$

     RDKit          3D

 26 27  0  0  0  0  0  0  0  0999 V2000
   11.6795    9.2076   -4.3651 C   0  0  0  0  0  0  0  0  0  0  0  0
   12.1287    9.1563   -3.0238 C   0  0  0  0  0  0  0  0  0  0  0  0
   12.1838    7.9048   -2.4017 C   0  0  0  0  0  0  0  0  0  0  0  0
   11.8036    6.8065   -3.1171 N   0  0  0  0  0  0  0  0  0  0  0  0
   11.3776    6.8955   -4.4038 C   0  0  0  0  0  0  0  0  0  0  0  0
   11.3189    8.0893   -5.0155 N   0  0  0  0  0  0  0  0  0  0  0  0
   11.6159   10.1413   -4.8954 H   0  0  0  0  0  0  0  0  0  0  0  0
   12.4174   10.0640   -2.5073 H   0  0  0  0  0  0  0  0  0  0  0  0
   12.5199    7.8249   -1.3828 H   0  0  0  0  0  0  0  0  0  0  0  0
   11.0075    5.7346   -5.0664 O   0  0  0  0  0  0  0  0  0  0  0  0
   10.6763    5.7867   -6.4198 C   0  0  0  0  0  0  0  0  0  0  0  0
   11.6199    5.6184   -7.4111 C   0  0  0  0  0  0  0  0  0  0  0  0
   11.2257    5.6815   -8.7452 C   0  0  0  0  0  0  0  0  0  0  0  0
    9.9153    5.9082   -9.1041 C   0  0  0  0  0  0  0  0  0  0  0  0
    9.4435    5.9836  -10.7871 S   0  0  0  0  0  6  0  0  0  0  0  0
   10.3447    5.0687  -11.5634 O   0  0  0  0  0  0  0  0  0  0  0  0
    7.9948    5.5408  -10.8755 O   0  0  0  0  0  0  0  0  0  0  0  0
    9.5627    7.6118  -11.3624 N   0  0  0  0  0  0  0  0  0  0  0  0
    9.2165    7.6268  -12.3485 H   0  0  0  0  0  0  0  0  0  0  0  0
    8.9937    6.0727   -8.0915 C   0  0  0  0  0  0  0  0  0  0  0  0
    9.3641    6.0137   -6.7445 C   0  0  0  0  0  0  0  0  0  0  0  0
   12.6664    5.4374   -7.1331 H   0  0  0  0  0  0  0  0  0  0  0  0
   11.9999    5.5437   -9.4881 H   0  0  0  0  0  0  0  0  0  0  0  0
    8.8876    8.1757  -10.7818 H   0  0  0  0  0  0  0  0  0  0  0  0
    7.9663    6.2504   -8.3474 H   0  0  0  0  0  0  0  0  0  0  0  0
    8.6322    6.1443   -5.9545 H   0  0  0  0  0  0  0  0  0  0  0  0
  1  2  2  0
  2  3  1  0
  4  3  2  0
  5  4  1  0
  6  5  2  0
  6  1  1  0
  1  7  1  0
  2  8  1  0
  3  9  1  0
 10 11  1  0
 11 12  2  0
 12 13  1  0
 13 14  2  0
 14 15  1  0
 15 16  2  0
 15 17  2  0
 15 18  1  0
 18 19  1  0
 14 20  1  0
 20 21  2  0
 21 11  1  0
 12 22  1  0
 13 23  1  0
 18 24  1  0
 20 25  1  0
 21 26  1  0
  5 10  1  0
M  END
>  <Score>  (1) 
-7.11317

$$$$

     RDKit          3D

 25 26  0  0  0  0  0  0  0  0999 V2000
   11.6795    9.2073   -4.3650 C   0  0  0  0  0  0  0  0  0  0  0  0
   12.1286    9.1566   -3.0243 C   0  0  0  0  0  0  0  0  0  0  0  0
   12.1843    7.9057   -2.4005 C   0  0  0  0  0  0  0  0  0  0  0  0
   11.8020    6.8056   -3.1214 N   0  0  0  0  0  0  0  0  0  0  0  0
   11.3788    6.8932   -4.3994 C   0  0  0  0  0  0  0  0  0  0  0  0
   11.3189    8.0916   -5.0164 N   0  0  0  0  0  0  0  0  0  0  0  0
   11.6500   10.1936   -4.8143 H   0  0  0  0  0  0  0  0  0  0  0  0
   12.4163   10.0665   -2.5118 H   0  0  0  0  0  0  0  0  0  0  0  0
   12.5199    7.8503   -1.3922 H   0  0  0  0  0  0  0  0  0  0  0  0
    7.0733    4.4033   -6.4998 H   0  0  0  0  0  0  0  0  0  0  0  0
    7.8936    4.3697   -5.7920 C   0  0  0  0  0  0  0  0  0  0  0  0
    8.0198    3.3500   -5.1358 O   0  0  0  0  0  0  0  0  0  0  0  0
    8.7933    5.5502   -5.6721 C   0  0  1  0  0  0  0  0  0  0  0  0
    9.7399    5.2732   -4.7267 O   0  0  0  0  0  0  0  0  0  0  0  0
   10.9678    5.6792   -5.1632 C   0  0  1  0  0  0  0  0  0  0  0  0
   10.9357    5.8955   -6.6303 C   0  0  2  0  0  0  0  0  0  0  0  0
   11.5482    7.0942   -7.0188 O   0  0  0  0  0  0  0  0  0  0  0  0
    9.4802    5.8683   -6.9672 C   0  0  1  0  0  0  0  0  0  0  0  0
    9.1806    4.8235   -7.8604 O   0  0  0  0  0  0  0  0  0  0  0  0
    8.1858    6.4247   -5.3524 H   0  0  0  0  0  0  0  0  0  0  0  0
   11.7014    4.8779   -4.9237 H   0  0  0  0  0  0  0  0  0  0  0  0
   11.4295    5.0404   -7.1560 H   0  0  0  0  0  0  0  0  0  0  0  0
   12.3910    6.8710   -7.5287 H   0  0  0  0  0  0  0  0  0  0  0  0
    9.1556    6.8458   -7.3799 H   0  0  0  0  0  0  0  0  0  0  0  0
    9.9351    4.1587   -7.8938 H   0  0  0  0  0  0  0  0  0  0  0  0
  1  2  2  0
  2  3  1  0
  4  3  2  0
  5  4  1  0
  6  5  2  0
  6  1  1  0
  1  7  1  0
  2  8  1  0
  3  9  1  0
 10 11  1  0
 11 12  2  0
 11 13  1  0
 13 14  1  0
 14 15  1  0
 15 16  1  0
 16 17  1  0
 16 18  1  0
 18 19  1  0
 18 13  1  0
 13 20  1  1
 15 21  1  6
 16 22  1  6
 17 23  1  0
 18 24  1  6
 19 25  1  0
  5 15  1  0
M  END
>  <Score>  (1) 
-7.02184

$$$$

     RDKit          3D

 25 26  0  0  0  0  0  0  0  0999 V2000
   11.6803    9.2080   -4.3629 C   0  0  0  0  0  0  0  0  0  0  0  0
   12.1279    9.1589   -3.0270 C   0  0  0  0  0  0  0  0  0  0  0  0
   12.1837    7.9015   -2.4005 C   0  0  0  0  0  0  0  0  0  0  0  0
   11.8032    6.8077   -3.1187 N   0  0  0  0  0  0  0  0  0  0  0  0
   11.3783    6.8939   -4.4014 C   0  0  0  0  0  0  0  0  0  0  0  0
   11.3186    8.0900   -5.0166 N   0  0  0  0  0  0  0  0  0  0  0  0
   11.6237   10.1559   -4.8778 H   0  0  0  0  0  0  0  0  0  0  0  0
   12.4173   10.0402   -2.4989 H   0  0  0  0  0  0  0  0  0  0  0  0
   12.5216    7.8415   -1.3839 H   0  0  0  0  0  0  0  0  0  0  0  0
   11.8878    2.4004   -6.0467 H   0  0  0  0  0  0  0  0  0  0  0  0
   12.2382    3.1182   -6.7748 C   0  0  0  0  0  0  0  0  0  0  0  0
   12.5200    2.7284   -7.8869 O   0  0  0  0  0  0  0  0  0  0  0  0
   12.3953    4.5755   -6.4829 C   0  0  2  0  0  0  0  0  0  0  0  0
   12.0305    4.8039   -5.1931 O   0  0  0  0  0  0  0  0  0  0  0  0
   10.9742    5.6586   -5.1367 C   0  0  2  0  0  0  0  0  0  0  0  0
   10.5442    6.0268   -6.5109 C   0  0  2  0  0  0  0  0  0  0  0  0
    9.2789    5.5680   -6.8540 O   0  0  0  0  0  0  0  0  0  0  0  0
   11.5933    5.4267   -7.3986 C   0  0  2  0  0  0  0  0  0  0  0  0
   11.0429    4.6916   -8.4485 O   0  0  0  0  0  0  0  0  0  0  0  0
   13.4923    4.8246   -6.5746 H   0  0  0  0  0  0  0  0  0  0  0  0
   10.1299    5.1631   -4.5849 H   0  0  0  0  0  0  0  0  0  0  0  0
   10.5280    7.1341   -6.6509 H   0  0  0  0  0  0  0  0  0  0  0  0
    8.7803    5.3716   -6.0286 H   0  0  0  0  0  0  0  0  0  0  0  0
   12.2205    6.2272   -7.8687 H   0  0  0  0  0  0  0  0  0  0  0  0
   10.1174    4.9371   -8.6422 H   0  0  0  0  0  0  0  0  0  0  0  0
  1  2  2  0
  2  3  1  0
  4  3  2  0
  5  4  1  0
  6  5  2  0
  6  1  1  0
  1  7  1  0
  2  8  1  0
  3  9  1  0
 10 11  1  0
 11 12  2  0
 11 13  1  0
 13 14  1  0
 14 15  1  0
 15 16  1  0
 16 17  1  0
 16 18  1  0
 18 19  1  0
 18 13  1  0
 13 20  1  1
 15 21  1  1
 16 22  1  1
 17 23  1  0
 18 24  1  6
 19 25  1  0
  5 15  1  0
M  END
>  <Score>  (1) 
-7.01703

$$$$

     RDKit          3D

 24 25  0  0  0  0  0  0  0  0999 V2000
   11.6811    9.2065   -4.3598 C   0  0  0  0  0  0  0  0  0  0  0  0
   12.1250    9.1591   -3.0355 C   0  0  0  0  0  0  0  0  0  0  0  0
   12.1826    7.8977   -2.4024 C   0  0  0  0  0  0  0  0  0  0  0  0
   11.8053    6.8088   -3.1128 N   0  0  0  0  0  0  0  0  0  0  0  0
   11.3770    6.8927   -4.4045 C   0  0  0  0  0  0  0  0  0  0  0  0
   11.3208    8.0953   -5.0120 N   0  0  0  0  0  0  0  0  0  0  0  0
   12.4227   10.0106   -2.4722 H   0  0  0  0  0  0  0  0  0  0  0  0
   12.5082    7.7716   -1.3976 H   0  0  0  0  0  0  0  0  0  0  0  0
   11.1023    5.9646   -4.8721 H   0  0  0  0  0  0  0  0  0  0  0  0
   11.5978   10.4701   -5.0697 C   0  0  0  0  0  0  0  0  0  0  0  0
   11.3468   11.6651   -4.4329 C   0  0  0  0  0  0  0  0  0  0  0  0
   11.2664   12.8737   -5.1071 C   0  0  0  0  0  0  0  0  0  0  0  0
   11.0204   14.0551   -4.4938 F   0  0  0  0  0  0  0  0  0  0  0  0
   11.4480   12.8590   -6.4709 C   0  0  0  0  0  0  0  0  0  0  0  0
   11.7005   11.6839   -7.1399 C   0  0  0  0  0  0  0  0  0  0  0  0
   11.7719   10.5120   -6.4376 C   0  0  0  0  0  0  0  0  0  0  0  0
   12.0249    9.3252   -7.0976 O   0  0  0  0  0  0  0  0  0  0  0  0
   12.2122    9.3092   -8.5041 C   0  0  0  0  0  0  0  0  0  0  0  0
   11.1987   11.7126   -3.3581 H   0  0  0  0  0  0  0  0  0  0  0  0
   11.3866   13.8070   -7.0116 H   0  0  0  0  0  0  0  0  0  0  0  0
   11.8402   11.7124   -8.2322 H   0  0  0  0  0  0  0  0  0  0  0  0
   11.3262    9.8363   -8.9384 H   0  0  0  0  0  0  0  0  0  0  0  0
   12.2685    8.2527   -8.8563 H   0  0  0  0  0  0  0  0  0  0  0  0
   13.1241    9.8615   -8.8100 H   0  0  0  0  0  0  0  0  0  0  0  0
  1  2  2  0
  2  3  1  0
  4  3  2  0
  5  4  1  0
  6  5  2  0
  6  1  1  0
  2  7  1  0
  3  8  1  0
  5  9  1  0
 10 11  2  0
 11 12  1  0
 12 13  1  0
 12 14  2  0
 14 15  1  0
 15 16  2  0
 16 17  1  0
 17 18  1  0
 16 10  1  0
 11 19  1  0
 14 20  1  0
 15 21  1  0
 18 22  1  0
 18 23  1  0
 18 24  1  0
  1 10  1  0
M  END
>  <Score>  (1) 
-7.06438

$$$$

     RDKit          3D

 24 26  0  0  0  0  0  0  0  0999 V2000
   11.6799    9.2071   -4.3636 C   0  0  0  0  0  0  0  0  0  0  0  0
   12.1278    9.1573   -3.0268 C   0  0  0  0  0  0  0  0  0  0  0  0
   12.1850    7.9053   -2.3981 C   0  0  0  0  0  0  0  0  0  0  0  0
   11.8012    6.8057   -3.1239 N   0  0  0  0  0  0  0  0  0  0  0  0
   11.3793    6.8920   -4.3977 C   0  0  0  0  0  0  0  0  0  0  0  0
   11.3188    8.0926   -5.0170 N   0  0  0  0  0  0  0  0  0  0  0  0
   11.6237   10.1587   -4.8788 H   0  0  0  0  0  0  0  0  0  0  0  0
   12.4169   10.0379   -2.4995 H   0  0  0  0  0  0  0  0  0  0  0  0
   11.0947    5.9635   -4.8942 H   0  0  0  0  0  0  0  0  0  0  0  0
   12.6244    7.7819   -1.0594 N   0  0  0  0  0  0  0  0  0  0  0  0
   11.9794    6.9794   -0.0414 C   0  0  0  0  0  0  0  0  0  0  0  0
   13.0840    6.9668    1.0263 C   0  0  2  0  0  0  0  0  0  0  0  0
   13.3679    8.4825    1.0010 C   0  0  0  0  0  0  0  0  0  0  0  0
   13.7740    8.4256   -0.4886 C   0  0  1  0  0  0  0  0  0  0  0  0
   14.8356    7.3585   -0.3369 C   0  0  0  0  0  0  0  0  0  0  0  0
   14.1909    6.4097    0.4554 O   0  0  0  0  0  0  0  0  0  0  0  0
   11.7220    5.9748   -0.3716 H   0  0  0  0  0  0  0  0  0  0  0  0
   11.1300    7.5390    0.4125 H   0  0  0  0  0  0  0  0  0  0  0  0
   12.7687    6.6067    1.9797 H   0  0  0  0  0  0  0  0  0  0  0  0
   14.2099    8.7441    1.6392 H   0  0  0  0  0  0  0  0  0  0  0  0
   12.4542    9.0569    1.1405 H   0  0  0  0  0  0  0  0  0  0  0  0
   14.0809    9.3536   -0.8922 H   0  0  0  0  0  0  0  0  0  0  0  0
   15.6544    7.7856    0.2782 H   0  0  0  0  0  0  0  0  0  0  0  0
   15.1830    6.9587   -1.2988 H   0  0  0  0  0  0  0  0  0  0  0  0
  1  2  2  0
  2  3  1  0
  4  3  2  0
  5  4  1  0
  6  5  2  0
  6  1  1  0
  1  7  1  0
  2  8  1  0
  5  9  1  0
 10 11  1  0
 11 12  1  0
 12 13  1  0
 13 14  1  0
 14 15  1  0
 15 16  1  0
 14 10  1  0
 16 12  1  0
 11 17  1  0
 11 18  1  0
 12 19  1  1
 13 20  1  0
 13 21  1  0
 14 22  1  6
 15 23  1  0
 15 24  1  0
  3 10  1  0
M  END
>  <Score>  (1) 
-7.14883

$$$$

     RDKit          3D

 20 21  0  0  0  0  0  0  0  0999 V2000
   11.6792    9.2045   -4.3647 C   0  0  0  0  0  0  0  0  0  0  0  0
   12.1281    9.1579   -3.0262 C   0  0  0  0  0  0  0  0  0  0  0  0
   12.1839    7.9030   -2.4004 C   0  0  0  0  0  0  0  0  0  0  0  0
   11.8028    6.8076   -3.1198 N   0  0  0  0  0  0  0  0  0  0  0  0
   11.3786    6.8908   -4.3990 C   0  0  0  0  0  0  0  0  0  0  0  0
   11.3193    8.0963   -5.0169 N   0  0  0  0  0  0  0  0  0  0  0  0
   11.6303   10.1641   -4.8614 H   0  0  0  0  0  0  0  0  0  0  0  0
   12.4155   10.0365   -2.5029 H   0  0  0  0  0  0  0  0  0  0  0  0
   11.0892    6.0034   -4.9253 H   0  0  0  0  0  0  0  0  0  0  0  0
   12.6261    7.7829   -1.0544 N   0  0  0  0  0  0  0  0  0  0  0  0
   13.5661    6.8169   -0.5342 C   0  0  0  0  0  0  0  0  0  0  0  0
   14.0482    7.3767    0.7918 C   0  0  0  0  0  0  0  0  0  0  0  0
   13.1136    8.4228    1.1369 N   0  0  0  0  0  0  0  0  0  0  0  0
   13.1087    8.9405    2.0238 H   0  0  0  0  0  0  0  0  0  0  0  0
   12.2295    8.5906    0.0435 C   0  0  0  0  0  0  0  0  0  0  0  0
   11.2352    9.3486    0.0483 O   0  0  0  0  0  0  0  0  0  0  0  0
   13.0604    5.8293   -0.3788 H   0  0  0  0  0  0  0  0  0  0  0  0
   14.4694    6.7252   -1.1773 H   0  0  0  0  0  0  0  0  0  0  0  0
   14.0221    6.5622    1.5269 H   0  0  0  0  0  0  0  0  0  0  0  0
   15.0896    7.7436    0.7455 H   0  0  0  0  0  0  0  0  0  0  0  0
  1  2  2  0
  2  3  1  0
  4  3  2  0
  5  4  1  0
  6  5  2  0
  6  1  1  0
  1  7  1  0
  2  8  1  0
  5  9  1  0
 10 11  1  0
 11 12  1  0
 12 13  1  0
 13 14  1  0
 13 15  1  0
 15 16  2  0
 15 10  1  0
 11 17  1  0
 11 18  1  0
 12 19  1  0
 12 20  1  0
  3 10  1  0
M  END
>  <Score>  (1) 
-7.01948

$$$$

     RDKit          3D

 19 20  0  0  0  0  0  0  0  0999 V2000
   11.6803    9.2087   -4.3629 C   0  0  0  0  0  0  0  0  0  0  0  0
   12.1284    9.1571   -3.0250 C   0  0  0  0  0  0  0  0  0  0  0  0
   12.1839    7.9049   -2.4012 C   0  0  0  0  0  0  0  0  0  0  0  0
   11.8015    6.8066   -3.1233 N   0  0  0  0  0  0  0  0  0  0  0  0
   11.3795    6.8940   -4.3977 C   0  0  0  0  0  0  0  0  0  0  0  0
   11.3184    8.0887   -5.0169 N   0  0  0  0  0  0  0  0  0  0  0  0
   11.6333   10.1782   -4.8570 H   0  0  0  0  0  0  0  0  0  0  0  0
   12.5200    7.8470   -1.3895 H   0  0  0  0  0  0  0  0  0  0  0  0
   11.0779    6.0212   -4.9620 H   0  0  0  0  0  0  0  0  0  0  0  0
   12.5162   10.3777   -2.3327 C   0  0  0  0  0  0  0  0  0  0  0  0
   12.6211   10.4040   -0.9516 C   0  0  0  0  0  0  0  0  0  0  0  0
   12.9862   11.5450   -0.2636 C   0  0  0  0  0  0  0  0  0  0  0  0
   13.2474   12.6754   -1.0037 C   0  0  0  0  0  0  0  0  0  0  0  0
   13.6098   13.8315   -0.4156 F   0  0  0  0  0  0  0  0  0  0  0  0
   13.1526   12.6798   -2.3630 N   0  0  0  0  0  0  0  0  0  0  0  0
   12.7926   11.5460   -3.0075 C   0  0  0  0  0  0  0  0  0  0  0  0
   12.4121    9.5099   -0.4090 H   0  0  0  0  0  0  0  0  0  0  0  0
   13.0776   11.6018    0.8070 H   0  0  0  0  0  0  0  0  0  0  0  0
   12.7250   11.5796   -4.0910 H   0  0  0  0  0  0  0  0  0  0  0  0
  1  2  2  0
  2  3  1  0
  4  3  2  0
  5  4  1  0
  6  5  2  0
  6  1  1  0
  1  7  1  0
  3  8  1  0
  5  9  1  0
 10 11  2  0
 11 12  1  0
 12 13  2  0
 13 14  1  0
 13 15  1  0
 15 16  2  0
 16 10  1  0
 11 17  1  0
 12 18  1  0
 16 19  1  0
  2 10  1  0
M  END
>  <Score>  (1) 
-7.36453

$$$$

     RDKit          3D

 20 21  0  0  0  0  0  0  0  0999 V2000
   12.3027    8.1263   -2.3013 C   0  0  0  0  0  0  0  0  0  0  0  0
   12.0203    6.8813   -2.9158 C   0  0  0  0  0  0  0  0  0  0  0  0
   11.5251    6.8976   -4.2230 C   0  0  0  0  0  0  0  0  0  0  0  0
   11.3423    8.1091   -4.8318 N   0  0  0  0  0  0  0  0  0  0  0  0
   11.6235    9.2764   -4.2124 C   0  0  0  0  0  0  0  0  0  0  0  0
   12.1011    9.2803   -2.9537 N   0  0  0  0  0  0  0  0  0  0  0  0
   12.6827    8.0533   -1.2920 H   0  0  0  0  0  0  0  0  0  0  0  0
   12.1747    5.9584   -2.4119 H   0  0  0  0  0  0  0  0  0  0  0  0
   11.3113    5.9673   -4.6893 H   0  0  0  0  0  0  0  0  0  0  0  0
   11.4044   10.5396   -4.9222 C   0  0  0  0  0  0  0  0  0  0  0  0
   12.0548   10.8132   -6.0873 C   0  0  0  0  0  0  0  0  0  0  0  0
   11.8084   12.0177   -6.7097 C   0  0  0  0  0  0  0  0  0  0  0  0
   10.9232   12.9582   -6.1919 C   0  0  0  0  0  0  0  0  0  0  0  0
   10.2734   12.6632   -5.0102 C   0  0  0  0  0  0  0  0  0  0  0  0
    9.1326   13.7821   -4.2669 Cl  0  0  0  0  0  0  0  0  0  0  0  0
   10.5255   11.4648   -4.4010 C   0  0  0  0  0  0  0  0  0  0  0  0
    9.8747   11.1849   -3.2302 F   0  0  0  0  0  0  0  0  0  0  0  0
   12.7365   10.0741   -6.4741 H   0  0  0  0  0  0  0  0  0  0  0  0
   12.3215   12.2366   -7.6315 H   0  0  0  0  0  0  0  0  0  0  0  0
   10.7191   13.9011   -6.6630 H   0  0  0  0  0  0  0  0  0  0  0  0
  2  1  2  0
  3  2  1  0
  4  3  2  0
  4  5  1  0
  5  6  2  0
  6  1  1  0
  1  7  1  0
  2  8  1  0
  3  9  1  0
 10 11  2  0
 11 12  1  0
 12 13  2  0
 13 14  1  0
 14 15  1  0
 14 16  2  0
 16 17  1  0
 16 10  1  0
 11 18  1  0
 12 19  1  0
 13 20  1  0
  5 10  1  0
M  END
>  <Score>  (1) 
-7.45853

$$$$

     RDKit          3D

 20 21  0  0  0  0  0  0  0  0999 V2000
   11.6805    9.2091   -4.3627 C   0  0  0  0  0  0  0  0  0  0  0  0
   12.1283    9.1546   -3.0243 C   0  0  0  0  0  0  0  0  0  0  0  0
   12.1841    7.9076   -2.4017 C   0  0  0  0  0  0  0  0  0  0  0  0
   11.8020    6.8055   -3.1214 N   0  0  0  0  0  0  0  0  0  0  0  0
   11.3790    6.8938   -4.3991 C   0  0  0  0  0  0  0  0  0  0  0  0
   11.3181    8.0894   -5.0178 N   0  0  0  0  0  0  0  0  0  0  0  0
   11.6564   10.1956   -4.7955 H   0  0  0  0  0  0  0  0  0  0  0  0
   12.5197    7.8488   -1.3916 H   0  0  0  0  0  0  0  0  0  0  0  0
   11.0898    5.9861   -4.9168 H   0  0  0  0  0  0  0  0  0  0  0  0
   12.5171   10.3738   -2.3272 C   0  0  0  0  0  0  0  0  0  0  0  0
   12.7152   11.5119   -3.0707 C   0  0  0  0  0  0  0  0  0  0  0  0
   13.0861   12.6914   -2.4407 C   0  0  0  0  0  0  0  0  0  0  0  0
   13.2712   12.7868   -1.0768 C   0  0  0  0  0  0  0  0  0  0  0  0
   13.5631   13.7299   -0.6100 H   0  0  0  0  0  0  0  0  0  0  0  0
   13.0703   11.6395   -0.3370 C   0  0  0  0  0  0  0  0  0  0  0  0
   13.2074   11.6825    0.7338 H   0  0  0  0  0  0  0  0  0  0  0  0
   12.6975   10.4512   -0.9646 C   0  0  0  0  0  0  0  0  0  0  0  0
   12.5871   11.5041   -4.1382 H   0  0  0  0  0  0  0  0  0  0  0  0
   13.2458   13.6010   -3.0207 H   0  0  0  0  0  0  0  0  0  0  0  0
   12.5349    9.5393   -0.4020 H   0  0  0  0  0  0  0  0  0  0  0  0
  1  2  2  0
  2  3  1  0
  4  3  2  0
  5  4  1  0
  6  5  2  0
  6  1  1  0
  1  7  1  0
  3  8  1  0
  5  9  1  0
 10 11  2  0
 11 12  1  0
 12 13  2  0
 13 14  1  0
 13 15  1  0
 15 16  1  0
 15 17  2  0
 17 10  1  0
 11 18  1  0
 12 19  1  0
 17 20  1  0
  2 10  1  0
M  END
>  <Score>  (1) 
-7.28318

$$$$

     RDKit          3D

 26 27  0  0  0  0  0  0  0  0999 V2000
   11.6798    9.2075   -4.3641 C   0  0  0  0  0  0  0  0  0  0  0  0
   12.1284    9.1549   -3.0242 C   0  0  0  0  0  0  0  0  0  0  0  0
   12.1846    7.9085   -2.4005 C   0  0  0  0  0  0  0  0  0  0  0  0
   11.8016    6.8046   -3.1224 N   0  0  0  0  0  0  0  0  0  0  0  0
   11.3789    6.8926   -4.3989 C   0  0  0  0  0  0  0  0  0  0  0  0
   11.3187    8.0919   -5.0169 N   0  0  0  0  0  0  0  0  0  0  0  0
   11.6391   10.1582   -4.8334 H   0  0  0  0  0  0  0  0  0  0  0  0
   12.5114    7.7739   -1.3891 H   0  0  0  0  0  0  0  0  0  0  0  0
   11.0980    5.9745   -4.8884 H   0  0  0  0  0  0  0  0  0  0  0  0
   11.9297   13.5312    0.4323 H   0  0  0  0  0  0  0  0  0  0  0  0
   11.4456   12.5686    0.2313 C   0  0  0  0  0  0  0  0  0  0  0  0
   12.2944   11.7520   -0.7074 C   0  0  1  0  0  0  0  0  0  0  0  0
   11.5795   10.7054   -1.2913 O   0  0  0  0  0  0  0  0  0  0  0  0
   12.5321   10.3028   -2.2576 C   0  0  2  0  0  0  0  0  0  0  0  0
   12.7534   11.5767   -3.0020 C   0  0  1  0  0  0  0  0  0  0  0  0
   11.6395   11.9864   -3.7215 O   0  0  0  0  0  0  0  0  0  0  0  0
   12.8745   12.5691   -1.8312 C   0  0  1  0  0  0  0  0  0  0  0  0
   12.1703   13.7330   -2.0834 O   0  0  0  0  0  0  0  0  0  0  0  0
   11.3901   12.0085    1.1924 H   0  0  0  0  0  0  0  0  0  0  0  0
   10.4055   12.6736   -0.1365 H   0  0  0  0  0  0  0  0  0  0  0  0
   13.1340   11.2686   -0.1464 H   0  0  0  0  0  0  0  0  0  0  0  0
   13.4550   10.0794   -1.6829 H   0  0  0  0  0  0  0  0  0  0  0  0
   13.6759   11.5937   -3.6021 H   0  0  0  0  0  0  0  0  0  0  0  0
   11.9063   12.6980   -4.3322 H   0  0  0  0  0  0  0  0  0  0  0  0
   13.9513   12.7943   -1.6312 H   0  0  0  0  0  0  0  0  0  0  0  0
   12.5452   14.4363   -1.4983 H   0  0  0  0  0  0  0  0  0  0  0  0
  1  2  2  0
  2  3  1  0
  4  3  2  0
  5  4  1  0
  6  5  2  0
  6  1  1  0
  1  7  1  0
  3  8  1  0
  5  9  1  0
 10 11  1  0
 11 12  1  0
 12 13  1  0
 13 14  1  0
 14 15  1  0
 15 16  1  0
 15 17  1  0
 17 18  1  0
 17 12  1  0
 11 19  1  0
 11 20  1  0
 12 21  1  1
 14 22  1  1
 15 23  1  6
 16 24  1  0
 17 25  1  1
 18 26  1  0
  2 14  1  0
M  END
>  <Score>  (1) 
-7.07576

$$$$

     RDKit          3D

 22 23  0  0  0  0  0  0  0  0999 V2000
   11.6794    9.2062   -4.3648 C   0  0  0  0  0  0  0  0  0  0  0  0
   12.1292    9.1564   -3.0222 C   0  0  0  0  0  0  0  0  0  0  0  0
   12.1832    7.9060   -2.4041 C   0  0  0  0  0  0  0  0  0  0  0  0
   11.8017    6.8069   -3.1226 N   0  0  0  0  0  0  0  0  0  0  0  0
   11.3794    6.8959   -4.3987 C   0  0  0  0  0  0  0  0  0  0  0  0
   11.3192    8.0885   -5.0145 N   0  0  0  0  0  0  0  0  0  0  0  0
   11.6484   10.1766   -4.8360 H   0  0  0  0  0  0  0  0  0  0  0  0
   12.5212    7.8748   -1.3981 H   0  0  0  0  0  0  0  0  0  0  0  0
   11.0902    5.9866   -4.9179 H   0  0  0  0  0  0  0  0  0  0  0  0
   12.5130   10.3653   -2.3079 C   0  0  0  0  0  0  0  0  0  0  0  0
   12.9156   11.4652   -3.0365 C   0  0  0  0  0  0  0  0  0  0  0  0
   13.2705   12.6549   -2.3901 C   0  0  0  0  0  0  0  0  0  0  0  0
   13.2208   12.7378   -1.0194 C   0  0  0  0  0  0  0  0  0  0  0  0
   12.8225   11.6515   -0.2779 C   0  0  0  0  0  0  0  0  0  0  0  0
   12.4721   10.4706   -0.9427 C   0  0  0  0  0  0  0  0  0  0  0  0
   12.0849    9.3934   -0.1174 N   0  0  0  0  0  4  0  0  0  0  0  0
   12.3098    8.2076   -0.4052 O   0  0  0  0  0  0  0  0  0  0  0  0
   11.4387    9.6338    1.0732 O   0  0  0  0  0  1  0  0  0  0  0  0
   12.9693   11.4454   -4.1160 H   0  0  0  0  0  0  0  0  0  0  0  0
   13.5867   13.5128   -2.9865 H   0  0  0  0  0  0  0  0  0  0  0  0
   13.4968   13.6605   -0.5372 H   0  0  0  0  0  0  0  0  0  0  0  0
   12.7795   11.7072    0.8181 H   0  0  0  0  0  0  0  0  0  0  0  0
  1  2  2  0
  2  3  1  0
  4  3  2  0
  5  4  1  0
  6  5  2  0
  6  1  1  0
  1  7  1  0
  3  8  1  0
  5  9  1  0
 10 11  2  0
 11 12  1  0
 12 13  2  0
 13 14  1  0
 14 15  2  0
 15 16  1  0
 16 17  2  0
 16 18  1  0
 15 10  1  0
 11 19  1  0
 12 20  1  0
 13 21  1  0
 14 22  1  0
  2 10  1  0
M  CHG  2  16   1  18  -1
M  END
>  <Score>  (1) 
-7.0575

$$$$

     RDKit          3D

 30 31  0  0  0  0  0  0  0  0999 V2000
   11.6792    9.2061   -4.3654 C   0  0  0  0  0  0  0  0  0  0  0  0
   12.1290    9.1548   -3.0226 C   0  0  0  0  0  0  0  0  0  0  0  0
   12.1845    7.9097   -2.4010 C   0  0  0  0  0  0  0  0  0  0  0  0
   11.8010    6.8040   -3.1238 N   0  0  0  0  0  0  0  0  0  0  0  0
   11.3794    6.8914   -4.3973 C   0  0  0  0  0  0  0  0  0  0  0  0
   11.3190    8.0939   -5.0169 N   0  0  0  0  0  0  0  0  0  0  0  0
   11.6283   10.1689   -4.8690 H   0  0  0  0  0  0  0  0  0  0  0  0
   12.5159    7.8089   -1.3779 H   0  0  0  0  0  0  0  0  0  0  0  0
   11.0977    5.9681   -4.8873 H   0  0  0  0  0  0  0  0  0  0  0  0
   12.4918   10.3429   -2.3734 N   0  0  0  0  0  0  0  0  0  0  0  0
   13.0288   10.3047   -1.0397 C   0  0  1  0  0  0  0  0  0  0  0  0
   14.3361    9.5477   -1.0075 C   0  0  0  0  0  0  0  0  0  0  0  0
   15.4557   10.5586   -0.8144 C   0  0  0  0  0  0  0  0  0  0  0  0
   15.3589   11.1084    0.5781 C   0  0  2  0  0  0  0  0  0  0  0  0
   15.8655   10.1658    1.5513 N   0  0  0  0  0  0  0  0  0  0  0  0
   13.9359   11.5251    0.8564 C   0  0  0  0  0  0  0  0  0  0  0  0
   13.2026   11.6929   -0.4586 C   0  0  0  0  0  0  0  0  0  0  0  0
   12.3769   11.2577   -2.8469 H   0  0  0  0  0  0  0  0  0  0  0  0
   12.2900    9.8026   -0.3382 H   0  0  0  0  0  0  0  0  0  0  0  0
   14.4644    9.0280   -1.9963 H   0  0  0  0  0  0  0  0  0  0  0  0
   14.3736    8.7780   -0.2134 H   0  0  0  0  0  0  0  0  0  0  0  0
   16.4243   10.0174   -0.9242 H   0  0  0  0  0  0  0  0  0  0  0  0
   15.4165   11.3193   -1.6022 H   0  0  0  0  0  0  0  0  0  0  0  0
   16.0086   12.0220    0.6493 H   0  0  0  0  0  0  0  0  0  0  0  0
   16.5973    9.5426    1.1802 H   0  0  0  0  0  0  0  0  0  0  0  0
   15.0551    9.6835    1.9862 H   0  0  0  0  0  0  0  0  0  0  0  0
   13.4534   10.6571    1.3837 H   0  0  0  0  0  0  0  0  0  0  0  0
   13.8593   12.4183    1.5004 H   0  0  0  0  0  0  0  0  0  0  0  0
   13.7516   12.3713   -1.1394 H   0  0  0  0  0  0  0  0  0  0  0  0
   12.1802   12.1305   -0.2733 H   0  0  0  0  0  0  0  0  0  0  0  0
  1  2  2  0
  2  3  1  0
  4  3  2  0
  5  4  1  0
  6  5  2  0
  6  1  1  0
  1  7  1  0
  3  8  1  0
  5  9  1  0
 10 11  1  0
 11 12  1  0
 12 13  1  0
 13 14  1  0
 14 15  1  0
 14 16  1  0
 16 17  1  0
 17 11  1  0
 10 18  1  0
 11 19  1  1
 12 20  1  0
 12 21  1  0
 13 22  1  0
 13 23  1  0
 14 24  1  6
 15 25  1  0
 15 26  1  0
 16 27  1  0
 16 28  1  0
 17 29  1  0
 17 30  1  0
  2 10  1  0
M  END
>  <Score>  (1) 
-7.02326

$$$$

     RDKit          3D

 21 22  0  0  0  0  0  0  0  0999 V2000
   11.6799    9.2078   -4.3640 C   0  0  0  0  0  0  0  0  0  0  0  0
   12.1283    9.1577   -3.0255 C   0  0  0  0  0  0  0  0  0  0  0  0
   12.1840    7.9038   -2.4005 C   0  0  0  0  0  0  0  0  0  0  0  0
   11.8025    6.8067   -3.1202 N   0  0  0  0  0  0  0  0  0  0  0  0
   11.3785    6.8938   -4.4007 C   0  0  0  0  0  0  0  0  0  0  0  0
   11.3188    8.0902   -5.0161 N   0  0  0  0  0  0  0  0  0  0  0  0
   11.6450   10.1791   -4.8238 H   0  0  0  0  0  0  0  0  0  0  0  0
   12.5221    7.8352   -1.3801 H   0  0  0  0  0  0  0  0  0  0  0  0
   11.0974    5.9679   -4.8876 H   0  0  0  0  0  0  0  0  0  0  0  0
   12.5007   10.2920   -2.3461 O   0  0  0  0  0  0  0  0  0  0  0  0
   12.0816   10.5226   -1.0482 C   0  0  0  0  0  0  0  0  0  0  0  0
   12.5192   11.7037   -0.4574 C   0  0  0  0  0  0  0  0  0  0  0  0
   12.1040   11.9400    0.8394 C   0  0  0  0  0  0  0  0  0  0  0  0
   11.3008   11.0716    1.5339 C   0  0  0  0  0  0  0  0  0  0  0  0
   10.9808   11.2652    2.5491 H   0  0  0  0  0  0  0  0  0  0  0  0
   10.8768    9.9023    0.9276 C   0  0  0  0  0  0  0  0  0  0  0  0
   11.2771    9.6426   -0.3664 C   0  0  0  0  0  0  0  0  0  0  0  0
   10.9422    8.7321   -0.8270 H   0  0  0  0  0  0  0  0  0  0  0  0
   13.1547   12.4123   -0.9775 H   0  0  0  0  0  0  0  0  0  0  0  0
   12.4144   12.8444    1.3494 H   0  0  0  0  0  0  0  0  0  0  0  0
   10.2387    9.2049    1.4693 H   0  0  0  0  0  0  0  0  0  0  0  0
  1  2  2  0
  2  3  1  0
  4  3  2  0
  5  4  1  0
  6  5  2  0
  6  1  1  0
  1  7  1  0
  3  8  1  0
  5  9  1  0
 10 11  1  0
 11 12  2  0
 12 13  1  0
 13 14  2  0
 14 15  1  0
 14 16  1  0
 16 17  2  0
 17 18  1  0
 17 11  1  0
 12 19  1  0
 13 20  1  0
 16 21  1  0
  2 10  1  0
M  END
>  <Score>  (1) 
-7.02184

$$$$

     RDKit          3D

 21 22  0  0  0  0  0  0  0  0999 V2000
   11.4306    7.7619   -5.0505 C   0  0  0  0  0  0  0  0  0  0  0  0
   11.8039    9.0626   -4.6559 C   0  0  0  0  0  0  0  0  0  0  0  0
   12.1366    9.2676   -3.3058 C   0  0  0  0  0  0  0  0  0  0  0  0
   12.0795    8.2026   -2.4599 N   0  0  0  0  0  0  0  0  0  0  0  0
   11.7151    6.9629   -2.8763 C   0  0  0  0  0  0  0  0  0  0  0  0
   11.3941    6.7504   -4.1635 N   0  0  0  0  0  0  0  0  0  0  0  0
   11.1709    7.5919   -6.0945 H   0  0  0  0  0  0  0  0  0  0  0  0
   11.8375    9.8764   -5.3494 H   0  0  0  0  0  0  0  0  0  0  0  0
   12.4293   10.2528   -2.9601 H   0  0  0  0  0  0  0  0  0  0  0  0
   11.6795    5.6628   -1.6853 S   0  0  0  0  0  0  0  0  0  0  0  0
   13.0635    4.5449   -1.8660 C   0  0  0  0  0  0  0  0  0  0  0  0
   14.0163    4.7311   -2.8444 C   0  0  0  0  0  0  0  0  0  0  0  0
   15.0818    3.8728   -2.9855 C   0  0  0  0  0  0  0  0  0  0  0  0
   15.1942    2.7991   -2.1219 C   0  0  0  0  0  0  0  0  0  0  0  0
   16.0205    2.1243   -2.2230 H   0  0  0  0  0  0  0  0  0  0  0  0
   14.2697    2.5779   -1.1362 C   0  0  0  0  0  0  0  0  0  0  0  0
   13.1964    3.4684   -1.0173 C   0  0  0  0  0  0  0  0  0  0  0  0
   13.9275    5.5777   -3.5253 H   0  0  0  0  0  0  0  0  0  0  0  0
   15.8430    4.0108   -3.7574 H   0  0  0  0  0  0  0  0  0  0  0  0
   14.3163    1.7492   -0.4356 H   0  0  0  0  0  0  0  0  0  0  0  0
   12.4356    3.3430   -0.2570 H   0  0  0  0  0  0  0  0  0  0  0  0
  1  2  2  0
  1  6  1  0
  2  3  1  0
  3  4  2  0
  5  4  1  0
  6  5  2  0
  1  7  1  0
  2  8  1  0
  3  9  1  0
 10 11  1  0
 11 12  2  0
 12 13  1  0
 13 14  2  0
 14 15  1  0
 14 16  1  0
 16 17  2  0
 17 11  1  0
 12 18  1  0
 13 19  1  0
 16 20  1  0
 17 21  1  0
  5 10  1  0
M  END
>  <Score>  (1) 
-7.35095

$$$$

     RDKit          3D

 22 23  0  0  0  0  0  0  0  0999 V2000
   11.4310    7.7659   -5.0527 C   0  0  0  0  0  0  0  0  0  0  0  0
   11.8038    9.0622   -4.6563 C   0  0  0  0  0  0  0  0  0  0  0  0
   12.1361    9.2669   -3.3074 C   0  0  0  0  0  0  0  0  0  0  0  0
   12.0795    8.2009   -2.4583 N   0  0  0  0  0  0  0  0  0  0  0  0
   11.7152    6.9644   -2.8776 C   0  0  0  0  0  0  0  0  0  0  0  0
   11.3944    6.7477   -4.1598 N   0  0  0  0  0  0  0  0  0  0  0  0
   11.1766    7.6249   -6.1018 H   0  0  0  0  0  0  0  0  0  0  0  0
   11.8397    9.8833   -5.3472 H   0  0  0  0  0  0  0  0  0  0  0  0
   12.4222   10.2530   -2.9939 H   0  0  0  0  0  0  0  0  0  0  0  0
   11.6995    5.9616   -1.9025 O   0  0  0  0  0  0  0  0  0  0  0  0
   12.8313    5.1350   -1.7580 C   0  0  0  0  0  0  0  0  0  0  0  0
   13.9436    5.3106   -2.5680 C   0  0  0  0  0  0  0  0  0  0  0  0
   15.0627    4.5217   -2.4523 C   0  0  0  0  0  0  0  0  0  0  0  0
   15.0575    3.5342   -1.4976 C   0  0  0  0  0  0  0  0  0  0  0  0
   15.9396    2.9080   -1.4025 H   0  0  0  0  0  0  0  0  0  0  0  0
   13.9565    3.3636   -0.6992 C   0  0  0  0  0  0  0  0  0  0  0  0
   12.8181    4.1456   -0.7970 C   0  0  0  0  0  0  0  0  0  0  0  0
   11.6966    3.9152    0.0707 C   0  0  0  0  0  0  0  0  0  0  0  0
   10.7736    3.7156    0.7637 N   0  0  0  0  0  0  0  0  0  0  0  0
   13.9179    6.0969   -3.3108 H   0  0  0  0  0  0  0  0  0  0  0  0
   15.9401    4.6594   -3.0902 H   0  0  0  0  0  0  0  0  0  0  0  0
   13.9897    2.5777    0.0389 H   0  0  0  0  0  0  0  0  0  0  0  0
  1  2  2  0
  1  6  1  0
  2  3  1  0
  3  4  2  0
  5  4  1  0
  6  5  2  0
  1  7  1  0
  2  8  1  0
  3  9  1  0
 10 11  1  0
 11 12  2  0
 12 13  1  0
 13 14  2  0
 14 15  1  0
 14 16  1  0
 16 17  2  0
 17 18  1  0
 18 19  3  0
 17 11  1  0
 12 20  1  0
 13 21  1  0
 16 22  1  0
  5 10  1  0
M  END
>  <Score>  (1) 
-7.20961

$$$$

     RDKit          3D

 20 21  0  0  0  0  0  0  0  0999 V2000
   11.4301    7.7592   -5.0502 C   0  0  0  0  0  0  0  0  0  0  0  0
   11.8049    9.0649   -4.6538 C   0  0  0  0  0  0  0  0  0  0  0  0
   12.1362    9.2684   -3.3087 C   0  0  0  0  0  0  0  0  0  0  0  0
   12.0786    8.1998   -2.4613 N   0  0  0  0  0  0  0  0  0  0  0  0
   11.7156    6.9626   -2.8736 C   0  0  0  0  0  0  0  0  0  0  0  0
   11.3946    6.7532   -4.1645 N   0  0  0  0  0  0  0  0  0  0  0  0
   11.1720    7.5822   -6.0788 H   0  0  0  0  0  0  0  0  0  0  0  0
   11.8191    9.8305   -5.3882 H   0  0  0  0  0  0  0  0  0  0  0  0
   12.4252   10.2518   -2.9784 H   0  0  0  0  0  0  0  0  0  0  0  0
   11.6764    5.8938   -1.9394 N   0  0  0  0  0  0  0  0  0  0  0  0
   10.5966    5.8283   -1.0004 C   0  0  0  0  0  0  0  0  0  0  0  0
   10.5222    4.8336   -0.0999 N   0  0  0  0  0  0  0  0  0  0  0  0
    9.5220    4.7321    0.8045 C   0  0  0  0  0  0  0  0  0  0  0  0
    8.5164    5.6778    0.8294 C   0  0  0  0  0  0  0  0  0  0  0  0
    8.5985    6.6949   -0.0963 C   0  0  0  0  0  0  0  0  0  0  0  0
    9.6194    6.7501   -0.9786 N   0  0  0  0  0  0  0  0  0  0  0  0
   12.4275    5.1705   -1.9435 H   0  0  0  0  0  0  0  0  0  0  0  0
    9.4697    3.9368    1.5187 H   0  0  0  0  0  0  0  0  0  0  0  0
    7.6941    5.6437    1.5313 H   0  0  0  0  0  0  0  0  0  0  0  0
    7.8202    7.4540   -0.1000 H   0  0  0  0  0  0  0  0  0  0  0  0
  1  2  2  0
  1  6  1  0
  2  3  1  0
  3  4  2  0
  5  4  1  0
  6  5  2  0
  1  7  1  0
  2  8  1  0
  3  9  1  0
 10 11  1  0
 11 12  2  0
 12 13  1  0
 13 14  2  0
 14 15  1  0
 15 16  2  0
 16 11  1  0
 10 17  1  0
 13 18  1  0
 14 19  1  0
 15 20  1  0
  5 10  1  0
M  END
>  <Score>  (1) 
-7.11573

$$$$

     RDKit          3D

 24 25  0  0  0  0  0  0  0  0999 V2000
   11.4305    7.7613   -5.0506 C   0  0  0  0  0  0  0  0  0  0  0  0
   11.8043    9.0626   -4.6544 C   0  0  0  0  0  0  0  0  0  0  0  0
   12.1364    9.2701   -3.3096 C   0  0  0  0  0  0  0  0  0  0  0  0
   12.0785    8.1965   -2.4581 N   0  0  0  0  0  0  0  0  0  0  0  0
   11.7161    6.9664   -2.8753 C   0  0  0  0  0  0  0  0  0  0  0  0
   11.3942    6.7511   -4.1640 N   0  0  0  0  0  0  0  0  0  0  0  0
   11.1747    7.6114   -6.0967 H   0  0  0  0  0  0  0  0  0  0  0  0
   11.8429    9.8805   -5.3284 H   0  0  0  0  0  0  0  0  0  0  0  0
   12.4212   10.2463   -2.9915 H   0  0  0  0  0  0  0  0  0  0  0  0
   11.6736    5.8620   -1.9196 C   0  0  0  0  0  0  0  0  0  0  0  0
   10.5134    5.5932   -1.2250 C   0  0  0  0  0  0  0  0  0  0  0  0
   10.4154    4.5655   -0.3121 C   0  0  0  0  0  0  0  0  0  0  0  0
   11.5317    3.7914   -0.1027 C   0  0  0  0  0  0  0  0  0  0  0  0
   12.6929    4.0611   -0.7983 C   0  0  0  0  0  0  0  0  0  0  0  0
   12.7961    5.0881   -1.7126 C   0  0  0  0  0  0  0  0  0  0  0  0
   13.9649    5.3568   -2.4105 O   0  0  0  0  0  0  0  0  0  0  0  0
   15.1379    4.6025   -2.2406 C   0  0  0  0  0  0  0  0  0  0  0  0
    9.6149    6.1996   -1.3796 H   0  0  0  0  0  0  0  0  0  0  0  0
    9.5002    4.3462    0.2419 H   0  0  0  0  0  0  0  0  0  0  0  0
   11.4660    2.9714    0.6208 H   0  0  0  0  0  0  0  0  0  0  0  0
   13.5747    3.4489   -0.6321 H   0  0  0  0  0  0  0  0  0  0  0  0
   15.6299    4.8048   -1.2534 H   0  0  0  0  0  0  0  0  0  0  0  0
   15.8770    4.9655   -3.0043 H   0  0  0  0  0  0  0  0  0  0  0  0
   14.9547    3.5121   -2.3819 H   0  0  0  0  0  0  0  0  0  0  0  0
  1  2  2  0
  1  6  1  0
  2  3  1  0
  3  4  2  0
  5  4  1  0
  6  5  2  0
  1  7  1  0
  2  8  1  0
  3  9  1  0
 10 11  2  0
 11 12  1  0
 12 13  2  0
 13 14  1  0
 14 15  2  0
 15 16  1  0
 16 17  1  0
 15 10  1  0
 11 18  1  0
 12 19  1  0
 13 20  1  0
 14 21  1  0
 17 22  1  0
 17 23  1  0
 17 24  1  0
  5 10  1  0
M  END
>  <Score>  (1) 
-7.11212

$$$$

     RDKit          3D

 32 33  0  0  0  0  0  0  0  0999 V2000
   11.4304    7.7606   -5.0500 C   0  0  0  0  0  0  0  0  0  0  0  0
   11.8043    9.0637   -4.6555 C   0  0  0  0  0  0  0  0  0  0  0  0
   12.1365    9.2683   -3.3073 C   0  0  0  0  0  0  0  0  0  0  0  0
   12.0790    8.1997   -2.4594 N   0  0  0  0  0  0  0  0  0  0  0  0
   11.7159    6.9650   -2.8748 C   0  0  0  0  0  0  0  0  0  0  0  0
   11.3939    6.7506   -4.1652 N   0  0  0  0  0  0  0  0  0  0  0  0
   11.8329    9.8646   -5.3589 H   0  0  0  0  0  0  0  0  0  0  0  0
   12.4199   10.2437   -2.9948 H   0  0  0  0  0  0  0  0  0  0  0  0
   11.6994    6.1759   -2.1268 H   0  0  0  0  0  0  0  0  0  0  0  0
   11.1149    7.6174   -6.3841 O   0  0  0  0  0  0  0  0  0  0  0  0
    9.8217    7.4812   -6.8963 C   0  0  1  0  0  0  0  0  0  0  0  0
    9.5908    8.5314   -7.7824 O   0  0  0  0  0  0  0  0  0  0  0  0
    8.5330    8.1965   -8.5971 C   0  0  1  0  0  0  0  0  0  0  0  0
    7.9410    9.4794   -9.1422 C   0  0  0  0  0  0  0  0  0  0  0  0
    7.5232   10.2280   -8.0418 O   0  0  0  0  0  0  0  0  0  0  0  0
    9.0295    7.3007   -9.7286 C   0  0  2  0  0  0  0  0  0  0  0  0
    7.9772    6.4803  -10.1436 O   0  0  0  0  0  0  0  0  0  0  0  0
   10.0946    6.4014   -9.1107 C   0  0  2  0  0  0  0  0  0  0  0  0
   10.2241    5.2166   -9.7941 O   0  0  0  0  0  0  0  0  0  0  0  0
    9.7045    6.1897   -7.6722 C   0  0  1  0  0  0  0  0  0  0  0  0
   10.4685    5.1844   -7.0881 O   0  0  0  0  0  0  0  0  0  0  0  0
    9.0285    7.4971   -6.1159 H   0  0  0  0  0  0  0  0  0  0  0  0
    7.7296    7.6680   -8.0513 H   0  0  0  0  0  0  0  0  0  0  0  0
    8.7042   10.0346   -9.7433 H   0  0  0  0  0  0  0  0  0  0  0  0
    7.1115    9.2098   -9.8211 H   0  0  0  0  0  0  0  0  0  0  0  0
    6.6996    9.8173   -7.6902 H   0  0  0  0  0  0  0  0  0  0  0  0
    9.4375    7.8813  -10.5653 H   0  0  0  0  0  0  0  0  0  0  0  0
    7.3382    6.3563   -9.3956 H   0  0  0  0  0  0  0  0  0  0  0  0
   11.0405    6.9833   -9.1106 H   0  0  0  0  0  0  0  0  0  0  0  0
   11.1830    5.0701   -9.9767 H   0  0  0  0  0  0  0  0  0  0  0  0
    8.6432    5.8674   -7.6260 H   0  0  0  0  0  0  0  0  0  0  0  0
   10.1028    4.9598   -6.2009 H   0  0  0  0  0  0  0  0  0  0  0  0
  1  2  2  0
  1  6  1  0
  2  3  1  0
  3  4  2  0
  5  4  1  0
  6  5  2  0
  2  7  1  0
  3  8  1  0
  5  9  1  0
 10 11  1  0
 11 12  1  0
 12 13  1  0
 13 14  1  0
 14 15  1  0
 13 16  1  0
 16 17  1  0
 16 18  1  0
 18 19  1  0
 18 20  1  0
 20 21  1  0
 20 11  1  0
 11 22  1  1
 13 23  1  1
 14 24  1  0
 14 25  1  0
 15 26  1  0
 16 27  1  6
 17 28  1  0
 18 29  1  1
 19 30  1  0
 20 31  1  6
 21 32  1  0
  1 10  1  0
M  END
>  <Score>  (1) 
-7.7955

$$$$

     RDKit          3D

 20 21  0  0  0  0  0  0  0  0999 V2000
   12.3028    8.1204   -2.3006 C   0  0  0  0  0  0  0  0  0  0  0  0
   12.0219    6.8839   -2.9117 C   0  0  0  0  0  0  0  0  0  0  0  0
   11.5239    6.8977   -4.2261 C   0  0  0  0  0  0  0  0  0  0  0  0
   11.3426    8.1093   -4.8310 N   0  0  0  0  0  0  0  0  0  0  0  0
   11.6247    9.2764   -4.2094 C   0  0  0  0  0  0  0  0  0  0  0  0
   12.0991    9.2834   -2.9593 N   0  0  0  0  0  0  0  0  0  0  0  0
   12.6790    8.0601   -1.3025 H   0  0  0  0  0  0  0  0  0  0  0  0
   12.1868    5.9672   -2.3810 H   0  0  0  0  0  0  0  0  0  0  0  0
   11.2973    5.9811   -4.7277 H   0  0  0  0  0  0  0  0  0  0  0  0
   11.3929   10.5137   -4.9500 C   0  0  0  0  0  0  0  0  0  0  0  0
   10.1221   10.8265   -5.4070 C   0  0  0  0  0  0  0  0  0  0  0  0
    9.8863   11.9888   -6.1068 C   0  0  0  0  0  0  0  0  0  0  0  0
   10.9286   12.8650   -6.3628 C   0  0  0  0  0  0  0  0  0  0  0  0
   12.2111   12.5764   -5.9167 C   0  0  0  0  0  0  0  0  0  0  0  0
   12.4135   11.4008   -5.2169 C   0  0  0  0  0  0  0  0  0  0  0  0
   13.6473   11.0748   -4.7608 F   0  0  0  0  0  0  0  0  0  0  0  0
    9.3349   10.1138   -5.1853 H   0  0  0  0  0  0  0  0  0  0  0  0
    8.8722   12.1710   -6.4339 H   0  0  0  0  0  0  0  0  0  0  0  0
   10.6942   13.7652   -6.9162 H   0  0  0  0  0  0  0  0  0  0  0  0
   13.0068   13.2700   -6.1258 H   0  0  0  0  0  0  0  0  0  0  0  0
  2  1  2  0
  3  2  1  0
  4  3  2  0
  4  5  1  0
  5  6  2  0
  6  1  1  0
  1  7  1  0
  2  8  1  0
  3  9  1  0
 10 11  2  0
 11 12  1  0
 12 13  2  0
 13 14  1  0
 14 15  2  0
 15 16  1  0
 15 10  1  0
 11 17  1  0
 12 18  1  0
 13 19  1  0
 14 20  1  0
  5 10  1  0
M  END
>  <Score>  (1) 
-7.4578

$$$$

     RDKit          3D

 32 33  0  0  0  0  0  0  0  0999 V2000
   11.4302    7.7590   -5.0496 C   0  0  0  0  0  0  0  0  0  0  0  0
   11.8048    9.0648   -4.6540 C   0  0  0  0  0  0  0  0  0  0  0  0
   12.1362    9.2689   -3.3091 C   0  0  0  0  0  0  0  0  0  0  0  0
   12.0788    8.1986   -2.4589 N   0  0  0  0  0  0  0  0  0  0  0  0
   11.7162    6.9655   -2.8739 C   0  0  0  0  0  0  0  0  0  0  0  0
   11.3937    6.7513   -4.1665 N   0  0  0  0  0  0  0  0  0  0  0  0
   11.8310    9.8631   -5.3666 H   0  0  0  0  0  0  0  0  0  0  0  0
   12.4209   10.2460   -2.9926 H   0  0  0  0  0  0  0  0  0  0  0  0
   11.6692    6.1180   -2.2083 H   0  0  0  0  0  0  0  0  0  0  0  0
   11.1119    7.6007   -6.3808 O   0  0  0  0  0  0  0  0  0  0  0  0
   10.2119    6.6848   -6.8999 C   0  0  1  0  0  0  0  0  0  0  0  0
    9.2306    7.2666   -7.6848 O   0  0  0  0  0  0  0  0  0  0  0  0
    8.2100    6.4140   -8.0035 C   0  0  2  0  0  0  0  0  0  0  0  0
    7.2762    6.1451   -6.8430 C   0  0  0  0  0  0  0  0  0  0  0  0
    6.2577    5.2804   -7.2002 O   0  0  0  0  0  0  0  0  0  0  0  0
    8.6929    5.1498   -8.6504 C   0  0  2  0  0  0  0  0  0  0  0  0
    7.6961    4.2290   -8.8262 O   0  0  0  0  0  0  0  0  0  0  0  0
    9.8646    4.5350   -7.9294 C   0  0  1  0  0  0  0  0  0  0  0  0
   10.3410    3.4628   -8.6590 O   0  0  0  0  0  0  0  0  0  0  0  0
   10.9054    5.6348   -7.7805 C   0  0  2  0  0  0  0  0  0  0  0  0
   12.0082    5.1941   -7.0599 O   0  0  0  0  0  0  0  0  0  0  0  0
    9.7906    6.0976   -6.0440 H   0  0  0  0  0  0  0  0  0  0  0  0
    7.5767    6.9393   -8.7789 H   0  0  0  0  0  0  0  0  0  0  0  0
    7.7897    5.7097   -5.9677 H   0  0  0  0  0  0  0  0  0  0  0  0
    6.8530    7.1140   -6.5057 H   0  0  0  0  0  0  0  0  0  0  0  0
    5.6141    5.2059   -6.4711 H   0  0  0  0  0  0  0  0  0  0  0  0
    9.0718    5.4240   -9.6780 H   0  0  0  0  0  0  0  0  0  0  0  0
    8.0323    3.5121   -9.4422 H   0  0  0  0  0  0  0  0  0  0  0  0
    9.5190    4.2419   -6.9261 H   0  0  0  0  0  0  0  0  0  0  0  0
   10.4673    2.6934   -8.0397 H   0  0  0  0  0  0  0  0  0  0  0  0
   11.1717    6.0776   -8.7456 H   0  0  0  0  0  0  0  0  0  0  0  0
   12.7886    5.1985   -7.6446 H   0  0  0  0  0  0  0  0  0  0  0  0
  1  2  2  0
  1  6  1  0
  2  3  1  0
  3  4  2  0
  5  4  1  0
  6  5  2  0
  2  7  1  0
  3  8  1  0
  5  9  1  0
 10 11  1  0
 11 12  1  0
 12 13  1  0
 13 14  1  0
 14 15  1  0
 13 16  1  0
 16 17  1  0
 16 18  1  0
 18 19  1  0
 18 20  1  0
 20 21  1  0
 20 11  1  0
 11 22  1  1
 13 23  1  6
 14 24  1  0
 14 25  1  0
 15 26  1  0
 16 27  1  6
 17 28  1  0
 18 29  1  1
 19 30  1  0
 20 31  1  6
 21 32  1  0
  1 10  1  0
M  END
>  <Score>  (1) 
-7.26992

$$$$

     RDKit          3D

 25 28  0  0  0  0  0  0  0  0999 V2000
   11.4243    7.7392   -5.0563 C   0  0  0  0  0  0  0  0  0  0  0  0
   11.8057    9.0581   -4.6429 C   0  0  0  0  0  0  0  0  0  0  0  0
   12.1318    9.2558   -3.3165 C   0  0  0  0  0  0  0  0  0  0  0  0
   12.0818    8.2020   -2.4484 N   0  0  0  0  0  0  0  0  0  0  0  0
   11.7146    6.9646   -2.8807 C   0  0  0  0  0  0  0  0  0  0  0  0
   11.4018    6.7883   -4.1674 N   0  0  0  0  0  0  0  0  0  0  0  0
   11.8422    9.8713   -5.3224 H   0  0  0  0  0  0  0  0  0  0  0  0
   12.4280   10.2069   -2.9186 H   0  0  0  0  0  0  0  0  0  0  0  0
   11.7021    6.1913   -2.1298 H   0  0  0  0  0  0  0  0  0  0  0  0
   11.0904    7.5768   -6.4565 C   0  0  0  0  0  0  0  0  0  0  0  0
   10.5460    8.5809   -7.2358 N   0  0  0  0  0  0  0  0  0  0  0  0
   10.3390    8.1905   -8.4473 N   0  0  0  0  0  0  0  0  0  0  0  0
   10.7283    6.9357   -8.5259 N   0  0  0  0  0  0  0  0  0  0  0  0
   10.7003    6.1204   -9.5929 C   0  0  0  0  0  0  0  0  0  0  0  0
   11.1449    4.8785   -9.4562 N   0  0  0  0  0  0  0  0  0  0  0  0
   11.6145    4.4107   -8.3119 C   0  0  0  0  0  0  0  0  0  0  0  0
   12.1085    3.2208   -7.9348 N   0  0  0  0  0  0  0  0  0  0  0  0
   12.4398    3.2988   -6.6442 C   0  0  0  0  0  0  0  0  0  0  0  0
   12.1623    4.5706   -6.1417 C   0  0  0  0  0  0  0  0  0  0  0  0
   11.6481    5.2539   -7.1914 C   0  0  0  0  0  0  0  0  0  0  0  0
   11.1942    6.5298   -7.3217 C   0  0  0  0  0  0  0  0  0  0  0  0
   10.3277    6.4365  -10.5660 H   0  0  0  0  0  0  0  0  0  0  0  0
   12.1985    2.4013   -8.5800 H   0  0  0  0  0  0  0  0  0  0  0  0
   12.8657    2.4513   -6.1079 H   0  0  0  0  0  0  0  0  0  0  0  0
   12.3676    4.7853   -5.1444 H   0  0  0  0  0  0  0  0  0  0  0  0
  1  2  2  0
  1  6  1  0
  2  3  1  0
  3  4  2  0
  5  4  1  0
  6  5  2  0
  2  7  1  0
  3  8  1  0
  5  9  1  0
 10 11  1  0
 11 12  2  0
 12 13  1  0
 13 14  1  0
 14 15  2  0
 15 16  1  0
 16 17  1  0
 17 18  1  0
 18 19  2  0
 19 20  1  0
 20 21  1  0
 21 10  2  0
 21 13  1  0
 20 16  2  0
 14 22  1  0
 17 23  1  0
 18 24  1  0
 19 25  1  0
  1 10  1  0
M  END
>  <Score>  (1) 
-7.14415

$$$$

     RDKit          3D

 20 21  0  0  0  0  0  0  0  0999 V2000
   12.3028    8.1250   -2.3009 C   0  0  0  0  0  0  0  0  0  0  0  0
   12.0206    6.8819   -2.9151 C   0  0  0  0  0  0  0  0  0  0  0  0
   11.5251    6.8956   -4.2228 C   0  0  0  0  0  0  0  0  0  0  0  0
   11.3426    8.1132   -4.8314 N   0  0  0  0  0  0  0  0  0  0  0  0
   11.6231    9.2739   -4.2131 C   0  0  0  0  0  0  0  0  0  0  0  0
   12.1008    9.2814   -2.9547 N   0  0  0  0  0  0  0  0  0  0  0  0
   12.6846    8.0660   -1.2882 H   0  0  0  0  0  0  0  0  0  0  0  0
   12.1881    5.9626   -2.3772 H   0  0  0  0  0  0  0  0  0  0  0  0
   11.3001    5.9754   -4.7197 H   0  0  0  0  0  0  0  0  0  0  0  0
   11.4067   10.5330   -4.9156 C   0  0  0  0  0  0  0  0  0  0  0  0
   11.5243   10.6006   -6.2901 C   0  0  0  0  0  0  0  0  0  0  0  0
   11.3215   11.7811   -6.9482 C   0  0  0  0  0  0  0  0  0  0  0  0
   10.9950   12.9261   -6.2455 C   0  0  0  0  0  0  0  0  0  0  0  0
   10.8727   12.8757   -4.8627 C   0  0  0  0  0  0  0  0  0  0  0  0
   11.0814   11.6754   -4.2190 C   0  0  0  0  0  0  0  0  0  0  0  0
   10.9313   11.5988   -2.4870 Cl  0  0  0  0  0  0  0  0  0  0  0  0
   11.7810    9.7026   -6.8475 H   0  0  0  0  0  0  0  0  0  0  0  0
   11.4191   11.8113   -8.0287 H   0  0  0  0  0  0  0  0  0  0  0  0
   10.8362   13.8594   -6.7819 H   0  0  0  0  0  0  0  0  0  0  0  0
   10.6160   13.7967   -4.3589 H   0  0  0  0  0  0  0  0  0  0  0  0
  2  1  2  0
  3  2  1  0
  4  3  2  0
  4  5  1  0
  5  6  2  0
  6  1  1  0
  1  7  1  0
  2  8  1  0
  3  9  1  0
 10 11  2  0
 11 12  1  0
 12 13  2  0
 13 14  1  0
 14 15  2  0
 15 16  1  0
 15 10  1  0
 11 17  1  0
 12 18  1  0
 13 19  1  0
 14 20  1  0
  5 10  1  0
M  END
>  <Score>  (1) 
-7.45231

$$$$

     RDKit          3D

 22 23  0  0  0  0  0  0  0  0999 V2000
   12.3036    8.1232   -2.2988 C   0  0  0  0  0  0  0  0  0  0  0  0
   12.0207    6.8847   -2.9150 C   0  0  0  0  0  0  0  0  0  0  0  0
   11.5251    6.9048   -4.2237 C   0  0  0  0  0  0  0  0  0  0  0  0
   11.3430    8.1017   -4.8292 N   0  0  0  0  0  0  0  0  0  0  0  0
   11.6275    9.2836   -4.2025 C   0  0  0  0  0  0  0  0  0  0  0  0
   12.0951    9.2731   -2.9688 N   0  0  0  0  0  0  0  0  0  0  0  0
   12.6790    8.1098   -1.3074 H   0  0  0  0  0  0  0  0  0  0  0  0
   12.1721    5.9592   -2.4190 H   0  0  0  0  0  0  0  0  0  0  0  0
   11.2821    6.0217   -4.7721 H   0  0  0  0  0  0  0  0  0  0  0  0
   11.4014   10.4592   -4.9219 N   0  0  0  0  0  0  0  0  0  0  0  0
   12.3322   11.4611   -5.2815 C   0  0  0  0  0  0  0  0  0  0  0  0
   13.6732   11.4522   -4.9737 C   0  0  0  0  0  0  0  0  0  0  0  0
   14.5397   12.4840   -5.3649 C   0  0  0  0  0  0  0  0  0  0  0  0
   14.0839   13.5582   -6.0785 C   0  0  0  0  0  0  0  0  0  0  0  0
   14.7564   14.3554   -6.3800 H   0  0  0  0  0  0  0  0  0  0  0  0
   12.7488   13.5919   -6.3991 C   0  0  0  0  0  0  0  0  0  0  0  0
   11.9093   12.5761   -6.0109 C   0  0  0  0  0  0  0  0  0  0  0  0
   10.5889   12.6453   -6.3484 F   0  0  0  0  0  0  0  0  0  0  0  0
   10.3932   10.6568   -5.2617 H   0  0  0  0  0  0  0  0  0  0  0  0
   14.0742   10.6188   -4.4094 H   0  0  0  0  0  0  0  0  0  0  0  0
   15.5819   12.4285   -5.0980 H   0  0  0  0  0  0  0  0  0  0  0  0
   12.3936   14.4432   -6.9633 H   0  0  0  0  0  0  0  0  0  0  0  0
  2  1  2  0
  3  2  1  0
  4  3  2  0
  4  5  1  0
  5  6  2  0
  6  1  1  0
  1  7  1  0
  2  8  1  0
  3  9  1  0
 10 11  1  0
 11 12  2  0
 12 13  1  0
 13 14  2  0
 14 15  1  0
 14 16  1  0
 16 17  2  0
 17 18  1  0
 17 11  1  0
 10 19  1  0
 12 20  1  0
 13 21  1  0
 16 22  1  0
  5 10  1  0
M  END
>  <Score>  (1) 
-7.44996

$$$$

     RDKit          3D

 25 26  0  0  0  0  0  0  0  0999 V2000
   12.3035    8.1232   -2.2991 C   0  0  0  0  0  0  0  0  0  0  0  0
   12.0196    6.8821   -2.9177 C   0  0  0  0  0  0  0  0  0  0  0  0
   11.5259    6.8970   -4.2208 C   0  0  0  0  0  0  0  0  0  0  0  0
   11.3417    8.1090   -4.8332 N   0  0  0  0  0  0  0  0  0  0  0  0
   11.6248    9.2766   -4.2090 C   0  0  0  0  0  0  0  0  0  0  0  0
   12.0995    9.2831   -2.9582 N   0  0  0  0  0  0  0  0  0  0  0  0
   12.6856    8.0886   -1.2879 H   0  0  0  0  0  0  0  0  0  0  0  0
   12.1719    5.9487   -2.4180 H   0  0  0  0  0  0  0  0  0  0  0  0
   11.3090    5.9718   -4.6967 H   0  0  0  0  0  0  0  0  0  0  0  0
   11.3847   10.4696   -4.9661 N   0  0  0  0  0  0  0  0  0  0  0  0
   11.0272   11.7122   -4.3067 C   0  0  0  0  0  0  0  0  0  0  0  0
   11.4882   10.4757   -6.3887 C   0  0  0  0  0  0  0  0  0  0  0  0
   11.2586   11.6222   -7.1176 C   0  0  0  0  0  0  0  0  0  0  0  0
   11.3502   11.6594   -8.4950 C   0  0  0  0  0  0  0  0  0  0  0  0
   11.6839   10.5161   -9.1996 C   0  0  0  0  0  0  0  0  0  0  0  0
   11.9127    9.3704   -8.4625 C   0  0  0  0  0  0  0  0  0  0  0  0
   11.8237    9.3238   -7.0873 C   0  0  0  0  0  0  0  0  0  0  0  0
   11.0636   11.5376   -3.1981 H   0  0  0  0  0  0  0  0  0  0  0  0
    9.9963   11.9908   -4.5936 H   0  0  0  0  0  0  0  0  0  0  0  0
   11.7647   12.5140   -4.4980 H   0  0  0  0  0  0  0  0  0  0  0  0
   10.9910   12.5646   -6.6412 H   0  0  0  0  0  0  0  0  0  0  0  0
   11.1687   12.5673   -9.0748 H   0  0  0  0  0  0  0  0  0  0  0  0
   11.7617   10.5228  -10.2856 H   0  0  0  0  0  0  0  0  0  0  0  0
   12.1814    8.4309   -8.9665 H   0  0  0  0  0  0  0  0  0  0  0  0
   12.0084    8.4077   -6.5210 H   0  0  0  0  0  0  0  0  0  0  0  0
  2  1  2  0
  3  2  1  0
  4  3  2  0
  4  5  1  0
  5  6  2  0
  6  1  1  0
  1  7  1  0
  2  8  1  0
  3  9  1  0
 10 11  1  0
 10 12  1  0
 12 13  2  0
 13 14  1  0
 14 15  2  0
 15 16  1  0
 16 17  2  0
 17 12  1  0
 11 18  1  0
 11 19  1  0
 11 20  1  0
 13 21  1  0
 14 22  1  0
 15 23  1  0
 16 24  1  0
 17 25  1  0
  5 10  1  0
M  END
>  <Score>  (1) 
-7.44488

$$$$

     RDKit          3D

 24 25  0  0  0  0  0  0  0  0999 V2000
   12.3020    8.1232   -2.3028 C   0  0  0  0  0  0  0  0  0  0  0  0
   12.0210    6.8844   -2.9142 C   0  0  0  0  0  0  0  0  0  0  0  0
   11.5261    6.9054   -4.2213 C   0  0  0  0  0  0  0  0  0  0  0  0
   11.3440    8.1022   -4.8265 N   0  0  0  0  0  0  0  0  0  0  0  0
   11.6266    9.2870   -4.2053 C   0  0  0  0  0  0  0  0  0  0  0  0
   12.0952    9.2688   -2.9679 N   0  0  0  0  0  0  0  0  0  0  0  0
   12.6823    8.0604   -1.2937 H   0  0  0  0  0  0  0  0  0  0  0  0
   12.1745    5.9491   -2.4116 H   0  0  0  0  0  0  0  0  0  0  0  0
   11.3164    5.9619   -4.6755 H   0  0  0  0  0  0  0  0  0  0  0  0
   11.3985   10.4790   -4.9313 N   0  0  0  0  0  0  0  0  0  0  0  0
   11.4672   10.6862   -6.3079 C   0  0  0  0  0  0  0  0  0  0  0  0
   11.7808    9.7336   -7.2442 C   0  0  0  0  0  0  0  0  0  0  0  0
   11.8378    9.9889   -8.6210 C   0  0  0  0  0  0  0  0  0  0  0  0
   11.5670   11.2563   -9.0671 C   0  0  0  0  0  0  0  0  0  0  0  0
   11.2476   12.2451   -8.1661 C   0  0  0  0  0  0  0  0  0  0  0  0
   11.2008   11.9549   -6.8087 C   0  0  0  0  0  0  0  0  0  0  0  0
   10.8673   13.0020   -5.9103 N   0  0  0  0  0  0  0  0  0  0  0  0
   11.1362   11.3455   -4.3455 H   0  0  0  0  0  0  0  0  0  0  0  0
   11.9991    8.7264   -6.9255 H   0  0  0  0  0  0  0  0  0  0  0  0
   12.0948    9.1830   -9.3177 H   0  0  0  0  0  0  0  0  0  0  0  0
   11.6166   11.4326  -10.1355 H   0  0  0  0  0  0  0  0  0  0  0  0
   11.0322   13.2557   -8.5272 H   0  0  0  0  0  0  0  0  0  0  0  0
   11.3545   13.9439   -5.9490 H   0  0  0  0  0  0  0  0  0  0  0  0
   10.1392   12.9263   -5.1660 H   0  0  0  0  0  0  0  0  0  0  0  0
  2  1  2  0
  3  2  1  0
  4  3  2  0
  4  5  1  0
  5  6  2  0
  6  1  1  0
  1  7  1  0
  2  8  1  0
  3  9  1  0
 10 11  1  0
 11 12  2  0
 12 13  1  0
 13 14  2  0
 14 15  1  0
 15 16  2  0
 16 17  1  0
 16 11  1  0
 10 18  1  0
 12 19  1  0
 13 20  1  0
 14 21  1  0
 15 22  1  0
 17 23  1  0
 17 24  1  0
  5 10  1  0
M  END
>  <Score>  (1) 
-7.43707

$$$$

     RDKit          3D

 20 21  0  0  0  0  0  0  0  0999 V2000
   12.3026    8.1229   -2.3013 C   0  0  0  0  0  0  0  0  0  0  0  0
   12.0214    6.8836   -2.9131 C   0  0  0  0  0  0  0  0  0  0  0  0
   11.5244    6.8966   -4.2248 C   0  0  0  0  0  0  0  0  0  0  0  0
   11.3429    8.1114   -4.8304 N   0  0  0  0  0  0  0  0  0  0  0  0
   11.6233    9.2753   -4.2129 C   0  0  0  0  0  0  0  0  0  0  0  0
   12.1004    9.2812   -2.9555 N   0  0  0  0  0  0  0  0  0  0  0  0
   12.6842    8.0643   -1.2891 H   0  0  0  0  0  0  0  0  0  0  0  0
   12.1906    5.9759   -2.3721 H   0  0  0  0  0  0  0  0  0  0  0  0
   11.3058    5.9774   -4.7050 H   0  0  0  0  0  0  0  0  0  0  0  0
   11.4055   10.5331   -4.9188 C   0  0  0  0  0  0  0  0  0  0  0  0
   12.3385   11.5493   -4.9022 C   0  0  0  0  0  0  0  0  0  0  0  0
   13.4711   11.3450   -4.2068 F   0  0  0  0  0  0  0  0  0  0  0  0
   12.1316   12.7388   -5.5702 C   0  0  0  0  0  0  0  0  0  0  0  0
   10.9796   12.9730   -6.2899 C   0  0  0  0  0  0  0  0  0  0  0  0
   10.0460   11.9588   -6.3077 C   0  0  0  0  0  0  0  0  0  0  0  0
   10.2518   10.7684   -5.6399 C   0  0  0  0  0  0  0  0  0  0  0  0
    9.3218    9.7765   -5.6664 F   0  0  0  0  0  0  0  0  0  0  0  0
   12.8741   13.5508   -5.5585 H   0  0  0  0  0  0  0  0  0  0  0  0
   10.8328   13.9121   -6.8085 H   0  0  0  0  0  0  0  0  0  0  0  0
    9.1263   12.0974   -6.8596 H   0  0  0  0  0  0  0  0  0  0  0  0
  2  1  2  0
  3  2  1  0
  4  3  2  0
  4  5  1  0
  5  6  2  0
  6  1  1  0
  1  7  1  0
  2  8  1  0
  3  9  1  0
 10 11  2  0
 11 12  1  0
 11 13  1  0
 13 14  2  0
 14 15  1  0
 15 16  2  0
 16 17  1  0
 16 10  1  0
 13 18  1  0
 14 19  1  0
 15 20  1  0
  5 10  1  0
M  END
>  <Score>  (1) 
-7.43337

$$$$

     RDKit          3D

 28 29  0  0  0  0  0  0  0  0999 V2000
   12.3032    8.1271   -2.3002 C   0  0  0  0  0  0  0  0  0  0  0  0
   12.0200    6.8800   -2.9163 C   0  0  0  0  0  0  0  0  0  0  0  0
   11.5252    6.8960   -4.2225 C   0  0  0  0  0  0  0  0  0  0  0  0
   11.3440    8.1134   -4.8276 N   0  0  0  0  0  0  0  0  0  0  0  0
   11.6228    9.2767   -4.2144 C   0  0  0  0  0  0  0  0  0  0  0  0
   12.0997    9.2777   -2.9570 N   0  0  0  0  0  0  0  0  0  0  0  0
   12.6842    8.0753   -1.2903 H   0  0  0  0  0  0  0  0  0  0  0  0
   12.1769    5.9626   -2.4066 H   0  0  0  0  0  0  0  0  0  0  0  0
   11.2845    5.9918   -4.7627 H   0  0  0  0  0  0  0  0  0  0  0  0
   11.3984   10.4793   -4.9316 N   0  0  0  0  0  0  0  0  0  0  0  0
   12.1648   10.8686   -6.4038 S   0  0  0  0  0  6  0  0  0  0  0  0
   13.6454   10.9753   -6.1520 O   0  0  0  0  0  0  0  0  0  0  0  0
   11.7028   12.2274   -6.8553 O   0  0  0  0  0  0  0  0  0  0  0  0
   11.8162    9.7596   -7.6940 C   0  0  0  0  0  0  0  0  0  0  0  0
   10.7058    9.9190   -8.5230 C   0  0  0  0  0  0  0  0  0  0  0  0
   10.4653    9.0213   -9.5370 C   0  0  0  0  0  0  0  0  0  0  0  0
   11.2944    7.9455   -9.7743 C   0  0  0  0  0  0  0  0  0  0  0  0
   11.0024    6.9902  -10.8848 C   0  0  0  0  0  0  0  0  0  0  0  0
   12.3914    7.7848   -8.9582 C   0  0  0  0  0  0  0  0  0  0  0  0
   12.6494    8.6885   -7.9235 C   0  0  0  0  0  0  0  0  0  0  0  0
   10.7138   11.1580   -4.5117 H   0  0  0  0  0  0  0  0  0  0  0  0
   10.0504   10.7673   -8.3373 H   0  0  0  0  0  0  0  0  0  0  0  0
    9.5870    9.1709  -10.1719 H   0  0  0  0  0  0  0  0  0  0  0  0
   10.7092    5.9946  -10.4589 H   0  0  0  0  0  0  0  0  0  0  0  0
   11.9232    6.8612  -11.4683 H   0  0  0  0  0  0  0  0  0  0  0  0
   10.1523    7.3662  -11.4606 H   0  0  0  0  0  0  0  0  0  0  0  0
   13.0553    6.9323   -9.1404 H   0  0  0  0  0  0  0  0  0  0  0  0
   13.5337    8.5184   -7.3060 H   0  0  0  0  0  0  0  0  0  0  0  0
  2  1  2  0
  3  2  1  0
  4  3  2  0
  4  5  1  0
  5  6  2  0
  6  1  1  0
  1  7  1  0
  2  8  1  0
  3  9  1  0
 10 11  1  0
 11 12  2  0
 11 13  2  0
 11 14  1  0
 14 15  2  0
 15 16  1  0
 16 17  2  0
 17 18  1  0
 17 19  1  0
 19 20  2  0
 20 14  1  0
 10 21  1  0
 15 22  1  0
 16 23  1  0
 18 24  1  0
 18 25  1  0
 18 26  1  0
 19 27  1  0
 20 28  1  0
  5 10  1  0
M  END
>  <Score>  (1) 
-7.4269

$$$$

     RDKit          3D

 28 29  0  0  0  0  0  0  0  0999 V2000
   12.3039    8.1284   -2.2985 C   0  0  0  0  0  0  0  0  0  0  0  0
   12.0201    6.8793   -2.9161 C   0  0  0  0  0  0  0  0  0  0  0  0
   11.5255    6.9038   -4.2227 C   0  0  0  0  0  0  0  0  0  0  0  0
   11.3432    8.1016   -4.8286 N   0  0  0  0  0  0  0  0  0  0  0  0
   11.6266    9.2878   -4.2055 C   0  0  0  0  0  0  0  0  0  0  0  0
   12.0957    9.2700   -2.9667 N   0  0  0  0  0  0  0  0  0  0  0  0
   12.6853    8.0850   -1.2883 H   0  0  0  0  0  0  0  0  0  0  0  0
   12.1896    5.9786   -2.3749 H   0  0  0  0  0  0  0  0  0  0  0  0
   11.3098    5.9721   -4.6939 H   0  0  0  0  0  0  0  0  0  0  0  0
   11.4078   10.4892   -4.9082 N   0  0  0  0  0  0  0  0  0  0  0  0
   11.4867   10.6951   -6.3022 C   0  0  0  0  0  0  0  0  0  0  0  0
   11.2264   11.9896   -6.7742 C   0  0  0  0  0  0  0  0  0  0  0  0
   11.2765   12.2935   -8.1049 C   0  0  0  0  0  0  0  0  0  0  0  0
   11.5930   11.3072   -9.0391 C   0  0  0  0  0  0  0  0  0  0  0  0
   11.6254   11.7192  -10.4539 C   0  0  0  0  0  0  0  0  0  0  0  0
   11.8519   10.0422   -8.6262 C   0  0  0  0  0  0  0  0  0  0  0  0
   12.1868    8.9848   -9.5802 C   0  0  0  0  0  0  0  0  0  0  0  0
   11.7919    9.7631   -7.2515 C   0  0  0  0  0  0  0  0  0  0  0  0
   11.1547   11.3272   -4.3000 H   0  0  0  0  0  0  0  0  0  0  0  0
   10.9797   12.7737   -6.0861 H   0  0  0  0  0  0  0  0  0  0  0  0
   11.0646   13.3237   -8.4301 H   0  0  0  0  0  0  0  0  0  0  0  0
   11.9175   10.9251  -11.1398 H   0  0  0  0  0  0  0  0  0  0  0  0
   12.3884   12.5312  -10.5489 H   0  0  0  0  0  0  0  0  0  0  0  0
   10.6527   12.1908  -10.7024 H   0  0  0  0  0  0  0  0  0  0  0  0
   11.2720    8.6573  -10.1464 H   0  0  0  0  0  0  0  0  0  0  0  0
   12.5296    8.0877   -9.0240 H   0  0  0  0  0  0  0  0  0  0  0  0
   13.0125    9.2506  -10.2703 H   0  0  0  0  0  0  0  0  0  0  0  0
   11.9997    8.7601   -6.9526 H   0  0  0  0  0  0  0  0  0  0  0  0
  2  1  2  0
  3  2  1  0
  4  3  2  0
  4  5  1  0
  5  6  2  0
  6  1  1  0
  1  7  1  0
  2  8  1  0
  3  9  1  0
 10 11  1  0
 11 12  2  0
 12 13  1  0
 13 14  2  0
 14 15  1  0
 14 16  1  0
 16 17  1  0
 16 18  2  0
 18 11  1  0
 10 19  1  0
 12 20  1  0
 13 21  1  0
 15 22  1  0
 15 23  1  0
 15 24  1  0
 17 25  1  0
 17 26  1  0
 17 27  1  0
 18 28  1  0
  5 10  1  0
M  END
>  <Score>  (1) 
-8.29611

$$$$

     RDKit          3D

 29 30  0  0  0  0  0  0  0  0999 V2000
   12.3020    8.1224   -2.3030 C   0  0  0  0  0  0  0  0  0  0  0  0
   12.0213    6.8833   -2.9133 C   0  0  0  0  0  0  0  0  0  0  0  0
   11.5247    6.9006   -4.2243 C   0  0  0  0  0  0  0  0  0  0  0  0
   11.3420    8.1060   -4.8322 N   0  0  0  0  0  0  0  0  0  0  0  0
   11.6245    9.2763   -4.2097 C   0  0  0  0  0  0  0  0  0  0  0  0
   12.1005    9.2825   -2.9555 N   0  0  0  0  0  0  0  0  0  0  0  0
   12.6818    8.0484   -1.2937 H   0  0  0  0  0  0  0  0  0  0  0  0
   12.1888    5.9630   -2.3754 H   0  0  0  0  0  0  0  0  0  0  0  0
   11.2995    5.9672   -4.7205 H   0  0  0  0  0  0  0  0  0  0  0  0
   10.2273   14.5561   -6.1486 H   0  0  0  0  0  0  0  0  0  0  0  0
   11.0995   13.9107   -5.8365 C   0  0  0  0  0  0  0  0  0  0  0  0
   11.0080   12.6517   -6.7089 C   0  0  1  0  0  0  0  0  0  0  0  0
   12.3039   11.9418   -6.8080 C   0  0  0  0  0  0  0  0  0  0  0  0
   12.5949   10.9641   -5.7310 C   0  0  0  0  0  0  0  0  0  0  0  0
   11.3953   10.5235   -4.9446 C   0  0  1  0  0  0  0  0  0  0  0  0
   10.2511   10.3905   -5.9542 C   0  0  0  0  0  0  0  0  0  0  0  0
    9.8490   11.8143   -6.2860 C   0  0  0  0  0  0  0  0  0  0  0  0
   10.9404   13.6897   -4.7770 H   0  0  0  0  0  0  0  0  0  0  0  0
   11.9966   14.4889   -6.0614 H   0  0  0  0  0  0  0  0  0  0  0  0
   10.7630   13.0495   -7.7385 H   0  0  0  0  0  0  0  0  0  0  0  0
   13.1207   12.7231   -6.7812 H   0  0  0  0  0  0  0  0  0  0  0  0
   12.4067   11.4937   -7.8400 H   0  0  0  0  0  0  0  0  0  0  0  0
   13.0107   10.0354   -6.2221 H   0  0  0  0  0  0  0  0  0  0  0  0
   13.4019   11.2935   -5.0336 H   0  0  0  0  0  0  0  0  0  0  0  0
   11.1345   11.3568   -4.2478 H   0  0  0  0  0  0  0  0  0  0  0  0
    9.4062    9.8410   -5.5430 H   0  0  0  0  0  0  0  0  0  0  0  0
   10.6520    9.9549   -6.9052 H   0  0  0  0  0  0  0  0  0  0  0  0
    9.4222   12.2375   -5.3404 H   0  0  0  0  0  0  0  0  0  0  0  0
    9.0097   11.8302   -7.0151 H   0  0  0  0  0  0  0  0  0  0  0  0
  2  1  2  0
  3  2  1  0
  4  3  2  0
  4  5  1  0
  5  6  2  0
  6  1  1  0
  1  7  1  0
  2  8  1  0
  3  9  1  0
 10 11  1  0
 11 12  1  0
 12 13  1  0
 13 14  1  0
 14 15  1  0
 15 16  1  0
 16 17  1  0
 17 12  1  0
 11 18  1  0
 11 19  1  0
 12 20  1  6
 13 21  1  0
 13 22  1  0
 14 23  1  0
 14 24  1  0
 15 25  1  1
 16 26  1  0
 16 27  1  0
 17 28  1  0
 17 29  1  0
  5 15  1  0
M  END
>  <Score>  (1) 
-7.42296

$$$$

     RDKit          3D

 22 23  0  0  0  0  0  0  0  0999 V2000
   12.3015    8.1198   -2.3038 C   0  0  0  0  0  0  0  0  0  0  0  0
   12.0204    6.8859   -2.9160 C   0  0  0  0  0  0  0  0  0  0  0  0
   11.5269    6.9006   -4.2187 C   0  0  0  0  0  0  0  0  0  0  0  0
   11.3447    8.1023   -4.8246 N   0  0  0  0  0  0  0  0  0  0  0  0
   11.6251    9.2922   -4.2098 C   0  0  0  0  0  0  0  0  0  0  0  0
   12.0964    9.2701   -2.9651 N   0  0  0  0  0  0  0  0  0  0  0  0
   12.6816    8.0483   -1.2944 H   0  0  0  0  0  0  0  0  0  0  0  0
   12.1624    5.9480   -2.4435 H   0  0  0  0  0  0  0  0  0  0  0  0
   11.3151    5.9684   -4.6796 H   0  0  0  0  0  0  0  0  0  0  0  0
   11.3925   10.4765   -4.9469 N   0  0  0  0  0  0  0  0  0  0  0  0
   10.9021   10.5919   -6.2519 C   0  0  0  0  0  0  0  0  0  0  0  0
   10.7546   11.8811   -6.7753 C   0  0  0  0  0  0  0  0  0  0  0  0
   10.2788   12.0662   -8.0494 C   0  0  0  0  0  0  0  0  0  0  0  0
    9.9301   10.9999   -8.8577 C   0  0  0  0  0  0  0  0  0  0  0  0
    9.3335   11.3241  -10.4647 Cl  0  0  0  0  0  0  0  0  0  0  0  0
   10.0660    9.7226   -8.3662 C   0  0  0  0  0  0  0  0  0  0  0  0
   10.5523    9.5706   -7.0678 C   0  0  0  0  0  0  0  0  0  0  0  0
   11.6270   11.3876   -4.4238 H   0  0  0  0  0  0  0  0  0  0  0  0
   11.0121   12.7648   -6.1888 H   0  0  0  0  0  0  0  0  0  0  0  0
   10.1662   13.0744   -8.4517 H   0  0  0  0  0  0  0  0  0  0  0  0
    9.7924    8.8928   -9.0009 H   0  0  0  0  0  0  0  0  0  0  0  0
   10.6388    8.5531   -6.7336 H   0  0  0  0  0  0  0  0  0  0  0  0
  2  1  2  0
  3  2  1  0
  4  3  2  0
  4  5  1  0
  5  6  2  0
  6  1  1  0
  1  7  1  0
  2  8  1  0
  3  9  1  0
 10 11  1  0
 11 12  2  0
 12 13  1  0
 13 14  2  0
 14 15  1  0
 14 16  1  0
 16 17  2  0
 17 11  1  0
 10 18  1  0
 12 19  1  0
 13 20  1  0
 16 21  1  0
 17 22  1  0
  5 10  1  0
M  END
>  <Score>  (1) 
-7.42292

$$$$

     RDKit          3D

 25 26  0  0  0  0  0  0  0  0999 V2000
   12.3025    8.1233   -2.3015 C   0  0  0  0  0  0  0  0  0  0  0  0
   12.0211    6.8833   -2.9137 C   0  0  0  0  0  0  0  0  0  0  0  0
   11.5246    6.8974   -4.2243 C   0  0  0  0  0  0  0  0  0  0  0  0
   11.3422    8.1085   -4.8319 N   0  0  0  0  0  0  0  0  0  0  0  0
   11.6238    9.2769   -4.2117 C   0  0  0  0  0  0  0  0  0  0  0  0
   12.1007    9.2815   -2.9549 N   0  0  0  0  0  0  0  0  0  0  0  0
   12.6879    8.1542   -1.2886 H   0  0  0  0  0  0  0  0  0  0  0  0
   12.1767    5.9532   -2.4062 H   0  0  0  0  0  0  0  0  0  0  0  0
   11.2869    5.9997   -4.7571 H   0  0  0  0  0  0  0  0  0  0  0  0
    7.0135    9.1248   -9.3278 H   0  0  0  0  0  0  0  0  0  0  0  0
    8.0731    9.0836   -9.4622 C   0  0  0  0  0  0  0  0  0  0  0  0
    8.6312    8.7403  -10.5333 O   0  0  0  0  0  0  0  0  0  0  0  0
    8.9166    9.4530   -8.3186 C   0  0  0  0  0  0  0  0  0  0  0  0
   10.2853    9.4252   -8.4134 C   0  0  0  0  0  0  0  0  0  0  0  0
   11.0693    9.7719   -7.3397 C   0  0  0  0  0  0  0  0  0  0  0  0
   10.5238   10.1545   -6.1469 C   0  0  0  0  0  0  0  0  0  0  0  0
   11.3859   10.5344   -4.9705 C   0  0  0  0  0  0  0  0  0  0  0  0
    9.1517   10.1886   -6.0328 C   0  0  0  0  0  0  0  0  0  0  0  0
    8.3737    9.8393   -7.1143 C   0  0  0  0  0  0  0  0  0  0  0  0
   10.7192    9.1187   -9.3689 H   0  0  0  0  0  0  0  0  0  0  0  0
   12.1500    9.7505   -7.4129 H   0  0  0  0  0  0  0  0  0  0  0  0
   10.8480   11.2225   -4.2998 H   0  0  0  0  0  0  0  0  0  0  0  0
   12.3246   10.9564   -5.3795 H   0  0  0  0  0  0  0  0  0  0  0  0
    8.7422   10.4940   -5.0804 H   0  0  0  0  0  0  0  0  0  0  0  0
    7.2922    9.8650   -7.0276 H   0  0  0  0  0  0  0  0  0  0  0  0
  2  1  2  0
  3  2  1  0
  4  3  2  0
  4  5  1  0
  5  6  2  0
  6  1  1  0
  1  7  1  0
  2  8  1  0
  3  9  1  0
 10 11  1  0
 11 12  2  0
 11 13  1  0
 13 14  2  0
 14 15  1  0
 15 16  2  0
 16 17  1  0
 16 18  1  0
 18 19  2  0
 19 13  1  0
 14 20  1  0
 15 21  1  0
 17 22  1  0
 17 23  1  0
 18 24  1  0
 19 25  1  0
  5 17  1  0
M  END
>  <Score>  (1) 
-7.4167

$$$$

     RDKit          3D

 27 28  0  0  0  0  0  0  0  0999 V2000
   12.3028    8.1244   -2.3008 C   0  0  0  0  0  0  0  0  0  0  0  0
   12.0210    6.8821   -2.9140 C   0  0  0  0  0  0  0  0  0  0  0  0
   11.5246    6.8969   -4.2243 C   0  0  0  0  0  0  0  0  0  0  0  0
   11.3432    8.1109   -4.8296 N   0  0  0  0  0  0  0  0  0  0  0  0
   11.6233    9.2768   -4.2129 C   0  0  0  0  0  0  0  0  0  0  0  0
   12.1001    9.2799   -2.9563 N   0  0  0  0  0  0  0  0  0  0  0  0
   12.6803    8.0560   -1.2986 H   0  0  0  0  0  0  0  0  0  0  0  0
   12.1748    5.9582   -2.4119 H   0  0  0  0  0  0  0  0  0  0  0  0
   11.2857    5.9998   -4.7603 H   0  0  0  0  0  0  0  0  0  0  0  0
   11.4178   10.5049   -4.8834 N   0  0  0  0  0  0  0  0  0  0  0  0
   12.0172   11.7322   -4.3579 C   0  0  0  0  0  0  0  0  0  0  0  0
   12.5779   12.4832   -5.5249 C   0  0  0  0  0  0  0  0  0  0  0  0
   11.5027   12.7137   -6.4737 N   0  0  0  0  0  0  0  0  0  0  0  0
   11.7447   13.4193   -7.1934 H   0  0  0  0  0  0  0  0  0  0  0  0
   11.2734   11.4244   -7.1397 C   0  0  2  0  0  0  0  0  0  0  0  0
   10.3239   11.6076   -8.2975 C   0  0  0  0  0  0  0  0  0  0  0  0
   10.6115   10.5363   -6.0902 C   0  0  0  0  0  0  0  0  0  0  0  0
   11.2725   12.3033   -3.7842 H   0  0  0  0  0  0  0  0  0  0  0  0
   12.8528   11.4585   -3.6952 H   0  0  0  0  0  0  0  0  0  0  0  0
   13.0105   13.4631   -5.2520 H   0  0  0  0  0  0  0  0  0  0  0  0
   13.3531   11.8584   -5.9998 H   0  0  0  0  0  0  0  0  0  0  0  0
   12.2310   10.9619   -7.4318 H   0  0  0  0  0  0  0  0  0  0  0  0
   10.6411   10.8999   -9.0933 H   0  0  0  0  0  0  0  0  0  0  0  0
    9.2793   11.4849   -8.0056 H   0  0  0  0  0  0  0  0  0  0  0  0
   10.4343   12.6280   -8.7261 H   0  0  0  0  0  0  0  0  0  0  0  0
   10.5210    9.5324   -6.5197 H   0  0  0  0  0  0  0  0  0  0  0  0
    9.6378   10.9656   -5.8502 H   0  0  0  0  0  0  0  0  0  0  0  0
  2  1  2  0
  3  2  1  0
  4  3  2  0
  4  5  1  0
  5  6  2  0
  6  1  1  0
  1  7  1  0
  2  8  1  0
  3  9  1  0
 10 11  1  0
 11 12  1  0
 12 13  1  0
 13 14  1  0
 13 15  1  0
 15 16  1  0
 15 17  1  0
 17 10  1  0
 11 18  1  0
 11 19  1  0
 12 20  1  0
 12 21  1  0
 15 22  1  6
 16 23  1  0
 16 24  1  0
 16 25  1  0
 17 26  1  0
 17 27  1  0
  5 10  1  0
M  END
>  <Score>  (1) 
-7.40968

$$$$

     RDKit          3D

 28 29  0  0  0  0  0  0  0  0999 V2000
   12.3025    8.1240   -2.3018 C   0  0  0  0  0  0  0  0  0  0  0  0
   12.0212    6.8817   -2.9135 C   0  0  0  0  0  0  0  0  0  0  0  0
   11.5242    6.9034   -4.2259 C   0  0  0  0  0  0  0  0  0  0  0  0
   11.3427    8.1051   -4.8302 N   0  0  0  0  0  0  0  0  0  0  0  0
   11.6232    9.2751   -4.2131 C   0  0  0  0  0  0  0  0  0  0  0  0
   12.1012    9.2817   -2.9535 N   0  0  0  0  0  0  0  0  0  0  0  0
   12.6823    8.0495   -1.2927 H   0  0  0  0  0  0  0  0  0  0  0  0
   12.1760    5.9528   -2.4081 H   0  0  0  0  0  0  0  0  0  0  0  0
   11.2834    6.0140   -4.7677 H   0  0  0  0  0  0  0  0  0  0  0  0
   11.4104   10.4994   -4.9023 N   0  0  0  0  0  0  0  0  0  0  0  0
   11.6901   11.7751   -4.2982 C   0  0  0  0  0  0  0  0  0  0  0  0
   11.1597   12.8578   -5.2238 C   0  0  0  0  0  0  0  0  0  0  0  0
   11.7176   12.7663   -6.6067 C   0  0  0  0  0  0  0  0  0  0  0  0
   11.7261   11.3758   -7.1606 C   0  0  2  0  0  0  0  0  0  0  0  0
   11.0823   11.2997   -8.5457 C   0  0  0  0  0  0  0  0  0  0  0  0
   10.8967   10.4956   -6.2561 C   0  0  0  0  0  0  0  0  0  0  0  0
   11.1684   11.9231   -3.3263 H   0  0  0  0  0  0  0  0  0  0  0  0
   12.7824   11.9435   -4.2104 H   0  0  0  0  0  0  0  0  0  0  0  0
   11.4976   13.8479   -4.8025 H   0  0  0  0  0  0  0  0  0  0  0  0
   10.0693   12.8913   -5.2621 H   0  0  0  0  0  0  0  0  0  0  0  0
   12.7310   13.2123   -6.6748 H   0  0  0  0  0  0  0  0  0  0  0  0
   11.0717   13.3865   -7.2715 H   0  0  0  0  0  0  0  0  0  0  0  0
   12.7545   10.9791   -7.2255 H   0  0  0  0  0  0  0  0  0  0  0  0
   10.8656   10.2019   -8.6981 H   0  0  0  0  0  0  0  0  0  0  0  0
   10.1023   11.7941   -8.5478 H   0  0  0  0  0  0  0  0  0  0  0  0
   11.7635   11.6036   -9.3401 H   0  0  0  0  0  0  0  0  0  0  0  0
   10.9733    9.4531   -6.6610 H   0  0  0  0  0  0  0  0  0  0  0  0
    9.8288   10.7672   -6.3021 H   0  0  0  0  0  0  0  0  0  0  0  0
  2  1  2  0
  3  2  1  0
  4  3  2  0
  4  5  1  0
  5  6  2  0
  6  1  1  0
  1  7  1  0
  2  8  1  0
  3  9  1  0
 10 11  1  0
 11 12  1  0
 12 13  1  0
 13 14  1  0
 14 15  1  0
 14 16  1  0
 16 10  1  0
 11 17  1  0
 11 18  1  0
 12 19  1  0
 12 20  1  0
 13 21  1  0
 13 22  1  0
 14 23  1  6
 15 24  1  0
 15 25  1  0
 15 26  1  0
 16 27  1  0
 16 28  1  0
  5 10  1  0
M  END
>  <Score>  (1) 
-7.40816

$$$$

     RDKit          3D

 27 29  0  0  0  0  0  0  0  0999 V2000
   12.3029    8.1216   -2.3004 C   0  0  0  0  0  0  0  0  0  0  0  0
   12.0216    6.8832   -2.9125 C   0  0  0  0  0  0  0  0  0  0  0  0
   11.5242    6.8971   -4.2255 C   0  0  0  0  0  0  0  0  0  0  0  0
   11.3431    8.1103   -4.8298 N   0  0  0  0  0  0  0  0  0  0  0  0
   11.6243    9.2769   -4.2104 C   0  0  0  0  0  0  0  0  0  0  0  0
   12.0990    9.2819   -2.9594 N   0  0  0  0  0  0  0  0  0  0  0  0
   12.6848    8.1116   -1.2924 H   0  0  0  0  0  0  0  0  0  0  0  0
   12.1820    5.9528   -2.3923 H   0  0  0  0  0  0  0  0  0  0  0  0
   11.2929    5.9861   -4.7400 H   0  0  0  0  0  0  0  0  0  0  0  0
   11.3874   10.5009   -4.9625 C   0  0  1  0  0  0  0  0  0  0  0  0
   12.3552   10.7554   -6.0849 C   0  0  0  0  0  0  0  0  0  0  0  0
   11.5350   11.5253   -7.0806 C   0  0  1  0  0  0  0  0  0  0  0  0
   10.8942   10.4836   -8.0063 C   0  0  0  0  0  0  0  0  0  0  0  0
   10.1277    9.6714   -6.9609 C   0  0  0  0  0  0  0  0  0  0  0  0
   10.0704   10.5109   -5.7164 C   0  0  2  0  0  0  0  0  0  0  0  0
   10.2526   11.9180   -6.3246 C   0  0  0  0  0  0  0  0  0  0  0  0
   11.3841   11.4111   -4.3291 H   0  0  0  0  0  0  0  0  0  0  0  0
   12.6695    9.7634   -6.4939 H   0  0  0  0  0  0  0  0  0  0  0  0
   13.2645   11.2885   -5.7585 H   0  0  0  0  0  0  0  0  0  0  0  0
   12.0099   12.3318   -7.5820 H   0  0  0  0  0  0  0  0  0  0  0  0
   10.1899   10.9719   -8.7162 H   0  0  0  0  0  0  0  0  0  0  0  0
   11.6644    9.8888   -8.5091 H   0  0  0  0  0  0  0  0  0  0  0  0
    9.0980    9.5501   -7.3489 H   0  0  0  0  0  0  0  0  0  0  0  0
   10.6262    8.7023   -6.8343 H   0  0  0  0  0  0  0  0  0  0  0  0
    9.1941   10.4188   -5.1138 H   0  0  0  0  0  0  0  0  0  0  0  0
    9.4440   12.1727   -7.0051 H   0  0  0  0  0  0  0  0  0  0  0  0
   10.4586   12.6387   -5.5278 H   0  0  0  0  0  0  0  0  0  0  0  0
  2  1  2  0
  3  2  1  0
  4  3  2  0
  4  5  1  0
  5  6  2  0
  6  1  1  0
  1  7  1  0
  2  8  1  0
  3  9  1  0
 10 11  1  0
 11 12  1  0
 12 13  1  0
 13 14  1  0
 14 15  1  0
 15 16  1  0
 15 10  1  0
 16 12  1  0
 10 17  1  1
 11 18  1  0
 11 19  1  0
 12 20  1  6
 13 21  1  0
 13 22  1  0
 14 23  1  0
 14 24  1  0
 15 25  1  1
 16 26  1  0
 16 27  1  0
  5 10  1  0
M  END
>  <Score>  (1) 
-7.4068

$$$$

     RDKit          3D

 26 27  0  0  0  0  0  0  0  0999 V2000
   12.3033    8.1207   -2.2991 C   0  0  0  0  0  0  0  0  0  0  0  0
   12.0213    6.8855   -2.9136 C   0  0  0  0  0  0  0  0  0  0  0  0
   11.5250    6.9003   -4.2237 C   0  0  0  0  0  0  0  0  0  0  0  0
   11.3436    8.1037   -4.8276 N   0  0  0  0  0  0  0  0  0  0  0  0
   11.6263    9.2875   -4.2062 C   0  0  0  0  0  0  0  0  0  0  0  0
   12.0955    9.2733   -2.9678 N   0  0  0  0  0  0  0  0  0  0  0  0
   12.6823    8.0723   -1.2948 H   0  0  0  0  0  0  0  0  0  0  0  0
   12.1865    5.9606   -2.3812 H   0  0  0  0  0  0  0  0  0  0  0  0
   11.3039    5.9723   -4.7094 H   0  0  0  0  0  0  0  0  0  0  0  0
   11.3930   10.4642   -4.9445 N   0  0  0  0  0  0  0  0  0  0  0  0
   10.8995   10.5665   -6.2565 C   0  0  0  0  0  0  0  0  0  0  0  0
   10.7393   11.8381   -6.8082 C   0  0  0  0  0  0  0  0  0  0  0  0
   10.2622   12.0239   -8.0858 C   0  0  0  0  0  0  0  0  0  0  0  0
    9.9161   10.9644   -8.8912 C   0  0  0  0  0  0  0  0  0  0  0  0
    9.4328   11.1698  -10.1873 O   0  0  0  0  0  0  0  0  0  0  0  0
    9.0827   10.0932  -11.0014 C   0  0  0  0  0  0  0  0  0  0  0  0
   10.0675    9.7075   -8.3644 C   0  0  0  0  0  0  0  0  0  0  0  0
   10.5530    9.5105   -7.0635 C   0  0  0  0  0  0  0  0  0  0  0  0
   11.6207   11.3915   -4.4411 H   0  0  0  0  0  0  0  0  0  0  0  0
   11.0021   12.6925   -6.2018 H   0  0  0  0  0  0  0  0  0  0  0  0
   10.1365   13.0235   -8.5189 H   0  0  0  0  0  0  0  0  0  0  0  0
    8.3349    9.4566  -10.5126 H   0  0  0  0  0  0  0  0  0  0  0  0
    9.9984    9.5474  -11.3061 H   0  0  0  0  0  0  0  0  0  0  0  0
    8.6286   10.4917  -11.9446 H   0  0  0  0  0  0  0  0  0  0  0  0
    9.8018    8.8536   -8.9785 H   0  0  0  0  0  0  0  0  0  0  0  0
   10.6483    8.5145   -6.7110 H   0  0  0  0  0  0  0  0  0  0  0  0
  2  1  2  0
  3  2  1  0
  4  3  2  0
  4  5  1  0
  5  6  2  0
  6  1  1  0
  1  7  1  0
  2  8  1  0
  3  9  1  0
 10 11  1  0
 11 12  2  0
 12 13  1  0
 13 14  2  0
 14 15  1  0
 15 16  1  0
 14 17  1  0
 17 18  2  0
 18 11  1  0
 10 19  1  0
 12 20  1  0
 13 21  1  0
 16 22  1  0
 16 23  1  0
 16 24  1  0
 17 25  1  0
 18 26  1  0
  5 10  1  0
M  END
>  <Score>  (1) 
-7.40284

$$$$

     RDKit          3D

 27 29  0  0  0  0  0  0  0  0999 V2000
   12.3028    8.1208   -2.3006 C   0  0  0  0  0  0  0  0  0  0  0  0
   12.0214    6.8832   -2.9130 C   0  0  0  0  0  0  0  0  0  0  0  0
   11.5245    6.8980   -4.2247 C   0  0  0  0  0  0  0  0  0  0  0  0
   11.3422    8.1093   -4.8319 N   0  0  0  0  0  0  0  0  0  0  0  0
   11.6250    9.2756   -4.2084 C   0  0  0  0  0  0  0  0  0  0  0  0
   12.0991    9.2841   -2.9595 N   0  0  0  0  0  0  0  0  0  0  0  0
   12.6847    8.1018   -1.2916 H   0  0  0  0  0  0  0  0  0  0  0  0
   12.1842    5.9541   -2.3865 H   0  0  0  0  0  0  0  0  0  0  0  0
   11.3091    5.9663   -4.6951 H   0  0  0  0  0  0  0  0  0  0  0  0
   11.4043   10.5330   -4.9218 C   0  0  2  0  0  0  0  0  0  0  0  0
    9.9372   10.9421   -4.9425 C   0  0  0  0  0  0  0  0  0  0  0  0
    9.8267   11.5208   -6.3373 C   0  0  1  0  0  0  0  0  0  0  0  0
   10.8527   12.6067   -6.5150 C   0  0  0  0  0  0  0  0  0  0  0  0
   12.1885   11.9154   -6.7566 C   0  0  0  0  0  0  0  0  0  0  0  0
   11.8369   10.4936   -6.3599 C   0  0  2  0  0  0  0  0  0  0  0  0
   10.4983   10.3699   -7.1086 C   0  0  0  0  0  0  0  0  0  0  0  0
   11.9308   11.3782   -4.3955 H   0  0  0  0  0  0  0  0  0  0  0  0
    9.2757   10.0420   -4.8847 H   0  0  0  0  0  0  0  0  0  0  0  0
    9.7021   11.6832   -4.1577 H   0  0  0  0  0  0  0  0  0  0  0  0
    8.8372   11.7412   -6.6706 H   0  0  0  0  0  0  0  0  0  0  0  0
   10.9490   13.1273   -5.5333 H   0  0  0  0  0  0  0  0  0  0  0  0
   10.6070   13.3254   -7.3104 H   0  0  0  0  0  0  0  0  0  0  0  0
   12.4977   11.9821   -7.8226 H   0  0  0  0  0  0  0  0  0  0  0  0
   12.9729   12.2660   -6.0620 H   0  0  0  0  0  0  0  0  0  0  0  0
   12.5518    9.7507   -6.6269 H   0  0  0  0  0  0  0  0  0  0  0  0
   10.6102   10.6062   -8.1699 H   0  0  0  0  0  0  0  0  0  0  0  0
   10.0093    9.4221   -6.8854 H   0  0  0  0  0  0  0  0  0  0  0  0
  2  1  2  0
  3  2  1  0
  4  3  2  0
  4  5  1  0
  5  6  2  0
  6  1  1  0
  1  7  1  0
  2  8  1  0
  3  9  1  0
 10 11  1  0
 11 12  1  0
 12 13  1  0
 13 14  1  0
 14 15  1  0
 15 16  1  0
 15 10  1  0
 16 12  1  0
 10 17  1  1
 11 18  1  0
 11 19  1  0
 12 20  1  6
 13 21  1  0
 13 22  1  0
 14 23  1  0
 14 24  1  0
 15 25  1  1
 16 26  1  0
 16 27  1  0
  5 10  1  0
M  END
>  <Score>  (1) 
-7.40154

$$$$

     RDKit          3D

 20 21  0  0  0  0  0  0  0  0999 V2000
   12.3029    8.1242   -2.3007 C   0  0  0  0  0  0  0  0  0  0  0  0
   12.0206    6.8820   -2.9151 C   0  0  0  0  0  0  0  0  0  0  0  0
   11.5251    6.8971   -4.2231 C   0  0  0  0  0  0  0  0  0  0  0  0
   11.3424    8.1104   -4.8317 N   0  0  0  0  0  0  0  0  0  0  0  0
   11.6237    9.2754   -4.2119 C   0  0  0  0  0  0  0  0  0  0  0  0
   12.1005    9.2819   -2.9554 N   0  0  0  0  0  0  0  0  0  0  0  0
   12.6814    8.0562   -1.2955 H   0  0  0  0  0  0  0  0  0  0  0  0
   12.1735    5.9556   -2.4149 H   0  0  0  0  0  0  0  0  0  0  0  0
   11.3119    5.9690   -4.6879 H   0  0  0  0  0  0  0  0  0  0  0  0
   11.4070   10.5432   -4.9158 C   0  0  0  0  0  0  0  0  0  0  0  0
   11.0858   11.6829   -4.2473 C   0  0  0  0  0  0  0  0  0  0  0  0
   10.8847   12.8696   -4.9233 C   0  0  0  0  0  0  0  0  0  0  0  0
   10.6319   13.7629   -4.3884 H   0  0  0  0  0  0  0  0  0  0  0  0
   11.0084   12.9122   -6.2949 C   0  0  0  0  0  0  0  0  0  0  0  0
   11.3347   11.7637   -6.9950 C   0  0  0  0  0  0  0  0  0  0  0  0
   11.4664   11.7690   -8.3634 F   0  0  0  0  0  0  0  0  0  0  0  0
   11.5289   10.5946   -6.2888 C   0  0  0  0  0  0  0  0  0  0  0  0
   10.9792   11.6836   -3.1518 H   0  0  0  0  0  0  0  0  0  0  0  0
   10.8592   13.8235   -6.8686 H   0  0  0  0  0  0  0  0  0  0  0  0
   11.7823    9.6849   -6.7916 H   0  0  0  0  0  0  0  0  0  0  0  0
  2  1  2  0
  3  2  1  0
  4  3  2  0
  4  5  1  0
  5  6  2  0
  6  1  1  0
  1  7  1  0
  2  8  1  0
  3  9  1  0
 10 11  2  0
 11 12  1  0
 12 13  1  0
 12 14  2  0
 14 15  1  0
 15 16  1  0
 15 17  2  0
 17 10  1  0
 11 18  1  0
 14 19  1  0
 17 20  1  0
  5 10  1  0
M  END
>  <Score>  (1) 
-7.39953

$$$$

     RDKit          3D

 23 24  0  0  0  0  0  0  0  0999 V2000
   12.3029    8.1261   -2.3009 C   0  0  0  0  0  0  0  0  0  0  0  0
   12.0202    6.8818   -2.9159 C   0  0  0  0  0  0  0  0  0  0  0  0
   11.5239    6.8999   -4.2266 C   0  0  0  0  0  0  0  0  0  0  0  0
   11.3435    8.1037   -4.8278 N   0  0  0  0  0  0  0  0  0  0  0  0
   11.6241    9.2790   -4.2111 C   0  0  0  0  0  0  0  0  0  0  0  0
   12.1004    9.2805   -2.9557 N   0  0  0  0  0  0  0  0  0  0  0  0
   12.6911    8.1530   -1.2812 H   0  0  0  0  0  0  0  0  0  0  0  0
   12.1874    5.9725   -2.3834 H   0  0  0  0  0  0  0  0  0  0  0  0
   11.3156    5.9608   -4.6759 H   0  0  0  0  0  0  0  0  0  0  0  0
   11.3884   10.5533   -4.9666 C   0  0  0  0  0  0  0  0  0  0  0  0
   10.5475   10.2905   -6.1774 C   0  0  0  0  0  0  0  0  0  0  0  0
   11.1475   10.2601   -7.4266 C   0  0  0  0  0  0  0  0  0  0  0  0
   10.4516   10.0264   -8.5891 C   0  0  0  0  0  0  0  0  0  0  0  0
    9.0890    9.8132   -8.4935 C   0  0  0  0  0  0  0  0  0  0  0  0
    8.4759    9.8400   -7.2587 C   0  0  0  0  0  0  0  0  0  0  0  0
    9.1880   10.0770   -6.0898 C   0  0  0  0  0  0  0  0  0  0  0  0
    8.6067   10.1085   -4.8697 F   0  0  0  0  0  0  0  0  0  0  0  0
   10.8652   11.2349   -4.2770 H   0  0  0  0  0  0  0  0  0  0  0  0
   12.3342   11.0199   -5.2616 H   0  0  0  0  0  0  0  0  0  0  0  0
   12.2106   10.4294   -7.4812 H   0  0  0  0  0  0  0  0  0  0  0  0
   10.9125   10.0012   -9.5674 H   0  0  0  0  0  0  0  0  0  0  0  0
    8.5098    9.6262   -9.3883 H   0  0  0  0  0  0  0  0  0  0  0  0
    7.4102    9.6757   -7.1635 H   0  0  0  0  0  0  0  0  0  0  0  0
  2  1  2  0
  3  2  1  0
  4  3  2  0
  4  5  1  0
  5  6  2  0
  6  1  1  0
  1  7  1  0
  2  8  1  0
  3  9  1  0
 10 11  1  0
 11 12  2  0
 12 13  1  0
 13 14  2  0
 14 15  1  0
 15 16  2  0
 16 17  1  0
 16 11  1  0
 10 18  1  0
 10 19  1  0
 12 20  1  0
 13 21  1  0
 14 22  1  0
 15 23  1  0
  5 10  1  0
M  END
>  <Score>  (1) 
-7.39548

$$$$

     RDKit          3D

 26 28  0  0  0  0  0  0  0  0999 V2000
   12.3031    8.1258   -2.3003 C   0  0  0  0  0  0  0  0  0  0  0  0
   12.0206    6.8815   -2.9149 C   0  0  0  0  0  0  0  0  0  0  0  0
   11.5244    6.8997   -4.2251 C   0  0  0  0  0  0  0  0  0  0  0  0
   11.3437    8.1093   -4.8280 N   0  0  0  0  0  0  0  0  0  0  0  0
   11.6228    9.2756   -4.2142 C   0  0  0  0  0  0  0  0  0  0  0  0
   12.1004    9.2791   -2.9555 N   0  0  0  0  0  0  0  0  0  0  0  0
   12.6844    8.0741   -1.2897 H   0  0  0  0  0  0  0  0  0  0  0  0
   12.1855    5.9555   -2.3834 H   0  0  0  0  0  0  0  0  0  0  0  0
   11.3091    5.9664   -4.6950 H   0  0  0  0  0  0  0  0  0  0  0  0
   11.4156   10.5632   -4.8950 C   0  0  0  0  0  0  0  0  0  0  0  0
   11.5048   10.7927   -6.2526 C   0  0  0  0  0  0  0  0  0  0  0  0
   11.2416   12.1265   -6.4789 C   0  0  0  0  0  0  0  0  0  0  0  0
   10.9919   12.7099   -5.2657 C   0  0  0  0  0  0  0  0  0  0  0  0
   11.1048   11.7394   -4.3261 N   0  0  0  0  0  0  0  0  0  0  0  0
   10.6613   14.1436   -5.1788 C   0  0  0  0  0  0  0  0  0  0  0  0
   11.2757   14.9763   -6.2742 C   0  0  0  0  0  0  0  0  0  0  0  0
   10.8948   14.3798   -7.5348 N   0  0  0  0  0  0  0  0  0  0  0  0
   11.1918   12.9950   -7.6751 C   0  0  0  0  0  0  0  0  0  0  0  0
   11.4157   12.4665   -8.7711 O   0  0  0  0  0  0  0  0  0  0  0  0
   11.7400   10.0650   -7.0260 H   0  0  0  0  0  0  0  0  0  0  0  0
   10.9693   11.8801   -3.2938 H   0  0  0  0  0  0  0  0  0  0  0  0
    9.5453   14.2689   -5.3050 H   0  0  0  0  0  0  0  0  0  0  0  0
   10.9473   14.5013   -4.1668 H   0  0  0  0  0  0  0  0  0  0  0  0
   10.8566   16.0061   -6.1760 H   0  0  0  0  0  0  0  0  0  0  0  0
   12.3797   15.0471   -6.1660 H   0  0  0  0  0  0  0  0  0  0  0  0
   10.4387   14.8759   -8.3098 H   0  0  0  0  0  0  0  0  0  0  0  0
  2  1  2  0
  3  2  1  0
  4  3  2  0
  4  5  1  0
  5  6  2  0
  6  1  1  0
  1  7  1  0
  2  8  1  0
  3  9  1  0
 10 11  2  0
 11 12  1  0
 12 13  2  0
 13 14  1  0
 13 15  1  0
 15 16  1  0
 16 17  1  0
 17 18  1  0
 18 19  2  0
 14 10  1  0
 18 12  1  0
 11 20  1  0
 14 21  1  0
 15 22  1  0
 15 23  1  0
 16 24  1  0
 16 25  1  0
 17 26  1  0
  5 10  1  0
M  END
>  <Score>  (1) 
-8.2537

$$$$

     RDKit          3D

 25 26  0  0  0  0  0  0  0  0999 V2000
   12.3003    8.1218   -2.3074 C   0  0  0  0  0  0  0  0  0  0  0  0
   12.0200    6.8834   -2.9167 C   0  0  0  0  0  0  0  0  0  0  0  0
   11.5269    6.9051   -4.2190 C   0  0  0  0  0  0  0  0  0  0  0  0
   11.3492    8.1101   -4.8135 N   0  0  0  0  0  0  0  0  0  0  0  0
   11.6181    9.2823   -4.2272 C   0  0  0  0  0  0  0  0  0  0  0  0
   12.1004    9.2683   -2.9543 N   0  0  0  0  0  0  0  0  0  0  0  0
   12.6868    8.1419   -1.2904 H   0  0  0  0  0  0  0  0  0  0  0  0
   12.1877    5.9683   -2.3789 H   0  0  0  0  0  0  0  0  0  0  0  0
   11.3130    5.9627   -4.6846 H   0  0  0  0  0  0  0  0  0  0  0  0
   13.7465    9.4322   -5.9891 H   0  0  0  0  0  0  0  0  0  0  0  0
   13.4302   10.4017   -6.2900 C   0  0  0  0  0  0  0  0  0  0  0  0
   14.1386   10.9874   -7.1807 O   0  0  0  0  0  0  0  0  0  0  0  0
   12.2811   11.1230   -5.7941 C   0  0  0  0  0  0  0  0  0  0  0  0
   12.0442   12.3973   -6.3305 C   0  0  0  0  0  0  0  0  0  0  0  0
   10.9691   13.1400   -5.9048 C   0  0  0  0  0  0  0  0  0  0  0  0
   10.6990   14.4868   -6.4563 C   0  0  0  0  0  0  0  0  0  0  0  0
   10.1151   12.6398   -4.9480 C   0  0  0  0  0  0  0  0  0  0  0  0
   10.3678   11.3929   -4.4395 C   0  0  0  0  0  0  0  0  0  0  0  0
   11.4410   10.5930   -4.8313 C   0  0  0  0  0  0  0  0  0  0  0  0
   12.6745   12.8471   -7.0824 H   0  0  0  0  0  0  0  0  0  0  0  0
    9.9695   15.0314   -5.8216 H   0  0  0  0  0  0  0  0  0  0  0  0
   11.6647   15.0409   -6.4797 H   0  0  0  0  0  0  0  0  0  0  0  0
   10.2944   14.4019   -7.4869 H   0  0  0  0  0  0  0  0  0  0  0  0
    9.2790   13.2392   -4.6292 H   0  0  0  0  0  0  0  0  0  0  0  0
    9.7045   10.9907   -3.6887 H   0  0  0  0  0  0  0  0  0  0  0  0
  2  1  2  0
  3  2  1  0
  4  3  2  0
  4  5  1  0
  5  6  2  0
  6  1  1  0
  1  7  1  0
  2  8  1  0
  3  9  1  0
 10 11  1  0
 11 12  2  0
 11 13  1  0
 13 14  2  0
 14 15  1  0
 15 16  1  0
 15 17  2  0
 17 18  1  0
 18 19  2  0
 19 13  1  0
 14 20  1  0
 16 21  1  0
 16 22  1  0
 16 23  1  0
 17 24  1  0
 18 25  1  0
  5 19  1  0
M  END
>  <Score>  (1) 
-7.38747

$$$$

     RDKit          3D

 30 31  0  0  0  0  0  0  0  0999 V2000
   12.3027    8.1219   -2.3010 C   0  0  0  0  0  0  0  0  0  0  0  0
   12.0197    6.8844   -2.9176 C   0  0  0  0  0  0  0  0  0  0  0  0
   11.5259    6.8994   -4.2210 C   0  0  0  0  0  0  0  0  0  0  0  0
   11.3427    8.1063   -4.8303 N   0  0  0  0  0  0  0  0  0  0  0  0
   11.6224    9.2786   -4.2156 C   0  0  0  0  0  0  0  0  0  0  0  0
   12.1015    9.2805   -2.9525 N   0  0  0  0  0  0  0  0  0  0  0  0
   12.6836    8.0597   -1.2903 H   0  0  0  0  0  0  0  0  0  0  0  0
   12.1855    5.9759   -2.3854 H   0  0  0  0  0  0  0  0  0  0  0  0
   11.3057    5.9595   -4.7032 H   0  0  0  0  0  0  0  0  0  0  0  0
   11.4130   10.5053   -4.8960 N   0  0  0  0  0  0  0  0  0  0  0  0
   10.6111   10.5359   -6.0985 C   0  0  1  0  0  0  0  0  0  0  0  0
   10.5198   11.9300   -6.6529 C   0  0  0  0  0  0  0  0  0  0  0  0
   11.6201   12.1126   -7.6565 C   0  0  0  0  0  0  0  0  0  0  0  0
   11.2702   11.3433   -8.9122 C   0  0  2  0  0  0  0  0  0  0  0  0
   10.3593   12.1877   -9.6758 N   0  0  0  0  0  0  0  0  0  0  0  0
   10.5351   10.1018   -8.4934 C   0  0  0  0  0  0  0  0  0  0  0  0
   11.1692    9.6272   -7.1824 C   0  0  0  0  0  0  0  0  0  0  0  0
   11.8222   11.3856   -4.5518 H   0  0  0  0  0  0  0  0  0  0  0  0
    9.5736   10.1514   -5.8961 H   0  0  0  0  0  0  0  0  0  0  0  0
   10.6460   12.6385   -5.7973 H   0  0  0  0  0  0  0  0  0  0  0  0
    9.5084   12.0733   -7.0947 H   0  0  0  0  0  0  0  0  0  0  0  0
   11.7231   13.1770   -7.9558 H   0  0  0  0  0  0  0  0  0  0  0  0
   12.5606   11.7955   -7.1988 H   0  0  0  0  0  0  0  0  0  0  0  0
   12.1601   11.0499   -9.4947 H   0  0  0  0  0  0  0  0  0  0  0  0
   10.4661   13.1829   -9.4050 H   0  0  0  0  0  0  0  0  0  0  0  0
   10.4447   12.0100  -10.6925 H   0  0  0  0  0  0  0  0  0  0  0  0
    9.4656   10.2937   -8.2602 H   0  0  0  0  0  0  0  0  0  0  0  0
   10.5660    9.3029   -9.2584 H   0  0  0  0  0  0  0  0  0  0  0  0
   12.2609    9.7746   -7.2936 H   0  0  0  0  0  0  0  0  0  0  0  0
   10.9143    8.5693   -7.0257 H   0  0  0  0  0  0  0  0  0  0  0  0
  2  1  2  0
  3  2  1  0
  4  3  2  0
  4  5  1  0
  5  6  2  0
  6  1  1  0
  1  7  1  0
  2  8  1  0
  3  9  1  0
 10 11  1  0
 11 12  1  0
 12 13  1  0
 13 14  1  0
 14 15  1  0
 14 16  1  0
 16 17  1  0
 17 11  1  0
 10 18  1  0
 11 19  1  1
 12 20  1  0
 12 21  1  0
 13 22  1  0
 13 23  1  0
 14 24  1  6
 15 25  1  0
 15 26  1  0
 16 27  1  0
 16 28  1  0
 17 29  1  0
 17 30  1  0
  5 10  1  0
M  END
>  <Score>  (1) 
-7.37331

$$$$

     RDKit          3D

 27 28  0  0  0  0  0  0  0  0999 V2000
   12.3027    8.1228   -2.3011 C   0  0  0  0  0  0  0  0  0  0  0  0
   12.0212    6.8831   -2.9136 C   0  0  0  0  0  0  0  0  0  0  0  0
   11.5247    6.8964   -4.2239 C   0  0  0  0  0  0  0  0  0  0  0  0
   11.3425    8.1114   -4.8313 N   0  0  0  0  0  0  0  0  0  0  0  0
   11.6235    9.2752   -4.2123 C   0  0  0  0  0  0  0  0  0  0  0  0
   12.1004    9.2821   -2.9557 N   0  0  0  0  0  0  0  0  0  0  0  0
   12.6823    8.0986   -1.2979 H   0  0  0  0  0  0  0  0  0  0  0  0
   12.1779    5.9595   -2.4037 H   0  0  0  0  0  0  0  0  0  0  0  0
   11.2883    5.9937   -4.7529 H   0  0  0  0  0  0  0  0  0  0  0  0
   11.4069   10.4726   -4.9088 N   0  0  0  0  0  0  0  0  0  0  0  0
   10.0850   11.0133   -5.1259 C   0  0  0  0  0  0  0  0  0  0  0  0
   10.0775   11.6863   -6.4792 C   0  0  0  0  0  0  0  0  0  0  0  0
   11.0351   12.8362   -6.5515 C   0  0  0  0  0  0  0  0  0  0  0  0
   12.0685   12.6859   -5.4753 C   0  0  2  0  0  0  0  0  0  0  0  0
   13.1745   13.6102   -5.6329 N   0  0  0  0  0  0  0  0  0  0  0  0
   12.5222   11.2481   -5.4596 C   0  0  0  0  0  0  0  0  0  0  0  0
    9.3352   10.1829   -5.1881 H   0  0  0  0  0  0  0  0  0  0  0  0
    9.7417   11.6727   -4.3161 H   0  0  0  0  0  0  0  0  0  0  0  0
    9.0639   12.0797   -6.7048 H   0  0  0  0  0  0  0  0  0  0  0  0
   10.3531   10.8911   -7.2238 H   0  0  0  0  0  0  0  0  0  0  0  0
   11.5296   12.8163   -7.5450 H   0  0  0  0  0  0  0  0  0  0  0  0
   10.5361   13.8144   -6.4414 H   0  0  0  0  0  0  0  0  0  0  0  0
   11.5873   12.9136   -4.4824 H   0  0  0  0  0  0  0  0  0  0  0  0
   13.7828   13.4955   -4.7864 H   0  0  0  0  0  0  0  0  0  0  0  0
   12.7716   14.5731   -5.5592 H   0  0  0  0  0  0  0  0  0  0  0  0
   13.4444   11.1001   -4.8665 H   0  0  0  0  0  0  0  0  0  0  0  0
   12.6349   10.9011   -6.5102 H   0  0  0  0  0  0  0  0  0  0  0  0
  2  1  2  0
  3  2  1  0
  4  3  2  0
  4  5  1  0
  5  6  2  0
  6  1  1  0
  1  7  1  0
  2  8  1  0
  3  9  1  0
 10 11  1  0
 11 12  1  0
 12 13  1  0
 13 14  1  0
 14 15  1  0
 14 16  1  0
 16 10  1  0
 11 17  1  0
 11 18  1  0
 12 19  1  0
 12 20  1  0
 13 21  1  0
 13 22  1  0
 14 23  1  1
 15 24  1  0
 15 25  1  0
 16 26  1  0
 16 27  1  0
  5 10  1  0
M  END
>  <Score>  (1) 
-7.37297

$$$$

     RDKit          3D

 27 28  0  0  0  0  0  0  0  0999 V2000
   12.3027    8.1264   -2.3014 C   0  0  0  0  0  0  0  0  0  0  0  0
   12.0202    6.8818   -2.9160 C   0  0  0  0  0  0  0  0  0  0  0  0
   11.5253    6.8960   -4.2223 C   0  0  0  0  0  0  0  0  0  0  0  0
   11.3429    8.1125   -4.8306 N   0  0  0  0  0  0  0  0  0  0  0  0
   11.6224    9.2748   -4.2152 C   0  0  0  0  0  0  0  0  0  0  0  0
   12.1015    9.2794   -2.9525 N   0  0  0  0  0  0  0  0  0  0  0  0
   12.6837    8.0639   -1.2905 H   0  0  0  0  0  0  0  0  0  0  0  0
   12.1880    5.9546   -2.3765 H   0  0  0  0  0  0  0  0  0  0  0  0
   11.2968    5.9696   -4.7277 H   0  0  0  0  0  0  0  0  0  0  0  0
   11.4139   10.5210   -4.8953 N   0  0  0  0  0  0  0  0  0  0  0  0
   10.1979   10.7428   -5.6348 C   0  0  0  0  0  0  0  0  0  0  0  0
   10.3629   11.5854   -6.8495 C   0  0  0  0  0  0  0  0  0  0  0  0
   11.3181   12.7245   -6.6327 C   0  0  0  0  0  0  0  0  0  0  0  0
   11.5421   13.4702   -7.8300 N   0  0  0  0  0  0  0  0  0  0  0  0
   11.5352   14.4909   -7.5976 H   0  0  0  0  0  0  0  0  0  0  0  0
   10.8788   13.2339   -8.6028 H   0  0  0  0  0  0  0  0  0  0  0  0
   12.6556   12.0975   -6.2181 C   0  0  0  0  0  0  0  0  0  0  0  0
   12.4391   11.5429   -4.8255 C   0  0  0  0  0  0  0  0  0  0  0  0
    9.8558    9.7243   -5.9815 H   0  0  0  0  0  0  0  0  0  0  0  0
    9.3677   11.1256   -4.9869 H   0  0  0  0  0  0  0  0  0  0  0  0
    9.3597   12.0557   -7.0691 H   0  0  0  0  0  0  0  0  0  0  0  0
   10.7115   11.0050   -7.7484 H   0  0  0  0  0  0  0  0  0  0  0  0
   10.9913   13.3273   -5.7670 H   0  0  0  0  0  0  0  0  0  0  0  0
   12.8737   11.2619   -6.9275 H   0  0  0  0  0  0  0  0  0  0  0  0
   13.4468   12.8682   -6.2321 H   0  0  0  0  0  0  0  0  0  0  0  0
   13.3825   11.1079   -4.4212 H   0  0  0  0  0  0  0  0  0  0  0  0
   12.0776   12.3952   -4.2026 H   0  0  0  0  0  0  0  0  0  0  0  0
  2  1  2  0
  3  2  1  0
  4  3  2  0
  4  5  1  0
  5  6  2  0
  6  1  1  0
  1  7  1  0
  2  8  1  0
  3  9  1  0
 10 11  1  0
 11 12  1  0
 12 13  1  0
 13 14  1  0
 14 15  1  0
 14 16  1  0
 13 17  1  0
 17 18  1  0
 18 10  1  0
 11 19  1  0
 11 20  1  0
 12 21  1  0
 12 22  1  0
 13 23  1  0
 17 24  1  0
 17 25  1  0
 18 26  1  0
 18 27  1  0
  5 10  1  0
M  END
>  <Score>  (1) 
-7.36974

$$$$

     RDKit          3D

 26 27  0  0  0  0  0  0  0  0999 V2000
   12.3026    8.1242   -2.3016 C   0  0  0  0  0  0  0  0  0  0  0  0
   12.0212    6.8829   -2.9134 C   0  0  0  0  0  0  0  0  0  0  0  0
   11.5244    6.8975   -4.2248 C   0  0  0  0  0  0  0  0  0  0  0  0
   11.3424    8.1091   -4.8314 N   0  0  0  0  0  0  0  0  0  0  0  0
   11.6233    9.2765   -4.2130 C   0  0  0  0  0  0  0  0  0  0  0  0
   12.1011    9.2808   -2.9538 N   0  0  0  0  0  0  0  0  0  0  0  0
   12.6818    8.0514   -1.2941 H   0  0  0  0  0  0  0  0  0  0  0  0
   12.1766    5.9545   -2.4067 H   0  0  0  0  0  0  0  0  0  0  0  0
   11.2886    5.9792   -4.7505 H   0  0  0  0  0  0  0  0  0  0  0  0
   11.9846   13.8713   -6.9656 H   0  0  0  0  0  0  0  0  0  0  0  0
   12.7898   13.3085   -6.4491 C   0  0  0  0  0  0  0  0  0  0  0  0
   12.4748   11.8292   -6.4319 C   0  0  1  0  0  0  0  0  0  0  0  0
   12.4944   11.2841   -5.1784 O   0  0  0  0  0  0  0  0  0  0  0  0
   11.3785   10.5167   -4.9882 C   0  0  1  0  0  0  0  0  0  0  0  0
   10.7976   10.2079   -6.3599 C   0  0  1  0  0  0  0  0  0  0  0  0
    9.4394   10.0117   -6.2947 O   0  0  0  0  0  0  0  0  0  0  0  0
   11.1582   11.5169   -7.0776 C   0  0  2  0  0  0  0  0  0  0  0  0
   11.2202   11.3624   -8.4385 O   0  0  0  0  0  0  0  0  0  0  0  0
   13.7611   13.5021   -6.9625 H   0  0  0  0  0  0  0  0  0  0  0  0
   12.8997   13.6935   -5.4208 H   0  0  0  0  0  0  0  0  0  0  0  0
   13.2610   11.2897   -7.0374 H   0  0  0  0  0  0  0  0  0  0  0  0
   10.5902   11.1291   -4.4673 H   0  0  0  0  0  0  0  0  0  0  0  0
   11.3517    9.4192   -6.8882 H   0  0  0  0  0  0  0  0  0  0  0  0
    9.1604    9.5319   -7.1190 H   0  0  0  0  0  0  0  0  0  0  0  0
   10.4361   12.3012   -6.7498 H   0  0  0  0  0  0  0  0  0  0  0  0
   10.3510   11.7114   -8.8102 H   0  0  0  0  0  0  0  0  0  0  0  0
  2  1  2  0
  3  2  1  0
  4  3  2  0
  4  5  1  0
  5  6  2  0
  6  1  1  0
  1  7  1  0
  2  8  1  0
  3  9  1  0
 10 11  1  0
 11 12  1  0
 12 13  1  0
 13 14  1  0
 14 15  1  0
 15 16  1  0
 15 17  1  0
 17 18  1  0
 17 12  1  0
 11 19  1  0
 11 20  1  0
 12 21  1  6
 14 22  1  1
 15 23  1  6
 16 24  1  0
 17 25  1  6
 18 26  1  0
  5 14  1  0
M  END
>  <Score>  (1) 
-7.36655

$$$$

     RDKit          3D

 24 25  0  0  0  0  0  0  0  0999 V2000
   12.3026    8.1196   -2.3011 C   0  0  0  0  0  0  0  0  0  0  0  0
   12.0216    6.8850   -2.9126 C   0  0  0  0  0  0  0  0  0  0  0  0
   11.5244    6.8977   -4.2250 C   0  0  0  0  0  0  0  0  0  0  0  0
   11.3421    8.1075   -4.8321 N   0  0  0  0  0  0  0  0  0  0  0  0
   11.6245    9.2776   -4.2099 C   0  0  0  0  0  0  0  0  0  0  0  0
   12.0998    9.2835   -2.9575 N   0  0  0  0  0  0  0  0  0  0  0  0
   12.6866    8.0873   -1.2852 H   0  0  0  0  0  0  0  0  0  0  0  0
   12.1670    5.9504   -2.4315 H   0  0  0  0  0  0  0  0  0  0  0  0
   11.2886    5.9978   -4.7523 H   0  0  0  0  0  0  0  0  0  0  0  0
   11.4032   10.5349   -4.9249 C   0  0  0  0  0  0  0  0  0  0  0  0
   10.1503   10.8721   -5.3751 C   0  0  0  0  0  0  0  0  0  0  0  0
    9.8954   12.0463   -6.0533 C   0  0  0  0  0  0  0  0  0  0  0  0
   10.9491   12.9206   -6.2891 C   0  0  0  0  0  0  0  0  0  0  0  0
   10.8053   13.8573   -6.8171 H   0  0  0  0  0  0  0  0  0  0  0  0
   12.2104   12.5885   -5.8397 C   0  0  0  0  0  0  0  0  0  0  0  0
   13.2363   13.4915   -6.0967 O   0  0  0  0  0  0  0  0  0  0  0  0
   14.5709   13.2950   -5.7035 C   0  0  0  0  0  0  0  0  0  0  0  0
   12.4268   11.4025   -5.1636 C   0  0  0  0  0  0  0  0  0  0  0  0
    9.3390   10.1830   -5.1852 H   0  0  0  0  0  0  0  0  0  0  0  0
    8.9223   12.3407   -6.4202 H   0  0  0  0  0  0  0  0  0  0  0  0
   15.1337   12.6507   -6.4179 H   0  0  0  0  0  0  0  0  0  0  0  0
   14.5512   12.8453   -4.6875 H   0  0  0  0  0  0  0  0  0  0  0  0
   15.0435   14.3148   -5.6766 H   0  0  0  0  0  0  0  0  0  0  0  0
   13.4086   11.1605   -4.8226 H   0  0  0  0  0  0  0  0  0  0  0  0
  2  1  2  0
  3  2  1  0
  4  3  2  0
  4  5  1  0
  5  6  2  0
  6  1  1  0
  1  7  1  0
  2  8  1  0
  3  9  1  0
 10 11  2  0
 11 12  1  0
 12 13  2  0
 13 14  1  0
 13 15  1  0
 15 16  1  0
 16 17  1  0
 15 18  2  0
 18 10  1  0
 11 19  1  0
 12 20  1  0
 17 21  1  0
 17 22  1  0
 17 23  1  0
 18 24  1  0
  5 10  1  0
M  END
>  <Score>  (1) 
-7.36415

$$$$

     RDKit          3D

 28 30  0  0  0  0  0  0  0  0999 V2000
   12.3028    8.1209   -2.3007 C   0  0  0  0  0  0  0  0  0  0  0  0
   12.0219    6.8833   -2.9116 C   0  0  0  0  0  0  0  0  0  0  0  0
   11.5235    6.9008   -4.2275 C   0  0  0  0  0  0  0  0  0  0  0  0
   11.3428    8.1045   -4.8299 N   0  0  0  0  0  0  0  0  0  0  0  0
   11.6250    9.2790   -4.2087 C   0  0  0  0  0  0  0  0  0  0  0  0
   12.0989    9.2824   -2.9597 N   0  0  0  0  0  0  0  0  0  0  0  0
   12.6835    8.1094   -1.2958 H   0  0  0  0  0  0  0  0  0  0  0  0
   12.1856    5.9707   -2.3845 H   0  0  0  0  0  0  0  0  0  0  0  0
   11.3101    5.9613   -4.6919 H   0  0  0  0  0  0  0  0  0  0  0  0
   11.4118   10.4899   -4.8977 N   0  0  0  0  0  0  0  0  0  0  0  0
   10.8947   10.6259   -6.2750 C   0  0  0  0  0  0  0  0  0  0  0  0
   11.4894   11.9053   -6.6551 C   0  0  1  0  0  0  0  0  0  0  0  0
   10.8190   12.8093   -7.5874 C   0  0  0  0  0  0  0  0  0  0  0  0
   11.2814   14.1358   -7.1396 N   0  0  0  0  0  0  0  0  0  0  0  0
   10.4199   14.7374   -7.0333 H   0  0  0  0  0  0  0  0  0  0  0  0
   11.7758   13.9582   -5.7624 C   0  0  0  0  0  0  0  0  0  0  0  0
   11.1587   12.7078   -5.3702 C   0  0  2  0  0  0  0  0  0  0  0  0
   11.6724   11.8348   -4.3510 C   0  0  0  0  0  0  0  0  0  0  0  0
   11.2167    9.7716   -6.8987 H   0  0  0  0  0  0  0  0  0  0  0  0
    9.7962   10.6691   -6.1980 H   0  0  0  0  0  0  0  0  0  0  0  0
   12.5797   11.8349   -6.7856 H   0  0  0  0  0  0  0  0  0  0  0  0
    9.7328   12.7210   -7.5361 H   0  0  0  0  0  0  0  0  0  0  0  0
   11.1106   12.7019   -8.6531 H   0  0  0  0  0  0  0  0  0  0  0  0
   11.5448   14.8412   -5.1416 H   0  0  0  0  0  0  0  0  0  0  0  0
   12.8821   13.8660   -5.8463 H   0  0  0  0  0  0  0  0  0  0  0  0
   10.0607   12.7891   -5.3551 H   0  0  0  0  0  0  0  0  0  0  0  0
   12.6939   11.9454   -4.0086 H   0  0  0  0  0  0  0  0  0  0  0  0
   11.0186   11.8806   -3.4305 H   0  0  0  0  0  0  0  0  0  0  0  0
  2  1  2  0
  3  2  1  0
  4  3  2  0
  4  5  1  0
  5  6  2  0
  6  1  1  0
  1  7  1  0
  2  8  1  0
  3  9  1  0
 10 11  1  0
 11 12  1  0
 12 13  1  0
 13 14  1  0
 14 15  1  0
 14 16  1  0
 16 17  1  0
 17 18  1  0
 18 10  1  0
 17 12  1  0
 11 19  1  0
 11 20  1  0
 12 21  1  6
 13 22  1  0
 13 23  1  0
 16 24  1  0
 16 25  1  0
 17 26  1  1
 18 27  1  0
 18 28  1  0
  5 10  1  0
M  END
>  <Score>  (1) 
-7.36229

$$$$

     RDKit          3D

 25 26  0  0  0  0  0  0  0  0999 V2000
   12.3026    8.1228   -2.3013 C   0  0  0  0  0  0  0  0  0  0  0  0
   12.0217    6.8834   -2.9123 C   0  0  0  0  0  0  0  0  0  0  0  0
   11.5239    6.8989   -4.2263 C   0  0  0  0  0  0  0  0  0  0  0  0
   11.3422    8.1062   -4.8317 N   0  0  0  0  0  0  0  0  0  0  0  0
   11.6243    9.2780   -4.2104 C   0  0  0  0  0  0  0  0  0  0  0  0
   12.1003    9.2818   -2.9560 N   0  0  0  0  0  0  0  0  0  0  0  0
   12.6783    8.0557   -1.3037 H   0  0  0  0  0  0  0  0  0  0  0  0
   12.1857    5.9673   -2.3841 H   0  0  0  0  0  0  0  0  0  0  0  0
   11.3014    5.9667   -4.7153 H   0  0  0  0  0  0  0  0  0  0  0  0
    8.3473    9.1970   -8.7144 H   0  0  0  0  0  0  0  0  0  0  0  0
    9.2646    9.3292   -9.2688 C   0  0  0  0  0  0  0  0  0  0  0  0
    9.3393    9.1508  -10.5025 O   0  0  0  0  0  0  0  0  0  0  0  0
   10.4705    9.7360   -8.5341 C   0  0  0  0  0  0  0  0  0  0  0  0
   10.4347    9.9440   -7.1713 C   0  0  0  0  0  0  0  0  0  0  0  0
   11.5407   10.3262   -6.4390 C   0  0  0  0  0  0  0  0  0  0  0  0
   11.3752   10.5157   -4.9968 C   0  0  0  0  0  0  0  0  0  0  0  0
   12.7224   10.5012   -7.1252 C   0  0  0  0  0  0  0  0  0  0  0  0
   12.8019   10.3025   -8.4957 C   0  0  0  0  0  0  0  0  0  0  0  0
   11.6668    9.9186   -9.1933 C   0  0  0  0  0  0  0  0  0  0  0  0
   11.7002    9.7133  -10.5352 F   0  0  0  0  0  0  0  0  0  0  0  0
    9.4611    9.7881   -6.6800 H   0  0  0  0  0  0  0  0  0  0  0  0
   12.0215   11.3515   -4.5982 H   0  0  0  0  0  0  0  0  0  0  0  0
   10.3231   10.8154   -4.7775 H   0  0  0  0  0  0  0  0  0  0  0  0
   13.6005   10.7989   -6.5802 H   0  0  0  0  0  0  0  0  0  0  0  0
   13.7192   10.4337   -9.0568 H   0  0  0  0  0  0  0  0  0  0  0  0
  2  1  2  0
  3  2  1  0
  4  3  2  0
  4  5  1  0
  5  6  2  0
  6  1  1  0
  1  7  1  0
  2  8  1  0
  3  9  1  0
 10 11  1  0
 11 12  2  0
 11 13  1  0
 13 14  2  0
 14 15  1  0
 15 16  1  0
 15 17  2  0
 17 18  1  0
 18 19  2  0
 19 20  1  0
 19 13  1  0
 14 21  1  0
 16 22  1  0
 16 23  1  0
 17 24  1  0
 18 25  1  0
  5 16  1  0
M  END
>  <Score>  (1) 
-7.36017

$$$$

     RDKit          3D

 23 24  0  0  0  0  0  0  0  0999 V2000
   12.3019    8.1230   -2.3031 C   0  0  0  0  0  0  0  0  0  0  0  0
   12.0224    6.8844   -2.9105 C   0  0  0  0  0  0  0  0  0  0  0  0
   11.5235    6.8988   -4.2273 C   0  0  0  0  0  0  0  0  0  0  0  0
   11.3424    8.1071   -4.8313 N   0  0  0  0  0  0  0  0  0  0  0  0
   11.6234    9.2772   -4.2128 C   0  0  0  0  0  0  0  0  0  0  0  0
   12.1014    9.2806   -2.9530 N   0  0  0  0  0  0  0  0  0  0  0  0
   12.6829    8.0627   -1.2924 H   0  0  0  0  0  0  0  0  0  0  0  0
   12.1725    5.9582   -2.4178 H   0  0  0  0  0  0  0  0  0  0  0  0
   11.2936    5.9756   -4.7368 H   0  0  0  0  0  0  0  0  0  0  0  0
   11.3823   10.5271   -4.9793 C   0  0  0  0  0  0  0  0  0  0  0  0
   10.5253   10.2516   -6.1823 C   0  0  0  0  0  0  0  0  0  0  0  0
    9.1483   10.3272   -6.1144 C   0  0  0  0  0  0  0  0  0  0  0  0
    8.3996   10.0693   -7.2314 C   0  0  0  0  0  0  0  0  0  0  0  0
    8.9554    9.7314   -8.4462 C   0  0  0  0  0  0  0  0  0  0  0  0
    7.9749    9.4051   -9.8654 Cl  0  0  0  0  0  0  0  0  0  0  0  0
   10.3354    9.6577   -8.5067 C   0  0  0  0  0  0  0  0  0  0  0  0
   11.1132    9.9147   -7.3877 C   0  0  0  0  0  0  0  0  0  0  0  0
   12.3725   10.9213   -5.2754 H   0  0  0  0  0  0  0  0  0  0  0  0
   10.8427   11.2836   -4.3760 H   0  0  0  0  0  0  0  0  0  0  0  0
    8.6988   10.5936   -5.1586 H   0  0  0  0  0  0  0  0  0  0  0  0
    7.3220   10.1263   -7.1866 H   0  0  0  0  0  0  0  0  0  0  0  0
   10.7581    9.3911   -9.4670 H   0  0  0  0  0  0  0  0  0  0  0  0
   12.2016    9.8429   -7.4880 H   0  0  0  0  0  0  0  0  0  0  0  0
  2  1  2  0
  3  2  1  0
  4  3  2  0
  4  5  1  0
  5  6  2  0
  6  1  1  0
  1  7  1  0
  2  8  1  0
  3  9  1  0
 10 11  1  0
 11 12  2  0
 12 13  1  0
 13 14  2  0
 14 15  1  0
 14 16  1  0
 16 17  2  0
 17 11  1  0
 10 18  1  0
 10 19  1  0
 12 20  1  0
 13 21  1  0
 16 22  1  0
 17 23  1  0
  5 10  1  0
M  END
>  <Score>  (1) 
-7.36012

$$$$

     RDKit          3D

 20 21  0  0  0  0  0  0  0  0999 V2000
   12.3028    8.1249   -2.3011 C   0  0  0  0  0  0  0  0  0  0  0  0
   12.0205    6.8819   -2.9152 C   0  0  0  0  0  0  0  0  0  0  0  0
   11.5253    6.8957   -4.2223 C   0  0  0  0  0  0  0  0  0  0  0  0
   11.3425    8.1137   -4.8315 N   0  0  0  0  0  0  0  0  0  0  0  0
   11.6229    9.2735   -4.2137 C   0  0  0  0  0  0  0  0  0  0  0  0
   12.1010    9.2814   -2.9541 N   0  0  0  0  0  0  0  0  0  0  0  0
   12.6826    8.0935   -1.2963 H   0  0  0  0  0  0  0  0  0  0  0  0
   12.1841    5.9558   -2.3871 H   0  0  0  0  0  0  0  0  0  0  0  0
   11.2917    6.0014   -4.7445 H   0  0  0  0  0  0  0  0  0  0  0  0
   11.4119   10.5119   -4.8995 N   0  0  0  0  0  0  0  0  0  0  0  0
   12.4724   11.4248   -5.1455 C   0  0  0  0  0  0  0  0  0  0  0  0
   13.7331   11.1728   -4.7462 N   0  0  0  0  0  0  0  0  0  0  0  0
   14.7172   12.0637   -4.9972 C   0  0  0  0  0  0  0  0  0  0  0  0
   15.7467   11.8523   -4.6681 H   0  0  0  0  0  0  0  0  0  0  0  0
   14.4721   13.2170   -5.6462 N   0  0  0  0  0  0  0  0  0  0  0  0
   13.2343   13.5263   -6.0703 C   0  0  0  0  0  0  0  0  0  0  0  0
   12.2424   12.6051   -5.8053 C   0  0  0  0  0  0  0  0  0  0  0  0
   10.9917   12.8982   -6.2240 F   0  0  0  0  0  0  0  0  0  0  0  0
   10.4540   10.7576   -5.2311 H   0  0  0  0  0  0  0  0  0  0  0  0
   13.0974   14.4640   -6.5847 H   0  0  0  0  0  0  0  0  0  0  0  0
  2  1  2  0
  3  2  1  0
  4  3  2  0
  4  5  1  0
  5  6  2  0
  6  1  1  0
  1  7  1  0
  2  8  1  0
  3  9  1  0
 10 11  1  0
 11 12  2  0
 12 13  1  0
 13 14  1  0
 13 15  2  0
 15 16  1  0
 16 17  2  0
 17 18  1  0
 17 11  1  0
 10 19  1  0
 16 20  1  0
  5 10  1  0
M  END
>  <Score>  (1) 
-7.36008

$$$$

     RDKit          3D

 32 34  0  0  0  0  0  0  0  0999 V2000
   12.3025    8.1235   -2.3015 C   0  0  0  0  0  0  0  0  0  0  0  0
   12.0214    6.8832   -2.9129 C   0  0  0  0  0  0  0  0  0  0  0  0
   11.5242    6.8983   -4.2256 C   0  0  0  0  0  0  0  0  0  0  0  0
   11.3423    8.1074   -4.8316 N   0  0  0  0  0  0  0  0  0  0  0  0
   11.6238    9.2773   -4.2117 C   0  0  0  0  0  0  0  0  0  0  0  0
   12.1008    9.2813   -2.9547 N   0  0  0  0  0  0  0  0  0  0  0  0
   12.6876    8.0835   -1.2823 H   0  0  0  0  0  0  0  0  0  0  0  0
   12.1911    5.9762   -2.3707 H   0  0  0  0  0  0  0  0  0  0  0  0
   11.3022    5.9656   -4.7132 H   0  0  0  0  0  0  0  0  0  0  0  0
   11.3862   10.5400   -4.9703 C   0  0  0  0  0  0  0  0  0  0  0  0
   10.8745   10.1343   -6.2775 N   0  0  0  0  0  0  0  0  0  0  0  0
   11.7046    9.8650   -7.4259 C   0  0  0  0  0  0  0  0  0  0  0  0
   10.7912    9.4912   -8.5247 C   0  0  0  0  0  0  0  0  0  0  0  0
   11.0208    9.1336   -9.8404 C   0  0  0  0  0  0  0  0  0  0  0  0
    9.9853    8.8205  -10.6955 C   0  0  0  0  0  0  0  0  0  0  0  0
    8.6784    8.8549  -10.2612 C   0  0  0  0  0  0  0  0  0  0  0  0
    7.6455    8.5413  -11.1192 O   0  0  0  0  0  0  0  0  0  0  0  0
    7.9494    8.1839  -12.4521 C   0  0  0  0  0  0  0  0  0  0  0  0
    8.4707    9.2151   -8.9416 C   0  0  0  0  0  0  0  0  0  0  0  0
    9.4931    9.5324   -8.0684 C   0  0  0  0  0  0  0  0  0  0  0  0
    9.5348    9.9349   -6.6592 C   0  0  0  0  0  0  0  0  0  0  0  0
    8.5155   10.0715   -5.9338 O   0  0  0  0  0  0  0  0  0  0  0  0
   10.6701   11.1777   -4.4294 H   0  0  0  0  0  0  0  0  0  0  0  0
   12.3460   11.0802   -5.0751 H   0  0  0  0  0  0  0  0  0  0  0  0
   12.3781    9.0020   -7.1442 H   0  0  0  0  0  0  0  0  0  0  0  0
   12.3061   10.7441   -7.7330 H   0  0  0  0  0  0  0  0  0  0  0  0
   12.0616    9.1123  -10.1650 H   0  0  0  0  0  0  0  0  0  0  0  0
   10.2349    8.5468  -11.7204 H   0  0  0  0  0  0  0  0  0  0  0  0
    8.6381    7.2922  -12.3750 H   0  0  0  0  0  0  0  0  0  0  0  0
    7.0472    7.9477  -13.0257 H   0  0  0  0  0  0  0  0  0  0  0  0
    8.5728    8.9809  -12.9423 H   0  0  0  0  0  0  0  0  0  0  0  0
    7.4682    9.2515   -8.5732 H   0  0  0  0  0  0  0  0  0  0  0  0
  2  1  2  0
  3  2  1  0
  4  3  2  0
  4  5  1  0
  5  6  2  0
  6  1  1  0
  1  7  1  0
  2  8  1  0
  3  9  1  0
 10 11  1  0
 11 12  1  0
 12 13  1  0
 13 14  2  0
 14 15  1  0
 15 16  2  0
 16 17  1  0
 17 18  1  0
 16 19  1  0
 19 20  2  0
 20 21  1  0
 21 22  2  0
 21 11  1  0
 20 13  1  0
 10 23  1  0
 10 24  1  0
 12 25  1  0
 12 26  1  0
 14 27  1  0
 15 28  1  0
 18 29  1  0
 18 30  1  0
 18 31  1  0
 19 32  1  0
  5 10  1  0
M  END
>  <Score>  (1) 
-8.20142

$$$$

     RDKit          3D

 24 26  0  0  0  0  0  0  0  0999 V2000
   12.3015    8.1224   -2.3040 C   0  0  0  0  0  0  0  0  0  0  0  0
   12.0217    6.8870   -2.9127 C   0  0  0  0  0  0  0  0  0  0  0  0
   11.5250    6.8954   -4.2231 C   0  0  0  0  0  0  0  0  0  0  0  0
   11.3418    8.1084   -4.8329 N   0  0  0  0  0  0  0  0  0  0  0  0
   11.6238    9.2797   -4.2121 C   0  0  0  0  0  0  0  0  0  0  0  0
   12.1013    9.2782   -2.9530 N   0  0  0  0  0  0  0  0  0  0  0  0
   12.6816    8.0499   -1.2949 H   0  0  0  0  0  0  0  0  0  0  0  0
   12.1810    5.9467   -2.3943 H   0  0  0  0  0  0  0  0  0  0  0  0
   11.2879    5.9925   -4.7525 H   0  0  0  0  0  0  0  0  0  0  0  0
   11.4029   10.5307   -4.9292 C   0  0  0  0  0  0  0  0  0  0  0  0
   11.0981   11.5564   -4.2424 O   0  0  0  0  0  0  0  0  0  0  0  0
   11.5186   10.6353   -6.3710 C   0  0  0  0  0  0  0  0  0  0  0  0
   12.3404   11.5270   -7.0458 C   0  0  0  0  0  0  0  0  0  0  0  0
   12.1485   11.2963   -8.3689 N   0  0  0  0  0  0  0  0  0  0  0  0
   12.6484   11.8335   -9.1173 H   0  0  0  0  0  0  0  0  0  0  0  0
   11.2455   10.3030   -8.5182 C   0  0  0  0  0  0  0  0  0  0  0  0
   10.7253    9.7155   -9.5930 N   0  0  0  0  0  0  0  0  0  0  0  0
    9.8147    8.7172   -9.5237 C   0  0  0  0  0  0  0  0  0  0  0  0
    9.4131    8.2950   -8.3000 N   0  0  0  0  0  0  0  0  0  0  0  0
    9.9026    8.8493   -7.1772 C   0  0  0  0  0  0  0  0  0  0  0  0
   10.8286    9.8642   -7.2777 C   0  0  0  0  0  0  0  0  0  0  0  0
   13.0100   12.2691   -6.5926 H   0  0  0  0  0  0  0  0  0  0  0  0
    9.4288    8.2799  -10.4457 H   0  0  0  0  0  0  0  0  0  0  0  0
    9.5573    8.4840   -6.2223 H   0  0  0  0  0  0  0  0  0  0  0  0
  2  1  2  0
  3  2  1  0
  4  3  2  0
  4  5  1  0
  5  6  2  0
  6  1  1  0
  1  7  1  0
  2  8  1  0
  3  9  1  0
 10 11  2  0
 10 12  1  0
 12 13  2  0
 13 14  1  0
 14 15  1  0
 14 16  1  0
 16 17  2  0
 17 18  1  0
 18 19  2  0
 19 20  1  0
 20 21  2  0
 21 12  1  0
 21 16  1  0
 13 22  1  0
 18 23  1  0
 20 24  1  0
  5 10  1  0
M  END
>  <Score>  (1) 
-7.35823

$$$$

     RDKit          3D

 22 23  0  0  0  0  0  0  0  0999 V2000
   12.3012    8.1260   -2.3052 C   0  0  0  0  0  0  0  0  0  0  0  0
   12.0208    6.8834   -2.9146 C   0  0  0  0  0  0  0  0  0  0  0  0
   11.5242    6.8950   -4.2250 C   0  0  0  0  0  0  0  0  0  0  0  0
   11.3479    8.1170   -4.8177 N   0  0  0  0  0  0  0  0  0  0  0  0
   11.6187    9.2749   -4.2250 C   0  0  0  0  0  0  0  0  0  0  0  0
   12.1021    9.2746   -2.9505 N   0  0  0  0  0  0  0  0  0  0  0  0
   12.6826    8.1321   -1.3004 H   0  0  0  0  0  0  0  0  0  0  0  0
   12.1838    5.9631   -2.3887 H   0  0  0  0  0  0  0  0  0  0  0  0
   11.2902    5.9742   -4.7457 H   0  0  0  0  0  0  0  0  0  0  0  0
   11.4289   10.5076   -4.8547 N   0  0  0  0  0  0  0  0  0  0  0  0
   12.3933   11.5037   -5.1427 C   0  0  0  0  0  0  0  0  0  0  0  0
   11.9942   12.7828   -5.5584 C   0  0  0  0  0  0  0  0  0  0  0  0
   12.9077   13.7544   -5.8536 C   0  0  0  0  0  0  0  0  0  0  0  0
   14.2630   13.5560   -5.7670 C   0  0  0  0  0  0  0  0  0  0  0  0
   14.6807   12.3144   -5.3630 C   0  0  0  0  0  0  0  0  0  0  0  0
   15.7417   12.1150   -5.2812 H   0  0  0  0  0  0  0  0  0  0  0  0
   13.7520   11.3113   -5.0584 C   0  0  0  0  0  0  0  0  0  0  0  0
   10.4307   10.7716   -5.1846 H   0  0  0  0  0  0  0  0  0  0  0  0
   10.9216   12.9462   -5.6274 H   0  0  0  0  0  0  0  0  0  0  0  0
   12.5729   14.7449   -6.1760 H   0  0  0  0  0  0  0  0  0  0  0  0
   14.9900   14.3243   -6.0000 H   0  0  0  0  0  0  0  0  0  0  0  0
   14.1489   10.3365   -4.7489 H   0  0  0  0  0  0  0  0  0  0  0  0
  2  1  2  0
  3  2  1  0
  4  3  2  0
  4  5  1  0
  5  6  2  0
  6  1  1  0
  1  7  1  0
  2  8  1  0
  3  9  1  0
 10 11  1  0
 11 12  2  0
 12 13  1  0
 13 14  2  0
 14 15  1  0
 15 16  1  0
 15 17  2  0
 17 11  1  0
 10 18  1  0
 12 19  1  0
 13 20  1  0
 14 21  1  0
 17 22  1  0
  5 10  1  0
M  END
>  <Score>  (1) 
-7.35265

$$$$

     RDKit          3D

 28 30  0  0  0  0  0  0  0  0999 V2000
   12.3027    8.1249   -2.3012 C   0  0  0  0  0  0  0  0  0  0  0  0
   12.0209    6.8821   -2.9142 C   0  0  0  0  0  0  0  0  0  0  0  0
   11.5248    6.8959   -4.2236 C   0  0  0  0  0  0  0  0  0  0  0  0
   11.3430    8.1128   -4.8303 N   0  0  0  0  0  0  0  0  0  0  0  0
   11.6229    9.2749   -4.2139 C   0  0  0  0  0  0  0  0  0  0  0  0
   12.1007    9.2803   -2.9547 N   0  0  0  0  0  0  0  0  0  0  0  0
   12.6856    8.0832   -1.2874 H   0  0  0  0  0  0  0  0  0  0  0  0
   12.1862    5.9649   -2.3824 H   0  0  0  0  0  0  0  0  0  0  0  0
   11.3031    5.9724   -4.7115 H   0  0  0  0  0  0  0  0  0  0  0  0
   11.3967   10.4747   -4.9358 N   0  0  0  0  0  0  0  0  0  0  0  0
   12.3637   11.1506   -5.7870 C   0  0  0  0  0  0  0  0  0  0  0  0
   11.5975   12.0499   -6.7010 C   0  0  1  0  0  0  0  0  0  0  0  0
   11.7989   11.6494   -8.1310 C   0  0  0  0  0  0  0  0  0  0  0  0
   10.5570   11.0533   -8.5906 N   0  0  0  0  0  0  0  0  0  0  0  0
    9.9195   11.8447   -8.8413 H   0  0  0  0  0  0  0  0  0  0  0  0
   10.0217   10.4754   -7.3621 C   0  0  0  0  0  0  0  0  0  0  0  0
   10.1477   11.6650   -6.4390 C   0  0  1  0  0  0  0  0  0  0  0  0
   10.1934   11.2741   -4.9891 C   0  0  0  0  0  0  0  0  0  0  0  0
   13.0873   11.6878   -5.1596 H   0  0  0  0  0  0  0  0  0  0  0  0
   12.8701   10.3501   -6.3770 H   0  0  0  0  0  0  0  0  0  0  0  0
   11.7731   13.1284   -6.5105 H   0  0  0  0  0  0  0  0  0  0  0  0
   12.5730   10.8383   -8.1876 H   0  0  0  0  0  0  0  0  0  0  0  0
   12.1307   12.4928   -8.7709 H   0  0  0  0  0  0  0  0  0  0  0  0
   10.7567    9.7195   -7.0285 H   0  0  0  0  0  0  0  0  0  0  0  0
    9.0008   10.1092   -7.4662 H   0  0  0  0  0  0  0  0  0  0  0  0
    9.4488   12.4698   -6.6642 H   0  0  0  0  0  0  0  0  0  0  0  0
   10.3706   12.1824   -4.3983 H   0  0  0  0  0  0  0  0  0  0  0  0
    9.2936   10.7132   -4.6660 H   0  0  0  0  0  0  0  0  0  0  0  0
  2  1  2  0
  3  2  1  0
  4  3  2  0
  4  5  1  0
  5  6  2  0
  6  1  1  0
  1  7  1  0
  2  8  1  0
  3  9  1  0
 10 11  1  0
 11 12  1  0
 12 13  1  0
 13 14  1  0
 14 15  1  0
 14 16  1  0
 16 17  1  0
 17 18  1  0
 18 10  1  0
 17 12  1  0
 11 19  1  0
 11 20  1  0
 12 21  1  6
 13 22  1  0
 13 23  1  0
 16 24  1  0
 16 25  1  0
 17 26  1  1
 18 27  1  0
 18 28  1  0
  5 10  1  0
M  END
>  <Score>  (1) 
-7.34592

$$$$

     RDKit          3D

 23 24  0  0  0  0  0  0  0  0999 V2000
   12.3026    8.1256   -2.3017 C   0  0  0  0  0  0  0  0  0  0  0  0
   12.0208    6.8822   -2.9145 C   0  0  0  0  0  0  0  0  0  0  0  0
   11.5248    6.8972   -4.2238 C   0  0  0  0  0  0  0  0  0  0  0  0
   11.3424    8.1099   -4.8315 N   0  0  0  0  0  0  0  0  0  0  0  0
   11.6230    9.2760   -4.2137 C   0  0  0  0  0  0  0  0  0  0  0  0
   12.1015    9.2802   -2.9527 N   0  0  0  0  0  0  0  0  0  0  0  0
   12.6859    8.0644   -1.2846 H   0  0  0  0  0  0  0  0  0  0  0  0
   12.1783    5.9619   -2.4030 H   0  0  0  0  0  0  0  0  0  0  0  0
   11.3046    5.9694   -4.7072 H   0  0  0  0  0  0  0  0  0  0  0  0
   11.3998   10.5545   -4.9360 C   0  0  0  0  0  0  0  0  0  0  0  0
   10.8788   10.2908   -6.2817 C   0  0  0  0  0  0  0  0  0  0  0  0
    9.5246   10.2034   -6.5344 C   0  0  0  0  0  0  0  0  0  0  0  0
    9.0526    9.9544   -7.8081 C   0  0  0  0  0  0  0  0  0  0  0  0
    9.9586    9.7898   -8.8498 C   0  0  0  0  0  0  0  0  0  0  0  0
   11.3181    9.8712   -8.6308 C   0  0  0  0  0  0  0  0  0  0  0  0
   12.2166    9.7117   -9.6431 F   0  0  0  0  0  0  0  0  0  0  0  0
   11.7518   10.1212   -7.3452 C   0  0  0  0  0  0  0  0  0  0  0  0
   12.3031   11.1962   -4.9296 H   0  0  0  0  0  0  0  0  0  0  0  0
   10.6130   11.1214   -4.3708 H   0  0  0  0  0  0  0  0  0  0  0  0
    8.8474   10.3373   -5.6966 H   0  0  0  0  0  0  0  0  0  0  0  0
    7.9761    9.8933   -7.9638 H   0  0  0  0  0  0  0  0  0  0  0  0
    9.5802    9.5930   -9.8557 H   0  0  0  0  0  0  0  0  0  0  0  0
   12.8311   10.1791   -7.2077 H   0  0  0  0  0  0  0  0  0  0  0  0
  2  1  2  0
  3  2  1  0
  4  3  2  0
  4  5  1  0
  5  6  2  0
  6  1  1  0
  1  7  1  0
  2  8  1  0
  3  9  1  0
 10 11  1  0
 11 12  2  0
 12 13  1  0
 13 14  2  0
 14 15  1  0
 15 16  1  0
 15 17  2  0
 17 11  1  0
 10 18  1  0
 10 19  1  0
 12 20  1  0
 13 21  1  0
 14 22  1  0
 17 23  1  0
  5 10  1  0
M  END
>  <Score>  (1) 
-7.34393

$$$$

     RDKit          3D

 24 25  0  0  0  0  0  0  0  0999 V2000
   12.3022    8.1254   -2.3028 C   0  0  0  0  0  0  0  0  0  0  0  0
   12.0206    6.8812   -2.9148 C   0  0  0  0  0  0  0  0  0  0  0  0
   11.5252    6.8987   -4.2231 C   0  0  0  0  0  0  0  0  0  0  0  0
   11.3426    8.1071   -4.8307 N   0  0  0  0  0  0  0  0  0  0  0  0
   11.6235    9.2790   -4.2126 C   0  0  0  0  0  0  0  0  0  0  0  0
   12.1009    9.2796   -2.9541 N   0  0  0  0  0  0  0  0  0  0  0  0
   12.6819    8.0612   -1.2937 H   0  0  0  0  0  0  0  0  0  0  0  0
   12.1900    5.9745   -2.3743 H   0  0  0  0  0  0  0  0  0  0  0  0
   11.3122    5.9633   -4.6865 H   0  0  0  0  0  0  0  0  0  0  0  0
   11.4133   10.4727   -4.8913 O   0  0  0  0  0  0  0  0  0  0  0  0
   11.1109   10.5750   -6.2269 C   0  0  0  0  0  0  0  0  0  0  0  0
   12.1349   10.6811   -7.1392 C   0  0  0  0  0  0  0  0  0  0  0  0
   11.8831   10.7861   -8.4916 C   0  0  0  0  0  0  0  0  0  0  0  0
   10.5766   10.7836   -8.9244 C   0  0  0  0  0  0  0  0  0  0  0  0
    9.5060   10.6787   -8.0407 C   0  0  0  0  0  0  0  0  0  0  0  0
    8.1053   10.6758   -8.5052 C   0  0  0  0  0  0  0  0  0  0  0  0
    9.8168   10.5760   -6.6976 C   0  0  0  0  0  0  0  0  0  0  0  0
   13.1666   10.6824   -6.7864 H   0  0  0  0  0  0  0  0  0  0  0  0
   12.7154   10.8672   -9.1801 H   0  0  0  0  0  0  0  0  0  0  0  0
   10.3687   10.8655   -9.9890 H   0  0  0  0  0  0  0  0  0  0  0  0
    7.4438   10.7973   -7.6329 H   0  0  0  0  0  0  0  0  0  0  0  0
    7.9316   11.5190   -9.2292 H   0  0  0  0  0  0  0  0  0  0  0  0
    7.8400    9.7134   -8.9813 H   0  0  0  0  0  0  0  0  0  0  0  0
    8.9583   10.4932   -6.0102 H   0  0  0  0  0  0  0  0  0  0  0  0
  2  1  2  0
  3  2  1  0
  4  3  2  0
  4  5  1  0
  5  6  2  0
  6  1  1  0
  1  7  1  0
  2  8  1  0
  3  9  1  0
 10 11  1  0
 11 12  2  0
 12 13  1  0
 13 14  2  0
 14 15  1  0
 15 16  1  0
 15 17  2  0
 17 11  1  0
 12 18  1  0
 13 19  1  0
 14 20  1  0
 16 21  1  0
 16 22  1  0
 16 23  1  0
 17 24  1  0
  5 10  1  0
M  END
>  <Score>  (1) 
-7.33875

$$$$

     RDKit          3D

 23 24  0  0  0  0  0  0  0  0999 V2000
   12.3027    8.1240   -2.3013 C   0  0  0  0  0  0  0  0  0  0  0  0
   12.0210    6.8825   -2.9139 C   0  0  0  0  0  0  0  0  0  0  0  0
   11.5244    6.8992   -4.2250 C   0  0  0  0  0  0  0  0  0  0  0  0
   11.3422    8.1060   -4.8317 N   0  0  0  0  0  0  0  0  0  0  0  0
   11.6240    9.2779   -4.2112 C   0  0  0  0  0  0  0  0  0  0  0  0
   12.1007    9.2814   -2.9549 N   0  0  0  0  0  0  0  0  0  0  0  0
   12.6882    8.1314   -1.2856 H   0  0  0  0  0  0  0  0  0  0  0  0
   12.1813    5.9540   -2.3942 H   0  0  0  0  0  0  0  0  0  0  0  0
   11.3010    5.9628   -4.7161 H   0  0  0  0  0  0  0  0  0  0  0  0
   11.4062   10.5538   -4.9190 C   0  0  0  0  0  0  0  0  0  0  0  0
   10.8779   10.3716   -6.2930 C   0  0  0  0  0  0  0  0  0  0  0  0
   11.7426   10.2428   -7.3529 C   0  0  0  0  0  0  0  0  0  0  0  0
   11.3363   10.0718   -8.6492 C   0  0  0  0  0  0  0  0  0  0  0  0
    9.9853   10.0248   -8.9165 C   0  0  0  0  0  0  0  0  0  0  0  0
    9.5391    9.8543  -10.2059 F   0  0  0  0  0  0  0  0  0  0  0  0
    9.0939   10.1517   -7.8690 C   0  0  0  0  0  0  0  0  0  0  0  0
    9.5288   10.3235   -6.5689 C   0  0  0  0  0  0  0  0  0  0  0  0
   12.3989   11.0590   -5.0082 H   0  0  0  0  0  0  0  0  0  0  0  0
   10.7550   11.2489   -4.3460 H   0  0  0  0  0  0  0  0  0  0  0  0
   12.8171   10.2787   -7.1529 H   0  0  0  0  0  0  0  0  0  0  0  0
   12.0342    9.9716   -9.4760 H   0  0  0  0  0  0  0  0  0  0  0  0
    8.0379   10.1112   -8.1067 H   0  0  0  0  0  0  0  0  0  0  0  0
    8.7856   10.4175   -5.7872 H   0  0  0  0  0  0  0  0  0  0  0  0
  2  1  2  0
  3  2  1  0
  4  3  2  0
  4  5  1  0
  5  6  2  0
  6  1  1  0
  1  7  1  0
  2  8  1  0
  3  9  1  0
 10 11  1  0
 11 12  2  0
 12 13  1  0
 13 14  2  0
 14 15  1  0
 14 16  1  0
 16 17  2  0
 17 11  1  0
 10 18  1  0
 10 19  1  0
 12 20  1  0
 13 21  1  0
 16 22  1  0
 17 23  1  0
  5 10  1  0
M  END
>  <Score>  (1) 
-7.33389

$$$$

     RDKit          3D

 20 21  0  0  0  0  0  0  0  0999 V2000
   12.3026    8.1222   -2.3014 C   0  0  0  0  0  0  0  0  0  0  0  0
   12.0207    6.8842   -2.9150 C   0  0  0  0  0  0  0  0  0  0  0  0
   11.5254    6.8967   -4.2221 C   0  0  0  0  0  0  0  0  0  0  0  0
   11.3428    8.1124   -4.8307 N   0  0  0  0  0  0  0  0  0  0  0  0
   11.6233    9.2743   -4.2127 C   0  0  0  0  0  0  0  0  0  0  0  0
   12.1003    9.2814   -2.9560 N   0  0  0  0  0  0  0  0  0  0  0  0
   12.6841    8.0702   -1.2901 H   0  0  0  0  0  0  0  0  0  0  0  0
   12.1857    5.9510   -2.3824 H   0  0  0  0  0  0  0  0  0  0  0  0
   11.2996    5.9702   -4.7206 H   0  0  0  0  0  0  0  0  0  0  0  0
   11.4200   10.5550   -4.8827 C   0  0  0  0  0  0  0  0  0  0  0  0
   11.1043   11.6922   -4.1675 C   0  0  0  0  0  0  0  0  0  0  0  0
   10.9081   12.9128   -4.7817 C   0  0  0  0  0  0  0  0  0  0  0  0
   11.0184   13.0578   -6.1488 C   0  0  0  0  0  0  0  0  0  0  0  0
   10.8245   14.2647   -6.7575 F   0  0  0  0  0  0  0  0  0  0  0  0
   11.3337   11.9234   -6.8664 C   0  0  0  0  0  0  0  0  0  0  0  0
   11.4222   12.0313   -7.9452 H   0  0  0  0  0  0  0  0  0  0  0  0
   11.5291   10.7053   -6.2486 C   0  0  0  0  0  0  0  0  0  0  0  0
   11.0078   11.6153   -3.0742 H   0  0  0  0  0  0  0  0  0  0  0  0
   10.6573   13.8001   -4.1797 H   0  0  0  0  0  0  0  0  0  0  0  0
   11.7770    9.8216   -6.8294 H   0  0  0  0  0  0  0  0  0  0  0  0
  2  1  2  0
  3  2  1  0
  4  3  2  0
  4  5  1  0
  5  6  2  0
  6  1  1  0
  1  7  1  0
  2  8  1  0
  3  9  1  0
 10 11  2  0
 11 12  1  0
 12 13  2  0
 13 14  1  0
 13 15  1  0
 15 16  1  0
 15 17  2  0
 17 10  1  0
 11 18  1  0
 12 19  1  0
 17 20  1  0
  5 10  1  0
M  END
>  <Score>  (1) 
-7.33239

$$$$

     RDKit          3D

 23 24  0  0  0  0  0  0  0  0999 V2000
   12.3024    8.1236   -2.3020 C   0  0  0  0  0  0  0  0  0  0  0  0
   12.0209    6.8841   -2.9144 C   0  0  0  0  0  0  0  0  0  0  0  0
   11.5249    6.8957   -4.2233 C   0  0  0  0  0  0  0  0  0  0  0  0
   11.3428    8.1125   -4.8308 N   0  0  0  0  0  0  0  0  0  0  0  0
   11.6223    9.2741   -4.2152 C   0  0  0  0  0  0  0  0  0  0  0  0
   12.1017    9.2809   -2.9523 N   0  0  0  0  0  0  0  0  0  0  0  0
   12.6898    8.0923   -1.2779 H   0  0  0  0  0  0  0  0  0  0  0  0
   12.1883    5.9620   -2.3763 H   0  0  0  0  0  0  0  0  0  0  0  0
   11.2946    5.9764   -4.7348 H   0  0  0  0  0  0  0  0  0  0  0  0
   13.4908   12.7075   -7.2596 H   0  0  0  0  0  0  0  0  0  0  0  0
   12.9672   11.8259   -6.8971 C   0  0  0  0  0  0  0  0  0  0  0  0
   13.6430   10.8419   -6.6371 O   0  0  0  0  0  0  0  0  0  0  0  0
   11.5045   11.8862   -6.7495 C   0  0  2  0  0  0  0  0  0  0  0  0
   11.2219   12.7680   -5.5246 C   0  0  0  0  0  0  0  0  0  0  0  0
   11.5932   11.8184   -4.4351 C   0  0  0  0  0  0  0  0  0  0  0  0
   12.0046   12.0906   -3.2812 O   0  0  0  0  0  0  0  0  0  0  0  0
   11.4058   10.4933   -4.9130 N   0  0  0  0  0  0  0  0  0  0  0  0
   10.9401   10.5696   -6.2791 C   0  0  0  0  0  0  0  0  0  0  0  0
   10.9830   12.2793   -7.6415 H   0  0  0  0  0  0  0  0  0  0  0  0
   10.1404   12.9475   -5.4865 H   0  0  0  0  0  0  0  0  0  0  0  0
   11.8375   13.6752   -5.5359 H   0  0  0  0  0  0  0  0  0  0  0  0
   11.2715    9.7074   -6.8899 H   0  0  0  0  0  0  0  0  0  0  0  0
    9.8322   10.6557   -6.2310 H   0  0  0  0  0  0  0  0  0  0  0  0
  2  1  2  0
  3  2  1  0
  4  3  2  0
  4  5  1  0
  5  6  2  0
  6  1  1  0
  1  7  1  0
  2  8  1  0
  3  9  1  0
 10 11  1  0
 11 12  2  0
 11 13  1  0
 13 14  1  0
 14 15  1  0
 15 16  2  0
 15 17  1  0
 17 18  1  0
 18 13  1  0
 13 19  1  6
 14 20  1  0
 14 21  1  0
 18 22  1  0
 18 23  1  0
  5 17  1  0
M  END
>  <Score>  (1) 
-7.3322

$$$$

     RDKit          3D

 26 27  0  0  0  0  0  0  0  0999 V2000
   12.3026    8.1199   -2.3011 C   0  0  0  0  0  0  0  0  0  0  0  0
   12.0208    6.8854   -2.9148 C   0  0  0  0  0  0  0  0  0  0  0  0
   11.5255    6.8955   -4.2218 C   0  0  0  0  0  0  0  0  0  0  0  0
   11.3420    8.1105   -4.8325 N   0  0  0  0  0  0  0  0  0  0  0  0
   11.6238    9.2765   -4.2116 C   0  0  0  0  0  0  0  0  0  0  0  0
   12.1003    9.2832   -2.9561 N   0  0  0  0  0  0  0  0  0  0  0  0
   12.6811    8.0577   -1.2967 H   0  0  0  0  0  0  0  0  0  0  0  0
   12.1652    5.9495   -2.4361 H   0  0  0  0  0  0  0  0  0  0  0  0
   11.2892    5.9897   -4.7499 H   0  0  0  0  0  0  0  0  0  0  0  0
   11.4047   10.4867   -4.9160 N   0  0  0  0  0  0  0  0  0  0  0  0
   10.2187   10.7321   -5.6697 C   0  0  0  0  0  0  0  0  0  0  0  0
   10.4223   11.3621   -6.9957 C   0  0  0  0  0  0  0  0  0  0  0  0
   11.6518   12.1734   -7.1568 C   0  0  0  0  0  0  0  0  0  0  0  0
   11.4254   13.5573   -6.9823 O   0  0  0  0  0  0  0  0  0  0  0  0
   12.8018   11.7944   -6.3081 C   0  0  0  0  0  0  0  0  0  0  0  0
   12.4190   11.5406   -4.8846 C   0  0  0  0  0  0  0  0  0  0  0  0
    9.7015    9.7579   -5.8164 H   0  0  0  0  0  0  0  0  0  0  0  0
    9.5262   11.3288   -5.0076 H   0  0  0  0  0  0  0  0  0  0  0  0
   10.3345   10.5887   -7.8145 H   0  0  0  0  0  0  0  0  0  0  0  0
    9.5417   12.0423   -7.1858 H   0  0  0  0  0  0  0  0  0  0  0  0
   11.9785   12.0834   -8.2348 H   0  0  0  0  0  0  0  0  0  0  0  0
   11.9747   14.0895   -7.6209 H   0  0  0  0  0  0  0  0  0  0  0  0
   13.3699   10.9069   -6.6657 H   0  0  0  0  0  0  0  0  0  0  0  0
   13.5444   12.6425   -6.3352 H   0  0  0  0  0  0  0  0  0  0  0  0
   13.2752   11.2828   -4.2594 H   0  0  0  0  0  0  0  0  0  0  0  0
   11.8955   12.4461   -4.4936 H   0  0  0  0  0  0  0  0  0  0  0  0
  2  1  2  0
  3  2  1  0
  4  3  2  0
  4  5  1  0
  5  6  2  0
  6  1  1  0
  1  7  1  0
  2  8  1  0
  3  9  1  0
 10 11  1  0
 11 12  1  0
 12 13  1  0
 13 14  1  0
 13 15  1  0
 15 16  1  0
 16 10  1  0
 11 17  1  0
 11 18  1  0
 12 19  1  0
 12 20  1  0
 13 21  1  0
 14 22  1  0
 15 23  1  0
 15 24  1  0
 16 25  1  0
 16 26  1  0
  5 10  1  0
M  END
>  <Score>  (1) 
-7.33004

$$$$

     RDKit          3D

 32 34  0  0  0  0  0  0  0  0999 V2000
   12.3029    8.1213   -2.3004 C   0  0  0  0  0  0  0  0  0  0  0  0
   12.0212    6.8831   -2.9135 C   0  0  0  0  0  0  0  0  0  0  0  0
   11.5245    6.8985   -4.2247 C   0  0  0  0  0  0  0  0  0  0  0  0
   11.3422    8.1079   -4.8320 N   0  0  0  0  0  0  0  0  0  0  0  0
   11.6248    9.2763   -4.2090 C   0  0  0  0  0  0  0  0  0  0  0  0
   12.0995    9.2839   -2.9584 N   0  0  0  0  0  0  0  0  0  0  0  0
   12.6854    8.0775   -1.2874 H   0  0  0  0  0  0  0  0  0  0  0  0
   12.1904    5.9720   -2.3721 H   0  0  0  0  0  0  0  0  0  0  0  0
   11.3027    5.9674   -4.7121 H   0  0  0  0  0  0  0  0  0  0  0  0
   11.4016   10.5524   -4.9310 C   0  0  2  0  0  0  0  0  0  0  0  0
    9.9303   10.8653   -4.9133 C   0  0  0  0  0  0  0  0  0  0  0  0
    9.5379   10.4981   -3.9310 H   0  0  0  0  0  0  0  0  0  0  0  0
    9.1582   10.1342   -5.9831 C   0  0  0  0  0  0  0  0  0  0  0  0
    9.8793   10.1489   -7.3114 C   0  0  1  0  0  0  0  0  0  0  0  0
   10.1693   11.5756   -7.6641 C   0  0  0  0  0  0  0  0  0  0  0  0
   11.4882   11.8365   -6.9916 C   0  0  0  0  0  0  0  0  0  0  0  0
   11.8933   10.5210   -6.3481 C   0  0  2  0  0  0  0  0  0  0  0  0
   11.1889    9.5534   -7.1566 N   0  0  0  0  0  0  0  0  0  0  0  0
   11.8123    9.5380   -8.4663 C   0  0  0  0  0  0  0  0  0  0  0  0
   11.9221   11.3739   -4.4051 H   0  0  0  0  0  0  0  0  0  0  0  0
    9.7416   11.9545   -4.9244 H   0  0  0  0  0  0  0  0  0  0  0  0
    8.9522    9.0791   -5.6539 H   0  0  0  0  0  0  0  0  0  0  0  0
    8.1953   10.6589   -6.1079 H   0  0  0  0  0  0  0  0  0  0  0  0
    9.2459    9.6541   -8.0471 H   0  0  0  0  0  0  0  0  0  0  0  0
    9.3464   12.2002   -7.2338 H   0  0  0  0  0  0  0  0  0  0  0  0
   10.1870   11.7738   -8.7408 H   0  0  0  0  0  0  0  0  0  0  0  0
   11.3182   12.6294   -6.2256 H   0  0  0  0  0  0  0  0  0  0  0  0
   12.2465   12.1846   -7.7282 H   0  0  0  0  0  0  0  0  0  0  0  0
   12.9654   10.3675   -6.4470 H   0  0  0  0  0  0  0  0  0  0  0  0
   12.8582    9.1527   -8.3579 H   0  0  0  0  0  0  0  0  0  0  0  0
   11.2911    8.8495   -9.1740 H   0  0  0  0  0  0  0  0  0  0  0  0
   11.8875   10.5482   -8.9080 H   0  0  0  0  0  0  0  0  0  0  0  0
  2  1  2  0
  3  2  1  0
  4  3  2  0
  4  5  1  0
  5  6  2  0
  6  1  1  0
  1  7  1  0
  2  8  1  0
  3  9  1  0
 10 11  1  0
 11 12  1  0
 11 13  1  0
 13 14  1  0
 14 15  1  0
 15 16  1  0
 16 17  1  0
 17 18  1  0
 18 19  1  0
 17 10  1  0
 18 14  1  0
 10 20  1  1
 11 21  1  0
 13 22  1  0
 13 23  1  0
 14 24  1  6
 15 25  1  0
 15 26  1  0
 16 27  1  0
 16 28  1  0
 17 29  1  1
 19 30  1  0
 19 31  1  0
 19 32  1  0
  5 10  1  0
M  END
>  <Score>  (1) 
-7.32577

$$$$

     RDKit          3D

 26 28  0  0  0  0  0  0  0  0999 V2000
   12.3028    8.1265   -2.3013 C   0  0  0  0  0  0  0  0  0  0  0  0
   12.0212    6.8818   -2.9134 C   0  0  0  0  0  0  0  0  0  0  0  0
   11.5240    6.8984   -4.2260 C   0  0  0  0  0  0  0  0  0  0  0  0
   11.3436    8.1098   -4.8284 N   0  0  0  0  0  0  0  0  0  0  0  0
   11.6223    9.2765   -4.2156 C   0  0  0  0  0  0  0  0  0  0  0  0
   12.1011    9.2779   -2.9533 N   0  0  0  0  0  0  0  0  0  0  0  0
   12.6801    8.0498   -1.2985 H   0  0  0  0  0  0  0  0  0  0  0  0
   12.1855    5.9561   -2.3834 H   0  0  0  0  0  0  0  0  0  0  0  0
   11.2990    5.9740   -4.7225 H   0  0  0  0  0  0  0  0  0  0  0  0
   11.4018   10.4995   -4.9251 N   0  0  0  0  0  0  0  0  0  0  0  0
   11.8703   11.8291   -4.6362 C   0  0  0  0  0  0  0  0  0  0  0  0
   12.1158   12.4203   -5.9612 C   0  0  0  0  0  0  0  0  0  0  0  0
   12.8960   13.4692   -6.4405 C   0  0  0  0  0  0  0  0  0  0  0  0
   12.9126   13.7938   -7.7717 C   0  0  0  0  0  0  0  0  0  0  0  0
   12.1545   13.0859   -8.6668 C   0  0  0  0  0  0  0  0  0  0  0  0
   11.3793   12.0469   -8.2050 C   0  0  0  0  0  0  0  0  0  0  0  0
   11.3592   11.7172   -6.8699 C   0  0  0  0  0  0  0  0  0  0  0  0
   10.6086   10.6415   -6.1565 C   0  0  0  0  0  0  0  0  0  0  0  0
   11.0377   12.3464   -4.0891 H   0  0  0  0  0  0  0  0  0  0  0  0
   12.7718   11.8340   -3.9869 H   0  0  0  0  0  0  0  0  0  0  0  0
   13.4796   14.0040   -5.7075 H   0  0  0  0  0  0  0  0  0  0  0  0
   13.5274   14.6145   -8.1241 H   0  0  0  0  0  0  0  0  0  0  0  0
   12.1604   13.3395   -9.7441 H   0  0  0  0  0  0  0  0  0  0  0  0
   10.7771   11.4888   -8.9344 H   0  0  0  0  0  0  0  0  0  0  0  0
   10.6794    9.7175   -6.7649 H   0  0  0  0  0  0  0  0  0  0  0  0
    9.5701   10.9389   -5.9401 H   0  0  0  0  0  0  0  0  0  0  0  0
  2  1  2  0
  3  2  1  0
  4  3  2  0
  4  5  1  0
  5  6  2  0
  6  1  1  0
  1  7  1  0
  2  8  1  0
  3  9  1  0
 10 11  1  0
 11 12  1  0
 12 13  2  0
 13 14  1  0
 14 15  2  0
 15 16  1  0
 16 17  2  0
 17 18  1  0
 18 10  1  0
 17 12  1  0
 11 19  1  0
 11 20  1  0
 13 21  1  0
 14 22  1  0
 15 23  1  0
 16 24  1  0
 18 25  1  0
 18 26  1  0
  5 10  1  0
M  END
>  <Score>  (1) 
-8.19844

$$$$

     RDKit          3D

 22 23  0  0  0  0  0  0  0  0999 V2000
   12.3028    8.1230   -2.3009 C   0  0  0  0  0  0  0  0  0  0  0  0
   12.0211    6.8829   -2.9139 C   0  0  0  0  0  0  0  0  0  0  0  0
   11.5243    6.9003   -4.2254 C   0  0  0  0  0  0  0  0  0  0  0  0
   11.3426    8.1050   -4.8305 N   0  0  0  0  0  0  0  0  0  0  0  0
   11.6239    9.2787   -4.2117 C   0  0  0  0  0  0  0  0  0  0  0  0
   12.1004    9.2811   -2.9556 N   0  0  0  0  0  0  0  0  0  0  0  0
   12.6831    8.0693   -1.2925 H   0  0  0  0  0  0  0  0  0  0  0  0
   12.1742    5.9524   -2.4128 H   0  0  0  0  0  0  0  0  0  0  0  0
   11.2825    6.0164   -4.7704 H   0  0  0  0  0  0  0  0  0  0  0  0
   11.4048   10.5295   -4.9201 C   0  0  0  0  0  0  0  0  0  0  0  0
   10.8107   11.5546   -4.3261 N   0  0  0  0  0  0  0  0  0  0  0  0
   10.5893   12.7420   -4.9606 C   0  0  0  0  0  0  0  0  0  0  0  0
    9.9155   13.8645   -4.2440 C   0  0  0  0  0  0  0  0  0  0  0  0
   11.0026   12.8296   -6.2250 N   0  0  0  0  0  0  0  0  0  0  0  0
   11.6091   11.8194   -6.8700 C   0  0  0  0  0  0  0  0  0  0  0  0
   12.0166   11.9887   -8.2053 N   0  0  0  0  0  0  0  0  0  0  0  0
   11.8008   10.6693   -6.1909 N   0  0  0  0  0  0  0  0  0  0  0  0
   10.6968   14.4194   -3.6746 H   0  0  0  0  0  0  0  0  0  0  0  0
    9.4842   14.5571   -5.0207 H   0  0  0  0  0  0  0  0  0  0  0  0
    9.1217   13.4835   -3.5763 H   0  0  0  0  0  0  0  0  0  0  0  0
   12.7166   11.3690   -8.6845 H   0  0  0  0  0  0  0  0  0  0  0  0
   11.6268   12.7568   -8.7805 H   0  0  0  0  0  0  0  0  0  0  0  0
  2  1  2  0
  3  2  1  0
  4  3  2  0
  4  5  1  0
  5  6  2  0
  6  1  1  0
  1  7  1  0
  2  8  1  0
  3  9  1  0
 10 11  2  0
 11 12  1  0
 12 13  1  0
 12 14  2  0
 14 15  1  0
 15 16  1  0
 15 17  2  0
 17 10  1  0
 13 18  1  0
 13 19  1  0
 13 20  1  0
 16 21  1  0
 16 22  1  0
  5 10  1  0
M  END
>  <Score>  (1) 
-7.32547

$$$$

     RDKit          3D

 27 29  0  0  0  0  0  0  0  0999 V2000
   12.3024    8.1208   -2.3017 C   0  0  0  0  0  0  0  0  0  0  0  0
   12.0228    6.8845   -2.9095 C   0  0  0  0  0  0  0  0  0  0  0  0
   11.5231    6.8987   -4.2283 C   0  0  0  0  0  0  0  0  0  0  0  0
   11.3430    8.1073   -4.8296 N   0  0  0  0  0  0  0  0  0  0  0  0
   11.6246    9.2786   -4.2097 C   0  0  0  0  0  0  0  0  0  0  0  0
   12.0991    9.2811   -2.9591 N   0  0  0  0  0  0  0  0  0  0  0  0
   12.6845    8.0908   -1.2911 H   0  0  0  0  0  0  0  0  0  0  0  0
   12.1835    5.9593   -2.3890 H   0  0  0  0  0  0  0  0  0  0  0  0
   11.3040    5.9714   -4.7091 H   0  0  0  0  0  0  0  0  0  0  0  0
   11.3999   10.5262   -4.9328 C   0  0  0  0  0  0  0  0  0  0  0  0
   10.1404   10.8550   -5.3860 C   0  0  0  0  0  0  0  0  0  0  0  0
    9.8915   12.0221   -6.0708 C   0  0  0  0  0  0  0  0  0  0  0  0
   10.9261   12.9224   -6.3307 C   0  0  0  0  0  0  0  0  0  0  0  0
   12.1719   12.6030   -5.8855 C   0  0  0  0  0  0  0  0  0  0  0  0
   12.4089   11.4174   -5.1933 C   0  0  0  0  0  0  0  0  0  0  0  0
   13.7824   11.1295   -4.7373 C   0  0  0  0  0  0  0  0  0  0  0  0
   13.0990   13.6842   -6.2668 C   0  0  0  0  0  0  0  0  0  0  0  0
   12.3088   14.6215   -6.9457 O   0  0  0  0  0  0  0  0  0  0  0  0
   10.9900   14.2018   -7.0076 C   0  0  0  0  0  0  0  0  0  0  0  0
   10.0074   14.8126   -7.5525 O   0  0  0  0  0  0  0  0  0  0  0  0
    9.3371   10.1425   -5.1769 H   0  0  0  0  0  0  0  0  0  0  0  0
    8.9082   12.2791   -6.4248 H   0  0  0  0  0  0  0  0  0  0  0  0
   14.4772   11.9643   -5.0283 H   0  0  0  0  0  0  0  0  0  0  0  0
   13.8430   11.0982   -3.6238 H   0  0  0  0  0  0  0  0  0  0  0  0
   14.2239   10.2249   -5.2158 H   0  0  0  0  0  0  0  0  0  0  0  0
   13.8689   13.2260   -6.9465 H   0  0  0  0  0  0  0  0  0  0  0  0
   13.5961   14.1123   -5.3695 H   0  0  0  0  0  0  0  0  0  0  0  0
  2  1  2  0
  3  2  1  0
  4  3  2  0
  4  5  1  0
  5  6  2  0
  6  1  1  0
  1  7  1  0
  2  8  1  0
  3  9  1  0
 10 11  2  0
 11 12  1  0
 12 13  2  0
 13 14  1  0
 14 15  2  0
 15 16  1  0
 14 17  1  0
 17 18  1  0
 18 19  1  0
 19 20  2  0
 15 10  1  0
 19 13  1  0
 11 21  1  0
 12 22  1  0
 16 23  1  0
 16 24  1  0
 16 25  1  0
 17 26  1  0
 17 27  1  0
  5 10  1  0
M  END
>  <Score>  (1) 
-7.31724

$$$$

     RDKit          3D

 25 27  0  0  0  0  0  0  0  0999 V2000
   12.3030    8.1250   -2.3005 C   0  0  0  0  0  0  0  0  0  0  0  0
   12.0211    6.8814   -2.9135 C   0  0  0  0  0  0  0  0  0  0  0  0
   11.5243    6.8968   -4.2251 C   0  0  0  0  0  0  0  0  0  0  0  0
   11.3441    8.1118   -4.8272 N   0  0  0  0  0  0  0  0  0  0  0  0
   11.6231    9.2777   -4.2135 C   0  0  0  0  0  0  0  0  0  0  0  0
   12.0993    9.2782   -2.9582 N   0  0  0  0  0  0  0  0  0  0  0  0
   12.6864    8.1146   -1.2886 H   0  0  0  0  0  0  0  0  0  0  0  0
   12.1884    5.9743   -2.3777 H   0  0  0  0  0  0  0  0  0  0  0  0
   11.3008    5.9694   -4.7174 H   0  0  0  0  0  0  0  0  0  0  0  0
   11.4141   10.4924   -4.8917 N   0  0  0  0  0  0  0  0  0  0  0  0
   11.6722   11.8094   -4.3491 C   0  0  0  0  0  0  0  0  0  0  0  0
   11.2140   12.7051   -5.4868 C   0  0  1  0  0  0  0  0  0  0  0  0
   11.7111   11.8600   -6.6754 C   0  0  0  0  0  0  0  0  0  0  0  0
   10.9082   10.6163   -6.2385 C   0  0  2  0  0  0  0  0  0  0  0  0
    9.5384   11.2492   -6.2240 C   0  0  0  0  0  0  0  0  0  0  0  0
    9.7973   12.5561   -5.6136 N   0  0  0  0  0  0  0  0  0  0  0  0
    9.3568   12.4986   -4.6560 H   0  0  0  0  0  0  0  0  0  0  0  0
   11.1351   12.0277   -3.4284 H   0  0  0  0  0  0  0  0  0  0  0  0
   12.7791   11.9923   -4.2542 H   0  0  0  0  0  0  0  0  0  0  0  0
   11.6011   13.6999   -5.4781 H   0  0  0  0  0  0  0  0  0  0  0  0
   11.3611   12.2521   -7.6280 H   0  0  0  0  0  0  0  0  0  0  0  0
   12.7780   11.6548   -6.6040 H   0  0  0  0  0  0  0  0  0  0  0  0
   11.0375    9.7745   -6.8800 H   0  0  0  0  0  0  0  0  0  0  0  0
    9.2695   11.4673   -7.2839 H   0  0  0  0  0  0  0  0  0  0  0  0
    8.7892   10.6704   -5.6902 H   0  0  0  0  0  0  0  0  0  0  0  0
  2  1  2  0
  3  2  1  0
  4  3  2  0
  4  5  1  0
  5  6  2  0
  6  1  1  0
  1  7  1  0
  2  8  1  0
  3  9  1  0
 10 11  1  0
 11 12  1  0
 12 13  1  0
 13 14  1  0
 14 15  1  0
 15 16  1  0
 16 17  1  0
 14 10  1  0
 16 12  1  0
 11 18  1  0
 11 19  1  0
 12 20  1  1
 13 21  1  0
 13 22  1  0
 14 23  1  6
 15 24  1  0
 15 25  1  0
  5 10  1  0
M  END
>  <Score>  (1) 
-7.31614

$$$$

     RDKit          3D

 27 29  0  0  0  0  0  0  0  0999 V2000
   12.3027    8.1198   -2.3007 C   0  0  0  0  0  0  0  0  0  0  0  0
   12.0219    6.8843   -2.9117 C   0  0  0  0  0  0  0  0  0  0  0  0
   11.5239    6.8990   -4.2263 C   0  0  0  0  0  0  0  0  0  0  0  0
   11.3420    8.1063   -4.8322 N   0  0  0  0  0  0  0  0  0  0  0  0
   11.6253    9.2775   -4.2078 C   0  0  0  0  0  0  0  0  0  0  0  0
   12.0991    9.2841   -2.9593 N   0  0  0  0  0  0  0  0  0  0  0  0
   12.6834    8.0905   -1.2938 H   0  0  0  0  0  0  0  0  0  0  0  0
   12.1872    5.9661   -2.3799 H   0  0  0  0  0  0  0  0  0  0  0  0
   11.3007    5.9700   -4.7176 H   0  0  0  0  0  0  0  0  0  0  0  0
   11.4020   10.4843   -4.9227 N   0  0  0  0  0  0  0  0  0  0  0  0
   11.3609   11.7742   -4.2812 C   0  0  0  0  0  0  0  0  0  0  0  0
   10.5718   12.7293   -5.1246 C   0  0  1  0  0  0  0  0  0  0  0  0
   11.3781   13.3129   -6.2612 C   0  0  0  0  0  0  0  0  0  0  0  0
   10.8313   12.5798   -7.4688 C   0  0  0  0  0  0  0  0  0  0  0  0
   10.1390   11.4010   -6.8148 C   0  0  1  0  0  0  0  0  0  0  0  0
   11.2075   10.4192   -6.3547 C   0  0  0  0  0  0  0  0  0  0  0  0
    9.5302   12.0096   -5.7204 O   0  0  0  0  0  0  0  0  0  0  0  0
   10.8134   11.6589   -3.3094 H   0  0  0  0  0  0  0  0  0  0  0  0
   12.3694   12.1516   -4.0191 H   0  0  0  0  0  0  0  0  0  0  0  0
   10.1699   13.5572   -4.5071 H   0  0  0  0  0  0  0  0  0  0  0  0
   11.1075   14.3825   -6.3864 H   0  0  0  0  0  0  0  0  0  0  0  0
   12.4534   13.1642   -6.1654 H   0  0  0  0  0  0  0  0  0  0  0  0
   10.0963   13.2016   -8.0198 H   0  0  0  0  0  0  0  0  0  0  0  0
   11.6549   12.2397   -8.1423 H   0  0  0  0  0  0  0  0  0  0  0  0
    9.3919   10.9328   -7.4755 H   0  0  0  0  0  0  0  0  0  0  0  0
   12.1870   10.6355   -6.8434 H   0  0  0  0  0  0  0  0  0  0  0  0
   10.9278    9.3957   -6.6961 H   0  0  0  0  0  0  0  0  0  0  0  0
  2  1  2  0
  3  2  1  0
  4  3  2  0
  4  5  1  0
  5  6  2  0
  6  1  1  0
  1  7  1  0
  2  8  1  0
  3  9  1  0
 10 11  1  0
 11 12  1  0
 12 13  1  0
 13 14  1  0
 14 15  1  0
 15 16  1  0
 15 17  1  0
 16 10  1  0
 17 12  1  0
 11 18  1  0
 11 19  1  0
 12 20  1  1
 13 21  1  0
 13 22  1  0
 14 23  1  0
 14 24  1  0
 15 25  1  6
 16 26  1  0
 16 27  1  0
  5 10  1  0
M  END
>  <Score>  (1) 
-7.31524

$$$$

     RDKit          3D

 24 25  0  0  0  0  0  0  0  0999 V2000
   12.3019    8.1236   -2.3032 C   0  0  0  0  0  0  0  0  0  0  0  0
   12.0189    6.8839   -2.9198 C   0  0  0  0  0  0  0  0  0  0  0  0
   11.5273    6.9073   -4.2181 C   0  0  0  0  0  0  0  0  0  0  0  0
   11.3469    8.1106   -4.8197 N   0  0  0  0  0  0  0  0  0  0  0  0
   11.6184    9.2739   -4.2256 C   0  0  0  0  0  0  0  0  0  0  0  0
   12.1016    9.2716   -2.9515 N   0  0  0  0  0  0  0  0  0  0  0  0
   12.6854    8.0649   -1.2860 H   0  0  0  0  0  0  0  0  0  0  0  0
   12.1792    5.9613   -2.4007 H   0  0  0  0  0  0  0  0  0  0  0  0
   11.3080    5.9847   -4.6999 H   0  0  0  0  0  0  0  0  0  0  0  0
   11.4403   10.5365   -4.8272 N   0  0  0  0  0  0  0  0  0  0  0  0
   11.2423   10.8094   -6.1992 C   0  0  0  0  0  0  0  0  0  0  0  0
   11.1888    9.8681   -7.2019 C   0  0  0  0  0  0  0  0  0  0  0  0
   10.9920   10.1743   -8.5431 C   0  0  0  0  0  0  0  0  0  0  0  0
   10.8380   11.4967   -8.9187 C   0  0  0  0  0  0  0  0  0  0  0  0
   10.8844   12.4675   -7.9534 C   0  0  0  0  0  0  0  0  0  0  0  0
   10.7295   13.8542   -8.2960 N   0  0  0  0  0  0  0  0  0  0  0  0
    9.9606   14.1956   -8.9010 H   0  0  0  0  0  0  0  0  0  0  0  0
   11.0794   12.1273   -6.6470 C   0  0  0  0  0  0  0  0  0  0  0  0
   11.4496   11.4166   -4.2070 H   0  0  0  0  0  0  0  0  0  0  0  0
   11.2993    8.8219   -6.9925 H   0  0  0  0  0  0  0  0  0  0  0  0
   10.9564    9.4081   -9.2972 H   0  0  0  0  0  0  0  0  0  0  0  0
   10.6828   11.8015   -9.9379 H   0  0  0  0  0  0  0  0  0  0  0  0
   11.4087   14.5470   -7.9283 H   0  0  0  0  0  0  0  0  0  0  0  0
   11.1117   12.9207   -5.9016 H   0  0  0  0  0  0  0  0  0  0  0  0
  2  1  2  0
  3  2  1  0
  4  3  2  0
  4  5  1  0
  5  6  2  0
  6  1  1  0
  1  7  1  0
  2  8  1  0
  3  9  1  0
 10 11  1  0
 11 12  2  0
 12 13  1  0
 13 14  2  0
 14 15  1  0
 15 16  1  0
 16 17  1  0
 15 18  2  0
 18 11  1  0
 10 19  1  0
 12 20  1  0
 13 21  1  0
 14 22  1  0
 16 23  1  0
 18 24  1  0
  5 10  1  0
M  END
>  <Score>  (1) 
-7.31251

$$$$

     RDKit          3D

 26 27  0  0  0  0  0  0  0  0999 V2000
   12.3027    8.1269   -2.3015 C   0  0  0  0  0  0  0  0  0  0  0  0
   12.0203    6.8813   -2.9157 C   0  0  0  0  0  0  0  0  0  0  0  0
   11.5253    6.8957   -4.2224 C   0  0  0  0  0  0  0  0  0  0  0  0
   11.3428    8.1130   -4.8308 N   0  0  0  0  0  0  0  0  0  0  0  0
   11.6223    9.2747   -4.2153 C   0  0  0  0  0  0  0  0  0  0  0  0
   12.1016    9.2794   -2.9523 N   0  0  0  0  0  0  0  0  0  0  0  0
   12.6874    8.0970   -1.2841 H   0  0  0  0  0  0  0  0  0  0  0  0
   12.1754    5.9627   -2.4109 H   0  0  0  0  0  0  0  0  0  0  0  0
   11.2932    5.9707   -4.7375 H   0  0  0  0  0  0  0  0  0  0  0  0
   10.4552   13.9086   -8.1639 H   0  0  0  0  0  0  0  0  0  0  0  0
   11.1239   13.9066   -7.3060 C   0  0  0  0  0  0  0  0  0  0  0  0
   11.8755   14.8912   -7.1645 O   0  0  0  0  0  0  0  0  0  0  0  0
   11.1040   12.8078   -6.4156 N   0  0  0  0  0  0  0  0  0  0  0  0
   11.9996   12.8277   -5.2855 C   0  0  0  0  0  0  0  0  0  0  0  0
   12.5307   11.4122   -5.1170 C   0  0  0  0  0  0  0  0  0  0  0  0
   11.4134   10.5176   -4.8963 N   0  0  0  0  0  0  0  0  0  0  0  0
   10.0810   10.8600   -5.3548 C   0  0  0  0  0  0  0  0  0  0  0  0
   10.2282   11.6992   -6.6129 C   0  0  0  0  0  0  0  0  0  0  0  0
   11.3612   13.0180   -4.3806 H   0  0  0  0  0  0  0  0  0  0  0  0
   12.8100   13.5578   -5.3821 H   0  0  0  0  0  0  0  0  0  0  0  0
   13.0449   11.0641   -6.0508 H   0  0  0  0  0  0  0  0  0  0  0  0
   13.2799   11.3592   -4.3003 H   0  0  0  0  0  0  0  0  0  0  0  0
    9.5445   11.4867   -4.5938 H   0  0  0  0  0  0  0  0  0  0  0  0
    9.5111    9.9531   -5.5554 H   0  0  0  0  0  0  0  0  0  0  0  0
    9.2220   12.0728   -6.8886 H   0  0  0  0  0  0  0  0  0  0  0  0
   10.5998   10.9842   -7.4030 H   0  0  0  0  0  0  0  0  0  0  0  0
  2  1  2  0
  3  2  1  0
  4  3  2  0
  4  5  1  0
  5  6  2  0
  6  1  1  0
  1  7  1  0
  2  8  1  0
  3  9  1  0
 10 11  1  0
 11 12  2  0
 11 13  1  0
 13 14  1  0
 14 15  1  0
 15 16  1  0
 16 17  1  0
 17 18  1  0
 18 13  1  0
 14 19  1  0
 14 20  1  0
 15 21  1  0
 15 22  1  0
 17 23  1  0
 17 24  1  0
 18 25  1  0
 18 26  1  0
  5 16  1  0
M  END
>  <Score>  (1) 
-7.3106

$$$$

     RDKit          3D

 29 30  0  0  0  0  0  0  0  0999 V2000
   12.3025    8.1211   -2.3015 C   0  0  0  0  0  0  0  0  0  0  0  0
   12.0218    6.8845   -2.9120 C   0  0  0  0  0  0  0  0  0  0  0  0
   11.5240    6.8982   -4.2259 C   0  0  0  0  0  0  0  0  0  0  0  0
   11.3423    8.1075   -4.8315 N   0  0  0  0  0  0  0  0  0  0  0  0
   11.6240    9.2774   -4.2112 C   0  0  0  0  0  0  0  0  0  0  0  0
   12.1003    9.2824   -2.9559 N   0  0  0  0  0  0  0  0  0  0  0  0
   12.6810    8.0638   -1.2975 H   0  0  0  0  0  0  0  0  0  0  0  0
   12.1884    5.9778   -2.3780 H   0  0  0  0  0  0  0  0  0  0  0  0
   11.3063    5.9724   -4.7031 H   0  0  0  0  0  0  0  0  0  0  0  0
   10.6906   11.2361   -9.2230 H   0  0  0  0  0  0  0  0  0  0  0  0
   11.1554   12.1843   -8.8594 C   0  0  0  0  0  0  0  0  0  0  0  0
   11.3913   12.0337   -7.3852 C   0  0  1  0  0  0  0  0  0  0  0  0
   10.1285   11.6764   -6.6667 C   0  0  0  0  0  0  0  0  0  0  0  0
   10.2227   10.4044   -5.8809 C   0  0  0  0  0  0  0  0  0  0  0  0
   11.4012   10.5363   -4.9302 C   0  0  2  0  0  0  0  0  0  0  0  0
   12.6801   10.8830   -5.6666 C   0  0  0  0  0  0  0  0  0  0  0  0
   12.4071   10.9093   -7.1515 C   0  0  0  0  0  0  0  0  0  0  0  0
   10.4979   13.0363   -9.0611 H   0  0  0  0  0  0  0  0  0  0  0  0
   12.1155   12.3177   -9.3986 H   0  0  0  0  0  0  0  0  0  0  0  0
   11.8439   12.9620   -6.9667 H   0  0  0  0  0  0  0  0  0  0  0  0
    9.8876   12.4940   -5.9259 H   0  0  0  0  0  0  0  0  0  0  0  0
    9.2784   11.6846   -7.3796 H   0  0  0  0  0  0  0  0  0  0  0  0
   10.2614    9.4954   -6.4896 H   0  0  0  0  0  0  0  0  0  0  0  0
    9.3152   10.3481   -5.2318 H   0  0  0  0  0  0  0  0  0  0  0  0
   11.1461   11.3577   -4.2327 H   0  0  0  0  0  0  0  0  0  0  0  0
   13.5027   10.1844   -5.4130 H   0  0  0  0  0  0  0  0  0  0  0  0
   13.0061   11.9052   -5.3838 H   0  0  0  0  0  0  0  0  0  0  0  0
   13.3250   11.0854   -7.7274 H   0  0  0  0  0  0  0  0  0  0  0  0
   12.0026    9.9376   -7.4561 H   0  0  0  0  0  0  0  0  0  0  0  0
  2  1  2  0
  3  2  1  0
  4  3  2  0
  4  5  1  0
  5  6  2  0
  6  1  1  0
  1  7  1  0
  2  8  1  0
  3  9  1  0
 10 11  1  0
 11 12  1  0
 12 13  1  0
 13 14  1  0
 14 15  1  0
 15 16  1  0
 16 17  1  0
 17 12  1  0
 11 18  1  0
 11 19  1  0
 12 20  1  1
 13 21  1  0
 13 22  1  0
 14 23  1  0
 14 24  1  0
 15 25  1  1
 16 26  1  0
 16 27  1  0
 17 28  1  0
 17 29  1  0
  5 15  1  0
M  END
>  <Score>  (1) 
-7.30302

$$$$

     RDKit          3D

 26 27  0  0  0  0  0  0  0  0999 V2000
   12.3026    8.1241   -2.3016 C   0  0  0  0  0  0  0  0  0  0  0  0
   12.0212    6.8829   -2.9134 C   0  0  0  0  0  0  0  0  0  0  0  0
   11.5243    6.8979   -4.2250 C   0  0  0  0  0  0  0  0  0  0  0  0
   11.3423    8.1082   -4.8315 N   0  0  0  0  0  0  0  0  0  0  0  0
   11.6236    9.2769   -4.2124 C   0  0  0  0  0  0  0  0  0  0  0  0
   12.1010    9.2810   -2.9541 N   0  0  0  0  0  0  0  0  0  0  0  0
   12.6778    8.0559   -1.3051 H   0  0  0  0  0  0  0  0  0  0  0  0
   12.1845    5.9647   -2.3870 H   0  0  0  0  0  0  0  0  0  0  0  0
   11.2952    5.9715   -4.7322 H   0  0  0  0  0  0  0  0  0  0  0  0
   10.6477   13.2495   -7.7857 H   0  0  0  0  0  0  0  0  0  0  0  0
   10.2912   12.2178   -7.4975 C   0  0  0  0  0  0  0  0  0  0  0  0
   11.5101   11.4977   -6.9672 C   0  0  2  0  0  0  0  0  0  0  0  0
   11.2142   10.3312   -6.3207 O   0  0  0  0  0  0  0  0  0  0  0  0
   11.3882   10.5130   -4.9624 C   0  0  2  0  0  0  0  0  0  0  0  0
   12.6463   11.3924   -4.9442 C   0  0  1  0  0  0  0  0  0  0  0  0
   13.6754   10.6378   -5.4538 O   0  0  0  0  0  0  0  0  0  0  0  0
   12.1946   12.4210   -5.9811 C   0  0  1  0  0  0  0  0  0  0  0  0
   13.2431   13.1154   -6.5279 O   0  0  0  0  0  0  0  0  0  0  0  0
    9.5699   12.2886   -6.6778 H   0  0  0  0  0  0  0  0  0  0  0  0
    9.9207   11.7485   -8.4127 H   0  0  0  0  0  0  0  0  0  0  0  0
   12.2443   11.3600   -7.8112 H   0  0  0  0  0  0  0  0  0  0  0  0
   10.5695   11.1322   -4.5657 H   0  0  0  0  0  0  0  0  0  0  0  0
   12.8304   11.8264   -3.9668 H   0  0  0  0  0  0  0  0  0  0  0  0
   13.3468    9.8851   -6.0307 H   0  0  0  0  0  0  0  0  0  0  0  0
   11.4561   13.0657   -5.4584 H   0  0  0  0  0  0  0  0  0  0  0  0
   12.9574   14.0722   -6.6014 H   0  0  0  0  0  0  0  0  0  0  0  0
  2  1  2  0
  3  2  1  0
  4  3  2  0
  4  5  1  0
  5  6  2  0
  6  1  1  0
  1  7  1  0
  2  8  1  0
  3  9  1  0
 10 11  1  0
 11 12  1  0
 12 13  1  0
 13 14  1  0
 14 15  1  0
 15 16  1  0
 15 17  1  0
 17 18  1  0
 17 12  1  0
 11 19  1  0
 11 20  1  0
 12 21  1  6
 14 22  1  1
 15 23  1  1
 16 24  1  0
 17 25  1  1
 18 26  1  0
  5 14  1  0
M  END
>  <Score>  (1) 
-7.30142

$$$$

     RDKit          3D

 22 23  0  0  0  0  0  0  0  0999 V2000
   12.3027    8.1246   -2.3014 C   0  0  0  0  0  0  0  0  0  0  0  0
   12.0210    6.8825   -2.9139 C   0  0  0  0  0  0  0  0  0  0  0  0
   11.5245    6.8978   -4.2247 C   0  0  0  0  0  0  0  0  0  0  0  0
   11.3424    8.1086   -4.8315 N   0  0  0  0  0  0  0  0  0  0  0  0
   11.6235    9.2766   -4.2124 C   0  0  0  0  0  0  0  0  0  0  0  0
   12.1010    9.2810   -2.9541 N   0  0  0  0  0  0  0  0  0  0  0  0
   12.6842    8.0748   -1.2901 H   0  0  0  0  0  0  0  0  0  0  0  0
   12.1745    5.9587   -2.4128 H   0  0  0  0  0  0  0  0  0  0  0  0
   11.2992    5.9670   -4.7211 H   0  0  0  0  0  0  0  0  0  0  0  0
   11.4043   10.5258   -4.9211 C   0  0  0  0  0  0  0  0  0  0  0  0
   11.3768   11.7252   -4.2725 C   0  0  0  0  0  0  0  0  0  0  0  0
   11.1643   12.8996   -4.9856 C   0  0  0  0  0  0  0  0  0  0  0  0
   10.9886   12.8363   -6.3065 N   0  0  0  0  0  0  0  0  0  0  0  0
   11.0072   11.6795   -6.9909 C   0  0  0  0  0  0  0  0  0  0  0  0
   10.8018   11.6840   -8.4794 C   0  0  0  0  0  0  0  0  0  0  0  0
   11.2159   10.5261   -6.2901 C   0  0  0  0  0  0  0  0  0  0  0  0
   11.5239   11.7413   -3.1917 H   0  0  0  0  0  0  0  0  0  0  0  0
   11.1443   13.8501   -4.4586 H   0  0  0  0  0  0  0  0  0  0  0  0
   10.1570   12.5579   -8.7227 H   0  0  0  0  0  0  0  0  0  0  0  0
   10.2101   10.7674   -8.7677 H   0  0  0  0  0  0  0  0  0  0  0  0
   11.7704   11.7399   -8.9793 H   0  0  0  0  0  0  0  0  0  0  0  0
   11.2306    9.5999   -6.8388 H   0  0  0  0  0  0  0  0  0  0  0  0
  2  1  2  0
  3  2  1  0
  4  3  2  0
  4  5  1  0
  5  6  2  0
  6  1  1  0
  1  7  1  0
  2  8  1  0
  3  9  1  0
 10 11  2  0
 11 12  1  0
 12 13  2  0
 13 14  1  0
 14 15  1  0
 14 16  2  0
 16 10  1  0
 11 17  1  0
 12 18  1  0
 15 19  1  0
 15 20  1  0
 15 21  1  0
 16 22  1  0
  5 10  1  0
M  END
>  <Score>  (1) 
-7.29941

$$$$

     RDKit          3D

 26 27  0  0  0  0  0  0  0  0999 V2000
   12.3025    8.1234   -2.3018 C   0  0  0  0  0  0  0  0  0  0  0  0
   12.0217    6.8834   -2.9122 C   0  0  0  0  0  0  0  0  0  0  0  0
   11.5239    6.8985   -4.2263 C   0  0  0  0  0  0  0  0  0  0  0  0
   11.3425    8.1077   -4.8312 N   0  0  0  0  0  0  0  0  0  0  0  0
   11.6235    9.2768   -4.2124 C   0  0  0  0  0  0  0  0  0  0  0  0
   12.1009    9.2813   -2.9542 N   0  0  0  0  0  0  0  0  0  0  0  0
   12.6877    8.1721   -1.2911 H   0  0  0  0  0  0  0  0  0  0  0  0
   12.1885    5.9650   -2.3764 H   0  0  0  0  0  0  0  0  0  0  0  0
   11.2965    5.9689   -4.7286 H   0  0  0  0  0  0  0  0  0  0  0  0
   11.8658   12.2142   -8.7796 H   0  0  0  0  0  0  0  0  0  0  0  0
   11.2511   12.2823   -7.8585 C   0  0  0  0  0  0  0  0  0  0  0  0
   12.0423   11.7027   -6.7122 C   0  0  2  0  0  0  0  0  0  0  0  0
   11.5534   10.5039   -6.2649 O   0  0  0  0  0  0  0  0  0  0  0  0
   11.4110   10.5414   -4.9051 C   0  0  2  0  0  0  0  0  0  0  0  0
   12.3654   11.6408   -4.4267 C   0  0  2  0  0  0  0  0  0  0  0  0
   12.0467   12.1052   -3.1807 O   0  0  0  0  0  0  0  0  0  0  0  0
   12.1014   12.6517   -5.5319 C   0  0  1  0  0  0  0  0  0  0  0  0
   13.1279   13.5695   -5.6500 O   0  0  0  0  0  0  0  0  0  0  0  0
   11.0162   13.3676   -7.6994 H   0  0  0  0  0  0  0  0  0  0  0  0
   10.3397   11.6831   -8.0165 H   0  0  0  0  0  0  0  0  0  0  0  0
   13.1122   11.5429   -7.0236 H   0  0  0  0  0  0  0  0  0  0  0  0
   10.3842   10.9431   -4.6889 H   0  0  0  0  0  0  0  0  0  0  0  0
   13.4060   11.2761   -4.5296 H   0  0  0  0  0  0  0  0  0  0  0  0
   12.8887   12.4631   -2.7553 H   0  0  0  0  0  0  0  0  0  0  0  0
   11.1138   13.1329   -5.3388 H   0  0  0  0  0  0  0  0  0  0  0  0
   13.1584   13.9178   -6.5780 H   0  0  0  0  0  0  0  0  0  0  0  0
  2  1  2  0
  3  2  1  0
  4  3  2  0
  4  5  1  0
  5  6  2  0
  6  1  1  0
  1  7  1  0
  2  8  1  0
  3  9  1  0
 10 11  1  0
 11 12  1  0
 12 13  1  0
 13 14  1  0
 14 15  1  0
 15 16  1  0
 15 17  1  0
 17 18  1  0
 17 12  1  0
 11 19  1  0
 11 20  1  0
 12 21  1  6
 14 22  1  6
 15 23  1  1
 16 24  1  0
 17 25  1  1
 18 26  1  0
  5 14  1  0
M  END
>  <Score>  (1) 
-7.2965

$$$$

     RDKit          3D

 23 25  0  0  0  0  0  0  0  0999 V2000
   12.3028    8.1203   -2.3005 C   0  0  0  0  0  0  0  0  0  0  0  0
   12.0215    6.8839   -2.9129 C   0  0  0  0  0  0  0  0  0  0  0  0
   11.5245    6.8967   -4.2244 C   0  0  0  0  0  0  0  0  0  0  0  0
   11.3423    8.1105   -4.8319 N   0  0  0  0  0  0  0  0  0  0  0  0
   11.6246    9.2756   -4.2095 C   0  0  0  0  0  0  0  0  0  0  0  0
   12.0993    9.2839   -2.9589 N   0  0  0  0  0  0  0  0  0  0  0  0
   12.6888    8.1254   -1.2833 H   0  0  0  0  0  0  0  0  0  0  0  0
   12.1891    5.9628   -2.3745 H   0  0  0  0  0  0  0  0  0  0  0  0
   11.2982    5.9875   -4.7262 H   0  0  0  0  0  0  0  0  0  0  0  0
   11.4056   10.5351   -4.9186 C   0  0  0  0  0  0  0  0  0  0  0  0
   10.3263   11.3311   -4.6006 C   0  0  0  0  0  0  0  0  0  0  0  0
   10.0718   12.5289   -5.2374 C   0  0  0  0  0  0  0  0  0  0  0  0
   10.9509   12.9287   -6.2347 C   0  0  0  0  0  0  0  0  0  0  0  0
   11.0124   14.0105   -7.0471 N   0  0  0  0  0  0  0  0  0  0  0  0
   12.0633   13.9221   -7.8403 N   0  0  0  0  0  0  0  0  0  0  0  0
   12.7443   12.7883   -7.5960 C   0  0  0  0  0  0  0  0  0  0  0  0
   12.0557   12.1496   -6.5853 C   0  0  0  0  0  0  0  0  0  0  0  0
   12.2641   10.9546   -5.9132 C   0  0  0  0  0  0  0  0  0  0  0  0
    9.6697   10.9565   -3.8022 H   0  0  0  0  0  0  0  0  0  0  0  0
    9.2333   13.1343   -4.9813 H   0  0  0  0  0  0  0  0  0  0  0  0
   10.2912   14.7666   -6.9925 H   0  0  0  0  0  0  0  0  0  0  0  0
   13.6434   12.4052   -8.0581 H   0  0  0  0  0  0  0  0  0  0  0  0
   13.1207   10.3485   -6.1834 H   0  0  0  0  0  0  0  0  0  0  0  0
  2  1  2  0
  3  2  1  0
  4  3  2  0
  4  5  1  0
  5  6  2  0
  6  1  1  0
  1  7  1  0
  2  8  1  0
  3  9  1  0
 10 11  2  0
 11 12  1  0
 12 13  2  0
 13 14  1  0
 14 15  1  0
 15 16  2  0
 16 17  1  0
 17 18  2  0
 18 10  1  0
 17 13  1  0
 11 19  1  0
 12 20  1  0
 14 21  1  0
 16 22  1  0
 18 23  1  0
  5 10  1  0
M  END
>  <Score>  (1) 
-8.14422

$$$$

     RDKit          3D

 20 21  0  0  0  0  0  0  0  0999 V2000
   12.3021    8.1216   -2.3026 C   0  0  0  0  0  0  0  0  0  0  0  0
   12.0215    6.8837   -2.9129 C   0  0  0  0  0  0  0  0  0  0  0  0
   11.5248    6.8985   -4.2239 C   0  0  0  0  0  0  0  0  0  0  0  0
   11.3422    8.1079   -4.8319 N   0  0  0  0  0  0  0  0  0  0  0  0
   11.6237    9.2773   -4.2120 C   0  0  0  0  0  0  0  0  0  0  0  0
   12.1008    9.2819   -2.9547 N   0  0  0  0  0  0  0  0  0  0  0  0
   12.6812    8.0634   -1.2971 H   0  0  0  0  0  0  0  0  0  0  0  0
   12.1864    5.9504   -2.3803 H   0  0  0  0  0  0  0  0  0  0  0  0
   11.3071    5.9731   -4.7009 H   0  0  0  0  0  0  0  0  0  0  0  0
   11.4329   10.5365   -4.8465 N   0  0  0  0  0  0  0  0  0  0  0  0
   10.3213   10.8215   -5.5427 C   0  0  0  0  0  0  0  0  0  0  0  0
   10.1195   12.0252   -6.1593 C   0  0  0  0  0  0  0  0  0  0  0  0
   11.0843   13.0109   -6.0797 C   0  0  0  0  0  0  0  0  0  0  0  0
   10.9624   13.9828   -6.5562 H   0  0  0  0  0  0  0  0  0  0  0  0
   12.2192   12.6873   -5.3548 C   0  0  0  0  0  0  0  0  0  0  0  0
   12.3917   11.4708   -4.7480 C   0  0  0  0  0  0  0  0  0  0  0  0
   13.4361   11.1815   -4.0846 O   0  0  0  0  0  0  0  0  0  0  0  0
    9.5476   10.0606   -5.6192 H   0  0  0  0  0  0  0  0  0  0  0  0
    9.2102   12.2559   -6.7279 H   0  0  0  0  0  0  0  0  0  0  0  0
   12.9883   13.4391   -5.2769 H   0  0  0  0  0  0  0  0  0  0  0  0
  2  1  2  0
  3  2  1  0
  4  3  2  0
  4  5  1  0
  5  6  2  0
  6  1  1  0
  1  7  1  0
  2  8  1  0
  3  9  1  0
 10 11  1  0
 11 12  2  0
 12 13  1  0
 13 14  1  0
 13 15  2  0
 15 16  1  0
 16 17  2  0
 16 10  1  0
 11 18  1  0
 12 19  1  0
 15 20  1  0
  5 10  1  0
M  END
>  <Score>  (1) 
-7.29434

$$$$

     RDKit          3D

 21 22  0  0  0  0  0  0  0  0999 V2000
   12.3027    8.1262   -2.3013 C   0  0  0  0  0  0  0  0  0  0  0  0
   12.0207    6.8816   -2.9147 C   0  0  0  0  0  0  0  0  0  0  0  0
   11.5249    6.8958   -4.2233 C   0  0  0  0  0  0  0  0  0  0  0  0
   11.3430    8.1133   -4.8302 N   0  0  0  0  0  0  0  0  0  0  0  0
   11.6225    9.2746   -4.2148 C   0  0  0  0  0  0  0  0  0  0  0  0
   12.1011    9.2795   -2.9536 N   0  0  0  0  0  0  0  0  0  0  0  0
   12.6835    8.0580   -1.2902 H   0  0  0  0  0  0  0  0  0  0  0  0
   12.1817    5.9578   -2.3937 H   0  0  0  0  0  0  0  0  0  0  0  0
   11.2889    5.9820   -4.7499 H   0  0  0  0  0  0  0  0  0  0  0  0
   11.3994   10.4955   -4.9308 N   0  0  0  0  0  0  0  0  0  0  0  0
   11.5185   10.5377   -6.3481 C   0  0  0  0  0  0  0  0  0  0  0  0
   11.3099   11.6943   -7.0574 C   0  0  0  0  0  0  0  0  0  0  0  0
   11.4216   11.7501   -8.4275 C   0  0  0  0  0  0  0  0  0  0  0  0
   11.7582   10.6003   -9.1410 C   0  0  0  0  0  0  0  0  0  0  0  0
   11.9121   10.6211  -10.8835 Cl  0  0  0  0  0  0  0  0  0  0  0  0
   11.9589    9.4614   -8.3919 C   0  0  0  0  0  0  0  0  0  0  0  0
   11.8425    9.4332   -7.0399 N   0  0  0  0  0  0  0  0  0  0  0  0
   11.1466   11.3696   -4.4214 H   0  0  0  0  0  0  0  0  0  0  0  0
   11.0497   12.5851   -6.5098 H   0  0  0  0  0  0  0  0  0  0  0  0
   11.2626   12.6421   -8.9952 H   0  0  0  0  0  0  0  0  0  0  0  0
   12.2208    8.5601   -8.9283 H   0  0  0  0  0  0  0  0  0  0  0  0
  2  1  2  0
  3  2  1  0
  4  3  2  0
  4  5  1  0
  5  6  2  0
  6  1  1  0
  1  7  1  0
  2  8  1  0
  3  9  1  0
 10 11  1  0
 11 12  2  0
 12 13  1  0
 13 14  2  0
 14 15  1  0
 14 16  1  0
 16 17  2  0
 17 11  1  0
 10 18  1  0
 12 19  1  0
 13 20  1  0
 16 21  1  0
  5 10  1  0
M  END
>  <Score>  (1) 
-7.28747

$$$$

     RDKit          3D

 30 31  0  0  0  0  0  0  0  0999 V2000
   12.3035    8.1193   -2.2986 C   0  0  0  0  0  0  0  0  0  0  0  0
   12.0219    6.8855   -2.9120 C   0  0  0  0  0  0  0  0  0  0  0  0
   11.5243    6.9032   -4.2256 C   0  0  0  0  0  0  0  0  0  0  0  0
   11.3428    8.1018   -4.8296 N   0  0  0  0  0  0  0  0  0  0  0  0
   11.6273    9.2850   -4.2034 C   0  0  0  0  0  0  0  0  0  0  0  0
   12.0952    9.2762   -2.9689 N   0  0  0  0  0  0  0  0  0  0  0  0
   12.6812    8.0870   -1.2993 H   0  0  0  0  0  0  0  0  0  0  0  0
   12.1887    5.9654   -2.3760 H   0  0  0  0  0  0  0  0  0  0  0  0
   11.3013    5.9702   -4.7161 H   0  0  0  0  0  0  0  0  0  0  0  0
   11.3866   10.4635   -4.9287 N   0  0  0  0  0  0  0  0  0  0  0  0
   10.8759   10.6026   -6.2342 C   0  0  0  0  0  0  0  0  0  0  0  0
   10.3085    9.5483   -6.9075 C   0  0  0  0  0  0  0  0  0  0  0  0
    9.8338    9.7449   -8.2110 C   0  0  0  0  0  0  0  0  0  0  0  0
    9.9213   10.9673   -8.8335 C   0  0  0  0  0  0  0  0  0  0  0  0
    9.4693   11.2120  -10.1141 O   0  0  0  0  0  0  0  0  0  0  0  0
    8.8820   10.1364  -10.8229 C   0  0  0  0  0  0  0  0  0  0  0  0
   10.4929   12.0171   -8.1455 C   0  0  0  0  0  0  0  0  0  0  0  0
   10.5787   13.2490   -8.7781 O   0  0  0  0  0  0  0  0  0  0  0  0
   11.1564   14.3363   -8.1007 C   0  0  0  0  0  0  0  0  0  0  0  0
   10.9703   11.8585   -6.8620 C   0  0  0  0  0  0  0  0  0  0  0  0
   11.6089   11.4006   -4.4445 H   0  0  0  0  0  0  0  0  0  0  0  0
   10.1946    8.5491   -6.4796 H   0  0  0  0  0  0  0  0  0  0  0  0
    9.3796    8.9307   -8.7714 H   0  0  0  0  0  0  0  0  0  0  0  0
    8.5744   10.4342  -11.8493 H   0  0  0  0  0  0  0  0  0  0  0  0
    9.5750    9.2930  -10.7968 H   0  0  0  0  0  0  0  0  0  0  0  0
    7.9725    9.8342  -10.2390 H   0  0  0  0  0  0  0  0  0  0  0  0
   10.5827   14.6241   -7.1881 H   0  0  0  0  0  0  0  0  0  0  0  0
   11.1926   15.2358   -8.7431 H   0  0  0  0  0  0  0  0  0  0  0  0
   12.1957   14.1296   -7.7692 H   0  0  0  0  0  0  0  0  0  0  0  0
   11.4209   12.7080   -6.3367 H   0  0  0  0  0  0  0  0  0  0  0  0
  2  1  2  0
  3  2  1  0
  4  3  2  0
  4  5  1  0
  5  6  2  0
  6  1  1  0
  1  7  1  0
  2  8  1  0
  3  9  1  0
 10 11  1  0
 11 12  2  0
 12 13  1  0
 13 14  2  0
 14 15  1  0
 15 16  1  0
 14 17  1  0
 17 18  1  0
 18 19  1  0
 17 20  2  0
 20 11  1  0
 10 21  1  0
 12 22  1  0
 13 23  1  0
 16 24  1  0
 16 25  1  0
 16 26  1  0
 19 27  1  0
 19 28  1  0
 19 29  1  0
 20 30  1  0
  5 10  1  0
M  END
>  <Score>  (1) 
-7.26358

$$$$

     RDKit          3D

 26 27  0  0  0  0  0  0  0  0999 V2000
   12.3027    8.1212   -2.3010 C   0  0  0  0  0  0  0  0  0  0  0  0
   12.0221    6.8839   -2.9113 C   0  0  0  0  0  0  0  0  0  0  0  0
   11.5236    6.8984   -4.2270 C   0  0  0  0  0  0  0  0  0  0  0  0
   11.3427    8.1079   -4.8304 N   0  0  0  0  0  0  0  0  0  0  0  0
   11.6244    9.2774   -4.2103 C   0  0  0  0  0  0  0  0  0  0  0  0
   12.0995    9.2823   -2.9580 N   0  0  0  0  0  0  0  0  0  0  0  0
   12.6902    8.1544   -1.2829 H   0  0  0  0  0  0  0  0  0  0  0  0
   12.1917    5.9871   -2.3703 H   0  0  0  0  0  0  0  0  0  0  0  0
   11.3044    5.9708   -4.7078 H   0  0  0  0  0  0  0  0  0  0  0  0
   11.6338   11.8884   -8.7069 H   0  0  0  0  0  0  0  0  0  0  0  0
   10.8254   12.0648   -8.0089 C   0  0  0  0  0  0  0  0  0  0  0  0
   11.1062   11.8022   -6.5791 C   0  0  1  0  0  0  0  0  0  0  0  0
   11.2431   10.4405   -6.2693 O   0  0  0  0  0  0  0  0  0  0  0  0
   11.4173   10.5579   -4.8901 C   0  0  2  0  0  0  0  0  0  0  0  0
   12.6067   11.4837   -4.8125 C   0  0  1  0  0  0  0  0  0  0  0  0
   13.8163   10.8416   -4.9084 O   0  0  0  0  0  0  0  0  0  0  0  0
   12.3385   12.3930   -6.0236 C   0  0  1  0  0  0  0  0  0  0  0  0
   13.4476   12.3498   -6.8118 O   0  0  0  0  0  0  0  0  0  0  0  0
   10.4103   13.0990   -8.0943 H   0  0  0  0  0  0  0  0  0  0  0  0
    9.9770   11.3955   -8.3181 H   0  0  0  0  0  0  0  0  0  0  0  0
   10.2351   12.1611   -5.9829 H   0  0  0  0  0  0  0  0  0  0  0  0
   10.5455   11.0943   -4.5006 H   0  0  0  0  0  0  0  0  0  0  0  0
   12.5787   12.0598   -3.8851 H   0  0  0  0  0  0  0  0  0  0  0  0
   13.9336   10.3265   -5.7403 H   0  0  0  0  0  0  0  0  0  0  0  0
   12.1246   13.4291   -5.6575 H   0  0  0  0  0  0  0  0  0  0  0  0
   13.3295   12.5092   -7.7578 H   0  0  0  0  0  0  0  0  0  0  0  0
  2  1  2  0
  3  2  1  0
  4  3  2  0
  4  5  1  0
  5  6  2  0
  6  1  1  0
  1  7  1  0
  2  8  1  0
  3  9  1  0
 10 11  1  0
 11 12  1  0
 12 13  1  0
 13 14  1  0
 14 15  1  0
 15 16  1  0
 15 17  1  0
 17 18  1  0
 17 12  1  0
 11 19  1  0
 11 20  1  0
 12 21  1  1
 14 22  1  1
 15 23  1  1
 16 24  1  0
 17 25  1  1
 18 26  1  0
  5 14  1  0
M  END
>  <Score>  (1) 
-7.25906

$$$$

     RDKit          3D

 28 29  0  0  0  0  0  0  0  0999 V2000
   12.3023    8.1278   -2.3026 C   0  0  0  0  0  0  0  0  0  0  0  0
   12.0215    6.8814   -2.9127 C   0  0  0  0  0  0  0  0  0  0  0  0
   11.5238    6.8974   -4.2265 C   0  0  0  0  0  0  0  0  0  0  0  0
   11.3435    8.1085   -4.8285 N   0  0  0  0  0  0  0  0  0  0  0  0
   11.6249    9.2792   -4.2090 C   0  0  0  0  0  0  0  0  0  0  0  0
   12.0991    9.2767   -2.9587 N   0  0  0  0  0  0  0  0  0  0  0  0
   12.6889    8.1384   -1.2845 H   0  0  0  0  0  0  0  0  0  0  0  0
   12.1811    5.9576   -2.3951 H   0  0  0  0  0  0  0  0  0  0  0  0
   11.2890    5.9837   -4.7500 H   0  0  0  0  0  0  0  0  0  0  0  0
   11.4210   10.5117   -4.8624 N   0  0  0  0  0  0  0  0  0  0  0  0
   12.3230   10.9671   -5.9002 C   0  0  0  0  0  0  0  0  0  0  0  0
   12.2680    9.9859   -7.0299 C   0  0  0  0  0  0  0  0  0  0  0  0
   11.3115   10.5650   -8.0735 C   0  0  0  0  0  0  0  0  0  0  0  0
   11.8626   11.8222   -8.6857 C   0  0  0  0  0  0  0  0  0  0  0  0
   12.5621   12.6732   -7.6463 C   0  0  0  0  0  0  0  0  0  0  0  0
   11.8874   12.3552   -6.3141 C   0  0  0  0  0  0  0  0  0  0  0  0
   10.5888   11.0878   -4.5675 H   0  0  0  0  0  0  0  0  0  0  0  0
   13.3733   11.0001   -5.4916 H   0  0  0  0  0  0  0  0  0  0  0  0
   13.2595    9.7691   -7.4727 H   0  0  0  0  0  0  0  0  0  0  0  0
   11.8059    9.0560   -6.6824 H   0  0  0  0  0  0  0  0  0  0  0  0
   11.1426    9.7856   -8.8642 H   0  0  0  0  0  0  0  0  0  0  0  0
   10.3434   10.7135   -7.5520 H   0  0  0  0  0  0  0  0  0  0  0  0
   11.0654   12.4618   -9.1197 H   0  0  0  0  0  0  0  0  0  0  0  0
   12.6137   11.5329   -9.4633 H   0  0  0  0  0  0  0  0  0  0  0  0
   12.4548   13.7346   -7.8829 H   0  0  0  0  0  0  0  0  0  0  0  0
   13.6373   12.4096   -7.5543 H   0  0  0  0  0  0  0  0  0  0  0  0
   10.7968   12.4016   -6.5031 H   0  0  0  0  0  0  0  0  0  0  0  0
   12.1368   13.1182   -5.5722 H   0  0  0  0  0  0  0  0  0  0  0  0
  2  1  2  0
  3  2  1  0
  4  3  2  0
  4  5  1  0
  5  6  2  0
  6  1  1  0
  1  7  1  0
  2  8  1  0
  3  9  1  0
 10 11  1  0
 11 12  1  0
 12 13  1  0
 13 14  1  0
 14 15  1  0
 15 16  1  0
 16 11  1  0
 10 17  1  0
 11 18  1  0
 12 19  1  0
 12 20  1  0
 13 21  1  0
 13 22  1  0
 14 23  1  0
 14 24  1  0
 15 25  1  0
 15 26  1  0
 16 27  1  0
 16 28  1  0
  5 10  1  0
M  END
>  <Score>  (1) 
-7.25899

$$$$

     RDKit          3D

 23 24  0  0  0  0  0  0  0  0999 V2000
   12.3038    8.1277   -2.2987 C   0  0  0  0  0  0  0  0  0  0  0  0
   12.0205    6.8824   -2.9154 C   0  0  0  0  0  0  0  0  0  0  0  0
   11.5252    6.9037   -4.2233 C   0  0  0  0  0  0  0  0  0  0  0  0
   11.3433    8.1005   -4.8283 N   0  0  0  0  0  0  0  0  0  0  0  0
   11.6269    9.2896   -4.2050 C   0  0  0  0  0  0  0  0  0  0  0  0
   12.0954    9.2671   -2.9674 N   0  0  0  0  0  0  0  0  0  0  0  0
   12.6887    8.1467   -1.2858 H   0  0  0  0  0  0  0  0  0  0  0  0
   12.1746    5.9584   -2.4125 H   0  0  0  0  0  0  0  0  0  0  0  0
   11.2941    5.9731   -4.7353 H   0  0  0  0  0  0  0  0  0  0  0  0
   11.3743   10.4548   -4.9637 N   0  0  0  0  0  0  0  0  0  0  0  0
   11.4322   10.5865   -6.3682 C   0  0  0  0  0  0  0  0  0  0  0  0
   11.3706   11.8685   -6.9179 C   0  0  0  0  0  0  0  0  0  0  0  0
   11.4136   12.0010   -8.2479 N   0  0  0  0  0  0  0  0  0  0  0  0
   11.5139   10.9538   -9.0824 C   0  0  0  0  0  0  0  0  0  0  0  0
   11.5777    9.6742   -8.5941 C   0  0  0  0  0  0  0  0  0  0  0  0
   11.6874    8.5027   -9.4633 C   0  0  0  0  0  0  0  0  0  0  0  0
   11.7332    7.5245   -9.0160 H   0  0  0  0  0  0  0  0  0  0  0  0
   11.7280    8.6268  -10.7121 O   0  0  0  0  0  0  0  0  0  0  0  0
   11.5337    9.5141   -7.2009 C   0  0  0  0  0  0  0  0  0  0  0  0
   11.0997   11.3639   -4.4416 H   0  0  0  0  0  0  0  0  0  0  0  0
   11.2883   12.7617   -6.2779 H   0  0  0  0  0  0  0  0  0  0  0  0
   11.5457   11.1148  -10.1636 H   0  0  0  0  0  0  0  0  0  0  0  0
   11.5789    8.4801   -6.8436 H   0  0  0  0  0  0  0  0  0  0  0  0
  2  1  2  0
  3  2  1  0
  4  3  2  0
  4  5  1  0
  5  6  2  0
  6  1  1  0
  1  7  1  0
  2  8  1  0
  3  9  1  0
 10 11  1  0
 11 12  2  0
 12 13  1  0
 13 14  2  0
 14 15  1  0
 15 16  1  0
 16 17  1  0
 16 18  2  0
 15 19  2  0
 19 11  1  0
 10 20  1  0
 12 21  1  0
 14 22  1  0
 19 23  1  0
  5 10  1  0
M  END
>  <Score>  (1) 
-7.24976

$$$$

     RDKit          3D

 22 23  0  0  0  0  0  0  0  0999 V2000
   12.3035    8.1210   -2.2987 C   0  0  0  0  0  0  0  0  0  0  0  0
   12.0214    6.8858   -2.9132 C   0  0  0  0  0  0  0  0  0  0  0  0
   11.5247    6.9033   -4.2246 C   0  0  0  0  0  0  0  0  0  0  0  0
   11.3435    8.1035   -4.8280 N   0  0  0  0  0  0  0  0  0  0  0  0
   11.6266    9.2841   -4.2050 C   0  0  0  0  0  0  0  0  0  0  0  0
   12.0952    9.2733   -2.9684 N   0  0  0  0  0  0  0  0  0  0  0  0
   12.6899    8.1134   -1.2793 H   0  0  0  0  0  0  0  0  0  0  0  0
   12.1892    5.9678   -2.3747 H   0  0  0  0  0  0  0  0  0  0  0  0
   11.3123    5.9693   -4.6870 H   0  0  0  0  0  0  0  0  0  0  0  0
   11.4054   10.4719   -4.9125 N   0  0  0  0  0  0  0  0  0  0  0  0
   11.1928   10.6798   -6.2719 C   0  0  0  0  0  0  0  0  0  0  0  0
   11.1682    9.6591   -7.1897 C   0  0  0  0  0  0  0  0  0  0  0  0
   10.9503    9.9111   -8.5542 C   0  0  0  0  0  0  0  0  0  0  0  0
   10.7555   11.1953   -9.0043 C   0  0  0  0  0  0  0  0  0  0  0  0
   10.7763   12.2234   -8.1084 C   0  0  0  0  0  0  0  0  0  0  0  0
   10.9904   11.9458   -6.7892 C   0  0  0  0  0  0  0  0  0  0  0  0
   11.0077   13.2966   -5.6826 Cl  0  0  0  0  0  0  0  0  0  0  0  0
   11.3977   11.3725   -4.3123 H   0  0  0  0  0  0  0  0  0  0  0  0
   11.3089    8.6292   -6.9392 H   0  0  0  0  0  0  0  0  0  0  0  0
   10.9361    9.0910   -9.2528 H   0  0  0  0  0  0  0  0  0  0  0  0
   10.5856   11.4085  -10.0562 H   0  0  0  0  0  0  0  0  0  0  0  0
   10.6208   13.2232   -8.4858 H   0  0  0  0  0  0  0  0  0  0  0  0
  2  1  2  0
  3  2  1  0
  4  3  2  0
  4  5  1  0
  5  6  2  0
  6  1  1  0
  1  7  1  0
  2  8  1  0
  3  9  1  0
 10 11  1  0
 11 12  2  0
 12 13  1  0
 13 14  2  0
 14 15  1  0
 15 16  2  0
 16 17  1  0
 16 11  1  0
 10 18  1  0
 12 19  1  0
 13 20  1  0
 14 21  1  0
 15 22  1  0
  5 10  1  0
M  END
>  <Score>  (1) 
-7.24691

$$$$

     RDKit          3D

 22 23  0  0  0  0  0  0  0  0999 V2000
   12.3028    8.1290   -2.3014 C   0  0  0  0  0  0  0  0  0  0  0  0
   12.0201    6.8801   -2.9161 C   0  0  0  0  0  0  0  0  0  0  0  0
   11.5251    6.8962   -4.2230 C   0  0  0  0  0  0  0  0  0  0  0  0
   11.3435    8.1123   -4.8289 N   0  0  0  0  0  0  0  0  0  0  0  0
   11.6224    9.2764   -4.2154 C   0  0  0  0  0  0  0  0  0  0  0  0
   12.1011    9.2771   -2.9533 N   0  0  0  0  0  0  0  0  0  0  0  0
   12.6870    8.1297   -1.2886 H   0  0  0  0  0  0  0  0  0  0  0  0
   12.1884    5.9721   -2.3776 H   0  0  0  0  0  0  0  0  0  0  0  0
   11.2972    5.9719   -4.7270 H   0  0  0  0  0  0  0  0  0  0  0  0
   11.4109   10.5504   -4.9062 C   0  0  0  0  0  0  0  0  0  0  0  0
   10.9219   10.5564   -6.1958 C   0  0  0  0  0  0  0  0  0  0  0  0
   10.7188   11.7486   -6.8557 C   0  0  0  0  0  0  0  0  0  0  0  0
   10.9895   12.9662   -6.2693 C   0  0  0  0  0  0  0  0  0  0  0  0
   11.4653   12.9376   -5.0123 N   0  0  0  0  0  0  0  0  0  0  0  0
   11.6779   11.7736   -4.3301 C   0  0  0  0  0  0  0  0  0  0  0  0
   12.2005   11.8222   -2.9581 C   0  0  0  0  0  0  0  0  0  0  0  0
   10.7120    9.5836   -6.6472 H   0  0  0  0  0  0  0  0  0  0  0  0
   10.3366   11.7574   -7.8640 H   0  0  0  0  0  0  0  0  0  0  0  0
   10.8416   13.9170   -6.7585 H   0  0  0  0  0  0  0  0  0  0  0  0
   11.4842   11.4167   -2.1964 H   0  0  0  0  0  0  0  0  0  0  0  0
   12.3605   12.8918   -2.6608 H   0  0  0  0  0  0  0  0  0  0  0  0
   13.2082   11.3502   -2.8629 H   0  0  0  0  0  0  0  0  0  0  0  0
  2  1  2  0
  3  2  1  0
  4  3  2  0
  4  5  1  0
  5  6  2  0
  6  1  1  0
  1  7  1  0
  2  8  1  0
  3  9  1  0
 10 11  2  0
 11 12  1  0
 12 13  2  0
 13 14  1  0
 14 15  2  0
 15 16  1  0
 15 10  1  0
 11 17  1  0
 12 18  1  0
 13 19  1  0
 16 20  1  0
 16 21  1  0
 16 22  1  0
  5 10  1  0
M  END
>  <Score>  (1) 
-7.24278

$$$$

     RDKit          3D

 22 23  0  0  0  0  0  0  0  0999 V2000
   12.3027    8.1210   -2.3009 C   0  0  0  0  0  0  0  0  0  0  0  0
   12.0218    6.8839   -2.9122 C   0  0  0  0  0  0  0  0  0  0  0  0
   11.5242    6.8972   -4.2254 C   0  0  0  0  0  0  0  0  0  0  0  0
   11.3424    8.1099   -4.8316 N   0  0  0  0  0  0  0  0  0  0  0  0
   11.6243    9.2756   -4.2102 C   0  0  0  0  0  0  0  0  0  0  0  0
   12.0997    9.2834   -2.9577 N   0  0  0  0  0  0  0  0  0  0  0  0
   12.6886    8.1025   -1.2815 H   0  0  0  0  0  0  0  0  0  0  0  0
   12.1753    5.9553   -2.4101 H   0  0  0  0  0  0  0  0  0  0  0  0
   11.3046    5.9702   -4.7074 H   0  0  0  0  0  0  0  0  0  0  0  0
   11.4152   10.5368   -4.8935 C   0  0  0  0  0  0  0  0  0  0  0  0
   11.0913   11.6936   -4.1951 C   0  0  0  0  0  0  0  0  0  0  0  0
   10.8952   12.8939   -4.8748 C   0  0  0  0  0  0  0  0  0  0  0  0
   11.0162   12.9645   -6.2438 C   0  0  0  0  0  0  0  0  0  0  0  0
   11.3423   11.7824   -6.9085 C   0  0  0  0  0  0  0  0  0  0  0  0
   11.4953   11.7527   -8.3752 C   0  0  0  0  0  0  0  0  0  0  0  0
   11.5237   10.6434   -6.2168 N   0  0  0  0  0  0  0  0  0  0  0  0
   10.9924   11.6604   -3.1321 H   0  0  0  0  0  0  0  0  0  0  0  0
   10.6426   13.8002   -4.3404 H   0  0  0  0  0  0  0  0  0  0  0  0
   10.8691   13.8825   -6.7925 H   0  0  0  0  0  0  0  0  0  0  0  0
   12.5089   12.0591   -8.7081 H   0  0  0  0  0  0  0  0  0  0  0  0
   10.7027   12.3598   -8.8818 H   0  0  0  0  0  0  0  0  0  0  0  0
   11.3484   10.7151   -8.7420 H   0  0  0  0  0  0  0  0  0  0  0  0
  2  1  2  0
  3  2  1  0
  4  3  2  0
  4  5  1  0
  5  6  2  0
  6  1  1  0
  1  7  1  0
  2  8  1  0
  3  9  1  0
 10 11  2  0
 11 12  1  0
 12 13  2  0
 13 14  1  0
 14 15  1  0
 14 16  2  0
 16 10  1  0
 11 17  1  0
 12 18  1  0
 13 19  1  0
 15 20  1  0
 15 21  1  0
 15 22  1  0
  5 10  1  0
M  END
>  <Score>  (1) 
-7.23468

$$$$

     RDKit          3D

 24 26  0  0  0  0  0  0  0  0999 V2000
   12.3029    8.1253   -2.3007 C   0  0  0  0  0  0  0  0  0  0  0  0
   12.0202    6.8813   -2.9159 C   0  0  0  0  0  0  0  0  0  0  0  0
   11.5253    6.8968   -4.2224 C   0  0  0  0  0  0  0  0  0  0  0  0
   11.3427    8.1116   -4.8308 N   0  0  0  0  0  0  0  0  0  0  0  0
   11.6231    9.2752   -4.2132 C   0  0  0  0  0  0  0  0  0  0  0  0
   12.1007    9.2809   -2.9549 N   0  0  0  0  0  0  0  0  0  0  0  0
   12.6871    8.0865   -1.2839 H   0  0  0  0  0  0  0  0  0  0  0  0
   12.1863    5.9581   -2.3815 H   0  0  0  0  0  0  0  0  0  0  0  0
   11.2937    5.9832   -4.7374 H   0  0  0  0  0  0  0  0  0  0  0  0
   15.1210   14.4203   -6.2179 H   0  0  0  0  0  0  0  0  0  0  0  0
   14.5343   13.5670   -5.8869 C   0  0  0  0  0  0  0  0  0  0  0  0
   15.1416   12.6752   -5.2749 O   0  0  0  0  0  0  0  0  0  0  0  0
   13.1040   13.5216   -6.1746 C   0  0  0  0  0  0  0  0  0  0  0  0
   12.3565   14.4638   -6.8445 C   0  0  0  0  0  0  0  0  0  0  0  0
   11.0869   14.0257   -6.8857 N   0  0  0  0  0  0  0  0  0  0  0  0
   10.9627   12.8446   -6.2776 N   0  0  0  0  0  0  0  0  0  0  0  0
    9.8987   12.0350   -6.0740 C   0  0  0  0  0  0  0  0  0  0  0  0
   10.1452   10.8646   -5.3906 C   0  0  0  0  0  0  0  0  0  0  0  0
   11.3988   10.5271   -4.9356 C   0  0  0  0  0  0  0  0  0  0  0  0
   12.4131   11.3747   -5.1703 N   0  0  0  0  0  0  0  0  0  0  0  0
   12.1959   12.5325   -5.8405 C   0  0  0  0  0  0  0  0  0  0  0  0
   12.7765   15.3774   -7.2444 H   0  0  0  0  0  0  0  0  0  0  0  0
    8.9360   12.3256   -6.4405 H   0  0  0  0  0  0  0  0  0  0  0  0
    9.3411   10.1627   -5.1885 H   0  0  0  0  0  0  0  0  0  0  0  0
  2  1  2  0
  3  2  1  0
  4  3  2  0
  4  5  1  0
  5  6  2  0
  6  1  1  0
  1  7  1  0
  2  8  1  0
  3  9  1  0
 10 11  1  0
 11 12  2  0
 11 13  1  0
 13 14  1  0
 14 15  2  0
 15 16  1  0
 16 17  1  0
 17 18  2  0
 18 19  1  0
 19 20  2  0
 20 21  1  0
 21 13  2  0
 21 16  1  0
 14 22  1  0
 17 23  1  0
 18 24  1  0
  5 19  1  0
M  END
>  <Score>  (1) 
-7.23407

$$$$

     RDKit          3D

 23 25  0  0  0  0  0  0  0  0999 V2000
   12.3024    8.1257   -2.3022 C   0  0  0  0  0  0  0  0  0  0  0  0
   12.0211    6.8825   -2.9138 C   0  0  0  0  0  0  0  0  0  0  0  0
   11.5245    6.8974   -4.2245 C   0  0  0  0  0  0  0  0  0  0  0  0
   11.3424    8.1093   -4.8314 N   0  0  0  0  0  0  0  0  0  0  0  0
   11.6230    9.2763   -4.2137 C   0  0  0  0  0  0  0  0  0  0  0  0
   12.1016    9.2798   -2.9524 N   0  0  0  0  0  0  0  0  0  0  0  0
   12.6824    8.0495   -1.2924 H   0  0  0  0  0  0  0  0  0  0  0  0
   12.1846    5.9573   -2.3859 H   0  0  0  0  0  0  0  0  0  0  0  0
   11.3061    5.9705   -4.7034 H   0  0  0  0  0  0  0  0  0  0  0  0
   11.4078   10.4997   -4.9091 N   0  0  0  0  0  0  0  0  0  0  0  0
   12.4211   11.2641   -5.3575 C   0  0  0  0  0  0  0  0  0  0  0  0
   13.6011   10.8763   -5.1505 O   0  0  0  0  0  0  0  0  0  0  0  0
   12.2314   12.4511   -6.0325 C   0  0  0  0  0  0  0  0  0  0  0  0
   13.0011   13.4040   -6.5854 N   0  0  0  0  0  0  0  0  0  0  0  0
   12.2429   14.3667   -7.1256 C   0  0  0  0  0  0  0  0  0  0  0  0
   12.6216   15.2503   -7.6343 H   0  0  0  0  0  0  0  0  0  0  0  0
   10.9565   14.0368   -6.9218 N   0  0  0  0  0  0  0  0  0  0  0  0
   10.9320   12.8586   -6.2493 C   0  0  0  0  0  0  0  0  0  0  0  0
    9.9238   12.0856   -5.7962 N   0  0  0  0  0  0  0  0  0  0  0  0
    8.9258   12.4002   -5.9635 H   0  0  0  0  0  0  0  0  0  0  0  0
   10.1626   10.9520   -5.1521 C   0  0  0  0  0  0  0  0  0  0  0  0
    9.1578   10.2780   -4.7555 O   0  0  0  0  0  0  0  0  0  0  0  0
   10.1146   14.5867   -7.2255 H   0  0  0  0  0  0  0  0  0  0  0  0
  2  1  2  0
  3  2  1  0
  4  3  2  0
  4  5  1  0
  5  6  2  0
  6  1  1  0
  1  7  1  0
  2  8  1  0
  3  9  1  0
 10 11  1  0
 11 12  2  0
 11 13  1  0
 13 14  1  0
 14 15  2  0
 15 16  1  0
 15 17  1  0
 17 18  1  0
 18 19  1  0
 19 20  1  0
 19 21  1  0
 21 22  2  0
 21 10  1  0
 18 13  2  0
 17 23  1  0
  5 10  1  0
M  END
>  <Score>  (1) 
-8.12591

$$$$

     RDKit          3D

 29 30  0  0  0  0  0  0  0  0999 V2000
   12.3025    8.1269   -2.3020 C   0  0  0  0  0  0  0  0  0  0  0  0
   12.0208    6.8819   -2.9146 C   0  0  0  0  0  0  0  0  0  0  0  0
   11.5246    6.8975   -4.2243 C   0  0  0  0  0  0  0  0  0  0  0  0
   11.3429    8.1091   -4.8302 N   0  0  0  0  0  0  0  0  0  0  0  0
   11.6223    9.2774   -4.2156 C   0  0  0  0  0  0  0  0  0  0  0  0
   12.1019    9.2783   -2.9514 N   0  0  0  0  0  0  0  0  0  0  0  0
   12.6862    8.1302   -1.2909 H   0  0  0  0  0  0  0  0  0  0  0  0
   12.1886    5.9599   -2.3757 H   0  0  0  0  0  0  0  0  0  0  0  0
   11.3011    5.9778   -4.7172 H   0  0  0  0  0  0  0  0  0  0  0  0
   10.4327   12.1145  -10.9201 H   0  0  0  0  0  0  0  0  0  0  0  0
    9.9297   11.4691  -10.2174 C   0  0  0  0  0  0  0  0  0  0  0  0
    8.8710   10.9043  -10.6384 O   0  0  0  0  0  0  0  0  0  0  0  0
   10.3672   11.2271   -8.9061 N   0  0  0  0  0  0  0  0  0  0  0  0
    9.6458   10.3531   -8.0220 C   0  0  0  0  0  0  0  0  0  0  0  0
   10.5706    9.6334   -7.0708 C   0  0  0  0  0  0  0  0  0  0  0  0
   11.5165   10.5472   -6.3585 C   0  0  0  0  0  0  0  0  0  0  0  0
   11.4004   10.4884   -4.9274 N   0  0  0  0  0  0  0  0  0  0  0  0
   11.3973   11.9599   -6.8882 C   0  0  0  0  0  0  0  0  0  0  0  0
   11.5684   11.8593   -8.4081 C   0  0  0  0  0  0  0  0  0  0  0  0
    9.1635    9.5742   -8.6505 H   0  0  0  0  0  0  0  0  0  0  0  0
    8.8267   10.8887   -7.4780 H   0  0  0  0  0  0  0  0  0  0  0  0
    9.9271    9.0519   -6.3695 H   0  0  0  0  0  0  0  0  0  0  0  0
   11.1223    8.8774   -7.6666 H   0  0  0  0  0  0  0  0  0  0  0  0
   12.5738   10.2289   -6.5972 H   0  0  0  0  0  0  0  0  0  0  0  0
   11.1482   11.3521   -4.4024 H   0  0  0  0  0  0  0  0  0  0  0  0
   10.3427   12.3060   -6.7133 H   0  0  0  0  0  0  0  0  0  0  0  0
   12.1387   12.6322   -6.4567 H   0  0  0  0  0  0  0  0  0  0  0  0
   12.4099   11.1689   -8.6101 H   0  0  0  0  0  0  0  0  0  0  0  0
   11.7232   12.8669   -8.8378 H   0  0  0  0  0  0  0  0  0  0  0  0
  2  1  2  0
  3  2  1  0
  4  3  2  0
  4  5  1  0
  5  6  2  0
  6  1  1  0
  1  7  1  0
  2  8  1  0
  3  9  1  0
 10 11  1  0
 11 12  2  0
 11 13  1  0
 13 14  1  0
 14 15  1  0
 15 16  1  0
 16 17  1  0
 16 18  1  0
 18 19  1  0
 19 13  1  0
 14 20  1  0
 14 21  1  0
 15 22  1  0
 15 23  1  0
 16 24  1  0
 17 25  1  0
 18 26  1  0
 18 27  1  0
 19 28  1  0
 19 29  1  0
  5 17  1  0
M  END
>  <Score>  (1) 
-7.23036

$$$$

     RDKit          3D

 22 24  0  0  0  0  0  0  0  0999 V2000
   12.3024    8.1211   -2.3018 C   0  0  0  0  0  0  0  0  0  0  0  0
   12.0214    6.8851   -2.9132 C   0  0  0  0  0  0  0  0  0  0  0  0
   11.5246    6.8973   -4.2244 C   0  0  0  0  0  0  0  0  0  0  0  0
   11.3421    8.1076   -4.8320 N   0  0  0  0  0  0  0  0  0  0  0  0
   11.6238    9.2779   -4.2119 C   0  0  0  0  0  0  0  0  0  0  0  0
   12.1007    9.2819   -2.9548 N   0  0  0  0  0  0  0  0  0  0  0  0
   12.6798    8.0971   -1.3041 H   0  0  0  0  0  0  0  0  0  0  0  0
   12.1798    5.9487   -2.3976 H   0  0  0  0  0  0  0  0  0  0  0  0
   11.3081    5.9703   -4.6981 H   0  0  0  0  0  0  0  0  0  0  0  0
   11.4271   10.5263   -4.8609 N   0  0  0  0  0  0  0  0  0  0  0  0
   11.5708   11.7394   -4.3547 N   0  0  0  0  0  0  0  0  0  0  0  0
   11.2855   12.6699   -5.3090 C   0  0  0  0  0  0  0  0  0  0  0  0
   10.9465   12.0003   -6.4707 C   0  0  0  0  0  0  0  0  0  0  0  0
   10.5723   12.4048   -7.7351 C   0  0  0  0  0  0  0  0  0  0  0  0
   10.3010   11.4766   -8.6708 N   0  0  0  0  0  0  0  0  0  0  0  0
   10.3799   10.1483   -8.4227 C   0  0  0  0  0  0  0  0  0  0  0  0
   10.1703    9.3952   -9.1461 H   0  0  0  0  0  0  0  0  0  0  0  0
   10.7558    9.7603   -7.1522 C   0  0  0  0  0  0  0  0  0  0  0  0
   11.0484   10.6483   -6.1449 C   0  0  0  0  0  0  0  0  0  0  0  0
   11.3181   13.7496   -5.1820 H   0  0  0  0  0  0  0  0  0  0  0  0
   10.4994   13.4730   -7.9663 H   0  0  0  0  0  0  0  0  0  0  0  0
   10.8219    8.6959   -6.9439 H   0  0  0  0  0  0  0  0  0  0  0  0
  2  1  2  0
  3  2  1  0
  4  3  2  0
  4  5  1  0
  5  6  2  0
  6  1  1  0
  1  7  1  0
  2  8  1  0
  3  9  1  0
 10 11  1  0
 11 12  2  0
 12 13  1  0
 13 14  2  0
 14 15  1  0
 15 16  2  0
 16 17  1  0
 16 18  1  0
 18 19  2  0
 19 10  1  0
 19 13  1  0
 12 20  1  0
 14 21  1  0
 18 22  1  0
  5 10  1  0
M  END
>  <Score>  (1) 
-7.23027

$$$$

     RDKit          3D

 24 25  0  0  0  0  0  0  0  0999 V2000
   12.3007    8.1201   -2.3061 C   0  0  0  0  0  0  0  0  0  0  0  0
   12.0218    6.8864   -2.9123 C   0  0  0  0  0  0  0  0  0  0  0  0
   11.5231    6.8959   -4.2280 C   0  0  0  0  0  0  0  0  0  0  0  0
   11.3491    8.1143   -4.8143 N   0  0  0  0  0  0  0  0  0  0  0  0
   11.6193    9.2762   -4.2236 C   0  0  0  0  0  0  0  0  0  0  0  0
   12.1010    9.2781   -2.9536 N   0  0  0  0  0  0  0  0  0  0  0  0
   12.6817    8.0981   -1.2993 H   0  0  0  0  0  0  0  0  0  0  0  0
   12.1785    5.9475   -2.4009 H   0  0  0  0  0  0  0  0  0  0  0  0
   11.3022    5.9757   -4.7143 H   0  0  0  0  0  0  0  0  0  0  0  0
   11.4263   10.5034   -4.8603 N   0  0  0  0  0  0  0  0  0  0  0  0
   11.5103   10.8030   -6.2437 C   0  0  0  0  0  0  0  0  0  0  0  0
   11.9096    9.9197   -7.2139 C   0  0  0  0  0  0  0  0  0  0  0  0
   11.9665   10.2693   -8.5759 C   0  0  0  0  0  0  0  0  0  0  0  0
   11.6202   11.5286   -9.0013 C   0  0  0  0  0  0  0  0  0  0  0  0
   11.6794   11.8765  -10.3779 N   0  0  0  0  0  0  0  0  0  0  0  0
   12.0090   11.1741  -11.0649 H   0  0  0  0  0  0  0  0  0  0  0  0
   11.2192   12.4169   -8.0281 C   0  0  0  0  0  0  0  0  0  0  0  0
   11.1609   12.0838   -6.6981 C   0  0  0  0  0  0  0  0  0  0  0  0
   11.1834   11.3296   -4.2121 H   0  0  0  0  0  0  0  0  0  0  0  0
   12.1983    8.9171   -6.9438 H   0  0  0  0  0  0  0  0  0  0  0  0
   12.2927    9.5247   -9.3108 H   0  0  0  0  0  0  0  0  0  0  0  0
   11.4043   12.8150  -10.7357 H   0  0  0  0  0  0  0  0  0  0  0  0
   10.9470   13.4119   -8.3746 H   0  0  0  0  0  0  0  0  0  0  0  0
   10.8455   12.7876   -5.9485 H   0  0  0  0  0  0  0  0  0  0  0  0
  2  1  2  0
  3  2  1  0
  4  3  2  0
  4  5  1  0
  5  6  2  0
  6  1  1  0
  1  7  1  0
  2  8  1  0
  3  9  1  0
 10 11  1  0
 11 12  2  0
 12 13  1  0
 13 14  2  0
 14 15  1  0
 15 16  1  0
 14 17  1  0
 17 18  2  0
 18 11  1  0
 10 19  1  0
 12 20  1  0
 13 21  1  0
 15 22  1  0
 17 23  1  0
 18 24  1  0
  5 10  1  0
M  END
>  <Score>  (1) 
-7.22647

$$$$

     RDKit          3D

 25 26  0  0  0  0  0  0  0  0999 V2000
   12.3030    8.1276   -2.3007 C   0  0  0  0  0  0  0  0  0  0  0  0
   12.0196    6.8805   -2.9175 C   0  0  0  0  0  0  0  0  0  0  0  0
   11.5257    6.8992   -4.2217 C   0  0  0  0  0  0  0  0  0  0  0  0
   11.3426    8.1107   -4.8310 N   0  0  0  0  0  0  0  0  0  0  0  0
   11.6226    9.2734   -4.2146 C   0  0  0  0  0  0  0  0  0  0  0  0
   12.1015    9.2796   -2.9524 N   0  0  0  0  0  0  0  0  0  0  0  0
   12.6824    8.0924   -1.2967 H   0  0  0  0  0  0  0  0  0  0  0  0
   12.1843    5.9558   -2.3866 H   0  0  0  0  0  0  0  0  0  0  0  0
   11.3024    5.9629   -4.7124 H   0  0  0  0  0  0  0  0  0  0  0  0
   11.4121   10.5022   -4.8983 N   0  0  0  0  0  0  0  0  0  0  0  0
   12.3061   10.9566   -5.9408 C   0  0  0  0  0  0  0  0  0  0  0  0
   11.8638   12.2503   -6.4819 C   0  0  0  0  0  0  0  0  0  0  0  0
   10.9933   12.3551   -7.5545 C   0  0  0  0  0  0  0  0  0  0  0  0
   10.6152   13.5950   -8.0166 C   0  0  0  0  0  0  0  0  0  0  0  0
   11.0849   14.7563   -7.4341 C   0  0  0  0  0  0  0  0  0  0  0  0
   10.6219   16.3384   -7.9998 Cl  0  0  0  0  0  0  0  0  0  0  0  0
   11.9502   14.6523   -6.3679 C   0  0  0  0  0  0  0  0  0  0  0  0
   12.3287   13.3982   -5.9053 C   0  0  0  0  0  0  0  0  0  0  0  0
   10.5994   11.1061   -4.6578 H   0  0  0  0  0  0  0  0  0  0  0  0
   13.3326   11.0074   -5.5002 H   0  0  0  0  0  0  0  0  0  0  0  0
   12.3642   10.1865   -6.7629 H   0  0  0  0  0  0  0  0  0  0  0  0
   10.6186   11.4544   -8.0191 H   0  0  0  0  0  0  0  0  0  0  0  0
    9.9361   13.7158   -8.8532 H   0  0  0  0  0  0  0  0  0  0  0  0
   12.3302   15.5705   -5.8967 H   0  0  0  0  0  0  0  0  0  0  0  0
   13.0044   13.3510   -5.0725 H   0  0  0  0  0  0  0  0  0  0  0  0
  2  1  2  0
  3  2  1  0
  4  3  2  0
  4  5  1  0
  5  6  2  0
  6  1  1  0
  1  7  1  0
  2  8  1  0
  3  9  1  0
 10 11  1  0
 11 12  1  0
 12 13  2  0
 13 14  1  0
 14 15  2  0
 15 16  1  0
 15 17  1  0
 17 18  2  0
 18 12  1  0
 10 19  1  0
 11 20  1  0
 11 21  1  0
 13 22  1  0
 14 23  1  0
 17 24  1  0
 18 25  1  0
  5 10  1  0
M  END
>  <Score>  (1) 
-7.22512

$$$$

     RDKit          3D

 22 23  0  0  0  0  0  0  0  0999 V2000
   12.3016    8.1242   -2.3040 C   0  0  0  0  0  0  0  0  0  0  0  0
   12.0219    6.8830   -2.9117 C   0  0  0  0  0  0  0  0  0  0  0  0
   11.5245    6.8977   -4.2247 C   0  0  0  0  0  0  0  0  0  0  0  0
   11.3428    8.1120   -4.8306 N   0  0  0  0  0  0  0  0  0  0  0  0
   11.6235    9.2741   -4.2123 C   0  0  0  0  0  0  0  0  0  0  0  0
   12.1006    9.2799   -2.9548 N   0  0  0  0  0  0  0  0  0  0  0  0
   12.6822    8.0621   -1.2941 H   0  0  0  0  0  0  0  0  0  0  0  0
   12.1743    5.9563   -2.4130 H   0  0  0  0  0  0  0  0  0  0  0  0
   11.3058    5.9670   -4.7039 H   0  0  0  0  0  0  0  0  0  0  0  0
   11.3932   10.4720   -4.9448 N   0  0  0  0  0  0  0  0  0  0  0  0
   11.3218   11.8302   -4.4455 C   0  0  0  0  0  0  0  0  0  0  0  0
   11.9713   12.6378   -5.5493 C   0  0  0  0  0  0  0  0  0  0  0  0
   12.1036   11.7154   -6.7400 C   0  0  0  0  0  0  0  0  0  0  0  0
   11.7583   12.3286   -7.9246 F   0  0  0  0  0  0  0  0  0  0  0  0
   13.3907   11.1715   -6.8142 F   0  0  0  0  0  0  0  0  0  0  0  0
   11.1762   10.5872   -6.3822 C   0  0  0  0  0  0  0  0  0  0  0  0
   11.7950   11.9712   -3.4742 H   0  0  0  0  0  0  0  0  0  0  0  0
   10.2347   12.1165   -4.4076 H   0  0  0  0  0  0  0  0  0  0  0  0
   12.9859   13.0048   -5.2312 H   0  0  0  0  0  0  0  0  0  0  0  0
   11.3522   13.5323   -5.7840 H   0  0  0  0  0  0  0  0  0  0  0  0
   11.5595    9.6755   -6.8854 H   0  0  0  0  0  0  0  0  0  0  0  0
   10.1209   10.7939   -6.6316 H   0  0  0  0  0  0  0  0  0  0  0  0
  2  1  2  0
  3  2  1  0
  4  3  2  0
  4  5  1  0
  5  6  2  0
  6  1  1  0
  1  7  1  0
  2  8  1  0
  3  9  1  0
 10 11  1  0
 11 12  1  0
 12 13  1  0
 13 14  1  0
 13 15  1  0
 13 16  1  0
 16 10  1  0
 11 17  1  0
 11 18  1  0
 12 19  1  0
 12 20  1  0
 16 21  1  0
 16 22  1  0
  5 10  1  0
M  END
>  <Score>  (1) 
-7.22225

$$$$

     RDKit          3D

 21 22  0  0  0  0  0  0  0  0999 V2000
   12.3028    8.1258   -2.3010 C   0  0  0  0  0  0  0  0  0  0  0  0
   12.0203    6.8816   -2.9158 C   0  0  0  0  0  0  0  0  0  0  0  0
   11.5253    6.8955   -4.2223 C   0  0  0  0  0  0  0  0  0  0  0  0
   11.3426    8.1133   -4.8313 N   0  0  0  0  0  0  0  0  0  0  0  0
   11.6227    9.2740   -4.2143 C   0  0  0  0  0  0  0  0  0  0  0  0
   12.1012    9.2808   -2.9534 N   0  0  0  0  0  0  0  0  0  0  0  0
   12.6821    8.0686   -1.2951 H   0  0  0  0  0  0  0  0  0  0  0  0
   12.1897    5.9806   -2.3749 H   0  0  0  0  0  0  0  0  0  0  0  0
   11.3053    5.9717   -4.7058 H   0  0  0  0  0  0  0  0  0  0  0  0
   11.4112   10.5029   -4.9005 N   0  0  0  0  0  0  0  0  0  0  0  0
   12.4789   11.4202   -5.1500 C   0  0  0  0  0  0  0  0  0  0  0  0
   13.7250   11.1226   -4.7278 N   0  0  0  0  0  0  0  0  0  0  0  0
   14.7555   11.9553   -4.9411 C   0  0  0  0  0  0  0  0  0  0  0  0
   14.5103   13.1303   -5.6063 C   0  0  0  0  0  0  0  0  0  0  0  0
   13.2619   13.4783   -6.0553 C   0  0  0  0  0  0  0  0  0  0  0  0
   12.2322   12.5992   -5.8176 C   0  0  0  0  0  0  0  0  0  0  0  0
   11.2191   12.8325   -6.1564 H   0  0  0  0  0  0  0  0  0  0  0  0
   10.4635   10.7595   -5.2375 H   0  0  0  0  0  0  0  0  0  0  0  0
   15.7615   11.7579   -4.6226 H   0  0  0  0  0  0  0  0  0  0  0  0
   15.3143   13.8156   -5.7914 H   0  0  0  0  0  0  0  0  0  0  0  0
   13.0994   14.4284   -6.5856 H   0  0  0  0  0  0  0  0  0  0  0  0
  2  1  2  0
  3  2  1  0
  4  3  2  0
  4  5  1  0
  5  6  2  0
  6  1  1  0
  1  7  1  0
  2  8  1  0
  3  9  1  0
 10 11  1  0
 11 12  2  0
 12 13  1  0
 13 14  2  0
 14 15  1  0
 15 16  2  0
 16 17  1  0
 16 11  1  0
 10 18  1  0
 13 19  1  0
 14 20  1  0
 15 21  1  0
  5 10  1  0
M  END
>  <Score>  (1) 
-7.21663

$$$$

     RDKit          3D

 28 29  0  0  0  0  0  0  0  0999 V2000
   12.3029    8.1256   -2.3008 C   0  0  0  0  0  0  0  0  0  0  0  0
   12.0202    6.8812   -2.9158 C   0  0  0  0  0  0  0  0  0  0  0  0
   11.5249    6.8996   -4.2238 C   0  0  0  0  0  0  0  0  0  0  0  0
   11.3421    8.1054   -4.8318 N   0  0  0  0  0  0  0  0  0  0  0  0
   11.6241    9.2783   -4.2110 C   0  0  0  0  0  0  0  0  0  0  0  0
   12.1007    9.2809   -2.9548 N   0  0  0  0  0  0  0  0  0  0  0  0
   12.6850    8.0799   -1.2886 H   0  0  0  0  0  0  0  0  0  0  0  0
   12.1869    5.9568   -2.3797 H   0  0  0  0  0  0  0  0  0  0  0  0
   11.3065    5.9622   -4.7015 H   0  0  0  0  0  0  0  0  0  0  0  0
   11.3994   10.5349   -4.9350 C   0  0  2  0  0  0  0  0  0  0  0  0
   12.2220   10.6890   -6.1711 C   0  0  0  0  0  0  0  0  0  0  0  0
   12.6883   12.1196   -6.3530 C   0  0  0  0  0  0  0  0  0  0  0  0
   11.5778   13.1113   -6.0710 C   0  0  2  0  0  0  0  0  0  0  0  0
   12.1117   14.4395   -6.1824 N   0  0  0  0  0  0  0  0  0  0  0  0
   10.9441   12.9092   -4.7324 C   0  0  0  0  0  0  0  0  0  0  0  0
   11.6753   11.7557   -4.0485 C   0  0  0  0  0  0  0  0  0  0  0  0
   10.3135   10.6143   -5.2144 H   0  0  0  0  0  0  0  0  0  0  0  0
   13.1268   10.0506   -6.1407 H   0  0  0  0  0  0  0  0  0  0  0  0
   11.6409   10.3918   -7.0638 H   0  0  0  0  0  0  0  0  0  0  0  0
   12.9404   12.2304   -7.4354 H   0  0  0  0  0  0  0  0  0  0  0  0
   13.6023   12.3354   -5.7835 H   0  0  0  0  0  0  0  0  0  0  0  0
   10.8438   12.9855   -6.9200 H   0  0  0  0  0  0  0  0  0  0  0  0
   13.0135   14.5032   -6.6837 H   0  0  0  0  0  0  0  0  0  0  0  0
   12.0931   14.9317   -5.2734 H   0  0  0  0  0  0  0  0  0  0  0  0
    9.8957   12.5431   -4.9032 H   0  0  0  0  0  0  0  0  0  0  0  0
   10.8964   13.8033   -4.1097 H   0  0  0  0  0  0  0  0  0  0  0  0
   11.1974   11.5934   -3.0643 H   0  0  0  0  0  0  0  0  0  0  0  0
   12.7546   11.9514   -3.9484 H   0  0  0  0  0  0  0  0  0  0  0  0
  2  1  2  0
  3  2  1  0
  4  3  2  0
  4  5  1  0
  5  6  2  0
  6  1  1  0
  1  7  1  0
  2  8  1  0
  3  9  1  0
 10 11  1  0
 11 12  1  0
 12 13  1  0
 13 14  1  0
 13 15  1  0
 15 16  1  0
 16 10  1  0
 10 17  1  6
 11 18  1  0
 11 19  1  0
 12 20  1  0
 12 21  1  0
 13 22  1  6
 14 23  1  0
 14 24  1  0
 15 25  1  0
 15 26  1  0
 16 27  1  0
 16 28  1  0
  5 10  1  0
M  END
>  <Score>  (1) 
-7.21657

$$$$

     RDKit          3D

 21 22  0  0  0  0  0  0  0  0999 V2000
   12.3024    8.1240   -2.3021 C   0  0  0  0  0  0  0  0  0  0  0  0
   12.0204    6.8820   -2.9156 C   0  0  0  0  0  0  0  0  0  0  0  0
   11.5259    6.8967   -4.2209 C   0  0  0  0  0  0  0  0  0  0  0  0
   11.3425    8.1133   -4.8317 N   0  0  0  0  0  0  0  0  0  0  0  0
   11.6226    9.2735   -4.2146 C   0  0  0  0  0  0  0  0  0  0  0  0
   12.1013    9.2815   -2.9532 N   0  0  0  0  0  0  0  0  0  0  0  0
   12.6802    8.0552   -1.2986 H   0  0  0  0  0  0  0  0  0  0  0  0
   12.1884    5.9527   -2.3755 H   0  0  0  0  0  0  0  0  0  0  0  0
   11.3098    5.9723   -4.6938 H   0  0  0  0  0  0  0  0  0  0  0  0
   11.4120   10.5040   -4.8985 N   0  0  0  0  0  0  0  0  0  0  0  0
   12.4698   11.4243   -5.1502 C   0  0  0  0  0  0  0  0  0  0  0  0
   12.3870   12.6364   -5.7971 C   0  0  0  0  0  0  0  0  0  0  0  0
   13.6471   13.1966   -5.8184 C   0  0  0  0  0  0  0  0  0  0  0  0
   13.9708   14.5051   -6.4286 C   0  0  0  0  0  0  0  0  0  0  0  0
   14.4203   12.3343   -5.2055 O   0  0  0  0  0  0  0  0  0  0  0  0
   13.7677   11.2976   -4.8068 N   0  0  0  0  0  0  0  0  0  0  0  0
   10.4578   10.7567   -5.2338 H   0  0  0  0  0  0  0  0  0  0  0  0
   11.5059   13.0953   -6.2237 H   0  0  0  0  0  0  0  0  0  0  0  0
   15.0163   14.5666   -6.7933 H   0  0  0  0  0  0  0  0  0  0  0  0
   13.8113   15.2817   -5.6355 H   0  0  0  0  0  0  0  0  0  0  0  0
   13.2974   14.7510   -7.2651 H   0  0  0  0  0  0  0  0  0  0  0  0
  2  1  2  0
  3  2  1  0
  4  3  2  0
  4  5  1  0
  5  6  2  0
  6  1  1  0
  1  7  1  0
  2  8  1  0
  3  9  1  0
 10 11  1  0
 11 12  1  0
 12 13  2  0
 13 14  1  0
 13 15  1  0
 15 16  1  0
 16 11  2  0
 10 17  1  0
 12 18  1  0
 14 19  1  0
 14 20  1  0
 14 21  1  0
  5 10  1  0
M  END
>  <Score>  (1) 
-7.21613

$$$$

     RDKit          3D

 22 23  0  0  0  0  0  0  0  0999 V2000
   12.3021    8.1269   -2.3031 C   0  0  0  0  0  0  0  0  0  0  0  0
   12.0207    6.8820   -2.9148 C   0  0  0  0  0  0  0  0  0  0  0  0
   11.5250    6.8983   -4.2235 C   0  0  0  0  0  0  0  0  0  0  0  0
   11.3428    8.1076   -4.8303 N   0  0  0  0  0  0  0  0  0  0  0  0
   11.6219    9.2789   -4.2169 C   0  0  0  0  0  0  0  0  0  0  0  0
   12.1026    9.2774   -2.9494 N   0  0  0  0  0  0  0  0  0  0  0  0
   12.6841    8.0579   -1.2887 H   0  0  0  0  0  0  0  0  0  0  0  0
   12.1894    5.9684   -2.3743 H   0  0  0  0  0  0  0  0  0  0  0  0
   11.3006    5.9688   -4.7179 H   0  0  0  0  0  0  0  0  0  0  0  0
   11.4221   10.5276   -4.8740 N   0  0  0  0  0  0  0  0  0  0  0  0
   10.9200   10.5651   -6.2014 C   0  0  0  0  0  0  0  0  0  0  0  0
   10.7257   11.7718   -6.8397 C   0  0  0  0  0  0  0  0  0  0  0  0
   10.2353   11.8096   -8.1359 C   0  0  0  0  0  0  0  0  0  0  0  0
    9.9502   10.6562   -8.7669 N   0  0  0  0  0  0  0  0  0  0  0  0
   10.1381    9.4561   -8.1462 C   0  0  0  0  0  0  0  0  0  0  0  0
    9.8215    8.2763   -8.8572 N   0  0  0  0  0  0  0  0  0  0  0  0
    9.6061    7.3985   -8.3559 H   0  0  0  0  0  0  0  0  0  0  0  0
   10.6119    9.4580   -6.8975 N   0  0  0  0  0  0  0  0  0  0  0  0
   11.6413   11.4212   -4.3900 H   0  0  0  0  0  0  0  0  0  0  0  0
   10.9503   12.6952   -6.3443 H   0  0  0  0  0  0  0  0  0  0  0  0
   10.0711   12.7382   -8.6656 H   0  0  0  0  0  0  0  0  0  0  0  0
    9.8016    8.2777   -9.8907 H   0  0  0  0  0  0  0  0  0  0  0  0
  2  1  2  0
  3  2  1  0
  4  3  2  0
  4  5  1  0
  5  6  2  0
  6  1  1  0
  1  7  1  0
  2  8  1  0
  3  9  1  0
 10 11  1  0
 11 12  2  0
 12 13  1  0
 13 14  2  0
 14 15  1  0
 15 16  1  0
 16 17  1  0
 15 18  2  0
 18 11  1  0
 10 19  1  0
 12 20  1  0
 13 21  1  0
 16 22  1  0
  5 10  1  0
M  END
>  <Score>  (1) 
-7.2076

$$$$

     RDKit          3D

 19 20  0  0  0  0  0  0  0  0999 V2000
   12.3022    8.1232   -2.3023 C   0  0  0  0  0  0  0  0  0  0  0  0
   12.0207    6.8826   -2.9147 C   0  0  0  0  0  0  0  0  0  0  0  0
   11.5256    6.8962   -4.2214 C   0  0  0  0  0  0  0  0  0  0  0  0
   11.3426    8.1124   -4.8313 N   0  0  0  0  0  0  0  0  0  0  0  0
   11.6229    9.2756   -4.2139 C   0  0  0  0  0  0  0  0  0  0  0  0
   12.1009    9.2810   -2.9542 N   0  0  0  0  0  0  0  0  0  0  0  0
   12.6838    8.1360   -1.2977 H   0  0  0  0  0  0  0  0  0  0  0  0
   12.1748    5.9593   -2.4119 H   0  0  0  0  0  0  0  0  0  0  0  0
   11.2889    5.9878   -4.7506 H   0  0  0  0  0  0  0  0  0  0  0  0
   11.3924   10.4737   -4.9470 N   0  0  0  0  0  0  0  0  0  0  0  0
   10.2488   10.6919   -5.5723 N   0  0  0  0  0  0  0  0  0  0  0  0
   10.0185   11.8190   -6.2679 C   0  0  0  0  0  0  0  0  0  0  0  0
    9.0691   12.0065   -6.7903 H   0  0  0  0  0  0  0  0  0  0  0  0
   10.9686   12.8180   -6.3692 C   0  0  0  0  0  0  0  0  0  0  0  0
   12.1683   12.6010   -5.7194 C   0  0  0  0  0  0  0  0  0  0  0  0
   12.3369   11.4235   -5.0249 C   0  0  0  0  0  0  0  0  0  0  0  0
   13.4214   11.2009   -4.4237 O   0  0  0  0  0  0  0  0  0  0  0  0
   10.7863   13.7292   -6.9298 H   0  0  0  0  0  0  0  0  0  0  0  0
   12.9595   13.3633   -5.7672 H   0  0  0  0  0  0  0  0  0  0  0  0
  2  1  2  0
  3  2  1  0
  4  3  2  0
  4  5  1  0
  5  6  2  0
  6  1  1  0
  1  7  1  0
  2  8  1  0
  3  9  1  0
 10 11  1  0
 11 12  2  0
 12 13  1  0
 12 14  1  0
 14 15  2  0
 15 16  1  0
 16 17  2  0
 16 10  1  0
 14 18  1  0
 15 19  1  0
  5 10  1  0
M  END
>  <Score>  (1) 
-7.18551

$$$$

     RDKit          3D

 25 27  0  0  0  0  0  0  0  0999 V2000
   12.3029    8.1210   -2.3004 C   0  0  0  0  0  0  0  0  0  0  0  0
   12.0212    6.8868   -2.9140 C   0  0  0  0  0  0  0  0  0  0  0  0
   11.5241    6.8984   -4.2258 C   0  0  0  0  0  0  0  0  0  0  0  0
   11.3429    8.1117   -4.8303 N   0  0  0  0  0  0  0  0  0  0  0  0
   11.6228    9.2694   -4.2135 C   0  0  0  0  0  0  0  0  0  0  0  0
   12.1011    9.2838   -2.9541 N   0  0  0  0  0  0  0  0  0  0  0  0
   12.6788    8.0623   -1.3032 H   0  0  0  0  0  0  0  0  0  0  0  0
   12.1866    5.9598   -2.3807 H   0  0  0  0  0  0  0  0  0  0  0  0
   11.2997    5.9694   -4.7202 H   0  0  0  0  0  0  0  0  0  0  0  0
   11.4021   10.5106   -4.9252 N   0  0  0  0  0  0  0  0  0  0  0  0
   12.4918   11.3702   -5.1480 C   0  0  0  0  0  0  0  0  0  0  0  0
   13.7351   11.0623   -4.7132 N   0  0  0  0  0  0  0  0  0  0  0  0
   14.8158   11.8333   -4.8906 C   0  0  0  0  0  0  0  0  0  0  0  0
   15.8037   11.5531   -4.5260 H   0  0  0  0  0  0  0  0  0  0  0  0
   14.6171   12.9845   -5.5494 N   0  0  0  0  0  0  0  0  0  0  0  0
   13.4215   13.3929   -6.0275 C   0  0  0  0  0  0  0  0  0  0  0  0
   13.2995   14.5960   -6.6974 C   0  0  0  0  0  0  0  0  0  0  0  0
   12.0867   14.9552   -7.1530 N   0  0  0  0  0  0  0  0  0  0  0  0
   11.0142   14.1836   -6.9736 C   0  0  0  0  0  0  0  0  0  0  0  0
   11.0980   12.9762   -6.3096 C   0  0  0  0  0  0  0  0  0  0  0  0
   12.3181   12.5608   -5.8224 C   0  0  0  0  0  0  0  0  0  0  0  0
   10.4643   10.7335   -5.2481 H   0  0  0  0  0  0  0  0  0  0  0  0
   14.1872   15.2182   -6.8372 H   0  0  0  0  0  0  0  0  0  0  0  0
   10.0507   14.4818   -7.3424 H   0  0  0  0  0  0  0  0  0  0  0  0
   10.2341   12.3538   -6.1646 H   0  0  0  0  0  0  0  0  0  0  0  0
  2  1  2  0
  3  2  1  0
  4  3  2  0
  4  5  1  0
  5  6  2  0
  6  1  1  0
  1  7  1  0
  2  8  1  0
  3  9  1  0
 10 11  1  0
 11 12  2  0
 12 13  1  0
 13 14  1  0
 13 15  2  0
 15 16  1  0
 16 17  2  0
 17 18  1  0
 18 19  2  0
 19 20  1  0
 20 21  2  0
 21 11  1  0
 21 16  1  0
 10 22  1  0
 17 23  1  0
 19 24  1  0
 20 25  1  0
  5 10  1  0
M  END
>  <Score>  (1) 
-8.10047

$$$$

     RDKit          3D

 23 24  0  0  0  0  0  0  0  0999 V2000
   12.2995    8.1140   -2.3086 C   0  0  0  0  0  0  0  0  0  0  0  0
   12.0212    6.8834   -2.9136 C   0  0  0  0  0  0  0  0  0  0  0  0
   11.5257    6.8954   -4.2212 C   0  0  0  0  0  0  0  0  0  0  0  0
   11.3470    8.1134   -4.8199 N   0  0  0  0  0  0  0  0  0  0  0  0
   11.6242    9.2778   -4.2107 C   0  0  0  0  0  0  0  0  0  0  0  0
   12.0974    9.2871   -2.9640 N   0  0  0  0  0  0  0  0  0  0  0  0
   12.6844    8.1010   -1.2864 H   0  0  0  0  0  0  0  0  0  0  0  0
   12.1947    5.9550   -2.3629 H   0  0  0  0  0  0  0  0  0  0  0  0
   11.3054    5.9666   -4.7075 H   0  0  0  0  0  0  0  0  0  0  0  0
   11.3744   10.4790   -4.9263 N   0  0  0  0  0  0  0  0  0  0  0  0
   10.8307   10.6005   -6.2167 C   0  0  0  0  0  0  0  0  0  0  0  0
   10.0726    9.6008   -6.7629 C   0  0  0  0  0  0  0  0  0  0  0  0
    9.5270    9.7402   -8.0562 C   0  0  0  0  0  0  0  0  0  0  0  0
    9.7816   10.8886   -8.7267 C   0  0  0  0  0  0  0  0  0  0  0  0
    9.2045   11.0777  -10.0622 C   0  0  0  0  0  0  0  0  0  0  0  0
    8.7257   11.2447  -11.1332 N   0  0  0  0  0  0  0  0  0  0  0  0
   10.5363   11.9209   -8.2265 C   0  0  0  0  0  0  0  0  0  0  0  0
   11.0532   11.7403   -6.9475 C   0  0  0  0  0  0  0  0  0  0  0  0
   11.6200   11.4076   -4.4294 H   0  0  0  0  0  0  0  0  0  0  0  0
    9.8322    8.6812   -6.2810 H   0  0  0  0  0  0  0  0  0  0  0  0
    8.9345    8.9381   -8.4463 H   0  0  0  0  0  0  0  0  0  0  0  0
   10.7139   12.8094   -8.8046 H   0  0  0  0  0  0  0  0  0  0  0  0
   11.6520   12.5288   -6.4929 H   0  0  0  0  0  0  0  0  0  0  0  0
  2  1  2  0
  3  2  1  0
  4  3  2  0
  4  5  1  0
  5  6  2  0
  6  1  1  0
  1  7  1  0
  2  8  1  0
  3  9  1  0
 10 11  1  0
 11 12  2  0
 12 13  1  0
 13 14  2  0
 14 15  1  0
 15 16  3  0
 14 17  1  0
 17 18  2  0
 18 11  1  0
 10 19  1  0
 12 20  1  0
 13 21  1  0
 17 22  1  0
 18 23  1  0
  5 10  1  0
M  END
>  <Score>  (1) 
-7.18197

$$$$

     RDKit          3D

 27 28  0  0  0  0  0  0  0  0999 V2000
   12.3026    8.1230   -2.3014 C   0  0  0  0  0  0  0  0  0  0  0  0
   12.0214    6.8834   -2.9131 C   0  0  0  0  0  0  0  0  0  0  0  0
   11.5243    6.8978   -4.2252 C   0  0  0  0  0  0  0  0  0  0  0  0
   11.3423    8.1081   -4.8317 N   0  0  0  0  0  0  0  0  0  0  0  0
   11.6238    9.2770   -4.2117 C   0  0  0  0  0  0  0  0  0  0  0  0
   12.1006    9.2817   -2.9550 N   0  0  0  0  0  0  0  0  0  0  0  0
   12.6803    8.0484   -1.2978 H   0  0  0  0  0  0  0  0  0  0  0  0
   12.1867    5.9557   -2.3802 H   0  0  0  0  0  0  0  0  0  0  0  0
   11.3061    5.9729   -4.7036 H   0  0  0  0  0  0  0  0  0  0  0  0
   11.3944   10.5509   -4.9497 C   0  0  0  0  0  0  0  0  0  0  0  0
   10.8656   10.2943   -6.3163 C   0  0  0  0  0  0  0  0  0  0  0  0
   11.7016   10.1248   -7.4019 C   0  0  0  0  0  0  0  0  0  0  0  0
   11.2279    9.8862   -8.6760 C   0  0  0  0  0  0  0  0  0  0  0  0
    9.8752    9.8056   -8.9223 C   0  0  0  0  0  0  0  0  0  0  0  0
    9.3566    9.5664  -10.1926 O   0  0  0  0  0  0  0  0  0  0  0  0
   10.1360    9.3863  -11.3280 C   0  0  0  0  0  0  0  0  0  0  0  0
    9.0350    9.9735   -7.8455 C   0  0  0  0  0  0  0  0  0  0  0  0
    9.5101   10.2120   -6.5722 C   0  0  0  0  0  0  0  0  0  0  0  0
   12.3449   11.1423   -4.9859 H   0  0  0  0  0  0  0  0  0  0  0  0
   10.6857   11.2040   -4.3625 H   0  0  0  0  0  0  0  0  0  0  0  0
   12.7738   10.1936   -7.1779 H   0  0  0  0  0  0  0  0  0  0  0  0
   11.9165    9.7596   -9.4955 H   0  0  0  0  0  0  0  0  0  0  0  0
   11.1069    8.8689  -11.1420 H   0  0  0  0  0  0  0  0  0  0  0  0
    9.5532    8.8589  -12.1192 H   0  0  0  0  0  0  0  0  0  0  0  0
   10.3883   10.3846  -11.7489 H   0  0  0  0  0  0  0  0  0  0  0  0
    7.9569    9.9119   -8.0271 H   0  0  0  0  0  0  0  0  0  0  0  0
    8.8378   10.3454   -5.7165 H   0  0  0  0  0  0  0  0  0  0  0  0
  2  1  2  0
  3  2  1  0
  4  3  2  0
  4  5  1  0
  5  6  2  0
  6  1  1  0
  1  7  1  0
  2  8  1  0
  3  9  1  0
 10 11  1  0
 11 12  2  0
 12 13  1  0
 13 14  2  0
 14 15  1  0
 15 16  1  0
 14 17  1  0
 17 18  2  0
 18 11  1  0
 10 19  1  0
 10 20  1  0
 12 21  1  0
 13 22  1  0
 16 23  1  0
 16 24  1  0
 16 25  1  0
 17 26  1  0
 18 27  1  0
  5 10  1  0
M  END
>  <Score>  (1) 
-7.17562

$$$$

     RDKit          3D

 25 26  0  0  0  0  0  0  0  0999 V2000
   12.3025    8.1236   -2.3016 C   0  0  0  0  0  0  0  0  0  0  0  0
   12.0214    6.8832   -2.9129 C   0  0  0  0  0  0  0  0  0  0  0  0
   11.5242    6.8980   -4.2254 C   0  0  0  0  0  0  0  0  0  0  0  0
   11.3424    8.1083   -4.8314 N   0  0  0  0  0  0  0  0  0  0  0  0
   11.6235    9.2767   -4.2126 C   0  0  0  0  0  0  0  0  0  0  0  0
   12.1010    9.2812   -2.9541 N   0  0  0  0  0  0  0  0  0  0  0  0
   12.6869    8.1314   -1.2891 H   0  0  0  0  0  0  0  0  0  0  0  0
   12.1877    5.9721   -2.3793 H   0  0  0  0  0  0  0  0  0  0  0  0
   11.3055    5.9708   -4.7050 H   0  0  0  0  0  0  0  0  0  0  0  0
   11.4081   10.5082   -4.9093 N   0  0  0  0  0  0  0  0  0  0  0  0
   10.2065   10.7323   -5.6523 C   0  0  0  0  0  0  0  0  0  0  0  0
   10.5443   11.2883   -7.0132 C   0  0  0  0  0  0  0  0  0  0  0  0
   11.3896   12.5386   -6.9125 C   0  0  0  0  0  0  0  0  0  0  0  0
   12.6800   12.1548   -6.2232 C   0  0  0  0  0  0  0  0  0  0  0  0
   12.4133   11.5434   -4.8659 C   0  0  0  0  0  0  0  0  0  0  0  0
   12.0980   12.3494   -4.1556 H   0  0  0  0  0  0  0  0  0  0  0  0
    9.5251   11.4686   -5.1632 H   0  0  0  0  0  0  0  0  0  0  0  0
    9.6389    9.7810   -5.8378 H   0  0  0  0  0  0  0  0  0  0  0  0
    9.6159   11.5793   -7.5551 H   0  0  0  0  0  0  0  0  0  0  0  0
   11.1204   10.5548   -7.6171 H   0  0  0  0  0  0  0  0  0  0  0  0
   11.6343   12.8676   -7.9272 H   0  0  0  0  0  0  0  0  0  0  0  0
   10.8744   13.3667   -6.3983 H   0  0  0  0  0  0  0  0  0  0  0  0
   13.3372   13.0251   -6.0668 H   0  0  0  0  0  0  0  0  0  0  0  0
   13.1824   11.4156   -6.8773 H   0  0  0  0  0  0  0  0  0  0  0  0
   13.3949   11.1127   -4.5157 H   0  0  0  0  0  0  0  0  0  0  0  0
  2  1  2  0
  3  2  1  0
  4  3  2  0
  4  5  1  0
  5  6  2  0
  6  1  1  0
  1  7  1  0
  2  8  1  0
  3  9  1  0
 10 11  1  0
 11 12  1  0
 12 13  1  0
 13 14  1  0
 14 15  1  0
 15 16  1  0
 15 10  1  0
 11 17  1  0
 11 18  1  0
 12 19  1  0
 12 20  1  0
 13 21  1  0
 13 22  1  0
 14 23  1  0
 14 24  1  0
 15 25  1  0
  5 10  1  0
M  END
>  <Score>  (1) 
-7.17037

$$$$

     RDKit          3D

 25 26  0  0  0  0  0  0  0  0999 V2000
   12.3027    8.1239   -2.3011 C   0  0  0  0  0  0  0  0  0  0  0  0
   12.0211    6.8826   -2.9138 C   0  0  0  0  0  0  0  0  0  0  0  0
   11.5244    6.8982   -4.2249 C   0  0  0  0  0  0  0  0  0  0  0  0
   11.3422    8.1075   -4.8317 N   0  0  0  0  0  0  0  0  0  0  0  0
   11.6239    9.2773   -4.2114 C   0  0  0  0  0  0  0  0  0  0  0  0
   12.1006    9.2815   -2.9552 N   0  0  0  0  0  0  0  0  0  0  0  0
   12.6859    8.0851   -1.2867 H   0  0  0  0  0  0  0  0  0  0  0  0
   12.1799    5.9588   -2.3985 H   0  0  0  0  0  0  0  0  0  0  0  0
   11.3029    5.9701   -4.7119 H   0  0  0  0  0  0  0  0  0  0  0  0
   11.5319    9.5467   -9.1470 H   0  0  0  0  0  0  0  0  0  0  0  0
   11.0342    9.5386   -8.1867 C   0  0  0  0  0  0  0  0  0  0  0  0
   10.2007    8.6742   -7.9921 O   0  0  0  0  0  0  0  0  0  0  0  0
   11.3614   10.5393   -7.1645 C   0  0  1  0  0  0  0  0  0  0  0  0
   10.6167   10.3444   -6.0313 O   0  0  0  0  0  0  0  0  0  0  0  0
   11.4036   10.5673   -4.9273 C   0  0  2  0  0  0  0  0  0  0  0  0
   12.6998   11.1801   -5.3933 C   0  0  1  0  0  0  0  0  0  0  0  0
   13.7621   10.9431   -4.5804 O   0  0  0  0  0  0  0  0  0  0  0  0
   12.8265   10.4956   -6.7607 C   0  0  2  0  0  0  0  0  0  0  0  0
   13.6456   11.1831   -7.6154 O   0  0  0  0  0  0  0  0  0  0  0  0
   11.2052   11.5763   -7.5828 H   0  0  0  0  0  0  0  0  0  0  0  0
   10.8867   11.2863   -4.2736 H   0  0  0  0  0  0  0  0  0  0  0  0
   12.5471   12.2403   -5.5834 H   0  0  0  0  0  0  0  0  0  0  0  0
   13.7982   10.0727   -4.1549 H   0  0  0  0  0  0  0  0  0  0  0  0
   13.1578    9.4514   -6.6037 H   0  0  0  0  0  0  0  0  0  0  0  0
   13.4702   12.1423   -7.5498 H   0  0  0  0  0  0  0  0  0  0  0  0
  2  1  2  0
  3  2  1  0
  4  3  2  0
  4  5  1  0
  5  6  2  0
  6  1  1  0
  1  7  1  0
  2  8  1  0
  3  9  1  0
 10 11  1  0
 11 12  2  0
 11 13  1  0
 13 14  1  0
 14 15  1  0
 15 16  1  0
 16 17  1  0
 16 18  1  0
 18 19  1  0
 18 13  1  0
 13 20  1  6
 15 21  1  1
 16 22  1  6
 17 23  1  0
 18 24  1  1
 19 25  1  0
  5 15  1  0
M  END
>  <Score>  (1) 
-7.16985

$$$$

     RDKit          3D

 24 25  0  0  0  0  0  0  0  0999 V2000
   12.3026    8.1228   -2.3014 C   0  0  0  0  0  0  0  0  0  0  0  0
   12.0215    6.8834   -2.9129 C   0  0  0  0  0  0  0  0  0  0  0  0
   11.5242    6.8983   -4.2255 C   0  0  0  0  0  0  0  0  0  0  0  0
   11.3422    8.1070   -4.8317 N   0  0  0  0  0  0  0  0  0  0  0  0
   11.6241    9.2777   -4.2110 C   0  0  0  0  0  0  0  0  0  0  0  0
   12.1005    9.2818   -2.9555 N   0  0  0  0  0  0  0  0  0  0  0  0
   12.6791    8.0619   -1.3024 H   0  0  0  0  0  0  0  0  0  0  0  0
   12.1698    5.9539   -2.4245 H   0  0  0  0  0  0  0  0  0  0  0  0
   11.3002    5.9674   -4.7188 H   0  0  0  0  0  0  0  0  0  0  0  0
   11.3928   10.4301   -4.9414 O   0  0  0  0  0  0  0  0  0  0  0  0
   11.1918   10.4737   -6.2958 C   0  0  0  0  0  0  0  0  0  0  0  0
   12.2591   10.6223   -7.1325 C   0  0  0  0  0  0  0  0  0  0  0  0
   12.0890   10.6701   -8.5069 C   0  0  0  0  0  0  0  0  0  0  0  0
   10.8209   10.5666   -9.0548 C   0  0  0  0  0  0  0  0  0  0  0  0
   10.6440   10.6188  -10.5361 C   0  0  0  0  0  0  0  0  0  0  0  0
    9.7731   10.4186   -8.1855 C   0  0  0  0  0  0  0  0  0  0  0  0
    9.9309   10.3692   -6.8055 C   0  0  0  0  0  0  0  0  0  0  0  0
   13.2815   10.7078   -6.7378 H   0  0  0  0  0  0  0  0  0  0  0  0
   12.9044   10.7861   -9.2026 H   0  0  0  0  0  0  0  0  0  0  0  0
    9.6213   10.2410  -10.7477 H   0  0  0  0  0  0  0  0  0  0  0  0
   10.7161   11.6519  -10.8812 H   0  0  0  0  0  0  0  0  0  0  0  0
   11.3982    9.9662  -11.0453 H   0  0  0  0  0  0  0  0  0  0  0  0
    8.7586   10.3347   -8.5995 H   0  0  0  0  0  0  0  0  0  0  0  0
    9.0392   10.2496   -6.1998 H   0  0  0  0  0  0  0  0  0  0  0  0
  2  1  2  0
  3  2  1  0
  4  3  2  0
  4  5  1  0
  5  6  2  0
  6  1  1  0
  1  7  1  0
  2  8  1  0
  3  9  1  0
 10 11  1  0
 11 12  2  0
 12 13  1  0
 13 14  2  0
 14 15  1  0
 14 16  1  0
 16 17  2  0
 17 11  1  0
 12 18  1  0
 13 19  1  0
 15 20  1  0
 15 21  1  0
 15 22  1  0
 16 23  1  0
 17 24  1  0
  5 10  1  0
M  END
>  <Score>  (1) 
-7.16614

$$$$

     RDKit          3D

 26 27  0  0  0  0  0  0  0  0999 V2000
   12.3027    8.1237   -2.3012 C   0  0  0  0  0  0  0  0  0  0  0  0
   12.0213    6.8831   -2.9132 C   0  0  0  0  0  0  0  0  0  0  0  0
   11.5241    6.8984   -4.2256 C   0  0  0  0  0  0  0  0  0  0  0  0
   11.3426    8.1074   -4.8308 N   0  0  0  0  0  0  0  0  0  0  0  0
   11.6239    9.2778   -4.2116 C   0  0  0  0  0  0  0  0  0  0  0  0
   12.1004    9.2807   -2.9556 N   0  0  0  0  0  0  0  0  0  0  0  0
   12.6850    8.0874   -1.2894 H   0  0  0  0  0  0  0  0  0  0  0  0
   12.1746    5.9567   -2.4121 H   0  0  0  0  0  0  0  0  0  0  0  0
   11.2880    5.9797   -4.7520 H   0  0  0  0  0  0  0  0  0  0  0  0
   11.3894   10.5516   -4.9630 C   0  0  0  0  0  0  0  0  0  0  0  0
   10.5487   10.3106   -6.1978 C   0  0  0  0  0  0  0  0  0  0  0  0
   10.3132   11.6585   -6.8438 C   0  0  0  0  0  0  0  0  0  0  0  0
   11.6174   12.1907   -7.3695 C   0  0  0  0  0  0  0  0  0  0  0  0
   12.5834   12.3294   -6.2306 C   0  0  0  0  0  0  0  0  0  0  0  0
   12.7143   11.1079   -5.3852 C   0  0  0  0  0  0  0  0  0  0  0  0
   10.8862   11.2441   -4.2873 H   0  0  0  0  0  0  0  0  0  0  0  0
   11.1235    9.6238   -6.8596 H   0  0  0  0  0  0  0  0  0  0  0  0
    9.5636    9.8858   -5.9528 H   0  0  0  0  0  0  0  0  0  0  0  0
   10.0025   12.3563   -6.0136 H   0  0  0  0  0  0  0  0  0  0  0  0
    9.5700   11.6388   -7.6430 H   0  0  0  0  0  0  0  0  0  0  0  0
   12.0161   11.6030   -8.2106 H   0  0  0  0  0  0  0  0  0  0  0  0
   11.4420   13.2297   -7.7733 H   0  0  0  0  0  0  0  0  0  0  0  0
   12.2286   13.1643   -5.5703 H   0  0  0  0  0  0  0  0  0  0  0  0
   13.5885   12.6335   -6.5922 H   0  0  0  0  0  0  0  0  0  0  0  0
   13.3416   10.3181   -5.8635 H   0  0  0  0  0  0  0  0  0  0  0  0
   13.2660   11.4000   -4.4574 H   0  0  0  0  0  0  0  0  0  0  0  0
  2  1  2  0
  3  2  1  0
  4  3  2  0
  4  5  1  0
  5  6  2  0
  6  1  1  0
  1  7  1  0
  2  8  1  0
  3  9  1  0
 10 11  1  0
 11 12  1  0
 12 13  1  0
 13 14  1  0
 14 15  1  0
 15 10  1  0
 10 16  1  0
 11 17  1  0
 11 18  1  0
 12 19  1  0
 12 20  1  0
 13 21  1  0
 13 22  1  0
 14 23  1  0
 14 24  1  0
 15 25  1  0
 15 26  1  0
  5 10  1  0
M  END
>  <Score>  (1) 
-7.16408

$$$$

     RDKit          3D

 26 27  0  0  0  0  0  0  0  0999 V2000
   12.3032    8.1184   -2.2993 C   0  0  0  0  0  0  0  0  0  0  0  0
   12.0203    6.8854   -2.9162 C   0  0  0  0  0  0  0  0  0  0  0  0
   11.5269    6.9010   -4.2186 C   0  0  0  0  0  0  0  0  0  0  0  0
   11.3438    8.1035   -4.8273 N   0  0  0  0  0  0  0  0  0  0  0  0
   11.6249    9.2910   -4.2103 C   0  0  0  0  0  0  0  0  0  0  0  0
   12.0959    9.2718   -2.9664 N   0  0  0  0  0  0  0  0  0  0  0  0
   12.6855    8.0812   -1.2875 H   0  0  0  0  0  0  0  0  0  0  0  0
   12.1954    5.9810   -2.3598 H   0  0  0  0  0  0  0  0  0  0  0  0
   11.3080    5.9723   -4.6987 H   0  0  0  0  0  0  0  0  0  0  0  0
   11.3969   10.4753   -4.9352 N   0  0  0  0  0  0  0  0  0  0  0  0
   11.1849   10.6021   -6.3289 C   0  0  0  0  0  0  0  0  0  0  0  0
   10.9791   11.9036   -6.8133 C   0  0  0  0  0  0  0  0  0  0  0  0
   10.7637   12.1398   -8.1497 C   0  0  0  0  0  0  0  0  0  0  0  0
   10.7515   11.0659   -9.0275 C   0  0  0  0  0  0  0  0  0  0  0  0
   10.9479    9.7747   -8.6018 C   0  0  0  0  0  0  0  0  0  0  0  0
   10.9268    8.7385   -9.5144 O   0  0  0  0  0  0  0  0  0  0  0  0
   11.1135    7.3944   -9.1951 C   0  0  0  0  0  0  0  0  0  0  0  0
   11.1633    9.5766   -7.2365 C   0  0  0  0  0  0  0  0  0  0  0  0
   11.3883   11.3681   -4.3349 H   0  0  0  0  0  0  0  0  0  0  0  0
   10.9859   12.7611   -6.1325 H   0  0  0  0  0  0  0  0  0  0  0  0
   10.6098   13.1603   -8.4775 H   0  0  0  0  0  0  0  0  0  0  0  0
   10.5833   11.2561  -10.0674 H   0  0  0  0  0  0  0  0  0  0  0  0
   12.0372    7.2047   -8.5982 H   0  0  0  0  0  0  0  0  0  0  0  0
   10.2780    6.9564   -8.6116 H   0  0  0  0  0  0  0  0  0  0  0  0
   11.2526    6.8254  -10.1452 H   0  0  0  0  0  0  0  0  0  0  0  0
   11.3133    8.5772   -6.9205 H   0  0  0  0  0  0  0  0  0  0  0  0
  2  1  2  0
  3  2  1  0
  4  3  2  0
  4  5  1  0
  5  6  2  0
  6  1  1  0
  1  7  1  0
  2  8  1  0
  3  9  1  0
 10 11  1  0
 11 12  2  0
 12 13  1  0
 13 14  2  0
 14 15  1  0
 15 16  1  0
 16 17  1  0
 15 18  2  0
 18 11  1  0
 10 19  1  0
 12 20  1  0
 13 21  1  0
 14 22  1  0
 17 23  1  0
 17 24  1  0
 17 25  1  0
 18 26  1  0
  5 10  1  0
M  END
>  <Score>  (1) 
-7.16345

$$$$

     RDKit          3D

 24 26  0  0  0  0  0  0  0  0999 V2000
   12.3025    8.1245   -2.3018 C   0  0  0  0  0  0  0  0  0  0  0  0
   12.0213    6.8829   -2.9132 C   0  0  0  0  0  0  0  0  0  0  0  0
   11.5243    6.8975   -4.2251 C   0  0  0  0  0  0  0  0  0  0  0  0
   11.3426    8.1094   -4.8311 N   0  0  0  0  0  0  0  0  0  0  0  0
   11.6231    9.2762   -4.2136 C   0  0  0  0  0  0  0  0  0  0  0  0
   12.1013    9.2805   -2.9533 N   0  0  0  0  0  0  0  0  0  0  0  0
   12.6872    8.1373   -1.2888 H   0  0  0  0  0  0  0  0  0  0  0  0
   12.1818    5.9558   -2.3930 H   0  0  0  0  0  0  0  0  0  0  0  0
   11.2955    5.9749   -4.7318 H   0  0  0  0  0  0  0  0  0  0  0  0
   11.4134   10.5125   -4.8955 N   0  0  0  0  0  0  0  0  0  0  0  0
   10.7796   11.6915   -4.3294 C   0  0  0  0  0  0  0  0  0  0  0  0
   11.0125   12.7183   -5.4185 C   0  0  2  0  0  0  0  0  0  0  0  0
   10.6780   11.8132   -6.6230 C   0  0  0  0  0  0  0  0  0  0  0  0
   11.7878   10.8106   -6.2518 C   0  0  1  0  0  0  0  0  0  0  0  0
   12.9192   11.8154   -6.1899 C   0  0  0  0  0  0  0  0  0  0  0  0
   12.3646   12.9374   -5.6011 O   0  0  0  0  0  0  0  0  0  0  0  0
   11.1884   11.9829   -3.3580 H   0  0  0  0  0  0  0  0  0  0  0  0
    9.6863   11.4583   -4.2901 H   0  0  0  0  0  0  0  0  0  0  0  0
   10.3957   13.5923   -5.3660 H   0  0  0  0  0  0  0  0  0  0  0  0
    9.6841   11.3757   -6.5237 H   0  0  0  0  0  0  0  0  0  0  0  0
   10.8896   12.3226   -7.5621 H   0  0  0  0  0  0  0  0  0  0  0  0
   11.8993   10.0044   -6.9282 H   0  0  0  0  0  0  0  0  0  0  0  0
   13.8046   11.4253   -5.6589 H   0  0  0  0  0  0  0  0  0  0  0  0
   13.1559   12.0736   -7.2551 H   0  0  0  0  0  0  0  0  0  0  0  0
  2  1  2  0
  3  2  1  0
  4  3  2  0
  4  5  1  0
  5  6  2  0
  6  1  1  0
  1  7  1  0
  2  8  1  0
  3  9  1  0
 10 11  1  0
 11 12  1  0
 12 13  1  0
 13 14  1  0
 14 15  1  0
 15 16  1  0
 14 10  1  0
 16 12  1  0
 11 17  1  0
 11 18  1  0
 12 19  1  1
 13 20  1  0
 13 21  1  0
 14 22  1  6
 15 23  1  0
 15 24  1  0
  5 10  1  0
M  END
>  <Score>  (1) 
-7.16245

$$$$

     RDKit          3D

 32 34  0  0  0  0  0  0  0  0999 V2000
   12.3022    8.1206   -2.3020 C   0  0  0  0  0  0  0  0  0  0  0  0
   12.0226    6.8847   -2.9099 C   0  0  0  0  0  0  0  0  0  0  0  0
   11.5234    6.8983   -4.2275 C   0  0  0  0  0  0  0  0  0  0  0  0
   11.3426    8.1080   -4.8308 N   0  0  0  0  0  0  0  0  0  0  0  0
   11.6244    9.2773   -4.2103 C   0  0  0  0  0  0  0  0  0  0  0  0
   12.0997    9.2820   -2.9575 N   0  0  0  0  0  0  0  0  0  0  0  0
   12.6827    8.0588   -1.2925 H   0  0  0  0  0  0  0  0  0  0  0  0
   12.1703    5.9518   -2.4231 H   0  0  0  0  0  0  0  0  0  0  0  0
   11.2946    5.9749   -4.7341 H   0  0  0  0  0  0  0  0  0  0  0  0
   11.4153   10.5565   -4.8954 C   0  0  2  0  0  0  0  0  0  0  0  0
    9.9854   10.7758   -5.3179 C   0  0  0  0  0  0  0  0  0  0  0  0
    9.5224    9.9135   -5.8026 H   0  0  0  0  0  0  0  0  0  0  0  0
    9.8881   12.0413   -6.1030 C   0  0  0  0  0  0  0  0  0  0  0  0
   10.9691   12.2232   -7.1202 C   0  0  2  0  0  0  0  0  0  0  0  0
   10.9119   11.0461   -8.0849 C   0  0  0  0  0  0  0  0  0  0  0  0
   11.6585    9.9811   -7.3210 C   0  0  0  0  0  0  0  0  0  0  0  0
   12.2833   10.6845   -6.1441 C   0  0  1  0  0  0  0  0  0  0  0  0
   12.2563   12.1138   -6.4791 N   0  0  0  0  0  0  0  0  0  0  0  0
   13.3551   12.4979   -7.3043 C   0  0  0  0  0  0  0  0  0  0  0  0
   11.6947   11.4124   -4.2484 H   0  0  0  0  0  0  0  0  0  0  0  0
    9.4046   10.9401   -4.3631 H   0  0  0  0  0  0  0  0  0  0  0  0
    9.8995   12.9319   -5.4154 H   0  0  0  0  0  0  0  0  0  0  0  0
    8.9138   12.0228   -6.6629 H   0  0  0  0  0  0  0  0  0  0  0  0
   10.8185   13.1875   -7.6226 H   0  0  0  0  0  0  0  0  0  0  0  0
    9.8552   10.7748   -8.2608 H   0  0  0  0  0  0  0  0  0  0  0  0
   11.4269   11.3399   -9.0282 H   0  0  0  0  0  0  0  0  0  0  0  0
   12.4264    9.5594   -8.0114 H   0  0  0  0  0  0  0  0  0  0  0  0
   10.9897    9.1768   -7.0134 H   0  0  0  0  0  0  0  0  0  0  0  0
   13.2958   10.3088   -5.9900 H   0  0  0  0  0  0  0  0  0  0  0  0
   13.9980   11.6327   -7.6255 H   0  0  0  0  0  0  0  0  0  0  0  0
   14.0444   13.1216   -6.6651 H   0  0  0  0  0  0  0  0  0  0  0  0
   13.0835   13.1501   -8.1582 H   0  0  0  0  0  0  0  0  0  0  0  0
  2  1  2  0
  3  2  1  0
  4  3  2  0
  4  5  1  0
  5  6  2  0
  6  1  1  0
  1  7  1  0
  2  8  1  0
  3  9  1  0
 10 11  1  0
 11 12  1  0
 11 13  1  0
 13 14  1  0
 14 15  1  0
 15 16  1  0
 16 17  1  0
 17 18  1  0
 18 19  1  0
 17 10  1  0
 18 14  1  0
 10 20  1  1
 11 21  1  0
 13 22  1  0
 13 23  1  0
 14 24  1  6
 15 25  1  0
 15 26  1  0
 16 27  1  0
 16 28  1  0
 17 29  1  1
 19 30  1  0
 19 31  1  0
 19 32  1  0
  5 10  1  0
M  END
>  <Score>  (1) 
-7.15899

$$$$

     RDKit          3D

 27 28  0  0  0  0  0  0  0  0999 V2000
   12.3027    8.1248   -2.3014 C   0  0  0  0  0  0  0  0  0  0  0  0
   12.0203    6.8825   -2.9159 C   0  0  0  0  0  0  0  0  0  0  0  0
   11.5256    6.8953   -4.2215 C   0  0  0  0  0  0  0  0  0  0  0  0
   11.3424    8.1130   -4.8318 N   0  0  0  0  0  0  0  0  0  0  0  0
   11.6227    9.2744   -4.2142 C   0  0  0  0  0  0  0  0  0  0  0  0
   12.1013    9.2810   -2.9531 N   0  0  0  0  0  0  0  0  0  0  0  0
   12.6877    8.0931   -1.2830 H   0  0  0  0  0  0  0  0  0  0  0  0
   12.1916    5.9673   -2.3686 H   0  0  0  0  0  0  0  0  0  0  0  0
   11.3020    5.9709   -4.7143 H   0  0  0  0  0  0  0  0  0  0  0  0
   11.4098   10.4778   -4.9015 N   0  0  0  0  0  0  0  0  0  0  0  0
   10.1099   10.8631   -5.3889 C   0  0  0  0  0  0  0  0  0  0  0  0
   10.0799   12.3782   -5.4389 C   0  0  0  0  0  0  0  0  0  0  0  0
   11.0645   12.8653   -6.4599 C   0  0  0  0  0  0  0  0  0  0  0  0
   12.3012   12.0178   -6.4871 C   0  0  1  0  0  0  0  0  0  0  0  0
   13.4564   12.7782   -6.9206 N   0  0  0  0  0  0  0  0  0  0  0  0
   12.5133   11.3871   -5.1464 C   0  0  0  0  0  0  0  0  0  0  0  0
    9.8909   10.4245   -6.3777 H   0  0  0  0  0  0  0  0  0  0  0  0
    9.3367   10.4835   -4.6904 H   0  0  0  0  0  0  0  0  0  0  0  0
   10.3249   12.7331   -4.4137 H   0  0  0  0  0  0  0  0  0  0  0  0
    9.0738   12.7247   -5.7574 H   0  0  0  0  0  0  0  0  0  0  0  0
   10.5934   12.9404   -7.4702 H   0  0  0  0  0  0  0  0  0  0  0  0
   11.3805   13.8969   -6.1539 H   0  0  0  0  0  0  0  0  0  0  0  0
   12.1396   11.2212   -7.2665 H   0  0  0  0  0  0  0  0  0  0  0  0
   14.3021   12.2171   -6.6905 H   0  0  0  0  0  0  0  0  0  0  0  0
   13.3993   12.8556   -7.9563 H   0  0  0  0  0  0  0  0  0  0  0  0
   13.4686   10.8457   -5.0580 H   0  0  0  0  0  0  0  0  0  0  0  0
   12.5010   12.1741   -4.3685 H   0  0  0  0  0  0  0  0  0  0  0  0
  2  1  2  0
  3  2  1  0
  4  3  2  0
  4  5  1  0
  5  6  2  0
  6  1  1  0
  1  7  1  0
  2  8  1  0
  3  9  1  0
 10 11  1  0
 11 12  1  0
 12 13  1  0
 13 14  1  0
 14 15  1  0
 14 16  1  0
 16 10  1  0
 11 17  1  0
 11 18  1  0
 12 19  1  0
 12 20  1  0
 13 21  1  0
 13 22  1  0
 14 23  1  6
 15 24  1  0
 15 25  1  0
 16 26  1  0
 16 27  1  0
  5 10  1  0
M  END
>  <Score>  (1) 
-7.15891

$$$$

     RDKit          3D

 23 25  0  0  0  0  0  0  0  0999 V2000
   12.3024    8.1201   -2.3015 C   0  0  0  0  0  0  0  0  0  0  0  0
   12.0227    6.8852   -2.9099 C   0  0  0  0  0  0  0  0  0  0  0  0
   11.5230    6.9000   -4.2288 C   0  0  0  0  0  0  0  0  0  0  0  0
   11.3424    8.1043   -4.8310 N   0  0  0  0  0  0  0  0  0  0  0  0
   11.6248    9.2787   -4.2094 C   0  0  0  0  0  0  0  0  0  0  0  0
   12.0998    9.2826   -2.9574 N   0  0  0  0  0  0  0  0  0  0  0  0
   12.6842    8.0798   -1.2906 H   0  0  0  0  0  0  0  0  0  0  0  0
   12.1729    5.9514   -2.4161 H   0  0  0  0  0  0  0  0  0  0  0  0
   11.2890    5.9973   -4.7514 H   0  0  0  0  0  0  0  0  0  0  0  0
   11.4012   10.5397   -4.9309 C   0  0  0  0  0  0  0  0  0  0  0  0
   11.0684   11.7491   -4.3622 C   0  0  0  0  0  0  0  0  0  0  0  0
   10.9566   12.6528   -5.3943 C   0  0  0  0  0  0  0  0  0  0  0  0
   10.6498   13.9968   -5.4343 C   0  0  0  0  0  0  0  0  0  0  0  0
   10.6218   14.6160   -6.6606 C   0  0  0  0  0  0  0  0  0  0  0  0
   10.8874   13.9451   -7.8372 C   0  0  0  0  0  0  0  0  0  0  0  0
   11.1950   12.5945   -7.7901 C   0  0  0  0  0  0  0  0  0  0  0  0
   11.2271   11.9519   -6.5517 C   0  0  0  0  0  0  0  0  0  0  0  0
   11.4888   10.6871   -6.2262 O   0  0  0  0  0  0  0  0  0  0  0  0
   10.9211   11.9619   -3.3175 H   0  0  0  0  0  0  0  0  0  0  0  0
   10.4465   14.4985   -4.5042 H   0  0  0  0  0  0  0  0  0  0  0  0
   10.3865   15.6659   -6.7373 H   0  0  0  0  0  0  0  0  0  0  0  0
   10.8662   14.4315   -8.8088 H   0  0  0  0  0  0  0  0  0  0  0  0
   11.4078   12.0481   -8.7125 H   0  0  0  0  0  0  0  0  0  0  0  0
  2  1  2  0
  3  2  1  0
  4  3  2  0
  4  5  1  0
  5  6  2  0
  6  1  1  0
  1  7  1  0
  2  8  1  0
  3  9  1  0
 10 11  2  0
 11 12  1  0
 12 13  2  0
 13 14  1  0
 14 15  2  0
 15 16  1  0
 16 17  2  0
 17 18  1  0
 18 10  1  0
 17 12  1  0
 11 19  1  0
 13 20  1  0
 14 21  1  0
 15 22  1  0
 16 23  1  0
  5 10  1  0
M  END
>  <Score>  (1) 
-8.04483

$$$$

     RDKit          3D

 27 28  0  0  0  0  0  0  0  0999 V2000
   12.3026    8.1252   -2.3017 C   0  0  0  0  0  0  0  0  0  0  0  0
   12.0210    6.8824   -2.9140 C   0  0  0  0  0  0  0  0  0  0  0  0
   11.5244    6.8982   -4.2248 C   0  0  0  0  0  0  0  0  0  0  0  0
   11.3424    8.1079   -4.8314 N   0  0  0  0  0  0  0  0  0  0  0  0
   11.6233    9.2770   -4.2130 C   0  0  0  0  0  0  0  0  0  0  0  0
   12.1013    9.2804   -2.9531 N   0  0  0  0  0  0  0  0  0  0  0  0
   12.6781    8.0887   -1.3078 H   0  0  0  0  0  0  0  0  0  0  0  0
   12.1719    5.9563   -2.4194 H   0  0  0  0  0  0  0  0  0  0  0  0
   11.2904    5.9737   -4.7451 H   0  0  0  0  0  0  0  0  0  0  0  0
   11.3802   10.5155   -4.9836 C   0  0  2  0  0  0  0  0  0  0  0  0
   10.1871   10.5417   -5.6496 O   0  0  0  0  0  0  0  0  0  0  0  0
   10.3597   11.0793   -6.8961 C   0  0  2  0  0  0  0  0  0  0  0  0
   10.3950    9.9642   -7.9543 C   0  0  0  0  0  0  0  0  0  0  0  0
    9.2029    9.2533   -7.9324 O   0  0  0  0  0  0  0  0  0  0  0  0
   11.7352   11.7220   -6.9398 C   0  0  1  0  0  0  0  0  0  0  0  0
   11.6838   13.0004   -6.3874 O   0  0  0  0  0  0  0  0  0  0  0  0
   12.4743   10.7898   -5.9864 C   0  0  1  0  0  0  0  0  0  0  0  0
   13.5665   11.4334   -5.4113 O   0  0  0  0  0  0  0  0  0  0  0  0
   11.3834   11.3952   -4.2751 H   0  0  0  0  0  0  0  0  0  0  0  0
    9.5600   11.8079   -7.1389 H   0  0  0  0  0  0  0  0  0  0  0  0
   10.4995   10.3883   -8.9663 H   0  0  0  0  0  0  0  0  0  0  0  0
   11.2662    9.3098   -7.7889 H   0  0  0  0  0  0  0  0  0  0  0  0
    9.3082    8.3557   -7.5467 H   0  0  0  0  0  0  0  0  0  0  0  0
   12.1707   11.7058   -7.9535 H   0  0  0  0  0  0  0  0  0  0  0  0
   10.9054   13.0266   -5.7555 H   0  0  0  0  0  0  0  0  0  0  0  0
   12.7819    9.8824   -6.5498 H   0  0  0  0  0  0  0  0  0  0  0  0
   14.3560   11.2281   -5.9568 H   0  0  0  0  0  0  0  0  0  0  0  0
  2  1  2  0
  3  2  1  0
  4  3  2  0
  4  5  1  0
  5  6  2  0
  6  1  1  0
  1  7  1  0
  2  8  1  0
  3  9  1  0
 10 11  1  0
 11 12  1  0
 12 13  1  0
 13 14  1  0
 12 15  1  0
 15 16  1  0
 15 17  1  0
 17 18  1  0
 17 10  1  0
 10 19  1  1
 12 20  1  6
 13 21  1  0
 13 22  1  0
 14 23  1  0
 15 24  1  6
 16 25  1  0
 17 26  1  6
 18 27  1  0
  5 10  1  0
M  END
>  <Score>  (1) 
-7.15417

$$$$

     RDKit          3D

 29 31  0  0  0  0  0  0  0  0999 V2000
   12.3024    8.1212   -2.3016 C   0  0  0  0  0  0  0  0  0  0  0  0
   12.0212    6.8849   -2.9138 C   0  0  0  0  0  0  0  0  0  0  0  0
   11.5249    6.8968   -4.2236 C   0  0  0  0  0  0  0  0  0  0  0  0
   11.3422    8.1089   -4.8320 N   0  0  0  0  0  0  0  0  0  0  0  0
   11.6236    9.2770   -4.2122 C   0  0  0  0  0  0  0  0  0  0  0  0
   12.1008    9.2822   -2.9548 N   0  0  0  0  0  0  0  0  0  0  0  0
   12.6832    8.0656   -1.2920 H   0  0  0  0  0  0  0  0  0  0  0  0
   12.1803    5.9488   -2.3964 H   0  0  0  0  0  0  0  0  0  0  0  0
   11.2989    5.9712   -4.7224 H   0  0  0  0  0  0  0  0  0  0  0  0
   11.4074   10.5414   -4.9145 C   0  0  2  0  0  0  0  0  0  0  0  0
    9.9762   10.7542   -5.3456 C   0  0  0  0  0  0  0  0  0  0  0  0
    9.9145   11.4881   -6.5699 N   0  0  0  0  0  0  0  0  0  0  0  0
   10.2623   10.5855   -7.6722 C   0  0  0  0  0  0  0  0  0  0  0  0
   11.5811    9.9649   -7.3369 C   0  0  0  0  0  0  0  0  0  0  0  0
   12.2622   10.6661   -6.1701 C   0  0  0  0  0  0  0  0  0  0  0  0
   12.2791   12.1535   -6.5074 C   0  0  0  0  0  0  0  0  0  0  0  0
   10.8433   12.5944   -6.6368 C   0  0  0  0  0  0  0  0  0  0  0  0
   11.6849   11.4031   -4.2732 H   0  0  0  0  0  0  0  0  0  0  0  0
    9.4119   11.2040   -4.5154 H   0  0  0  0  0  0  0  0  0  0  0  0
    9.5486    9.7326   -5.5190 H   0  0  0  0  0  0  0  0  0  0  0  0
    9.4484    9.8652   -7.8448 H   0  0  0  0  0  0  0  0  0  0  0  0
   10.3074   11.2342   -8.5870 H   0  0  0  0  0  0  0  0  0  0  0  0
   11.4608    8.8789   -7.1398 H   0  0  0  0  0  0  0  0  0  0  0  0
   12.2600   10.0792   -8.2069 H   0  0  0  0  0  0  0  0  0  0  0  0
   13.2612   10.2490   -6.0461 H   0  0  0  0  0  0  0  0  0  0  0  0
   12.7433   12.6490   -5.6115 H   0  0  0  0  0  0  0  0  0  0  0  0
   12.8758   12.3461   -7.4064 H   0  0  0  0  0  0  0  0  0  0  0  0
   10.5726   13.4120   -5.9570 H   0  0  0  0  0  0  0  0  0  0  0  0
   10.7389   13.0180   -7.6768 H   0  0  0  0  0  0  0  0  0  0  0  0
  2  1  2  0
  3  2  1  0
  4  3  2  0
  4  5  1  0
  5  6  2  0
  6  1  1  0
  1  7  1  0
  2  8  1  0
  3  9  1  0
 10 11  1  0
 11 12  1  0
 12 13  1  0
 13 14  1  0
 14 15  1  0
 15 16  1  0
 16 17  1  0
 15 10  1  0
 17 12  1  0
 10 18  1  1
 11 19  1  0
 11 20  1  0
 13 21  1  0
 13 22  1  0
 14 23  1  0
 14 24  1  0
 15 25  1  0
 16 26  1  0
 16 27  1  0
 17 28  1  0
 17 29  1  0
  5 10  1  0
M  END
>  <Score>  (1) 
-7.153

$$$$

     RDKit          3D

 21 22  0  0  0  0  0  0  0  0999 V2000
   12.3015    8.1238   -2.3044 C   0  0  0  0  0  0  0  0  0  0  0  0
   12.0226    6.8844   -2.9101 C   0  0  0  0  0  0  0  0  0  0  0  0
   11.5234    6.8998   -4.2276 C   0  0  0  0  0  0  0  0  0  0  0  0
   11.3422    8.1055   -4.8315 N   0  0  0  0  0  0  0  0  0  0  0  0
   11.6236    9.2778   -4.2123 C   0  0  0  0  0  0  0  0  0  0  0  0
   12.1017    9.2798   -2.9521 N   0  0  0  0  0  0  0  0  0  0  0  0
   12.6866    8.1839   -1.2953 H   0  0  0  0  0  0  0  0  0  0  0  0
   12.1869    5.9636   -2.3805 H   0  0  0  0  0  0  0  0  0  0  0  0
   11.3053    5.9625   -4.7046 H   0  0  0  0  0  0  0  0  0  0  0  0
   11.4078   10.5227   -4.9114 C   0  0  0  0  0  0  0  0  0  0  0  0
   12.4638   11.3863   -5.1373 C   0  0  0  0  0  0  0  0  0  0  0  0
   12.3202   12.5578   -5.7825 N   0  0  0  0  0  0  0  0  0  0  0  0
   11.1206   12.9492   -6.2455 C   0  0  0  0  0  0  0  0  0  0  0  0
   11.0332   14.1786   -6.9089 N   0  0  0  0  0  0  0  0  0  0  0  0
   10.0407   12.1055   -6.0352 C   0  0  0  0  0  0  0  0  0  0  0  0
    9.0834   12.4351   -6.4138 H   0  0  0  0  0  0  0  0  0  0  0  0
   10.1783   10.9005   -5.3738 C   0  0  0  0  0  0  0  0  0  0  0  0
   13.4532   11.0810   -4.7646 H   0  0  0  0  0  0  0  0  0  0  0  0
   10.6593   15.0270   -6.4453 H   0  0  0  0  0  0  0  0  0  0  0  0
   11.3494   14.2526   -7.8933 H   0  0  0  0  0  0  0  0  0  0  0  0
    9.3274   10.2436   -5.2123 H   0  0  0  0  0  0  0  0  0  0  0  0
  2  1  2  0
  3  2  1  0
  4  3  2  0
  4  5  1  0
  5  6  2  0
  6  1  1  0
  1  7  1  0
  2  8  1  0
  3  9  1  0
 10 11  2  0
 11 12  1  0
 12 13  2  0
 13 14  1  0
 13 15  1  0
 15 16  1  0
 15 17  2  0
 17 10  1  0
 11 18  1  0
 14 19  1  0
 14 20  1  0
 17 21  1  0
  5 10  1  0
M  END
>  <Score>  (1) 
-7.14995

$$$$

     RDKit          3D

 24 25  0  0  0  0  0  0  0  0999 V2000
   12.3024    8.1196   -2.3015 C   0  0  0  0  0  0  0  0  0  0  0  0
   12.0221    6.8856   -2.9114 C   0  0  0  0  0  0  0  0  0  0  0  0
   11.5238    6.8988   -4.2266 C   0  0  0  0  0  0  0  0  0  0  0  0
   11.3425    8.1054   -4.8308 N   0  0  0  0  0  0  0  0  0  0  0  0
   11.6244    9.2796   -4.2106 C   0  0  0  0  0  0  0  0  0  0  0  0
   12.0998    9.2821   -2.9573 N   0  0  0  0  0  0  0  0  0  0  0  0
   12.6848    8.0733   -1.2886 H   0  0  0  0  0  0  0  0  0  0  0  0
   12.1758    5.9629   -2.4097 H   0  0  0  0  0  0  0  0  0  0  0  0
   11.3019    5.9648   -4.7138 H   0  0  0  0  0  0  0  0  0  0  0  0
   11.3998   10.4910   -4.9198 N   0  0  0  0  0  0  0  0  0  0  0  0
   12.0969   10.7178   -6.1471 C   0  0  0  0  0  0  0  0  0  0  0  0
   11.8011    9.7419   -7.2061 C   0  0  0  0  0  0  0  0  0  0  0  0
   12.5822    9.7877   -8.3496 C   0  0  0  0  0  0  0  0  0  0  0  0
   12.2968    8.8690   -9.3436 C   0  0  0  0  0  0  0  0  0  0  0  0
   11.2928    7.9616   -9.2020 N   0  0  0  0  0  0  0  0  0  0  0  0
   10.5375    7.9221   -8.0891 C   0  0  0  0  0  0  0  0  0  0  0  0
   10.7969    8.8296   -7.0722 C   0  0  0  0  0  0  0  0  0  0  0  0
   10.7457   11.2038   -4.5650 H   0  0  0  0  0  0  0  0  0  0  0  0
   11.9411   11.7664   -6.4754 H   0  0  0  0  0  0  0  0  0  0  0  0
   13.2076   10.6596   -5.9431 H   0  0  0  0  0  0  0  0  0  0  0  0
   13.3792   10.5060   -8.4650 H   0  0  0  0  0  0  0  0  0  0  0  0
   12.9135    8.9099  -10.2389 H   0  0  0  0  0  0  0  0  0  0  0  0
    9.7344    7.2094   -7.9553 H   0  0  0  0  0  0  0  0  0  0  0  0
   10.1872    8.7901   -6.1911 H   0  0  0  0  0  0  0  0  0  0  0  0
  2  1  2  0
  3  2  1  0
  4  3  2  0
  4  5  1  0
  5  6  2  0
  6  1  1  0
  1  7  1  0
  2  8  1  0
  3  9  1  0
 10 11  1  0
 11 12  1  0
 12 13  2  0
 13 14  1  0
 14 15  2  0
 15 16  1  0
 16 17  2  0
 17 12  1  0
 10 18  1  0
 11 19  1  0
 11 20  1  0
 13 21  1  0
 14 22  1  0
 16 23  1  0
 17 24  1  0
  5 10  1  0
M  END
>  <Score>  (1) 
-7.14889

$$$$

     RDKit          3D

 22 23  0  0  0  0  0  0  0  0999 V2000
   12.3029    8.1251   -2.3008 C   0  0  0  0  0  0  0  0  0  0  0  0
   12.0206    6.8815   -2.9150 C   0  0  0  0  0  0  0  0  0  0  0  0
   11.5247    6.8984   -4.2241 C   0  0  0  0  0  0  0  0  0  0  0  0
   11.3427    8.1078   -4.8306 N   0  0  0  0  0  0  0  0  0  0  0  0
   11.6238    9.2778   -4.2119 C   0  0  0  0  0  0  0  0  0  0  0  0
   12.1003    9.2803   -2.9557 N   0  0  0  0  0  0  0  0  0  0  0  0
   12.6864    8.0906   -1.2862 H   0  0  0  0  0  0  0  0  0  0  0  0
   12.1755    5.9581   -2.4099 H   0  0  0  0  0  0  0  0  0  0  0  0
   11.3003    5.9645   -4.7182 H   0  0  0  0  0  0  0  0  0  0  0  0
   11.4195   10.5550   -4.8841 C   0  0  0  0  0  0  0  0  0  0  0  0
   11.2289   10.6491   -6.2493 C   0  0  0  0  0  0  0  0  0  0  0  0
   11.0364   11.8587   -6.8788 C   0  0  0  0  0  0  0  0  0  0  0  0
   11.0363   12.9992   -6.1130 C   0  0  0  0  0  0  0  0  0  0  0  0
   10.8285   14.3181   -6.7832 C   0  0  0  0  0  0  0  0  0  0  0  0
   11.2253   12.9114   -4.7561 C   0  0  0  0  0  0  0  0  0  0  0  0
   11.4077   11.7066   -4.1992 N   0  0  0  0  0  0  0  0  0  0  0  0
   11.2278    9.7556   -6.8574 H   0  0  0  0  0  0  0  0  0  0  0  0
   10.8859   11.9580   -7.9397 H   0  0  0  0  0  0  0  0  0  0  0  0
    9.8156   14.7119   -6.5561 H   0  0  0  0  0  0  0  0  0  0  0  0
   10.9145   14.2113   -7.8707 H   0  0  0  0  0  0  0  0  0  0  0  0
   11.5915   15.0632   -6.4467 H   0  0  0  0  0  0  0  0  0  0  0  0
   11.2257   13.8207   -4.1419 H   0  0  0  0  0  0  0  0  0  0  0  0
  2  1  2  0
  3  2  1  0
  4  3  2  0
  4  5  1  0
  5  6  2  0
  6  1  1  0
  1  7  1  0
  2  8  1  0
  3  9  1  0
 10 11  2  0
 11 12  1  0
 12 13  2  0
 13 14  1  0
 13 15  1  0
 15 16  2  0
 16 10  1  0
 11 17  1  0
 12 18  1  0
 14 19  1  0
 14 20  1  0
 14 21  1  0
 15 22  1  0
  5 10  1  0
M  END
>  <Score>  (1) 
-7.14788

$$$$

     RDKit          3D

 20 21  0  0  0  0  0  0  0  0999 V2000
   12.3028    8.1253   -2.3011 C   0  0  0  0  0  0  0  0  0  0  0  0
   12.0211    6.8818   -2.9135 C   0  0  0  0  0  0  0  0  0  0  0  0
   11.5240    6.8998   -4.2262 C   0  0  0  0  0  0  0  0  0  0  0  0
   11.3430    8.1057   -4.8294 N   0  0  0  0  0  0  0  0  0  0  0  0
   11.6237    9.2793   -4.2123 C   0  0  0  0  0  0  0  0  0  0  0  0
   12.1004    9.2792   -2.9555 N   0  0  0  0  0  0  0  0  0  0  0  0
   12.6875    8.1225   -1.2866 H   0  0  0  0  0  0  0  0  0  0  0  0
   12.1786    5.9552   -2.4014 H   0  0  0  0  0  0  0  0  0  0  0  0
   11.3026    5.9626   -4.7118 H   0  0  0  0  0  0  0  0  0  0  0  0
   11.3928   10.4731   -4.9459 N   0  0  0  0  0  0  0  0  0  0  0  0
   11.1929   10.4647   -6.3513 C   0  0  0  0  0  0  0  0  0  0  0  0
   11.2102    9.3252   -7.0724 N   0  0  0  0  0  0  0  0  0  0  0  0
   11.0246    9.2856   -8.4009 C   0  0  0  0  0  0  0  0  0  0  0  0
   10.8051   10.4770   -9.0567 C   0  0  0  0  0  0  0  0  0  0  0  0
   10.6165   10.4375  -10.4058 F   0  0  0  0  0  0  0  0  0  0  0  0
   10.7810   11.6592   -8.3517 C   0  0  0  0  0  0  0  0  0  0  0  0
   10.6069   12.5935   -8.8801 H   0  0  0  0  0  0  0  0  0  0  0  0
   10.9779   11.5998   -7.0174 N   0  0  0  0  0  0  0  0  0  0  0  0
   11.3711   11.3760   -4.4299 H   0  0  0  0  0  0  0  0  0  0  0  0
   11.0486    8.3286   -8.9405 H   0  0  0  0  0  0  0  0  0  0  0  0
  2  1  2  0
  3  2  1  0
  4  3  2  0
  4  5  1  0
  5  6  2  0
  6  1  1  0
  1  7  1  0
  2  8  1  0
  3  9  1  0
 10 11  1  0
 11 12  2  0
 12 13  1  0
 13 14  2  0
 14 15  1  0
 14 16  1  0
 16 17  1  0
 16 18  2  0
 18 11  1  0
 10 19  1  0
 13 20  1  0
  5 10  1  0
M  END
>  <Score>  (1) 
-7.14732

$$$$

     RDKit          3D

 19 20  0  0  0  0  0  0  0  0999 V2000
   12.3029    8.1231   -2.3005 C   0  0  0  0  0  0  0  0  0  0  0  0
   12.0210    6.8821   -2.9141 C   0  0  0  0  0  0  0  0  0  0  0  0
   11.5243    6.9005   -4.2254 C   0  0  0  0  0  0  0  0  0  0  0  0
   11.3424    8.1048   -4.8310 N   0  0  0  0  0  0  0  0  0  0  0  0
   11.6246    9.2783   -4.2098 C   0  0  0  0  0  0  0  0  0  0  0  0
   12.0998    9.2822   -2.9572 N   0  0  0  0  0  0  0  0  0  0  0  0
   12.6842    8.0661   -1.2894 H   0  0  0  0  0  0  0  0  0  0  0  0
   12.1908    5.9767   -2.3716 H   0  0  0  0  0  0  0  0  0  0  0  0
   11.3084    5.9611   -4.6964 H   0  0  0  0  0  0  0  0  0  0  0  0
   11.4069   10.5442   -4.9163 C   0  0  0  0  0  0  0  0  0  0  0  0
   11.2182   10.5738   -6.2750 C   0  0  0  0  0  0  0  0  0  0  0  0
   11.0114   11.7683   -6.9519 C   0  0  0  0  0  0  0  0  0  0  0  0
   11.0040   12.9237   -6.1966 C   0  0  0  0  0  0  0  0  0  0  0  0
   11.1895   12.8925   -4.8625 N   0  0  0  0  0  0  0  0  0  0  0  0
   11.3908   11.7258   -4.2067 C   0  0  0  0  0  0  0  0  0  0  0  0
   11.5788   11.6924   -2.8550 F   0  0  0  0  0  0  0  0  0  0  0  0
   11.2233    9.6563   -6.8804 H   0  0  0  0  0  0  0  0  0  0  0  0
   10.8601   11.8199   -8.0221 H   0  0  0  0  0  0  0  0  0  0  0  0
   10.8455   13.8675   -6.6954 H   0  0  0  0  0  0  0  0  0  0  0  0
  2  1  2  0
  3  2  1  0
  4  3  2  0
  4  5  1  0
  5  6  2  0
  6  1  1  0
  1  7  1  0
  2  8  1  0
  3  9  1  0
 10 11  2  0
 11 12  1  0
 12 13  2  0
 13 14  1  0
 14 15  2  0
 15 16  1  0
 15 10  1  0
 11 17  1  0
 12 18  1  0
 13 19  1  0
  5 10  1  0
M  END
>  <Score>  (1) 
-7.14128

$$$$

     RDKit          3D

 30 31  0  0  0  0  0  0  0  0999 V2000
   12.3021    8.1244   -2.3027 C   0  0  0  0  0  0  0  0  0  0  0  0
   12.0211    6.8843   -2.9139 C   0  0  0  0  0  0  0  0  0  0  0  0
   11.5245    6.8980   -4.2248 C   0  0  0  0  0  0  0  0  0  0  0  0
   11.3427    8.1056   -4.8303 N   0  0  0  0  0  0  0  0  0  0  0  0
   11.6232    9.2804   -4.2136 C   0  0  0  0  0  0  0  0  0  0  0  0
   12.1014    9.2783   -2.9527 N   0  0  0  0  0  0  0  0  0  0  0  0
   12.6835    8.1208   -1.2968 H   0  0  0  0  0  0  0  0  0  0  0  0
   12.1772    5.9516   -2.4048 H   0  0  0  0  0  0  0  0  0  0  0  0
   11.2885    5.9898   -4.7519 H   0  0  0  0  0  0  0  0  0  0  0  0
   11.3984   10.4833   -4.9320 N   0  0  0  0  0  0  0  0  0  0  0  0
   11.5100   10.5478   -6.3708 C   0  0  0  0  0  0  0  0  0  0  0  0
   10.5533    9.6398   -7.0899 C   0  0  0  0  0  0  0  0  0  0  0  0
   10.8131    9.8410   -8.5866 C   0  0  0  0  0  0  0  0  0  0  0  0
   10.0435   11.0365   -9.0779 C   0  0  0  0  0  0  0  0  0  0  0  0
    8.6521   10.6440   -9.1846 N   0  0  0  0  0  0  0  0  0  0  0  0
    8.0056   11.4625   -9.2025 H   0  0  0  0  0  0  0  0  0  0  0  0
    8.3299    9.7443   -8.0941 C   0  0  0  0  0  0  0  0  0  0  0  0
    9.1128   10.0369   -6.8500 C   0  0  0  0  0  0  0  0  0  0  0  0
   11.1458   11.3434   -4.4049 H   0  0  0  0  0  0  0  0  0  0  0  0
   12.5435   10.2215   -6.6935 H   0  0  0  0  0  0  0  0  0  0  0  0
   11.3935   11.5642   -6.7610 H   0  0  0  0  0  0  0  0  0  0  0  0
   10.6567    8.5785   -6.8621 H   0  0  0  0  0  0  0  0  0  0  0  0
   11.8842   10.0483   -8.7474 H   0  0  0  0  0  0  0  0  0  0  0  0
   10.4489    8.9528   -9.1106 H   0  0  0  0  0  0  0  0  0  0  0  0
   10.4187   11.2649  -10.1010 H   0  0  0  0  0  0  0  0  0  0  0  0
   10.1525   11.9210   -8.3994 H   0  0  0  0  0  0  0  0  0  0  0  0
    8.5314    8.7178   -8.4272 H   0  0  0  0  0  0  0  0  0  0  0  0
    7.2547    9.8830   -7.8691 H   0  0  0  0  0  0  0  0  0  0  0  0
    9.0922   11.1090   -6.5791 H   0  0  0  0  0  0  0  0  0  0  0  0
    8.7127    9.4121   -6.0360 H   0  0  0  0  0  0  0  0  0  0  0  0
  2  1  2  0
  3  2  1  0
  4  3  2  0
  4  5  1  0
  5  6  2  0
  6  1  1  0
  1  7  1  0
  2  8  1  0
  3  9  1  0
 10 11  1  0
 11 12  1  0
 12 13  1  0
 13 14  1  0
 14 15  1  0
 15 16  1  0
 15 17  1  0
 17 18  1  0
 18 12  1  0
 10 19  1  0
 11 20  1  0
 11 21  1  0
 12 22  1  0
 13 23  1  0
 13 24  1  0
 14 25  1  0
 14 26  1  0
 17 27  1  0
 17 28  1  0
 18 29  1  0
 18 30  1  0
  5 10  1  0
M  END
>  <Score>  (1) 
-7.13653

$$$$

     RDKit          3D

 20 21  0  0  0  0  0  0  0  0999 V2000
   12.3026    8.1201   -2.3010 C   0  0  0  0  0  0  0  0  0  0  0  0
   12.0224    6.8844   -2.9104 C   0  0  0  0  0  0  0  0  0  0  0  0
   11.5232    6.8996   -4.2282 C   0  0  0  0  0  0  0  0  0  0  0  0
   11.3428    8.1053   -4.8299 N   0  0  0  0  0  0  0  0  0  0  0  0
   11.6249    9.2792   -4.2091 C   0  0  0  0  0  0  0  0  0  0  0  0
   12.0990    9.2823   -2.9595 N   0  0  0  0  0  0  0  0  0  0  0  0
   12.6809    8.1497   -1.3067 H   0  0  0  0  0  0  0  0  0  0  0  0
   12.1906    5.9803   -2.3726 H   0  0  0  0  0  0  0  0  0  0  0  0
   11.3044    5.9651   -4.7073 H   0  0  0  0  0  0  0  0  0  0  0  0
   11.4253   10.5248   -4.8656 N   0  0  0  0  0  0  0  0  0  0  0  0
   10.9226   10.5727   -6.1957 C   0  0  0  0  0  0  0  0  0  0  0  0
   10.7318   11.7481   -6.8216 N   0  0  0  0  0  0  0  0  0  0  0  0
   10.2601   11.8482   -8.0757 C   0  0  0  0  0  0  0  0  0  0  0  0
    9.9467   10.7023   -8.7822 C   0  0  0  0  0  0  0  0  0  0  0  0
    9.3258   10.7600  -10.4253 Cl  0  0  0  0  0  0  0  0  0  0  0  0
   10.1384    9.4900   -8.1501 C   0  0  0  0  0  0  0  0  0  0  0  0
    9.8942    8.5961   -8.7006 H   0  0  0  0  0  0  0  0  0  0  0  0
   10.6146    9.4637   -6.8919 N   0  0  0  0  0  0  0  0  0  0  0  0
   11.6464   11.4087   -4.3750 H   0  0  0  0  0  0  0  0  0  0  0  0
   10.1145   12.8166   -8.5606 H   0  0  0  0  0  0  0  0  0  0  0  0
  2  1  2  0
  3  2  1  0
  4  3  2  0
  4  5  1  0
  5  6  2  0
  6  1  1  0
  1  7  1  0
  2  8  1  0
  3  9  1  0
 10 11  1  0
 11 12  2  0
 12 13  1  0
 13 14  2  0
 14 15  1  0
 14 16  1  0
 16 17  1  0
 16 18  2  0
 18 11  1  0
 10 19  1  0
 13 20  1  0
  5 10  1  0
M  END
>  <Score>  (1) 
-7.13064

$$$$

     RDKit          3D

 22 23  0  0  0  0  0  0  0  0999 V2000
   12.3028    8.1231   -2.3009 C   0  0  0  0  0  0  0  0  0  0  0  0
   12.0210    6.8832   -2.9142 C   0  0  0  0  0  0  0  0  0  0  0  0
   11.5248    6.8963   -4.2237 C   0  0  0  0  0  0  0  0  0  0  0  0
   11.3432    8.1134   -4.8299 N   0  0  0  0  0  0  0  0  0  0  0  0
   11.6225    9.2734   -4.2147 C   0  0  0  0  0  0  0  0  0  0  0  0
   12.1008    9.2815   -2.9547 N   0  0  0  0  0  0  0  0  0  0  0  0
   12.6874    8.0793   -1.2824 H   0  0  0  0  0  0  0  0  0  0  0  0
   12.1688    5.9532   -2.4271 H   0  0  0  0  0  0  0  0  0  0  0  0
   11.2824    6.0221   -4.7712 H   0  0  0  0  0  0  0  0  0  0  0  0
   11.4030   10.4867   -4.9204 N   0  0  0  0  0  0  0  0  0  0  0  0
   12.4620   11.3901   -5.1780 C   0  0  0  0  0  0  0  0  0  0  0  0
   12.3787   12.5885   -5.8458 C   0  0  0  0  0  0  0  0  0  0  0  0
   13.6435   13.1115   -5.8519 C   0  0  0  0  0  0  0  0  0  0  0  0
   14.0997   14.4048   -6.4529 C   0  0  0  0  0  0  0  0  0  0  0  0
   14.4651   12.2717   -5.2166 N   0  0  0  0  0  0  0  0  0  0  0  0
   13.7526   11.2566   -4.8226 N   0  0  0  0  0  0  0  0  0  0  0  0
   10.4540   10.7390   -5.2652 H   0  0  0  0  0  0  0  0  0  0  0  0
   11.5210   13.0718   -6.2956 H   0  0  0  0  0  0  0  0  0  0  0  0
   13.2204   15.0812   -6.5021 H   0  0  0  0  0  0  0  0  0  0  0  0
   14.5766   14.2481   -7.4392 H   0  0  0  0  0  0  0  0  0  0  0  0
   14.8335   14.8376   -5.7553 H   0  0  0  0  0  0  0  0  0  0  0  0
   15.5053   12.4066   -5.0618 H   0  0  0  0  0  0  0  0  0  0  0  0
  2  1  2  0
  3  2  1  0
  4  3  2  0
  4  5  1  0
  5  6  2  0
  6  1  1  0
  1  7  1  0
  2  8  1  0
  3  9  1  0
 10 11  1  0
 11 12  1  0
 12 13  2  0
 13 14  1  0
 13 15  1  0
 15 16  1  0
 16 11  2  0
 10 17  1  0
 12 18  1  0
 14 19  1  0
 14 20  1  0
 14 21  1  0
 15 22  1  0
  5 10  1  0
M  END
>  <Score>  (1) 
-7.12894

$$$$

     RDKit          3D

 23 25  0  0  0  0  0  0  0  0999 V2000
   12.3025    8.1223   -2.3015 C   0  0  0  0  0  0  0  0  0  0  0  0
   12.0217    6.8838   -2.9124 C   0  0  0  0  0  0  0  0  0  0  0  0
   11.5239    6.8989   -4.2263 C   0  0  0  0  0  0  0  0  0  0  0  0
   11.3423    8.1063   -4.8314 N   0  0  0  0  0  0  0  0  0  0  0  0
   11.6241    9.2777   -4.2109 C   0  0  0  0  0  0  0  0  0  0  0  0
   12.1004    9.2821   -2.9556 N   0  0  0  0  0  0  0  0  0  0  0  0
   12.6821    8.0559   -1.2938 H   0  0  0  0  0  0  0  0  0  0  0  0
   12.1814    5.9525   -2.3939 H   0  0  0  0  0  0  0  0  0  0  0  0
   11.3097    5.9724   -4.6942 H   0  0  0  0  0  0  0  0  0  0  0  0
   11.3854   10.4600   -4.9641 N   0  0  0  0  0  0  0  0  0  0  0  0
   10.2216   10.8218   -5.4685 N   0  0  0  0  0  0  0  0  0  0  0  0
   10.3261   11.9852   -6.1242 C   0  0  0  0  0  0  0  0  0  0  0  0
    9.5199   12.5154   -6.6375 H   0  0  0  0  0  0  0  0  0  0  0  0
   11.6483   12.3647   -6.0146 C   0  0  0  0  0  0  0  0  0  0  0  0
   12.2965   13.4763   -6.5035 C   0  0  0  0  0  0  0  0  0  0  0  0
   11.5624   14.4310   -7.2476 N   0  0  0  0  0  0  0  0  0  0  0  0
   13.6081   13.5960   -6.2442 N   0  0  0  0  0  0  0  0  0  0  0  0
   14.2460   12.6450   -5.5265 C   0  0  0  0  0  0  0  0  0  0  0  0
   13.6192   11.5549   -5.0449 N   0  0  0  0  0  0  0  0  0  0  0  0
   12.2960   11.3904   -5.2808 C   0  0  0  0  0  0  0  0  0  0  0  0
   11.0165   14.1586   -8.0716 H   0  0  0  0  0  0  0  0  0  0  0  0
   11.5892   15.4254   -6.9368 H   0  0  0  0  0  0  0  0  0  0  0  0
   15.3135   12.8131   -5.3569 H   0  0  0  0  0  0  0  0  0  0  0  0
  2  1  2  0
  3  2  1  0
  4  3  2  0
  4  5  1  0
  5  6  2  0
  6  1  1  0
  1  7  1  0
  2  8  1  0
  3  9  1  0
 10 11  1  0
 11 12  2  0
 12 13  1  0
 12 14  1  0
 14 15  2  0
 15 16  1  0
 15 17  1  0
 17 18  2  0
 18 19  1  0
 19 20  2  0
 20 10  1  0
 20 14  1  0
 16 21  1  0
 16 22  1  0
 18 23  1  0
  5 10  1  0
M  END
>  <Score>  (1) 
-8.03021

$$$$

     RDKit          3D

 29 31  0  0  0  0  0  0  0  0999 V2000
   12.3019    8.1205   -2.3028 C   0  0  0  0  0  0  0  0  0  0  0  0
   12.0216    6.8842   -2.9125 C   0  0  0  0  0  0  0  0  0  0  0  0
   11.5249    6.8984   -4.2237 C   0  0  0  0  0  0  0  0  0  0  0  0
   11.3422    8.1082   -4.8319 N   0  0  0  0  0  0  0  0  0  0  0  0
   11.6237    9.2773   -4.2121 C   0  0  0  0  0  0  0  0  0  0  0  0
   12.1007    9.2824   -2.9550 N   0  0  0  0  0  0  0  0  0  0  0  0
   12.6789    8.0561   -1.3022 H   0  0  0  0  0  0  0  0  0  0  0  0
   12.1883    5.9613   -2.3765 H   0  0  0  0  0  0  0  0  0  0  0  0
   11.3067    5.9762   -4.7025 H   0  0  0  0  0  0  0  0  0  0  0  0
   11.4158   10.5008   -4.8882 N   0  0  0  0  0  0  0  0  0  0  0  0
   11.9904   11.7288   -4.4014 C   0  0  0  0  0  0  0  0  0  0  0  0
   12.7993   12.4644   -5.4185 C   0  0  0  0  0  0  0  0  0  0  0  0
   12.3057   12.2625   -6.8051 C   0  0  0  0  0  0  0  0  0  0  0  0
   12.8687   12.9813   -7.8278 C   0  0  0  0  0  0  0  0  0  0  0  0
   12.4808   12.8657   -9.1471 C   0  0  0  0  0  0  0  0  0  0  0  0
   11.4716   11.9820   -9.4711 C   0  0  0  0  0  0  0  0  0  0  0  0
   10.8936   11.2502   -8.4541 C   0  0  0  0  0  0  0  0  0  0  0  0
   11.2971   11.3795   -7.1298 C   0  0  0  0  0  0  0  0  0  0  0  0
   10.6194   10.5497   -6.0879 C   0  0  0  0  0  0  0  0  0  0  0  0
   11.1253   12.3763   -4.0887 H   0  0  0  0  0  0  0  0  0  0  0  0
   12.5868   11.5102   -3.4857 H   0  0  0  0  0  0  0  0  0  0  0  0
   12.7743   13.5481   -5.1841 H   0  0  0  0  0  0  0  0  0  0  0  0
   13.8358   12.0842   -5.3803 H   0  0  0  0  0  0  0  0  0  0  0  0
   13.6756   13.6999   -7.6332 H   0  0  0  0  0  0  0  0  0  0  0  0
   12.9526   13.4568   -9.9438 H   0  0  0  0  0  0  0  0  0  0  0  0
   11.1766   11.9011  -10.5107 H   0  0  0  0  0  0  0  0  0  0  0  0
   10.1023   10.5599   -8.7218 H   0  0  0  0  0  0  0  0  0  0  0  0
    9.6299   10.9911   -5.8113 H   0  0  0  0  0  0  0  0  0  0  0  0
   10.4221    9.5286   -6.4332 H   0  0  0  0  0  0  0  0  0  0  0  0
  2  1  2  0
  3  2  1  0
  4  3  2  0
  4  5  1  0
  5  6  2  0
  6  1  1  0
  1  7  1  0
  2  8  1  0
  3  9  1  0
 10 11  1  0
 11 12  1  0
 12 13  1  0
 13 14  2  0
 14 15  1  0
 15 16  2  0
 16 17  1  0
 17 18  2  0
 18 19  1  0
 19 10  1  0
 18 13  1  0
 11 20  1  0
 11 21  1  0
 12 22  1  0
 12 23  1  0
 14 24  1  0
 15 25  1  0
 16 26  1  0
 17 27  1  0
 19 28  1  0
 19 29  1  0
  5 10  1  0
M  END
>  <Score>  (1) 
-8.92254

$$$$

     RDKit          3D

 23 25  0  0  0  0  0  0  0  0999 V2000
   12.3026    8.1237   -2.3015 C   0  0  0  0  0  0  0  0  0  0  0  0
   12.0214    6.8831   -2.9130 C   0  0  0  0  0  0  0  0  0  0  0  0
   11.5242    6.8982   -4.2255 C   0  0  0  0  0  0  0  0  0  0  0  0
   11.3423    8.1077   -4.8315 N   0  0  0  0  0  0  0  0  0  0  0  0
   11.6237    9.2771   -4.2120 C   0  0  0  0  0  0  0  0  0  0  0  0
   12.1008    9.2813   -2.9545 N   0  0  0  0  0  0  0  0  0  0  0  0
   12.6808    8.1736   -1.3094 H   0  0  0  0  0  0  0  0  0  0  0  0
   12.1868    5.9572   -2.3802 H   0  0  0  0  0  0  0  0  0  0  0  0
   11.3032    5.9732   -4.7113 H   0  0  0  0  0  0  0  0  0  0  0  0
   11.4361   10.5334   -4.8380 N   0  0  0  0  0  0  0  0  0  0  0  0
   10.2117   11.0729   -5.0845 C   0  0  0  0  0  0  0  0  0  0  0  0
   10.3490   12.2688   -5.6867 N   0  0  0  0  0  0  0  0  0  0  0  0
   11.6679   12.5069   -5.8319 C   0  0  0  0  0  0  0  0  0  0  0  0
   12.3506   13.5779   -6.3820 C   0  0  0  0  0  0  0  0  0  0  0  0
   11.6499   14.6891   -6.9254 N   0  0  0  0  0  0  0  0  0  0  0  0
   13.6935   13.5075   -6.3731 N   0  0  0  0  0  0  0  0  0  0  0  0
   14.3396   12.4351   -5.8482 C   0  0  0  0  0  0  0  0  0  0  0  0
   13.6777   11.3890   -5.3108 N   0  0  0  0  0  0  0  0  0  0  0  0
   12.3345   11.4197   -5.2999 C   0  0  0  0  0  0  0  0  0  0  0  0
    9.2630   10.6176   -4.8377 H   0  0  0  0  0  0  0  0  0  0  0  0
   11.1968   14.5819   -7.8595 H   0  0  0  0  0  0  0  0  0  0  0  0
   11.5568   15.6105   -6.4516 H   0  0  0  0  0  0  0  0  0  0  0  0
   15.4248   12.3816   -5.8426 H   0  0  0  0  0  0  0  0  0  0  0  0
  2  1  2  0
  3  2  1  0
  4  3  2  0
  4  5  1  0
  5  6  2  0
  6  1  1  0
  1  7  1  0
  2  8  1  0
  3  9  1  0
 10 11  1  0
 11 12  2  0
 12 13  1  0
 13 14  2  0
 14 15  1  0
 14 16  1  0
 16 17  2  0
 17 18  1  0
 18 19  2  0
 19 10  1  0
 19 13  1  0
 11 20  1  0
 15 21  1  0
 15 22  1  0
 17 23  1  0
  5 10  1  0
M  END
>  <Score>  (1) 
-7.12517

$$$$

     RDKit          3D

 24 25  0  0  0  0  0  0  0  0999 V2000
   12.3026    8.1243   -2.3016 C   0  0  0  0  0  0  0  0  0  0  0  0
   12.0214    6.8827   -2.9130 C   0  0  0  0  0  0  0  0  0  0  0  0
   11.5241    6.8983   -4.2257 C   0  0  0  0  0  0  0  0  0  0  0  0
   11.3425    8.1078   -4.8312 N   0  0  0  0  0  0  0  0  0  0  0  0
   11.6237    9.2772   -4.2121 C   0  0  0  0  0  0  0  0  0  0  0  0
   12.1008    9.2807   -2.9545 N   0  0  0  0  0  0  0  0  0  0  0  0
   12.6868    8.0907   -1.2851 H   0  0  0  0  0  0  0  0  0  0  0  0
   12.1847    5.9665   -2.3865 H   0  0  0  0  0  0  0  0  0  0  0  0
   11.3077    5.9664   -4.6988 H   0  0  0  0  0  0  0  0  0  0  0  0
   11.4319   10.4923   -4.8448 O   0  0  0  0  0  0  0  0  0  0  0  0
   10.8040   11.5728   -4.1554 C   0  0  0  0  0  0  0  0  0  0  0  0
   10.7365   12.7432   -5.0862 C   0  0  0  0  0  0  0  0  0  0  0  0
   11.2269   12.6861   -6.3749 C   0  0  0  0  0  0  0  0  0  0  0  0
   11.1747   13.7545   -7.2497 C   0  0  0  0  0  0  0  0  0  0  0  0
   10.6038   14.9208   -6.7977 C   0  0  0  0  0  0  0  0  0  0  0  0
   10.5206   15.8065   -7.4139 H   0  0  0  0  0  0  0  0  0  0  0  0
   10.1097   14.9973   -5.5172 C   0  0  0  0  0  0  0  0  0  0  0  0
   10.1645   13.9201   -4.6407 C   0  0  0  0  0  0  0  0  0  0  0  0
    9.7815   11.2979   -3.8265 H   0  0  0  0  0  0  0  0  0  0  0  0
   11.3802   11.7958   -3.2433 H   0  0  0  0  0  0  0  0  0  0  0  0
   11.6763   11.7483   -6.7117 H   0  0  0  0  0  0  0  0  0  0  0  0
   11.5682   13.6873   -8.2635 H   0  0  0  0  0  0  0  0  0  0  0  0
    9.6613   15.9270   -5.1755 H   0  0  0  0  0  0  0  0  0  0  0  0
    9.7755   13.9755   -3.6284 H   0  0  0  0  0  0  0  0  0  0  0  0
  2  1  2  0
  3  2  1  0
  4  3  2  0
  4  5  1  0
  5  6  2  0
  6  1  1  0
  1  7  1  0
  2  8  1  0
  3  9  1  0
 10 11  1  0
 11 12  1  0
 12 13  2  0
 13 14  1  0
 14 15  2  0
 15 16  1  0
 15 17  1  0
 17 18  2  0
 18 12  1  0
 11 19  1  0
 11 20  1  0
 13 21  1  0
 14 22  1  0
 17 23  1  0
 18 24  1  0
  5 10  1  0
M  END
>  <Score>  (1) 
-7.12291

$$$$

     RDKit          3D

 26 27  0  0  0  0  0  0  0  0999 V2000
   12.3024    8.1279   -2.3024 C   0  0  0  0  0  0  0  0  0  0  0  0
   12.0209    6.8816   -2.9141 C   0  0  0  0  0  0  0  0  0  0  0  0
   11.5241    6.8992   -4.2257 C   0  0  0  0  0  0  0  0  0  0  0  0
   11.3432    8.1060   -4.8290 N   0  0  0  0  0  0  0  0  0  0  0  0
   11.6218    9.2797   -4.2174 C   0  0  0  0  0  0  0  0  0  0  0  0
   12.1025    9.2765   -2.9495 N   0  0  0  0  0  0  0  0  0  0  0  0
   12.6850    8.0676   -1.2875 H   0  0  0  0  0  0  0  0  0  0  0  0
   12.1817    5.9673   -2.3946 H   0  0  0  0  0  0  0  0  0  0  0  0
   11.2889    5.9806   -4.7498 H   0  0  0  0  0  0  0  0  0  0  0  0
   11.4239   10.5266   -4.8693 N   0  0  0  0  0  0  0  0  0  0  0  0
   11.9947   11.7861   -4.3909 C   0  0  0  0  0  0  0  0  0  0  0  0
   11.9258   12.6993   -5.5940 C   0  0  0  0  0  0  0  0  0  0  0  0
   10.6246   12.2605   -6.2315 C   0  0  0  0  0  0  0  0  0  0  0  0
   10.6667   10.7729   -6.0574 C   0  0  2  0  0  0  0  0  0  0  0  0
    9.2486   10.2696   -5.9921 C   0  0  0  0  0  0  0  0  0  0  0  0
    8.5425   10.8695   -4.9526 O   0  0  0  0  0  0  0  0  0  0  0  0
   11.4322   12.1655   -3.5312 H   0  0  0  0  0  0  0  0  0  0  0  0
   13.0570   11.6386   -4.0909 H   0  0  0  0  0  0  0  0  0  0  0  0
   12.7390   12.4520   -6.2961 H   0  0  0  0  0  0  0  0  0  0  0  0
   11.9256   13.7637   -5.3047 H   0  0  0  0  0  0  0  0  0  0  0  0
   10.6804   12.5636   -7.2982 H   0  0  0  0  0  0  0  0  0  0  0  0
    9.7370   12.7232   -5.7594 H   0  0  0  0  0  0  0  0  0  0  0  0
   11.1580   10.2754   -6.9194 H   0  0  0  0  0  0  0  0  0  0  0  0
    9.2470    9.1803   -5.9270 H   0  0  0  0  0  0  0  0  0  0  0  0
    8.7554   10.5739   -6.9406 H   0  0  0  0  0  0  0  0  0  0  0  0
    9.2026   11.2115   -4.2953 H   0  0  0  0  0  0  0  0  0  0  0  0
  2  1  2  0
  3  2  1  0
  4  3  2  0
  4  5  1  0
  5  6  2  0
  6  1  1  0
  1  7  1  0
  2  8  1  0
  3  9  1  0
 10 11  1  0
 11 12  1  0
 12 13  1  0
 13 14  1  0
 14 15  1  0
 15 16  1  0
 14 10  1  0
 11 17  1  0
 11 18  1  0
 12 19  1  0
 12 20  1  0
 13 21  1  0
 13 22  1  0
 14 23  1  6
 15 24  1  0
 15 25  1  0
 16 26  1  0
  5 10  1  0
M  END
>  <Score>  (1) 
-7.12114

$$$$

     RDKit          3D

 29 30  0  0  0  0  0  0  0  0999 V2000
   12.3027    8.1262   -2.3015 C   0  0  0  0  0  0  0  0  0  0  0  0
   12.0207    6.8818   -2.9148 C   0  0  0  0  0  0  0  0  0  0  0  0
   11.5248    6.8968   -4.2237 C   0  0  0  0  0  0  0  0  0  0  0  0
   11.3425    8.1106   -4.8312 N   0  0  0  0  0  0  0  0  0  0  0  0
   11.6229    9.2757   -4.2141 C   0  0  0  0  0  0  0  0  0  0  0  0
   12.1014    9.2799   -2.9527 N   0  0  0  0  0  0  0  0  0  0  0  0
   12.6826    8.0567   -1.2925 H   0  0  0  0  0  0  0  0  0  0  0  0
   12.1800    5.9592   -2.3983 H   0  0  0  0  0  0  0  0  0  0  0  0
   11.2926    5.9738   -4.7393 H   0  0  0  0  0  0  0  0  0  0  0  0
   11.4132   10.4876   -4.8935 N   0  0  0  0  0  0  0  0  0  0  0  0
   12.1235   10.7619   -6.1453 C   0  0  0  0  0  0  0  0  0  0  0  0
   11.7348   12.0992   -6.6672 C   0  0  0  0  0  0  0  0  0  0  0  0
   10.6598   12.2299   -7.5288 C   0  0  0  0  0  0  0  0  0  0  0  0
   10.2592   13.4484   -8.0406 C   0  0  0  0  0  0  0  0  0  0  0  0
   10.9452   14.5865   -7.6902 C   0  0  0  0  0  0  0  0  0  0  0  0
   10.5017   15.7887   -8.2330 O   0  0  0  0  0  0  0  0  0  0  0  0
   11.0981   17.0279   -7.9691 C   0  0  0  0  0  0  0  0  0  0  0  0
   12.0153   14.4985   -6.8396 C   0  0  0  0  0  0  0  0  0  0  0  0
   12.4062   13.2606   -6.3320 C   0  0  0  0  0  0  0  0  0  0  0  0
   10.7554   11.2096   -4.5265 H   0  0  0  0  0  0  0  0  0  0  0  0
   13.2321   10.7079   -5.9774 H   0  0  0  0  0  0  0  0  0  0  0  0
   11.8961    9.9524   -6.8643 H   0  0  0  0  0  0  0  0  0  0  0  0
   10.1204   11.3214   -7.8021 H   0  0  0  0  0  0  0  0  0  0  0  0
    9.4010   13.4639   -8.7139 H   0  0  0  0  0  0  0  0  0  0  0  0
   10.6492   17.5429   -7.0885 H   0  0  0  0  0  0  0  0  0  0  0  0
   10.9278   17.7343   -8.8280 H   0  0  0  0  0  0  0  0  0  0  0  0
   12.1990   16.9384   -7.8790 H   0  0  0  0  0  0  0  0  0  0  0  0
   12.5426   15.4071   -6.5756 H   0  0  0  0  0  0  0  0  0  0  0  0
   13.2543   13.2139   -5.6616 H   0  0  0  0  0  0  0  0  0  0  0  0
  2  1  2  0
  3  2  1  0
  4  3  2  0
  4  5  1  0
  5  6  2  0
  6  1  1  0
  1  7  1  0
  2  8  1  0
  3  9  1  0
 10 11  1  0
 11 12  1  0
 12 13  2  0
 13 14  1  0
 14 15  2  0
 15 16  1  0
 16 17  1  0
 15 18  1  0
 18 19  2  0
 19 12  1  0
 10 20  1  0
 11 21  1  0
 11 22  1  0
 13 23  1  0
 14 24  1  0
 17 25  1  0
 17 26  1  0
 17 27  1  0
 18 28  1  0
 19 29  1  0
  5 10  1  0
M  END
>  <Score>  (1) 
-7.12098

$$$$

     RDKit          3D

 20 21  0  0  0  0  0  0  0  0999 V2000
   12.3026    8.1252   -2.3016 C   0  0  0  0  0  0  0  0  0  0  0  0
   12.0212    6.8822   -2.9134 C   0  0  0  0  0  0  0  0  0  0  0  0
   11.5241    6.8990   -4.2259 C   0  0  0  0  0  0  0  0  0  0  0  0
   11.3427    8.1061   -4.8304 N   0  0  0  0  0  0  0  0  0  0  0  0
   11.6236    9.2789   -4.2125 C   0  0  0  0  0  0  0  0  0  0  0  0
   12.1009    9.2796   -2.9542 N   0  0  0  0  0  0  0  0  0  0  0  0
   12.6845    8.1230   -1.2945 H   0  0  0  0  0  0  0  0  0  0  0  0
   12.1791    5.9564   -2.4002 H   0  0  0  0  0  0  0  0  0  0  0  0
   11.3096    5.9660   -4.6937 H   0  0  0  0  0  0  0  0  0  0  0  0
   11.4131   10.5527   -4.9007 C   0  0  0  0  0  0  0  0  0  0  0  0
   10.1356   11.0441   -5.0660 C   0  0  0  0  0  0  0  0  0  0  0  0
    9.9242   12.2388   -5.7103 C   0  0  0  0  0  0  0  0  0  0  0  0
   10.9938   12.9517   -6.1949 C   0  0  0  0  0  0  0  0  0  0  0  0
   12.3019   12.4946   -6.0511 C   0  0  0  0  0  0  0  0  0  0  0  0
   13.6665   13.4047   -6.6696 Cl  0  0  0  0  0  0  0  0  0  0  0  0
   12.4464   11.2872   -5.3942 C   0  0  0  0  0  0  0  0  0  0  0  0
   14.0820   10.6786   -5.1939 Cl  0  0  0  0  0  0  0  0  0  0  0  0
    9.2902   10.4595   -4.6714 H   0  0  0  0  0  0  0  0  0  0  0  0
    8.9380   12.6437   -5.8521 H   0  0  0  0  0  0  0  0  0  0  0  0
   10.8777   13.8979   -6.7093 H   0  0  0  0  0  0  0  0  0  0  0  0
  2  1  2  0
  3  2  1  0
  4  3  2  0
  4  5  1  0
  5  6  2  0
  6  1  1  0
  1  7  1  0
  2  8  1  0
  3  9  1  0
 10 11  2  0
 11 12  1  0
 12 13  2  0
 13 14  1  0
 14 15  1  0
 14 16  2  0
 16 17  1  0
 16 10  1  0
 11 18  1  0
 12 19  1  0
 13 20  1  0
  5 10  1  0
M  END
>  <Score>  (1) 
-7.12009

$$$$

     RDKit          3D

 28 29  0  0  0  0  0  0  0  0999 V2000
   12.3025    8.1213   -2.3014 C   0  0  0  0  0  0  0  0  0  0  0  0
   12.0221    6.8843   -2.9114 C   0  0  0  0  0  0  0  0  0  0  0  0
   11.5237    6.8989   -4.2270 C   0  0  0  0  0  0  0  0  0  0  0  0
   11.3423    8.1063   -4.8315 N   0  0  0  0  0  0  0  0  0  0  0  0
   11.6243    9.2777   -4.2104 C   0  0  0  0  0  0  0  0  0  0  0  0
   12.1002    9.2825   -2.9564 N   0  0  0  0  0  0  0  0  0  0  0  0
   12.6859    8.1344   -1.2919 H   0  0  0  0  0  0  0  0  0  0  0  0
   12.1906    5.9769   -2.3722 H   0  0  0  0  0  0  0  0  0  0  0  0
   11.3020    5.9738   -4.7145 H   0  0  0  0  0  0  0  0  0  0  0  0
   11.4172   10.5825   -4.8930 C   0  0  2  0  0  0  0  0  0  0  0  0
    9.9362   10.8786   -5.0362 C   0  0  0  0  0  0  0  0  0  0  0  0
    9.4115   10.2591   -6.2900 C   0  0  0  0  0  0  0  0  0  0  0  0
    9.8753   11.0975   -7.4681 C   0  0  0  0  0  0  0  0  0  0  0  0
   11.2646   11.5896   -7.1484 C   0  0  0  0  0  0  0  0  0  0  0  0
   11.9830   10.5344   -6.3179 C   0  0  1  0  0  0  0  0  0  0  0  0
   13.3589   10.8844   -6.2472 N   0  0  0  0  0  0  0  0  0  0  0  0
   11.9343   11.4048   -4.3661 H   0  0  0  0  0  0  0  0  0  0  0  0
    9.7201   11.9599   -5.0200 H   0  0  0  0  0  0  0  0  0  0  0  0
    9.4345   10.3842   -4.1685 H   0  0  0  0  0  0  0  0  0  0  0  0
    9.7647    9.2427   -6.4560 H   0  0  0  0  0  0  0  0  0  0  0  0
    8.3063   10.2302   -6.2195 H   0  0  0  0  0  0  0  0  0  0  0  0
    9.1676   11.9007   -7.7072 H   0  0  0  0  0  0  0  0  0  0  0  0
    9.9674   10.4355   -8.3747 H   0  0  0  0  0  0  0  0  0  0  0  0
   11.2087   12.5536   -6.5977 H   0  0  0  0  0  0  0  0  0  0  0  0
   11.8045   11.7487   -8.0999 H   0  0  0  0  0  0  0  0  0  0  0  0
   11.7666    9.5511   -6.7308 H   0  0  0  0  0  0  0  0  0  0  0  0
   13.6810   11.5756   -6.9313 H   0  0  0  0  0  0  0  0  0  0  0  0
   14.0100   10.1364   -6.0129 H   0  0  0  0  0  0  0  0  0  0  0  0
  2  1  2  0
  3  2  1  0
  4  3  2  0
  4  5  1  0
  5  6  2  0
  6  1  1  0
  1  7  1  0
  2  8  1  0
  3  9  1  0
 10 11  1  0
 11 12  1  0
 12 13  1  0
 13 14  1  0
 14 15  1  0
 15 16  1  0
 15 10  1  0
 10 17  1  1
 11 18  1  0
 11 19  1  0
 12 20  1  0
 12 21  1  0
 13 22  1  0
 13 23  1  0
 14 24  1  0
 14 25  1  0
 15 26  1  6
 16 27  1  0
 16 28  1  0
  5 10  1  0
M  END
>  <Score>  (1) 
-7.11992

$$$$

     RDKit          3D

 24 25  0  0  0  0  0  0  0  0999 V2000
   12.3025    8.1186   -2.3011 C   0  0  0  0  0  0  0  0  0  0  0  0
   12.0220    6.8846   -2.9116 C   0  0  0  0  0  0  0  0  0  0  0  0
   11.5243    6.8982   -4.2252 C   0  0  0  0  0  0  0  0  0  0  0  0
   11.3421    8.1083   -4.8321 N   0  0  0  0  0  0  0  0  0  0  0  0
   11.6250    9.2765   -4.2086 C   0  0  0  0  0  0  0  0  0  0  0  0
   12.0991    9.2847   -2.9594 N   0  0  0  0  0  0  0  0  0  0  0  0
   12.6843    8.0846   -1.2910 H   0  0  0  0  0  0  0  0  0  0  0  0
   12.1817    5.9483   -2.3926 H   0  0  0  0  0  0  0  0  0  0  0  0
   11.3047    5.9662   -4.7067 H   0  0  0  0  0  0  0  0  0  0  0  0
   11.4010   10.4802   -4.9251 N   0  0  0  0  0  0  0  0  0  0  0  0
   11.9966   11.7128   -4.4201 C   0  0  0  0  0  0  0  0  0  0  0  0
   11.6728   12.8677   -5.2708 C   0  0  0  0  0  0  0  0  0  0  0  0
   10.5505   13.6615   -5.0708 C   0  0  0  0  0  0  0  0  0  0  0  0
   10.3184   14.7307   -5.9177 C   0  0  0  0  0  0  0  0  0  0  0  0
   11.1638   15.0484   -6.9670 C   0  0  0  0  0  0  0  0  0  0  0  0
   12.2414   14.2547   -7.1281 N   0  0  0  0  0  0  0  0  0  0  0  0
   12.5058   13.2047   -6.3283 C   0  0  0  0  0  0  0  0  0  0  0  0
   10.8449   10.5480   -5.7815 H   0  0  0  0  0  0  0  0  0  0  0  0
   13.1059   11.5538   -4.4311 H   0  0  0  0  0  0  0  0  0  0  0  0
   11.7220   11.8698   -3.3616 H   0  0  0  0  0  0  0  0  0  0  0  0
    9.8969   13.4115   -4.2554 H   0  0  0  0  0  0  0  0  0  0  0  0
    9.4459   15.3573   -5.7714 H   0  0  0  0  0  0  0  0  0  0  0  0
   10.9704   15.8951   -7.6291 H   0  0  0  0  0  0  0  0  0  0  0  0
   13.4049   12.6035   -6.5226 H   0  0  0  0  0  0  0  0  0  0  0  0
  2  1  2  0
  3  2  1  0
  4  3  2  0
  4  5  1  0
  5  6  2  0
  6  1  1  0
  1  7  1  0
  2  8  1  0
  3  9  1  0
 10 11  1  0
 11 12  1  0
 12 13  2  0
 13 14  1  0
 14 15  2  0
 15 16  1  0
 16 17  2  0
 17 12  1  0
 10 18  1  0
 11 19  1  0
 11 20  1  0
 13 21  1  0
 14 22  1  0
 15 23  1  0
 17 24  1  0
  5 10  1  0
M  END
>  <Score>  (1) 
-7.11728

$$$$

     RDKit          3D

 23 24  0  0  0  0  0  0  0  0999 V2000
   12.3028    8.1237   -2.3008 C   0  0  0  0  0  0  0  0  0  0  0  0
   12.0208    6.8836   -2.9146 C   0  0  0  0  0  0  0  0  0  0  0  0
   11.5248    6.8986   -4.2239 C   0  0  0  0  0  0  0  0  0  0  0  0
   11.3421    8.1080   -4.8322 N   0  0  0  0  0  0  0  0  0  0  0  0
   11.6241    9.2763   -4.2109 C   0  0  0  0  0  0  0  0  0  0  0  0
   12.1004    9.2808   -2.9556 N   0  0  0  0  0  0  0  0  0  0  0  0
   12.6859    8.0791   -1.2861 H   0  0  0  0  0  0  0  0  0  0  0  0
   12.1919    5.9794   -2.3689 H   0  0  0  0  0  0  0  0  0  0  0  0
   11.3017    5.9635   -4.7142 H   0  0  0  0  0  0  0  0  0  0  0  0
   11.4241   10.5220   -4.8684 N   0  0  0  0  0  0  0  0  0  0  0  0
   11.2957   10.6613   -6.1787 N   0  0  0  0  0  0  0  0  0  0  0  0
   11.1191   11.9367   -6.5229 C   0  0  0  0  0  0  0  0  0  0  0  0
   10.9385   12.4744   -7.9071 C   0  0  0  0  0  0  0  0  0  0  0  0
   11.1380   12.6509   -5.3436 C   0  0  0  0  0  0  0  0  0  0  0  0
   11.0182   13.7262   -5.2943 H   0  0  0  0  0  0  0  0  0  0  0  0
   11.3298   11.7503   -4.3170 C   0  0  0  0  0  0  0  0  0  0  0  0
   11.4182   12.0556   -2.8759 C   0  0  0  0  0  0  0  0  0  0  0  0
   10.0887   11.9472   -8.4279 H   0  0  0  0  0  0  0  0  0  0  0  0
   10.6796   13.5526   -7.8551 H   0  0  0  0  0  0  0  0  0  0  0  0
   11.8451   12.3313   -8.5282 H   0  0  0  0  0  0  0  0  0  0  0  0
   10.4150   11.9588   -2.3665 H   0  0  0  0  0  0  0  0  0  0  0  0
   11.6934   13.1387   -2.7795 H   0  0  0  0  0  0  0  0  0  0  0  0
   12.1835   11.4447   -2.3618 H   0  0  0  0  0  0  0  0  0  0  0  0
  2  1  2  0
  3  2  1  0
  4  3  2  0
  4  5  1  0
  5  6  2  0
  6  1  1  0
  1  7  1  0
  2  8  1  0
  3  9  1  0
 10 11  1  0
 11 12  2  0
 12 13  1  0
 12 14  1  0
 14 15  1  0
 14 16  2  0
 16 17  1  0
 16 10  1  0
 13 18  1  0
 13 19  1  0
 13 20  1  0
 17 21  1  0
 17 22  1  0
 17 23  1  0
  5 10  1  0
M  END
>  <Score>  (1) 
-7.11404

$$$$

     RDKit          3D

 20 21  0  0  0  0  0  0  0  0999 V2000
   12.3021    8.1211   -2.3024 C   0  0  0  0  0  0  0  0  0  0  0  0
   12.0220    6.8852   -2.9118 C   0  0  0  0  0  0  0  0  0  0  0  0
   11.5237    6.9010   -4.2269 C   0  0  0  0  0  0  0  0  0  0  0  0
   11.3427    8.1044   -4.8303 N   0  0  0  0  0  0  0  0  0  0  0  0
   11.6232    9.2777   -4.2133 C   0  0  0  0  0  0  0  0  0  0  0  0
   12.1013    9.2815   -2.9533 N   0  0  0  0  0  0  0  0  0  0  0  0
   12.6789    8.0859   -1.3053 H   0  0  0  0  0  0  0  0  0  0  0  0
   12.1845    5.9622   -2.3867 H   0  0  0  0  0  0  0  0  0  0  0  0
   11.2905    5.9817   -4.7458 H   0  0  0  0  0  0  0  0  0  0  0  0
   11.4098   10.5381   -4.9080 C   0  0  0  0  0  0  0  0  0  0  0  0
   11.0862   11.6870   -4.2239 C   0  0  0  0  0  0  0  0  0  0  0  0
   10.8848   12.8787   -4.8835 C   0  0  0  0  0  0  0  0  0  0  0  0
   11.0077   12.9110   -6.2137 N   0  0  0  0  0  0  0  0  0  0  0  0
   11.3230   11.7901   -6.8769 C   0  0  0  0  0  0  0  0  0  0  0  0
   11.4378   11.9013   -8.3041 N   0  0  0  0  0  0  0  0  0  0  0  0
   11.5217   10.6226   -6.2440 N   0  0  0  0  0  0  0  0  0  0  0  0
   10.9884   11.6492   -3.1380 H   0  0  0  0  0  0  0  0  0  0  0  0
   10.6334   13.7393   -4.2795 H   0  0  0  0  0  0  0  0  0  0  0  0
   12.3310   11.6951   -8.8025 H   0  0  0  0  0  0  0  0  0  0  0  0
   10.5980   12.1944   -8.8180 H   0  0  0  0  0  0  0  0  0  0  0  0
  2  1  2  0
  3  2  1  0
  4  3  2  0
  4  5  1  0
  5  6  2  0
  6  1  1  0
  1  7  1  0
  2  8  1  0
  3  9  1  0
 10 11  2  0
 11 12  1  0
 12 13  2  0
 13 14  1  0
 14 15  1  0
 14 16  2  0
 16 10  1  0
 11 17  1  0
 12 18  1  0
 15 19  1  0
 15 20  1  0
  5 10  1  0
M  END
>  <Score>  (1) 
-7.11178

$$$$

     RDKit          3D

 25 26  0  0  0  0  0  0  0  0999 V2000
   12.3025    8.1228   -2.3017 C   0  0  0  0  0  0  0  0  0  0  0  0
   12.0218    6.8837   -2.9121 C   0  0  0  0  0  0  0  0  0  0  0  0
   11.5239    6.8986   -4.2262 C   0  0  0  0  0  0  0  0  0  0  0  0
   11.3422    8.1069   -4.8317 N   0  0  0  0  0  0  0  0  0  0  0  0
   11.6241    9.2776   -4.2110 C   0  0  0  0  0  0  0  0  0  0  0  0
   12.1005    9.2815   -2.9553 N   0  0  0  0  0  0  0  0  0  0  0  0
   12.6884    8.1070   -1.2824 H   0  0  0  0  0  0  0  0  0  0  0  0
   12.1863    5.9722   -2.3830 H   0  0  0  0  0  0  0  0  0  0  0  0
   11.3020    5.9666   -4.7137 H   0  0  0  0  0  0  0  0  0  0  0  0
   12.0741    9.3556   -9.8744 H   0  0  0  0  0  0  0  0  0  0  0  0
   11.0110    9.4426   -9.7903 C   0  0  0  0  0  0  0  0  0  0  0  0
   10.3009    9.2593  -10.7968 O   0  0  0  0  0  0  0  0  0  0  0  0
   10.3917    9.7692   -8.5271 C   0  0  0  0  0  0  0  0  0  0  0  0
    9.0213    9.8785   -8.4306 C   0  0  0  0  0  0  0  0  0  0  0  0
    8.3899   10.1919   -7.2290 C   0  0  0  0  0  0  0  0  0  0  0  0
    9.1665   10.3976   -6.1055 C   0  0  0  0  0  0  0  0  0  0  0  0
   10.5408   10.2951   -6.1713 C   0  0  0  0  0  0  0  0  0  0  0  0
   11.3851   10.5142   -4.9704 C   0  0  0  0  0  0  0  0  0  0  0  0
   11.1281    9.9864   -7.3649 C   0  0  0  0  0  0  0  0  0  0  0  0
    8.4060    9.7187   -9.3067 H   0  0  0  0  0  0  0  0  0  0  0  0
    7.3113   10.2587   -7.2375 H   0  0  0  0  0  0  0  0  0  0  0  0
    8.6476   10.6394   -5.1877 H   0  0  0  0  0  0  0  0  0  0  0  0
   10.9104   11.3208   -4.3708 H   0  0  0  0  0  0  0  0  0  0  0  0
   12.3727   10.9151   -5.3007 H   0  0  0  0  0  0  0  0  0  0  0  0
   12.1902    9.8987   -7.4526 H   0  0  0  0  0  0  0  0  0  0  0  0
  2  1  2  0
  3  2  1  0
  4  3  2  0
  4  5  1  0
  5  6  2  0
  6  1  1  0
  1  7  1  0
  2  8  1  0
  3  9  1  0
 10 11  1  0
 11 12  2  0
 11 13  1  0
 13 14  2  0
 14 15  1  0
 15 16  2  0
 16 17  1  0
 17 18  1  0
 17 19  2  0
 19 13  1  0
 14 20  1  0
 15 21  1  0
 16 22  1  0
 18 23  1  0
 18 24  1  0
 19 25  1  0
  5 18  1  0
M  END
>  <Score>  (1) 
-7.10436

$$$$

     RDKit          3D

 25 27  0  0  0  0  0  0  0  0999 V2000
   12.3027    8.1276   -2.3017 C   0  0  0  0  0  0  0  0  0  0  0  0
   12.0207    6.8840   -2.9151 C   0  0  0  0  0  0  0  0  0  0  0  0
   11.5249    6.9019   -4.2241 C   0  0  0  0  0  0  0  0  0  0  0  0
   11.3440    8.1012   -4.8265 N   0  0  0  0  0  0  0  0  0  0  0  0
   11.6268    9.2884   -4.2051 C   0  0  0  0  0  0  0  0  0  0  0  0
   12.0961    9.2679   -2.9656 N   0  0  0  0  0  0  0  0  0  0  0  0
   12.6824    8.0516   -1.2924 H   0  0  0  0  0  0  0  0  0  0  0  0
   12.1856    5.9639   -2.3839 H   0  0  0  0  0  0  0  0  0  0  0  0
   11.3005    5.9687   -4.7181 H   0  0  0  0  0  0  0  0  0  0  0  0
   11.3828   10.4564   -4.9704 N   0  0  0  0  0  0  0  0  0  0  0  0
   11.1704   10.5252   -6.3606 C   0  0  0  0  0  0  0  0  0  0  0  0
   10.9456   11.7831   -6.9324 C   0  0  0  0  0  0  0  0  0  0  0  0
   10.7278   11.9535   -8.2816 C   0  0  0  0  0  0  0  0  0  0  0  0
   10.7205   10.8823   -9.1442 C   0  0  0  0  0  0  0  0  0  0  0  0
   10.9391    9.6458   -8.5978 C   0  0  0  0  0  0  0  0  0  0  0  0
   11.1566    9.4797   -7.2474 C   0  0  0  0  0  0  0  0  0  0  0  0
   10.8901    8.7283   -9.6268 O   0  0  0  0  0  0  0  0  0  0  0  0
   10.6495    9.3776  -10.8615 C   0  0  0  0  0  0  0  0  0  0  0  0
   10.5330   10.7427  -10.5230 O   0  0  0  0  0  0  0  0  0  0  0  0
   11.3513   11.4048   -4.4593 H   0  0  0  0  0  0  0  0  0  0  0  0
   10.9344   12.6788   -6.3284 H   0  0  0  0  0  0  0  0  0  0  0  0
   10.5557   12.9380   -8.7032 H   0  0  0  0  0  0  0  0  0  0  0  0
   11.3263    8.4812   -6.8528 H   0  0  0  0  0  0  0  0  0  0  0  0
    9.7124    8.9738  -11.3031 H   0  0  0  0  0  0  0  0  0  0  0  0
   11.4534    9.1920  -11.6039 H   0  0  0  0  0  0  0  0  0  0  0  0
  2  1  2  0
  3  2  1  0
  4  3  2  0
  4  5  1  0
  5  6  2  0
  6  1  1  0
  1  7  1  0
  2  8  1  0
  3  9  1  0
 10 11  1  0
 11 12  2  0
 12 13  1  0
 13 14  2  0
 14 15  1  0
 15 16  2  0
 15 17  1  0
 17 18  1  0
 18 19  1  0
 16 11  1  0
 19 14  1  0
 10 20  1  0
 12 21  1  0
 13 22  1  0
 16 23  1  0
 18 24  1  0
 18 25  1  0
  5 10  1  0
M  END
>  <Score>  (1) 
-8.00025

$$$$

     RDKit          3D

 23 24  0  0  0  0  0  0  0  0999 V2000
   12.3024    8.1276   -2.3023 C   0  0  0  0  0  0  0  0  0  0  0  0
   12.0208    6.8817   -2.9144 C   0  0  0  0  0  0  0  0  0  0  0  0
   11.5244    6.8987   -4.2251 C   0  0  0  0  0  0  0  0  0  0  0  0
   11.3429    8.1065   -4.8298 N   0  0  0  0  0  0  0  0  0  0  0  0
   11.6224    9.2793   -4.2156 C   0  0  0  0  0  0  0  0  0  0  0  0
   12.1021    9.2772   -2.9508 N   0  0  0  0  0  0  0  0  0  0  0  0
   12.6804    8.0692   -1.2997 H   0  0  0  0  0  0  0  0  0  0  0  0
   12.1765    5.9621   -2.4078 H   0  0  0  0  0  0  0  0  0  0  0  0
   11.3048    5.9706   -4.7068 H   0  0  0  0  0  0  0  0  0  0  0  0
   12.3188   14.1476   -6.9160 H   0  0  0  0  0  0  0  0  0  0  0  0
   12.3581   13.8505   -5.8791 C   0  0  0  0  0  0  0  0  0  0  0  0
   13.0873   14.5248   -5.1561 O   0  0  0  0  0  0  0  0  0  0  0  0
   11.6315   12.7360   -5.2756 C   0  0  1  0  0  0  0  0  0  0  0  0
   10.4510   12.2658   -6.1021 C   0  0  0  0  0  0  0  0  0  0  0  0
   10.1700   10.9592   -5.4601 C   0  0  0  0  0  0  0  0  0  0  0  0
    9.0599   10.3909   -5.4001 O   0  0  0  0  0  0  0  0  0  0  0  0
   11.3983   10.4862   -4.9327 N   0  0  0  0  0  0  0  0  0  0  0  0
   12.4507   11.4445   -5.2360 C   0  0  0  0  0  0  0  0  0  0  0  0
   11.2674   12.9170   -4.2545 H   0  0  0  0  0  0  0  0  0  0  0  0
   10.7613   12.0596   -7.1474 H   0  0  0  0  0  0  0  0  0  0  0  0
    9.5964   12.9613   -6.0513 H   0  0  0  0  0  0  0  0  0  0  0  0
   12.7980   11.2485   -6.2707 H   0  0  0  0  0  0  0  0  0  0  0  0
   13.2373   11.4735   -4.4863 H   0  0  0  0  0  0  0  0  0  0  0  0
  2  1  2  0
  3  2  1  0
  4  3  2  0
  4  5  1  0
  5  6  2  0
  6  1  1  0
  1  7  1  0
  2  8  1  0
  3  9  1  0
 10 11  1  0
 11 12  2  0
 11 13  1  0
 13 14  1  0
 14 15  1  0
 15 16  2  0
 15 17  1  0
 17 18  1  0
 18 13  1  0
 13 19  1  1
 14 20  1  0
 14 21  1  0
 18 22  1  0
 18 23  1  0
  5 17  1  0
M  END
>  <Score>  (1) 
-7.10163

$$$$

     RDKit          3D

 30 31  0  0  0  0  0  0  0  0999 V2000
   12.3028    8.1227   -2.3008 C   0  0  0  0  0  0  0  0  0  0  0  0
   12.0214    6.8828   -2.9130 C   0  0  0  0  0  0  0  0  0  0  0  0
   11.5239    6.9008   -4.2264 C   0  0  0  0  0  0  0  0  0  0  0  0
   11.3421    8.1032   -4.8315 N   0  0  0  0  0  0  0  0  0  0  0  0
   11.6249    9.2796   -4.2090 C   0  0  0  0  0  0  0  0  0  0  0  0
   12.0998    9.2819   -2.9572 N   0  0  0  0  0  0  0  0  0  0  0  0
   12.6870    8.1040   -1.2860 H   0  0  0  0  0  0  0  0  0  0  0  0
   12.1734    5.9542   -2.4152 H   0  0  0  0  0  0  0  0  0  0  0  0
   11.3025    5.9608   -4.7119 H   0  0  0  0  0  0  0  0  0  0  0  0
   11.4141   10.5080   -4.8936 N   0  0  0  0  0  0  0  0  0  0  0  0
   10.3785   10.6434   -5.8950 C   0  0  1  0  0  0  0  0  0  0  0  0
   10.3705   12.0306   -6.4577 C   0  0  0  0  0  0  0  0  0  0  0  0
   11.2915   12.1474   -7.6551 C   0  0  0  0  0  0  0  0  0  0  0  0
   10.8251   11.2735   -8.7990 C   0  0  1  0  0  0  0  0  0  0  0  0
   11.9748   11.0296   -9.6504 N   0  0  0  0  0  0  0  0  0  0  0  0
   10.1692   10.0225   -8.3142 C   0  0  0  0  0  0  0  0  0  0  0  0
   10.6214    9.5883   -6.9460 C   0  0  0  0  0  0  0  0  0  0  0  0
   12.0063   11.3308   -4.6812 H   0  0  0  0  0  0  0  0  0  0  0  0
    9.4096   10.4314   -5.3585 H   0  0  0  0  0  0  0  0  0  0  0  0
   10.7406   12.7788   -5.7104 H   0  0  0  0  0  0  0  0  0  0  0  0
    9.3566   12.3456   -6.7564 H   0  0  0  0  0  0  0  0  0  0  0  0
   11.2987   13.1850   -7.9876 H   0  0  0  0  0  0  0  0  0  0  0  0
   12.2956   11.8137   -7.3289 H   0  0  0  0  0  0  0  0  0  0  0  0
   10.0923   11.8751   -9.4100 H   0  0  0  0  0  0  0  0  0  0  0  0
   12.1517    9.9934   -9.6269 H   0  0  0  0  0  0  0  0  0  0  0  0
   11.8454   11.3989  -10.6161 H   0  0  0  0  0  0  0  0  0  0  0  0
    9.0423   10.0744   -8.3700 H   0  0  0  0  0  0  0  0  0  0  0  0
   10.4436    9.2047   -9.0181 H   0  0  0  0  0  0  0  0  0  0  0  0
   10.0153    8.6957   -6.6727 H   0  0  0  0  0  0  0  0  0  0  0  0
   11.6881    9.3630   -6.9731 H   0  0  0  0  0  0  0  0  0  0  0  0
  2  1  2  0
  3  2  1  0
  4  3  2  0
  4  5  1  0
  5  6  2  0
  6  1  1  0
  1  7  1  0
  2  8  1  0
  3  9  1  0
 10 11  1  0
 11 12  1  0
 12 13  1  0
 13 14  1  0
 14 15  1  0
 14 16  1  0
 16 17  1  0
 17 11  1  0
 10 18  1  0
 11 19  1  1
 12 20  1  0
 12 21  1  0
 13 22  1  0
 13 23  1  0
 14 24  1  6
 15 25  1  0
 15 26  1  0
 16 27  1  0
 16 28  1  0
 17 29  1  0
 17 30  1  0
  5 10  1  0
M  END
>  <Score>  (1) 
-7.09848

$$$$

     RDKit          3D

 27 28  0  0  0  0  0  0  0  0999 V2000
   12.3028    8.1263   -2.3012 C   0  0  0  0  0  0  0  0  0  0  0  0
   12.0203    6.8819   -2.9158 C   0  0  0  0  0  0  0  0  0  0  0  0
   11.5250    6.8971   -4.2232 C   0  0  0  0  0  0  0  0  0  0  0  0
   11.3426    8.1099   -4.8309 N   0  0  0  0  0  0  0  0  0  0  0  0
   11.6230    9.2762   -4.2136 C   0  0  0  0  0  0  0  0  0  0  0  0
   12.1012    9.2797   -2.9533 N   0  0  0  0  0  0  0  0  0  0  0  0
   12.6824    8.0711   -1.2946 H   0  0  0  0  0  0  0  0  0  0  0  0
   12.1889    5.9632   -2.3753 H   0  0  0  0  0  0  0  0  0  0  0  0
   11.3046    5.9679   -4.7070 H   0  0  0  0  0  0  0  0  0  0  0  0
   11.4069   10.5105   -4.9125 N   0  0  0  0  0  0  0  0  0  0  0  0
   12.2889   11.5988   -4.5449 C   0  0  0  0  0  0  0  0  0  0  0  0
   12.4605   12.6176   -5.6227 C   0  0  0  0  0  0  0  0  0  0  0  0
   11.2570   13.5227   -5.7633 C   0  0  0  0  0  0  0  0  0  0  0  0
   10.1172   12.8718   -5.1975 N   0  0  0  0  0  0  0  0  0  0  0  0
   10.1417   12.7202   -4.1866 H   0  0  0  0  0  0  0  0  0  0  0  0
    9.5950   11.7945   -5.9730 C   0  0  0  0  0  0  0  0  0  0  0  0
   10.3553   10.5186   -5.8804 C   0  0  0  0  0  0  0  0  0  0  0  0
   13.3074   11.1438   -4.3644 H   0  0  0  0  0  0  0  0  0  0  0  0
   11.9852   12.0227   -3.5696 H   0  0  0  0  0  0  0  0  0  0  0  0
   13.3926   13.1909   -5.4315 H   0  0  0  0  0  0  0  0  0  0  0  0
   12.6026   12.0789   -6.5819 H   0  0  0  0  0  0  0  0  0  0  0  0
   11.4174   14.4999   -5.2778 H   0  0  0  0  0  0  0  0  0  0  0  0
   11.0512   13.7223   -6.8286 H   0  0  0  0  0  0  0  0  0  0  0  0
    8.5131   11.6750   -5.6899 H   0  0  0  0  0  0  0  0  0  0  0  0
    9.5528   12.1519   -7.0434 H   0  0  0  0  0  0  0  0  0  0  0  0
    9.6239    9.7163   -5.5738 H   0  0  0  0  0  0  0  0  0  0  0  0
   10.7421   10.2419   -6.8907 H   0  0  0  0  0  0  0  0  0  0  0  0
  2  1  2  0
  3  2  1  0
  4  3  2  0
  4  5  1  0
  5  6  2  0
  6  1  1  0
  1  7  1  0
  2  8  1  0
  3  9  1  0
 10 11  1  0
 11 12  1  0
 12 13  1  0
 13 14  1  0
 14 15  1  0
 14 16  1  0
 16 17  1  0
 17 10  1  0
 11 18  1  0
 11 19  1  0
 12 20  1  0
 12 21  1  0
 13 22  1  0
 13 23  1  0
 16 24  1  0
 16 25  1  0
 17 26  1  0
 17 27  1  0
  5 10  1  0
M  END
>  <Score>  (1) 
-7.09779

$$$$

     RDKit          3D

 19 20  0  0  0  0  0  0  0  0999 V2000
   12.3029    8.1213   -2.3005 C   0  0  0  0  0  0  0  0  0  0  0  0
   12.0214    6.8838   -2.9130 C   0  0  0  0  0  0  0  0  0  0  0  0
   11.5244    6.8974   -4.2248 C   0  0  0  0  0  0  0  0  0  0  0  0
   11.3432    8.1113   -4.8296 N   0  0  0  0  0  0  0  0  0  0  0  0
   11.6235    9.2752   -4.2123 C   0  0  0  0  0  0  0  0  0  0  0  0
   12.0996    9.2821   -2.9578 N   0  0  0  0  0  0  0  0  0  0  0  0
   12.6883    8.0864   -1.2806 H   0  0  0  0  0  0  0  0  0  0  0  0
   12.1761    5.9619   -2.4088 H   0  0  0  0  0  0  0  0  0  0  0  0
   11.3014    5.9777   -4.7166 H   0  0  0  0  0  0  0  0  0  0  0  0
   11.4263   10.5687   -4.8675 C   0  0  0  0  0  0  0  0  0  0  0  0
   11.1155   11.7030   -4.1453 C   0  0  0  0  0  0  0  0  0  0  0  0
   10.9356   12.9109   -4.7977 C   0  0  0  0  0  0  0  0  0  0  0  0
   11.0510   13.0413   -6.1363 N   0  0  0  0  0  0  0  0  0  0  0  0
   11.3538   11.9393   -6.8452 C   0  0  0  0  0  0  0  0  0  0  0  0
   11.4636   12.0987   -8.1865 F   0  0  0  0  0  0  0  0  0  0  0  0
   11.5412   10.7153   -6.2324 C   0  0  0  0  0  0  0  0  0  0  0  0
   11.0179   11.6218   -3.0701 H   0  0  0  0  0  0  0  0  0  0  0  0
   10.6898   13.7912   -4.1940 H   0  0  0  0  0  0  0  0  0  0  0  0
   11.7859    9.8306   -6.8170 H   0  0  0  0  0  0  0  0  0  0  0  0
  2  1  2  0
  3  2  1  0
  4  3  2  0
  4  5  1  0
  5  6  2  0
  6  1  1  0
  1  7  1  0
  2  8  1  0
  3  9  1  0
 10 11  2  0
 11 12  1  0
 12 13  2  0
 13 14  1  0
 14 15  1  0
 14 16  2  0
 16 10  1  0
 11 17  1  0
 12 18  1  0
 16 19  1  0
  5 10  1  0
M  END
>  <Score>  (1) 
-7.09193

$$$$

     RDKit          3D

 24 26  0  0  0  0  0  0  0  0999 V2000
   12.3025    8.1230   -2.3016 C   0  0  0  0  0  0  0  0  0  0  0  0
   12.0217    6.8835   -2.9123 C   0  0  0  0  0  0  0  0  0  0  0  0
   11.5239    6.8986   -4.2262 C   0  0  0  0  0  0  0  0  0  0  0  0
   11.3423    8.1071   -4.8314 N   0  0  0  0  0  0  0  0  0  0  0  0
   11.6238    9.2773   -4.2117 C   0  0  0  0  0  0  0  0  0  0  0  0
   12.1007    9.2815   -2.9548 N   0  0  0  0  0  0  0  0  0  0  0  0
   12.6856    8.0731   -1.2862 H   0  0  0  0  0  0  0  0  0  0  0  0
   12.1718    5.9543   -2.4194 H   0  0  0  0  0  0  0  0  0  0  0  0
   11.3044    5.9736   -4.7083 H   0  0  0  0  0  0  0  0  0  0  0  0
   11.4109   10.5032   -4.9013 N   0  0  0  0  0  0  0  0  0  0  0  0
   11.3930   11.7412   -4.3807 C   0  0  0  0  0  0  0  0  0  0  0  0
   11.1516   12.6598   -5.4032 C   0  0  0  0  0  0  0  0  0  0  0  0
   11.0743   13.7362   -5.3323 H   0  0  0  0  0  0  0  0  0  0  0  0
   11.0213   11.9413   -6.5738 C   0  0  0  0  0  0  0  0  0  0  0  0
   10.7790   12.3132   -7.8811 C   0  0  0  0  0  0  0  0  0  0  0  0
   10.6173   13.6889   -8.1780 N   0  0  0  0  0  0  0  0  0  0  0  0
   10.7019   11.3599   -8.8428 N   0  0  0  0  0  0  0  0  0  0  0  0
   10.8633   10.0651   -8.5063 C   0  0  0  0  0  0  0  0  0  0  0  0
   11.0992    9.7154   -7.2276 N   0  0  0  0  0  0  0  0  0  0  0  0
   11.1855   10.6220   -6.2329 C   0  0  0  0  0  0  0  0  0  0  0  0
   11.5351   12.0161   -3.3632 H   0  0  0  0  0  0  0  0  0  0  0  0
   11.2705   14.4262   -7.8309 H   0  0  0  0  0  0  0  0  0  0  0  0
    9.8191   14.0150   -8.7684 H   0  0  0  0  0  0  0  0  0  0  0  0
   10.8142    9.2515   -9.2242 H   0  0  0  0  0  0  0  0  0  0  0  0
  2  1  2  0
  3  2  1  0
  4  3  2  0
  4  5  1  0
  5  6  2  0
  6  1  1  0
  1  7  1  0
  2  8  1  0
  3  9  1  0
 10 11  1  0
 11 12  2  0
 12 13  1  0
 12 14  1  0
 14 15  2  0
 15 16  1  0
 15 17  1  0
 17 18  2  0
 18 19  1  0
 19 20  2  0
 20 10  1  0
 20 14  1  0
 11 21  1  0
 16 22  1  0
 16 23  1  0
 18 24  1  0
  5 10  1  0
M  END
>  <Score>  (1) 
-7.09137

$$$$

     RDKit          3D

 27 28  0  0  0  0  0  0  0  0999 V2000
   12.3025    8.1205   -2.3014 C   0  0  0  0  0  0  0  0  0  0  0  0
   12.0219    6.8849   -2.9118 C   0  0  0  0  0  0  0  0  0  0  0  0
   11.5239    6.8991   -4.2263 C   0  0  0  0  0  0  0  0  0  0  0  0
   11.3422    8.1063   -4.8316 N   0  0  0  0  0  0  0  0  0  0  0  0
   11.6242    9.2776   -4.2109 C   0  0  0  0  0  0  0  0  0  0  0  0
   12.1003    9.2827   -2.9561 N   0  0  0  0  0  0  0  0  0  0  0  0
   12.6837    8.0669   -1.2907 H   0  0  0  0  0  0  0  0  0  0  0  0
   12.1786    5.9489   -2.4009 H   0  0  0  0  0  0  0  0  0  0  0  0
   11.2951    5.9807   -4.7334 H   0  0  0  0  0  0  0  0  0  0  0  0
    9.2283   10.6492   -9.3257 H   0  0  0  0  0  0  0  0  0  0  0  0
    8.8179   10.5639   -8.3094 C   0  0  0  0  0  0  0  0  0  0  0  0
    7.6077   10.7852   -8.1058 O   0  0  0  0  0  0  0  0  0  0  0  0
    9.6404   10.2038   -7.2091 N   0  0  0  0  0  0  0  0  0  0  0  0
   11.0215    9.9476   -7.4200 C   0  0  0  0  0  0  0  0  0  0  0  0
   11.9424   10.4712   -6.3649 C   0  0  0  0  0  0  0  0  0  0  0  0
   11.3763   10.5226   -4.9945 C   0  0  0  0  0  0  0  0  0  0  0  0
    9.9173   10.9282   -4.9616 C   0  0  0  0  0  0  0  0  0  0  0  0
    9.0861   10.0972   -5.8932 C   0  0  0  0  0  0  0  0  0  0  0  0
   11.1598    8.8538   -7.5319 H   0  0  0  0  0  0  0  0  0  0  0  0
   11.3321   10.3949   -8.3865 H   0  0  0  0  0  0  0  0  0  0  0  0
   12.8351    9.7800   -6.3363 H   0  0  0  0  0  0  0  0  0  0  0  0
   12.3696   11.4555   -6.6755 H   0  0  0  0  0  0  0  0  0  0  0  0
   11.9216   11.3446   -4.4413 H   0  0  0  0  0  0  0  0  0  0  0  0
    9.5894   10.9012   -3.9226 H   0  0  0  0  0  0  0  0  0  0  0  0
    9.8634   11.9789   -5.3189 H   0  0  0  0  0  0  0  0  0  0  0  0
    9.0540    9.0287   -5.6062 H   0  0  0  0  0  0  0  0  0  0  0  0
    8.0612   10.5308   -5.8907 H   0  0  0  0  0  0  0  0  0  0  0  0
  2  1  2  0
  3  2  1  0
  4  3  2  0
  4  5  1  0
  5  6  2  0
  6  1  1  0
  1  7  1  0
  2  8  1  0
  3  9  1  0
 10 11  1  0
 11 12  2  0
 11 13  1  0
 13 14  1  0
 14 15  1  0
 15 16  1  0
 16 17  1  0
 17 18  1  0
 18 13  1  0
 14 19  1  0
 14 20  1  0
 15 21  1  0
 15 22  1  0
 16 23  1  0
 17 24  1  0
 17 25  1  0
 18 26  1  0
 18 27  1  0
  5 16  1  0
M  END
>  <Score>  (1) 
-7.08392

$$$$

     RDKit          3D

 21 22  0  0  0  0  0  0  0  0999 V2000
   12.3022    8.1271   -2.3028 C   0  0  0  0  0  0  0  0  0  0  0  0
   12.0208    6.8820   -2.9144 C   0  0  0  0  0  0  0  0  0  0  0  0
   11.5249    6.8962   -4.2234 C   0  0  0  0  0  0  0  0  0  0  0  0
   11.3425    8.1121   -4.8314 N   0  0  0  0  0  0  0  0  0  0  0  0
   11.6223    9.2746   -4.2153 C   0  0  0  0  0  0  0  0  0  0  0  0
   12.1022    9.2790   -2.9507 N   0  0  0  0  0  0  0  0  0  0  0  0
   12.6818    8.0429   -1.2933 H   0  0  0  0  0  0  0  0  0  0  0  0
   12.1763    5.9600   -2.4081 H   0  0  0  0  0  0  0  0  0  0  0  0
   11.3024    5.9758   -4.7138 H   0  0  0  0  0  0  0  0  0  0  0  0
   11.7045   10.8910   -8.9542 H   0  0  0  0  0  0  0  0  0  0  0  0
   11.4514   11.7645   -8.3923 C   0  0  0  0  0  0  0  0  0  0  0  0
   11.2672   12.8295   -9.0141 O   0  0  0  0  0  0  0  0  0  0  0  0
   11.3158   11.7496   -6.9335 C   0  0  0  0  0  0  0  0  0  0  0  0
   10.9931   12.8771   -6.2491 C   0  0  0  0  0  0  0  0  0  0  0  0
   10.8618   12.8802   -4.8778 C   0  0  0  0  0  0  0  0  0  0  0  0
   11.0745   11.6781   -4.2277 C   0  0  0  0  0  0  0  0  0  0  0  0
   11.4033   10.5290   -4.9240 C   0  0  0  0  0  0  0  0  0  0  0  0
   11.5100   10.6102   -6.2398 N   0  0  0  0  0  0  0  0  0  0  0  0
   10.8251   13.8260   -6.7618 H   0  0  0  0  0  0  0  0  0  0  0  0
   10.6089   13.7422   -4.2905 H   0  0  0  0  0  0  0  0  0  0  0  0
   10.9783   11.6423   -3.1313 H   0  0  0  0  0  0  0  0  0  0  0  0
  2  1  2  0
  3  2  1  0
  4  3  2  0
  4  5  1  0
  5  6  2  0
  6  1  1  0
  1  7  1  0
  2  8  1  0
  3  9  1  0
 10 11  1  0
 11 12  2  0
 11 13  1  0
 13 14  2  0
 14 15  1  0
 15 16  2  0
 16 17  1  0
 17 18  2  0
 18 13  1  0
 14 19  1  0
 15 20  1  0
 16 21  1  0
  5 17  1  0
M  END
>  <Score>  (1) 
-7.08389

$$$$

     RDKit          3D

 24 25  0  0  0  0  0  0  0  0999 V2000
   12.3027    8.1238   -2.3012 C   0  0  0  0  0  0  0  0  0  0  0  0
   12.0211    6.8827   -2.9137 C   0  0  0  0  0  0  0  0  0  0  0  0
   11.5243    6.8990   -4.2253 C   0  0  0  0  0  0  0  0  0  0  0  0
   11.3422    8.1063   -4.8316 N   0  0  0  0  0  0  0  0  0  0  0  0
   11.6240    9.2777   -4.2113 C   0  0  0  0  0  0  0  0  0  0  0  0
   12.1007    9.2814   -2.9549 N   0  0  0  0  0  0  0  0  0  0  0  0
   12.6872    8.1650   -1.2919 H   0  0  0  0  0  0  0  0  0  0  0  0
   12.1856    5.9775   -2.3854 H   0  0  0  0  0  0  0  0  0  0  0  0
   11.3143    5.9656   -4.6814 H   0  0  0  0  0  0  0  0  0  0  0  0
   11.4320   10.4919   -4.8445 O   0  0  0  0  0  0  0  0  0  0  0  0
   10.1574   10.8875   -5.3019 C   0  0  0  0  0  0  0  0  0  0  0  0
   10.2655   12.2296   -5.9354 C   0  0  0  0  0  0  0  0  0  0  0  0
   10.5350   12.2863   -7.2843 C   0  0  0  0  0  0  0  0  0  0  0  0
   10.6385   13.5083   -7.8863 C   0  0  0  0  0  0  0  0  0  0  0  0
   10.4796   14.6691   -7.1743 C   0  0  0  0  0  0  0  0  0  0  0  0
   10.2103   14.6409   -5.8283 C   0  0  0  0  0  0  0  0  0  0  0  0
   10.0051   16.1108   -4.9071 Cl  0  0  0  0  0  0  0  0  0  0  0  0
   10.1060   13.4003   -5.2214 C   0  0  0  0  0  0  0  0  0  0  0  0
    9.7612   10.1795   -6.0622 H   0  0  0  0  0  0  0  0  0  0  0  0
    9.4380   10.9083   -4.4521 H   0  0  0  0  0  0  0  0  0  0  0  0
   10.6598   11.3536   -7.8421 H   0  0  0  0  0  0  0  0  0  0  0  0
   10.8498   13.5806   -8.9458 H   0  0  0  0  0  0  0  0  0  0  0  0
   10.5630   15.6544   -7.6591 H   0  0  0  0  0  0  0  0  0  0  0  0
    9.8932   13.3403   -4.1554 H   0  0  0  0  0  0  0  0  0  0  0  0
  2  1  2  0
  3  2  1  0
  4  3  2  0
  4  5  1  0
  5  6  2  0
  6  1  1  0
  1  7  1  0
  2  8  1  0
  3  9  1  0
 10 11  1  0
 11 12  1  0
 12 13  2  0
 13 14  1  0
 14 15  2  0
 15 16  1  0
 16 17  1  0
 16 18  2  0
 18 12  1  0
 11 19  1  0
 11 20  1  0
 13 21  1  0
 14 22  1  0
 15 23  1  0
 18 24  1  0
  5 10  1  0
M  END
>  <Score>  (1) 
-7.07399

$$$$

     RDKit          3D

 23 24  0  0  0  0  0  0  0  0999 V2000
   12.3028    8.1201   -2.3005 C   0  0  0  0  0  0  0  0  0  0  0  0
   12.0212    6.8858   -2.9137 C   0  0  0  0  0  0  0  0  0  0  0  0
   11.5246    6.8971   -4.2243 C   0  0  0  0  0  0  0  0  0  0  0  0
   11.3428    8.1122   -4.8307 N   0  0  0  0  0  0  0  0  0  0  0  0
   11.6232    9.2723   -4.2129 C   0  0  0  0  0  0  0  0  0  0  0  0
   12.1004    9.2835   -2.9559 N   0  0  0  0  0  0  0  0  0  0  0  0
   12.6863    8.1024   -1.2876 H   0  0  0  0  0  0  0  0  0  0  0  0
   12.1687    5.9503   -2.4271 H   0  0  0  0  0  0  0  0  0  0  0  0
   11.3045    5.9711   -4.7078 H   0  0  0  0  0  0  0  0  0  0  0  0
   11.4113   10.5618   -4.9063 C   0  0  0  0  0  0  0  0  0  0  0  0
   10.8198   11.5792   -4.2769 N   0  0  0  0  0  0  0  0  0  0  0  0
   10.6161   12.7629   -4.8881 C   0  0  0  0  0  0  0  0  0  0  0  0
   11.0171   12.9620   -6.1981 C   0  0  0  0  0  0  0  0  0  0  0  0
   10.8630   13.9095   -6.7119 H   0  0  0  0  0  0  0  0  0  0  0  0
   11.6255   11.9033   -6.8335 C   0  0  0  0  0  0  0  0  0  0  0  0
   12.0625   12.0298   -8.1709 N   0  0  0  0  0  0  0  0  0  0  0  0
   11.8946   13.2471   -8.9149 C   0  0  0  0  0  0  0  0  0  0  0  0
   11.8025   10.7423   -6.1707 N   0  0  0  0  0  0  0  0  0  0  0  0
   10.1377   13.6092   -4.4019 H   0  0  0  0  0  0  0  0  0  0  0  0
   12.5263   11.2204   -8.6531 H   0  0  0  0  0  0  0  0  0  0  0  0
   10.9168   13.7369   -8.7439 H   0  0  0  0  0  0  0  0  0  0  0  0
   11.9563   13.0452  -10.0203 H   0  0  0  0  0  0  0  0  0  0  0  0
   12.7446   13.9227   -8.6286 H   0  0  0  0  0  0  0  0  0  0  0  0
  2  1  2  0
  3  2  1  0
  4  3  2  0
  4  5  1  0
  5  6  2  0
  6  1  1  0
  1  7  1  0
  2  8  1  0
  3  9  1  0
 10 11  2  0
 11 12  1  0
 12 13  2  0
 13 14  1  0
 13 15  1  0
 15 16  1  0
 16 17  1  0
 15 18  2  0
 18 10  1  0
 12 19  1  0
 16 20  1  0
 17 21  1  0
 17 22  1  0
 17 23  1  0
  5 10  1  0
M  END
>  <Score>  (1) 
-7.07366

$$$$

     RDKit          3D

 23 25  0  0  0  0  0  0  0  0999 V2000
   12.3031    8.1264   -2.3004 C   0  0  0  0  0  0  0  0  0  0  0  0
   12.0197    6.8804   -2.9172 C   0  0  0  0  0  0  0  0  0  0  0  0
   11.5255    6.8982   -4.2221 C   0  0  0  0  0  0  0  0  0  0  0  0
   11.3423    8.1090   -4.8317 N   0  0  0  0  0  0  0  0  0  0  0  0
   11.6237    9.2759   -4.2120 C   0  0  0  0  0  0  0  0  0  0  0  0
   12.1007    9.2810   -2.9547 N   0  0  0  0  0  0  0  0  0  0  0  0
   12.6769    8.0649   -1.3084 H   0  0  0  0  0  0  0  0  0  0  0  0
   12.1815    5.9614   -2.3945 H   0  0  0  0  0  0  0  0  0  0  0  0
   11.3037    5.9647   -4.7093 H   0  0  0  0  0  0  0  0  0  0  0  0
   11.4107   10.5020   -4.9017 N   0  0  0  0  0  0  0  0  0  0  0  0
   10.9096   10.6786   -6.2411 C   0  0  0  0  0  0  0  0  0  0  0  0
   11.6338   11.8595   -6.8053 C   0  0  2  0  0  0  0  0  0  0  0  0
   13.0368   12.1561   -6.4827 C   0  0  0  0  0  0  0  0  0  0  0  0
   13.5430   12.9050   -7.1037 H   0  0  0  0  0  0  0  0  0  0  0  0
   11.9516   12.6812   -5.5928 C   0  0  2  0  0  0  0  0  0  0  0  0
   11.6576   11.8315   -4.3894 C   0  0  0  0  0  0  0  0  0  0  0  0
    9.8222   10.9640   -6.1317 H   0  0  0  0  0  0  0  0  0  0  0  0
   10.9525    9.7771   -6.8558 H   0  0  0  0  0  0  0  0  0  0  0  0
   11.1705   12.3551   -7.6884 H   0  0  0  0  0  0  0  0  0  0  0  0
   13.7176   11.3768   -6.0704 H   0  0  0  0  0  0  0  0  0  0  0  0
   11.6251   13.7244   -5.6440 H   0  0  0  0  0  0  0  0  0  0  0  0
   12.5924   11.7679   -3.7753 H   0  0  0  0  0  0  0  0  0  0  0  0
   10.8354   12.2163   -3.7638 H   0  0  0  0  0  0  0  0  0  0  0  0
  2  1  2  0
  3  2  1  0
  4  3  2  0
  4  5  1  0
  5  6  2  0
  6  1  1  0
  1  7  1  0
  2  8  1  0
  3  9  1  0
 10 11  1  0
 11 12  1  0
 12 13  1  0
 13 14  1  0
 13 15  1  0
 15 16  1  0
 16 10  1  0
 15 12  1  0
 11 17  1  0
 11 18  1  0
 12 19  1  6
 13 20  1  0
 15 21  1  1
 16 22  1  0
 16 23  1  0
  5 10  1  0
M  END
>  <Score>  (1) 
-7.07309

$$$$

     RDKit          3D

 28 30  0  0  0  0  0  0  0  0999 V2000
   12.3028    8.1297   -2.3014 C   0  0  0  0  0  0  0  0  0  0  0  0
   12.0200    6.8817   -2.9165 C   0  0  0  0  0  0  0  0  0  0  0  0
   11.5261    6.9019   -4.2209 C   0  0  0  0  0  0  0  0  0  0  0  0
   11.3432    8.1067   -4.8290 N   0  0  0  0  0  0  0  0  0  0  0  0
   11.6265    9.2825   -4.2053 C   0  0  0  0  0  0  0  0  0  0  0  0
   12.0963    9.2686   -2.9649 N   0  0  0  0  0  0  0  0  0  0  0  0
   12.6821    8.0476   -1.2928 H   0  0  0  0  0  0  0  0  0  0  0  0
   12.1731    5.9563   -2.4163 H   0  0  0  0  0  0  0  0  0  0  0  0
   11.3096    5.9644   -4.6933 H   0  0  0  0  0  0  0  0  0  0  0  0
   11.3950   10.4637   -4.9287 N   0  0  0  0  0  0  0  0  0  0  0  0
   10.9003   10.6075   -6.2308 C   0  0  0  0  0  0  0  0  0  0  0  0
   10.8175   11.8749   -6.8104 C   0  0  0  0  0  0  0  0  0  0  0  0
   10.3368   12.1000   -8.0826 C   0  0  0  0  0  0  0  0  0  0  0  0
    9.9107   11.0299   -8.8379 C   0  0  0  0  0  0  0  0  0  0  0  0
    9.9679    9.7536   -8.3199 C   0  0  0  0  0  0  0  0  0  0  0  0
   10.4636    9.5723   -7.0229 C   0  0  0  0  0  0  0  0  0  0  0  0
    9.5294    8.7133   -9.1153 O   0  0  0  0  0  0  0  0  0  0  0  0
    9.6181    8.7722  -10.5221 C   0  0  0  0  0  0  0  0  0  0  0  0
    9.6041   10.1487  -11.0973 C   0  0  0  0  0  0  0  0  0  0  0  0
    9.4122   11.1610  -10.1267 O   0  0  0  0  0  0  0  0  0  0  0  0
   11.6301   11.3766   -4.4058 H   0  0  0  0  0  0  0  0  0  0  0  0
   11.1648   12.7146   -6.1880 H   0  0  0  0  0  0  0  0  0  0  0  0
   10.2934   13.1105   -8.4875 H   0  0  0  0  0  0  0  0  0  0  0  0
   10.4801    8.5725   -6.6806 H   0  0  0  0  0  0  0  0  0  0  0  0
   10.5185    8.2367  -10.8857 H   0  0  0  0  0  0  0  0  0  0  0  0
    8.7557    8.1778  -10.9306 H   0  0  0  0  0  0  0  0  0  0  0  0
   10.5400   10.3780  -11.6472 H   0  0  0  0  0  0  0  0  0  0  0  0
    8.7326   10.2466  -11.8074 H   0  0  0  0  0  0  0  0  0  0  0  0
  2  1  2  0
  3  2  1  0
  4  3  2  0
  4  5  1  0
  5  6  2  0
  6  1  1  0
  1  7  1  0
  2  8  1  0
  3  9  1  0
 10 11  1  0
 11 12  2  0
 12 13  1  0
 13 14  2  0
 14 15  1  0
 15 16  2  0
 15 17  1  0
 17 18  1  0
 18 19  1  0
 19 20  1  0
 16 11  1  0
 20 14  1  0
 10 21  1  0
 12 22  1  0
 13 23  1  0
 16 24  1  0
 18 25  1  0
 18 26  1  0
 19 27  1  0
 19 28  1  0
  5 10  1  0
M  END
>  <Score>  (1) 
-7.98388

$$$$

     RDKit          3D

 19 20  0  0  0  0  0  0  0  0999 V2000
   12.3027    8.1207   -2.3007 C   0  0  0  0  0  0  0  0  0  0  0  0
   12.0217    6.8839   -2.9124 C   0  0  0  0  0  0  0  0  0  0  0  0
   11.5242    6.8975   -4.2253 C   0  0  0  0  0  0  0  0  0  0  0  0
   11.3421    8.1086   -4.8321 N   0  0  0  0  0  0  0  0  0  0  0  0
   11.6249    9.2766   -4.2087 C   0  0  0  0  0  0  0  0  0  0  0  0
   12.0993    9.2836   -2.9587 N   0  0  0  0  0  0  0  0  0  0  0  0
   12.6873    8.1055   -1.2854 H   0  0  0  0  0  0  0  0  0  0  0  0
   12.1824    5.9515   -2.3910 H   0  0  0  0  0  0  0  0  0  0  0  0
   11.2951    5.9787   -4.7333 H   0  0  0  0  0  0  0  0  0  0  0  0
   11.4004   10.5242   -4.9312 C   0  0  0  0  0  0  0  0  0  0  0  0
   10.2759   10.7829   -5.6569 C   0  0  0  0  0  0  0  0  0  0  0  0
   10.1234   11.9900   -6.3213 C   0  0  0  0  0  0  0  0  0  0  0  0
   11.1070   12.9570   -6.2631 C   0  0  0  0  0  0  0  0  0  0  0  0
   10.9711   14.1524   -6.9131 F   0  0  0  0  0  0  0  0  0  0  0  0
   12.2028   12.6620   -5.5353 N   0  0  0  0  0  0  0  0  0  0  0  0
   12.3785   11.5108   -4.8853 C   0  0  0  0  0  0  0  0  0  0  0  0
    9.5099   10.0281   -5.7014 H   0  0  0  0  0  0  0  0  0  0  0  0
    9.2302   12.1714   -6.8861 H   0  0  0  0  0  0  0  0  0  0  0  0
   13.2796   11.2920   -4.2984 H   0  0  0  0  0  0  0  0  0  0  0  0
  2  1  2  0
  3  2  1  0
  4  3  2  0
  4  5  1  0
  5  6  2  0
  6  1  1  0
  1  7  1  0
  2  8  1  0
  3  9  1  0
 10 11  2  0
 11 12  1  0
 12 13  2  0
 13 14  1  0
 13 15  1  0
 15 16  2  0
 16 10  1  0
 11 17  1  0
 12 18  1  0
 16 19  1  0
  5 10  1  0
M  END
>  <Score>  (1) 
-7.06932

$$$$

     RDKit          3D

 25 27  0  0  0  0  0  0  0  0999 V2000
   12.3024    8.1219   -2.3017 C   0  0  0  0  0  0  0  0  0  0  0  0
   12.0218    6.8842   -2.9120 C   0  0  0  0  0  0  0  0  0  0  0  0
   11.5239    6.8984   -4.2262 C   0  0  0  0  0  0  0  0  0  0  0  0
   11.3423    8.1070   -4.8314 N   0  0  0  0  0  0  0  0  0  0  0  0
   11.6239    9.2776   -4.2115 C   0  0  0  0  0  0  0  0  0  0  0  0
   12.1006    9.2819   -2.9552 N   0  0  0  0  0  0  0  0  0  0  0  0
   12.6846    8.0873   -1.2903 H   0  0  0  0  0  0  0  0  0  0  0  0
   12.1944    5.9929   -2.3638 H   0  0  0  0  0  0  0  0  0  0  0  0
   11.3104    5.9667   -4.6916 H   0  0  0  0  0  0  0  0  0  0  0  0
   11.4066   10.4817   -4.9103 N   0  0  0  0  0  0  0  0  0  0  0  0
   12.3719   11.5478   -4.9103 C   0  0  0  0  0  0  0  0  0  0  0  0
   12.6127   12.1694   -6.2394 C   0  0  0  0  0  0  0  0  0  0  0  0
   11.7297   11.6983   -7.2885 N   0  0  0  0  0  0  0  0  0  0  0  0
   11.8854   11.8606   -8.6035 C   0  0  0  0  0  0  0  0  0  0  0  0
   12.6797   12.3631   -9.1570 H   0  0  0  0  0  0  0  0  0  0  0  0
   10.8271   11.2597   -9.1722 N   0  0  0  0  0  0  0  0  0  0  0  0
   10.0496   10.7473   -8.2441 N   0  0  0  0  0  0  0  0  0  0  0  0
   10.6085   11.0180   -7.0605 C   0  0  0  0  0  0  0  0  0  0  0  0
   10.1819   10.6900   -5.6655 C   0  0  0  0  0  0  0  0  0  0  0  0
   13.3606   11.1818   -4.5085 H   0  0  0  0  0  0  0  0  0  0  0  0
   11.9897   12.3183   -4.1837 H   0  0  0  0  0  0  0  0  0  0  0  0
   12.4339   13.2827   -6.1727 H   0  0  0  0  0  0  0  0  0  0  0  0
   13.6713   12.0748   -6.5642 H   0  0  0  0  0  0  0  0  0  0  0  0
    9.5548    9.7836   -5.6207 H   0  0  0  0  0  0  0  0  0  0  0  0
    9.6182   11.5391   -5.2185 H   0  0  0  0  0  0  0  0  0  0  0  0
  2  1  2  0
  3  2  1  0
  4  3  2  0
  4  5  1  0
  5  6  2  0
  6  1  1  0
  1  7  1  0
  2  8  1  0
  3  9  1  0
 10 11  1  0
 11 12  1  0
 12 13  1  0
 13 14  1  0
 14 15  1  0
 14 16  2  0
 16 17  1  0
 17 18  2  0
 18 19  1  0
 19 10  1  0
 18 13  1  0
 11 20  1  0
 11 21  1  0
 12 22  1  0
 12 23  1  0
 19 24  1  0
 19 25  1  0
  5 10  1  0
M  END
>  <Score>  (1) 
-7.05685

$$$$

     RDKit          3D

 23 24  0  0  0  0  0  0  0  0999 V2000
   12.3026    8.1222   -2.3012 C   0  0  0  0  0  0  0  0  0  0  0  0
   12.0205    6.8823   -2.9154 C   0  0  0  0  0  0  0  0  0  0  0  0
   11.5259    6.8957   -4.2207 C   0  0  0  0  0  0  0  0  0  0  0  0
   11.3426    8.1130   -4.8312 N   0  0  0  0  0  0  0  0  0  0  0  0
   11.6239    9.2759   -4.2114 C   0  0  0  0  0  0  0  0  0  0  0  0
   12.0995    9.2820   -2.9580 N   0  0  0  0  0  0  0  0  0  0  0  0
   12.6799    8.0562   -1.2997 H   0  0  0  0  0  0  0  0  0  0  0  0
   12.1857    5.9526   -2.3824 H   0  0  0  0  0  0  0  0  0  0  0  0
   11.2978    5.9814   -4.7264 H   0  0  0  0  0  0  0  0  0  0  0  0
   11.3897   10.4670   -4.9531 N   0  0  0  0  0  0  0  0  0  0  0  0
   10.1008   10.8355   -5.4591 C   0  0  0  0  0  0  0  0  0  0  0  0
   10.1277   11.1073   -6.9404 C   0  0  0  0  0  0  0  0  0  0  0  0
   11.4583   11.2432   -7.4673 N   0  0  0  0  0  0  0  0  0  0  0  0
   11.5577   11.1893   -8.5110 H   0  0  0  0  0  0  0  0  0  0  0  0
   12.6204   11.4401   -6.7052 C   0  0  0  0  0  0  0  0  0  0  0  0
   13.7366   11.6676   -7.2516 O   0  0  0  0  0  0  0  0  0  0  0  0
   12.5037   11.3733   -5.2237 C   0  0  0  0  0  0  0  0  0  0  0  0
    9.6633   11.6956   -4.8970 H   0  0  0  0  0  0  0  0  0  0  0  0
    9.4113    9.9750   -5.2429 H   0  0  0  0  0  0  0  0  0  0  0  0
    9.6329   10.2854   -7.4890 H   0  0  0  0  0  0  0  0  0  0  0  0
    9.5565   12.0491   -7.1483 H   0  0  0  0  0  0  0  0  0  0  0  0
   12.3345   12.3763   -4.8085 H   0  0  0  0  0  0  0  0  0  0  0  0
   13.4494   10.9591   -4.7732 H   0  0  0  0  0  0  0  0  0  0  0  0
  2  1  2  0
  3  2  1  0
  4  3  2  0
  4  5  1  0
  5  6  2  0
  6  1  1  0
  1  7  1  0
  2  8  1  0
  3  9  1  0
 10 11  1  0
 11 12  1  0
 12 13  1  0
 13 14  1  0
 13 15  1  0
 15 16  2  0
 15 17  1  0
 17 10  1  0
 11 18  1  0
 11 19  1  0
 12 20  1  0
 12 21  1  0
 17 22  1  0
 17 23  1  0
  5 10  1  0
M  END
>  <Score>  (1) 
-7.05109

$$$$

     RDKit          3D

 26 27  0  0  0  0  0  0  0  0999 V2000
   12.3027    8.1249   -2.3012 C   0  0  0  0  0  0  0  0  0  0  0  0
   12.0207    6.8820   -2.9148 C   0  0  0  0  0  0  0  0  0  0  0  0
   11.5247    6.8987   -4.2243 C   0  0  0  0  0  0  0  0  0  0  0  0
   11.3423    8.1068   -4.8316 N   0  0  0  0  0  0  0  0  0  0  0  0
   11.6238    9.2776   -4.2118 C   0  0  0  0  0  0  0  0  0  0  0  0
   12.1009    9.2810   -2.9543 N   0  0  0  0  0  0  0  0  0  0  0  0
   12.6840    8.0615   -1.2892 H   0  0  0  0  0  0  0  0  0  0  0  0
   12.1885    5.9628   -2.3760 H   0  0  0  0  0  0  0  0  0  0  0  0
   11.3141    5.9655   -4.6819 H   0  0  0  0  0  0  0  0  0  0  0  0
    9.9617   11.9128   -8.7144 H   0  0  0  0  0  0  0  0  0  0  0  0
   10.2986   11.0370   -8.1079 C   0  0  0  0  0  0  0  0  0  0  0  0
   10.4947   11.5469   -6.6833 C   0  0  1  0  0  0  0  0  0  0  0  0
   10.3696   10.4794   -5.8337 O   0  0  0  0  0  0  0  0  0  0  0  0
   11.4086   10.5458   -4.9118 C   0  0  2  0  0  0  0  0  0  0  0  0
   12.5746   10.9382   -5.8046 C   0  0  2  0  0  0  0  0  0  0  0  0
   13.6622   11.3759   -5.0869 O   0  0  0  0  0  0  0  0  0  0  0  0
   11.9061   12.0631   -6.5906 C   0  0  2  0  0  0  0  0  0  0  0  0
   11.8885   13.2047   -5.8019 O   0  0  0  0  0  0  0  0  0  0  0  0
    9.5299   10.2495   -8.1198 H   0  0  0  0  0  0  0  0  0  0  0  0
   11.2748   10.6465   -8.4575 H   0  0  0  0  0  0  0  0  0  0  0  0
    9.7401   12.3153   -6.4220 H   0  0  0  0  0  0  0  0  0  0  0  0
   11.2045   11.3997   -4.2490 H   0  0  0  0  0  0  0  0  0  0  0  0
   12.8219   10.1191   -6.5294 H   0  0  0  0  0  0  0  0  0  0  0  0
   14.4867   10.9771   -5.4901 H   0  0  0  0  0  0  0  0  0  0  0  0
   12.3713   12.2158   -7.5707 H   0  0  0  0  0  0  0  0  0  0  0  0
   11.0237   13.3300   -5.3319 H   0  0  0  0  0  0  0  0  0  0  0  0
  2  1  2  0
  3  2  1  0
  4  3  2  0
  4  5  1  0
  5  6  2  0
  6  1  1  0
  1  7  1  0
  2  8  1  0
  3  9  1  0
 10 11  1  0
 11 12  1  0
 12 13  1  0
 13 14  1  0
 14 15  1  0
 15 16  1  0
 15 17  1  0
 17 18  1  0
 17 12  1  0
 11 19  1  0
 11 20  1  0
 12 21  1  1
 14 22  1  1
 15 23  1  6
 16 24  1  0
 17 25  1  6
 18 26  1  0
  5 14  1  0
M  END
>  <Score>  (1) 
-7.04751

$$$$

     RDKit          3D

 21 22  0  0  0  0  0  0  0  0999 V2000
   12.3025    8.1231   -2.3016 C   0  0  0  0  0  0  0  0  0  0  0  0
   12.0217    6.8834   -2.9123 C   0  0  0  0  0  0  0  0  0  0  0  0
   11.5240    6.8983   -4.2260 C   0  0  0  0  0  0  0  0  0  0  0  0
   11.3422    8.1073   -4.8317 N   0  0  0  0  0  0  0  0  0  0  0  0
   11.6240    9.2775   -4.2112 C   0  0  0  0  0  0  0  0  0  0  0  0
   12.1005    9.2815   -2.9553 N   0  0  0  0  0  0  0  0  0  0  0  0
   12.6860    8.0792   -1.2859 H   0  0  0  0  0  0  0  0  0  0  0  0
   12.1724    5.9572   -2.4180 H   0  0  0  0  0  0  0  0  0  0  0  0
   11.2870    5.9934   -4.7561 H   0  0  0  0  0  0  0  0  0  0  0  0
   11.4112   10.4895   -4.8992 N   0  0  0  0  0  0  0  0  0  0  0  0
   10.9044   10.4788   -6.2342 C   0  0  0  0  0  0  0  0  0  0  0  0
   10.6938   11.6227   -6.9094 N   0  0  0  0  0  0  0  0  0  0  0  0
   10.2162   11.6172   -8.1679 C   0  0  0  0  0  0  0  0  0  0  0  0
   10.0572   12.5478   -8.6848 H   0  0  0  0  0  0  0  0  0  0  0  0
    9.9299   10.4715   -8.8026 N   0  0  0  0  0  0  0  0  0  0  0  0
   10.1360    9.2976   -8.1364 C   0  0  0  0  0  0  0  0  0  0  0  0
    9.8292    8.1024   -8.8197 N   0  0  0  0  0  0  0  0  0  0  0  0
   10.4565    7.2911   -8.9071 H   0  0  0  0  0  0  0  0  0  0  0  0
   10.6141    9.3349   -6.8796 N   0  0  0  0  0  0  0  0  0  0  0  0
   11.6148   11.4093   -4.4589 H   0  0  0  0  0  0  0  0  0  0  0  0
    8.8802    8.0396   -9.2760 H   0  0  0  0  0  0  0  0  0  0  0  0
  2  1  2  0
  3  2  1  0
  4  3  2  0
  4  5  1  0
  5  6  2  0
  6  1  1  0
  1  7  1  0
  2  8  1  0
  3  9  1  0
 10 11  1  0
 11 12  2  0
 12 13  1  0
 13 14  1  0
 13 15  2  0
 15 16  1  0
 16 17  1  0
 17 18  1  0
 16 19  2  0
 19 11  1  0
 10 20  1  0
 17 21  1  0
  5 10  1  0
M  END
>  <Score>  (1) 
-7.04733

$$$$

     RDKit          3D

 23 24  0  0  0  0  0  0  0  0999 V2000
   12.3025    8.1216   -2.3013 C   0  0  0  0  0  0  0  0  0  0  0  0
   12.0220    6.8841   -2.9116 C   0  0  0  0  0  0  0  0  0  0  0  0
   11.5237    6.8992   -4.2270 C   0  0  0  0  0  0  0  0  0  0  0  0
   11.3422    8.1056   -4.8315 N   0  0  0  0  0  0  0  0  0  0  0  0
   11.6244    9.2782   -4.2103 C   0  0  0  0  0  0  0  0  0  0  0  0
   12.1002    9.2823   -2.9563 N   0  0  0  0  0  0  0  0  0  0  0  0
   12.6891    8.1082   -1.2808 H   0  0  0  0  0  0  0  0  0  0  0  0
   12.1921    5.9877   -2.3693 H   0  0  0  0  0  0  0  0  0  0  0  0
   11.3024    5.9645   -4.7126 H   0  0  0  0  0  0  0  0  0  0  0  0
   11.3754   10.5162   -4.9962 C   0  0  0  0  0  0  0  0  0  0  0  0
   10.2657   10.3406   -5.9622 C   0  0  0  0  0  0  0  0  0  0  0  0
    8.9598   10.6187   -5.6148 C   0  0  0  0  0  0  0  0  0  0  0  0
    7.9128   10.4556   -6.5183 C   0  0  0  0  0  0  0  0  0  0  0  0
    8.1506   10.0075   -7.7978 C   0  0  0  0  0  0  0  0  0  0  0  0
    9.4554    9.7289   -8.1468 C   0  0  0  0  0  0  0  0  0  0  0  0
   10.4953    9.8915   -7.2482 C   0  0  0  0  0  0  0  0  0  0  0  0
   11.1600   11.3669   -4.3025 H   0  0  0  0  0  0  0  0  0  0  0  0
   12.2902   10.8256   -5.5575 H   0  0  0  0  0  0  0  0  0  0  0  0
    8.7682   10.9719   -4.6080 H   0  0  0  0  0  0  0  0  0  0  0  0
    6.8832   10.6754   -6.2430 H   0  0  0  0  0  0  0  0  0  0  0  0
    7.3207    9.8849   -8.4935 H   0  0  0  0  0  0  0  0  0  0  0  0
    9.6981    9.3739   -9.1397 H   0  0  0  0  0  0  0  0  0  0  0  0
   11.5276    9.6737   -7.5162 H   0  0  0  0  0  0  0  0  0  0  0  0
  2  1  2  0
  3  2  1  0
  4  3  2  0
  4  5  1  0
  5  6  2  0
  6  1  1  0
  1  7  1  0
  2  8  1  0
  3  9  1  0
 10 11  1  0
 11 12  2  0
 12 13  1  0
 13 14  2  0
 14 15  1  0
 15 16  2  0
 16 11  1  0
 10 17  1  0
 10 18  1  0
 12 19  1  0
 13 20  1  0
 14 21  1  0
 15 22  1  0
 16 23  1  0
  5 10  1  0
M  END
>  <Score>  (1) 
-7.04725

$$$$

     RDKit          3D

 25 26  0  0  0  0  0  0  0  0999 V2000
   12.3027    8.1234   -2.3011 C   0  0  0  0  0  0  0  0  0  0  0  0
   12.0210    6.8828   -2.9141 C   0  0  0  0  0  0  0  0  0  0  0  0
   11.5248    6.8966   -4.2237 C   0  0  0  0  0  0  0  0  0  0  0  0
   11.3423    8.1108   -4.8318 N   0  0  0  0  0  0  0  0  0  0  0  0
   11.6237    9.2753   -4.2119 C   0  0  0  0  0  0  0  0  0  0  0  0
   12.1005    9.2820   -2.9554 N   0  0  0  0  0  0  0  0  0  0  0  0
   12.6821    8.1711   -1.3058 H   0  0  0  0  0  0  0  0  0  0  0  0
   12.1889    5.9623   -2.3751 H   0  0  0  0  0  0  0  0  0  0  0  0
   11.3089    5.9710   -4.6961 H   0  0  0  0  0  0  0  0  0  0  0  0
   11.4733   12.6191   -8.8223 H   0  0  0  0  0  0  0  0  0  0  0  0
   11.7402   11.7646   -8.2182 C   0  0  0  0  0  0  0  0  0  0  0  0
   12.3525   10.8640   -8.7660 O   0  0  0  0  0  0  0  0  0  0  0  0
   11.4231   11.6076   -6.7962 C   0  0  2  0  0  0  0  0  0  0  0  0
   11.8882   10.4051   -6.2660 O   0  0  0  0  0  0  0  0  0  0  0  0
   11.3923   10.5150   -4.9516 C   0  0  1  0  0  0  0  0  0  0  0  0
    9.9396   10.8435   -5.1447 C   0  0  2  0  0  0  0  0  0  0  0  0
    9.1597    9.6877   -5.1351 O   0  0  0  0  0  0  0  0  0  0  0  0
    9.9456   11.5037   -6.5142 C   0  0  2  0  0  0  0  0  0  0  0  0
    9.3125   10.6454   -7.4022 O   0  0  0  0  0  0  0  0  0  0  0  0
   11.8443   12.4139   -6.1611 H   0  0  0  0  0  0  0  0  0  0  0  0
   11.9364   11.3976   -4.5058 H   0  0  0  0  0  0  0  0  0  0  0  0
    9.5906   11.5546   -4.3713 H   0  0  0  0  0  0  0  0  0  0  0  0
    9.3908    9.1502   -5.9157 H   0  0  0  0  0  0  0  0  0  0  0  0
    9.4474   12.4720   -6.4667 H   0  0  0  0  0  0  0  0  0  0  0  0
    8.3541   10.6225   -7.1465 H   0  0  0  0  0  0  0  0  0  0  0  0
  2  1  2  0
  3  2  1  0
  4  3  2  0
  4  5  1  0
  5  6  2  0
  6  1  1  0
  1  7  1  0
  2  8  1  0
  3  9  1  0
 10 11  1  0
 11 12  2  0
 11 13  1  0
 13 14  1  0
 14 15  1  0
 15 16  1  0
 16 17  1  0
 16 18  1  0
 18 19  1  0
 18 13  1  0
 13 20  1  1
 15 21  1  1
 16 22  1  1
 17 23  1  0
 18 24  1  1
 19 25  1  0
  5 15  1  0
M  END
>  <Score>  (1) 
-7.04688

$$$$

     RDKit          3D

 21 22  0  0  0  0  0  0  0  0999 V2000
   12.3026    8.1243   -2.3015 C   0  0  0  0  0  0  0  0  0  0  0  0
   12.0213    6.8827   -2.9133 C   0  0  0  0  0  0  0  0  0  0  0  0
   11.5242    6.8983   -4.2255 C   0  0  0  0  0  0  0  0  0  0  0  0
   11.3423    8.1072   -4.8314 N   0  0  0  0  0  0  0  0  0  0  0  0
   11.6237    9.2775   -4.2119 C   0  0  0  0  0  0  0  0  0  0  0  0
   12.1009    9.2809   -2.9543 N   0  0  0  0  0  0  0  0  0  0  0  0
   12.6824    8.0665   -1.2942 H   0  0  0  0  0  0  0  0  0  0  0  0
   12.1786    5.9628   -2.4022 H   0  0  0  0  0  0  0  0  0  0  0  0
   11.2913    5.9727   -4.7428 H   0  0  0  0  0  0  0  0  0  0  0  0
   11.3953   10.4498   -4.9369 O   0  0  0  0  0  0  0  0  0  0  0  0
   10.6175   10.3543   -6.0799 C   0  0  0  0  0  0  0  0  0  0  0  0
    9.2565   10.5210   -5.9743 C   0  0  0  0  0  0  0  0  0  0  0  0
    8.4450   10.4351   -7.0799 C   0  0  0  0  0  0  0  0  0  0  0  0
    9.0157   10.1772   -8.3103 C   0  0  0  0  0  0  0  0  0  0  0  0
    7.9522   10.0721   -9.7131 Cl  0  0  0  0  0  0  0  0  0  0  0  0
   10.3763   10.0053   -8.4491 C   0  0  0  0  0  0  0  0  0  0  0  0
   11.1535   10.0991   -7.3175 C   0  0  0  0  0  0  0  0  0  0  0  0
   12.2261    9.9592   -7.4551 H   0  0  0  0  0  0  0  0  0  0  0  0
    8.7757   10.7269   -5.0093 H   0  0  0  0  0  0  0  0  0  0  0  0
    7.3859   10.5717   -6.9540 H   0  0  0  0  0  0  0  0  0  0  0  0
   10.8214    9.7998   -9.4366 H   0  0  0  0  0  0  0  0  0  0  0  0
  2  1  2  0
  3  2  1  0
  4  3  2  0
  4  5  1  0
  5  6  2  0
  6  1  1  0
  1  7  1  0
  2  8  1  0
  3  9  1  0
 10 11  1  0
 11 12  2  0
 12 13  1  0
 13 14  2  0
 14 15  1  0
 14 16  1  0
 16 17  2  0
 17 18  1  0
 17 11  1  0
 12 19  1  0
 13 20  1  0
 16 21  1  0
  5 10  1  0
M  END
>  <Score>  (1) 
-7.04038

$$$$

     RDKit          3D

 24 25  0  0  0  0  0  0  0  0999 V2000
   12.3027    8.1219   -2.3011 C   0  0  0  0  0  0  0  0  0  0  0  0
   12.0218    6.8834   -2.9121 C   0  0  0  0  0  0  0  0  0  0  0  0
   11.5242    6.8962   -4.2251 C   0  0  0  0  0  0  0  0  0  0  0  0
   11.3432    8.1133   -4.8298 N   0  0  0  0  0  0  0  0  0  0  0  0
   11.6233    9.2743   -4.2127 C   0  0  0  0  0  0  0  0  0  0  0  0
   12.0998    9.2820   -2.9572 N   0  0  0  0  0  0  0  0  0  0  0  0
   12.6806    8.0532   -1.2975 H   0  0  0  0  0  0  0  0  0  0  0  0
   12.1827    5.9511   -2.3901 H   0  0  0  0  0  0  0  0  0  0  0  0
   11.2912    5.9751   -4.7433 H   0  0  0  0  0  0  0  0  0  0  0  0
   11.3931   10.5228   -4.9504 C   0  0  0  0  0  0  0  0  0  0  0  0
   10.1779   11.1694   -4.8879 C   0  0  0  0  0  0  0  0  0  0  0  0
    9.9335   12.3503   -5.5748 C   0  0  0  0  0  0  0  0  0  0  0  0
   10.9469   12.8803   -6.3385 C   0  0  0  0  0  0  0  0  0  0  0  0
   12.1766   12.2631   -6.4263 C   0  0  0  0  0  0  0  0  0  0  0  0
   13.2209   12.8977   -7.2724 C   0  0  0  0  0  0  0  0  0  0  0  0
   13.9844   13.7954   -6.5174 O   0  0  0  0  0  0  0  0  0  0  0  0
   12.3688   11.0993   -5.7297 C   0  0  0  0  0  0  0  0  0  0  0  0
    9.4110   10.7095   -4.2708 H   0  0  0  0  0  0  0  0  0  0  0  0
    8.9547   12.8114   -5.4846 H   0  0  0  0  0  0  0  0  0  0  0  0
   10.7469   13.8124   -6.8778 H   0  0  0  0  0  0  0  0  0  0  0  0
   13.8747   12.1191   -7.7394 H   0  0  0  0  0  0  0  0  0  0  0  0
   12.7884   13.4805   -8.1057 H   0  0  0  0  0  0  0  0  0  0  0  0
   13.3566   14.4669   -6.1598 H   0  0  0  0  0  0  0  0  0  0  0  0
   13.3286   10.6052   -5.7901 H   0  0  0  0  0  0  0  0  0  0  0  0
  2  1  2  0
  3  2  1  0
  4  3  2  0
  4  5  1  0
  5  6  2  0
  6  1  1  0
  1  7  1  0
  2  8  1  0
  3  9  1  0
 10 11  2  0
 11 12  1  0
 12 13  2  0
 13 14  1  0
 14 15  1  0
 15 16  1  0
 14 17  2  0
 17 10  1  0
 11 18  1  0
 12 19  1  0
 13 20  1  0
 15 21  1  0
 15 22  1  0
 16 23  1  0
 17 24  1  0
  5 10  1  0
M  END
>  <Score>  (1) 
-7.03918

$$$$

     RDKit          3D

 22 24  0  0  0  0  0  0  0  0999 V2000
   12.3026    8.1235   -2.3015 C   0  0  0  0  0  0  0  0  0  0  0  0
   12.0214    6.8831   -2.9129 C   0  0  0  0  0  0  0  0  0  0  0  0
   11.5241    6.8982   -4.2256 C   0  0  0  0  0  0  0  0  0  0  0  0
   11.3423    8.1078   -4.8316 N   0  0  0  0  0  0  0  0  0  0  0  0
   11.6239    9.2768   -4.2115 C   0  0  0  0  0  0  0  0  0  0  0  0
   12.1007    9.2816   -2.9549 N   0  0  0  0  0  0  0  0  0  0  0  0
   12.6848    8.1261   -1.2940 H   0  0  0  0  0  0  0  0  0  0  0  0
   12.1849    5.9583   -2.3852 H   0  0  0  0  0  0  0  0  0  0  0  0
   11.3077    5.9738   -4.6997 H   0  0  0  0  0  0  0  0  0  0  0  0
   11.4054   10.5015   -4.9156 N   0  0  0  0  0  0  0  0  0  0  0  0
   11.5600   11.7606   -4.4680 C   0  0  0  0  0  0  0  0  0  0  0  0
   11.2524   12.6724   -5.4401 C   0  0  0  0  0  0  0  0  0  0  0  0
   11.2606   13.7536   -5.4406 H   0  0  0  0  0  0  0  0  0  0  0  0
   10.8886   11.9278   -6.5464 C   0  0  0  0  0  0  0  0  0  0  0  0
   10.4764   12.2680   -7.8279 C   0  0  0  0  0  0  0  0  0  0  0  0
   10.1707   11.3243   -8.7497 N   0  0  0  0  0  0  0  0  0  0  0  0
   10.2786   10.0411   -8.3857 C   0  0  0  0  0  0  0  0  0  0  0  0
   10.6770    9.6842   -7.1465 N   0  0  0  0  0  0  0  0  0  0  0  0
   10.9916   10.5870   -6.1960 C   0  0  0  0  0  0  0  0  0  0  0  0
   11.8866   12.0327   -3.4658 H   0  0  0  0  0  0  0  0  0  0  0  0
   10.3912   13.3025   -8.1157 H   0  0  0  0  0  0  0  0  0  0  0  0
   10.0297    9.2856   -9.1368 H   0  0  0  0  0  0  0  0  0  0  0  0
  2  1  2  0
  3  2  1  0
  4  3  2  0
  4  5  1  0
  5  6  2  0
  6  1  1  0
  1  7  1  0
  2  8  1  0
  3  9  1  0
 10 11  1  0
 11 12  2  0
 12 13  1  0
 12 14  1  0
 14 15  2  0
 15 16  1  0
 16 17  2  0
 17 18  1  0
 18 19  2  0
 19 10  1  0
 19 14  1  0
 11 20  1  0
 15 21  1  0
 17 22  1  0
  5 10  1  0
M  END
>  <Score>  (1) 
-7.03635

$$$$

     RDKit          3D

 22 24  0  0  0  0  0  0  0  0999 V2000
   12.3019    8.1196   -2.3028 C   0  0  0  0  0  0  0  0  0  0  0  0
   12.0201    6.8889   -2.9171 C   0  0  0  0  0  0  0  0  0  0  0  0
   11.5264    6.8963   -4.2194 C   0  0  0  0  0  0  0  0  0  0  0  0
   11.3424    8.1138   -4.8318 N   0  0  0  0  0  0  0  0  0  0  0  0
   11.6232    9.2703   -4.2126 C   0  0  0  0  0  0  0  0  0  0  0  0
   12.1009    9.2821   -2.9543 N   0  0  0  0  0  0  0  0  0  0  0  0
   12.6834    8.0861   -1.2936 H   0  0  0  0  0  0  0  0  0  0  0  0
   12.1754    5.9666   -2.4110 H   0  0  0  0  0  0  0  0  0  0  0  0
   11.3022    5.9651   -4.7131 H   0  0  0  0  0  0  0  0  0  0  0  0
   11.3736   10.4716   -4.9962 C   0  0  0  0  0  0  0  0  0  0  0  0
   10.9876   10.8268   -6.0509 N   0  0  0  0  0  0  0  0  0  0  0  0
   10.8592   12.0356   -6.5158 C   0  0  0  0  0  0  0  0  0  0  0  0
   10.3985   12.4494   -7.7733 C   0  0  0  0  0  0  0  0  0  0  0  0
   10.3303   13.7764   -8.0923 C   0  0  0  0  0  0  0  0  0  0  0  0
   10.6957   14.7915   -7.2356 C   0  0  0  0  0  0  0  0  0  0  0  0
   11.1564   14.3761   -5.9778 C   0  0  0  0  0  0  0  0  0  0  0  0
   11.2162   13.0642   -5.6826 C   0  0  0  0  0  0  0  0  0  0  0  0
   11.7334   12.1149   -4.2201 S   0  0  0  0  0  0  0  0  0  0  0  0
   10.0793   11.7385   -8.5402 H   0  0  0  0  0  0  0  0  0  0  0  0
    9.9601   14.0623   -9.0979 H   0  0  0  0  0  0  0  0  0  0  0  0
   10.6391   15.8162   -7.4920 H   0  0  0  0  0  0  0  0  0  0  0  0
   11.4631   15.0834   -5.2433 H   0  0  0  0  0  0  0  0  0  0  0  0
  2  1  2  0
  3  2  1  0
  4  3  2  0
  4  5  1  0
  5  6  2  0
  6  1  1  0
  1  7  1  0
  2  8  1  0
  3  9  1  0
 10 11  2  0
 11 12  1  0
 12 13  2  0
 13 14  1  0
 14 15  2  0
 15 16  1  0
 16 17  2  0
 17 18  1  0
 18 10  1  0
 17 12  1  0
 13 19  1  0
 14 20  1  0
 15 21  1  0
 16 22  1  0
  5 10  1  0
M  END
>  <Score>  (1) 
-7.98173

$$$$

     RDKit          3D

 24 25  0  0  0  0  0  0  0  0999 V2000
   12.3026    8.1251   -2.3016 C   0  0  0  0  0  0  0  0  0  0  0  0
   12.0209    6.8824   -2.9143 C   0  0  0  0  0  0  0  0  0  0  0  0
   11.5247    6.8971   -4.2240 C   0  0  0  0  0  0  0  0  0  0  0  0
   11.3424    8.1096   -4.8316 N   0  0  0  0  0  0  0  0  0  0  0  0
   11.6231    9.2762   -4.2134 C   0  0  0  0  0  0  0  0  0  0  0  0
   12.1013    9.2805   -2.9531 N   0  0  0  0  0  0  0  0  0  0  0  0
   12.6854    8.0702   -1.2865 H   0  0  0  0  0  0  0  0  0  0  0  0
   12.1823    5.9560   -2.3918 H   0  0  0  0  0  0  0  0  0  0  0  0
   11.2909    5.9846   -4.7451 H   0  0  0  0  0  0  0  0  0  0  0  0
   14.2661   13.1835   -6.5347 H   0  0  0  0  0  0  0  0  0  0  0  0
   13.4403   13.3174   -5.8716 C   0  0  0  0  0  0  0  0  0  0  0  0
   13.4795   14.2194   -5.0276 O   0  0  0  0  0  0  0  0  0  0  0  0
   12.2598   12.4445   -5.9497 C   0  0  1  0  0  0  0  0  0  0  0  0
   12.6673   11.0106   -5.6503 C   0  0  0  0  0  0  0  0  0  0  0  0
   11.3983   10.5264   -4.9370 C   0  0  2  0  0  0  0  0  0  0  0  0
   11.1811   11.7185   -4.0198 C   0  0  0  0  0  0  0  0  0  0  0  0
   11.2886   12.8174   -4.9624 N   0  0  0  0  0  0  0  0  0  0  0  0
   11.8246   12.4897   -6.9828 H   0  0  0  0  0  0  0  0  0  0  0  0
   13.4581   11.0531   -4.8880 H   0  0  0  0  0  0  0  0  0  0  0  0
   12.8904   10.4287   -6.5352 H   0  0  0  0  0  0  0  0  0  0  0  0
   10.5712   10.4233   -5.6567 H   0  0  0  0  0  0  0  0  0  0  0  0
   12.0448   11.7582   -3.3298 H   0  0  0  0  0  0  0  0  0  0  0  0
   10.2110   11.6839   -3.5120 H   0  0  0  0  0  0  0  0  0  0  0  0
   10.3382   12.9765   -5.3649 H   0  0  0  0  0  0  0  0  0  0  0  0
  2  1  2  0
  3  2  1  0
  4  3  2  0
  4  5  1  0
  5  6  2  0
  6  1  1  0
  1  7  1  0
  2  8  1  0
  3  9  1  0
 10 11  1  0
 11 12  2  0
 11 13  1  0
 13 14  1  0
 14 15  1  0
 15 16  1  0
 16 17  1  0
 17 13  1  0
 13 18  1  6
 14 19  1  0
 14 20  1  0
 15 21  1  6
 16 22  1  0
 16 23  1  0
 17 24  1  0
  5 15  1  0
M  END
>  <Score>  (1) 
-7.03048

$$$$

     RDKit          3D

 23 24  0  0  0  0  0  0  0  0999 V2000
   12.3027    8.1243   -2.3011 C   0  0  0  0  0  0  0  0  0  0  0  0
   12.0208    6.8829   -2.9147 C   0  0  0  0  0  0  0  0  0  0  0  0
   11.5244    6.8985   -4.2250 C   0  0  0  0  0  0  0  0  0  0  0  0
   11.3425    8.1063   -4.8310 N   0  0  0  0  0  0  0  0  0  0  0  0
   11.6238    9.2777   -4.2118 C   0  0  0  0  0  0  0  0  0  0  0  0
   12.1008    9.2813   -2.9545 N   0  0  0  0  0  0  0  0  0  0  0  0
   12.6893    8.1617   -1.2858 H   0  0  0  0  0  0  0  0  0  0  0  0
   12.1897    5.9717   -2.3740 H   0  0  0  0  0  0  0  0  0  0  0  0
   11.3064    5.9660   -4.7022 H   0  0  0  0  0  0  0  0  0  0  0  0
   11.4160   10.5872   -4.8966 C   0  0  0  0  0  0  0  0  0  0  0  0
   10.8887   10.4121   -6.2686 C   0  0  0  0  0  0  0  0  0  0  0  0
    9.5194   10.3735   -6.4927 C   0  0  0  0  0  0  0  0  0  0  0  0
    9.0190   10.2098   -7.7733 C   0  0  0  0  0  0  0  0  0  0  0  0
    9.8530   10.0797   -8.8688 C   0  0  0  0  0  0  0  0  0  0  0  0
   11.2092   10.1211   -8.6215 C   0  0  0  0  0  0  0  0  0  0  0  0
   12.2878    9.9605   -9.9762 Cl  0  0  0  0  0  0  0  0  0  0  0  0
   11.7253   10.2826   -7.3584 C   0  0  0  0  0  0  0  0  0  0  0  0
   12.3994   11.0955   -4.9726 H   0  0  0  0  0  0  0  0  0  0  0  0
   10.7360   11.2131   -4.2875 H   0  0  0  0  0  0  0  0  0  0  0  0
    8.8320   10.4746   -5.6385 H   0  0  0  0  0  0  0  0  0  0  0  0
    7.9554   10.1760   -7.9784 H   0  0  0  0  0  0  0  0  0  0  0  0
    9.4553    9.9516   -9.8710 H   0  0  0  0  0  0  0  0  0  0  0  0
   12.7991   10.3094   -7.2105 H   0  0  0  0  0  0  0  0  0  0  0  0
  2  1  2  0
  3  2  1  0
  4  3  2  0
  4  5  1  0
  5  6  2  0
  6  1  1  0
  1  7  1  0
  2  8  1  0
  3  9  1  0
 10 11  1  0
 11 12  2  0
 12 13  1  0
 13 14  2  0
 14 15  1  0
 15 16  1  0
 15 17  2  0
 17 11  1  0
 10 18  1  0
 10 19  1  0
 12 20  1  0
 13 21  1  0
 14 22  1  0
 17 23  1  0
  5 10  1  0
M  END
>  <Score>  (1) 
-7.02599

$$$$

     RDKit          3D

 22 23  0  0  0  0  0  0  0  0999 V2000
   12.3026    8.1179   -2.3009 C   0  0  0  0  0  0  0  0  0  0  0  0
   12.0212    6.8864   -2.9139 C   0  0  0  0  0  0  0  0  0  0  0  0
   11.5252    6.8965   -4.2227 C   0  0  0  0  0  0  0  0  0  0  0  0
   11.3420    8.1093   -4.8325 N   0  0  0  0  0  0  0  0  0  0  0  0
   11.6241    9.2768   -4.2110 C   0  0  0  0  0  0  0  0  0  0  0  0
   12.1000    9.2841   -2.9570 N   0  0  0  0  0  0  0  0  0  0  0  0
   12.6848    8.0903   -1.2902 H   0  0  0  0  0  0  0  0  0  0  0  0
   12.1898    5.9831   -2.3749 H   0  0  0  0  0  0  0  0  0  0  0  0
   11.3022    5.9771   -4.7144 H   0  0  0  0  0  0  0  0  0  0  0  0
   11.3945   10.4389   -4.9379 O   0  0  0  0  0  0  0  0  0  0  0  0
   10.6303   10.4546   -6.0983 C   0  0  0  0  0  0  0  0  0  0  0  0
    9.2541   10.6737   -6.0611 C   0  0  0  0  0  0  0  0  0  0  0  0
    8.4966   10.6888   -7.2165 C   0  0  0  0  0  0  0  0  0  0  0  0
    9.0962   10.4840   -8.4519 C   0  0  0  0  0  0  0  0  0  0  0  0
    8.2758   10.5069   -9.6306 C   0  0  0  0  0  0  0  0  0  0  0  0
    7.6216   10.5159  -10.5992 N   0  0  0  0  0  0  0  0  0  0  0  0
   10.4647   10.2648   -8.5046 C   0  0  0  0  0  0  0  0  0  0  0  0
   11.2036   10.2535   -7.3385 C   0  0  0  0  0  0  0  0  0  0  0  0
    8.7775   10.8339   -5.1083 H   0  0  0  0  0  0  0  0  0  0  0  0
    7.4141   10.8598   -7.2020 H   0  0  0  0  0  0  0  0  0  0  0  0
   10.9520   10.1024   -9.4624 H   0  0  0  0  0  0  0  0  0  0  0  0
   12.2797   10.0818   -7.3708 H   0  0  0  0  0  0  0  0  0  0  0  0
  2  1  2  0
  3  2  1  0
  4  3  2  0
  4  5  1  0
  5  6  2  0
  6  1  1  0
  1  7  1  0
  2  8  1  0
  3  9  1  0
 10 11  1  0
 11 12  2  0
 12 13  1  0
 13 14  2  0
 14 15  1  0
 15 16  3  0
 14 17  1  0
 17 18  2  0
 18 11  1  0
 12 19  1  0
 13 20  1  0
 17 21  1  0
 18 22  1  0
  5 10  1  0
M  END
>  <Score>  (1) 
-7.02449

$$$$

     RDKit          3D

 24 25  0  0  0  0  0  0  0  0999 V2000
   12.3027    8.1206   -2.3008 C   0  0  0  0  0  0  0  0  0  0  0  0
   12.0217    6.8843   -2.9123 C   0  0  0  0  0  0  0  0  0  0  0  0
   11.5242    6.8972   -4.2254 C   0  0  0  0  0  0  0  0  0  0  0  0
   11.3425    8.1095   -4.8312 N   0  0  0  0  0  0  0  0  0  0  0  0
   11.6243    9.2764   -4.2103 C   0  0  0  0  0  0  0  0  0  0  0  0
   12.0996    9.2831   -2.9580 N   0  0  0  0  0  0  0  0  0  0  0  0
   12.6848    8.1353   -1.2951 H   0  0  0  0  0  0  0  0  0  0  0  0
   12.1852    5.9548   -2.3841 H   0  0  0  0  0  0  0  0  0  0  0  0
   11.3037    5.9730   -4.7100 H   0  0  0  0  0  0  0  0  0  0  0  0
   11.4026   10.4512   -4.9178 O   0  0  0  0  0  0  0  0  0  0  0  0
   10.9180   10.4593   -6.1966 C   0  0  0  0  0  0  0  0  0  0  0  0
    9.5436   10.5086   -6.3865 C   0  0  0  0  0  0  0  0  0  0  0  0
    8.9943   10.5193   -7.6287 C   0  0  0  0  0  0  0  0  0  0  0  0
    9.7870   10.4813   -8.7751 C   0  0  0  0  0  0  0  0  0  0  0  0
    9.0885   10.4948  -10.3800 S   0  0  0  0  0  6  0  0  0  0  0  0
    9.5641   11.5377  -11.1362 H   0  0  0  0  0  0  0  0  0  0  0  0
    7.5936   10.5782  -10.2311 O   0  0  0  0  0  0  0  0  0  0  0  0
    9.4131    9.2271  -11.1316 O   0  0  0  0  0  0  0  0  0  0  0  0
   11.1506   10.4326   -8.5697 C   0  0  0  0  0  0  0  0  0  0  0  0
   11.7253   10.4210   -7.3164 C   0  0  0  0  0  0  0  0  0  0  0  0
    8.9026   10.5389   -5.5040 H   0  0  0  0  0  0  0  0  0  0  0  0
    7.9138   10.5582   -7.7596 H   0  0  0  0  0  0  0  0  0  0  0  0
   11.8017   10.4021   -9.4244 H   0  0  0  0  0  0  0  0  0  0  0  0
   12.7904   10.3830   -7.1540 H   0  0  0  0  0  0  0  0  0  0  0  0
  2  1  2  0
  3  2  1  0
  4  3  2  0
  4  5  1  0
  5  6  2  0
  6  1  1  0
  1  7  1  0
  2  8  1  0
  3  9  1  0
 10 11  1  0
 11 12  2  0
 12 13  1  0
 13 14  2  0
 14 15  1  0
 15 16  1  0
 15 17  2  0
 15 18  2  0
 14 19  1  0
 19 20  2  0
 20 11  1  0
 12 21  1  0
 13 22  1  0
 19 23  1  0
 20 24  1  0
  5 10  1  0
M  END
>  <Score>  (1) 
-7.02264

$$$$

     RDKit          3D

 20 21  0  0  0  0  0  0  0  0999 V2000
   12.3030    8.1243   -2.3005 C   0  0  0  0  0  0  0  0  0  0  0  0
   12.0208    6.8819   -2.9144 C   0  0  0  0  0  0  0  0  0  0  0  0
   11.5247    6.8970   -4.2239 C   0  0  0  0  0  0  0  0  0  0  0  0
   11.3431    8.1112   -4.8299 N   0  0  0  0  0  0  0  0  0  0  0  0
   11.6235    9.2761   -4.2125 C   0  0  0  0  0  0  0  0  0  0  0  0
   12.0999    9.2805   -2.9568 N   0  0  0  0  0  0  0  0  0  0  0  0
   12.6835    8.1799   -1.3030 H   0  0  0  0  0  0  0  0  0  0  0  0
   12.1889    5.9781   -2.3768 H   0  0  0  0  0  0  0  0  0  0  0  0
   11.2959    5.9756   -4.7309 H   0  0  0  0  0  0  0  0  0  0  0  0
   11.4272   10.5667   -4.8649 C   0  0  0  0  0  0  0  0  0  0  0  0
   10.3612   11.3779   -4.5218 C   0  0  0  0  0  0  0  0  0  0  0  0
   10.1809   12.5959   -5.1416 C   0  0  0  0  0  0  0  0  0  0  0  0
   11.0558   13.0433   -6.1212 C   0  0  0  0  0  0  0  0  0  0  0  0
   10.9134   13.9980   -6.6061 H   0  0  0  0  0  0  0  0  0  0  0  0
   12.1246   12.2460   -6.4755 C   0  0  0  0  0  0  0  0  0  0  0  0
   12.2856   11.0261   -5.8390 C   0  0  0  0  0  0  0  0  0  0  0  0
    9.6919   11.0061   -3.7538 H   0  0  0  0  0  0  0  0  0  0  0  0
    9.3365   13.2258   -4.8618 H   0  0  0  0  0  0  0  0  0  0  0  0
   12.8319   12.5753   -7.2471 H   0  0  0  0  0  0  0  0  0  0  0  0
   13.1270   10.4243   -6.1340 H   0  0  0  0  0  0  0  0  0  0  0  0
  2  1  2  0
  3  2  1  0
  4  3  2  0
  4  5  1  0
  5  6  2  0
  6  1  1  0
  1  7  1  0
  2  8  1  0
  3  9  1  0
 10 11  2  0
 11 12  1  0
 12 13  2  0
 13 14  1  0
 13 15  1  0
 15 16  2  0
 16 10  1  0
 11 17  1  0
 12 18  1  0
 15 19  1  0
 16 20  1  0
  5 10  1  0
M  END
>  <Score>  (1) 
-7.0226

$$$$

     RDKit          3D

 29 31  0  0  0  0  0  0  0  0999 V2000
   12.3027    8.1243   -2.3011 C   0  0  0  0  0  0  0  0  0  0  0  0
   12.0211    6.8824   -2.9138 C   0  0  0  0  0  0  0  0  0  0  0  0
   11.5246    6.8969   -4.2244 C   0  0  0  0  0  0  0  0  0  0  0  0
   11.3428    8.1106   -4.8307 N   0  0  0  0  0  0  0  0  0  0  0  0
   11.6233    9.2761   -4.2129 C   0  0  0  0  0  0  0  0  0  0  0  0
   12.1005    9.2807   -2.9552 N   0  0  0  0  0  0  0  0  0  0  0  0
   12.6829    8.0775   -1.2939 H   0  0  0  0  0  0  0  0  0  0  0  0
   12.1785    5.9569   -2.4020 H   0  0  0  0  0  0  0  0  0  0  0  0
   11.2957    5.9894   -4.7329 H   0  0  0  0  0  0  0  0  0  0  0  0
   11.3940   10.5285   -4.9485 C   0  0  1  0  0  0  0  0  0  0  0  0
   12.6676   11.3468   -5.1103 C   0  0  0  0  0  0  0  0  0  0  0  0
   12.5586   12.1863   -6.2897 N   0  0  0  0  0  0  0  0  0  0  0  0
   11.2038   12.7220   -6.4311 C   0  0  0  0  0  0  0  0  0  0  0  0
   10.2054   11.6360   -6.7573 C   0  0  0  0  0  0  0  0  0  0  0  0
   10.8420   10.3067   -6.3373 C   0  0  0  0  0  0  0  0  0  0  0  0
   11.9942   10.0749   -7.3127 C   0  0  0  0  0  0  0  0  0  0  0  0
   12.7721   11.3616   -7.4867 C   0  0  0  0  0  0  0  0  0  0  0  0
   10.6593   11.1414   -4.3945 H   0  0  0  0  0  0  0  0  0  0  0  0
   13.4979   10.6342   -5.2770 H   0  0  0  0  0  0  0  0  0  0  0  0
   12.8205   11.9605   -4.2057 H   0  0  0  0  0  0  0  0  0  0  0  0
   10.9074   13.3559   -5.5950 H   0  0  0  0  0  0  0  0  0  0  0  0
   11.2493   13.3822   -7.3408 H   0  0  0  0  0  0  0  0  0  0  0  0
    9.9006   11.6134   -7.8042 H   0  0  0  0  0  0  0  0  0  0  0  0
    9.3296   11.7671   -6.0777 H   0  0  0  0  0  0  0  0  0  0  0  0
   10.1006    9.5052   -6.3964 H   0  0  0  0  0  0  0  0  0  0  0  0
   12.7073    9.3214   -6.9196 H   0  0  0  0  0  0  0  0  0  0  0  0
   11.5856    9.7451   -8.2713 H   0  0  0  0  0  0  0  0  0  0  0  0
   12.3284   11.9183   -8.3558 H   0  0  0  0  0  0  0  0  0  0  0  0
   13.8425   11.2016   -7.6613 H   0  0  0  0  0  0  0  0  0  0  0  0
  2  1  2  0
  3  2  1  0
  4  3  2  0
  4  5  1  0
  5  6  2  0
  6  1  1  0
  1  7  1  0
  2  8  1  0
  3  9  1  0
 10 11  1  0
 11 12  1  0
 12 13  1  0
 13 14  1  0
 14 15  1  0
 15 16  1  0
 16 17  1  0
 15 10  1  0
 17 12  1  0
 10 18  1  1
 11 19  1  0
 11 20  1  0
 13 21  1  0
 13 22  1  0
 14 23  1  0
 14 24  1  0
 15 25  1  0
 16 26  1  0
 16 27  1  0
 17 28  1  0
 17 29  1  0
  5 10  1  0
M  END
>  <Score>  (1) 
-7.02157

$$$$

     RDKit          3D

 25 27  0  0  0  0  0  0  0  0999 V2000
   12.3026    8.1223   -2.3012 C   0  0  0  0  0  0  0  0  0  0  0  0
   12.0214    6.8834   -2.9129 C   0  0  0  0  0  0  0  0  0  0  0  0
   11.5243    6.8981   -4.2252 C   0  0  0  0  0  0  0  0  0  0  0  0
   11.3421    8.1075   -4.8319 N   0  0  0  0  0  0  0  0  0  0  0  0
   11.6243    9.2774   -4.2103 C   0  0  0  0  0  0  0  0  0  0  0  0
   12.1002    9.2824   -2.9564 N   0  0  0  0  0  0  0  0  0  0  0  0
   12.6800    8.0534   -1.2992 H   0  0  0  0  0  0  0  0  0  0  0  0
   12.1787    5.9590   -2.4017 H   0  0  0  0  0  0  0  0  0  0  0  0
   11.3024    5.9689   -4.7130 H   0  0  0  0  0  0  0  0  0  0  0  0
   11.4058   10.4710   -4.9113 N   0  0  0  0  0  0  0  0  0  0  0  0
   11.0461   11.7681   -4.3233 C   0  0  0  0  0  0  0  0  0  0  0  0
   10.6652   12.6435   -5.4948 C   0  0  2  0  0  0  0  0  0  0  0  0
   10.1970   11.5654   -6.4908 C   0  0  0  0  0  0  0  0  0  0  0  0
   11.4750   10.7210   -6.3263 C   0  0  1  0  0  0  0  0  0  0  0  0
   12.5187   11.7967   -6.5346 C   0  0  0  0  0  0  0  0  0  0  0  0
   11.8824   13.0593   -6.1375 N   0  0  0  0  0  0  0  0  0  0  0  0
   12.4676   13.5852   -5.4667 H   0  0  0  0  0  0  0  0  0  0  0  0
   11.9663   12.1764   -3.8640 H   0  0  0  0  0  0  0  0  0  0  0  0
   10.2339   11.6619   -3.5889 H   0  0  0  0  0  0  0  0  0  0  0  0
    9.9358   13.3973   -5.3016 H   0  0  0  0  0  0  0  0  0  0  0  0
    9.3121   11.0361   -6.1303 H   0  0  0  0  0  0  0  0  0  0  0  0
   10.1303   11.9683   -7.5055 H   0  0  0  0  0  0  0  0  0  0  0  0
   11.5276    9.8786   -6.9719 H   0  0  0  0  0  0  0  0  0  0  0  0
   13.4203   11.6365   -5.8984 H   0  0  0  0  0  0  0  0  0  0  0  0
   12.7629   11.8364   -7.6107 H   0  0  0  0  0  0  0  0  0  0  0  0
  2  1  2  0
  3  2  1  0
  4  3  2  0
  4  5  1  0
  5  6  2  0
  6  1  1  0
  1  7  1  0
  2  8  1  0
  3  9  1  0
 10 11  1  0
 11 12  1  0
 12 13  1  0
 13 14  1  0
 14 15  1  0
 15 16  1  0
 16 17  1  0
 14 10  1  0
 16 12  1  0
 11 18  1  0
 11 19  1  0
 12 20  1  1
 13 21  1  0
 13 22  1  0
 14 23  1  6
 15 24  1  0
 15 25  1  0
  5 10  1  0
M  END
>  <Score>  (1) 
-7.02104

$$$$

     RDKit          3D

 30 31  0  0  0  0  0  0  0  0999 V2000
   12.3025    8.1240   -2.3016 C   0  0  0  0  0  0  0  0  0  0  0  0
   12.0204    6.8835   -2.9157 C   0  0  0  0  0  0  0  0  0  0  0  0
   11.5255    6.8947   -4.2216 C   0  0  0  0  0  0  0  0  0  0  0  0
   11.3435    8.1137   -4.8289 N   0  0  0  0  0  0  0  0  0  0  0  0
   11.6218    9.2764   -4.2169 C   0  0  0  0  0  0  0  0  0  0  0  0
   12.1012    9.2786   -2.9533 N   0  0  0  0  0  0  0  0  0  0  0  0
   12.6799    8.0825   -1.3023 H   0  0  0  0  0  0  0  0  0  0  0  0
   12.1881    5.9619   -2.3771 H   0  0  0  0  0  0  0  0  0  0  0  0
   11.3016    5.9718   -4.7154 H   0  0  0  0  0  0  0  0  0  0  0  0
   11.4016   10.4890   -4.9241 N   0  0  0  0  0  0  0  0  0  0  0  0
   12.2161   11.6503   -4.6544 C   0  0  0  0  0  0  0  0  0  0  0  0
   12.4005   12.5428   -5.8399 C   0  0  0  0  0  0  0  0  0  0  0  0
   11.0946   12.7040   -6.4721 N   0  0  0  0  0  0  0  0  0  0  0  0
   11.2268   13.7607   -7.4584 C   0  0  0  0  0  0  0  0  0  0  0  0
    9.9200   14.0092   -8.1764 C   0  0  0  0  0  0  0  0  0  0  0  0
   10.6272   11.4726   -7.0425 C   0  0  0  0  0  0  0  0  0  0  0  0
   10.3309   10.5127   -5.9226 C   0  0  0  0  0  0  0  0  0  0  0  0
   11.7348   12.2313   -3.8302 H   0  0  0  0  0  0  0  0  0  0  0  0
   13.2011   11.3144   -4.2588 H   0  0  0  0  0  0  0  0  0  0  0  0
   13.1501   12.1609   -6.5568 H   0  0  0  0  0  0  0  0  0  0  0  0
   12.6925   13.5577   -5.4911 H   0  0  0  0  0  0  0  0  0  0  0  0
   11.5179   14.6888   -6.9691 H   0  0  0  0  0  0  0  0  0  0  0  0
   11.9537   13.4217   -8.2246 H   0  0  0  0  0  0  0  0  0  0  0  0
    9.1081   14.0146   -7.4131 H   0  0  0  0  0  0  0  0  0  0  0  0
    9.8015   13.2500   -8.9483 H   0  0  0  0  0  0  0  0  0  0  0  0
    9.9562   15.0437   -8.5828 H   0  0  0  0  0  0  0  0  0  0  0  0
   11.3216   11.0431   -7.7936 H   0  0  0  0  0  0  0  0  0  0  0  0
    9.6679   11.6856   -7.5547 H   0  0  0  0  0  0  0  0  0  0  0  0
    9.4145   10.8435   -5.3915 H   0  0  0  0  0  0  0  0  0  0  0  0
   10.1516    9.4929   -6.3219 H   0  0  0  0  0  0  0  0  0  0  0  0
  2  1  2  0
  3  2  1  0
  4  3  2  0
  4  5  1  0
  5  6  2  0
  6  1  1  0
  1  7  1  0
  2  8  1  0
  3  9  1  0
 10 11  1  0
 11 12  1  0
 12 13  1  0
 13 14  1  0
 14 15  1  0
 13 16  1  0
 16 17  1  0
 17 10  1  0
 11 18  1  0
 11 19  1  0
 12 20  1  0
 12 21  1  0
 14 22  1  0
 14 23  1  0
 15 24  1  0
 15 25  1  0
 15 26  1  0
 16 27  1  0
 16 28  1  0
 17 29  1  0
 17 30  1  0
  5 10  1  0
M  END
>  <Score>  (1) 
-7.01744

$$$$

     RDKit          3D

 20 21  0  0  0  0  0  0  0  0999 V2000
   12.3025    8.1236   -2.3016 C   0  0  0  0  0  0  0  0  0  0  0  0
   12.0214    6.8831   -2.9129 C   0  0  0  0  0  0  0  0  0  0  0  0
   11.5241    6.8985   -4.2256 C   0  0  0  0  0  0  0  0  0  0  0  0
   11.3424    8.1073   -4.8313 N   0  0  0  0  0  0  0  0  0  0  0  0
   11.6236    9.2771   -4.2123 C   0  0  0  0  0  0  0  0  0  0  0  0
   12.1010    9.2812   -2.9541 N   0  0  0  0  0  0  0  0  0  0  0  0
   12.6813    8.0972   -1.3001 H   0  0  0  0  0  0  0  0  0  0  0  0
   12.1853    5.9580   -2.3841 H   0  0  0  0  0  0  0  0  0  0  0  0
   11.3044    5.9770   -4.7084 H   0  0  0  0  0  0  0  0  0  0  0  0
   11.4266   10.5676   -4.8667 C   0  0  0  0  0  0  0  0  0  0  0  0
   11.2383   10.6728   -6.2291 C   0  0  0  0  0  0  0  0  0  0  0  0
   11.2448    9.5151   -6.9351 F   0  0  0  0  0  0  0  0  0  0  0  0
   11.0497   11.8751   -6.8777 C   0  0  0  0  0  0  0  0  0  0  0  0
   11.0482   13.0414   -6.1276 C   0  0  0  0  0  0  0  0  0  0  0  0
   11.2346   12.9645   -4.7608 C   0  0  0  0  0  0  0  0  0  0  0  0
   11.4234   11.7347   -4.1294 C   0  0  0  0  0  0  0  0  0  0  0  0
   11.6589   11.6542   -2.3926 Cl  0  0  0  0  0  0  0  0  0  0  0  0
   10.9032   11.9373   -7.9494 H   0  0  0  0  0  0  0  0  0  0  0  0
   10.9023   14.0221   -6.5969 H   0  0  0  0  0  0  0  0  0  0  0  0
   11.2357   13.8815   -4.1548 H   0  0  0  0  0  0  0  0  0  0  0  0
  2  1  2  0
  3  2  1  0
  4  3  2  0
  4  5  1  0
  5  6  2  0
  6  1  1  0
  1  7  1  0
  2  8  1  0
  3  9  1  0
 10 11  2  0
 11 12  1  0
 11 13  1  0
 13 14  2  0
 14 15  1  0
 15 16  2  0
 16 17  1  0
 16 10  1  0
 13 18  1  0
 14 19  1  0
 15 20  1  0
  5 10  1  0
M  END
>  <Score>  (1) 
-7.01648

$$$$

     RDKit          3D

 26 27  0  0  0  0  0  0  0  0999 V2000
   12.3043    8.1235   -2.2968 C   0  0  0  0  0  0  0  0  0  0  0  0
   12.0200    6.8827   -2.9166 C   0  0  0  0  0  0  0  0  0  0  0  0
   11.5254    6.9046   -4.2229 C   0  0  0  0  0  0  0  0  0  0  0  0
   11.3432    8.1031   -4.8287 N   0  0  0  0  0  0  0  0  0  0  0  0
   11.6275    9.2824   -4.2027 C   0  0  0  0  0  0  0  0  0  0  0  0
   12.0945    9.2745   -2.9703 N   0  0  0  0  0  0  0  0  0  0  0  0
   12.6815    8.0715   -1.2969 H   0  0  0  0  0  0  0  0  0  0  0  0
   12.1887    5.9692   -2.3763 H   0  0  0  0  0  0  0  0  0  0  0  0
   11.3160    5.9684   -4.6772 H   0  0  0  0  0  0  0  0  0  0  0  0
   11.4065   10.4780   -4.9104 N   0  0  0  0  0  0  0  0  0  0  0  0
   11.1946   10.6796   -6.2733 C   0  0  0  0  0  0  0  0  0  0  0  0
   11.1690    9.6640   -7.1908 C   0  0  0  0  0  0  0  0  0  0  0  0
   10.9503    9.9266   -8.5582 C   0  0  0  0  0  0  0  0  0  0  0  0
   10.7555   11.2042   -9.0198 C   0  0  0  0  0  0  0  0  0  0  0  0
   10.7803   12.2275   -8.1018 C   0  0  0  0  0  0  0  0  0  0  0  0
   10.9945   11.9646   -6.7675 C   0  0  0  0  0  0  0  0  0  0  0  0
   11.0135   13.0130   -5.8735 O   0  0  0  0  0  0  0  0  0  0  0  0
   10.8309   14.3537   -6.2029 C   0  0  0  0  0  0  0  0  0  0  0  0
   11.4002   11.3816   -4.3016 H   0  0  0  0  0  0  0  0  0  0  0  0
   11.3134    8.6290   -6.9126 H   0  0  0  0  0  0  0  0  0  0  0  0
   10.9324    9.1190   -9.2699 H   0  0  0  0  0  0  0  0  0  0  0  0
   10.5857   11.4056  -10.0819 H   0  0  0  0  0  0  0  0  0  0  0  0
   10.6260   13.2309   -8.4742 H   0  0  0  0  0  0  0  0  0  0  0  0
   10.1242   14.5549   -7.0058 H   0  0  0  0  0  0  0  0  0  0  0  0
   11.7807   14.8869   -6.4530 H   0  0  0  0  0  0  0  0  0  0  0  0
   10.4606   14.8700   -5.2702 H   0  0  0  0  0  0  0  0  0  0  0  0
  2  1  2  0
  3  2  1  0
  4  3  2  0
  4  5  1  0
  5  6  2  0
  6  1  1  0
  1  7  1  0
  2  8  1  0
  3  9  1  0
 10 11  1  0
 11 12  2  0
 12 13  1  0
 13 14  2  0
 14 15  1  0
 15 16  2  0
 16 17  1  0
 17 18  1  0
 16 11  1  0
 10 19  1  0
 12 20  1  0
 13 21  1  0
 14 22  1  0
 15 23  1  0
 18 24  1  0
 18 25  1  0
 18 26  1  0
  5 10  1  0
M  END
>  <Score>  (1) 
-7.01637

$$$$

     RDKit          3D

 26 27  0  0  0  0  0  0  0  0999 V2000
   12.3025    8.1184   -2.3012 C   0  0  0  0  0  0  0  0  0  0  0  0
   12.0219    6.8844   -2.9118 C   0  0  0  0  0  0  0  0  0  0  0  0
   11.5247    6.8969   -4.2240 C   0  0  0  0  0  0  0  0  0  0  0  0
   11.3428    8.1121   -4.8307 N   0  0  0  0  0  0  0  0  0  0  0  0
   11.6242    9.2754   -4.2104 C   0  0  0  0  0  0  0  0  0  0  0  0
   12.0989    9.2839   -2.9599 N   0  0  0  0  0  0  0  0  0  0  0  0
   12.6842    8.0900   -1.2918 H   0  0  0  0  0  0  0  0  0  0  0  0
   12.1856    5.9499   -2.3825 H   0  0  0  0  0  0  0  0  0  0  0  0
   11.3099    5.9716   -4.6934 H   0  0  0  0  0  0  0  0  0  0  0  0
   11.4026   10.5391   -4.9270 C   0  0  0  0  0  0  0  0  0  0  0  0
   12.0719   10.7915   -6.1070 C   0  0  0  0  0  0  0  0  0  0  0  0
   11.9229   11.9434   -6.8372 C   0  0  0  0  0  0  0  0  0  0  0  0
   11.0444   12.9133   -6.3577 C   0  0  0  0  0  0  0  0  0  0  0  0
   10.8572   14.1800   -7.1267 C   0  0  0  0  0  0  0  0  0  0  0  0
   10.3703   12.6720   -5.1796 C   0  0  0  0  0  0  0  0  0  0  0  0
   10.5357   11.5011   -4.4577 C   0  0  0  0  0  0  0  0  0  0  0  0
    9.7836   11.2912   -3.1922 C   0  0  0  0  0  0  0  0  0  0  0  0
   12.7624   10.0483   -6.4996 H   0  0  0  0  0  0  0  0  0  0  0  0
   12.4337   12.1579   -7.7557 H   0  0  0  0  0  0  0  0  0  0  0  0
   10.7077   15.0528   -6.4765 H   0  0  0  0  0  0  0  0  0  0  0  0
    9.9469   14.0088   -7.7655 H   0  0  0  0  0  0  0  0  0  0  0  0
   11.7494   14.3247   -7.7839 H   0  0  0  0  0  0  0  0  0  0  0  0
    9.6890   13.4052   -4.7922 H   0  0  0  0  0  0  0  0  0  0  0  0
    9.0742   10.4391   -3.2578 H   0  0  0  0  0  0  0  0  0  0  0  0
    9.1289   12.1898   -3.0075 H   0  0  0  0  0  0  0  0  0  0  0  0
   10.4508   11.2178   -2.3066 H   0  0  0  0  0  0  0  0  0  0  0  0
  2  1  2  0
  3  2  1  0
  4  3  2  0
  4  5  1  0
  5  6  2  0
  6  1  1  0
  1  7  1  0
  2  8  1  0
  3  9  1  0
 10 11  2  0
 11 12  1  0
 12 13  2  0
 13 14  1  0
 13 15  1  0
 15 16  2  0
 16 17  1  0
 16 10  1  0
 11 18  1  0
 12 19  1  0
 14 20  1  0
 14 21  1  0
 14 22  1  0
 15 23  1  0
 17 24  1  0
 17 25  1  0
 17 26  1  0
  5 10  1  0
M  END
>  <Score>  (1) 
-7.97538

$$$$

     RDKit          3D

 27 28  0  0  0  0  0  0  0  0999 V2000
   12.3025    8.1244   -2.3017 C   0  0  0  0  0  0  0  0  0  0  0  0
   12.0212    6.8827   -2.9135 C   0  0  0  0  0  0  0  0  0  0  0  0
   11.5244    6.8980   -4.2249 C   0  0  0  0  0  0  0  0  0  0  0  0
   11.3422    8.1080   -4.8317 N   0  0  0  0  0  0  0  0  0  0  0  0
   11.6236    9.2770   -4.2122 C   0  0  0  0  0  0  0  0  0  0  0  0
   12.1010    9.2808   -2.9540 N   0  0  0  0  0  0  0  0  0  0  0  0
   12.6791    8.0839   -1.3046 H   0  0  0  0  0  0  0  0  0  0  0  0
   12.1800    5.9680   -2.3990 H   0  0  0  0  0  0  0  0  0  0  0  0
   11.2895    5.9787   -4.7482 H   0  0  0  0  0  0  0  0  0  0  0  0
   11.3920   10.4325   -4.9437 O   0  0  0  0  0  0  0  0  0  0  0  0
   12.1348   11.6188   -4.7724 C   0  0  0  0  0  0  0  0  0  0  0  0
   12.7567   11.9489   -6.1167 C   0  0  0  0  0  0  0  0  0  0  0  0
   12.9800   13.4340   -6.1771 C   0  0  0  0  0  0  0  0  0  0  0  0
   11.6621   14.1578   -6.2458 C   0  0  0  0  0  0  0  0  0  0  0  0
   11.3961   14.3452   -7.2900 H   0  0  0  0  0  0  0  0  0  0  0  0
   10.5826   13.2968   -5.6289 C   0  0  0  0  0  0  0  0  0  0  0  0
   11.1397   12.7028   -4.3478 C   0  0  0  0  0  0  0  0  0  0  0  0
   12.9010   11.4993   -3.9987 H   0  0  0  0  0  0  0  0  0  0  0  0
   12.0845   11.6479   -6.9442 H   0  0  0  0  0  0  0  0  0  0  0  0
   13.7201   11.4099   -6.1642 H   0  0  0  0  0  0  0  0  0  0  0  0
   13.5619   13.6576   -7.0962 H   0  0  0  0  0  0  0  0  0  0  0  0
   13.5589   13.7919   -5.3109 H   0  0  0  0  0  0  0  0  0  0  0  0
   11.7351   15.1244   -5.7170 H   0  0  0  0  0  0  0  0  0  0  0  0
   10.2922   12.4759   -6.3066 H   0  0  0  0  0  0  0  0  0  0  0  0
    9.7421   13.9477   -5.3572 H   0  0  0  0  0  0  0  0  0  0  0  0
   11.6105   13.4758   -3.7349 H   0  0  0  0  0  0  0  0  0  0  0  0
   10.2991   12.2233   -3.8226 H   0  0  0  0  0  0  0  0  0  0  0  0
  2  1  2  0
  3  2  1  0
  4  3  2  0
  4  5  1  0
  5  6  2  0
  6  1  1  0
  1  7  1  0
  2  8  1  0
  3  9  1  0
 10 11  1  0
 11 12  1  0
 12 13  1  0
 13 14  1  0
 14 15  1  0
 14 16  1  0
 16 17  1  0
 17 11  1  0
 11 18  1  0
 12 19  1  0
 12 20  1  0
 13 21  1  0
 13 22  1  0
 14 23  1  0
 16 24  1  0
 16 25  1  0
 17 26  1  0
 17 27  1  0
  5 10  1  0
M  END
>  <Score>  (1) 
-7.0017

$$$$

     RDKit          3D

 21 22  0  0  0  0  0  0  0  0999 V2000
   12.3010    8.1262   -2.3059 C   0  0  0  0  0  0  0  0  0  0  0  0
   12.0214    6.8799   -2.9128 C   0  0  0  0  0  0  0  0  0  0  0  0
   11.5238    6.8980   -4.2265 C   0  0  0  0  0  0  0  0  0  0  0  0
   11.3486    8.1159   -4.8157 N   0  0  0  0  0  0  0  0  0  0  0  0
   11.6178    9.2755   -4.2272 C   0  0  0  0  0  0  0  0  0  0  0  0
   12.1023    9.2755   -2.9499 N   0  0  0  0  0  0  0  0  0  0  0  0
   12.6825    8.0784   -1.2952 H   0  0  0  0  0  0  0  0  0  0  0  0
   12.1731    5.9581   -2.4162 H   0  0  0  0  0  0  0  0  0  0  0  0
   11.3095    5.9712   -4.6946 H   0  0  0  0  0  0  0  0  0  0  0  0
   11.4088   10.4951   -4.9058 N   0  0  0  0  0  0  0  0  0  0  0  0
   12.3684   11.4810   -5.2193 C   0  0  0  0  0  0  0  0  0  0  0  0
   13.7285   11.3406   -5.0508 C   0  0  0  0  0  0  0  0  0  0  0  0
   14.5973   12.3464   -5.3677 N   0  0  0  0  0  0  0  0  0  0  0  0
   14.1796   13.5153   -5.8560 C   0  0  0  0  0  0  0  0  0  0  0  0
   12.8317   13.6865   -6.0358 C   0  0  0  0  0  0  0  0  0  0  0  0
   11.9249   12.7099   -5.7332 C   0  0  0  0  0  0  0  0  0  0  0  0
   10.8811   12.8774   -5.8856 H   0  0  0  0  0  0  0  0  0  0  0  0
   10.3966   10.7065   -5.2314 H   0  0  0  0  0  0  0  0  0  0  0  0
   14.1783   10.4453   -4.6730 H   0  0  0  0  0  0  0  0  0  0  0  0
   14.8819   14.2924   -6.0983 H   0  0  0  0  0  0  0  0  0  0  0  0
   12.5146   14.6608   -6.4403 H   0  0  0  0  0  0  0  0  0  0  0  0
  2  1  2  0
  3  2  1  0
  4  3  2  0
  4  5  1  0
  5  6  2  0
  6  1  1  0
  1  7  1  0
  2  8  1  0
  3  9  1  0
 10 11  1  0
 11 12  2  0
 12 13  1  0
 13 14  2  0
 14 15  1  0
 15 16  2  0
 16 17  1  0
 16 11  1  0
 10 18  1  0
 12 19  1  0
 14 20  1  0
 15 21  1  0
  5 10  1  0
M  END
>  <Score>  (1) 
-7.00139

$$$$

     RDKit          3D

 24 26  0  0  0  0  0  0  0  0999 V2000
   12.3023    8.1233   -2.3023 C   0  0  0  0  0  0  0  0  0  0  0  0
   12.0221    6.8856   -2.9113 C   0  0  0  0  0  0  0  0  0  0  0  0
   11.5237    6.8980   -4.2266 C   0  0  0  0  0  0  0  0  0  0  0  0
   11.3423    8.1079   -4.8316 N   0  0  0  0  0  0  0  0  0  0  0  0
   11.6232    9.2771   -4.2132 C   0  0  0  0  0  0  0  0  0  0  0  0
   12.1013    9.2791   -2.9529 N   0  0  0  0  0  0  0  0  0  0  0  0
   12.1842    5.9615   -2.3874 H   0  0  0  0  0  0  0  0  0  0  0  0
   11.2965    5.9726   -4.7290 H   0  0  0  0  0  0  0  0  0  0  0  0
   11.4419   10.1787   -4.7856 H   0  0  0  0  0  0  0  0  0  0  0  0
   12.8221    8.1425   -0.9338 C   0  0  0  0  0  0  0  0  0  0  0  0
   14.0333    8.6759   -0.5294 C   0  0  0  0  0  0  0  0  0  0  0  0
   14.1688    8.5100    0.8011 N   0  0  0  0  0  0  0  0  0  0  0  0
   13.0769    7.8819    1.2757 C   0  0  0  0  0  0  0  0  0  0  0  0
   12.6698    7.4625    2.5083 C   0  0  0  0  0  0  0  0  0  0  0  0
   11.4650    6.8239    2.7219 C   0  0  0  0  0  0  0  0  0  0  0  0
   10.6156    6.5860    1.6617 C   0  0  0  0  0  0  0  0  0  0  0  0
   11.0318    7.0131    0.4112 C   0  0  0  0  0  0  0  0  0  0  0  0
   12.2243    7.6450    0.2011 C   0  0  0  0  0  0  0  0  0  0  0  0
   14.7530    9.1518   -1.1950 H   0  0  0  0  0  0  0  0  0  0  0  0
   14.9632    8.7995    1.4108 H   0  0  0  0  0  0  0  0  0  0  0  0
   13.3167    7.6356    3.3617 H   0  0  0  0  0  0  0  0  0  0  0  0
   11.2130    6.5211    3.7308 H   0  0  0  0  0  0  0  0  0  0  0  0
    9.6773    6.0886    1.8280 H   0  0  0  0  0  0  0  0  0  0  0  0
   10.3708    6.8284   -0.4163 H   0  0  0  0  0  0  0  0  0  0  0  0
  2  1  2  0
  3  2  1  0
  4  3  2  0
  4  5  1  0
  5  6  2  0
  6  1  1  0
  2  7  1  0
  3  8  1  0
  5  9  1  0
 10 11  2  0
 11 12  1  0
 12 13  1  0
 13 14  2  0
 14 15  1  0
 15 16  2  0
 16 17  1  0
 17 18  2  0
 18 10  1  0
 18 13  1  0
 11 19  1  0
 12 20  1  0
 14 21  1  0
 15 22  1  0
 16 23  1  0
 17 24  1  0
  1 10  1  0
M  END
>  <Score>  (1) 
-8.34249

$$$$

     RDKit          3D

 24 26  0  0  0  0  0  0  0  0999 V2000
   12.3027    8.1238   -2.3012 C   0  0  0  0  0  0  0  0  0  0  0  0
   12.0211    6.8828   -2.9138 C   0  0  0  0  0  0  0  0  0  0  0  0
   11.5245    6.8978   -4.2247 C   0  0  0  0  0  0  0  0  0  0  0  0
   11.3423    8.1083   -4.8317 N   0  0  0  0  0  0  0  0  0  0  0  0
   11.6237    9.2770   -4.2120 C   0  0  0  0  0  0  0  0  0  0  0  0
   12.1008    9.2813   -2.9546 N   0  0  0  0  0  0  0  0  0  0  0  0
   12.1853    5.9539   -2.3836 H   0  0  0  0  0  0  0  0  0  0  0  0
   11.3040    5.9676   -4.7086 H   0  0  0  0  0  0  0  0  0  0  0  0
   11.4588   10.2052   -4.7438 H   0  0  0  0  0  0  0  0  0  0  0  0
   12.7991    8.0522   -0.9850 N   0  0  0  0  0  0  0  0  0  0  0  0
   14.0545    8.3488   -0.5779 C   0  0  0  0  0  0  0  0  0  0  0  0
   14.9937    8.7413   -1.3176 O   0  0  0  0  0  0  0  0  0  0  0  0
   14.1405    8.1565    0.7507 N   0  0  0  0  0  0  0  0  0  0  0  0
   12.9446    7.7368    1.2025 C   0  0  0  0  0  0  0  0  0  0  0  0
   12.4908    7.3995    2.4628 C   0  0  0  0  0  0  0  0  0  0  0  0
   11.1903    6.9980    2.6187 C   0  0  0  0  0  0  0  0  0  0  0  0
   10.3482    6.9355    1.5103 C   0  0  0  0  0  0  0  0  0  0  0  0
   10.7798    7.2655    0.2548 C   0  0  0  0  0  0  0  0  0  0  0  0
   12.0921    7.6713    0.0946 C   0  0  0  0  0  0  0  0  0  0  0  0
   14.9684    8.2962    1.3609 H   0  0  0  0  0  0  0  0  0  0  0  0
   13.1930    7.4686    3.2833 H   0  0  0  0  0  0  0  0  0  0  0  0
   10.8627    6.7413    3.6096 H   0  0  0  0  0  0  0  0  0  0  0  0
    9.3381    6.6200    1.6532 H   0  0  0  0  0  0  0  0  0  0  0  0
   10.1576    7.2302   -0.6302 H   0  0  0  0  0  0  0  0  0  0  0  0
  2  1  2  0
  3  2  1  0
  4  3  2  0
  4  5  1  0
  5  6  2  0
  6  1  1  0
  2  7  1  0
  3  8  1  0
  5  9  1  0
 10 11  1  0
 11 12  2  0
 11 13  1  0
 13 14  1  0
 14 15  2  0
 15 16  1  0
 16 17  2  0
 17 18  1  0
 18 19  2  0
 19 10  1  0
 19 14  1  0
 13 20  1  0
 15 21  1  0
 16 22  1  0
 17 23  1  0
 18 24  1  0
  1 10  1  0
M  END
>  <Score>  (1) 
-8.07411

$$$$

     RDKit          3D

 20 21  0  0  0  0  0  0  0  0999 V2000
   12.3020    8.1175   -2.3022 C   0  0  0  0  0  0  0  0  0  0  0  0
   12.0203    6.8937   -2.9170 C   0  0  0  0  0  0  0  0  0  0  0  0
   11.5262    6.8929   -4.2197 C   0  0  0  0  0  0  0  0  0  0  0  0
   11.3425    8.1125   -4.8317 N   0  0  0  0  0  0  0  0  0  0  0  0
   11.6232    9.2749   -4.2131 C   0  0  0  0  0  0  0  0  0  0  0  0
   12.1008    9.2795   -2.9543 N   0  0  0  0  0  0  0  0  0  0  0  0
   12.1689    5.9483   -2.4264 H   0  0  0  0  0  0  0  0  0  0  0  0
   11.2955    5.9768   -4.7321 H   0  0  0  0  0  0  0  0  0  0  0  0
   11.4479   10.1843   -4.7703 H   0  0  0  0  0  0  0  0  0  0  0  0
   12.8225    8.1860   -0.9371 C   0  0  0  0  0  0  0  0  0  0  0  0
   12.1462    7.6826    0.1504 C   0  0  0  0  0  0  0  0  0  0  0  0
   12.6545    7.7547    1.4476 C   0  0  0  0  0  0  0  0  0  0  0  0
   13.8714    8.3420    1.6897 C   0  0  0  0  0  0  0  0  0  0  0  0
   14.3674    8.4129    2.9513 F   0  0  0  0  0  0  0  0  0  0  0  0
   14.5401    8.8419    0.5986 C   0  0  0  0  0  0  0  0  0  0  0  0
   14.0501    8.7752   -0.6709 C   0  0  0  0  0  0  0  0  0  0  0  0
   14.9323    9.4259   -2.0485 Cl  0  0  0  0  0  0  0  0  0  0  0  0
   11.1750    7.2052    0.0166 H   0  0  0  0  0  0  0  0  0  0  0  0
   12.1138    7.3551    2.2975 H   0  0  0  0  0  0  0  0  0  0  0  0
   15.4958    9.3074    0.7594 H   0  0  0  0  0  0  0  0  0  0  0  0
  2  1  2  0
  3  2  1  0
  4  3  2  0
  4  5  1  0
  5  6  2  0
  6  1  1  0
  2  7  1  0
  3  8  1  0
  5  9  1  0
 10 11  2  0
 11 12  1  0
 12 13  2  0
 13 14  1  0
 13 15  1  0
 15 16  2  0
 16 17  1  0
 16 10  1  0
 11 18  1  0
 12 19  1  0
 15 20  1  0
  1 10  1  0
M  END
>  <Score>  (1) 
-7.89905

$$$$

     RDKit          3D

 20 21  0  0  0  0  0  0  0  0999 V2000
   12.3019    8.1179   -2.3028 C   0  0  0  0  0  0  0  0  0  0  0  0
   12.0232    6.8917   -2.9090 C   0  0  0  0  0  0  0  0  0  0  0  0
   11.5238    6.8953   -4.2263 C   0  0  0  0  0  0  0  0  0  0  0  0
   11.3423    8.1120   -4.8320 N   0  0  0  0  0  0  0  0  0  0  0  0
   11.6234    9.2752   -4.2126 C   0  0  0  0  0  0  0  0  0  0  0  0
   12.1004    9.2789   -2.9553 N   0  0  0  0  0  0  0  0  0  0  0  0
   12.1714    5.9444   -2.4194 H   0  0  0  0  0  0  0  0  0  0  0  0
   11.2969    5.9718   -4.7278 H   0  0  0  0  0  0  0  0  0  0  0  0
   11.4448   10.1806   -4.7783 H   0  0  0  0  0  0  0  0  0  0  0  0
   12.8203    8.1658   -0.9410 C   0  0  0  0  0  0  0  0  0  0  0  0
   12.0530    7.9367    0.1704 C   0  0  0  0  0  0  0  0  0  0  0  0
   12.5758    7.9891    1.4642 C   0  0  0  0  0  0  0  0  0  0  0  0
   13.9066    8.2782    1.6744 C   0  0  0  0  0  0  0  0  0  0  0  0
   14.4376    8.3346    2.9255 F   0  0  0  0  0  0  0  0  0  0  0  0
   14.6745    8.5074    0.5640 C   0  0  0  0  0  0  0  0  0  0  0  0
   14.1641    8.4566   -0.7041 C   0  0  0  0  0  0  0  0  0  0  0  0
   14.9302    8.6852   -1.8115 F   0  0  0  0  0  0  0  0  0  0  0  0
   11.0170    7.7073    0.0921 H   0  0  0  0  0  0  0  0  0  0  0  0
   11.9561    7.8059    2.3251 H   0  0  0  0  0  0  0  0  0  0  0  0
   15.7236    8.7372    0.6948 H   0  0  0  0  0  0  0  0  0  0  0  0
  2  1  2  0
  3  2  1  0
  4  3  2  0
  4  5  1  0
  5  6  2  0
  6  1  1  0
  2  7  1  0
  3  8  1  0
  5  9  1  0
 10 11  2  0
 11 12  1  0
 12 13  2  0
 13 14  1  0
 13 15  1  0
 15 16  2  0
 16 17  1  0
 16 10  1  0
 11 18  1  0
 12 19  1  0
 15 20  1  0
  1 10  1  0
M  END
>  <Score>  (1) 
-7.82832

$$$$

     RDKit          3D

 26 27  0  0  0  0  0  0  0  0999 V2000
   12.3025    8.1246   -2.3017 C   0  0  0  0  0  0  0  0  0  0  0  0
   12.0211    6.8825   -2.9139 C   0  0  0  0  0  0  0  0  0  0  0  0
   11.5244    6.8989   -4.2249 C   0  0  0  0  0  0  0  0  0  0  0  0
   11.3422    8.1066   -4.8317 N   0  0  0  0  0  0  0  0  0  0  0  0
   11.6237    9.2776   -4.2120 C   0  0  0  0  0  0  0  0  0  0  0  0
   12.1010    9.2808   -2.9539 N   0  0  0  0  0  0  0  0  0  0  0  0
   12.1776    5.9612   -2.4049 H   0  0  0  0  0  0  0  0  0  0  0  0
   11.2859    5.9904   -4.7589 H   0  0  0  0  0  0  0  0  0  0  0  0
   11.4445   10.1812   -4.7791 H   0  0  0  0  0  0  0  0  0  0  0  0
   14.3693    4.6879   -0.1673 H   0  0  0  0  0  0  0  0  0  0  0  0
   14.9805    5.5157    0.2757 C   0  0  0  0  0  0  0  0  0  0  0  0
   14.1499    6.7798    0.3553 C   0  0  2  0  0  0  0  0  0  0  0  0
   13.2265    6.7348   -0.6887 O   0  0  0  0  0  0  0  0  0  0  0  0
   12.8263    8.0465   -0.9128 C   0  0  1  0  0  0  0  0  0  0  0  0
   14.0536    8.9066   -0.7192 C   0  0  1  0  0  0  0  0  0  0  0  0
   13.6911   10.0005    0.0543 O   0  0  0  0  0  0  0  0  0  0  0  0
   14.9725    8.0225    0.1173 C   0  0  1  0  0  0  0  0  0  0  0  0
   15.2191    8.6031    1.3546 O   0  0  0  0  0  0  0  0  0  0  0  0
   15.8890    5.6297   -0.3158 H   0  0  0  0  0  0  0  0  0  0  0  0
   15.2447    5.1735    1.3116 H   0  0  0  0  0  0  0  0  0  0  0  0
   13.5593    6.8241    1.2943 H   0  0  0  0  0  0  0  0  0  0  0  0
   12.0401    8.2708   -0.1626 H   0  0  0  0  0  0  0  0  0  0  0  0
   14.5196    9.2160   -1.6675 H   0  0  0  0  0  0  0  0  0  0  0  0
   12.9203    9.7751    0.6614 H   0  0  0  0  0  0  0  0  0  0  0  0
   15.9160    7.7960   -0.4133 H   0  0  0  0  0  0  0  0  0  0  0  0
   14.3544    8.7442    1.8065 H   0  0  0  0  0  0  0  0  0  0  0  0
  2  1  2  0
  3  2  1  0
  4  3  2  0
  4  5  1  0
  5  6  2  0
  6  1  1  0
  2  7  1  0
  3  8  1  0
  5  9  1  0
 10 11  1  0
 11 12  1  0
 12 13  1  0
 13 14  1  0
 14 15  1  0
 15 16  1  0
 15 17  1  0
 17 18  1  0
 17 12  1  0
 11 19  1  0
 11 20  1  0
 12 21  1  1
 14 22  1  1
 15 23  1  6
 16 24  1  0
 17 25  1  6
 18 26  1  0
  1 14  1  0
M  END
>  <Score>  (1) 
-7.73103

$$$$

     RDKit          3D

 21 22  0  0  0  0  0  0  0  0999 V2000
   12.3030    8.1179   -2.2996 C   0  0  0  0  0  0  0  0  0  0  0  0
   12.0223    6.8927   -2.9117 C   0  0  0  0  0  0  0  0  0  0  0  0
   11.5238    6.8972   -4.2264 C   0  0  0  0  0  0  0  0  0  0  0  0
   11.3424    8.1086   -4.8314 N   0  0  0  0  0  0  0  0  0  0  0  0
   11.6247    9.2768   -4.2094 C   0  0  0  0  0  0  0  0  0  0  0  0
   12.0988    9.2779   -2.9595 N   0  0  0  0  0  0  0  0  0  0  0  0
   12.1733    5.9566   -2.4156 H   0  0  0  0  0  0  0  0  0  0  0  0
   11.2901    5.9796   -4.7466 H   0  0  0  0  0  0  0  0  0  0  0  0
   11.4403   10.1710   -4.7892 H   0  0  0  0  0  0  0  0  0  0  0  0
   12.8256    8.1825   -0.9287 C   0  0  0  0  0  0  0  0  0  0  0  0
   12.1727    7.6880    0.1645 C   0  0  0  0  0  0  0  0  0  0  0  0
   12.7328    7.7868    1.4339 C   0  0  0  0  0  0  0  0  0  0  0  0
   13.9531    8.3773    1.6543 C   0  0  0  0  0  0  0  0  0  0  0  0
   14.3963    8.4577    2.6440 H   0  0  0  0  0  0  0  0  0  0  0  0
   14.6216    8.8802    0.5582 C   0  0  0  0  0  0  0  0  0  0  0  0
   15.8544    9.4833    0.7359 O   0  0  0  0  0  0  0  0  0  0  0  0
   14.0613    8.7789   -0.6946 C   0  0  0  0  0  0  0  0  0  0  0  0
   11.2030    7.2125    0.0326 H   0  0  0  0  0  0  0  0  0  0  0  0
   12.1748    7.3796    2.2644 H   0  0  0  0  0  0  0  0  0  0  0  0
   16.3637    9.8599   -0.0542 H   0  0  0  0  0  0  0  0  0  0  0  0
   14.5979    9.1796   -1.5545 H   0  0  0  0  0  0  0  0  0  0  0  0
  2  1  2  0
  3  2  1  0
  4  3  2  0
  4  5  1  0
  5  6  2  0
  6  1  1  0
  2  7  1  0
  3  8  1  0
  5  9  1  0
 10 11  2  0
 11 12  1  0
 12 13  2  0
 13 14  1  0
 13 15  1  0
 15 16  1  0
 15 17  2  0
 17 10  1  0
 11 18  1  0
 12 19  1  0
 16 20  1  0
 17 21  1  0
  1 10  1  0
M  END
>  <Score>  (1) 
-7.70664

$$$$

     RDKit          3D

 28 29  0  0  0  0  0  0  0  0999 V2000
   12.3027    8.1253   -2.3013 C   0  0  0  0  0  0  0  0  0  0  0  0
   12.0203    6.8822   -2.9158 C   0  0  0  0  0  0  0  0  0  0  0  0
   11.5252    6.8978   -4.2229 C   0  0  0  0  0  0  0  0  0  0  0  0
   11.3422    8.1083   -4.8318 N   0  0  0  0  0  0  0  0  0  0  0  0
   11.6233    9.2768   -4.2130 C   0  0  0  0  0  0  0  0  0  0  0  0
   12.1013    9.2805   -2.9532 N   0  0  0  0  0  0  0  0  0  0  0  0
   12.1792    5.9542   -2.3997 H   0  0  0  0  0  0  0  0  0  0  0  0
   11.2867    5.9940   -4.7571 H   0  0  0  0  0  0  0  0  0  0  0  0
   11.4763   10.2288   -4.7002 H   0  0  0  0  0  0  0  0  0  0  0  0
   12.8223    8.1200   -0.9309 C   0  0  2  0  0  0  0  0  0  0  0  0
   14.0491    7.2492   -0.8233 C   0  0  0  0  0  0  0  0  0  0  0  0
   14.3362    6.7381    0.5232 C   0  0  0  0  0  0  0  0  0  0  0  0
   13.5751    7.2897    1.6638 C   0  0  0  0  0  0  0  0  0  0  0  0
   12.2471    7.8737    1.3726 C   0  0  0  0  0  0  0  0  0  0  0  0
   11.8021    7.4379   -0.0062 C   0  0  1  0  0  0  0  0  0  0  0  0
   10.4639    7.8196   -0.3228 N   0  0  0  0  0  0  0  0  0  0  0  0
   13.0023    9.1490   -0.5631 H   0  0  0  0  0  0  0  0  0  0  0  0
   14.9227    7.8181   -1.2597 H   0  0  0  0  0  0  0  0  0  0  0  0
   13.8857    6.4143   -1.5676 H   0  0  0  0  0  0  0  0  0  0  0  0
   14.2148    5.6215    0.5170 H   0  0  0  0  0  0  0  0  0  0  0  0
   15.4403    6.8805    0.7243 H   0  0  0  0  0  0  0  0  0  0  0  0
   13.4196    6.4833    2.4423 H   0  0  0  0  0  0  0  0  0  0  0  0
   14.1878    8.0571    2.1834 H   0  0  0  0  0  0  0  0  0  0  0  0
   11.4871    7.6065    2.1488 H   0  0  0  0  0  0  0  0  0  0  0  0
   12.3141    8.9835    1.3428 H   0  0  0  0  0  0  0  0  0  0  0  0
   11.9222    6.3321   -0.0524 H   0  0  0  0  0  0  0  0  0  0  0  0
    9.8836    7.7351    0.5307 H   0  0  0  0  0  0  0  0  0  0  0  0
   10.1171    7.1853   -1.0818 H   0  0  0  0  0  0  0  0  0  0  0  0
  2  1  2  0
  3  2  1  0
  4  3  2  0
  4  5  1  0
  5  6  2  0
  6  1  1  0
  2  7  1  0
  3  8  1  0
  5  9  1  0
 10 11  1  0
 11 12  1  0
 12 13  1  0
 13 14  1  0
 14 15  1  0
 15 16  1  0
 15 10  1  0
 10 17  1  1
 11 18  1  0
 11 19  1  0
 12 20  1  0
 12 21  1  0
 13 22  1  0
 13 23  1  0
 14 24  1  0
 14 25  1  0
 15 26  1  1
 16 27  1  0
 16 28  1  0
  1 10  1  0
M  END
>  <Score>  (1) 
-7.70539

$$$$

     RDKit          3D

 25 26  0  0  0  0  0  0  0  0999 V2000
   12.3038    8.1112   -2.2986 C   0  0  0  0  0  0  0  0  0  0  0  0
   12.0241    6.8938   -2.9051 C   0  0  0  0  0  0  0  0  0  0  0  0
   11.5231    6.9032   -4.2294 C   0  0  0  0  0  0  0  0  0  0  0  0
   11.3417    8.1038   -4.8334 N   0  0  0  0  0  0  0  0  0  0  0  0
   11.6242    9.2803   -4.2103 C   0  0  0  0  0  0  0  0  0  0  0  0
   12.0980    9.2787   -2.9612 N   0  0  0  0  0  0  0  0  0  0  0  0
   12.1219    5.9376   -2.4352 H   0  0  0  0  0  0  0  0  0  0  0  0
   11.3134    5.9604   -4.6852 H   0  0  0  0  0  0  0  0  0  0  0  0
   11.4426   10.1758   -4.7810 H   0  0  0  0  0  0  0  0  0  0  0  0
   16.1712    8.2976   -1.0966 H   0  0  0  0  0  0  0  0  0  0  0  0
   15.1223    8.3553   -1.4601 C   0  0  0  0  0  0  0  0  0  0  0  0
   15.0435    8.5442   -2.6783 O   0  0  0  0  0  0  0  0  0  0  0  0
   14.0153    8.2118   -0.5286 C   0  0  0  0  0  0  0  0  0  0  0  0
   14.3666    8.2733    0.8409 C   0  0  0  0  0  0  0  0  0  0  0  0
   13.4143    8.3027    1.8162 C   0  0  0  0  0  0  0  0  0  0  0  0
   13.7359    8.3674    3.2728 C   0  0  0  0  0  0  0  0  0  0  0  0
   12.0968    8.2700    1.4113 C   0  0  0  0  0  0  0  0  0  0  0  0
   11.7312    8.2077    0.0920 C   0  0  0  0  0  0  0  0  0  0  0  0
   12.7116    8.1743   -0.9144 C   0  0  0  0  0  0  0  0  0  0  0  0
   15.4090    8.2982    1.1393 H   0  0  0  0  0  0  0  0  0  0  0  0
   13.3418    7.4707    3.7774 H   0  0  0  0  0  0  0  0  0  0  0  0
   13.2766    9.2683    3.7333 H   0  0  0  0  0  0  0  0  0  0  0  0
   14.8332    8.4781    3.3844 H   0  0  0  0  0  0  0  0  0  0  0  0
   11.3272    8.2949    2.1710 H   0  0  0  0  0  0  0  0  0  0  0  0
   10.7148    8.1809   -0.2587 H   0  0  0  0  0  0  0  0  0  0  0  0
  2  1  2  0
  3  2  1  0
  4  3  2  0
  4  5  1  0
  5  6  2  0
  6  1  1  0
  2  7  1  0
  3  8  1  0
  5  9  1  0
 10 11  1  0
 11 12  2  0
 11 13  1  0
 13 14  2  0
 14 15  1  0
 15 16  1  0
 15 17  2  0
 17 18  1  0
 18 19  2  0
 19 13  1  0
 14 20  1  0
 16 21  1  0
 16 22  1  0
 16 23  1  0
 17 24  1  0
 18 25  1  0
  1 19  1  0
M  END
>  <Score>  (1) 
-7.69289

$$$$

     RDKit          3D

 20 20  0  0  0  0  0  0  0  0999 V2000
   12.3019    8.1212   -2.3030 C   0  0  0  0  0  0  0  0  0  0  0  0
   12.0208    6.8842   -2.9148 C   0  0  0  0  0  0  0  0  0  0  0  0
   11.5258    6.8975   -4.2212 C   0  0  0  0  0  0  0  0  0  0  0  0
   11.3413    8.1072   -4.8339 N   0  0  0  0  0  0  0  0  0  0  0  0
   11.6253    9.2786   -4.2080 C   0  0  0  0  0  0  0  0  0  0  0  0
   12.0998    9.2823   -2.9572 N   0  0  0  0  0  0  0  0  0  0  0  0
   12.6846    8.1330   -1.2954 H   0  0  0  0  0  0  0  0  0  0  0  0
   12.1860    5.9561   -2.3824 H   0  0  0  0  0  0  0  0  0  0  0  0
   11.3085    5.9606   -4.6976 H   0  0  0  0  0  0  0  0  0  0  0  0
   11.4004   10.5616   -4.9356 C   0  0  0  0  0  0  0  0  0  0  0  0
   10.3586   10.4577   -5.8220 O   0  0  0  0  0  0  0  0  0  0  0  0
   12.6552   10.9121   -5.6756 C   0  0  0  0  0  0  0  0  0  0  0  0
   13.6660   11.0435   -4.7317 F   0  0  0  0  0  0  0  0  0  0  0  0
   12.9145    9.9084   -6.5797 F   0  0  0  0  0  0  0  0  0  0  0  0
   12.4520   12.1394   -6.2861 F   0  0  0  0  0  0  0  0  0  0  0  0
   11.0990   11.6475   -3.8919 C   0  0  0  0  0  0  0  0  0  0  0  0
   12.1809   11.7483   -3.0440 F   0  0  0  0  0  0  0  0  0  0  0  0
   10.0366   11.1955   -3.0987 F   0  0  0  0  0  0  0  0  0  0  0  0
   10.7305   12.8239   -4.4653 F   0  0  0  0  0  0  0  0  0  0  0  0
   10.6703   10.3565   -6.7659 H   0  0  0  0  0  0  0  0  0  0  0  0
  2  1  2  0
  3  2  1  0
  4  3  2  0
  4  5  1  0
  5  6  2  0
  6  1  1  0
  1  7  1  0
  2  8  1  0
  3  9  1  0
 10 11  1  0
 10 12  1  0
 12 13  1  0
 12 14  1  0
 12 15  1  0
 10 16  1  0
 16 17  1  0
 16 18  1  0
 16 19  1  0
 11 20  1  0
  5 10  1  0
M  END
>  <Score>  (1) 
-7.93762

$$$$

     RDKit          3D

 28 29  0  0  0  0  0  0  0  0999 V2000
   12.3026    8.1240   -2.3016 C   0  0  0  0  0  0  0  0  0  0  0  0
   12.0214    6.8831   -2.9130 C   0  0  0  0  0  0  0  0  0  0  0  0
   11.5241    6.8984   -4.2256 C   0  0  0  0  0  0  0  0  0  0  0  0
   11.3423    8.1073   -4.8316 N   0  0  0  0  0  0  0  0  0  0  0  0
   11.6237    9.2774   -4.2119 C   0  0  0  0  0  0  0  0  0  0  0  0
   12.1009    9.2808   -2.9543 N   0  0  0  0  0  0  0  0  0  0  0  0
   12.1691    5.9552   -2.4266 H   0  0  0  0  0  0  0  0  0  0  0  0
   11.3093    5.9701   -4.6949 H   0  0  0  0  0  0  0  0  0  0  0  0
   11.4422   10.1838   -4.7855 H   0  0  0  0  0  0  0  0  0  0  0  0
   12.8312    8.0750   -0.9028 C   0  0  1  0  0  0  0  0  0  0  0  0
   13.2592    6.7285   -0.4746 C   0  0  0  0  0  0  0  0  0  0  0  0
   14.7128    6.4588   -0.4191 C   0  0  0  0  0  0  0  0  0  0  0  0
   15.5686    7.5388    0.1222 C   0  0  0  0  0  0  0  0  0  0  0  0
   14.9091    8.8722    0.2567 C   0  0  0  0  0  0  0  0  0  0  0  0
   13.8679    9.1511   -0.7850 C   0  0  2  0  0  0  0  0  0  0  0  0
   13.2477   10.4246   -0.4110 N   0  0  0  0  0  0  0  0  0  0  0  0
   11.9769    8.3842   -0.2326 H   0  0  0  0  0  0  0  0  0  0  0  0
   12.8004    6.4238    0.5132 H   0  0  0  0  0  0  0  0  0  0  0  0
   12.8083    5.9871   -1.2013 H   0  0  0  0  0  0  0  0  0  0  0  0
   14.8608    5.5507    0.2419 H   0  0  0  0  0  0  0  0  0  0  0  0
   15.1293    6.1065   -1.4102 H   0  0  0  0  0  0  0  0  0  0  0  0
   16.4772    7.6877   -0.5338 H   0  0  0  0  0  0  0  0  0  0  0  0
   16.0109    7.3020    1.1325 H   0  0  0  0  0  0  0  0  0  0  0  0
   14.4577    8.9694    1.2778 H   0  0  0  0  0  0  0  0  0  0  0  0
   15.6773    9.6700    0.1839 H   0  0  0  0  0  0  0  0  0  0  0  0
   14.3671    9.3367   -1.7593 H   0  0  0  0  0  0  0  0  0  0  0  0
   12.9759   10.3788    0.6091 H   0  0  0  0  0  0  0  0  0  0  0  0
   13.9181   11.2078   -0.5370 H   0  0  0  0  0  0  0  0  0  0  0  0
  2  1  2  0
  3  2  1  0
  4  3  2  0
  4  5  1  0
  5  6  2  0
  6  1  1  0
  2  7  1  0
  3  8  1  0
  5  9  1  0
 10 11  1  0
 11 12  1  0
 12 13  1  0
 13 14  1  0
 14 15  1  0
 15 16  1  0
 15 10  1  0
 10 17  1  1
 11 18  1  0
 11 19  1  0
 12 20  1  0
 12 21  1  0
 13 22  1  0
 13 23  1  0
 14 24  1  0
 14 25  1  0
 15 26  1  6
 16 27  1  0
 16 28  1  0
  1 10  1  0
M  END
>  <Score>  (1) 
-7.61253

$$$$

     RDKit          3D

 21 22  0  0  0  0  0  0  0  0999 V2000
   12.3042    8.1196   -2.2967 C   0  0  0  0  0  0  0  0  0  0  0  0
   12.0217    6.8948   -2.9136 C   0  0  0  0  0  0  0  0  0  0  0  0
   11.5233    6.8986   -4.2278 C   0  0  0  0  0  0  0  0  0  0  0  0
   11.3418    8.1021   -4.8324 N   0  0  0  0  0  0  0  0  0  0  0  0
   11.6251    9.2816   -4.2088 C   0  0  0  0  0  0  0  0  0  0  0  0
   12.0989    9.2743   -2.9588 N   0  0  0  0  0  0  0  0  0  0  0  0
   12.1742    5.9777   -2.4154 H   0  0  0  0  0  0  0  0  0  0  0  0
   11.2903    5.9930   -4.7474 H   0  0  0  0  0  0  0  0  0  0  0  0
   11.4381   10.1673   -4.7945 H   0  0  0  0  0  0  0  0  0  0  0  0
   12.8222    8.1991   -0.9394 C   0  0  0  0  0  0  0  0  0  0  0  0
   12.0403    7.9826    0.1761 C   0  0  0  0  0  0  0  0  0  0  0  0
   12.5632    8.0651    1.4724 C   0  0  0  0  0  0  0  0  0  0  0  0
   13.8993    8.3715    1.6461 C   0  0  0  0  0  0  0  0  0  0  0  0
   14.7053    8.5931    0.5483 C   0  0  0  0  0  0  0  0  0  0  0  0
   14.1496    8.5022   -0.7231 C   0  0  0  0  0  0  0  0  0  0  0  0
   14.9670    8.7264   -1.8190 O   0  0  0  0  0  0  0  0  0  0  0  0
   10.9915    7.7405    0.0874 H   0  0  0  0  0  0  0  0  0  0  0  0
   11.9310    7.8913    2.3333 H   0  0  0  0  0  0  0  0  0  0  0  0
   14.2966    8.4334    2.6593 H   0  0  0  0  0  0  0  0  0  0  0  0
   15.7529    8.8334    0.6853 H   0  0  0  0  0  0  0  0  0  0  0  0
   15.9530    8.9531   -1.7093 H   0  0  0  0  0  0  0  0  0  0  0  0
  2  1  2  0
  3  2  1  0
  4  3  2  0
  4  5  1  0
  5  6  2  0
  6  1  1  0
  2  7  1  0
  3  8  1  0
  5  9  1  0
 10 11  2  0
 11 12  1  0
 12 13  2  0
 13 14  1  0
 14 15  2  0
 15 16  1  0
 15 10  1  0
 11 17  1  0
 12 18  1  0
 13 19  1  0
 14 20  1  0
 16 21  1  0
  1 10  1  0
M  END
>  <Score>  (1) 
-7.61082

$$$$

     RDKit          3D

 22 23  0  0  0  0  0  0  0  0999 V2000
   12.3042    8.1171   -2.2965 C   0  0  0  0  0  0  0  0  0  0  0  0
   12.0223    6.8891   -2.9112 C   0  0  0  0  0  0  0  0  0  0  0  0
   11.5242    6.9078   -4.2266 C   0  0  0  0  0  0  0  0  0  0  0  0
   11.3414    8.1040   -4.8335 N   0  0  0  0  0  0  0  0  0  0  0  0
   11.6247    9.2738   -4.2090 C   0  0  0  0  0  0  0  0  0  0  0  0
   12.0982    9.2791   -2.9613 N   0  0  0  0  0  0  0  0  0  0  0  0
   12.1713    5.9594   -2.4211 H   0  0  0  0  0  0  0  0  0  0  0  0
   11.2837    6.0065   -4.7664 H   0  0  0  0  0  0  0  0  0  0  0  0
   11.4431   10.1703   -4.7818 H   0  0  0  0  0  0  0  0  0  0  0  0
   12.8224    8.1798   -0.9369 C   0  0  0  0  0  0  0  0  0  0  0  0
   12.0528    7.9573    0.1828 C   0  0  0  0  0  0  0  0  0  0  0  0
   12.5939    8.0282    1.4718 C   0  0  0  0  0  0  0  0  0  0  0  0
   13.9279    8.3266    1.6468 C   0  0  0  0  0  0  0  0  0  0  0  0
   14.4958    8.4045    2.9150 O   0  0  0  0  0  0  0  0  0  0  0  0
   14.7194    8.5538    0.5360 C   0  0  0  0  0  0  0  0  0  0  0  0
   14.1618    8.4780   -0.7263 C   0  0  0  0  0  0  0  0  0  0  0  0
   14.9795    8.7110   -1.8331 O   0  0  0  0  0  0  0  0  0  0  0  0
   11.0039    7.7209    0.0896 H   0  0  0  0  0  0  0  0  0  0  0  0
   11.9926    7.8544    2.3461 H   0  0  0  0  0  0  0  0  0  0  0  0
   15.4682    8.6227    3.0266 H   0  0  0  0  0  0  0  0  0  0  0  0
   15.7727    8.7921    0.6088 H   0  0  0  0  0  0  0  0  0  0  0  0
   15.9433    8.9272   -1.7219 H   0  0  0  0  0  0  0  0  0  0  0  0
  2  1  2  0
  3  2  1  0
  4  3  2  0
  4  5  1  0
  5  6  2  0
  6  1  1  0
  2  7  1  0
  3  8  1  0
  5  9  1  0
 10 11  2  0
 11 12  1  0
 12 13  2  0
 13 14  1  0
 13 15  1  0
 15 16  2  0
 16 17  1  0
 16 10  1  0
 11 18  1  0
 12 19  1  0
 14 20  1  0
 15 21  1  0
 17 22  1  0
  1 10  1  0
M  END
>  <Score>  (1) 
-7.60213

$$$$

     RDKit          3D

 20 21  0  0  0  0  0  0  0  0999 V2000
   12.3013    8.1175   -2.3042 C   0  0  0  0  0  0  0  0  0  0  0  0
   12.0240    6.8892   -2.9068 C   0  0  0  0  0  0  0  0  0  0  0  0
   11.5236    6.9029   -4.2275 C   0  0  0  0  0  0  0  0  0  0  0  0
   11.3414    8.1024   -4.8334 N   0  0  0  0  0  0  0  0  0  0  0  0
   11.6247    9.2811   -4.2097 C   0  0  0  0  0  0  0  0  0  0  0  0
   12.1000    9.2779   -2.9564 N   0  0  0  0  0  0  0  0  0  0  0  0
   12.1673    5.9578   -2.4316 H   0  0  0  0  0  0  0  0  0  0  0  0
   11.3193    5.9590   -4.6675 H   0  0  0  0  0  0  0  0  0  0  0  0
   11.4569   10.2023   -4.7485 H   0  0  0  0  0  0  0  0  0  0  0  0
   12.8191    8.1704   -0.9444 C   0  0  0  0  0  0  0  0  0  0  0  0
   14.1291    8.4525   -0.6316 C   0  0  0  0  0  0  0  0  0  0  0  0
   14.5934    8.4951    0.6895 C   0  0  0  0  0  0  0  0  0  0  0  0
   13.7151    8.2471    1.7227 C   0  0  0  0  0  0  0  0  0  0  0  0
   12.4128    7.9651    1.4466 C   0  0  0  0  0  0  0  0  0  0  0  0
   11.2580    7.6415    2.7521 Cl  0  0  0  0  0  0  0  0  0  0  0  0
   11.9797    7.9288    0.1394 C   0  0  0  0  0  0  0  0  0  0  0  0
   14.8415    8.6508   -1.4103 H   0  0  0  0  0  0  0  0  0  0  0  0
   15.6146    8.7154    0.9253 H   0  0  0  0  0  0  0  0  0  0  0  0
   14.0543    8.2753    2.7508 H   0  0  0  0  0  0  0  0  0  0  0  0
   10.9266    7.7012   -0.0911 H   0  0  0  0  0  0  0  0  0  0  0  0
  2  1  2  0
  3  2  1  0
  4  3  2  0
  4  5  1  0
  5  6  2  0
  6  1  1  0
  2  7  1  0
  3  8  1  0
  5  9  1  0
 10 11  2  0
 11 12  1  0
 12 13  2  0
 13 14  1  0
 14 15  1  0
 14 16  2  0
 16 10  1  0
 11 17  1  0
 12 18  1  0
 13 19  1  0
 16 20  1  0
  1 10  1  0
M  END
>  <Score>  (1) 
-7.59842

$$$$

     RDKit          3D

 23 24  0  0  0  0  0  0  0  0999 V2000
   12.3033    8.1118   -2.2983 C   0  0  0  0  0  0  0  0  0  0  0  0
   12.0239    6.8979   -2.9079 C   0  0  0  0  0  0  0  0  0  0  0  0
   11.5229    6.9005   -4.2291 C   0  0  0  0  0  0  0  0  0  0  0  0
   11.3415    8.1027   -4.8332 N   0  0  0  0  0  0  0  0  0  0  0  0
   11.6249    9.2809   -4.2093 C   0  0  0  0  0  0  0  0  0  0  0  0
   12.0985    9.2772   -2.9602 N   0  0  0  0  0  0  0  0  0  0  0  0
   12.1512    5.9350   -2.4716 H   0  0  0  0  0  0  0  0  0  0  0  0
   11.2920    5.9769   -4.7412 H   0  0  0  0  0  0  0  0  0  0  0  0
   11.4384   10.1722   -4.7943 H   0  0  0  0  0  0  0  0  0  0  0  0
   14.3625   10.1770   -2.1141 H   0  0  0  0  0  0  0  0  0  0  0  0
   14.8704    9.2929   -1.6895 C   0  0  0  0  0  0  0  0  0  0  0  0
   14.0450    8.6971   -0.6264 C   0  0  0  0  0  0  0  0  0  0  0  0
   14.5002    8.7032    0.6664 C   0  0  0  0  0  0  0  0  0  0  0  0
   13.7658    8.1603    1.6878 C   0  0  0  0  0  0  0  0  0  0  0  0
   12.5444    7.5960    1.4118 C   0  0  0  0  0  0  0  0  0  0  0  0
   12.1025    7.5997    0.1003 C   0  0  0  0  0  0  0  0  0  0  0  0
   12.8196    8.1373   -0.9397 C   0  0  0  0  0  0  0  0  0  0  0  0
   15.2191    8.5584   -2.4517 H   0  0  0  0  0  0  0  0  0  0  0  0
   15.8163    9.6925   -1.2168 H   0  0  0  0  0  0  0  0  0  0  0  0
   15.4804    9.1562    0.8867 H   0  0  0  0  0  0  0  0  0  0  0  0
   14.1510    8.1763    2.7185 H   0  0  0  0  0  0  0  0  0  0  0  0
   11.9427    7.1578    2.2099 H   0  0  0  0  0  0  0  0  0  0  0  0
   11.1161    7.1296   -0.0380 H   0  0  0  0  0  0  0  0  0  0  0  0
  2  1  2  0
  3  2  1  0
  4  3  2  0
  4  5  1  0
  5  6  2  0
  6  1  1  0
  2  7  1  0
  3  8  1  0
  5  9  1  0
 10 11  1  0
 11 12  1  0
 12 13  2  0
 13 14  1  0
 14 15  2  0
 15 16  1  0
 16 17  2  0
 17 12  1  0
 11 18  1  0
 11 19  1  0
 13 20  1  0
 14 21  1  0
 15 22  1  0
 16 23  1  0
  1 17  1  0
M  END
>  <Score>  (1) 
-7.58024

$$$$

     RDKit          3D

 20 21  0  0  0  0  0  0  0  0999 V2000
   12.3044    8.1189   -2.2961 C   0  0  0  0  0  0  0  0  0  0  0  0
   12.0229    6.8913   -2.9098 C   0  0  0  0  0  0  0  0  0  0  0  0
   11.5222    6.9016   -4.2312 C   0  0  0  0  0  0  0  0  0  0  0  0
   11.3421    8.1035   -4.8317 N   0  0  0  0  0  0  0  0  0  0  0  0
   11.6248    9.2780   -4.2093 C   0  0  0  0  0  0  0  0  0  0  0  0
   12.0986    9.2778   -2.9600 N   0  0  0  0  0  0  0  0  0  0  0  0
   12.1717    5.9494   -2.4191 H   0  0  0  0  0  0  0  0  0  0  0  0
   11.3180    5.9602   -4.6710 H   0  0  0  0  0  0  0  0  0  0  0  0
   11.4574   10.2192   -4.7490 H   0  0  0  0  0  0  0  0  0  0  0  0
   12.8234    8.1767   -0.9337 C   0  0  0  0  0  0  0  0  0  0  0  0
   12.0668    7.9542    0.1947 C   0  0  0  0  0  0  0  0  0  0  0  0
   12.6252    8.0244    1.4796 C   0  0  0  0  0  0  0  0  0  0  0  0
   13.9583    8.3203    1.6541 C   0  0  0  0  0  0  0  0  0  0  0  0
   14.7330    8.5465    0.5372 C   0  0  0  0  0  0  0  0  0  0  0  0
   14.1564    8.4712   -0.7268 C   0  0  0  0  0  0  0  0  0  0  0  0
   14.9457    8.6989   -1.8071 F   0  0  0  0  0  0  0  0  0  0  0  0
   11.0174    7.7198    0.0885 H   0  0  0  0  0  0  0  0  0  0  0  0
   12.0109    7.8461    2.3421 H   0  0  0  0  0  0  0  0  0  0  0  0
   14.3828    8.3732    2.6430 H   0  0  0  0  0  0  0  0  0  0  0  0
   15.7827    8.7795    0.6769 H   0  0  0  0  0  0  0  0  0  0  0  0
  2  1  2  0
  3  2  1  0
  4  3  2  0
  4  5  1  0
  5  6  2  0
  6  1  1  0
  2  7  1  0
  3  8  1  0
  5  9  1  0
 10 11  2  0
 11 12  1  0
 12 13  2  0
 13 14  1  0
 14 15  2  0
 15 16  1  0
 15 10  1  0
 11 17  1  0
 12 18  1  0
 13 19  1  0
 14 20  1  0
  1 10  1  0
M  END
>  <Score>  (1) 
-7.57301

$$$$

     RDKit          3D

 22 23  0  0  0  0  0  0  0  0999 V2000
   12.3055    8.1130   -2.2942 C   0  0  0  0  0  0  0  0  0  0  0  0
   12.0240    6.8919   -2.9054 C   0  0  0  0  0  0  0  0  0  0  0  0
   11.5226    6.9061   -4.2309 C   0  0  0  0  0  0  0  0  0  0  0  0
   11.3422    8.1071   -4.8326 N   0  0  0  0  0  0  0  0  0  0  0  0
   11.6237    9.2745   -4.2110 C   0  0  0  0  0  0  0  0  0  0  0  0
   12.0970    9.2783   -2.9638 N   0  0  0  0  0  0  0  0  0  0  0  0
   12.1236    5.9310   -2.4431 H   0  0  0  0  0  0  0  0  0  0  0  0
   11.3140    5.9692   -4.6844 H   0  0  0  0  0  0  0  0  0  0  0  0
   11.4517   10.1958   -4.7593 H   0  0  0  0  0  0  0  0  0  0  0  0
   15.9748    9.1581   -0.9416 H   0  0  0  0  0  0  0  0  0  0  0  0
   14.9608    8.9942   -1.3327 C   0  0  0  0  0  0  0  0  0  0  0  0
   14.7362    9.2944   -2.5028 O   0  0  0  0  0  0  0  0  0  0  0  0
   13.9507    8.4336   -0.4456 C   0  0  0  0  0  0  0  0  0  0  0  0
   14.2577    8.3948    0.9300 C   0  0  0  0  0  0  0  0  0  0  0  0
   13.3129    8.0325    1.8431 C   0  0  0  0  0  0  0  0  0  0  0  0
   12.0356    7.6990    1.4079 C   0  0  0  0  0  0  0  0  0  0  0  0
   11.7534    7.7381    0.0742 C   0  0  0  0  0  0  0  0  0  0  0  0
   12.7074    8.1054   -0.8968 C   0  0  0  0  0  0  0  0  0  0  0  0
   15.2557    8.6594    1.2213 H   0  0  0  0  0  0  0  0  0  0  0  0
   13.5530    8.0031    2.9085 H   0  0  0  0  0  0  0  0  0  0  0  0
   11.3380    7.4242    2.1862 H   0  0  0  0  0  0  0  0  0  0  0  0
   10.7672    7.4807   -0.2631 H   0  0  0  0  0  0  0  0  0  0  0  0
  2  1  2  0
  3  2  1  0
  4  3  2  0
  4  5  1  0
  5  6  2  0
  6  1  1  0
  2  7  1  0
  3  8  1  0
  5  9  1  0
 10 11  1  0
 11 12  2  0
 11 13  1  0
 13 14  2  0
 14 15  1  0
 15 16  2  0
 16 17  1  0
 17 18  2  0
 18 13  1  0
 14 19  1  0
 15 20  1  0
 16 21  1  0
 17 22  1  0
  1 18  1  0
M  END
>  <Score>  (1) 
-7.51482

$$$$

     RDKit          3D

 26 27  0  0  0  0  0  0  0  0999 V2000
   12.3047    8.1185   -2.2953 C   0  0  0  0  0  0  0  0  0  0  0  0
   12.0240    6.8931   -2.9071 C   0  0  0  0  0  0  0  0  0  0  0  0
   11.5216    6.9042   -4.2329 C   0  0  0  0  0  0  0  0  0  0  0  0
   11.3420    8.1070   -4.8322 N   0  0  0  0  0  0  0  0  0  0  0  0
   11.6246    9.2720   -4.2090 C   0  0  0  0  0  0  0  0  0  0  0  0
   12.0980    9.2763   -2.9615 N   0  0  0  0  0  0  0  0  0  0  0  0
   12.1591    5.9500   -2.4524 H   0  0  0  0  0  0  0  0  0  0  0  0
   11.3029    5.9657   -4.7114 H   0  0  0  0  0  0  0  0  0  0  0  0
   11.4452   10.1930   -4.7785 H   0  0  0  0  0  0  0  0  0  0  0  0
   12.8166    8.1406   -0.9479 C   0  0  0  0  0  0  0  0  0  0  0  0
   12.3218    7.3835    0.0837 C   0  0  0  0  0  0  0  0  0  0  0  0
   12.8138    7.4047    1.3787 C   0  0  0  0  0  0  0  0  0  0  0  0
   13.8576    8.2231    1.6734 C   0  0  0  0  0  0  0  0  0  0  0  0
   14.4564    8.3152    3.0393 C   0  0  0  0  0  0  0  0  0  0  0  0
   14.3914    9.0000    0.6867 C   0  0  0  0  0  0  0  0  0  0  0  0
   13.8871    8.9716   -0.6197 C   0  0  0  0  0  0  0  0  0  0  0  0
   14.5313    9.8495   -1.6209 C   0  0  0  0  0  0  0  0  0  0  0  0
   11.4905    6.7140   -0.0946 H   0  0  0  0  0  0  0  0  0  0  0  0
   12.3895    6.7922    2.1469 H   0  0  0  0  0  0  0  0  0  0  0  0
   14.2041    7.3970    3.6074 H   0  0  0  0  0  0  0  0  0  0  0  0
   15.5668    8.4234    2.9695 H   0  0  0  0  0  0  0  0  0  0  0  0
   14.0592    9.1716    3.6146 H   0  0  0  0  0  0  0  0  0  0  0  0
   15.2132    9.6479    0.9073 H   0  0  0  0  0  0  0  0  0  0  0  0
   15.3753   10.4172   -1.1431 H   0  0  0  0  0  0  0  0  0  0  0  0
   13.8605   10.6428   -2.0061 H   0  0  0  0  0  0  0  0  0  0  0  0
   15.0441    9.2669   -2.4324 H   0  0  0  0  0  0  0  0  0  0  0  0
  2  1  2  0
  3  2  1  0
  4  3  2  0
  4  5  1  0
  5  6  2  0
  6  1  1  0
  2  7  1  0
  3  8  1  0
  5  9  1  0
 10 11  2  0
 11 12  1  0
 12 13  2  0
 13 14  1  0
 13 15  1  0
 15 16  2  0
 16 17  1  0
 16 10  1  0
 11 18  1  0
 12 19  1  0
 14 20  1  0
 14 21  1  0
 14 22  1  0
 15 23  1  0
 17 24  1  0
 17 25  1  0
 17 26  1  0
  1 10  1  0
M  END
>  <Score>  (1) 
-7.50022

$$$$

     RDKit          3D

 20 21  0  0  0  0  0  0  0  0999 V2000
   12.3027    8.1185   -2.3006 C   0  0  0  0  0  0  0  0  0  0  0  0
   12.0239    6.8888   -2.9071 C   0  0  0  0  0  0  0  0  0  0  0  0
   11.5227    6.9019   -4.2298 C   0  0  0  0  0  0  0  0  0  0  0  0
   11.3418    8.1038   -4.8325 N   0  0  0  0  0  0  0  0  0  0  0  0
   11.6250    9.2796   -4.2089 C   0  0  0  0  0  0  0  0  0  0  0  0
   12.0990    9.2784   -2.9590 N   0  0  0  0  0  0  0  0  0  0  0  0
   12.1696    5.9570   -2.4254 H   0  0  0  0  0  0  0  0  0  0  0  0
   11.2944    5.9884   -4.7362 H   0  0  0  0  0  0  0  0  0  0  0  0
   11.4579   10.2122   -4.7469 H   0  0  0  0  0  0  0  0  0  0  0  0
   12.8212    8.1663   -0.9385 C   0  0  0  0  0  0  0  0  0  0  0  0
   12.7997    7.1186   -0.0650 C   0  0  0  0  0  0  0  0  0  0  0  0
   13.3095    7.2079    1.2366 C   0  0  0  0  0  0  0  0  0  0  0  0
   13.8555    8.3846    1.6688 C   0  0  0  0  0  0  0  0  0  0  0  0
   14.3708    8.5519    2.9162 F   0  0  0  0  0  0  0  0  0  0  0  0
   13.8968    9.4711    0.8145 C   0  0  0  0  0  0  0  0  0  0  0  0
   14.4421   10.6487    1.2444 F   0  0  0  0  0  0  0  0  0  0  0  0
   13.3867    9.3496   -0.4591 C   0  0  0  0  0  0  0  0  0  0  0  0
   12.3794    6.1743   -0.3636 H   0  0  0  0  0  0  0  0  0  0  0  0
   13.2712    6.3428    1.9022 H   0  0  0  0  0  0  0  0  0  0  0  0
   13.4239   10.2043   -1.1186 H   0  0  0  0  0  0  0  0  0  0  0  0
  2  1  2  0
  3  2  1  0
  4  3  2  0
  4  5  1  0
  5  6  2  0
  6  1  1  0
  2  7  1  0
  3  8  1  0
  5  9  1  0
 10 11  2  0
 11 12  1  0
 12 13  2  0
 13 14  1  0
 13 15  1  0
 15 16  1  0
 15 17  2  0
 17 10  1  0
 11 18  1  0
 12 19  1  0
 17 20  1  0
  1 10  1  0
M  END
>  <Score>  (1) 
-7.46408

$$$$

     RDKit          3D

 20 21  0  0  0  0  0  0  0  0999 V2000
   12.3031    8.1188   -2.2997 C   0  0  0  0  0  0  0  0  0  0  0  0
   12.0230    6.8913   -2.9097 C   0  0  0  0  0  0  0  0  0  0  0  0
   11.5230    6.8987   -4.2287 C   0  0  0  0  0  0  0  0  0  0  0  0
   11.3417    8.1044   -4.8329 N   0  0  0  0  0  0  0  0  0  0  0  0
   11.6250    9.2799   -4.2088 C   0  0  0  0  0  0  0  0  0  0  0  0
   12.0993    9.2778   -2.9583 N   0  0  0  0  0  0  0  0  0  0  0  0
   12.1706    5.9604   -2.4232 H   0  0  0  0  0  0  0  0  0  0  0  0
   11.2995    5.9731   -4.7210 H   0  0  0  0  0  0  0  0  0  0  0  0
   11.4804   10.2354   -4.6902 H   0  0  0  0  0  0  0  0  0  0  0  0
   12.8211    8.1895   -0.9412 C   0  0  0  0  0  0  0  0  0  0  0  0
   14.1416    8.4850   -0.6740 C   0  0  0  0  0  0  0  0  0  0  0  0
   14.5740    8.5373    0.6492 C   0  0  0  0  0  0  0  0  0  0  0  0
   15.6035    8.7664    0.8915 H   0  0  0  0  0  0  0  0  0  0  0  0
   13.7190    8.3015    1.7109 C   0  0  0  0  0  0  0  0  0  0  0  0
   12.3949    8.0052    1.4429 C   0  0  0  0  0  0  0  0  0  0  0  0
   11.5403    7.7708    2.4675 F   0  0  0  0  0  0  0  0  0  0  0  0
   11.9814    7.9567    0.1380 C   0  0  0  0  0  0  0  0  0  0  0  0
   14.8608    8.6789   -1.4451 H   0  0  0  0  0  0  0  0  0  0  0  0
   14.0250    8.3352    2.7422 H   0  0  0  0  0  0  0  0  0  0  0  0
   10.9619    7.7285   -0.0672 H   0  0  0  0  0  0  0  0  0  0  0  0
  2  1  2  0
  3  2  1  0
  4  3  2  0
  4  5  1  0
  5  6  2  0
  6  1  1  0
  2  7  1  0
  3  8  1  0
  5  9  1  0
 10 11  2  0
 11 12  1  0
 12 13  1  0
 12 14  2  0
 14 15  1  0
 15 16  1  0
 15 17  2  0
 17 10  1  0
 11 18  1  0
 14 19  1  0
 17 20  1  0
  1 10  1  0
M  END
>  <Score>  (1) 
-7.43971

$$$$

     RDKit          3D

 28 30  0  0  0  0  0  0  0  0999 V2000
   12.3021    8.1208   -2.3024 C   0  0  0  0  0  0  0  0  0  0  0  0
   12.0220    6.8854   -2.9115 C   0  0  0  0  0  0  0  0  0  0  0  0
   11.5238    6.8985   -4.2265 C   0  0  0  0  0  0  0  0  0  0  0  0
   11.3418    8.1044   -4.8326 N   0  0  0  0  0  0  0  0  0  0  0  0
   11.6257    9.2793   -4.2070 C   0  0  0  0  0  0  0  0  0  0  0  0
   12.0996    9.2826   -2.9580 N   0  0  0  0  0  0  0  0  0  0  0  0
   12.6870    8.0981   -1.2853 H   0  0  0  0  0  0  0  0  0  0  0  0
   12.1814    5.9593   -2.3945 H   0  0  0  0  0  0  0  0  0  0  0  0
   11.2973    5.9681   -4.7264 H   0  0  0  0  0  0  0  0  0  0  0  0
   11.4059   10.4949   -4.9137 N   0  0  0  0  0  0  0  0  0  0  0  0
   12.0696   10.7938   -6.1384 C   0  0  0  0  0  0  0  0  0  0  0  0
   11.7314   12.1158   -6.7150 C   0  0  0  0  0  0  0  0  0  0  0  0
   11.2383   13.1825   -6.0141 C   0  0  0  0  0  0  0  0  0  0  0  0
   10.9366   14.3962   -6.6222 C   0  0  0  0  0  0  0  0  0  0  0  0
   11.1305   14.5605   -7.9770 C   0  0  0  0  0  0  0  0  0  0  0  0
   11.6277   13.5050   -8.7200 C   0  0  0  0  0  0  0  0  0  0  0  0
   11.9150   12.3205   -8.0878 C   0  0  0  0  0  0  0  0  0  0  0  0
   11.7224   13.9482  -10.0521 O   0  0  0  0  0  0  0  0  0  0  0  0
   11.7654   15.3441  -10.0146 C   0  0  0  0  0  0  0  0  0  0  0  0
   10.9353   15.6203   -8.8782 O   0  0  0  0  0  0  0  0  0  0  0  0
   10.7344   11.1838   -4.5203 H   0  0  0  0  0  0  0  0  0  0  0  0
   11.7098   10.0355   -6.8954 H   0  0  0  0  0  0  0  0  0  0  0  0
   13.1752   10.7415   -6.0639 H   0  0  0  0  0  0  0  0  0  0  0  0
   11.0730   13.1046   -4.9518 H   0  0  0  0  0  0  0  0  0  0  0  0
   10.5543   15.1988   -6.0346 H   0  0  0  0  0  0  0  0  0  0  0  0
   12.3041   11.5006   -8.6806 H   0  0  0  0  0  0  0  0  0  0  0  0
   11.4044   15.8452  -10.9160 H   0  0  0  0  0  0  0  0  0  0  0  0
   12.7899   15.6429   -9.7254 H   0  0  0  0  0  0  0  0  0  0  0  0
  2  1  2  0
  3  2  1  0
  4  3  2  0
  4  5  1  0
  5  6  2  0
  6  1  1  0
  1  7  1  0
  2  8  1  0
  3  9  1  0
 10 11  1  0
 11 12  1  0
 12 13  2  0
 13 14  1  0
 14 15  2  0
 15 16  1  0
 16 17  2  0
 16 18  1  0
 18 19  1  0
 19 20  1  0
 17 12  1  0
 20 15  1  0
 10 21  1  0
 11 22  1  0
 11 23  1  0
 13 24  1  0
 14 25  1  0
 17 26  1  0
 19 27  1  0
 19 28  1  0
  5 10  1  0
M  END
>  <Score>  (1) 
-7.93716

$$$$

     RDKit          3D

 20 21  0  0  0  0  0  0  0  0999 V2000
   12.3038    8.1158   -2.2973 C   0  0  0  0  0  0  0  0  0  0  0  0
   12.0218    6.8918   -2.9129 C   0  0  0  0  0  0  0  0  0  0  0  0
   11.5240    6.9018   -4.2262 C   0  0  0  0  0  0  0  0  0  0  0  0
   11.3416    8.1023   -4.8329 N   0  0  0  0  0  0  0  0  0  0  0  0
   11.6250    9.2789   -4.2087 C   0  0  0  0  0  0  0  0  0  0  0  0
   12.0987    9.2803   -2.9599 N   0  0  0  0  0  0  0  0  0  0  0  0
   12.1659    5.9486   -2.4342 H   0  0  0  0  0  0  0  0  0  0  0  0
   11.3086    5.9570   -4.6955 H   0  0  0  0  0  0  0  0  0  0  0  0
   11.4396   10.1707   -4.7909 H   0  0  0  0  0  0  0  0  0  0  0  0
   12.8210    8.1629   -0.9388 C   0  0  0  0  0  0  0  0  0  0  0  0
   11.9340    8.2299    0.1313 C   0  0  0  0  0  0  0  0  0  0  0  0
   12.3808    8.2764    1.4385 C   0  0  0  0  0  0  0  0  0  0  0  0
   13.7265    8.2578    1.7269 C   0  0  0  0  0  0  0  0  0  0  0  0
   14.6239    8.1918    0.6842 C   0  0  0  0  0  0  0  0  0  0  0  0
   16.5015    8.1628    1.0141 Br  0  0  0  0  0  0  0  0  0  0  0  0
   14.1539    8.1460   -0.6192 C   0  0  0  0  0  0  0  0  0  0  0  0
   10.8610    8.2448   -0.0969 H   0  0  0  0  0  0  0  0  0  0  0  0
   11.6772    8.3292    2.2816 H   0  0  0  0  0  0  0  0  0  0  0  0
   14.0464    8.2956    2.7662 H   0  0  0  0  0  0  0  0  0  0  0  0
   14.8812    8.0953   -1.3978 H   0  0  0  0  0  0  0  0  0  0  0  0
  2  1  2  0
  3  2  1  0
  4  3  2  0
  4  5  1  0
  5  6  2  0
  6  1  1  0
  2  7  1  0
  3  8  1  0
  5  9  1  0
 10 11  2  0
 11 12  1  0
 12 13  2  0
 13 14  1  0
 14 15  1  0
 14 16  2  0
 16 10  1  0
 11 17  1  0
 12 18  1  0
 13 19  1  0
 16 20  1  0
  1 10  1  0
M  END
>  <Score>  (1) 
-7.42021

$$$$

     RDKit          3D

 24 26  0  0  0  0  0  0  0  0999 V2000
   12.3067    8.1388   -2.2922 C   0  0  0  0  0  0  0  0  0  0  0  0
   12.0194    6.8916   -2.9191 C   0  0  0  0  0  0  0  0  0  0  0  0
   11.5254    6.8987   -4.2224 C   0  0  0  0  0  0  0  0  0  0  0  0
   11.3398    8.1099   -4.8383 N   0  0  0  0  0  0  0  0  0  0  0  0
   11.6250    9.2777   -4.2085 C   0  0  0  0  0  0  0  0  0  0  0  0
   12.0986    9.2542   -2.9574 N   0  0  0  0  0  0  0  0  0  0  0  0
   12.1837    5.9934   -2.3922 H   0  0  0  0  0  0  0  0  0  0  0  0
   11.3042    5.9736   -4.7089 H   0  0  0  0  0  0  0  0  0  0  0  0
   11.4470   10.1787   -4.7721 H   0  0  0  0  0  0  0  0  0  0  0  0
   12.8155    8.0691   -0.9435 C   0  0  0  0  0  0  0  0  0  0  0  0
   14.1479    8.3039   -0.7242 N   0  0  0  0  0  0  0  0  0  0  0  0
   14.7390    8.2701    0.4687 C   0  0  0  0  0  0  0  0  0  0  0  0
   14.0164    7.9898    1.5649 N   0  0  0  0  0  0  0  0  0  0  0  0
   12.6890    7.7443    1.4379 C   0  0  0  0  0  0  0  0  0  0  0  0
   11.9667    7.4587    2.5765 C   0  0  0  0  0  0  0  0  0  0  0  0
   10.6133    7.2023    2.4954 C   0  0  0  0  0  0  0  0  0  0  0  0
   10.0368    7.2449    1.2562 C   0  0  0  0  0  0  0  0  0  0  0  0
    8.9597    7.0469    1.1432 H   0  0  0  0  0  0  0  0  0  0  0  0
   10.7478    7.5313    0.0937 C   0  0  0  0  0  0  0  0  0  0  0  0
   12.0920    7.7849    0.1819 C   0  0  0  0  0  0  0  0  0  0  0  0
   15.7965    8.4590    0.6222 H   0  0  0  0  0  0  0  0  0  0  0  0
   12.4649    7.4364    3.5327 H   0  0  0  0  0  0  0  0  0  0  0  0
   10.0059    6.9734    3.3628 H   0  0  0  0  0  0  0  0  0  0  0  0
   10.2378    7.5485   -0.8412 H   0  0  0  0  0  0  0  0  0  0  0  0
  2  1  2  0
  3  2  1  0
  4  3  2  0
  4  5  1  0
  5  6  2  0
  6  1  1  0
  2  7  1  0
  3  8  1  0
  5  9  1  0
 10 11  2  0
 11 12  1  0
 12 13  2  0
 13 14  1  0
 14 15  2  0
 15 16  1  0
 16 17  2  0
 17 18  1  0
 17 19  1  0
 19 20  2  0
 20 10  1  0
 20 14  1  0
 12 21  1  0
 15 22  1  0
 16 23  1  0
 19 24  1  0
  1 10  1  0
M  END
>  <Score>  (1) 
-7.38612

$$$$

     RDKit          3D

 20 21  0  0  0  0  0  0  0  0999 V2000
   12.3022    8.1186   -2.3019 C   0  0  0  0  0  0  0  0  0  0  0  0
   12.0235    6.8903   -2.9081 C   0  0  0  0  0  0  0  0  0  0  0  0
   11.5224    6.9003   -4.2303 C   0  0  0  0  0  0  0  0  0  0  0  0
   11.3423    8.1026   -4.8309 N   0  0  0  0  0  0  0  0  0  0  0  0
   11.6253    9.2806   -4.2081 C   0  0  0  0  0  0  0  0  0  0  0  0
   12.0991    9.2785   -2.9586 N   0  0  0  0  0  0  0  0  0  0  0  0
   12.1731    5.9643   -2.4170 H   0  0  0  0  0  0  0  0  0  0  0  0
   11.2942    5.9837   -4.7362 H   0  0  0  0  0  0  0  0  0  0  0  0
   11.4429   10.1816   -4.7834 H   0  0  0  0  0  0  0  0  0  0  0  0
   12.8264    8.1898   -0.9274 C   0  0  0  0  0  0  0  0  0  0  0  0
   11.9598    8.2679    0.1469 C   0  0  0  0  0  0  0  0  0  0  0  0
   12.3936    8.3365    1.4510 C   0  0  0  0  0  0  0  0  0  0  0  0
   11.6719    8.3972    2.2738 H   0  0  0  0  0  0  0  0  0  0  0  0
   13.7410    8.3296    1.7379 C   0  0  0  0  0  0  0  0  0  0  0  0
   14.6148    8.2528    0.6879 C   0  0  0  0  0  0  0  0  0  0  0  0
   15.6774    8.2468    0.9028 H   0  0  0  0  0  0  0  0  0  0  0  0
   14.1718    8.1831   -0.6384 C   0  0  0  0  0  0  0  0  0  0  0  0
   10.8948    8.2763   -0.0276 H   0  0  0  0  0  0  0  0  0  0  0  0
   14.0451    8.3851    2.7781 H   0  0  0  0  0  0  0  0  0  0  0  0
   14.9074    8.1241   -1.4263 H   0  0  0  0  0  0  0  0  0  0  0  0
  2  1  2  0
  3  2  1  0
  4  3  2  0
  4  5  1  0
  5  6  2  0
  6  1  1  0
  2  7  1  0
  3  8  1  0
  5  9  1  0
 10 11  2  0
 11 12  1  0
 12 13  1  0
 12 14  2  0
 14 15  1  0
 15 16  1  0
 15 17  2  0
 17 10  1  0
 11 18  1  0
 14 19  1  0
 17 20  1  0
  1 10  1  0
M  END
>  <Score>  (1) 
-7.34886

$$$$

     RDKit          3D

 24 25  0  0  0  0  0  0  0  0999 V2000
   12.3029    8.1268   -2.3009 C   0  0  0  0  0  0  0  0  0  0  0  0
   12.0206    6.8833   -2.9152 C   0  0  0  0  0  0  0  0  0  0  0  0
   11.5247    6.8974   -4.2241 C   0  0  0  0  0  0  0  0  0  0  0  0
   11.3422    8.1082   -4.8320 N   0  0  0  0  0  0  0  0  0  0  0  0
   11.6233    9.2773   -4.2131 C   0  0  0  0  0  0  0  0  0  0  0  0
   12.1014    9.2779   -2.9527 N   0  0  0  0  0  0  0  0  0  0  0  0
   12.1802    5.9645   -2.3983 H   0  0  0  0  0  0  0  0  0  0  0  0
   11.3045    5.9688   -4.7074 H   0  0  0  0  0  0  0  0  0  0  0  0
   11.4527   10.2050   -4.7599 H   0  0  0  0  0  0  0  0  0  0  0  0
   12.7937    8.1097   -1.0051 O   0  0  0  0  0  0  0  0  0  0  0  0
   13.5565    7.0984   -0.4701 C   0  0  0  0  0  0  0  0  0  0  0  0
   14.8533    7.3476   -0.0009 C   0  0  0  0  0  0  0  0  0  0  0  0
   15.6515    6.3645    0.5423 C   0  0  0  0  0  0  0  0  0  0  0  0
   15.1208    5.0927    0.6122 C   0  0  0  0  0  0  0  0  0  0  0  0
   13.8441    4.8379    0.1525 C   0  0  0  0  0  0  0  0  0  0  0  0
   13.0417    5.8207   -0.3924 C   0  0  0  0  0  0  0  0  0  0  0  0
   11.6611    5.4725   -0.8681 C   0  0  0  0  0  0  0  0  0  0  0  0
   15.2713    8.3455   -0.0552 H   0  0  0  0  0  0  0  0  0  0  0  0
   16.6531    6.5607    0.9038 H   0  0  0  0  0  0  0  0  0  0  0  0
   15.7064    4.2849    1.0300 H   0  0  0  0  0  0  0  0  0  0  0  0
   13.4096    3.8328    0.2016 H   0  0  0  0  0  0  0  0  0  0  0  0
   11.6806    4.8513   -1.7844 H   0  0  0  0  0  0  0  0  0  0  0  0
   11.0126    6.3516   -0.9536 H   0  0  0  0  0  0  0  0  0  0  0  0
   11.1571    4.8146   -0.0990 H   0  0  0  0  0  0  0  0  0  0  0  0
  2  1  2  0
  3  2  1  0
  4  3  2  0
  4  5  1  0
  5  6  2  0
  6  1  1  0
  2  7  1  0
  3  8  1  0
  5  9  1  0
 10 11  1  0
 11 12  2  0
 12 13  1  0
 13 14  2  0
 14 15  1  0
 15 16  2  0
 16 17  1  0
 16 11  1  0
 12 18  1  0
 13 19  1  0
 14 20  1  0
 15 21  1  0
 17 22  1  0
 17 23  1  0
 17 24  1  0
  1 10  1  0
M  END
>  <Score>  (1) 
-7.34177

$$$$

     RDKit          3D

 23 24  0  0  0  0  0  0  0  0999 V2000
   12.3024    8.1255   -2.3020 C   0  0  0  0  0  0  0  0  0  0  0  0
   12.0213    6.8839   -2.9134 C   0  0  0  0  0  0  0  0  0  0  0  0
   11.5244    6.8972   -4.2247 C   0  0  0  0  0  0  0  0  0  0  0  0
   11.3423    8.1093   -4.8318 N   0  0  0  0  0  0  0  0  0  0  0  0
   11.6230    9.2766   -4.2138 C   0  0  0  0  0  0  0  0  0  0  0  0
   12.1016    9.2786   -2.9522 N   0  0  0  0  0  0  0  0  0  0  0  0
   12.1865    5.9560   -2.3808 H   0  0  0  0  0  0  0  0  0  0  0  0
   11.2949    5.9728   -4.7332 H   0  0  0  0  0  0  0  0  0  0  0  0
   11.4627   10.2180   -4.7350 H   0  0  0  0  0  0  0  0  0  0  0  0
   12.8246    8.0928   -0.9218 C   0  0  0  0  0  0  0  0  0  0  0  0
   13.6120    6.8810   -0.6335 C   0  0  0  0  0  0  0  0  0  0  0  0
   13.7930    5.9302   -1.6027 C   0  0  0  0  0  0  0  0  0  0  0  0
   13.2759    6.0446   -2.8416 F   0  0  0  0  0  0  0  0  0  0  0  0
   14.5490    4.7930   -1.2853 C   0  0  0  0  0  0  0  0  0  0  0  0
   15.0869    4.6442   -0.0420 C   0  0  0  0  0  0  0  0  0  0  0  0
   14.9121    5.5955    0.9452 C   0  0  0  0  0  0  0  0  0  0  0  0
   14.1589    6.7193    0.6143 C   0  0  0  0  0  0  0  0  0  0  0  0
   13.9908    7.6529    1.5927 F   0  0  0  0  0  0  0  0  0  0  0  0
   13.5097    8.9672   -0.7190 H   0  0  0  0  0  0  0  0  0  0  0  0
   12.0179    8.1908   -0.1603 H   0  0  0  0  0  0  0  0  0  0  0  0
   14.7083    4.0339   -2.0185 H   0  0  0  0  0  0  0  0  0  0  0  0
   15.6692    3.7600    0.1898 H   0  0  0  0  0  0  0  0  0  0  0  0
   15.3272    5.5005    1.9348 H   0  0  0  0  0  0  0  0  0  0  0  0
  2  1  2  0
  3  2  1  0
  4  3  2  0
  4  5  1  0
  5  6  2  0
  6  1  1  0
  2  7  1  0
  3  8  1  0
  5  9  1  0
 10 11  1  0
 11 12  2  0
 12 13  1  0
 12 14  1  0
 14 15  2  0
 15 16  1  0
 16 17  2  0
 17 18  1  0
 17 11  1  0
 10 19  1  0
 10 20  1  0
 14 21  1  0
 15 22  1  0
 16 23  1  0
  1 10  1  0
M  END
>  <Score>  (1) 
-7.33549

$$$$

     RDKit          3D

 19 20  0  0  0  0  0  0  0  0999 V2000
   12.3021    8.1180   -2.3022 C   0  0  0  0  0  0  0  0  0  0  0  0
   12.0238    6.8893   -2.9073 C   0  0  0  0  0  0  0  0  0  0  0  0
   11.5226    6.9011   -4.2301 C   0  0  0  0  0  0  0  0  0  0  0  0
   11.3419    8.1023   -4.8322 N   0  0  0  0  0  0  0  0  0  0  0  0
   11.6250    9.2804   -4.2089 C   0  0  0  0  0  0  0  0  0  0  0  0
   12.0997    9.2798   -2.9574 N   0  0  0  0  0  0  0  0  0  0  0  0
   12.1742    5.9640   -2.4140 H   0  0  0  0  0  0  0  0  0  0  0  0
   11.2929    5.9814   -4.7392 H   0  0  0  0  0  0  0  0  0  0  0  0
   11.4430   10.1680   -4.7816 H   0  0  0  0  0  0  0  0  0  0  0  0
   12.8239    8.1871   -0.9336 C   0  0  0  0  0  0  0  0  0  0  0  0
   12.3181    7.4421    0.1023 C   0  0  0  0  0  0  0  0  0  0  0  0
   12.8710    7.5679    1.3694 C   0  0  0  0  0  0  0  0  0  0  0  0
   13.9207    8.4163    1.6518 C   0  0  0  0  0  0  0  0  0  0  0  0
   14.4005    9.1365    0.6222 N   0  0  0  0  0  0  0  0  0  0  0  0
   13.8783    9.0283   -0.6117 C   0  0  0  0  0  0  0  0  0  0  0  0
   14.3922    9.7732   -1.6218 F   0  0  0  0  0  0  0  0  0  0  0  0
   11.5020    6.7624   -0.0472 H   0  0  0  0  0  0  0  0  0  0  0  0
   12.4737    6.9755    2.2076 H   0  0  0  0  0  0  0  0  0  0  0  0
   14.3309    8.4897    2.6613 H   0  0  0  0  0  0  0  0  0  0  0  0
  2  1  2  0
  3  2  1  0
  4  3  2  0
  4  5  1  0
  5  6  2  0
  6  1  1  0
  2  7  1  0
  3  8  1  0
  5  9  1  0
 10 11  2  0
 11 12  1  0
 12 13  2  0
 13 14  1  0
 14 15  2  0
 15 16  1  0
 15 10  1  0
 11 17  1  0
 12 18  1  0
 13 19  1  0
  1 10  1  0
M  END
>  <Score>  (1) 
-7.28748

$$$$

     RDKit          3D

 24 25  0  0  0  0  0  0  0  0999 V2000
   12.3022    8.1149   -2.3014 C   0  0  0  0  0  0  0  0  0  0  0  0
   12.0228    6.8926   -2.9103 C   0  0  0  0  0  0  0  0  0  0  0  0
   11.5237    6.8969   -4.2267 C   0  0  0  0  0  0  0  0  0  0  0  0
   11.3425    8.1067   -4.8309 N   0  0  0  0  0  0  0  0  0  0  0  0
   11.6247    9.2791   -4.2095 C   0  0  0  0  0  0  0  0  0  0  0  0
   12.0991    9.2808   -2.9591 N   0  0  0  0  0  0  0  0  0  0  0  0
   12.1772    5.9553   -2.4051 H   0  0  0  0  0  0  0  0  0  0  0  0
   11.2974    5.9689   -4.7262 H   0  0  0  0  0  0  0  0  0  0  0  0
   11.4420   10.1770   -4.7852 H   0  0  0  0  0  0  0  0  0  0  0  0
   12.8247    8.1828   -0.9312 C   0  0  0  0  0  0  0  0  0  0  0  0
   12.0325    8.2600    0.1803 C   0  0  0  0  0  0  0  0  0  0  0  0
   12.5334    8.3238    1.4697 C   0  0  0  0  0  0  0  0  0  0  0  0
   13.8914    8.3113    1.6865 C   0  0  0  0  0  0  0  0  0  0  0  0
   14.3376    8.3588    2.6697 H   0  0  0  0  0  0  0  0  0  0  0  0
   14.7033    8.2338    0.5755 C   0  0  0  0  0  0  0  0  0  0  0  0
   16.0969    8.2156    0.7011 O   0  0  0  0  0  0  0  0  0  0  0  0
   16.7703    8.2721    1.9178 C   0  0  0  0  0  0  0  0  0  0  0  0
   14.1963    8.1708   -0.7014 C   0  0  0  0  0  0  0  0  0  0  0  0
   10.9582    8.2741    0.0844 H   0  0  0  0  0  0  0  0  0  0  0  0
   11.8788    8.3836    2.3175 H   0  0  0  0  0  0  0  0  0  0  0  0
   17.8157    8.6172    1.7191 H   0  0  0  0  0  0  0  0  0  0  0  0
   16.3062    8.9235    2.6685 H   0  0  0  0  0  0  0  0  0  0  0  0
   16.8681    7.2666    2.3810 H   0  0  0  0  0  0  0  0  0  0  0  0
   14.8343    8.1102   -1.5700 H   0  0  0  0  0  0  0  0  0  0  0  0
  2  1  2  0
  3  2  1  0
  4  3  2  0
  4  5  1  0
  5  6  2  0
  6  1  1  0
  2  7  1  0
  3  8  1  0
  5  9  1  0
 10 11  2  0
 11 12  1  0
 12 13  2  0
 13 14  1  0
 13 15  1  0
 15 16  1  0
 16 17  1  0
 15 18  2  0
 18 10  1  0
 11 19  1  0
 12 20  1  0
 17 21  1  0
 17 22  1  0
 17 23  1  0
 18 24  1  0
  1 10  1  0
M  END
>  <Score>  (1) 
-7.28133

$$$$

     RDKit          3D

 26 27  0  0  0  0  0  0  0  0999 V2000
   12.3026    8.1237   -2.3015 C   0  0  0  0  0  0  0  0  0  0  0  0
   12.0214    6.8830   -2.9129 C   0  0  0  0  0  0  0  0  0  0  0  0
   11.5241    6.8983   -4.2256 C   0  0  0  0  0  0  0  0  0  0  0  0
   11.3424    8.1077   -4.8314 N   0  0  0  0  0  0  0  0  0  0  0  0
   11.6237    9.2769   -4.2121 C   0  0  0  0  0  0  0  0  0  0  0  0
   12.1009    9.2813   -2.9544 N   0  0  0  0  0  0  0  0  0  0  0  0
   12.1782    5.9594   -2.4030 H   0  0  0  0  0  0  0  0  0  0  0  0
   11.2900    5.9821   -4.7470 H   0  0  0  0  0  0  0  0  0  0  0  0
   11.4611   10.2115   -4.7385 H   0  0  0  0  0  0  0  0  0  0  0  0
   16.2174    6.5445   -0.2034 H   0  0  0  0  0  0  0  0  0  0  0  0
   16.1410    7.6145    0.1293 C   0  0  0  0  0  0  0  0  0  0  0  0
   14.6850    7.9300    0.2504 C   0  0  2  0  0  0  0  0  0  0  0  0
   14.0322    7.4739   -0.8916 O   0  0  0  0  0  0  0  0  0  0  0  0
   12.8309    8.1629   -0.9127 C   0  0  1  0  0  0  0  0  0  0  0  0
   13.2285    9.5818   -0.5837 C   0  0  1  0  0  0  0  0  0  0  0  0
   12.1911   10.2964   -0.0126 O   0  0  0  0  0  0  0  0  0  0  0  0
   14.3876    9.3939    0.3697 C   0  0  2  0  0  0  0  0  0  0  0  0
   15.4248   10.2071   -0.0198 O   0  0  0  0  0  0  0  0  0  0  0  0
   16.6681    8.2075   -0.6291 H   0  0  0  0  0  0  0  0  0  0  0  0
   16.6216    7.6406    1.1330 H   0  0  0  0  0  0  0  0  0  0  0  0
   14.2864    7.3938    1.1364 H   0  0  0  0  0  0  0  0  0  0  0  0
   12.1283    7.7297   -0.1918 H   0  0  0  0  0  0  0  0  0  0  0  0
   13.5801   10.0665   -1.5223 H   0  0  0  0  0  0  0  0  0  0  0  0
   11.3744    9.7756    0.1150 H   0  0  0  0  0  0  0  0  0  0  0  0
   14.0513    9.6494    1.3957 H   0  0  0  0  0  0  0  0  0  0  0  0
   16.2975    9.9641    0.3643 H   0  0  0  0  0  0  0  0  0  0  0  0
  2  1  2  0
  3  2  1  0
  4  3  2  0
  4  5  1  0
  5  6  2  0
  6  1  1  0
  2  7  1  0
  3  8  1  0
  5  9  1  0
 10 11  1  0
 11 12  1  0
 12 13  1  0
 13 14  1  0
 14 15  1  0
 15 16  1  0
 15 17  1  0
 17 18  1  0
 17 12  1  0
 11 19  1  0
 11 20  1  0
 12 21  1  1
 14 22  1  1
 15 23  1  6
 16 24  1  0
 17 25  1  1
 18 26  1  0
  1 14  1  0
M  END
>  <Score>  (1) 
-7.25038

$$$$

     RDKit          3D

 20 21  0  0  0  0  0  0  0  0999 V2000
   12.3024    8.1189   -2.3014 C   0  0  0  0  0  0  0  0  0  0  0  0
   12.0221    6.8929   -2.9123 C   0  0  0  0  0  0  0  0  0  0  0  0
   11.5239    6.8960   -4.2259 C   0  0  0  0  0  0  0  0  0  0  0  0
   11.3425    8.1071   -4.8309 N   0  0  0  0  0  0  0  0  0  0  0  0
   11.6248    9.2792   -4.2092 C   0  0  0  0  0  0  0  0  0  0  0  0
   12.0992    9.2769   -2.9582 N   0  0  0  0  0  0  0  0  0  0  0  0
   12.1722    5.9479   -2.4176 H   0  0  0  0  0  0  0  0  0  0  0  0
   11.3000    5.9745   -4.7200 H   0  0  0  0  0  0  0  0  0  0  0  0
   11.4409   10.1791   -4.7882 H   0  0  0  0  0  0  0  0  0  0  0  0
   12.8232    8.1771   -0.9345 C   0  0  0  0  0  0  0  0  0  0  0  0
   12.1517    7.6701    0.1579 C   0  0  0  0  0  0  0  0  0  0  0  0
   12.6782    7.7426    1.4494 C   0  0  0  0  0  0  0  0  0  0  0  0
   13.8930    8.3252    1.6856 C   0  0  0  0  0  0  0  0  0  0  0  0
   14.5702    8.4251    3.3023 Cl  0  0  0  0  0  0  0  0  0  0  0  0
   14.5726    8.8354    0.6000 C   0  0  0  0  0  0  0  0  0  0  0  0
   14.0603    8.7679   -0.6776 C   0  0  0  0  0  0  0  0  0  0  0  0
   14.9307    9.4182   -2.0473 Cl  0  0  0  0  0  0  0  0  0  0  0  0
   11.2010    7.2053    0.0311 H   0  0  0  0  0  0  0  0  0  0  0  0
   12.1257    7.3331    2.2971 H   0  0  0  0  0  0  0  0  0  0  0  0
   15.5332    9.2949    0.7942 H   0  0  0  0  0  0  0  0  0  0  0  0
  2  1  2  0
  3  2  1  0
  4  3  2  0
  4  5  1  0
  5  6  2  0
  6  1  1  0
  2  7  1  0
  3  8  1  0
  5  9  1  0
 10 11  2  0
 11 12  1  0
 12 13  2  0
 13 14  1  0
 13 15  1  0
 15 16  2  0
 16 17  1  0
 16 10  1  0
 11 18  1  0
 12 19  1  0
 15 20  1  0
  1 10  1  0
M  END
>  <Score>  (1) 
-7.24622

$$$$

     RDKit          3D

 23 25  0  0  0  0  0  0  0  0999 V2000
   12.3036    8.1167   -2.2979 C   0  0  0  0  0  0  0  0  0  0  0  0
   12.0213    6.8985   -2.9150 C   0  0  0  0  0  0  0  0  0  0  0  0
   11.5256    6.9012   -4.2220 C   0  0  0  0  0  0  0  0  0  0  0  0
   11.3411    8.1073   -4.8347 N   0  0  0  0  0  0  0  0  0  0  0  0
   11.6245    9.2747   -4.2095 C   0  0  0  0  0  0  0  0  0  0  0  0
   12.0988    9.2726   -2.9588 N   0  0  0  0  0  0  0  0  0  0  0  0
   12.1528    5.9404   -2.4681 H   0  0  0  0  0  0  0  0  0  0  0  0
   11.2986    5.9729   -4.7234 H   0  0  0  0  0  0  0  0  0  0  0  0
   11.4775   10.2259   -4.6967 H   0  0  0  0  0  0  0  0  0  0  0  0
   12.8229    8.1348   -0.9308 C   0  0  0  0  0  0  0  0  0  0  0  0
   12.0363    7.8869    0.1635 C   0  0  0  0  0  0  0  0  0  0  0  0
   12.5310    7.9037    1.4733 C   0  0  0  0  0  0  0  0  0  0  0  0
   13.8614    8.1819    1.6495 C   0  0  0  0  0  0  0  0  0  0  0  0
   14.7031    8.4390    0.5969 C   0  0  0  0  0  0  0  0  0  0  0  0
   16.0151    8.7281    0.5578 N   0  0  0  0  0  0  0  0  0  0  0  0
   16.3294    8.8844   -0.7007 N   0  0  0  0  0  0  0  0  0  0  0  0
   15.2434    8.7023   -1.4907 C   0  0  0  0  0  0  0  0  0  0  0  0
   14.1669    8.4111   -0.6840 C   0  0  0  0  0  0  0  0  0  0  0  0
   10.9711    7.6649    0.0125 H   0  0  0  0  0  0  0  0  0  0  0  0
   11.8606    7.7006    2.2890 H   0  0  0  0  0  0  0  0  0  0  0  0
   14.2523    8.1970    2.6585 H   0  0  0  0  0  0  0  0  0  0  0  0
   16.6943    8.8212    1.3510 H   0  0  0  0  0  0  0  0  0  0  0  0
   15.2206    8.7717   -2.5604 H   0  0  0  0  0  0  0  0  0  0  0  0
  2  1  2  0
  3  2  1  0
  4  3  2  0
  4  5  1  0
  5  6  2  0
  6  1  1  0
  2  7  1  0
  3  8  1  0
  5  9  1  0
 10 11  2  0
 11 12  1  0
 12 13  2  0
 13 14  1  0
 14 15  1  0
 15 16  1  0
 16 17  2  0
 17 18  1  0
 18 10  1  0
 18 14  2  0
 11 19  1  0
 12 20  1  0
 13 21  1  0
 15 22  1  0
 17 23  1  0
  1 10  1  0
M  END
>  <Score>  (1) 
-7.20883

$$$$

     RDKit          3D

 26 28  0  0  0  0  0  0  0  0999 V2000
   12.3027    8.1238   -2.3013 C   0  0  0  0  0  0  0  0  0  0  0  0
   12.0212    6.8827   -2.9134 C   0  0  0  0  0  0  0  0  0  0  0  0
   11.5244    6.8975   -4.2249 C   0  0  0  0  0  0  0  0  0  0  0  0
   11.3426    8.1095   -4.8309 N   0  0  0  0  0  0  0  0  0  0  0  0
   11.6234    9.2765   -4.2127 C   0  0  0  0  0  0  0  0  0  0  0  0
   12.1007    9.2810   -2.9549 N   0  0  0  0  0  0  0  0  0  0  0  0
   12.6850    8.1209   -1.2929 H   0  0  0  0  0  0  0  0  0  0  0  0
   12.1840    5.9556   -2.3873 H   0  0  0  0  0  0  0  0  0  0  0  0
   11.3015    5.9693   -4.7154 H   0  0  0  0  0  0  0  0  0  0  0  0
   11.4004   10.5266   -4.9316 C   0  0  0  0  0  0  0  0  0  0  0  0
   12.0442   10.7806   -6.0833 N   0  0  0  0  0  0  0  0  0  0  0  0
   11.8461   11.9316   -6.7558 C   0  0  0  0  0  0  0  0  0  0  0  0
   10.9637   12.8464   -6.2321 C   0  0  0  0  0  0  0  0  0  0  0  0
   10.2945   12.5912   -5.0426 C   0  0  0  0  0  0  0  0  0  0  0  0
    9.4749   13.4465   -4.5612 O   0  0  0  0  0  0  0  0  0  0  0  0
   10.5302   11.4330   -4.4191 N   0  0  0  0  0  0  0  0  0  0  0  0
   10.9236   14.0140   -7.1394 C   0  0  0  0  0  0  0  0  0  0  0  0
   11.2746   13.4007   -8.4745 C   0  0  0  0  0  0  0  0  0  0  0  0
   12.4174   12.4670   -8.0459 C   0  0  0  0  0  0  0  0  0  0  0  0
   10.0607   11.1873   -3.5288 H   0  0  0  0  0  0  0  0  0  0  0  0
   11.6961   14.7250   -6.8002 H   0  0  0  0  0  0  0  0  0  0  0  0
    9.9079   14.4749   -7.1667 H   0  0  0  0  0  0  0  0  0  0  0  0
   11.6220   14.1371   -9.2166 H   0  0  0  0  0  0  0  0  0  0  0  0
   10.3927   12.8170   -8.8101 H   0  0  0  0  0  0  0  0  0  0  0  0
   12.5625   11.6555   -8.7793 H   0  0  0  0  0  0  0  0  0  0  0  0
   13.2999   13.0860   -7.8640 H   0  0  0  0  0  0  0  0  0  0  0  0
  2  1  2  0
  3  2  1  0
  4  3  2  0
  4  5  1  0
  5  6  2  0
  6  1  1  0
  1  7  1  0
  2  8  1  0
  3  9  1  0
 10 11  2  0
 11 12  1  0
 12 13  2  0
 13 14  1  0
 14 15  2  0
 14 16  1  0
 13 17  1  0
 17 18  1  0
 18 19  1  0
 16 10  1  0
 19 12  1  0
 16 20  1  0
 17 21  1  0
 17 22  1  0
 18 23  1  0
 18 24  1  0
 19 25  1  0
 19 26  1  0
  5 10  1  0
M  END
>  <Score>  (1) 
-7.93232

$$$$

     RDKit          3D

 22 23  0  0  0  0  0  0  0  0999 V2000
   12.3012    8.1165   -2.3045 C   0  0  0  0  0  0  0  0  0  0  0  0
   12.0221    6.8939   -2.9123 C   0  0  0  0  0  0  0  0  0  0  0  0
   11.5252    6.8934   -4.2223 C   0  0  0  0  0  0  0  0  0  0  0  0
   11.3421    8.1120   -4.8325 N   0  0  0  0  0  0  0  0  0  0  0  0
   11.6237    9.2759   -4.2119 C   0  0  0  0  0  0  0  0  0  0  0  0
   12.1007    9.2793   -2.9546 N   0  0  0  0  0  0  0  0  0  0  0  0
   12.1559    5.9443   -2.4603 H   0  0  0  0  0  0  0  0  0  0  0  0
   11.2932    5.9697   -4.7375 H   0  0  0  0  0  0  0  0  0  0  0  0
   11.4778   10.2311   -4.6964 H   0  0  0  0  0  0  0  0  0  0  0  0
   12.8214    8.1453   -0.9360 C   0  0  0  0  0  0  0  0  0  0  0  0
   12.4622    7.1224   -0.0489 C   0  0  0  0  0  0  0  0  0  0  0  0
   12.9239    7.1046    1.2449 C   0  0  0  0  0  0  0  0  0  0  0  0
   13.7634    8.0916    1.7356 C   0  0  0  0  0  0  0  0  0  0  0  0
   14.1208    9.0996    0.8703 C   0  0  0  0  0  0  0  0  0  0  0  0
   14.9777   10.1406    1.3096 N   0  0  0  0  0  0  0  0  0  0  0  0
   13.6489    9.1115   -0.4407 C   0  0  0  0  0  0  0  0  0  0  0  0
   11.8033    6.3439   -0.4267 H   0  0  0  0  0  0  0  0  0  0  0  0
   12.6149    6.2916    1.8861 H   0  0  0  0  0  0  0  0  0  0  0  0
   14.1163    8.0593    2.7585 H   0  0  0  0  0  0  0  0  0  0  0  0
   14.6556   10.9493    1.8877 H   0  0  0  0  0  0  0  0  0  0  0  0
   15.9812   10.0904    1.0377 H   0  0  0  0  0  0  0  0  0  0  0  0
   13.9493    9.9246   -1.1052 H   0  0  0  0  0  0  0  0  0  0  0  0
  2  1  2  0
  3  2  1  0
  4  3  2  0
  4  5  1  0
  5  6  2  0
  6  1  1  0
  2  7  1  0
  3  8  1  0
  5  9  1  0
 10 11  2  0
 11 12  1  0
 12 13  2  0
 13 14  1  0
 14 15  1  0
 14 16  2  0
 16 10  1  0
 11 17  1  0
 12 18  1  0
 13 19  1  0
 15 20  1  0
 15 21  1  0
 16 22  1  0
  1 10  1  0
M  END
>  <Score>  (1) 
-7.19745

$$$$

     RDKit          3D

 20 21  0  0  0  0  0  0  0  0999 V2000
   12.3025    8.1249   -2.3018 C   0  0  0  0  0  0  0  0  0  0  0  0
   12.0210    6.8826   -2.9139 C   0  0  0  0  0  0  0  0  0  0  0  0
   11.5245    6.8974   -4.2245 C   0  0  0  0  0  0  0  0  0  0  0  0
   11.3424    8.1091   -4.8315 N   0  0  0  0  0  0  0  0  0  0  0  0
   11.6233    9.2764   -4.2131 C   0  0  0  0  0  0  0  0  0  0  0  0
   12.1013    9.2805   -2.9532 N   0  0  0  0  0  0  0  0  0  0  0  0
   12.1768    5.9588   -2.4067 H   0  0  0  0  0  0  0  0  0  0  0  0
   11.2910    5.9776   -4.7440 H   0  0  0  0  0  0  0  0  0  0  0  0
   11.4611   10.2165   -4.7390 H   0  0  0  0  0  0  0  0  0  0  0  0
   12.8097    8.1618   -0.9685 N   0  0  0  0  0  0  0  0  0  0  0  0
   11.9525    8.0089    0.0801 C   0  0  0  0  0  0  0  0  0  0  0  0
   12.3535    8.0313    1.3816 C   0  0  0  0  0  0  0  0  0  0  0  0
   13.6792    8.2148    1.6851 C   0  0  0  0  0  0  0  0  0  0  0  0
   13.9861    8.2307    2.7217 H   0  0  0  0  0  0  0  0  0  0  0  0
   14.5661    8.3721    0.6296 C   0  0  0  0  0  0  0  0  0  0  0  0
   14.0949    8.3396   -0.6707 C   0  0  0  0  0  0  0  0  0  0  0  0
   14.9191    8.4846   -1.6113 O   0  0  0  0  0  0  0  0  0  0  0  0
   10.9010    7.8640   -0.1822 H   0  0  0  0  0  0  0  0  0  0  0  0
   11.5991    7.9011    2.1490 H   0  0  0  0  0  0  0  0  0  0  0  0
   15.5999    8.5146    0.8909 H   0  0  0  0  0  0  0  0  0  0  0  0
  2  1  2  0
  3  2  1  0
  4  3  2  0
  4  5  1  0
  5  6  2  0
  6  1  1  0
  2  7  1  0
  3  8  1  0
  5  9  1  0
 10 11  1  0
 11 12  2  0
 12 13  1  0
 13 14  1  0
 13 15  2  0
 15 16  1  0
 16 17  2  0
 16 10  1  0
 11 18  1  0
 12 19  1  0
 15 20  1  0
  1 10  1  0
M  END
>  <Score>  (1) 
-7.17966

$$$$

     RDKit          3D

 22 23  0  0  0  0  0  0  0  0999 V2000
   12.3010    8.1205   -2.3065 C   0  0  0  0  0  0  0  0  0  0  0  0
   12.0211    6.8868   -2.9125 C   0  0  0  0  0  0  0  0  0  0  0  0
   11.5272    6.8979   -4.2184 C   0  0  0  0  0  0  0  0  0  0  0  0
   11.3409    8.1111   -4.8357 N   0  0  0  0  0  0  0  0  0  0  0  0
   11.6249    9.2767   -4.2082 C   0  0  0  0  0  0  0  0  0  0  0  0
   12.0999    9.2779   -2.9567 N   0  0  0  0  0  0  0  0  0  0  0  0
   12.1730    5.9505   -2.4147 H   0  0  0  0  0  0  0  0  0  0  0  0
   11.3101    5.9732   -4.7031 H   0  0  0  0  0  0  0  0  0  0  0  0
   11.4748   10.2382   -4.6994 H   0  0  0  0  0  0  0  0  0  0  0  0
   12.8139    8.1264   -0.9358 C   0  0  0  0  0  0  0  0  0  0  0  0
   14.0151    8.4963   -0.7141 O   0  0  0  0  0  0  0  0  0  0  0  0
   11.9846    7.7209    0.1788 C   0  0  0  0  0  0  0  0  0  0  0  0
   12.5041    7.1993    1.3375 C   0  0  0  0  0  0  0  0  0  0  0  0
   11.6662    6.8216    2.3945 C   0  0  0  0  0  0  0  0  0  0  0  0
   10.3084    6.9655    2.2957 C   0  0  0  0  0  0  0  0  0  0  0  0
    9.7888    7.4967    1.1140 C   0  0  0  0  0  0  0  0  0  0  0  0
   10.6139    7.8690    0.0703 C   0  0  0  0  0  0  0  0  0  0  0  0
   13.5817    7.0797    1.4297 H   0  0  0  0  0  0  0  0  0  0  0  0
   12.0914    6.4086    3.3123 H   0  0  0  0  0  0  0  0  0  0  0  0
    9.6272    6.6757    3.1092 H   0  0  0  0  0  0  0  0  0  0  0  0
    8.7081    7.5987    1.0657 H   0  0  0  0  0  0  0  0  0  0  0  0
   10.1251    8.2807   -0.8195 H   0  0  0  0  0  0  0  0  0  0  0  0
  2  1  2  0
  3  2  1  0
  4  3  2  0
  4  5  1  0
  5  6  2  0
  6  1  1  0
  2  7  1  0
  3  8  1  0
  5  9  1  0
 10 11  2  0
 10 12  1  0
 12 13  2  0
 13 14  1  0
 14 15  2  0
 15 16  1  0
 16 17  2  0
 17 12  1  0
 13 18  1  0
 14 19  1  0
 15 20  1  0
 16 21  1  0
 17 22  1  0
  1 10  1  0
M  END
>  <Score>  (1) 
-7.16598

$$$$

     RDKit          3D

 23 25  0  0  0  0  0  0  0  0999 V2000
   12.3025    8.1244   -2.3019 C   0  0  0  0  0  0  0  0  0  0  0  0
   12.0216    6.8842   -2.9126 C   0  0  0  0  0  0  0  0  0  0  0  0
   11.5241    6.8981   -4.2258 C   0  0  0  0  0  0  0  0  0  0  0  0
   11.3423    8.1076   -4.8316 N   0  0  0  0  0  0  0  0  0  0  0  0
   11.6234    9.2773   -4.2129 C   0  0  0  0  0  0  0  0  0  0  0  0
   12.1013    9.2793   -2.9531 N   0  0  0  0  0  0  0  0  0  0  0  0
   12.1821    5.9695   -2.3937 H   0  0  0  0  0  0  0  0  0  0  0  0
   11.2932    5.9786   -4.7382 H   0  0  0  0  0  0  0  0  0  0  0  0
   11.4414   10.1756   -4.7866 H   0  0  0  0  0  0  0  0  0  0  0  0
   12.8108    8.1495   -0.9642 N   0  0  0  0  0  0  0  0  0  0  0  0
   14.0779    8.3976   -0.5832 C   0  0  0  0  0  0  0  0  0  0  0  0
   14.1827    8.3359    0.7578 N   0  0  0  0  0  0  0  0  0  0  0  0
   12.9723    8.0439    1.2704 C   0  0  0  0  0  0  0  0  0  0  0  0
   12.5119    7.8630    2.5783 C   0  0  0  0  0  0  0  0  0  0  0  0
   11.1902    7.5698    2.7279 C   0  0  0  0  0  0  0  0  0  0  0  0
   10.3152    7.4495    1.6546 C   0  0  0  0  0  0  0  0  0  0  0  0
   10.7875    7.6315    0.3698 C   0  0  0  0  0  0  0  0  0  0  0  0
   12.1331    7.9320    0.1821 C   0  0  0  0  0  0  0  0  0  0  0  0
   14.8690    8.6127   -1.3046 H   0  0  0  0  0  0  0  0  0  0  0  0
   13.2366    7.9693    3.3632 H   0  0  0  0  0  0  0  0  0  0  0  0
   10.8049    7.4248    3.7216 H   0  0  0  0  0  0  0  0  0  0  0  0
    9.2691    7.2173    1.7751 H   0  0  0  0  0  0  0  0  0  0  0  0
   10.1603    7.5516   -0.5027 H   0  0  0  0  0  0  0  0  0  0  0  0
  2  1  2  0
  3  2  1  0
  4  3  2  0
  4  5  1  0
  5  6  2  0
  6  1  1  0
  2  7  1  0
  3  8  1  0
  5  9  1  0
 10 11  1  0
 11 12  2  0
 12 13  1  0
 13 14  2  0
 14 15  1  0
 15 16  2  0
 16 17  1  0
 17 18  2  0
 18 10  1  0
 18 13  1  0
 11 19  1  0
 14 20  1  0
 15 21  1  0
 16 22  1  0
 17 23  1  0
  1 10  1  0
M  END
>  <Score>  (1) 
-7.16554

$$$$

     RDKit          3D

 23 24  0  0  0  0  0  0  0  0999 V2000
   12.3024    8.1220   -2.3017 C   0  0  0  0  0  0  0  0  0  0  0  0
   12.0217    6.8841   -2.9123 C   0  0  0  0  0  0  0  0  0  0  0  0
   11.5242    6.8974   -4.2254 C   0  0  0  0  0  0  0  0  0  0  0  0
   11.3424    8.1093   -4.8315 N   0  0  0  0  0  0  0  0  0  0  0  0
   11.6234    9.2761   -4.2126 C   0  0  0  0  0  0  0  0  0  0  0  0
   12.1008    9.2820   -2.9545 N   0  0  0  0  0  0  0  0  0  0  0  0
   12.1845    5.9591   -2.3864 H   0  0  0  0  0  0  0  0  0  0  0  0
   11.2949    5.9703   -4.7330 H   0  0  0  0  0  0  0  0  0  0  0  0
   11.4487   10.1802   -4.7678 H   0  0  0  0  0  0  0  0  0  0  0  0
   12.8221    8.0449   -0.9237 C   0  0  0  0  0  0  0  0  0  0  0  0
   12.7733    9.3254   -0.2030 C   0  0  0  0  0  0  0  0  0  0  0  0
   11.6788    9.7043    0.5451 C   0  0  0  0  0  0  0  0  0  0  0  0
   11.6347   10.9069    1.2210 C   0  0  0  0  0  0  0  0  0  0  0  0
   12.6961   11.7845    1.1729 C   0  0  0  0  0  0  0  0  0  0  0  0
   13.7974   11.4250    0.4320 C   0  0  0  0  0  0  0  0  0  0  0  0
   13.8385   10.2107   -0.2489 C   0  0  0  0  0  0  0  0  0  0  0  0
   12.1722    7.3004   -0.3807 H   0  0  0  0  0  0  0  0  0  0  0  0
   13.8330    7.5959   -0.9310 H   0  0  0  0  0  0  0  0  0  0  0  0
   10.8364    9.0259    0.5932 H   0  0  0  0  0  0  0  0  0  0  0  0
   10.7442   11.1540    1.7965 H   0  0  0  0  0  0  0  0  0  0  0  0
   12.6548   12.7237    1.7043 H   0  0  0  0  0  0  0  0  0  0  0  0
   14.6234   12.1227    0.4025 H   0  0  0  0  0  0  0  0  0  0  0  0
   14.7153    9.9540   -0.8227 H   0  0  0  0  0  0  0  0  0  0  0  0
  2  1  2  0
  3  2  1  0
  4  3  2  0
  4  5  1  0
  5  6  2  0
  6  1  1  0
  2  7  1  0
  3  8  1  0
  5  9  1  0
 10 11  1  0
 11 12  2  0
 12 13  1  0
 13 14  2  0
 14 15  1  0
 15 16  2  0
 16 11  1  0
 10 17  1  0
 10 18  1  0
 12 19  1  0
 13 20  1  0
 14 21  1  0
 15 22  1  0
 16 23  1  0
  1 10  1  0
M  END
>  <Score>  (1) 
-7.16333

$$$$

     RDKit          3D

 23 24  0  0  0  0  0  0  0  0999 V2000
   12.3021    8.1209   -2.3026 C   0  0  0  0  0  0  0  0  0  0  0  0
   12.0209    6.8838   -2.9144 C   0  0  0  0  0  0  0  0  0  0  0  0
   11.5255    6.8980   -4.2221 C   0  0  0  0  0  0  0  0  0  0  0  0
   11.3421    8.1080   -4.8320 N   0  0  0  0  0  0  0  0  0  0  0  0
   11.6238    9.2776   -4.2118 C   0  0  0  0  0  0  0  0  0  0  0  0
   12.1007    9.2827   -2.9551 N   0  0  0  0  0  0  0  0  0  0  0  0
   12.1860    5.9554   -2.3821 H   0  0  0  0  0  0  0  0  0  0  0  0
   11.2951    5.9986   -4.7354 H   0  0  0  0  0  0  0  0  0  0  0  0
   11.4461   10.1819   -4.7750 H   0  0  0  0  0  0  0  0  0  0  0  0
   12.8256    8.1459   -0.9250 C   0  0  0  0  0  0  0  0  0  0  0  0
   11.7167    8.2068    0.0751 C   0  0  0  0  0  0  0  0  0  0  0  0
   10.3865    8.2342   -0.2927 C   0  0  0  0  0  0  0  0  0  0  0  0
    9.4379    8.2906    0.7099 C   0  0  0  0  0  0  0  0  0  0  0  0
    9.8053    8.3189    2.0465 C   0  0  0  0  0  0  0  0  0  0  0  0
   11.1395    8.2915    2.4220 C   0  0  0  0  0  0  0  0  0  0  0  0
   12.0760    8.2354    1.4134 C   0  0  0  0  0  0  0  0  0  0  0  0
   13.3905    8.2091    1.8036 F   0  0  0  0  0  0  0  0  0  0  0  0
   13.4910    9.0362   -0.8128 H   0  0  0  0  0  0  0  0  0  0  0  0
   13.3885    7.1935   -0.7271 H   0  0  0  0  0  0  0  0  0  0  0  0
   10.1272    8.2109   -1.3509 H   0  0  0  0  0  0  0  0  0  0  0  0
    8.4000    8.3115    0.4082 H   0  0  0  0  0  0  0  0  0  0  0  0
    9.0432    8.3632    2.8204 H   0  0  0  0  0  0  0  0  0  0  0  0
   11.4184    8.3143    3.4778 H   0  0  0  0  0  0  0  0  0  0  0  0
  2  1  2  0
  3  2  1  0
  4  3  2  0
  4  5  1  0
  5  6  2  0
  6  1  1  0
  2  7  1  0
  3  8  1  0
  5  9  1  0
 10 11  1  0
 11 12  2  0
 12 13  1  0
 13 14  2  0
 14 15  1  0
 15 16  2  0
 16 17  1  0
 16 11  1  0
 10 18  1  0
 10 19  1  0
 12 20  1  0
 13 21  1  0
 14 22  1  0
 15 23  1  0
  1 10  1  0
M  END
>  <Score>  (1) 
-7.16055

$$$$

     RDKit          3D

 26 27  0  0  0  0  0  0  0  0999 V2000
   12.3024    8.1223   -2.3017 C   0  0  0  0  0  0  0  0  0  0  0  0
   12.0221    6.8839   -2.9113 C   0  0  0  0  0  0  0  0  0  0  0  0
   11.5235    6.8993   -4.2273 C   0  0  0  0  0  0  0  0  0  0  0  0
   11.3423    8.1056   -4.8313 N   0  0  0  0  0  0  0  0  0  0  0  0
   11.6241    9.2781   -4.2110 C   0  0  0  0  0  0  0  0  0  0  0  0
   12.1005    9.2818   -2.9554 N   0  0  0  0  0  0  0  0  0  0  0  0
   12.1835    5.9510   -2.3880 H   0  0  0  0  0  0  0  0  0  0  0  0
   11.2924    5.9736   -4.7398 H   0  0  0  0  0  0  0  0  0  0  0  0
   11.4444   10.1900   -4.7802 H   0  0  0  0  0  0  0  0  0  0  0  0
   14.5020    5.2979    1.5941 H   0  0  0  0  0  0  0  0  0  0  0  0
   14.9345    5.8847    0.7782 C   0  0  0  0  0  0  0  0  0  0  0  0
   14.0734    7.1113    0.5741 C   0  0  2  0  0  0  0  0  0  0  0  0
   13.2880    6.9059   -0.5320 O   0  0  0  0  0  0  0  0  0  0  0  0
   12.8296    8.1666   -0.9165 C   0  0  1  0  0  0  0  0  0  0  0  0
   14.0351    9.0412   -0.7735 C   0  0  2  0  0  0  0  0  0  0  0  0
   14.7135    9.2704   -1.9466 O   0  0  0  0  0  0  0  0  0  0  0  0
   14.8725    8.3349    0.2681 C   0  0  1  0  0  0  0  0  0  0  0  0
   14.9844    9.0835    1.4346 O   0  0  0  0  0  0  0  0  0  0  0  0
   14.9328    5.2246   -0.1338 H   0  0  0  0  0  0  0  0  0  0  0  0
   15.9744    6.1964    0.9302 H   0  0  0  0  0  0  0  0  0  0  0  0
   13.3943    7.2602    1.4541 H   0  0  0  0  0  0  0  0  0  0  0  0
   12.0128    8.4775   -0.2095 H   0  0  0  0  0  0  0  0  0  0  0  0
   13.7391   10.0254   -0.3440 H   0  0  0  0  0  0  0  0  0  0  0  0
   15.6945    9.2542   -1.7361 H   0  0  0  0  0  0  0  0  0  0  0  0
   15.8459    8.0977   -0.1652 H   0  0  0  0  0  0  0  0  0  0  0  0
   15.9180    9.2787    1.6862 H   0  0  0  0  0  0  0  0  0  0  0  0
  2  1  2  0
  3  2  1  0
  4  3  2  0
  4  5  1  0
  5  6  2  0
  6  1  1  0
  2  7  1  0
  3  8  1  0
  5  9  1  0
 10 11  1  0
 11 12  1  0
 12 13  1  0
 13 14  1  0
 14 15  1  0
 15 16  1  0
 15 17  1  0
 17 18  1  0
 17 12  1  0
 11 19  1  0
 11 20  1  0
 12 21  1  1
 14 22  1  1
 15 23  1  1
 16 24  1  0
 17 25  1  6
 18 26  1  0
  1 14  1  0
M  END
>  <Score>  (1) 
-7.15239

$$$$

     RDKit          3D

 22 23  0  0  0  0  0  0  0  0999 V2000
   12.3039    8.1142   -2.2970 C   0  0  0  0  0  0  0  0  0  0  0  0
   12.0234    6.8954   -2.9091 C   0  0  0  0  0  0  0  0  0  0  0  0
   11.5230    6.9008   -4.2288 C   0  0  0  0  0  0  0  0  0  0  0  0
   11.3416    8.1029   -4.8331 N   0  0  0  0  0  0  0  0  0  0  0  0
   11.6247    9.2809   -4.2097 C   0  0  0  0  0  0  0  0  0  0  0  0
   12.0984    9.2768   -2.9603 N   0  0  0  0  0  0  0  0  0  0  0  0
   12.1462    5.9395   -2.4852 H   0  0  0  0  0  0  0  0  0  0  0  0
   11.2912    5.9996   -4.7458 H   0  0  0  0  0  0  0  0  0  0  0  0
   11.4423   10.1930   -4.7860 H   0  0  0  0  0  0  0  0  0  0  0  0
   12.8204    8.1375   -0.9376 C   0  0  0  0  0  0  0  0  0  0  0  0
   11.9768    8.1927    0.1466 C   0  0  0  0  0  0  0  0  0  0  0  0
   12.4325    8.2169    1.4738 C   0  0  0  0  0  0  0  0  0  0  0  0
   13.7974    8.1822    1.6538 C   0  0  0  0  0  0  0  0  0  0  0  0
   14.6152    8.1283    0.5899 N   0  0  0  0  0  0  0  0  0  0  0  0
   14.1830    8.1048   -0.6884 C   0  0  0  0  0  0  0  0  0  0  0  0
   15.1721    8.0439   -1.8247 C   0  0  0  0  0  0  0  0  0  0  0  0
   10.8975    8.2211    0.0376 H   0  0  0  0  0  0  0  0  0  0  0  0
   11.7484    8.2604    2.3117 H   0  0  0  0  0  0  0  0  0  0  0  0
   14.1902    8.1997    2.6808 H   0  0  0  0  0  0  0  0  0  0  0  0
   15.0820    7.0971   -2.3859 H   0  0  0  0  0  0  0  0  0  0  0  0
   16.1944    8.0035   -1.3531 H   0  0  0  0  0  0  0  0  0  0  0  0
   15.1476    8.9501   -2.4517 H   0  0  0  0  0  0  0  0  0  0  0  0
  2  1  2  0
  3  2  1  0
  4  3  2  0
  4  5  1  0
  5  6  2  0
  6  1  1  0
  2  7  1  0
  3  8  1  0
  5  9  1  0
 10 11  2  0
 11 12  1  0
 12 13  2  0
 13 14  1  0
 14 15  2  0
 15 16  1  0
 15 10  1  0
 11 17  1  0
 12 18  1  0
 13 19  1  0
 16 20  1  0
 16 21  1  0
 16 22  1  0
  1 10  1  0
M  END
>  <Score>  (1) 
-7.14901

$$$$

     RDKit          3D

 28 29  0  0  0  0  0  0  0  0999 V2000
   12.3025    8.1213   -2.3014 C   0  0  0  0  0  0  0  0  0  0  0  0
   12.0223    6.8843   -2.9107 C   0  0  0  0  0  0  0  0  0  0  0  0
   11.5232    6.9002   -4.2282 C   0  0  0  0  0  0  0  0  0  0  0  0
   11.3422    8.1038   -4.8314 N   0  0  0  0  0  0  0  0  0  0  0  0
   11.6248    9.2790   -4.2094 C   0  0  0  0  0  0  0  0  0  0  0  0
   12.1000    9.2824   -2.9568 N   0  0  0  0  0  0  0  0  0  0  0  0
   12.1803    5.9553   -2.3971 H   0  0  0  0  0  0  0  0  0  0  0  0
   11.3028    5.9804   -4.7132 H   0  0  0  0  0  0  0  0  0  0  0  0
   11.4614   10.2179   -4.7384 H   0  0  0  0  0  0  0  0  0  0  0  0
   12.8274    8.1574   -0.9214 C   0  0  1  0  0  0  0  0  0  0  0  0
   14.2647    7.6874   -0.8765 C   0  0  0  0  0  0  0  0  0  0  0  0
   14.7962    7.7787    0.5230 C   0  0  0  0  0  0  0  0  0  0  0  0
   14.6228    9.1495    1.1015 C   0  0  0  0  0  0  0  0  0  0  0  0
   14.0272   10.1087    0.0915 C   0  0  0  0  0  0  0  0  0  0  0  0
   12.7107    9.5384   -0.3608 C   0  0  1  0  0  0  0  0  0  0  0  0
   12.0715   10.4620   -1.2975 N   0  0  0  0  0  0  0  0  0  0  0  0
   12.2409    7.4472   -0.2830 H   0  0  0  0  0  0  0  0  0  0  0  0
   14.8909    8.3061   -1.5581 H   0  0  0  0  0  0  0  0  0  0  0  0
   14.3472    6.6456   -1.2384 H   0  0  0  0  0  0  0  0  0  0  0  0
   14.3133    6.9854    1.1468 H   0  0  0  0  0  0  0  0  0  0  0  0
   15.8833    7.5047    0.5090 H   0  0  0  0  0  0  0  0  0  0  0  0
   15.5342    9.5536    1.5752 H   0  0  0  0  0  0  0  0  0  0  0  0
   13.8619    9.0591    1.9279 H   0  0  0  0  0  0  0  0  0  0  0  0
   13.8008   11.0513    0.6397 H   0  0  0  0  0  0  0  0  0  0  0  0
   14.7388   10.2869   -0.7257 H   0  0  0  0  0  0  0  0  0  0  0  0
   12.0426    9.5361    0.5452 H   0  0  0  0  0  0  0  0  0  0  0  0
   12.1468   11.4221   -0.8642 H   0  0  0  0  0  0  0  0  0  0  0  0
   11.0751   10.1790   -1.4529 H   0  0  0  0  0  0  0  0  0  0  0  0
  2  1  2  0
  3  2  1  0
  4  3  2  0
  4  5  1  0
  5  6  2  0
  6  1  1  0
  2  7  1  0
  3  8  1  0
  5  9  1  0
 10 11  1  0
 11 12  1  0
 12 13  1  0
 13 14  1  0
 14 15  1  0
 15 16  1  0
 15 10  1  0
 10 17  1  1
 11 18  1  0
 11 19  1  0
 12 20  1  0
 12 21  1  0
 13 22  1  0
 13 23  1  0
 14 24  1  0
 14 25  1  0
 15 26  1  1
 16 27  1  0
 16 28  1  0
  1 10  1  0
M  END
>  <Score>  (1) 
-7.10928

$$$$

     RDKit          3D

 28 29  0  0  0  0  0  0  0  0999 V2000
   12.3026    8.1212   -2.3011 C   0  0  0  0  0  0  0  0  0  0  0  0
   12.0212    6.8867   -2.9139 C   0  0  0  0  0  0  0  0  0  0  0  0
   11.5249    6.8963   -4.2235 C   0  0  0  0  0  0  0  0  0  0  0  0
   11.3420    8.1091   -4.8325 N   0  0  0  0  0  0  0  0  0  0  0  0
   11.6237    9.2773   -4.2121 C   0  0  0  0  0  0  0  0  0  0  0  0
   12.1006    9.2803   -2.9549 N   0  0  0  0  0  0  0  0  0  0  0  0
   12.1853    5.9837   -2.3874 H   0  0  0  0  0  0  0  0  0  0  0  0
   11.2979    5.9869   -4.7267 H   0  0  0  0  0  0  0  0  0  0  0  0
   11.4789   10.2316   -4.6936 H   0  0  0  0  0  0  0  0  0  0  0  0
   12.7994    8.1101   -0.9897 N   0  0  0  0  0  0  0  0  0  0  0  0
   12.5020    9.2396   -0.1009 C   0  0  0  0  0  0  0  0  0  0  0  0
   13.8196    9.4952    0.6449 C   0  0  0  0  0  0  0  0  0  0  0  0
   13.9128    8.4010    1.6758 C   0  0  0  0  0  0  0  0  0  0  0  0
   13.5972    7.0843    1.0538 C   0  0  2  0  0  0  0  0  0  0  0  0
   14.6445    6.0872    1.5659 C   0  0  0  0  0  0  0  0  0  0  0  0
   13.5935    7.0577   -0.4359 C   0  0  0  0  0  0  0  0  0  0  0  0
   12.1865   10.1200   -0.6783 H   0  0  0  0  0  0  0  0  0  0  0  0
   11.7221    8.8748    0.5983 H   0  0  0  0  0  0  0  0  0  0  0  0
   13.8633   10.5058    1.0633 H   0  0  0  0  0  0  0  0  0  0  0  0
   14.6634    9.3463   -0.0907 H   0  0  0  0  0  0  0  0  0  0  0  0
   14.8667    8.4249    2.2398 H   0  0  0  0  0  0  0  0  0  0  0  0
   13.1186    8.6303    2.4442 H   0  0  0  0  0  0  0  0  0  0  0  0
   12.6170    6.6821    1.4260 H   0  0  0  0  0  0  0  0  0  0  0  0
   14.4978    6.0290    2.6641 H   0  0  0  0  0  0  0  0  0  0  0  0
   14.5406    5.1195    1.0739 H   0  0  0  0  0  0  0  0  0  0  0  0
   15.6670    6.5364    1.4318 H   0  0  0  0  0  0  0  0  0  0  0  0
   14.6221    6.9964   -0.8707 H   0  0  0  0  0  0  0  0  0  0  0  0
   13.1063    6.0843   -0.7377 H   0  0  0  0  0  0  0  0  0  0  0  0
  2  1  2  0
  3  2  1  0
  4  3  2  0
  4  5  1  0
  5  6  2  0
  6  1  1  0
  2  7  1  0
  3  8  1  0
  5  9  1  0
 10 11  1  0
 11 12  1  0
 12 13  1  0
 13 14  1  0
 14 15  1  0
 14 16  1  0
 16 10  1  0
 11 17  1  0
 11 18  1  0
 12 19  1  0
 12 20  1  0
 13 21  1  0
 13 22  1  0
 14 23  1  1
 15 24  1  0
 15 25  1  0
 15 26  1  0
 16 27  1  0
 16 28  1  0
  1 10  1  0
M  END
>  <Score>  (1) 
-7.10675

$$$$

     RDKit          3D

 28 29  0  0  0  0  0  0  0  0999 V2000
   12.3025    8.1236   -2.3016 C   0  0  0  0  0  0  0  0  0  0  0  0
   12.0212    6.8839   -2.9135 C   0  0  0  0  0  0  0  0  0  0  0  0
   11.5246    6.8964   -4.2241 C   0  0  0  0  0  0  0  0  0  0  0  0
   11.3424    8.1109   -4.8317 N   0  0  0  0  0  0  0  0  0  0  0  0
   11.6232    9.2756   -4.2132 C   0  0  0  0  0  0  0  0  0  0  0  0
   12.1010    9.2807   -2.9539 N   0  0  0  0  0  0  0  0  0  0  0  0
   12.6846    8.0929   -1.2912 H   0  0  0  0  0  0  0  0  0  0  0  0
   12.1782    5.9529   -2.4024 H   0  0  0  0  0  0  0  0  0  0  0  0
   11.2913    5.9695   -4.7424 H   0  0  0  0  0  0  0  0  0  0  0  0
   11.4161   10.5057   -4.8878 N   0  0  0  0  0  0  0  0  0  0  0  0
   12.3205   10.9504   -5.9252 C   0  0  0  0  0  0  0  0  0  0  0  0
   11.9034   12.2514   -6.4780 C   0  0  0  0  0  0  0  0  0  0  0  0
   11.0446   12.2799   -7.5549 C   0  0  0  0  0  0  0  0  0  0  0  0
   10.6125   13.4353   -8.1231 C   0  0  0  0  0  0  0  0  0  0  0  0
   11.0663   14.6292   -7.5819 C   0  0  0  0  0  0  0  0  0  0  0  0
   10.6275   15.9171   -8.1615 C   0  0  0  0  0  0  0  0  0  0  0  0
   11.9330   14.6248   -6.4956 C   0  0  0  0  0  0  0  0  0  0  0  0
   12.3384   13.4406   -5.9602 C   0  0  0  0  0  0  0  0  0  0  0  0
   10.6085   11.1139   -4.6499 H   0  0  0  0  0  0  0  0  0  0  0  0
   13.3225   11.0500   -5.4517 H   0  0  0  0  0  0  0  0  0  0  0  0
   12.3387   10.2255   -6.7743 H   0  0  0  0  0  0  0  0  0  0  0  0
   10.6982   11.3465   -7.9674 H   0  0  0  0  0  0  0  0  0  0  0  0
    9.9378   13.4229   -8.9682 H   0  0  0  0  0  0  0  0  0  0  0  0
   11.3912   16.2610   -8.8660 H   0  0  0  0  0  0  0  0  0  0  0  0
    9.6748   15.7636   -8.7011 H   0  0  0  0  0  0  0  0  0  0  0  0
   10.4831   16.6665   -7.3554 H   0  0  0  0  0  0  0  0  0  0  0  0
   12.2489   15.5888   -6.1219 H   0  0  0  0  0  0  0  0  0  0  0  0
   13.0218   13.4742   -5.1047 H   0  0  0  0  0  0  0  0  0  0  0  0
  2  1  2  0
  3  2  1  0
  4  3  2  0
  4  5  1  0
  5  6  2  0
  6  1  1  0
  1  7  1  0
  2  8  1  0
  3  9  1  0
 10 11  1  0
 11 12  1  0
 12 13  2  0
 13 14  1  0
 14 15  2  0
 15 16  1  0
 15 17  1  0
 17 18  2  0
 18 12  1  0
 10 19  1  0
 11 20  1  0
 11 21  1  0
 13 22  1  0
 14 23  1  0
 16 24  1  0
 16 25  1  0
 16 26  1  0
 17 27  1  0
 18 28  1  0
  5 10  1  0
M  END
>  <Score>  (1) 
-7.91075

$$$$

     RDKit          3D

 27 28  0  0  0  0  0  0  0  0999 V2000
   12.3026    8.1241   -2.3015 C   0  0  0  0  0  0  0  0  0  0  0  0
   12.0214    6.8828   -2.9130 C   0  0  0  0  0  0  0  0  0  0  0  0
   11.5241    6.8984   -4.2256 C   0  0  0  0  0  0  0  0  0  0  0  0
   11.3423    8.1073   -4.8316 N   0  0  0  0  0  0  0  0  0  0  0  0
   11.6238    9.2773   -4.2117 C   0  0  0  0  0  0  0  0  0  0  0  0
   12.1008    9.2810   -2.9545 N   0  0  0  0  0  0  0  0  0  0  0  0
   12.1860    5.9638   -2.3828 H   0  0  0  0  0  0  0  0  0  0  0  0
   11.2981    5.9679   -4.7241 H   0  0  0  0  0  0  0  0  0  0  0  0
   11.4646   10.2124   -4.7292 H   0  0  0  0  0  0  0  0  0  0  0  0
   12.8300    8.1934   -0.9181 C   0  0  2  0  0  0  0  0  0  0  0  0
   13.7631    9.3633   -0.7279 C   0  0  0  0  0  0  0  0  0  0  0  0
   15.2148    8.9706   -0.9504 C   0  0  0  0  0  0  0  0  0  0  0  0
   15.6911    7.9532    0.0522 C   0  0  1  0  0  0  0  0  0  0  0  0
   16.4840    8.4861    1.0445 O   0  0  0  0  0  0  0  0  0  0  0  0
   14.4727    7.2315    0.5911 C   0  0  0  0  0  0  0  0  0  0  0  0
   13.6155    6.9084   -0.6362 C   0  0  0  0  0  0  0  0  0  0  0  0
   12.0058    8.2510   -0.1728 H   0  0  0  0  0  0  0  0  0  0  0  0
   13.5381   10.1593   -1.4699 H   0  0  0  0  0  0  0  0  0  0  0  0
   13.6578    9.8115    0.2898 H   0  0  0  0  0  0  0  0  0  0  0  0
   15.8125    9.8831   -0.8480 H   0  0  0  0  0  0  0  0  0  0  0  0
   15.3031    8.5845   -1.9914 H   0  0  0  0  0  0  0  0  0  0  0  0
   16.2925    7.1759   -0.4980 H   0  0  0  0  0  0  0  0  0  0  0  0
   15.9984    8.7068    1.8757 H   0  0  0  0  0  0  0  0  0  0  0  0
   14.7319    6.3155    1.1454 H   0  0  0  0  0  0  0  0  0  0  0  0
   13.9182    7.9372    1.2481 H   0  0  0  0  0  0  0  0  0  0  0  0
   12.9491    6.0605   -0.4450 H   0  0  0  0  0  0  0  0  0  0  0  0
   14.2602    6.7621   -1.5345 H   0  0  0  0  0  0  0  0  0  0  0  0
  2  1  2  0
  3  2  1  0
  4  3  2  0
  4  5  1  0
  5  6  2  0
  6  1  1  0
  2  7  1  0
  3  8  1  0
  5  9  1  0
 10 11  1  0
 11 12  1  0
 12 13  1  0
 13 14  1  0
 13 15  1  0
 15 16  1  0
 16 10  1  0
 10 17  1  1
 11 18  1  0
 11 19  1  0
 12 20  1  0
 12 21  1  0
 13 22  1  6
 14 23  1  0
 15 24  1  0
 15 25  1  0
 16 26  1  0
 16 27  1  0
  1 10  1  0
M  END
>  <Score>  (1) 
-7.06536

$$$$

     RDKit          3D

 29 31  0  0  0  0  0  0  0  0999 V2000
   12.3027    8.1279   -2.3017 C   0  0  0  0  0  0  0  0  0  0  0  0
   12.0201    6.8814   -2.9162 C   0  0  0  0  0  0  0  0  0  0  0  0
   11.5253    6.8961   -4.2222 C   0  0  0  0  0  0  0  0  0  0  0  0
   11.3424    8.1117   -4.8316 N   0  0  0  0  0  0  0  0  0  0  0  0
   11.6224    9.2752   -4.2153 C   0  0  0  0  0  0  0  0  0  0  0  0
   12.1021    9.2788   -2.9509 N   0  0  0  0  0  0  0  0  0  0  0  0
   12.1814    5.9605   -2.3947 H   0  0  0  0  0  0  0  0  0  0  0  0
   11.2997    5.9788   -4.7213 H   0  0  0  0  0  0  0  0  0  0  0  0
   11.4453   10.1845   -4.7772 H   0  0  0  0  0  0  0  0  0  0  0  0
   12.8220    8.1229   -0.9320 C   0  0  2  0  0  0  0  0  0  0  0  0
   14.2870    7.7338   -0.8553 C   0  0  0  0  0  0  0  0  0  0  0  0
   14.5823    7.1030    0.3941 N   0  0  0  0  0  0  0  0  0  0  0  0
   14.1359    5.7173    0.3016 C   0  0  0  0  0  0  0  0  0  0  0  0
   12.7123    5.7546   -0.2026 C   0  0  0  0  0  0  0  0  0  0  0  0
   12.0904    7.1371   -0.0271 C   0  0  0  0  0  0  0  0  0  0  0  0
   12.3954    7.6312    1.3943 C   0  0  0  0  0  0  0  0  0  0  0  0
   13.8904    7.6868    1.5209 C   0  0  0  0  0  0  0  0  0  0  0  0
   12.7505    9.1339   -0.4687 H   0  0  0  0  0  0  0  0  0  0  0  0
   14.9476    8.6210   -1.0117 H   0  0  0  0  0  0  0  0  0  0  0  0
   14.4813    7.0103   -1.6793 H   0  0  0  0  0  0  0  0  0  0  0  0
   14.8132    5.1491   -0.3507 H   0  0  0  0  0  0  0  0  0  0  0  0
   14.1653    5.2780    1.3352 H   0  0  0  0  0  0  0  0  0  0  0  0
   12.1266    5.0247    0.3916 H   0  0  0  0  0  0  0  0  0  0  0  0
   12.7362    5.4783   -1.2658 H   0  0  0  0  0  0  0  0  0  0  0  0
   11.0233    7.0820   -0.2247 H   0  0  0  0  0  0  0  0  0  0  0  0
   11.9037    7.0111    2.1524 H   0  0  0  0  0  0  0  0  0  0  0  0
   12.0309    8.6937    1.4039 H   0  0  0  0  0  0  0  0  0  0  0  0
   14.2892    8.6849    1.7420 H   0  0  0  0  0  0  0  0  0  0  0  0
   14.1547    7.0395    2.4080 H   0  0  0  0  0  0  0  0  0  0  0  0
  2  1  2  0
  3  2  1  0
  4  3  2  0
  4  5  1  0
  5  6  2  0
  6  1  1  0
  2  7  1  0
  3  8  1  0
  5  9  1  0
 10 11  1  0
 11 12  1  0
 12 13  1  0
 13 14  1  0
 14 15  1  0
 15 16  1  0
 16 17  1  0
 15 10  1  0
 17 12  1  0
 10 18  1  1
 11 19  1  0
 11 20  1  0
 13 21  1  0
 13 22  1  0
 14 23  1  0
 14 24  1  0
 15 25  1  0
 16 26  1  0
 16 27  1  0
 17 28  1  0
 17 29  1  0
  1 10  1  0
M  END
>  <Score>  (1) 
-7.0481

$$$$

     RDKit          3D

 26 27  0  0  0  0  0  0  0  0999 V2000
   12.3029    8.1244   -2.3008 C   0  0  0  0  0  0  0  0  0  0  0  0
   12.0195    6.8823   -2.9180 C   0  0  0  0  0  0  0  0  0  0  0  0
   11.5258    6.8998   -4.2214 C   0  0  0  0  0  0  0  0  0  0  0  0
   11.3418    8.1038   -4.8326 N   0  0  0  0  0  0  0  0  0  0  0  0
   11.6244    9.2795   -4.2105 C   0  0  0  0  0  0  0  0  0  0  0  0
   12.1007    9.2812   -2.9547 N   0  0  0  0  0  0  0  0  0  0  0  0
   12.1686    5.9539   -2.4276 H   0  0  0  0  0  0  0  0  0  0  0  0
   11.2892    5.9872   -4.7498 H   0  0  0  0  0  0  0  0  0  0  0  0
   11.4762   10.2274   -4.7005 H   0  0  0  0  0  0  0  0  0  0  0  0
   12.8239    8.1089   -0.9255 C   0  0  0  0  0  0  0  0  0  0  0  0
   13.3424    9.4785   -0.5036 C   0  0  0  0  0  0  0  0  0  0  0  0
   13.8477    9.3201    0.9198 C   0  0  0  0  0  0  0  0  0  0  0  0
   15.1797    8.6034    0.8295 C   0  0  0  0  0  0  0  0  0  0  0  0
   15.9562    9.3983    0.7674 H   0  0  0  0  0  0  0  0  0  0  0  0
   15.2666    7.7935   -0.4272 C   0  0  0  0  0  0  0  0  0  0  0  0
   13.9426    7.1289   -0.7288 C   0  0  0  0  0  0  0  0  0  0  0  0
   11.9958    7.8714   -0.2272 H   0  0  0  0  0  0  0  0  0  0  0  0
   12.5259   10.2311   -0.4981 H   0  0  0  0  0  0  0  0  0  0  0  0
   14.1392    9.8501   -1.1616 H   0  0  0  0  0  0  0  0  0  0  0  0
   13.9281   10.2928    1.4442 H   0  0  0  0  0  0  0  0  0  0  0  0
   13.1509    8.6473    1.4782 H   0  0  0  0  0  0  0  0  0  0  0  0
   15.3823    7.9867    1.7218 H   0  0  0  0  0  0  0  0  0  0  0  0
   15.9920    6.9645   -0.2322 H   0  0  0  0  0  0  0  0  0  0  0  0
   15.6737    8.3632   -1.2752 H   0  0  0  0  0  0  0  0  0  0  0  0
   14.0453    6.4375   -1.5889 H   0  0  0  0  0  0  0  0  0  0  0  0
   13.7218    6.4744    0.1619 H   0  0  0  0  0  0  0  0  0  0  0  0
  2  1  2  0
  3  2  1  0
  4  3  2  0
  4  5  1  0
  5  6  2  0
  6  1  1  0
  2  7  1  0
  3  8  1  0
  5  9  1  0
 10 11  1  0
 11 12  1  0
 12 13  1  0
 13 14  1  0
 13 15  1  0
 15 16  1  0
 16 10  1  0
 10 17  1  0
 11 18  1  0
 11 19  1  0
 12 20  1  0
 12 21  1  0
 13 22  1  0
 15 23  1  0
 15 24  1  0
 16 25  1  0
 16 26  1  0
  1 10  1  0
M  END
>  <Score>  (1) 
-7.04634

$$$$

     RDKit          3D

 25 27  0  0  0  0  0  0  0  0999 V2000
   12.3021    8.1197   -2.3022 C   0  0  0  0  0  0  0  0  0  0  0  0
   12.0230    6.8858   -2.9090 C   0  0  0  0  0  0  0  0  0  0  0  0
   11.5231    6.8987   -4.2284 C   0  0  0  0  0  0  0  0  0  0  0  0
   11.3422    8.1071   -4.8318 N   0  0  0  0  0  0  0  0  0  0  0  0
   11.6249    9.2769   -4.2088 C   0  0  0  0  0  0  0  0  0  0  0  0
   12.0996    9.2828   -2.9579 N   0  0  0  0  0  0  0  0  0  0  0  0
   12.1864    5.9635   -2.3817 H   0  0  0  0  0  0  0  0  0  0  0  0
   11.3039    5.9700   -4.7091 H   0  0  0  0  0  0  0  0  0  0  0  0
   11.4449   10.1779   -4.7777 H   0  0  0  0  0  0  0  0  0  0  0  0
   12.8074    8.1541   -0.9737 N   0  0  0  0  0  0  0  0  0  0  0  0
   13.1421    9.3586   -0.2168 C   0  0  0  0  0  0  0  0  0  0  0  0
   13.5667    8.8306    1.1344 C   0  0  1  0  0  0  0  0  0  0  0  0
   12.6317    7.6117    1.2333 C   0  0  0  0  0  0  0  0  0  0  0  0
   13.0864    7.0314   -0.1216 C   0  0  2  0  0  0  0  0  0  0  0  0
   14.5709    6.9624    0.1637 C   0  0  0  0  0  0  0  0  0  0  0  0
   14.8393    8.1666    0.9509 N   0  0  0  0  0  0  0  0  0  0  0  0
   15.4320    8.7961    0.3650 H   0  0  0  0  0  0  0  0  0  0  0  0
   13.9921    9.8986   -0.6705 H   0  0  0  0  0  0  0  0  0  0  0  0
   12.2258    9.9788   -0.1701 H   0  0  0  0  0  0  0  0  0  0  0  0
   13.4968    9.5018    1.9542 H   0  0  0  0  0  0  0  0  0  0  0  0
   11.5839    7.9010    1.2165 H   0  0  0  0  0  0  0  0  0  0  0  0
   12.9327    6.9401    2.0343 H   0  0  0  0  0  0  0  0  0  0  0  0
   12.6148    6.1038   -0.3686 H   0  0  0  0  0  0  0  0  0  0  0  0
   15.1844    6.9207   -0.7454 H   0  0  0  0  0  0  0  0  0  0  0  0
   14.7495    6.1022    0.8414 H   0  0  0  0  0  0  0  0  0  0  0  0
  2  1  2  0
  3  2  1  0
  4  3  2  0
  4  5  1  0
  5  6  2  0
  6  1  1  0
  2  7  1  0
  3  8  1  0
  5  9  1  0
 10 11  1  0
 11 12  1  0
 12 13  1  0
 13 14  1  0
 14 15  1  0
 15 16  1  0
 16 17  1  0
 14 10  1  0
 16 12  1  0
 11 18  1  0
 11 19  1  0
 12 20  1  1
 13 21  1  0
 13 22  1  0
 14 23  1  6
 15 24  1  0
 15 25  1  0
  1 10  1  0
M  END
>  <Score>  (1) 
-7.03672

$$$$

     RDKit          3D

 19 20  0  0  0  0  0  0  0  0999 V2000
   12.3032    8.1165   -2.2991 C   0  0  0  0  0  0  0  0  0  0  0  0
   12.0227    6.8910   -2.9104 C   0  0  0  0  0  0  0  0  0  0  0  0
   11.5232    6.8984   -4.2282 C   0  0  0  0  0  0  0  0  0  0  0  0
   11.3419    8.1056   -4.8324 N   0  0  0  0  0  0  0  0  0  0  0  0
   11.6250    9.2778   -4.2086 C   0  0  0  0  0  0  0  0  0  0  0  0
   12.0990    9.2817   -2.9593 N   0  0  0  0  0  0  0  0  0  0  0  0
   12.1692    5.9569   -2.4263 H   0  0  0  0  0  0  0  0  0  0  0  0
   11.3010    5.9738   -4.7171 H   0  0  0  0  0  0  0  0  0  0  0  0
   11.4490   10.2002   -4.7692 H   0  0  0  0  0  0  0  0  0  0  0  0
   12.8209    8.1805   -0.9407 C   0  0  0  0  0  0  0  0  0  0  0  0
   12.1545    7.6774    0.1650 C   0  0  0  0  0  0  0  0  0  0  0  0
   12.6703    7.7533    1.4352 C   0  0  0  0  0  0  0  0  0  0  0  0
   13.8547    8.3310    1.6170 N   0  0  0  0  0  0  0  0  0  0  0  0
   14.5727    8.8499    0.5824 C   0  0  0  0  0  0  0  0  0  0  0  0
   15.7790    9.4365    0.7787 F   0  0  0  0  0  0  0  0  0  0  0  0
   14.0455    8.7656   -0.6704 C   0  0  0  0  0  0  0  0  0  0  0  0
   11.1956    7.2072    0.0351 H   0  0  0  0  0  0  0  0  0  0  0  0
   12.1383    7.3573    2.2804 H   0  0  0  0  0  0  0  0  0  0  0  0
   14.5931    9.1682   -1.5062 H   0  0  0  0  0  0  0  0  0  0  0  0
  2  1  2  0
  3  2  1  0
  4  3  2  0
  4  5  1  0
  5  6  2  0
  6  1  1  0
  2  7  1  0
  3  8  1  0
  5  9  1  0
 10 11  2  0
 11 12  1  0
 12 13  2  0
 13 14  1  0
 14 15  1  0
 14 16  2  0
 16 10  1  0
 11 17  1  0
 12 18  1  0
 16 19  1  0
  1 10  1  0
M  END
>  <Score>  (1) 
-7.03391

$$$$

     RDKit          3D

 23 25  0  0  0  0  0  0  0  0999 V2000
   12.3026    8.1226   -2.3012 C   0  0  0  0  0  0  0  0  0  0  0  0
   12.0224    6.8885   -2.9111 C   0  0  0  0  0  0  0  0  0  0  0  0
   11.5233    6.8989   -4.2279 C   0  0  0  0  0  0  0  0  0  0  0  0
   11.3425    8.1067   -4.8309 N   0  0  0  0  0  0  0  0  0  0  0  0
   11.6234    9.2775   -4.2129 C   0  0  0  0  0  0  0  0  0  0  0  0
   12.1009    9.2768   -2.9540 N   0  0  0  0  0  0  0  0  0  0  0  0
   12.1735    5.9591   -2.4153 H   0  0  0  0  0  0  0  0  0  0  0  0
   11.3039    5.9692   -4.7090 H   0  0  0  0  0  0  0  0  0  0  0  0
   11.4476   10.1874   -4.7715 H   0  0  0  0  0  0  0  0  0  0  0  0
   12.8246    8.1244   -0.9252 C   0  0  0  0  0  0  0  0  0  0  0  0
   14.1014    8.0861   -0.5510 N   0  0  0  0  0  0  0  0  0  0  0  0
   14.2173    8.1008    0.7636 N   0  0  0  0  0  0  0  0  0  0  0  0
   12.9839    8.1503    1.2693 C   0  0  0  0  0  0  0  0  0  0  0  0
   12.4683    8.1864    2.5547 C   0  0  0  0  0  0  0  0  0  0  0  0
   11.1059    8.2360    2.7594 C   0  0  0  0  0  0  0  0  0  0  0  0
   10.2013    8.2521    1.7155 C   0  0  0  0  0  0  0  0  0  0  0  0
    9.1394    8.2911    1.9033 H   0  0  0  0  0  0  0  0  0  0  0  0
   10.7120    8.2163    0.4401 C   0  0  0  0  0  0  0  0  0  0  0  0
   12.0790    8.1664    0.2302 C   0  0  0  0  0  0  0  0  0  0  0  0
   15.0947    8.0793    1.3544 H   0  0  0  0  0  0  0  0  0  0  0  0
   13.1681    8.1742    3.3770 H   0  0  0  0  0  0  0  0  0  0  0  0
   10.7717    8.2622    3.7906 H   0  0  0  0  0  0  0  0  0  0  0  0
    9.9867    8.2296   -0.3682 H   0  0  0  0  0  0  0  0  0  0  0  0
  2  1  2  0
  3  2  1  0
  4  3  2  0
  4  5  1  0
  5  6  2  0
  6  1  1  0
  2  7  1  0
  3  8  1  0
  5  9  1  0
 10 11  2  0
 11 12  1  0
 12 13  1  0
 13 14  2  0
 14 15  1  0
 15 16  2  0
 16 17  1  0
 16 18  1  0
 18 19  2  0
 19 10  1  0
 19 13  1  0
 12 20  1  0
 14 21  1  0
 15 22  1  0
 18 23  1  0
  1 10  1  0
M  END
>  <Score>  (1) 
-7.0137

$$$$

     RDKit          3D

 19 20  0  0  0  0  0  0  0  0999 V2000
   12.3032    8.1140   -2.2989 C   0  0  0  0  0  0  0  0  0  0  0  0
   12.0223    6.8933   -2.9116 C   0  0  0  0  0  0  0  0  0  0  0  0
   11.5243    6.8968   -4.2251 C   0  0  0  0  0  0  0  0  0  0  0  0
   11.3416    8.1071   -4.8333 N   0  0  0  0  0  0  0  0  0  0  0  0
   11.6248    9.2787   -4.2093 C   0  0  0  0  0  0  0  0  0  0  0  0
   12.0988    9.2811   -2.9597 N   0  0  0  0  0  0  0  0  0  0  0  0
   12.1627    5.9593   -2.4439 H   0  0  0  0  0  0  0  0  0  0  0  0
   11.2920    5.9720   -4.7406 H   0  0  0  0  0  0  0  0  0  0  0  0
   11.4401   10.1761   -4.7901 H   0  0  0  0  0  0  0  0  0  0  0  0
   12.8198    8.1814   -0.9438 C   0  0  0  0  0  0  0  0  0  0  0  0
   14.1310    8.4726   -0.6617 C   0  0  0  0  0  0  0  0  0  0  0  0
   14.5878    8.5288    0.6278 N   0  0  0  0  0  0  0  0  0  0  0  0
   13.8105    8.3093    1.6944 C   0  0  0  0  0  0  0  0  0  0  0  0
   12.4808    8.0125    1.4494 C   0  0  0  0  0  0  0  0  0  0  0  0
   11.6758    7.7873    2.5003 F   0  0  0  0  0  0  0  0  0  0  0  0
   12.0008    7.9510    0.1576 C   0  0  0  0  0  0  0  0  0  0  0  0
   14.8252    8.6630   -1.4657 H   0  0  0  0  0  0  0  0  0  0  0  0
   14.2294    8.3678    2.6925 H   0  0  0  0  0  0  0  0  0  0  0  0
   10.9575    7.7193   -0.0635 H   0  0  0  0  0  0  0  0  0  0  0  0
  2  1  2  0
  3  2  1  0
  4  3  2  0
  4  5  1  0
  5  6  2  0
  6  1  1  0
  2  7  1  0
  3  8  1  0
  5  9  1  0
 10 11  2  0
 11 12  1  0
 12 13  2  0
 13 14  1  0
 14 15  1  0
 14 16  2  0
 16 10  1  0
 11 17  1  0
 13 18  1  0
 16 19  1  0
  1 10  1  0
M  END
>  <Score>  (1) 
-7.00691

$$$$

     RDKit          3D

 27 29  0  0  0  0  0  0  0  0999 V2000
   12.3028    8.1277   -2.3013 C   0  0  0  0  0  0  0  0  0  0  0  0
   12.0198    6.8808   -2.9171 C   0  0  0  0  0  0  0  0  0  0  0  0
   11.5254    6.8976   -4.2223 C   0  0  0  0  0  0  0  0  0  0  0  0
   11.3424    8.1089   -4.8315 N   0  0  0  0  0  0  0  0  0  0  0  0
   11.6230    9.2765   -4.2138 C   0  0  0  0  0  0  0  0  0  0  0  0
   12.1017    9.2796   -2.9520 N   0  0  0  0  0  0  0  0  0  0  0  0
   12.6883    8.1213   -1.2843 H   0  0  0  0  0  0  0  0  0  0  0  0
   12.1869    5.9604   -2.3801 H   0  0  0  0  0  0  0  0  0  0  0  0
   11.4773   10.2348   -4.6983 H   0  0  0  0  0  0  0  0  0  0  0  0
   11.2163    5.6422   -4.9058 C   0  0  0  0  0  0  0  0  0  0  0  0
   10.3943    5.8692   -6.1798 C   0  0  0  0  0  0  0  0  0  0  0  0
   10.5915    4.5413   -6.8491 C   0  0  0  0  0  0  0  0  0  0  0  0
    9.8185    3.8314   -7.7442 C   0  0  0  0  0  0  0  0  0  0  0  0
   10.2205    2.5924   -8.2349 C   0  0  0  0  0  0  0  0  0  0  0  0
   11.4194    2.0491   -7.8245 C   0  0  0  0  0  0  0  0  0  0  0  0
   12.1805    2.7701   -6.9301 C   0  0  0  0  0  0  0  0  0  0  0  0
   11.7929    3.9991   -6.4364 C   0  0  0  0  0  0  0  0  0  0  0  0
   12.4241    4.9526   -5.4837 C   0  0  0  0  0  0  0  0  0  0  0  0
   10.6702    4.9761   -4.2448 H   0  0  0  0  0  0  0  0  0  0  0  0
    9.3444    6.0791   -5.9616 H   0  0  0  0  0  0  0  0  0  0  0  0
   10.8967    6.6816   -6.7267 H   0  0  0  0  0  0  0  0  0  0  0  0
    8.8814    4.2680   -8.0579 H   0  0  0  0  0  0  0  0  0  0  0  0
    9.6290    2.0347   -8.9284 H   0  0  0  0  0  0  0  0  0  0  0  0
   11.7500    1.0705   -8.2042 H   0  0  0  0  0  0  0  0  0  0  0  0
   13.1159    2.3435   -6.6116 H   0  0  0  0  0  0  0  0  0  0  0  0
   13.0346    5.6866   -6.0324 H   0  0  0  0  0  0  0  0  0  0  0  0
   13.0291    4.4308   -4.7159 H   0  0  0  0  0  0  0  0  0  0  0  0
  2  1  2  0
  3  2  1  0
  4  3  2  0
  4  5  1  0
  5  6  2  0
  6  1  1  0
  1  7  1  0
  2  8  1  0
  5  9  1  0
 10 11  1  0
 11 12  1  0
 12 13  2  0
 13 14  1  0
 14 15  2  0
 15 16  1  0
 16 17  2  0
 17 18  1  0
 18 10  1  0
 17 12  1  0
 10 19  1  0
 11 20  1  0
 11 21  1  0
 13 22  1  0
 14 23  1  0
 15 24  1  0
 16 25  1  0
 18 26  1  0
 18 27  1  0
  3 10  1  0
M  END
>  <Score>  (1) 
-8.52159

$$$$

     RDKit          3D

 28 29  0  0  0  0  0  0  0  0999 V2000
   12.3025    8.1250   -2.3018 C   0  0  0  0  0  0  0  0  0  0  0  0
   12.0191    6.8853   -2.9194 C   0  0  0  0  0  0  0  0  0  0  0  0
   11.5251    6.8961   -4.2228 C   0  0  0  0  0  0  0  0  0  0  0  0
   11.3438    8.1073   -4.8276 N   0  0  0  0  0  0  0  0  0  0  0  0
   11.6224    9.2769   -4.2155 C   0  0  0  0  0  0  0  0  0  0  0  0
   12.1021    9.2804   -2.9510 N   0  0  0  0  0  0  0  0  0  0  0  0
   12.6858    8.1316   -1.2920 H   0  0  0  0  0  0  0  0  0  0  0  0
   12.1810    5.9612   -2.3957 H   0  0  0  0  0  0  0  0  0  0  0  0
   11.4762   10.2329   -4.7008 H   0  0  0  0  0  0  0  0  0  0  0  0
   11.2212    5.6823   -4.8972 N   0  0  0  0  0  0  0  0  0  0  0  0
   11.6962    5.4005   -6.5304 S   0  0  0  0  0  6  0  0  0  0  0  0
   13.2069    5.5905   -6.5816 O   0  0  0  0  0  0  0  0  0  0  0  0
   11.3619    3.9870   -6.8810 O   0  0  0  0  0  0  0  0  0  0  0  0
   10.9860    6.5397   -7.6402 C   0  0  0  0  0  0  0  0  0  0  0  0
   11.6099    7.7140   -8.0073 C   0  0  0  0  0  0  0  0  0  0  0  0
   11.0354    8.6114   -8.8867 C   0  0  0  0  0  0  0  0  0  0  0  0
    9.7958    8.3533   -9.4340 C   0  0  0  0  0  0  0  0  0  0  0  0
    9.1578    9.3217  -10.3932 C   0  0  0  0  0  0  0  0  0  0  0  0
    9.1599    7.1830   -9.0763 C   0  0  0  0  0  0  0  0  0  0  0  0
    9.7338    6.2993   -8.2057 C   0  0  0  0  0  0  0  0  0  0  0  0
   10.6931    4.9609   -4.3584 H   0  0  0  0  0  0  0  0  0  0  0  0
   12.5870    7.9607   -7.6054 H   0  0  0  0  0  0  0  0  0  0  0  0
   11.5620    9.5290   -9.1512 H   0  0  0  0  0  0  0  0  0  0  0  0
    9.6340    9.1277  -11.3707 H   0  0  0  0  0  0  0  0  0  0  0  0
    9.3556   10.3589  -10.0408 H   0  0  0  0  0  0  0  0  0  0  0  0
    8.0820    9.1383  -10.3709 H   0  0  0  0  0  0  0  0  0  0  0  0
    8.1808    7.0205   -9.5342 H   0  0  0  0  0  0  0  0  0  0  0  0
    9.2251    5.3895   -7.9358 H   0  0  0  0  0  0  0  0  0  0  0  0
  2  1  2  0
  3  2  1  0
  4  3  2  0
  4  5  1  0
  5  6  2  0
  6  1  1  0
  1  7  1  0
  2  8  1  0
  5  9  1  0
 10 11  1  0
 11 12  2  0
 11 13  2  0
 11 14  1  0
 14 15  2  0
 15 16  1  0
 16 17  2  0
 17 18  1  0
 17 19  1  0
 19 20  2  0
 20 14  1  0
 10 21  1  0
 15 22  1  0
 16 23  1  0
 18 24  1  0
 18 25  1  0
 18 26  1  0
 19 27  1  0
 20 28  1  0
  3 10  1  0
M  END
>  <Score>  (1) 
-8.33018

$$$$

     RDKit          3D

 25 27  0  0  0  0  0  0  0  0999 V2000
   12.3031    8.1317   -2.3011 C   0  0  0  0  0  0  0  0  0  0  0  0
   12.0169    6.8854   -2.9242 C   0  0  0  0  0  0  0  0  0  0  0  0
   11.5253    6.8880   -4.2225 C   0  0  0  0  0  0  0  0  0  0  0  0
   11.3443    8.1126   -4.8266 N   0  0  0  0  0  0  0  0  0  0  0  0
   11.6232    9.2737   -4.2125 C   0  0  0  0  0  0  0  0  0  0  0  0
   12.1022    9.2796   -2.9511 N   0  0  0  0  0  0  0  0  0  0  0  0
   12.6856    8.1317   -1.2935 H   0  0  0  0  0  0  0  0  0  0  0  0
   12.1646    5.9726   -2.3778 H   0  0  0  0  0  0  0  0  0  0  0  0
   11.4465   10.1828   -4.7725 H   0  0  0  0  0  0  0  0  0  0  0  0
   11.2316    5.7473   -4.9650 N   0  0  0  0  0  0  0  0  0  0  0  0
   11.1757    5.5768   -6.3556 C   0  0  0  0  0  0  0  0  0  0  0  0
   11.6533    4.3845   -6.9347 C   0  0  0  0  0  0  0  0  0  0  0  0
   11.5744    4.1749   -8.2928 C   0  0  0  0  0  0  0  0  0  0  0  0
   11.0128    5.1626   -9.0927 C   0  0  0  0  0  0  0  0  0  0  0  0
   10.5406    6.3347   -8.5392 C   0  0  0  0  0  0  0  0  0  0  0  0
   10.6238    6.5413   -7.1546 C   0  0  0  0  0  0  0  0  0  0  0  0
   10.0398    7.1277   -9.5676 O   0  0  0  0  0  0  0  0  0  0  0  0
   10.6413    6.6390  -10.7544 C   0  0  0  0  0  0  0  0  0  0  0  0
   10.7893    5.2634  -10.4599 O   0  0  0  0  0  0  0  0  0  0  0  0
   11.0162    4.8581   -4.4009 H   0  0  0  0  0  0  0  0  0  0  0  0
   12.0836    3.6433   -6.2659 H   0  0  0  0  0  0  0  0  0  0  0  0
   11.9419    3.2573   -8.7382 H   0  0  0  0  0  0  0  0  0  0  0  0
   10.2234    7.4542   -6.7611 H   0  0  0  0  0  0  0  0  0  0  0  0
   11.6443    7.1047  -10.8655 H   0  0  0  0  0  0  0  0  0  0  0  0
   10.0061    6.8099  -11.6450 H   0  0  0  0  0  0  0  0  0  0  0  0
  2  1  2  0
  3  2  1  0
  4  3  2  0
  4  5  1  0
  5  6  2  0
  6  1  1  0
  1  7  1  0
  2  8  1  0
  5  9  1  0
 10 11  1  0
 11 12  2  0
 12 13  1  0
 13 14  2  0
 14 15  1  0
 15 16  2  0
 15 17  1  0
 17 18  1  0
 18 19  1  0
 16 11  1  0
 19 14  1  0
 10 20  1  0
 12 21  1  0
 13 22  1  0
 16 23  1  0
 18 24  1  0
 18 25  1  0
  3 10  1  0
M  END
>  <Score>  (1) 
-8.01232

$$$$

     RDKit          3D

 25 27  0  0  0  0  0  0  0  0999 V2000
   12.3026    8.1261   -2.3017 C   0  0  0  0  0  0  0  0  0  0  0  0
   12.0197    6.8801   -2.9173 C   0  0  0  0  0  0  0  0  0  0  0  0
   11.5260    6.8992   -4.2209 C   0  0  0  0  0  0  0  0  0  0  0  0
   11.3421    8.1091   -4.8323 N   0  0  0  0  0  0  0  0  0  0  0  0
   11.6245    9.2747   -4.2096 C   0  0  0  0  0  0  0  0  0  0  0  0
   12.1002    9.2818   -2.9562 N   0  0  0  0  0  0  0  0  0  0  0  0
   12.6824    8.0509   -1.2925 H   0  0  0  0  0  0  0  0  0  0  0  0
   12.1733    5.9582   -2.4159 H   0  0  0  0  0  0  0  0  0  0  0  0
   11.2890    5.9908   -4.7507 H   0  0  0  0  0  0  0  0  0  0  0  0
   11.4086   10.4954   -4.9064 N   0  0  0  0  0  0  0  0  0  0  0  0
   10.3843   10.7100   -5.9352 C   0  0  0  0  0  0  0  0  0  0  0  0
   11.0634   11.7061   -6.7789 C   0  0  0  0  0  0  0  0  0  0  0  0
   10.8633   12.1197   -8.0779 C   0  0  0  0  0  0  0  0  0  0  0  0
   11.6450   13.0855   -8.6669 C   0  0  0  0  0  0  0  0  0  0  0  0
   12.6418   13.6665   -7.9915 N   0  0  0  0  0  0  0  0  0  0  0  0
   12.8759   13.2997   -6.7285 C   0  0  0  0  0  0  0  0  0  0  0  0
   12.0957   12.3193   -6.1042 C   0  0  0  0  0  0  0  0  0  0  0  0
   12.1299   11.7391   -4.7514 C   0  0  0  0  0  0  0  0  0  0  0  0
   10.2515    9.7453   -6.4805 H   0  0  0  0  0  0  0  0  0  0  0  0
    9.4806   11.0727   -5.4473 H   0  0  0  0  0  0  0  0  0  0  0  0
   10.0669   11.6722   -8.6544 H   0  0  0  0  0  0  0  0  0  0  0  0
   11.4415   13.3657   -9.6796 H   0  0  0  0  0  0  0  0  0  0  0  0
   13.6970   13.7851   -6.1870 H   0  0  0  0  0  0  0  0  0  0  0  0
   11.6540   12.4228   -4.0138 H   0  0  0  0  0  0  0  0  0  0  0  0
   13.1651   11.4643   -4.4344 H   0  0  0  0  0  0  0  0  0  0  0  0
  2  1  2  0
  3  2  1  0
  4  3  2  0
  4  5  1  0
  5  6  2  0
  6  1  1  0
  1  7  1  0
  2  8  1  0
  3  9  1  0
 10 11  1  0
 11 12  1  0
 12 13  2  0
 13 14  1  0
 14 15  2  0
 15 16  1  0
 16 17  2  0
 17 18  1  0
 18 10  1  0
 17 12  1  0
 11 19  1  0
 11 20  1  0
 13 21  1  0
 14 22  1  0
 16 23  1  0
 18 24  1  0
 18 25  1  0
  5 10  1  0
M  END
>  <Score>  (1) 
-7.89229

$$$$

     RDKit          3D

 27 28  0  0  0  0  0  0  0  0999 V2000
   12.3032    8.1278   -2.3004 C   0  0  0  0  0  0  0  0  0  0  0  0
   12.0165    6.8791   -2.9245 C   0  0  0  0  0  0  0  0  0  0  0  0
   11.5263    6.9031   -4.2214 C   0  0  0  0  0  0  0  0  0  0  0  0
   11.3439    8.1025   -4.8266 N   0  0  0  0  0  0  0  0  0  0  0  0
   11.6252    9.2733   -4.2072 C   0  0  0  0  0  0  0  0  0  0  0  0
   12.0999    9.2852   -2.9579 N   0  0  0  0  0  0  0  0  0  0  0  0
   12.6808    8.0574   -1.2983 H   0  0  0  0  0  0  0  0  0  0  0  0
   12.1661    5.9715   -2.3733 H   0  0  0  0  0  0  0  0  0  0  0  0
   11.4796   10.2287   -4.6901 H   0  0  0  0  0  0  0  0  0  0  0  0
   11.2374    5.7426   -4.9535 N   0  0  0  0  0  0  0  0  0  0  0  0
   10.9014    5.6719   -6.3393 C   0  0  0  0  0  0  0  0  0  0  0  0
   11.4153    4.6276   -7.1224 C   0  0  0  0  0  0  0  0  0  0  0  0
   11.0922    4.4934   -8.4539 C   0  0  0  0  0  0  0  0  0  0  0  0
   10.2475    5.3725   -9.0982 C   0  0  0  0  0  0  0  0  0  0  0  0
    9.8315    5.2136  -10.7839 S   0  0  0  0  0  6  0  0  0  0  0  0
   10.9444    6.0780  -11.7928 N   0  0  0  0  0  0  0  0  0  0  0  0
    8.4648    5.7664  -11.0740 O   0  0  0  0  0  0  0  0  0  0  0  0
    9.8334    3.7847  -11.2401 O   0  0  0  0  0  0  0  0  0  0  0  0
    9.7362    6.4011   -8.3398 C   0  0  0  0  0  0  0  0  0  0  0  0
   10.0620    6.5375   -6.9924 C   0  0  0  0  0  0  0  0  0  0  0  0
   11.2798    4.8198   -4.3999 H   0  0  0  0  0  0  0  0  0  0  0  0
   12.0808    3.9335   -6.6182 H   0  0  0  0  0  0  0  0  0  0  0  0
   11.4975    3.6824   -9.0432 H   0  0  0  0  0  0  0  0  0  0  0  0
   11.8755    6.1505  -11.3104 H   0  0  0  0  0  0  0  0  0  0  0  0
   11.1253    5.5861  -12.6945 H   0  0  0  0  0  0  0  0  0  0  0  0
    9.0618    7.1213   -8.8115 H   0  0  0  0  0  0  0  0  0  0  0  0
    9.6074    7.3576   -6.4209 H   0  0  0  0  0  0  0  0  0  0  0  0
  2  1  2  0
  3  2  1  0
  4  3  2  0
  4  5  1  0
  5  6  2  0
  6  1  1  0
  1  7  1  0
  2  8  1  0
  5  9  1  0
 10 11  1  0
 11 12  2  0
 12 13  1  0
 13 14  2  0
 14 15  1  0
 15 16  1  0
 15 17  2  0
 15 18  2  0
 14 19  1  0
 19 20  2  0
 20 11  1  0
 10 21  1  0
 12 22  1  0
 13 23  1  0
 16 24  1  0
 16 25  1  0
 19 26  1  0
 20 27  1  0
  3 10  1  0
M  END
>  <Score>  (1) 
-7.87974

$$$$

     RDKit          3D

 26 27  0  0  0  0  0  0  0  0999 V2000
   12.3032    8.1270   -2.3001 C   0  0  0  0  0  0  0  0  0  0  0  0
   12.0185    6.8822   -2.9205 C   0  0  0  0  0  0  0  0  0  0  0  0
   11.5250    6.9000   -4.2235 C   0  0  0  0  0  0  0  0  0  0  0  0
   11.3436    8.1044   -4.8278 N   0  0  0  0  0  0  0  0  0  0  0  0
   11.6227    9.2762   -4.2144 C   0  0  0  0  0  0  0  0  0  0  0  0
   12.1019    9.2812   -2.9517 N   0  0  0  0  0  0  0  0  0  0  0  0
   12.6775    8.0723   -1.3076 H   0  0  0  0  0  0  0  0  0  0  0  0
   12.1717    5.9582   -2.4199 H   0  0  0  0  0  0  0  0  0  0  0  0
   11.4527   10.1953   -4.7590 H   0  0  0  0  0  0  0  0  0  0  0  0
   11.2183    5.6966   -4.9062 N   0  0  0  0  0  0  0  0  0  0  0  0
   11.6918    5.4272   -6.5379 S   0  0  0  0  0  6  0  0  0  0  0  0
   13.1962    5.6325   -6.5940 O   0  0  0  0  0  0  0  0  0  0  0  0
   11.4412    4.0255   -6.9744 O   0  0  0  0  0  0  0  0  0  0  0  0
   10.9877    6.5769   -7.6478 C   0  0  0  0  0  0  0  0  0  0  0  0
    9.7476    6.3375   -8.2182 C   0  0  0  0  0  0  0  0  0  0  0  0
    9.1448    7.2041   -9.1002 C   0  0  0  0  0  0  0  0  0  0  0  0
    9.7954    8.3696   -9.4407 C   0  0  0  0  0  0  0  0  0  0  0  0
    9.2929    9.0256  -10.1351 H   0  0  0  0  0  0  0  0  0  0  0  0
   11.0402    8.6560   -8.8965 C   0  0  0  0  0  0  0  0  0  0  0  0
   11.6941    9.8734   -9.2671 C   0  0  0  0  0  0  0  0  0  0  0  0
   12.2476   10.8691   -9.5607 N   0  0  0  0  0  0  0  0  0  0  0  0
   11.6096    7.7528   -8.0114 C   0  0  0  0  0  0  0  0  0  0  0  0
   10.6888    4.9683   -4.3813 H   0  0  0  0  0  0  0  0  0  0  0  0
    9.2325    5.4253   -7.9551 H   0  0  0  0  0  0  0  0  0  0  0  0
    8.1562    6.9823   -9.5359 H   0  0  0  0  0  0  0  0  0  0  0  0
   12.5697    7.9985   -7.6095 H   0  0  0  0  0  0  0  0  0  0  0  0
  2  1  2  0
  3  2  1  0
  4  3  2  0
  4  5  1  0
  5  6  2  0
  6  1  1  0
  1  7  1  0
  2  8  1  0
  5  9  1  0
 10 11  1  0
 11 12  2  0
 11 13  2  0
 11 14  1  0
 14 15  2  0
 15 16  1  0
 16 17  2  0
 17 18  1  0
 17 19  1  0
 19 20  1  0
 20 21  3  0
 19 22  2  0
 22 14  1  0
 10 23  1  0
 15 24  1  0
 16 25  1  0
 22 26  1  0
  3 10  1  0
M  END
>  <Score>  (1) 
-7.84296

$$$$

     RDKit          3D

 23 24  0  0  0  0  0  0  0  0999 V2000
   12.3026    8.1246   -2.3015 C   0  0  0  0  0  0  0  0  0  0  0  0
   12.0213    6.8826   -2.9133 C   0  0  0  0  0  0  0  0  0  0  0  0
   11.5243    6.8985   -4.2253 C   0  0  0  0  0  0  0  0  0  0  0  0
   11.3424    8.1084   -4.8313 N   0  0  0  0  0  0  0  0  0  0  0  0
   11.6233    9.2761   -4.2130 C   0  0  0  0  0  0  0  0  0  0  0  0
   12.1012    9.2808   -2.9535 N   0  0  0  0  0  0  0  0  0  0  0  0
   12.6859    8.0815   -1.2864 H   0  0  0  0  0  0  0  0  0  0  0  0
   12.1868    5.9592   -2.3803 H   0  0  0  0  0  0  0  0  0  0  0  0
   11.4758   10.2267   -4.7014 H   0  0  0  0  0  0  0  0  0  0  0  0
   11.2092    5.6289   -4.9233 C   0  0  0  0  0  0  0  0  0  0  0  0
   10.3751    5.9222   -6.1247 C   0  0  0  0  0  0  0  0  0  0  0  0
   10.9582    6.1766   -7.3462 C   0  0  0  0  0  0  0  0  0  0  0  0
   10.1844    6.4441   -8.4407 C   0  0  0  0  0  0  0  0  0  0  0  0
    8.8103    6.4730   -8.3816 C   0  0  0  0  0  0  0  0  0  0  0  0
    8.0582    6.7427   -9.4890 F   0  0  0  0  0  0  0  0  0  0  0  0
    8.2207    6.2191   -7.1617 C   0  0  0  0  0  0  0  0  0  0  0  0
    6.8687    6.2435   -7.0856 F   0  0  0  0  0  0  0  0  0  0  0  0
    8.9984    5.9486   -6.0545 C   0  0  0  0  0  0  0  0  0  0  0  0
   12.1358    5.1487   -5.2882 H   0  0  0  0  0  0  0  0  0  0  0  0
   10.6476    4.9960   -4.2075 H   0  0  0  0  0  0  0  0  0  0  0  0
   12.0448    6.1580   -7.4120 H   0  0  0  0  0  0  0  0  0  0  0  0
   10.6900    6.6419   -9.3971 H   0  0  0  0  0  0  0  0  0  0  0  0
    8.5327    5.7481   -5.0909 H   0  0  0  0  0  0  0  0  0  0  0  0
  2  1  2  0
  3  2  1  0
  4  3  2  0
  4  5  1  0
  5  6  2  0
  6  1  1  0
  1  7  1  0
  2  8  1  0
  5  9  1  0
 10 11  1  0
 11 12  2  0
 12 13  1  0
 13 14  2  0
 14 15  1  0
 14 16  1  0
 16 17  1  0
 16 18  2  0
 18 11  1  0
 10 19  1  0
 10 20  1  0
 12 21  1  0
 13 22  1  0
 18 23  1  0
  3 10  1  0
M  END
>  <Score>  (1) 
-7.81944

$$$$

     RDKit          3D

 25 26  0  0  0  0  0  0  0  0999 V2000
   12.3034    8.1234   -2.2989 C   0  0  0  0  0  0  0  0  0  0  0  0
   12.0175    6.8892   -2.9249 C   0  0  0  0  0  0  0  0  0  0  0  0
   11.5255    6.8913   -4.2205 C   0  0  0  0  0  0  0  0  0  0  0  0
   11.3443    8.1114   -4.8269 N   0  0  0  0  0  0  0  0  0  0  0  0
   11.6229    9.2722   -4.2141 C   0  0  0  0  0  0  0  0  0  0  0  0
   12.1014    9.2835   -2.9528 N   0  0  0  0  0  0  0  0  0  0  0  0
   12.6838    8.1748   -1.3007 H   0  0  0  0  0  0  0  0  0  0  0  0
   12.2070    5.9932   -2.3884 H   0  0  0  0  0  0  0  0  0  0  0  0
   11.4786   10.2283   -4.6954 H   0  0  0  0  0  0  0  0  0  0  0  0
   11.4411    5.0361  -11.1281 H   0  0  0  0  0  0  0  0  0  0  0  0
   10.4889    4.9058  -10.5774 C   0  0  0  0  0  0  0  0  0  0  0  0
   10.6614    5.1338   -9.1147 C   0  0  0  0  0  0  0  0  0  0  0  0
    9.8393    4.5509   -8.1780 C   0  0  0  0  0  0  0  0  0  0  0  0
   10.0258    4.7834   -6.8325 C   0  0  0  0  0  0  0  0  0  0  0  0
   11.0472    5.6133   -6.3507 C   0  0  0  0  0  0  0  0  0  0  0  0
   11.1730    5.7562   -4.9495 N   0  0  0  0  0  0  0  0  0  0  0  0
   11.8606    6.1872   -7.2964 C   0  0  0  0  0  0  0  0  0  0  0  0
   11.6711    5.9515   -8.6654 C   0  0  0  0  0  0  0  0  0  0  0  0
    9.7121    5.5748  -11.0049 H   0  0  0  0  0  0  0  0  0  0  0  0
   10.1618    3.8583  -10.7862 H   0  0  0  0  0  0  0  0  0  0  0  0
    9.0387    3.9019   -8.5334 H   0  0  0  0  0  0  0  0  0  0  0  0
    9.3719    4.3196   -6.0925 H   0  0  0  0  0  0  0  0  0  0  0  0
   10.9627    4.8516   -4.4030 H   0  0  0  0  0  0  0  0  0  0  0  0
   12.6733    6.8110   -6.9804 H   0  0  0  0  0  0  0  0  0  0  0  0
   12.3276    6.4186   -9.3855 H   0  0  0  0  0  0  0  0  0  0  0  0
  2  1  2  0
  3  2  1  0
  4  3  2  0
  4  5  1  0
  5  6  2  0
  6  1  1  0
  1  7  1  0
  2  8  1  0
  5  9  1  0
 10 11  1  0
 11 12  1  0
 12 13  2  0
 13 14  1  0
 14 15  2  0
 15 16  1  0
 15 17  1  0
 17 18  2  0
 18 12  1  0
 11 19  1  0
 11 20  1  0
 13 21  1  0
 14 22  1  0
 16 23  1  0
 17 24  1  0
 18 25  1  0
  3 16  1  0
M  END
>  <Score>  (1) 
-7.80214

$$$$

     RDKit          3D

 24 25  0  0  0  0  0  0  0  0999 V2000
   12.3033    8.1269   -2.2996 C   0  0  0  0  0  0  0  0  0  0  0  0
   12.0177    6.8881   -2.9244 C   0  0  0  0  0  0  0  0  0  0  0  0
   11.5251    6.8885   -4.2210 C   0  0  0  0  0  0  0  0  0  0  0  0
   11.3441    8.1135   -4.8278 N   0  0  0  0  0  0  0  0  0  0  0  0
   11.6233    9.2722   -4.2130 C   0  0  0  0  0  0  0  0  0  0  0  0
   12.1015    9.2818   -2.9523 N   0  0  0  0  0  0  0  0  0  0  0  0
   12.6872    8.1536   -1.2893 H   0  0  0  0  0  0  0  0  0  0  0  0
   12.2110    5.9825   -2.3835 H   0  0  0  0  0  0  0  0  0  0  0  0
   11.4484   10.1839   -4.7705 H   0  0  0  0  0  0  0  0  0  0  0  0
    8.5267    3.8036   -9.8067 H   0  0  0  0  0  0  0  0  0  0  0  0
    8.6868    3.9269   -8.7455 C   0  0  0  0  0  0  0  0  0  0  0  0
    7.8491    3.3663   -7.9922 O   0  0  0  0  0  0  0  0  0  0  0  0
    9.8096    4.6993   -8.2096 C   0  0  0  0  0  0  0  0  0  0  0  0
   10.6944    5.2906   -9.0827 C   0  0  0  0  0  0  0  0  0  0  0  0
   11.7652    6.0257   -8.6203 C   0  0  0  0  0  0  0  0  0  0  0  0
   11.9303    6.1561   -7.2333 C   0  0  0  0  0  0  0  0  0  0  0  0
   11.0725    5.5851   -6.3333 C   0  0  0  0  0  0  0  0  0  0  0  0
   11.1767    5.7172   -4.9285 N   0  0  0  0  0  0  0  0  0  0  0  0
   10.0031    4.8494   -6.8556 C   0  0  0  0  0  0  0  0  0  0  0  0
   10.5294    5.1646  -10.1333 H   0  0  0  0  0  0  0  0  0  0  0  0
   12.4587    6.4891   -9.3124 H   0  0  0  0  0  0  0  0  0  0  0  0
   12.7814    6.7063   -6.8757 H   0  0  0  0  0  0  0  0  0  0  0  0
   10.9745    4.8569   -4.3104 H   0  0  0  0  0  0  0  0  0  0  0  0
    9.3183    4.3920   -6.1588 H   0  0  0  0  0  0  0  0  0  0  0  0
  2  1  2  0
  3  2  1  0
  4  3  2  0
  4  5  1  0
  5  6  2  0
  6  1  1  0
  1  7  1  0
  2  8  1  0
  5  9  1  0
 10 11  1  0
 11 12  2  0
 11 13  1  0
 13 14  2  0
 14 15  1  0
 15 16  2  0
 16 17  1  0
 17 18  1  0
 17 19  2  0
 19 13  1  0
 14 20  1  0
 15 21  1  0
 16 22  1  0
 18 23  1  0
 19 24  1  0
  3 18  1  0
M  END
>  <Score>  (1) 
-7.8012

$$$$

     RDKit          3D

 25 26  0  0  0  0  0  0  0  0999 V2000
   12.3028    8.1237   -2.3010 C   0  0  0  0  0  0  0  0  0  0  0  0
   12.0201    6.8829   -2.9163 C   0  0  0  0  0  0  0  0  0  0  0  0
   11.5255    6.8975   -4.2220 C   0  0  0  0  0  0  0  0  0  0  0  0
   11.3421    8.1083   -4.8321 N   0  0  0  0  0  0  0  0  0  0  0  0
   11.6235    9.2771   -4.2124 C   0  0  0  0  0  0  0  0  0  0  0  0
   12.1010    9.2815   -2.9542 N   0  0  0  0  0  0  0  0  0  0  0  0
   12.6831    8.0574   -1.2913 H   0  0  0  0  0  0  0  0  0  0  0  0
   12.1908    5.9655   -2.3705 H   0  0  0  0  0  0  0  0  0  0  0  0
   11.4648   10.2144   -4.7290 H   0  0  0  0  0  0  0  0  0  0  0  0
   11.2258    5.6972   -4.8866 N   0  0  0  0  0  0  0  0  0  0  0  0
   11.3451    5.6207   -6.2964 C   0  0  0  0  0  0  0  0  0  0  0  0
   11.7420    6.6810   -7.0147 N   0  0  0  0  0  0  0  0  0  0  0  0
   11.8752    6.6739   -8.3521 C   0  0  0  0  0  0  0  0  0  0  0  0
   11.5697    5.4649   -8.9853 C   0  0  0  0  0  0  0  0  0  0  0  0
   11.6560    5.3963  -10.0474 H   0  0  0  0  0  0  0  0  0  0  0  0
   11.1591    4.3540   -8.2851 C   0  0  0  0  0  0  0  0  0  0  0  0
   10.8473    3.1204   -8.9313 N   0  0  0  0  0  0  0  0  0  0  0  0
   10.9325    2.9320  -10.3400 C   0  0  0  0  0  0  0  0  0  0  0  0
   11.0623    4.4799   -6.9493 N   0  0  0  0  0  0  0  0  0  0  0  0
   10.9208    4.8761   -4.3537 H   0  0  0  0  0  0  0  0  0  0  0  0
   12.1953    7.5283   -8.9328 H   0  0  0  0  0  0  0  0  0  0  0  0
   10.5410    2.3138   -8.3441 H   0  0  0  0  0  0  0  0  0  0  0  0
    9.9585    3.1381  -10.8693 H   0  0  0  0  0  0  0  0  0  0  0  0
   11.1582    1.8642  -10.5607 H   0  0  0  0  0  0  0  0  0  0  0  0
   11.7197    3.5199  -10.8437 H   0  0  0  0  0  0  0  0  0  0  0  0
  2  1  2  0
  3  2  1  0
  4  3  2  0
  4  5  1  0
  5  6  2  0
  6  1  1  0
  1  7  1  0
  2  8  1  0
  5  9  1  0
 10 11  1  0
 11 12  2  0
 12 13  1  0
 13 14  2  0
 14 15  1  0
 14 16  1  0
 16 17  1  0
 17 18  1  0
 16 19  2  0
 19 11  1  0
 10 20  1  0
 13 21  1  0
 17 22  1  0
 18 23  1  0
 18 24  1  0
 18 25  1  0
  3 10  1  0
M  END
>  <Score>  (1) 
-7.79719

$$$$

     RDKit          3D

 28 29  0  0  0  0  0  0  0  0999 V2000
   12.3028    8.1294   -2.3019 C   0  0  0  0  0  0  0  0  0  0  0  0
   12.0162    6.8820   -2.9258 C   0  0  0  0  0  0  0  0  0  0  0  0
   11.5274    6.8912   -4.2172 C   0  0  0  0  0  0  0  0  0  0  0  0
   11.3441    8.1127   -4.8270 N   0  0  0  0  0  0  0  0  0  0  0  0
   11.6224    9.2748   -4.2148 C   0  0  0  0  0  0  0  0  0  0  0  0
   12.1022    9.2808   -2.9514 N   0  0  0  0  0  0  0  0  0  0  0  0
   12.6862    8.1567   -1.2946 H   0  0  0  0  0  0  0  0  0  0  0  0
   12.1730    6.0002   -2.3578 H   0  0  0  0  0  0  0  0  0  0  0  0
   11.4778   10.2321   -4.6950 H   0  0  0  0  0  0  0  0  0  0  0  0
   11.2443    5.7193   -4.9244 N   0  0  0  0  0  0  0  0  0  0  0  0
   11.2136    5.6161   -6.3376 C   0  0  0  0  0  0  0  0  0  0  0  0
   11.7731    4.4870   -6.9544 C   0  0  0  0  0  0  0  0  0  0  0  0
   11.7480    4.2978   -8.3171 C   0  0  0  0  0  0  0  0  0  0  0  0
   11.1614    5.2267   -9.1488 C   0  0  0  0  0  0  0  0  0  0  0  0
   11.1402    5.0130  -10.6237 C   0  0  0  0  0  0  0  0  0  0  0  0
   10.6059    6.3422   -8.5606 C   0  0  0  0  0  0  0  0  0  0  0  0
    9.9739    7.3452   -9.4427 C   0  0  0  0  0  0  0  0  0  0  0  0
   10.6287    6.5386   -7.1732 C   0  0  0  0  0  0  0  0  0  0  0  0
   11.0346    4.8270   -4.3628 H   0  0  0  0  0  0  0  0  0  0  0  0
   12.2423    3.7366   -6.3309 H   0  0  0  0  0  0  0  0  0  0  0  0
   12.1874    3.4138   -8.7859 H   0  0  0  0  0  0  0  0  0  0  0  0
   11.5779    5.8800  -11.1557 H   0  0  0  0  0  0  0  0  0  0  0  0
   10.0535    4.8717  -10.8950 H   0  0  0  0  0  0  0  0  0  0  0  0
   11.6329    4.0631  -10.8398 H   0  0  0  0  0  0  0  0  0  0  0  0
   10.7531    7.8454  -10.0596 H   0  0  0  0  0  0  0  0  0  0  0  0
    9.2551    6.8904  -10.1554 H   0  0  0  0  0  0  0  0  0  0  0  0
    9.4667    8.1153   -8.8235 H   0  0  0  0  0  0  0  0  0  0  0  0
   10.1483    7.4299   -6.7586 H   0  0  0  0  0  0  0  0  0  0  0  0
  2  1  2  0
  3  2  1  0
  4  3  2  0
  4  5  1  0
  5  6  2  0
  6  1  1  0
  1  7  1  0
  2  8  1  0
  5  9  1  0
 10 11  1  0
 11 12  2  0
 12 13  1  0
 13 14  2  0
 14 15  1  0
 14 16  1  0
 16 17  1  0
 16 18  2  0
 18 11  1  0
 10 19  1  0
 12 20  1  0
 13 21  1  0
 15 22  1  0
 15 23  1  0
 15 24  1  0
 17 25  1  0
 17 26  1  0
 17 27  1  0
 18 28  1  0
  3 10  1  0
M  END
>  <Score>  (1) 
-7.7902

$$$$

     RDKit          3D

 26 27  0  0  0  0  0  0  0  0999 V2000
   12.3026    8.1237   -2.3013 C   0  0  0  0  0  0  0  0  0  0  0  0
   12.0211    6.8831   -2.9139 C   0  0  0  0  0  0  0  0  0  0  0  0
   11.5243    6.8981   -4.2251 C   0  0  0  0  0  0  0  0  0  0  0  0
   11.3424    8.1074   -4.8312 N   0  0  0  0  0  0  0  0  0  0  0  0
   11.6238    9.2771   -4.2118 C   0  0  0  0  0  0  0  0  0  0  0  0
   12.1008    9.2816   -2.9547 N   0  0  0  0  0  0  0  0  0  0  0  0
   12.6904    8.1511   -1.2818 H   0  0  0  0  0  0  0  0  0  0  0  0
   12.1869    5.9615   -2.3803 H   0  0  0  0  0  0  0  0  0  0  0  0
   11.4774   10.2265   -4.6968 H   0  0  0  0  0  0  0  0  0  0  0  0
   11.2289    5.6189   -4.8702 C   0  0  0  0  0  0  0  0  0  0  0  0
   10.7126    5.7470   -6.2442 C   0  0  0  0  0  0  0  0  0  0  0  0
    9.3612    5.8526   -6.4866 C   0  0  0  0  0  0  0  0  0  0  0  0
    8.8694    5.9745   -7.7937 C   0  0  0  0  0  0  0  0  0  0  0  0
    9.7327    5.9912   -8.8651 C   0  0  0  0  0  0  0  0  0  0  0  0
    9.1878    6.1220  -10.2498 C   0  0  0  0  0  0  0  0  0  0  0  0
   11.0801    5.8858   -8.6209 C   0  0  0  0  0  0  0  0  0  0  0  0
   11.5522    5.7663   -7.3323 C   0  0  0  0  0  0  0  0  0  0  0  0
   10.4673    5.0791   -4.2387 H   0  0  0  0  0  0  0  0  0  0  0  0
   12.1784    5.0201   -4.8988 H   0  0  0  0  0  0  0  0  0  0  0  0
    8.6699    5.8426   -5.6791 H   0  0  0  0  0  0  0  0  0  0  0  0
    7.7967    6.0576   -7.9766 H   0  0  0  0  0  0  0  0  0  0  0  0
    8.6208    5.2021  -10.4733 H   0  0  0  0  0  0  0  0  0  0  0  0
    8.4522    6.9560  -10.2120 H   0  0  0  0  0  0  0  0  0  0  0  0
    9.9634    6.3653  -10.9760 H   0  0  0  0  0  0  0  0  0  0  0  0
   11.7461    5.9015   -9.4883 H   0  0  0  0  0  0  0  0  0  0  0  0
   12.6364    5.6863   -7.2040 H   0  0  0  0  0  0  0  0  0  0  0  0
  2  1  2  0
  3  2  1  0
  4  3  2  0
  4  5  1  0
  5  6  2  0
  6  1  1  0
  1  7  1  0
  2  8  1  0
  5  9  1  0
 10 11  1  0
 11 12  2  0
 12 13  1  0
 13 14  2  0
 14 15  1  0
 14 16  1  0
 16 17  2  0
 17 11  1  0
 10 18  1  0
 10 19  1  0
 12 20  1  0
 13 21  1  0
 15 22  1  0
 15 23  1  0
 15 24  1  0
 16 25  1  0
 17 26  1  0
  3 10  1  0
M  END
>  <Score>  (1) 
-7.7415

$$$$

     RDKit          3D

 25 26  0  0  0  0  0  0  0  0999 V2000
   12.3007    8.1326   -2.3077 C   0  0  0  0  0  0  0  0  0  0  0  0
   12.0176    6.8771   -2.9213 C   0  0  0  0  0  0  0  0  0  0  0  0
   11.5256    6.8895   -4.2219 C   0  0  0  0  0  0  0  0  0  0  0  0
   11.3460    8.1134   -4.8222 N   0  0  0  0  0  0  0  0  0  0  0  0
   11.6237    9.2758   -4.2114 C   0  0  0  0  0  0  0  0  0  0  0  0
   12.1015    9.2826   -2.9535 N   0  0  0  0  0  0  0  0  0  0  0  0
   12.6807    8.0641   -1.2993 H   0  0  0  0  0  0  0  0  0  0  0  0
   12.1700    5.9844   -2.3654 H   0  0  0  0  0  0  0  0  0  0  0  0
   11.4852   10.2356   -4.6761 H   0  0  0  0  0  0  0  0  0  0  0  0
   11.2409    5.7069   -4.9361 N   0  0  0  0  0  0  0  0  0  0  0  0
   11.2019    5.5714   -6.3359 C   0  0  0  0  0  0  0  0  0  0  0  0
   10.6339    6.5201   -7.1259 C   0  0  0  0  0  0  0  0  0  0  0  0
   10.6399    6.3714   -8.5167 C   0  0  0  0  0  0  0  0  0  0  0  0
   11.2082    5.2818   -9.1198 C   0  0  0  0  0  0  0  0  0  0  0  0
   11.7854    4.3131   -8.3372 C   0  0  0  0  0  0  0  0  0  0  0  0
   12.4031    3.1289   -8.9789 C   0  0  0  0  0  0  0  0  0  0  0  0
   11.7769    4.4655   -6.9691 C   0  0  0  0  0  0  0  0  0  0  0  0
   11.0434    4.8556   -4.3064 H   0  0  0  0  0  0  0  0  0  0  0  0
   10.1469    7.3861   -6.7494 H   0  0  0  0  0  0  0  0  0  0  0  0
   10.1850    7.1350   -9.1298 H   0  0  0  0  0  0  0  0  0  0  0  0
   11.1959    5.1961  -10.2103 H   0  0  0  0  0  0  0  0  0  0  0  0
   13.2590    3.4714   -9.6116 H   0  0  0  0  0  0  0  0  0  0  0  0
   11.6301    2.5987   -9.5913 H   0  0  0  0  0  0  0  0  0  0  0  0
   12.8113    2.4489   -8.2041 H   0  0  0  0  0  0  0  0  0  0  0  0
   12.2184    3.7301   -6.3146 H   0  0  0  0  0  0  0  0  0  0  0  0
  2  1  2  0
  3  2  1  0
  4  3  2  0
  4  5  1  0
  5  6  2  0
  6  1  1  0
  1  7  1  0
  2  8  1  0
  5  9  1  0
 10 11  1  0
 11 12  2  0
 12 13  1  0
 13 14  2  0
 14 15  1  0
 15 16  1  0
 15 17  2  0
 17 11  1  0
 10 18  1  0
 12 19  1  0
 13 20  1  0
 14 21  1  0
 16 22  1  0
 16 23  1  0
 16 24  1  0
 17 25  1  0
  3 10  1  0
M  END
>  <Score>  (1) 
-7.73271

$$$$

     RDKit          3D

 25 26  0  0  0  0  0  0  0  0999 V2000
   12.3030    8.1259   -2.3007 C   0  0  0  0  0  0  0  0  0  0  0  0
   12.0197    6.8829   -2.9172 C   0  0  0  0  0  0  0  0  0  0  0  0
   11.5242    6.8966   -4.2254 C   0  0  0  0  0  0  0  0  0  0  0  0
   11.3438    8.1075   -4.8276 N   0  0  0  0  0  0  0  0  0  0  0  0
   11.6231    9.2767   -4.2135 C   0  0  0  0  0  0  0  0  0  0  0  0
   12.1012    9.2815   -2.9536 N   0  0  0  0  0  0  0  0  0  0  0  0
   12.6792    8.0573   -1.3016 H   0  0  0  0  0  0  0  0  0  0  0  0
   12.1875    5.9688   -2.3711 H   0  0  0  0  0  0  0  0  0  0  0  0
   11.4678   10.2217   -4.7217 H   0  0  0  0  0  0  0  0  0  0  0  0
   11.2276    5.6846   -4.8910 N   0  0  0  0  0  0  0  0  0  0  0  0
   12.0202    5.1158   -5.9315 C   0  0  0  0  0  0  0  0  0  0  0  0
   12.1154    5.9467   -7.1534 C   0  0  0  0  0  0  0  0  0  0  0  0
   13.0060    5.5752   -8.1357 C   0  0  0  0  0  0  0  0  0  0  0  0
   13.1658    6.2779   -9.3111 C   0  0  0  0  0  0  0  0  0  0  0  0
   12.3989    7.4004   -9.5076 C   0  0  0  0  0  0  0  0  0  0  0  0
   12.5518    8.3497  -10.9919 Cl  0  0  0  0  0  0  0  0  0  0  0  0
   11.5114    7.7799   -8.5408 C   0  0  0  0  0  0  0  0  0  0  0  0
   11.3549    7.0725   -7.3648 C   0  0  0  0  0  0  0  0  0  0  0  0
   10.3553    5.1753   -4.5868 H   0  0  0  0  0  0  0  0  0  0  0  0
   13.0574    5.0061   -5.5429 H   0  0  0  0  0  0  0  0  0  0  0  0
   11.6479    4.1159   -6.2228 H   0  0  0  0  0  0  0  0  0  0  0  0
   13.6217    4.6834   -7.9900 H   0  0  0  0  0  0  0  0  0  0  0  0
   13.8692    5.9801  -10.0811 H   0  0  0  0  0  0  0  0  0  0  0  0
   10.8924    8.6773   -8.6884 H   0  0  0  0  0  0  0  0  0  0  0  0
   10.6437    7.3934   -6.6132 H   0  0  0  0  0  0  0  0  0  0  0  0
  2  1  2  0
  3  2  1  0
  4  3  2  0
  4  5  1  0
  5  6  2  0
  6  1  1  0
  1  7  1  0
  2  8  1  0
  5  9  1  0
 10 11  1  0
 11 12  1  0
 12 13  2  0
 13 14  1  0
 14 15  2  0
 15 16  1  0
 15 17  1  0
 17 18  2  0
 18 12  1  0
 10 19  1  0
 11 20  1  0
 11 21  1  0
 13 22  1  0
 14 23  1  0
 17 24  1  0
 18 25  1  0
  3 10  1  0
M  END
>  <Score>  (1) 
-7.72701

$$$$

     RDKit          3D

 20 21  0  0  0  0  0  0  0  0999 V2000
   12.3027    8.1228   -2.3011 C   0  0  0  0  0  0  0  0  0  0  0  0
   12.0212    6.8851   -2.9138 C   0  0  0  0  0  0  0  0  0  0  0  0
   11.5247    6.8963   -4.2240 C   0  0  0  0  0  0  0  0  0  0  0  0
   11.3426    8.1124   -4.8313 N   0  0  0  0  0  0  0  0  0  0  0  0
   11.6233    9.2736   -4.2127 C   0  0  0  0  0  0  0  0  0  0  0  0
   12.1006    9.2809   -2.9551 N   0  0  0  0  0  0  0  0  0  0  0  0
   12.6814    8.0694   -1.2970 H   0  0  0  0  0  0  0  0  0  0  0  0
   12.1797    5.9528   -2.3983 H   0  0  0  0  0  0  0  0  0  0  0  0
   11.2934    5.9729   -4.7371 H   0  0  0  0  0  0  0  0  0  0  0  0
   11.4204   10.5555   -4.8819 C   0  0  0  0  0  0  0  0  0  0  0  0
   11.4086   11.7430   -4.1768 C   0  0  0  0  0  0  0  0  0  0  0  0
   11.2176   12.9609   -4.7997 C   0  0  0  0  0  0  0  0  0  0  0  0
   11.0284   13.0521   -6.1625 C   0  0  0  0  0  0  0  0  0  0  0  0
   10.8393   14.2549   -6.7807 F   0  0  0  0  0  0  0  0  0  0  0  0
   11.0388   11.8711   -6.8736 C   0  0  0  0  0  0  0  0  0  0  0  0
   10.8011   11.9349   -8.6202 Cl  0  0  0  0  0  0  0  0  0  0  0  0
   11.2303   10.6574   -6.2446 C   0  0  0  0  0  0  0  0  0  0  0  0
   11.5582   11.6888   -3.0874 H   0  0  0  0  0  0  0  0  0  0  0  0
   11.2099   13.8936   -4.2338 H   0  0  0  0  0  0  0  0  0  0  0  0
   11.2410    9.7063   -6.8008 H   0  0  0  0  0  0  0  0  0  0  0  0
  2  1  2  0
  3  2  1  0
  4  3  2  0
  4  5  1  0
  5  6  2  0
  6  1  1  0
  1  7  1  0
  2  8  1  0
  3  9  1  0
 10 11  2  0
 11 12  1  0
 12 13  2  0
 13 14  1  0
 13 15  1  0
 15 16  1  0
 15 17  2  0
 17 10  1  0
 11 18  1  0
 12 19  1  0
 17 20  1  0
  5 10  1  0
M  END
>  <Score>  (1) 
-7.86564

$$$$

     RDKit          3D

 26 28  0  0  0  0  0  0  0  0999 V2000
   12.3027    8.1209   -2.3009 C   0  0  0  0  0  0  0  0  0  0  0  0
   12.0216    6.8883   -2.9130 C   0  0  0  0  0  0  0  0  0  0  0  0
   11.5235    6.8995   -4.2274 C   0  0  0  0  0  0  0  0  0  0  0  0
   11.3430    8.1088   -4.8299 N   0  0  0  0  0  0  0  0  0  0  0  0
   11.6229    9.2713   -4.2135 C   0  0  0  0  0  0  0  0  0  0  0  0
   12.1013    9.2822   -2.9533 N   0  0  0  0  0  0  0  0  0  0  0  0
   12.6864    8.1277   -1.2900 H   0  0  0  0  0  0  0  0  0  0  0  0
   12.1840    5.9585   -2.3875 H   0  0  0  0  0  0  0  0  0  0  0  0
   11.3044    5.9757   -4.7084 H   0  0  0  0  0  0  0  0  0  0  0  0
   11.4188   10.5366   -4.8839 N   0  0  0  0  0  0  0  0  0  0  0  0
   12.4824   11.4106   -5.0955 C   0  0  0  0  0  0  0  0  0  0  0  0
   13.7163   11.0645   -4.6661 N   0  0  0  0  0  0  0  0  0  0  0  0
   14.7822   11.8714   -4.8440 C   0  0  0  0  0  0  0  0  0  0  0  0
   14.6664   13.0557   -5.4559 N   0  0  0  0  0  0  0  0  0  0  0  0
   13.4680   13.4526   -5.9030 C   0  0  0  0  0  0  0  0  0  0  0  0
   13.3392   14.6671   -6.5325 C   0  0  0  0  0  0  0  0  0  0  0  0
   14.1948   15.3131   -6.6743 H   0  0  0  0  0  0  0  0  0  0  0  0
   12.1137   15.0954   -7.0010 C   0  0  0  0  0  0  0  0  0  0  0  0
   11.0150   14.2811   -6.8262 C   0  0  0  0  0  0  0  0  0  0  0  0
   11.1502   13.0436   -6.1839 C   0  0  0  0  0  0  0  0  0  0  0  0
   12.3505   12.6185   -5.7225 C   0  0  0  0  0  0  0  0  0  0  0  0
   10.4635   10.7576   -5.1931 H   0  0  0  0  0  0  0  0  0  0  0  0
   15.7244   11.4912   -4.4586 H   0  0  0  0  0  0  0  0  0  0  0  0
   12.0256   16.0501   -7.4930 H   0  0  0  0  0  0  0  0  0  0  0  0
   10.0234   14.5563   -7.1698 H   0  0  0  0  0  0  0  0  0  0  0  0
   10.2573   12.4291   -6.0655 H   0  0  0  0  0  0  0  0  0  0  0  0
  2  1  2  0
  3  2  1  0
  4  3  2  0
  4  5  1  0
  5  6  2  0
  6  1  1  0
  1  7  1  0
  2  8  1  0
  3  9  1  0
 10 11  1  0
 11 12  2  0
 12 13  1  0
 13 14  2  0
 14 15  1  0
 15 16  2  0
 16 17  1  0
 16 18  1  0
 18 19  2  0
 19 20  1  0
 20 21  2  0
 21 11  1  0
 21 15  1  0
 10 22  1  0
 13 23  1  0
 18 24  1  0
 19 25  1  0
 20 26  1  0
  5 10  1  0
M  END
>  <Score>  (1) 
-8.7084

$$$$

     RDKit          3D

 23 24  0  0  0  0  0  0  0  0999 V2000
   12.3017    8.1206   -2.3034 C   0  0  0  0  0  0  0  0  0  0  0  0
   12.0215    6.8863   -2.9131 C   0  0  0  0  0  0  0  0  0  0  0  0
   11.5254    6.8968   -4.2220 C   0  0  0  0  0  0  0  0  0  0  0  0
   11.3411    8.1088   -4.8349 N   0  0  0  0  0  0  0  0  0  0  0  0
   11.6247    9.2768   -4.2094 C   0  0  0  0  0  0  0  0  0  0  0  0
   12.1006    9.2817   -2.9552 N   0  0  0  0  0  0  0  0  0  0  0  0
   12.6819    8.1011   -1.2985 H   0  0  0  0  0  0  0  0  0  0  0  0
   12.1741    5.9586   -2.4143 H   0  0  0  0  0  0  0  0  0  0  0  0
   11.4805   10.2328   -4.6909 H   0  0  0  0  0  0  0  0  0  0  0  0
   11.2351    5.6195   -4.8532 C   0  0  0  0  0  0  0  0  0  0  0  0
    9.9517    5.5684   -5.5651 C   0  0  0  0  0  0  0  0  0  0  0  0
    9.8523    5.6267   -6.9398 C   0  0  0  0  0  0  0  0  0  0  0  0
    8.6409    5.5779   -7.5992 C   0  0  0  0  0  0  0  0  0  0  0  0
    8.5971    5.6269   -8.6974 H   0  0  0  0  0  0  0  0  0  0  0  0
    7.4586    5.4668   -6.8974 C   0  0  0  0  0  0  0  0  0  0  0  0
    7.5399    5.4073   -5.5219 C   0  0  0  0  0  0  0  0  0  0  0  0
    8.7658    5.4572   -4.8666 C   0  0  0  0  0  0  0  0  0  0  0  0
    8.8279    5.3784   -3.1079 Cl  0  0  0  0  0  0  0  0  0  0  0  0
   12.0952    5.3725   -5.5364 H   0  0  0  0  0  0  0  0  0  0  0  0
   11.2928    4.8202   -4.0572 H   0  0  0  0  0  0  0  0  0  0  0  0
   10.7985    5.7149   -7.4834 H   0  0  0  0  0  0  0  0  0  0  0  0
    6.5074    5.4290   -7.4229 H   0  0  0  0  0  0  0  0  0  0  0  0
    6.6141    5.3197   -4.9635 H   0  0  0  0  0  0  0  0  0  0  0  0
  2  1  2  0
  3  2  1  0
  4  3  2  0
  4  5  1  0
  5  6  2  0
  6  1  1  0
  1  7  1  0
  2  8  1  0
  5  9  1  0
 10 11  1  0
 11 12  2  0
 12 13  1  0
 13 14  1  0
 13 15  2  0
 15 16  1  0
 16 17  2  0
 17 18  1  0
 17 11  1  0
 10 19  1  0
 10 20  1  0
 12 21  1  0
 15 22  1  0
 16 23  1  0
  3 10  1  0
M  END
>  <Score>  (1) 
-7.69602

$$$$

     RDKit          3D

 34 35  0  0  0  0  0  0  0  0999 V2000
   12.3030    8.1286   -2.3008 C   0  0  0  0  0  0  0  0  0  0  0  0
   12.0190    6.8797   -2.9190 C   0  0  0  0  0  0  0  0  0  0  0  0
   11.5259    6.8986   -4.2210 C   0  0  0  0  0  0  0  0  0  0  0  0
   11.3422    8.1071   -4.8319 N   0  0  0  0  0  0  0  0  0  0  0  0
   11.6233    9.2775   -4.2132 C   0  0  0  0  0  0  0  0  0  0  0  0
   12.1016    9.2795   -2.9522 N   0  0  0  0  0  0  0  0  0  0  0  0
   12.6806    8.1468   -1.3073 H   0  0  0  0  0  0  0  0  0  0  0  0
   12.1803    5.9613   -2.3977 H   0  0  0  0  0  0  0  0  0  0  0  0
   11.4468   10.1819   -4.7730 H   0  0  0  0  0  0  0  0  0  0  0  0
   10.5142    5.1581  -11.0941 H   0  0  0  0  0  0  0  0  0  0  0  0
   10.6998    6.2191  -11.3568 C   0  0  0  0  0  0  0  0  0  0  0  0
   11.7297    6.7622  -10.3893 C   0  0  0  0  0  0  0  0  0  0  0  0
   11.6906    5.9709   -9.0774 C   0  0  1  0  0  0  0  0  0  0  0  0
   12.7281    6.5379   -8.1374 C   0  0  0  0  0  0  0  0  0  0  0  0
   12.7076    5.7762   -6.8465 C   0  0  0  0  0  0  0  0  0  0  0  0
   11.3051    5.5365   -6.3247 C   0  0  1  0  0  0  0  0  0  0  0  0
   11.2155    5.6905   -4.9130 N   0  0  0  0  0  0  0  0  0  0  0  0
   10.3874    6.4934   -7.0756 C   0  0  0  0  0  0  0  0  0  0  0  0
   10.3111    5.9531   -8.4986 C   0  0  0  0  0  0  0  0  0  0  0  0
   11.0229    6.2647  -12.4038 H   0  0  0  0  0  0  0  0  0  0  0  0
    9.7493    6.7780  -11.1775 H   0  0  0  0  0  0  0  0  0  0  0  0
   12.7261    6.6209  -10.8496 H   0  0  0  0  0  0  0  0  0  0  0  0
   11.5405    7.8362  -10.1921 H   0  0  0  0  0  0  0  0  0  0  0  0
   12.0400    4.9307   -9.3282 H   0  0  0  0  0  0  0  0  0  0  0  0
   13.7253    6.3238   -8.6195 H   0  0  0  0  0  0  0  0  0  0  0  0
   12.6335    7.6355   -8.0070 H   0  0  0  0  0  0  0  0  0  0  0  0
   13.2569    6.3304   -6.0467 H   0  0  0  0  0  0  0  0  0  0  0  0
   13.2400    4.8192   -7.0007 H   0  0  0  0  0  0  0  0  0  0  0  0
   10.9774    4.5185   -6.6082 H   0  0  0  0  0  0  0  0  0  0  0  0
   10.9060    4.8801   -4.3375 H   0  0  0  0  0  0  0  0  0  0  0  0
    9.3686    6.4871   -6.6318 H   0  0  0  0  0  0  0  0  0  0  0  0
   10.7664    7.5264   -7.0746 H   0  0  0  0  0  0  0  0  0  0  0  0
    9.9883    4.8793   -8.3903 H   0  0  0  0  0  0  0  0  0  0  0  0
    9.5585    6.4649   -9.1028 H   0  0  0  0  0  0  0  0  0  0  0  0
  2  1  2  0
  3  2  1  0
  4  3  2  0
  4  5  1  0
  5  6  2  0
  6  1  1  0
  1  7  1  0
  2  8  1  0
  5  9  1  0
 10 11  1  0
 11 12  1  0
 12 13  1  0
 13 14  1  0
 14 15  1  0
 15 16  1  0
 16 17  1  0
 16 18  1  0
 18 19  1  0
 19 13  1  0
 11 20  1  0
 11 21  1  0
 12 22  1  0
 12 23  1  0
 13 24  1  6
 14 25  1  0
 14 26  1  0
 15 27  1  0
 15 28  1  0
 16 29  1  1
 17 30  1  0
 18 31  1  0
 18 32  1  0
 19 33  1  0
 19 34  1  0
  3 17  1  0
M  END
>  <Score>  (1) 
-7.68359

$$$$

     RDKit          3D

 23 24  0  0  0  0  0  0  0  0999 V2000
   12.3025    8.1233   -2.3015 C   0  0  0  0  0  0  0  0  0  0  0  0
   12.0216    6.8833   -2.9126 C   0  0  0  0  0  0  0  0  0  0  0  0
   11.5240    6.8983   -4.2259 C   0  0  0  0  0  0  0  0  0  0  0  0
   11.3424    8.1075   -4.8313 N   0  0  0  0  0  0  0  0  0  0  0  0
   11.6237    9.2772   -4.2120 C   0  0  0  0  0  0  0  0  0  0  0  0
   12.1008    9.2813   -2.9546 N   0  0  0  0  0  0  0  0  0  0  0  0
   12.6891    8.1333   -1.2835 H   0  0  0  0  0  0  0  0  0  0  0  0
   12.1816    5.9612   -2.3942 H   0  0  0  0  0  0  0  0  0  0  0  0
   11.4464   10.1877   -4.7746 H   0  0  0  0  0  0  0  0  0  0  0  0
   11.2268    5.6185   -4.8757 C   0  0  0  0  0  0  0  0  0  0  0  0
   10.7087    5.7745   -6.2577 C   0  0  0  0  0  0  0  0  0  0  0  0
   11.5478    5.8081   -7.3534 C   0  0  0  0  0  0  0  0  0  0  0  0
   11.0180    5.9549   -8.6182 C   0  0  0  0  0  0  0  0  0  0  0  0
    9.6507    6.0718   -8.8307 C   0  0  0  0  0  0  0  0  0  0  0  0
    9.1394    6.2173  -10.0968 F   0  0  0  0  0  0  0  0  0  0  0  0
    8.8233    6.0370   -7.7312 C   0  0  0  0  0  0  0  0  0  0  0  0
    9.3379    5.8907   -6.4588 C   0  0  0  0  0  0  0  0  0  0  0  0
   12.1545    5.0290   -4.9349 H   0  0  0  0  0  0  0  0  0  0  0  0
   10.4665    5.0913   -4.2392 H   0  0  0  0  0  0  0  0  0  0  0  0
   12.6244    5.7176   -7.2035 H   0  0  0  0  0  0  0  0  0  0  0  0
   11.6805    5.9800   -9.4670 H   0  0  0  0  0  0  0  0  0  0  0  0
    7.7589    6.1293   -7.9132 H   0  0  0  0  0  0  0  0  0  0  0  0
    8.6380    5.8715   -5.6488 H   0  0  0  0  0  0  0  0  0  0  0  0
  2  1  2  0
  3  2  1  0
  4  3  2  0
  4  5  1  0
  5  6  2  0
  6  1  1  0
  1  7  1  0
  2  8  1  0
  5  9  1  0
 10 11  1  0
 11 12  2  0
 12 13  1  0
 13 14  2  0
 14 15  1  0
 14 16  1  0
 16 17  2  0
 17 11  1  0
 10 18  1  0
 10 19  1  0
 12 20  1  0
 13 21  1  0
 16 22  1  0
 17 23  1  0
  3 10  1  0
M  END
>  <Score>  (1) 
-7.63896

$$$$

     RDKit          3D

 23 24  0  0  0  0  0  0  0  0999 V2000
   12.3025    8.1227   -2.3017 C   0  0  0  0  0  0  0  0  0  0  0  0
   12.0214    6.8838   -2.9131 C   0  0  0  0  0  0  0  0  0  0  0  0
   11.5244    6.8975   -4.2249 C   0  0  0  0  0  0  0  0  0  0  0  0
   11.3423    8.1084   -4.8317 N   0  0  0  0  0  0  0  0  0  0  0  0
   11.6236    9.2770   -4.2122 C   0  0  0  0  0  0  0  0  0  0  0  0
   12.1008    9.2815   -2.9545 N   0  0  0  0  0  0  0  0  0  0  0  0
   12.6838    8.0737   -1.2911 H   0  0  0  0  0  0  0  0  0  0  0  0
   12.1788    5.9600   -2.4015 H   0  0  0  0  0  0  0  0  0  0  0  0
   11.4462   10.1870   -4.7752 H   0  0  0  0  0  0  0  0  0  0  0  0
   11.2185    5.6300   -4.8988 C   0  0  0  0  0  0  0  0  0  0  0  0
    9.9151    5.6509   -5.6097 C   0  0  0  0  0  0  0  0  0  0  0  0
    9.7946    6.0446   -6.9274 C   0  0  0  0  0  0  0  0  0  0  0  0
    8.5871    6.0655   -7.5909 C   0  0  0  0  0  0  0  0  0  0  0  0
    7.4648    5.6750   -6.8979 C   0  0  0  0  0  0  0  0  0  0  0  0
    7.5576    5.2764   -5.5782 C   0  0  0  0  0  0  0  0  0  0  0  0
    6.4197    4.8922   -4.9136 F   0  0  0  0  0  0  0  0  0  0  0  0
    8.7742    5.2557   -4.9110 C   0  0  0  0  0  0  0  0  0  0  0  0
   11.2889    4.7941   -4.1776 H   0  0  0  0  0  0  0  0  0  0  0  0
   11.9978    5.4200   -5.6774 H   0  0  0  0  0  0  0  0  0  0  0  0
   10.7263    6.3432   -7.4207 H   0  0  0  0  0  0  0  0  0  0  0  0
    8.5711    6.3860   -8.6226 H   0  0  0  0  0  0  0  0  0  0  0  0
    6.5025    5.6847   -7.4043 H   0  0  0  0  0  0  0  0  0  0  0  0
    8.8342    4.9416   -3.8779 H   0  0  0  0  0  0  0  0  0  0  0  0
  2  1  2  0
  3  2  1  0
  4  3  2  0
  4  5  1  0
  5  6  2  0
  6  1  1  0
  1  7  1  0
  2  8  1  0
  5  9  1  0
 10 11  1  0
 11 12  2  0
 12 13  1  0
 13 14  2  0
 14 15  1  0
 15 16  1  0
 15 17  2  0
 17 11  1  0
 10 18  1  0
 10 19  1  0
 12 20  1  0
 13 21  1  0
 14 22  1  0
 17 23  1  0
  3 10  1  0
M  END
>  <Score>  (1) 
-7.62159

$$$$

     RDKit          3D

 25 26  0  0  0  0  0  0  0  0999 V2000
   12.3027    8.1314   -2.3017 C   0  0  0  0  0  0  0  0  0  0  0  0
   12.0168    6.8846   -2.9263 C   0  0  0  0  0  0  0  0  0  0  0  0
   11.5252    6.8915   -4.2211 C   0  0  0  0  0  0  0  0  0  0  0  0
   11.3443    8.1073   -4.8264 N   0  0  0  0  0  0  0  0  0  0  0  0
   11.6241    9.2760   -4.2111 C   0  0  0  0  0  0  0  0  0  0  0  0
   12.1018    9.2802   -2.9513 N   0  0  0  0  0  0  0  0  0  0  0  0
   12.6868    8.1520   -1.2905 H   0  0  0  0  0  0  0  0  0  0  0  0
   12.1998    5.9873   -2.4071 H   0  0  0  0  0  0  0  0  0  0  0  0
   11.4843   10.2274   -4.6803 H   0  0  0  0  0  0  0  0  0  0  0  0
   11.1702    5.7484   -4.9525 N   0  0  0  0  0  0  0  0  0  0  0  0
   11.0414    5.5818   -6.3325 C   0  0  0  0  0  0  0  0  0  0  0  0
   11.8298    6.1675   -7.2720 C   0  0  0  0  0  0  0  0  0  0  0  0
   11.6197    5.9833   -8.6490 C   0  0  0  0  0  0  0  0  0  0  0  0
   10.5938    5.1907   -9.0997 C   0  0  0  0  0  0  0  0  0  0  0  0
   10.3714    4.9913  -10.8227 S   0  0  0  0  0  6  0  0  0  0  0  0
   11.5398    4.4253  -11.3111 H   0  0  0  0  0  0  0  0  0  0  0  0
    9.1926    4.1137  -11.1132 O   0  0  0  0  0  0  0  0  0  0  0  0
   10.2547    6.3328  -11.5003 O   0  0  0  0  0  0  0  0  0  0  0  0
    9.7895    4.5914   -8.1607 C   0  0  0  0  0  0  0  0  0  0  0  0
    9.9967    4.7736   -6.8086 C   0  0  0  0  0  0  0  0  0  0  0  0
   10.9637    4.8633   -4.3679 H   0  0  0  0  0  0  0  0  0  0  0  0
   12.6648    6.7776   -6.9662 H   0  0  0  0  0  0  0  0  0  0  0  0
   12.2837    6.4791   -9.3603 H   0  0  0  0  0  0  0  0  0  0  0  0
    8.9820    3.9665   -8.5446 H   0  0  0  0  0  0  0  0  0  0  0  0
    9.3471    4.2892   -6.0730 H   0  0  0  0  0  0  0  0  0  0  0  0
  2  1  2  0
  3  2  1  0
  4  3  2  0
  4  5  1  0
  5  6  2  0
  6  1  1  0
  1  7  1  0
  2  8  1  0
  5  9  1  0
 10 11  1  0
 11 12  2  0
 12 13  1  0
 13 14  2  0
 14 15  1  0
 15 16  1  0
 15 17  2  0
 15 18  2  0
 14 19  1  0
 19 20  2  0
 20 11  1  0
 10 21  1  0
 12 22  1  0
 13 23  1  0
 19 24  1  0
 20 25  1  0
  3 10  1  0
M  END
>  <Score>  (1) 
-7.60923

$$$$

     RDKit          3D

 21 22  0  0  0  0  0  0  0  0999 V2000
   12.3031    8.1278   -2.3006 C   0  0  0  0  0  0  0  0  0  0  0  0
   12.0194    6.8798   -2.9179 C   0  0  0  0  0  0  0  0  0  0  0  0
   11.5254    6.9002   -4.2225 C   0  0  0  0  0  0  0  0  0  0  0  0
   11.3420    8.1046   -4.8319 N   0  0  0  0  0  0  0  0  0  0  0  0
   11.6239    9.2785   -4.2116 C   0  0  0  0  0  0  0  0  0  0  0  0
   12.1011    9.2801   -2.9536 N   0  0  0  0  0  0  0  0  0  0  0  0
   12.6834    8.1685   -1.3022 H   0  0  0  0  0  0  0  0  0  0  0  0
   12.1865    5.9667   -2.3819 H   0  0  0  0  0  0  0  0  0  0  0  0
   11.4814   10.2362   -4.6876 H   0  0  0  0  0  0  0  0  0  0  0  0
   11.2554    5.6961   -4.8083 O   0  0  0  0  0  0  0  0  0  0  0  0
   11.0474    5.4920   -6.1566 C   0  0  0  0  0  0  0  0  0  0  0  0
   11.9043    4.6331   -6.8172 C   0  0  0  0  0  0  0  0  0  0  0  0
   11.7885    4.3562   -8.1649 C   0  0  0  0  0  0  0  0  0  0  0  0
   10.7640    4.9810   -8.8448 C   0  0  0  0  0  0  0  0  0  0  0  0
   10.6250    4.7272  -10.1745 F   0  0  0  0  0  0  0  0  0  0  0  0
    9.8934    5.8491   -8.1899 C   0  0  0  0  0  0  0  0  0  0  0  0
   10.0246    6.1137   -6.8429 C   0  0  0  0  0  0  0  0  0  0  0  0
    9.1684    6.9659   -6.2046 F   0  0  0  0  0  0  0  0  0  0  0  0
   12.7214    4.1296   -6.2941 H   0  0  0  0  0  0  0  0  0  0  0  0
   12.4438    3.6890   -8.7083 H   0  0  0  0  0  0  0  0  0  0  0  0
    9.0892    6.3353   -8.7388 H   0  0  0  0  0  0  0  0  0  0  0  0
  2  1  2  0
  3  2  1  0
  4  3  2  0
  4  5  1  0
  5  6  2  0
  6  1  1  0
  1  7  1  0
  2  8  1  0
  5  9  1  0
 10 11  1  0
 11 12  2  0
 12 13  1  0
 13 14  2  0
 14 15  1  0
 14 16  1  0
 16 17  2  0
 17 18  1  0
 17 11  1  0
 12 19  1  0
 13 20  1  0
 16 21  1  0
  3 10  1  0
M  END
>  <Score>  (1) 
-7.59445

$$$$

     RDKit          3D

 26 27  0  0  0  0  0  0  0  0999 V2000
   12.3025    8.1230   -2.3015 C   0  0  0  0  0  0  0  0  0  0  0  0
   12.0217    6.8833   -2.9122 C   0  0  0  0  0  0  0  0  0  0  0  0
   11.5238    6.8993   -4.2265 C   0  0  0  0  0  0  0  0  0  0  0  0
   11.3423    8.1061   -4.8314 N   0  0  0  0  0  0  0  0  0  0  0  0
   11.6241    9.2777   -4.2110 C   0  0  0  0  0  0  0  0  0  0  0  0
   12.1005    9.2817   -2.9553 N   0  0  0  0  0  0  0  0  0  0  0  0
   12.6889    8.1181   -1.2825 H   0  0  0  0  0  0  0  0  0  0  0  0
   12.1828    5.9587   -2.3909 H   0  0  0  0  0  0  0  0  0  0  0  0
   11.4565   10.2099   -4.7504 H   0  0  0  0  0  0  0  0  0  0  0  0
   11.2188    5.6211   -4.8972 C   0  0  0  0  0  0  0  0  0  0  0  0
   11.7456    5.5985   -6.3179 C   0  0  0  0  0  0  0  0  0  0  0  0
   11.4417    4.3202   -6.9918 C   0  0  0  0  0  0  0  0  0  0  0  0
   12.3013    3.2337   -6.9487 C   0  0  0  0  0  0  0  0  0  0  0  0
   11.9917    2.0483   -7.5890 C   0  0  0  0  0  0  0  0  0  0  0  0
   10.7984    1.9723   -8.2764 C   0  0  0  0  0  0  0  0  0  0  0  0
    9.9028    3.0260   -8.3523 C   0  0  0  0  0  0  0  0  0  0  0  0
   10.2602    4.1934   -7.6928 C   0  0  0  0  0  0  0  0  0  0  0  0
   11.6723    4.8075   -4.2907 H   0  0  0  0  0  0  0  0  0  0  0  0
   10.1295    5.4077   -4.9222 H   0  0  0  0  0  0  0  0  0  0  0  0
   12.8690    5.6453   -6.2304 H   0  0  0  0  0  0  0  0  0  0  0  0
   11.3415    6.4840   -6.8499 H   0  0  0  0  0  0  0  0  0  0  0  0
   13.2216    3.3285   -6.4043 H   0  0  0  0  0  0  0  0  0  0  0  0
   12.6651    1.1901   -7.5581 H   0  0  0  0  0  0  0  0  0  0  0  0
   10.5121    1.0627   -8.7945 H   0  0  0  0  0  0  0  0  0  0  0  0
    8.9687    2.9379   -8.9017 H   0  0  0  0  0  0  0  0  0  0  0  0
    9.5816    5.0234   -7.7377 H   0  0  0  0  0  0  0  0  0  0  0  0
  2  1  2  0
  3  2  1  0
  4  3  2  0
  4  5  1  0
  5  6  2  0
  6  1  1  0
  1  7  1  0
  2  8  1  0
  5  9  1  0
 10 11  1  0
 11 12  1  0
 12 13  2  0
 13 14  1  0
 14 15  2  0
 15 16  1  0
 16 17  2  0
 17 12  1  0
 10 18  1  0
 10 19  1  0
 11 20  1  0
 11 21  1  0
 13 22  1  0
 14 23  1  0
 15 24  1  0
 16 25  1  0
 17 26  1  0
  3 10  1  0
M  END
>  <Score>  (1) 
-7.59301

$$$$

     RDKit          3D

 23 24  0  0  0  0  0  0  0  0999 V2000
   12.3025    8.1225   -2.3014 C   0  0  0  0  0  0  0  0  0  0  0  0
   12.0211    6.8841   -2.9140 C   0  0  0  0  0  0  0  0  0  0  0  0
   11.5248    6.8970   -4.2238 C   0  0  0  0  0  0  0  0  0  0  0  0
   11.3423    8.1090   -4.8318 N   0  0  0  0  0  0  0  0  0  0  0  0
   11.6235    9.2768   -4.2125 C   0  0  0  0  0  0  0  0  0  0  0  0
   12.1009    9.2816   -2.9544 N   0  0  0  0  0  0  0  0  0  0  0  0
   12.6825    8.0587   -1.2931 H   0  0  0  0  0  0  0  0  0  0  0  0
   12.1766    5.9511   -2.4063 H   0  0  0  0  0  0  0  0  0  0  0  0
   11.4560   10.2015   -4.7509 H   0  0  0  0  0  0  0  0  0  0  0  0
   11.2107    5.6216   -4.9185 C   0  0  0  0  0  0  0  0  0  0  0  0
   11.0468    5.8223   -6.3803 C   0  0  0  0  0  0  0  0  0  0  0  0
    9.7751    6.1154   -6.8443 C   0  0  0  0  0  0  0  0  0  0  0  0
    9.5338    6.3173   -8.1908 C   0  0  0  0  0  0  0  0  0  0  0  0
   10.5609    6.2295   -9.0975 C   0  0  0  0  0  0  0  0  0  0  0  0
   10.2622    6.4841  -10.8046 Cl  0  0  0  0  0  0  0  0  0  0  0  0
   11.8399    5.9364   -8.6454 C   0  0  0  0  0  0  0  0  0  0  0  0
   12.0571    5.7381   -7.2901 C   0  0  0  0  0  0  0  0  0  0  0  0
   11.9995    4.8562   -4.7052 H   0  0  0  0  0  0  0  0  0  0  0  0
   10.2733    5.2032   -4.4915 H   0  0  0  0  0  0  0  0  0  0  0  0
    8.9429    6.1947   -6.1794 H   0  0  0  0  0  0  0  0  0  0  0  0
    8.5498    6.5463   -8.5688 H   0  0  0  0  0  0  0  0  0  0  0  0
   12.6606    5.8635   -9.3461 H   0  0  0  0  0  0  0  0  0  0  0  0
   13.0439    5.5140   -6.9591 H   0  0  0  0  0  0  0  0  0  0  0  0
  2  1  2  0
  3  2  1  0
  4  3  2  0
  4  5  1  0
  5  6  2  0
  6  1  1  0
  1  7  1  0
  2  8  1  0
  5  9  1  0
 10 11  1  0
 11 12  2  0
 12 13  1  0
 13 14  2  0
 14 15  1  0
 14 16  1  0
 16 17  2  0
 17 11  1  0
 10 18  1  0
 10 19  1  0
 12 20  1  0
 13 21  1  0
 16 22  1  0
 17 23  1  0
  3 10  1  0
M  END
>  <Score>  (1) 
-7.56812

$$$$

     RDKit          3D

 25 26  0  0  0  0  0  0  0  0999 V2000
   12.3027    8.1236   -2.3012 C   0  0  0  0  0  0  0  0  0  0  0  0
   12.0211    6.8831   -2.9138 C   0  0  0  0  0  0  0  0  0  0  0  0
   11.5246    6.8971   -4.2244 C   0  0  0  0  0  0  0  0  0  0  0  0
   11.3422    8.1091   -4.8319 N   0  0  0  0  0  0  0  0  0  0  0  0
   11.6238    9.2767   -4.2117 C   0  0  0  0  0  0  0  0  0  0  0  0
   12.1006    9.2815   -2.9550 N   0  0  0  0  0  0  0  0  0  0  0  0
   12.6789    8.0970   -1.3066 H   0  0  0  0  0  0  0  0  0  0  0  0
   12.1910    5.9832   -2.3716 H   0  0  0  0  0  0  0  0  0  0  0  0
   11.4560   10.2068   -4.7514 H   0  0  0  0  0  0  0  0  0  0  0  0
    7.5337    6.3983   -8.2722 H   0  0  0  0  0  0  0  0  0  0  0  0
    8.3910    6.2792   -8.9130 C   0  0  0  0  0  0  0  0  0  0  0  0
    8.2281    6.3594  -10.1522 O   0  0  0  0  0  0  0  0  0  0  0  0
    9.6876    6.0322   -8.2960 C   0  0  0  0  0  0  0  0  0  0  0  0
   10.7797    5.8808   -9.1235 C   0  0  0  0  0  0  0  0  0  0  0  0
   12.0022    5.6473   -8.5262 C   0  0  0  0  0  0  0  0  0  0  0  0
   12.1389    5.5661   -7.1560 C   0  0  0  0  0  0  0  0  0  0  0  0
   11.0528    5.7159   -6.3193 C   0  0  0  0  0  0  0  0  0  0  0  0
   11.2293    5.6247   -4.8699 C   0  0  0  0  0  0  0  0  0  0  0  0
    9.8194    5.9519   -6.9283 C   0  0  0  0  0  0  0  0  0  0  0  0
   10.6820    5.9433  -10.2095 H   0  0  0  0  0  0  0  0  0  0  0  0
   12.8641    5.5273   -9.1679 H   0  0  0  0  0  0  0  0  0  0  0  0
   13.1253    5.3797   -6.7220 H   0  0  0  0  0  0  0  0  0  0  0  0
   10.2699    5.2252   -4.4322 H   0  0  0  0  0  0  0  0  0  0  0  0
   12.0025    4.8651   -4.5732 H   0  0  0  0  0  0  0  0  0  0  0  0
    8.9814    6.0666   -6.2597 H   0  0  0  0  0  0  0  0  0  0  0  0
  2  1  2  0
  3  2  1  0
  4  3  2  0
  4  5  1  0
  5  6  2  0
  6  1  1  0
  1  7  1  0
  2  8  1  0
  5  9  1  0
 10 11  1  0
 11 12  2  0
 11 13  1  0
 13 14  2  0
 14 15  1  0
 15 16  2  0
 16 17  1  0
 17 18  1  0
 17 19  2  0
 19 13  1  0
 14 20  1  0
 15 21  1  0
 16 22  1  0
 18 23  1  0
 18 24  1  0
 19 25  1  0
  3 18  1  0
M  END
>  <Score>  (1) 
-7.55087

$$$$

     RDKit          3D

 25 26  0  0  0  0  0  0  0  0999 V2000
   12.3028    8.1245   -2.3010 C   0  0  0  0  0  0  0  0  0  0  0  0
   12.0209    6.8824   -2.9143 C   0  0  0  0  0  0  0  0  0  0  0  0
   11.5244    6.8975   -4.2248 C   0  0  0  0  0  0  0  0  0  0  0  0
   11.3430    8.1093   -4.8299 N   0  0  0  0  0  0  0  0  0  0  0  0
   11.6235    9.2765   -4.2125 C   0  0  0  0  0  0  0  0  0  0  0  0
   12.1004    9.2808   -2.9555 N   0  0  0  0  0  0  0  0  0  0  0  0
   12.6897    8.1411   -1.2825 H   0  0  0  0  0  0  0  0  0  0  0  0
   12.1857    5.9622   -2.3834 H   0  0  0  0  0  0  0  0  0  0  0  0
   11.4681   10.2237   -4.7211 H   0  0  0  0  0  0  0  0  0  0  0  0
   11.2285    5.6877   -4.8783 N   0  0  0  0  0  0  0  0  0  0  0  0
   11.6696    5.5224   -6.2549 C   0  0  0  0  0  0  0  0  0  0  0  0
   11.2959    4.2148   -6.8186 C   0  0  0  0  0  0  0  0  0  0  0  0
   10.0679    4.1181   -7.4637 C   0  0  0  0  0  0  0  0  0  0  0  0
    9.6305    2.9313   -8.0247 C   0  0  0  0  0  0  0  0  0  0  0  0
   10.4259    1.8077   -7.9479 C   0  0  0  0  0  0  0  0  0  0  0  0
   11.6465    1.8864   -7.3116 C   0  0  0  0  0  0  0  0  0  0  0  0
   12.2847    1.0208   -7.2396 H   0  0  0  0  0  0  0  0  0  0  0  0
   12.0806    3.0860   -6.7486 C   0  0  0  0  0  0  0  0  0  0  0  0
   10.7135    4.9463   -4.3869 H   0  0  0  0  0  0  0  0  0  0  0  0
   11.2016    6.3396   -6.8743 H   0  0  0  0  0  0  0  0  0  0  0  0
   12.7726    5.6342   -6.3565 H   0  0  0  0  0  0  0  0  0  0  0  0
    9.4202    4.9878   -7.5394 H   0  0  0  0  0  0  0  0  0  0  0  0
    8.6672    2.9215   -8.5118 H   0  0  0  0  0  0  0  0  0  0  0  0
   10.0580    0.8946   -8.3952 H   0  0  0  0  0  0  0  0  0  0  0  0
   13.0333    3.1520   -6.2508 H   0  0  0  0  0  0  0  0  0  0  0  0
  2  1  2  0
  3  2  1  0
  4  3  2  0
  4  5  1  0
  5  6  2  0
  6  1  1  0
  1  7  1  0
  2  8  1  0
  5  9  1  0
 10 11  1  0
 11 12  1  0
 12 13  2  0
 13 14  1  0
 14 15  2  0
 15 16  1  0
 16 17  1  0
 16 18  2  0
 18 12  1  0
 10 19  1  0
 11 20  1  0
 11 21  1  0
 13 22  1  0
 14 23  1  0
 15 24  1  0
 18 25  1  0
  3 10  1  0
M  END
>  <Score>  (1) 
-7.53993

$$$$

     RDKit          3D

 26 27  0  0  0  0  0  0  0  0999 V2000
   12.3027    8.1230   -2.3010 C   0  0  0  0  0  0  0  0  0  0  0  0
   12.0212    6.8831   -2.9134 C   0  0  0  0  0  0  0  0  0  0  0  0
   11.5245    6.8971   -4.2246 C   0  0  0  0  0  0  0  0  0  0  0  0
   11.3423    8.1097   -4.8318 N   0  0  0  0  0  0  0  0  0  0  0  0
   11.6240    9.2760   -4.2110 C   0  0  0  0  0  0  0  0  0  0  0  0
   12.1002    9.2821   -2.9562 N   0  0  0  0  0  0  0  0  0  0  0  0
   12.6846    8.1572   -1.2979 H   0  0  0  0  0  0  0  0  0  0  0  0
   12.1887    5.9829   -2.3777 H   0  0  0  0  0  0  0  0  0  0  0  0
   11.3033    5.9713   -4.7109 H   0  0  0  0  0  0  0  0  0  0  0  0
   11.4074   10.5348   -4.9138 C   0  0  0  0  0  0  0  0  0  0  0  0
   10.1600   10.8911   -5.3669 C   0  0  0  0  0  0  0  0  0  0  0  0
    9.9963   12.0942   -6.0294 C   0  0  0  0  0  0  0  0  0  0  0  0
   11.0737   12.9487   -6.2439 C   0  0  0  0  0  0  0  0  0  0  0  0
   10.9308   14.2479   -6.9520 C   0  0  0  0  0  0  0  0  0  0  0  0
   12.3254   12.5974   -5.7926 C   0  0  0  0  0  0  0  0  0  0  0  0
   13.5045   13.5074   -6.0143 C   0  0  0  0  0  0  0  0  0  0  0  0
   12.4613   11.3934   -5.1356 C   0  0  0  0  0  0  0  0  0  0  0  0
    9.3150   10.2386   -5.2079 H   0  0  0  0  0  0  0  0  0  0  0  0
    9.0203   12.3603   -6.3772 H   0  0  0  0  0  0  0  0  0  0  0  0
   11.2603   15.0865   -6.3033 H   0  0  0  0  0  0  0  0  0  0  0  0
    9.8880   14.4153   -7.2944 H   0  0  0  0  0  0  0  0  0  0  0  0
   11.6246   14.2112   -7.8288 H   0  0  0  0  0  0  0  0  0  0  0  0
   13.1849   14.5533   -5.8869 H   0  0  0  0  0  0  0  0  0  0  0  0
   13.8927   13.3037   -7.0406 H   0  0  0  0  0  0  0  0  0  0  0  0
   14.2603   13.1970   -5.2554 H   0  0  0  0  0  0  0  0  0  0  0  0
   13.4758   11.1626   -4.7978 H   0  0  0  0  0  0  0  0  0  0  0  0
  2  1  2  0
  3  2  1  0
  4  3  2  0
  4  5  1  0
  5  6  2  0
  6  1  1  0
  1  7  1  0
  2  8  1  0
  3  9  1  0
 10 11  2  0
 11 12  1  0
 12 13  2  0
 13 14  1  0
 13 15  1  0
 15 16  1  0
 15 17  2  0
 17 10  1  0
 11 18  1  0
 12 19  1  0
 14 20  1  0
 14 21  1  0
 14 22  1  0
 16 23  1  0
 16 24  1  0
 16 25  1  0
 17 26  1  0
  5 10  1  0
M  END
>  <Score>  (1) 
-7.85699

$$$$

     RDKit          3D

 25 26  0  0  0  0  0  0  0  0999 V2000
   12.3027    8.1240   -2.3013 C   0  0  0  0  0  0  0  0  0  0  0  0
   12.0210    6.8829   -2.9139 C   0  0  0  0  0  0  0  0  0  0  0  0
   11.5243    6.8983   -4.2251 C   0  0  0  0  0  0  0  0  0  0  0  0
   11.3423    8.1070   -4.8315 N   0  0  0  0  0  0  0  0  0  0  0  0
   11.6239    9.2776   -4.2115 C   0  0  0  0  0  0  0  0  0  0  0  0
   12.1007    9.2813   -2.9547 N   0  0  0  0  0  0  0  0  0  0  0  0
   12.6799    8.0553   -1.2995 H   0  0  0  0  0  0  0  0  0  0  0  0
   12.1771    5.9560   -2.4055 H   0  0  0  0  0  0  0  0  0  0  0  0
   11.4770   10.2312   -4.6987 H   0  0  0  0  0  0  0  0  0  0  0  0
    8.5939    6.5617  -10.5888 H   0  0  0  0  0  0  0  0  0  0  0  0
    8.0866    6.4047   -9.6562 C   0  0  0  0  0  0  0  0  0  0  0  0
    6.8360    6.3882   -9.5841 O   0  0  0  0  0  0  0  0  0  0  0  0
    8.8777    6.2084   -8.4591 C   0  0  0  0  0  0  0  0  0  0  0  0
   10.2626    6.2210   -8.5040 C   0  0  0  0  0  0  0  0  0  0  0  0
   10.9755    6.0297   -7.3391 C   0  0  0  0  0  0  0  0  0  0  0  0
   10.3828    5.8247   -6.1198 C   0  0  0  0  0  0  0  0  0  0  0  0
   11.2152    5.6261   -4.9069 C   0  0  0  0  0  0  0  0  0  0  0  0
    9.0024    5.8155   -6.0943 C   0  0  0  0  0  0  0  0  0  0  0  0
    8.2463    6.0024   -7.2342 C   0  0  0  0  0  0  0  0  0  0  0  0
   10.7068    6.3831   -9.4684 H   0  0  0  0  0  0  0  0  0  0  0  0
   12.0690    6.0449   -7.4061 H   0  0  0  0  0  0  0  0  0  0  0  0
   10.7117    4.9654   -4.1936 H   0  0  0  0  0  0  0  0  0  0  0  0
   12.1831    5.1530   -5.1785 H   0  0  0  0  0  0  0  0  0  0  0  0
    8.5305    5.6548   -5.1386 H   0  0  0  0  0  0  0  0  0  0  0  0
    7.1491    5.9917   -7.1939 H   0  0  0  0  0  0  0  0  0  0  0  0
  2  1  2  0
  3  2  1  0
  4  3  2  0
  4  5  1  0
  5  6  2  0
  6  1  1  0
  1  7  1  0
  2  8  1  0
  5  9  1  0
 10 11  1  0
 11 12  2  0
 11 13  1  0
 13 14  2  0
 14 15  1  0
 15 16  2  0
 16 17  1  0
 16 18  1  0
 18 19  2  0
 19 13  1  0
 14 20  1  0
 15 21  1  0
 17 22  1  0
 17 23  1  0
 18 24  1  0
 19 25  1  0
  3 17  1  0
M  END
>  <Score>  (1) 
-7.51278

$$$$

     RDKit          3D

 28 29  0  0  0  0  0  0  0  0999 V2000
   12.3018    8.1329   -2.3042 C   0  0  0  0  0  0  0  0  0  0  0  0
   12.0175    6.8763   -2.9237 C   0  0  0  0  0  0  0  0  0  0  0  0
   11.5267    6.8975   -4.2178 C   0  0  0  0  0  0  0  0  0  0  0  0
   11.3442    8.1119   -4.8271 N   0  0  0  0  0  0  0  0  0  0  0  0
   11.6237    9.2721   -4.2120 C   0  0  0  0  0  0  0  0  0  0  0  0
   12.1011    9.2803   -2.9532 N   0  0  0  0  0  0  0  0  0  0  0  0
   12.6872    8.1091   -1.2849 H   0  0  0  0  0  0  0  0  0  0  0  0
   12.2113    5.9799   -2.3796 H   0  0  0  0  0  0  0  0  0  0  0  0
   11.4497   10.1994   -4.7687 H   0  0  0  0  0  0  0  0  0  0  0  0
   11.1897    5.7502   -4.9026 N   0  0  0  0  0  0  0  0  0  0  0  0
   11.0759    5.5851   -6.3191 C   0  0  0  0  0  0  0  0  0  0  0  0
   10.0276    4.8251   -6.8474 C   0  0  0  0  0  0  0  0  0  0  0  0
    9.8895    4.6001   -8.1941 C   0  0  0  0  0  0  0  0  0  0  0  0
    8.7704    3.7895   -8.7513 C   0  0  0  0  0  0  0  0  0  0  0  0
   10.8340    5.1566   -9.0272 C   0  0  0  0  0  0  0  0  0  0  0  0
   11.8821    5.9093   -8.5649 C   0  0  0  0  0  0  0  0  0  0  0  0
   12.9152    6.5226   -9.4315 C   0  0  0  0  0  0  0  0  0  0  0  0
   11.9969    6.1212   -7.1840 C   0  0  0  0  0  0  0  0  0  0  0  0
   10.9815    4.8615   -4.3389 H   0  0  0  0  0  0  0  0  0  0  0  0
    9.3134    4.4111   -6.1458 H   0  0  0  0  0  0  0  0  0  0  0  0
    9.1206    3.1142   -9.5619 H   0  0  0  0  0  0  0  0  0  0  0  0
    8.3282    3.2122   -7.9006 H   0  0  0  0  0  0  0  0  0  0  0  0
    7.9747    4.4858   -9.1111 H   0  0  0  0  0  0  0  0  0  0  0  0
   10.7388    4.9879  -10.1013 H   0  0  0  0  0  0  0  0  0  0  0  0
   12.9658    7.6302   -9.3237 H   0  0  0  0  0  0  0  0  0  0  0  0
   12.7641    6.3064  -10.4940 H   0  0  0  0  0  0  0  0  0  0  0  0
   13.9472    6.1640   -9.1506 H   0  0  0  0  0  0  0  0  0  0  0  0
   12.8481    6.6993   -6.8181 H   0  0  0  0  0  0  0  0  0  0  0  0
  2  1  2  0
  3  2  1  0
  4  3  2  0
  4  5  1  0
  5  6  2  0
  6  1  1  0
  1  7  1  0
  2  8  1  0
  5  9  1  0
 10 11  1  0
 11 12  2  0
 12 13  1  0
 13 14  1  0
 13 15  2  0
 15 16  1  0
 16 17  1  0
 16 18  2  0
 18 11  1  0
 10 19  1  0
 12 20  1  0
 14 21  1  0
 14 22  1  0
 14 23  1  0
 15 24  1  0
 17 25  1  0
 17 26  1  0
 17 27  1  0
 18 28  1  0
  3 10  1  0
M  END
>  <Score>  (1) 
-7.49199

$$$$

     RDKit          3D

 23 24  0  0  0  0  0  0  0  0999 V2000
   12.3037    8.1301   -2.2996 C   0  0  0  0  0  0  0  0  0  0  0  0
   12.0164    6.8869   -2.9257 C   0  0  0  0  0  0  0  0  0  0  0  0
   11.5257    6.8877   -4.2213 C   0  0  0  0  0  0  0  0  0  0  0  0
   11.3440    8.1132   -4.8274 N   0  0  0  0  0  0  0  0  0  0  0  0
   11.6232    9.2724   -4.2123 C   0  0  0  0  0  0  0  0  0  0  0  0
   12.1020    9.2806   -2.9518 N   0  0  0  0  0  0  0  0  0  0  0  0
   12.6892    8.1374   -1.2847 H   0  0  0  0  0  0  0  0  0  0  0  0
   12.1777    6.0182   -2.3513 H   0  0  0  0  0  0  0  0  0  0  0  0
   11.4486   10.1814   -4.7667 H   0  0  0  0  0  0  0  0  0  0  0  0
   11.2363    5.7037   -4.9401 N   0  0  0  0  0  0  0  0  0  0  0  0
   11.1974    5.5465   -6.3343 C   0  0  0  0  0  0  0  0  0  0  0  0
   11.6921    4.3538   -6.8682 C   0  0  0  0  0  0  0  0  0  0  0  0
   11.6562    4.1048   -8.2195 C   0  0  0  0  0  0  0  0  0  0  0  0
   11.1237    5.0418   -9.0804 C   0  0  0  0  0  0  0  0  0  0  0  0
   10.6319    6.2209   -8.5701 C   0  0  0  0  0  0  0  0  0  0  0  0
   10.1008    7.1518   -9.4432 O   0  0  0  0  0  0  0  0  0  0  0  0
   10.6700    6.4674   -7.2050 C   0  0  0  0  0  0  0  0  0  0  0  0
   11.0224    4.8245   -4.3648 H   0  0  0  0  0  0  0  0  0  0  0  0
   12.1235    3.5807   -6.2294 H   0  0  0  0  0  0  0  0  0  0  0  0
   12.0505    3.1663   -8.5947 H   0  0  0  0  0  0  0  0  0  0  0  0
   11.1167    4.8013  -10.1429 H   0  0  0  0  0  0  0  0  0  0  0  0
    9.1178    7.1304   -9.6782 H   0  0  0  0  0  0  0  0  0  0  0  0
   10.2385    7.4104   -6.8825 H   0  0  0  0  0  0  0  0  0  0  0  0
  2  1  2  0
  3  2  1  0
  4  3  2  0
  4  5  1  0
  5  6  2  0
  6  1  1  0
  1  7  1  0
  2  8  1  0
  5  9  1  0
 10 11  1  0
 11 12  2  0
 12 13  1  0
 13 14  2  0
 14 15  1  0
 15 16  1  0
 15 17  2  0
 17 11  1  0
 10 18  1  0
 12 19  1  0
 13 20  1  0
 14 21  1  0
 16 22  1  0
 17 23  1  0
  3 10  1  0
M  END
>  <Score>  (1) 
-7.48351

$$$$

     RDKit          3D

 24 25  0  0  0  0  0  0  0  0999 V2000
   12.3037    8.1225   -2.2985 C   0  0  0  0  0  0  0  0  0  0  0  0
   12.0167    6.8866   -2.9249 C   0  0  0  0  0  0  0  0  0  0  0  0
   11.5264    6.8971   -4.2205 C   0  0  0  0  0  0  0  0  0  0  0  0
   11.3436    8.1056   -4.8276 N   0  0  0  0  0  0  0  0  0  0  0  0
   11.6240    9.2739   -4.2104 C   0  0  0  0  0  0  0  0  0  0  0  0
   12.1006    9.2853   -2.9560 N   0  0  0  0  0  0  0  0  0  0  0  0
   12.6818    8.0914   -1.2993 H   0  0  0  0  0  0  0  0  0  0  0  0
   12.1758    5.9961   -2.3504 H   0  0  0  0  0  0  0  0  0  0  0  0
   11.4745   10.2250   -4.7031 H   0  0  0  0  0  0  0  0  0  0  0  0
   11.2426    5.7252   -4.9333 N   0  0  0  0  0  0  0  0  0  0  0  0
   10.6347    5.6103   -6.2047 C   0  0  0  0  0  0  0  0  0  0  0  0
   11.1085    4.6165   -7.0711 C   0  0  0  0  0  0  0  0  0  0  0  0
   10.5625    4.4005   -8.3067 C   0  0  0  0  0  0  0  0  0  0  0  0
    9.5065    5.1763   -8.7374 C   0  0  0  0  0  0  0  0  0  0  0  0
    9.0232    6.1481   -7.9207 C   0  0  0  0  0  0  0  0  0  0  0  0
    7.9331    6.9619   -8.3441 N   0  0  0  0  0  0  0  0  0  0  0  0
    7.4910    7.6696   -7.7100 H   0  0  0  0  0  0  0  0  0  0  0  0
    9.5851    6.3660   -6.6554 C   0  0  0  0  0  0  0  0  0  0  0  0
   11.5346    4.8136   -4.4317 H   0  0  0  0  0  0  0  0  0  0  0  0
   11.9328    3.9955   -6.7604 H   0  0  0  0  0  0  0  0  0  0  0  0
   10.9097    3.6392   -8.9958 H   0  0  0  0  0  0  0  0  0  0  0  0
    9.0423    5.0374   -9.7153 H   0  0  0  0  0  0  0  0  0  0  0  0
    7.5496    6.8752   -9.2890 H   0  0  0  0  0  0  0  0  0  0  0  0
    9.1418    7.1325   -6.0459 H   0  0  0  0  0  0  0  0  0  0  0  0
  2  1  2  0
  3  2  1  0
  4  3  2  0
  4  5  1  0
  5  6  2  0
  6  1  1  0
  1  7  1  0
  2  8  1  0
  5  9  1  0
 10 11  1  0
 11 12  2  0
 12 13  1  0
 13 14  2  0
 14 15  1  0
 15 16  1  0
 16 17  1  0
 15 18  2  0
 18 11  1  0
 10 19  1  0
 12 20  1  0
 13 21  1  0
 14 22  1  0
 16 23  1  0
 18 24  1  0
  3 10  1  0
M  END
>  <Score>  (1) 
-7.48252

$$$$

     RDKit          3D

 22 23  0  0  0  0  0  0  0  0999 V2000
   12.3018    8.1318   -2.3040 C   0  0  0  0  0  0  0  0  0  0  0  0
   12.0174    6.8756   -2.9237 C   0  0  0  0  0  0  0  0  0  0  0  0
   11.5266    6.9014   -4.2184 C   0  0  0  0  0  0  0  0  0  0  0  0
   11.3452    8.1091   -4.8243 N   0  0  0  0  0  0  0  0  0  0  0  0
   11.6223    9.2732   -4.2156 C   0  0  0  0  0  0  0  0  0  0  0  0
   12.1016    9.2799   -2.9519 N   0  0  0  0  0  0  0  0  0  0  0  0
   12.6860    8.1315   -1.2905 H   0  0  0  0  0  0  0  0  0  0  0  0
   12.2151    5.9852   -2.3702 H   0  0  0  0  0  0  0  0  0  0  0  0
   11.4789   10.2205   -4.6939 H   0  0  0  0  0  0  0  0  0  0  0  0
   11.1920    5.7170   -4.8905 N   0  0  0  0  0  0  0  0  0  0  0  0
   11.0801    5.5194   -6.2871 C   0  0  0  0  0  0  0  0  0  0  0  0
   11.9481    6.0534   -7.2064 C   0  0  0  0  0  0  0  0  0  0  0  0
   11.7867    5.8667   -8.5860 C   0  0  0  0  0  0  0  0  0  0  0  0
   10.7335    5.1266   -9.0755 C   0  0  0  0  0  0  0  0  0  0  0  0
   10.5079    4.8682  -10.9570 Br  0  0  0  0  0  0  0  0  0  0  0  0
    9.8512    4.5808   -8.1680 C   0  0  0  0  0  0  0  0  0  0  0  0
   10.0162    4.7692   -6.8157 C   0  0  0  0  0  0  0  0  0  0  0  0
   10.9996    4.8687   -4.2561 H   0  0  0  0  0  0  0  0  0  0  0  0
   12.8169    6.6256   -6.8600 H   0  0  0  0  0  0  0  0  0  0  0  0
   12.4970    6.3077   -9.2857 H   0  0  0  0  0  0  0  0  0  0  0  0
    9.0320    4.0031   -8.5763 H   0  0  0  0  0  0  0  0  0  0  0  0
    9.3358    4.3491   -6.1009 H   0  0  0  0  0  0  0  0  0  0  0  0
  2  1  2  0
  3  2  1  0
  4  3  2  0
  4  5  1  0
  5  6  2  0
  6  1  1  0
  1  7  1  0
  2  8  1  0
  5  9  1  0
 10 11  1  0
 11 12  2  0
 12 13  1  0
 13 14  2  0
 14 15  1  0
 14 16  1  0
 16 17  2  0
 17 11  1  0
 10 18  1  0
 12 19  1  0
 13 20  1  0
 16 21  1  0
 17 22  1  0
  3 10  1  0
M  END
>  <Score>  (1) 
-7.4813

$$$$

     RDKit          3D

 27 28  0  0  0  0  0  0  0  0999 V2000
   12.3026    8.1253   -2.3017 C   0  0  0  0  0  0  0  0  0  0  0  0
   12.0209    6.8824   -2.9142 C   0  0  0  0  0  0  0  0  0  0  0  0
   11.5247    6.8972   -4.2241 C   0  0  0  0  0  0  0  0  0  0  0  0
   11.3424    8.1097   -4.8315 N   0  0  0  0  0  0  0  0  0  0  0  0
   11.6231    9.2761   -4.2134 C   0  0  0  0  0  0  0  0  0  0  0  0
   12.1014    9.2804   -2.9530 N   0  0  0  0  0  0  0  0  0  0  0  0
   12.6830    8.0657   -1.2925 H   0  0  0  0  0  0  0  0  0  0  0  0
   12.1841    5.9641   -2.3878 H   0  0  0  0  0  0  0  0  0  0  0  0
   11.4652   10.1917   -4.7256 H   0  0  0  0  0  0  0  0  0  0  0  0
   11.2095    5.6238   -4.9218 C   0  0  0  0  0  0  0  0  0  0  0  0
   10.7025    5.8276   -6.2801 C   0  0  0  0  0  0  0  0  0  0  0  0
    9.3512    5.9694   -6.5098 C   0  0  0  0  0  0  0  0  0  0  0  0
    8.8606    6.1622   -7.7860 C   0  0  0  0  0  0  0  0  0  0  0  0
    9.7395    6.2148   -8.8587 C   0  0  0  0  0  0  0  0  0  0  0  0
    9.1747    6.4107  -10.1087 O   0  0  0  0  0  0  0  0  0  0  0  0
    9.8932    6.4914  -11.3038 C   0  0  0  0  0  0  0  0  0  0  0  0
   11.0719    6.0749   -8.6311 C   0  0  0  0  0  0  0  0  0  0  0  0
   11.5696    5.8796   -7.3395 C   0  0  0  0  0  0  0  0  0  0  0  0
   12.1494    5.0469   -4.9887 H   0  0  0  0  0  0  0  0  0  0  0  0
   10.5002    5.0736   -4.2656 H   0  0  0  0  0  0  0  0  0  0  0  0
    8.6451    5.9312   -5.6823 H   0  0  0  0  0  0  0  0  0  0  0  0
    7.7993    6.2693   -7.9313 H   0  0  0  0  0  0  0  0  0  0  0  0
   10.8999    6.9295  -11.1991 H   0  0  0  0  0  0  0  0  0  0  0  0
    9.3387    7.1766  -12.0088 H   0  0  0  0  0  0  0  0  0  0  0  0
    9.9278    5.5108  -11.8303 H   0  0  0  0  0  0  0  0  0  0  0  0
   11.7380    6.1197   -9.4858 H   0  0  0  0  0  0  0  0  0  0  0  0
   12.6406    5.7794   -7.2594 H   0  0  0  0  0  0  0  0  0  0  0  0
  2  1  2  0
  3  2  1  0
  4  3  2  0
  4  5  1  0
  5  6  2  0
  6  1  1  0
  1  7  1  0
  2  8  1  0
  5  9  1  0
 10 11  1  0
 11 12  2  0
 12 13  1  0
 13 14  2  0
 14 15  1  0
 15 16  1  0
 14 17  1  0
 17 18  2  0
 18 11  1  0
 10 19  1  0
 10 20  1  0
 12 21  1  0
 13 22  1  0
 16 23  1  0
 16 24  1  0
 16 25  1  0
 17 26  1  0
 18 27  1  0
  3 10  1  0
M  END
>  <Score>  (1) 
-7.46217

$$$$

     RDKit          3D

 22 23  0  0  0  0  0  0  0  0999 V2000
   12.3036    8.1251   -2.2986 C   0  0  0  0  0  0  0  0  0  0  0  0
   12.0164    6.8810   -2.9270 C   0  0  0  0  0  0  0  0  0  0  0  0
   11.5277    6.8997   -4.2153 C   0  0  0  0  0  0  0  0  0  0  0  0
   11.3437    8.1094   -4.8283 N   0  0  0  0  0  0  0  0  0  0  0  0
   11.6220    9.2719   -4.2165 C   0  0  0  0  0  0  0  0  0  0  0  0
   12.1016    9.2838   -2.9523 N   0  0  0  0  0  0  0  0  0  0  0  0
   12.6779    8.0572   -1.3039 H   0  0  0  0  0  0  0  0  0  0  0  0
   12.2026    5.9843   -2.4021 H   0  0  0  0  0  0  0  0  0  0  0  0
   11.4680   10.2228   -4.7228 H   0  0  0  0  0  0  0  0  0  0  0  0
   11.1744    5.7464   -4.9412 N   0  0  0  0  0  0  0  0  0  0  0  0
   11.0601    5.6163   -6.3436 C   0  0  0  0  0  0  0  0  0  0  0  0
   10.0267    4.8586   -6.9180 C   0  0  0  0  0  0  0  0  0  0  0  0
    9.9173    4.6846   -8.2685 C   0  0  0  0  0  0  0  0  0  0  0  0
   10.8506    5.2711   -9.0897 C   0  0  0  0  0  0  0  0  0  0  0  0
   10.7655    5.1334  -10.1786 H   0  0  0  0  0  0  0  0  0  0  0  0
   11.8917    6.0280   -8.5891 C   0  0  0  0  0  0  0  0  0  0  0  0
   12.8189    6.6115   -9.3955 F   0  0  0  0  0  0  0  0  0  0  0  0
   11.9541    6.1722   -7.1937 C   0  0  0  0  0  0  0  0  0  0  0  0
   10.9540    4.8296   -4.4145 H   0  0  0  0  0  0  0  0  0  0  0  0
    9.3254    4.4252   -6.1998 H   0  0  0  0  0  0  0  0  0  0  0  0
    9.1154    4.0997   -8.6736 H   0  0  0  0  0  0  0  0  0  0  0  0
   12.7980    6.7485   -6.8283 H   0  0  0  0  0  0  0  0  0  0  0  0
  2  1  2  0
  3  2  1  0
  4  3  2  0
  4  5  1  0
  5  6  2  0
  6  1  1  0
  1  7  1  0
  2  8  1  0
  5  9  1  0
 10 11  1  0
 11 12  2  0
 12 13  1  0
 13 14  2  0
 14 15  1  0
 14 16  1  0
 16 17  1  0
 16 18  2  0
 18 11  1  0
 10 19  1  0
 12 20  1  0
 13 21  1  0
 18 22  1  0
  3 10  1  0
M  END
>  <Score>  (1) 
-7.43481

$$$$

     RDKit          3D

 24 25  0  0  0  0  0  0  0  0999 V2000
   12.3026    8.1236   -2.3015 C   0  0  0  0  0  0  0  0  0  0  0  0
   12.0214    6.8830   -2.9129 C   0  0  0  0  0  0  0  0  0  0  0  0
   11.5241    6.8988   -4.2258 C   0  0  0  0  0  0  0  0  0  0  0  0
   11.3424    8.1070   -4.8314 N   0  0  0  0  0  0  0  0  0  0  0  0
   11.6237    9.2773   -4.2120 C   0  0  0  0  0  0  0  0  0  0  0  0
   12.1009    9.2813   -2.9544 N   0  0  0  0  0  0  0  0  0  0  0  0
   12.6880    8.1017   -1.2831 H   0  0  0  0  0  0  0  0  0  0  0  0
   12.1704    5.9555   -2.4232 H   0  0  0  0  0  0  0  0  0  0  0  0
   11.4505   10.1932   -4.7644 H   0  0  0  0  0  0  0  0  0  0  0  0
   11.2138    5.7726   -4.9261 O   0  0  0  0  0  0  0  0  0  0  0  0
   10.4533    5.7961   -6.0831 C   0  0  0  0  0  0  0  0  0  0  0  0
   10.9676    5.9320   -7.3338 C   0  0  0  0  0  0  0  0  0  0  0  0
   10.1324    5.9443   -8.4237 C   0  0  0  0  0  0  0  0  0  0  0  0
    8.7731    5.8174   -8.2313 C   0  0  0  0  0  0  0  0  0  0  0  0
    7.6789    5.8293   -9.6025 S   0  0  0  0  0  6  0  0  0  0  0  0
    8.2064    6.6103  -10.5964 H   0  0  0  0  0  0  0  0  0  0  0  0
    6.3453    6.4031   -9.2330 O   0  0  0  0  0  0  0  0  0  0  0  0
    7.4629    4.4128  -10.0569 O   0  0  0  0  0  0  0  0  0  0  0  0
    8.2057    5.6766   -6.9730 C   0  0  0  0  0  0  0  0  0  0  0  0
    9.0927    5.6713   -5.9183 C   0  0  0  0  0  0  0  0  0  0  0  0
   12.0448    6.0298   -7.4507 H   0  0  0  0  0  0  0  0  0  0  0  0
   10.5521    6.0542   -9.4308 H   0  0  0  0  0  0  0  0  0  0  0  0
    7.1333    5.5785   -6.8462 H   0  0  0  0  0  0  0  0  0  0  0  0
    8.6374    5.5594   -4.9247 H   0  0  0  0  0  0  0  0  0  0  0  0
  2  1  2  0
  3  2  1  0
  4  3  2  0
  4  5  1  0
  5  6  2  0
  6  1  1  0
  1  7  1  0
  2  8  1  0
  5  9  1  0
 10 11  1  0
 11 12  2  0
 12 13  1  0
 13 14  2  0
 14 15  1  0
 15 16  1  0
 15 17  2  0
 15 18  2  0
 14 19  1  0
 19 20  2  0
 20 11  1  0
 12 21  1  0
 13 22  1  0
 19 23  1  0
 20 24  1  0
  3 10  1  0
M  END
>  <Score>  (1) 
-7.42488

$$$$

     RDKit          3D

 24 25  0  0  0  0  0  0  0  0999 V2000
   12.3012    8.1320   -2.3063 C   0  0  0  0  0  0  0  0  0  0  0  0
   12.0172    6.8745   -2.9223 C   0  0  0  0  0  0  0  0  0  0  0  0
   11.5283    6.8963   -4.2153 C   0  0  0  0  0  0  0  0  0  0  0  0
   11.3435    8.1143   -4.8289 N   0  0  0  0  0  0  0  0  0  0  0  0
   11.6229    9.2727   -4.2130 C   0  0  0  0  0  0  0  0  0  0  0  0
   12.1019    9.2811   -2.9522 N   0  0  0  0  0  0  0  0  0  0  0  0
   12.6860    8.1381   -1.2932 H   0  0  0  0  0  0  0  0  0  0  0  0
   12.1753    5.9861   -2.3513 H   0  0  0  0  0  0  0  0  0  0  0  0
   11.4550   10.2025   -4.7521 H   0  0  0  0  0  0  0  0  0  0  0  0
   11.2511    5.6949   -4.9062 N   0  0  0  0  0  0  0  0  0  0  0  0
   11.2084    5.5107   -6.3034 C   0  0  0  0  0  0  0  0  0  0  0  0
   11.7615    4.3771   -6.9132 C   0  0  0  0  0  0  0  0  0  0  0  0
   11.7053    4.1434   -8.2567 C   0  0  0  0  0  0  0  0  0  0  0  0
   11.0734    5.0632   -9.0697 C   0  0  0  0  0  0  0  0  0  0  0  0
   10.9968    4.8498  -10.4820 N   0  0  0  0  0  0  0  0  0  0  0  0
   10.0860    4.5617  -10.8857 H   0  0  0  0  0  0  0  0  0  0  0  0
   10.5129    6.1944   -8.5173 C   0  0  0  0  0  0  0  0  0  0  0  0
   10.5876    6.4034   -7.1363 C   0  0  0  0  0  0  0  0  0  0  0  0
   11.0526    4.8293   -4.2893 H   0  0  0  0  0  0  0  0  0  0  0  0
   12.2474    3.6778   -6.2557 H   0  0  0  0  0  0  0  0  0  0  0  0
   12.1296    3.2701   -8.7384 H   0  0  0  0  0  0  0  0  0  0  0  0
   11.8215    4.9764  -11.0948 H   0  0  0  0  0  0  0  0  0  0  0  0
   10.0076    6.9422   -9.1180 H   0  0  0  0  0  0  0  0  0  0  0  0
   10.1233    7.2738   -6.7251 H   0  0  0  0  0  0  0  0  0  0  0  0
  2  1  2  0
  3  2  1  0
  4  3  2  0
  4  5  1  0
  5  6  2  0
  6  1  1  0
  1  7  1  0
  2  8  1  0
  5  9  1  0
 10 11  1  0
 11 12  2  0
 12 13  1  0
 13 14  2  0
 14 15  1  0
 15 16  1  0
 14 17  1  0
 17 18  2  0
 18 11  1  0
 10 19  1  0
 12 20  1  0
 13 21  1  0
 15 22  1  0
 17 23  1  0
 18 24  1  0
  3 10  1  0
M  END
>  <Score>  (1) 
-7.41566

$$$$

     RDKit          3D

 22 23  0  0  0  0  0  0  0  0999 V2000
   12.3038    8.1272   -2.2988 C   0  0  0  0  0  0  0  0  0  0  0  0
   12.0159    6.8835   -2.9265 C   0  0  0  0  0  0  0  0  0  0  0  0
   11.5275    6.8969   -4.2176 C   0  0  0  0  0  0  0  0  0  0  0  0
   11.3436    8.1100   -4.8282 N   0  0  0  0  0  0  0  0  0  0  0  0
   11.6216    9.2714   -4.2165 C   0  0  0  0  0  0  0  0  0  0  0  0
   12.1026    9.2820   -2.9503 N   0  0  0  0  0  0  0  0  0  0  0  0
   12.6868    8.0990   -1.2871 H   0  0  0  0  0  0  0  0  0  0  0  0
   12.1754    5.9938   -2.3503 H   0  0  0  0  0  0  0  0  0  0  0  0
   11.4710   10.2212   -4.7120 H   0  0  0  0  0  0  0  0  0  0  0  0
   11.2457    5.7146   -4.9224 N   0  0  0  0  0  0  0  0  0  0  0  0
   11.0431    4.8432   -4.3132 H   0  0  0  0  0  0  0  0  0  0  0  0
   11.2008    5.5424   -6.3229 C   0  0  0  0  0  0  0  0  0  0  0  0
   10.6466    6.4599   -7.1626 C   0  0  0  0  0  0  0  0  0  0  0  0
   10.6318    6.3076   -8.5484 C   0  0  0  0  0  0  0  0  0  0  0  0
   11.1940    5.1923   -9.0973 C   0  0  0  0  0  0  0  0  0  0  0  0
   11.7612    4.2449   -8.2784 C   0  0  0  0  0  0  0  0  0  0  0  0
   11.7698    4.4080   -6.9095 C   0  0  0  0  0  0  0  0  0  0  0  0
   10.1667    7.3424   -6.7631 H   0  0  0  0  0  0  0  0  0  0  0  0
   10.1649    7.0968   -9.1480 H   0  0  0  0  0  0  0  0  0  0  0  0
   11.1817    5.0728  -10.1923 H   0  0  0  0  0  0  0  0  0  0  0  0
   12.1951    3.3780   -8.7420 H   0  0  0  0  0  0  0  0  0  0  0  0
   12.2038    3.6888   -6.2405 H   0  0  0  0  0  0  0  0  0  0  0  0
  2  1  2  0
  3  2  1  0
  4  3  2  0
  4  5  1  0
  5  6  2  0
  6  1  1  0
  1  7  1  0
  2  8  1  0
  5  9  1  0
 10 11  1  0
 10 12  1  0
 12 13  2  0
 13 14  1  0
 14 15  2  0
 15 16  1  0
 16 17  2  0
 17 12  1  0
 13 18  1  0
 14 19  1  0
 15 20  1  0
 16 21  1  0
 17 22  1  0
  3 10  1  0
M  END
>  <Score>  (1) 
-7.37517

$$$$

     RDKit          3D

 25 26  0  0  0  0  0  0  0  0999 V2000
   12.3027    8.1165   -2.3004 C   0  0  0  0  0  0  0  0  0  0  0  0
   12.0206    6.8880   -2.9157 C   0  0  0  0  0  0  0  0  0  0  0  0
   11.5264    6.9028   -4.2200 C   0  0  0  0  0  0  0  0  0  0  0  0
   11.3439    8.1012   -4.8266 N   0  0  0  0  0  0  0  0  0  0  0  0
   11.6259    9.2893   -4.2074 C   0  0  0  0  0  0  0  0  0  0  0  0
   12.0955    9.2732   -2.9678 N   0  0  0  0  0  0  0  0  0  0  0  0
   12.6831    8.0589   -1.2914 H   0  0  0  0  0  0  0  0  0  0  0  0
   12.1684    5.9386   -2.4266 H   0  0  0  0  0  0  0  0  0  0  0  0
   11.2998    5.9719   -4.7202 H   0  0  0  0  0  0  0  0  0  0  0  0
   11.3896   10.4532   -4.9566 N   0  0  0  0  0  0  0  0  0  0  0  0
   11.1773   10.5618   -6.3469 C   0  0  0  0  0  0  0  0  0  0  0  0
   10.9241   11.7968   -6.9339 C   0  0  0  0  0  0  0  0  0  0  0  0
   10.7124   11.9629   -8.2766 C   0  0  0  0  0  0  0  0  0  0  0  0
   10.7390   10.8953   -9.1364 C   0  0  0  0  0  0  0  0  0  0  0  0
   10.9867    9.6573   -8.5925 C   0  0  0  0  0  0  0  0  0  0  0  0
   11.0180    8.4935   -9.5144 C   0  0  0  0  0  0  0  0  0  0  0  0
   11.2031    9.4956   -7.2124 C   0  0  0  0  0  0  0  0  0  0  0  0
   11.3636   11.3868   -4.4282 H   0  0  0  0  0  0  0  0  0  0  0  0
   10.8994   12.6646   -6.2544 H   0  0  0  0  0  0  0  0  0  0  0  0
   10.5208   12.9468   -8.6710 H   0  0  0  0  0  0  0  0  0  0  0  0
   10.5698   11.0225  -10.2154 H   0  0  0  0  0  0  0  0  0  0  0  0
   11.5395    7.6212   -9.0958 H   0  0  0  0  0  0  0  0  0  0  0  0
    9.9562    8.1996   -9.7277 H   0  0  0  0  0  0  0  0  0  0  0  0
   11.4626    8.8015  -10.4870 H   0  0  0  0  0  0  0  0  0  0  0  0
   11.3908    8.4937   -6.8703 H   0  0  0  0  0  0  0  0  0  0  0  0
  2  1  2  0
  3  2  1  0
  4  3  2  0
  4  5  1  0
  5  6  2  0
  6  1  1  0
  1  7  1  0
  2  8  1  0
  3  9  1  0
 10 11  1  0
 11 12  2  0
 12 13  1  0
 13 14  2  0
 14 15  1  0
 15 16  1  0
 15 17  2  0
 17 11  1  0
 10 18  1  0
 12 19  1  0
 13 20  1  0
 14 21  1  0
 16 22  1  0
 16 23  1  0
 16 24  1  0
 17 25  1  0
  5 10  1  0
M  END
>  <Score>  (1) 
-7.8493

$$$$

     RDKit          3D

 24 25  0  0  0  0  0  0  0  0999 V2000
   12.3024    8.1274   -2.3024 C   0  0  0  0  0  0  0  0  0  0  0  0
   12.0211    6.8813   -2.9137 C   0  0  0  0  0  0  0  0  0  0  0  0
   11.5241    6.8993   -4.2258 C   0  0  0  0  0  0  0  0  0  0  0  0
   11.3424    8.1067   -4.8312 N   0  0  0  0  0  0  0  0  0  0  0  0
   11.6231    9.2770   -4.2136 C   0  0  0  0  0  0  0  0  0  0  0  0
   12.1019    9.2794   -2.9514 N   0  0  0  0  0  0  0  0  0  0  0  0
   12.6832    8.1455   -1.3006 H   0  0  0  0  0  0  0  0  0  0  0  0
   12.1841    5.9567   -2.3869 H   0  0  0  0  0  0  0  0  0  0  0  0
   11.4725   10.2265   -4.7099 H   0  0  0  0  0  0  0  0  0  0  0  0
   11.2343    5.7012   -4.8647 O   0  0  0  0  0  0  0  0  0  0  0  0
   10.3981    5.5819   -5.9431 C   0  0  0  0  0  0  0  0  0  0  0  0
   10.8630    5.6833   -7.2316 C   0  0  0  0  0  0  0  0  0  0  0  0
    9.9875    5.5571   -8.2864 C   0  0  0  0  0  0  0  0  0  0  0  0
    8.6347    5.3272   -8.0430 C   0  0  0  0  0  0  0  0  0  0  0  0
    7.6787    5.1885   -9.1555 C   0  0  0  0  0  0  0  0  0  0  0  0
    8.1753    5.2265   -6.7440 C   0  0  0  0  0  0  0  0  0  0  0  0
    9.0614    5.3550   -5.7130 C   0  0  0  0  0  0  0  0  0  0  0  0
   11.9245    5.8638   -7.4311 H   0  0  0  0  0  0  0  0  0  0  0  0
   10.3582    5.6378   -9.3006 H   0  0  0  0  0  0  0  0  0  0  0  0
    8.1388    4.6230   -9.9969 H   0  0  0  0  0  0  0  0  0  0  0  0
    7.3024    6.1717   -9.5052 H   0  0  0  0  0  0  0  0  0  0  0  0
    6.8226    4.6001   -8.8117 H   0  0  0  0  0  0  0  0  0  0  0  0
    7.1027    5.0449   -6.5879 H   0  0  0  0  0  0  0  0  0  0  0  0
    8.6773    5.2720   -4.6956 H   0  0  0  0  0  0  0  0  0  0  0  0
  2  1  2  0
  3  2  1  0
  4  3  2  0
  4  5  1  0
  5  6  2  0
  6  1  1  0
  1  7  1  0
  2  8  1  0
  5  9  1  0
 10 11  1  0
 11 12  2  0
 12 13  1  0
 13 14  2  0
 14 15  1  0
 14 16  1  0
 16 17  2  0
 17 11  1  0
 12 18  1  0
 13 19  1  0
 15 20  1  0
 15 21  1  0
 15 22  1  0
 16 23  1  0
 17 24  1  0
  3 10  1  0
M  END
>  <Score>  (1) 
-7.36963

$$$$

     RDKit          3D

 25 26  0  0  0  0  0  0  0  0999 V2000
   12.3025    8.1243   -2.3018 C   0  0  0  0  0  0  0  0  0  0  0  0
   12.0212    6.8830   -2.9134 C   0  0  0  0  0  0  0  0  0  0  0  0
   11.5244    6.8976   -4.2248 C   0  0  0  0  0  0  0  0  0  0  0  0
   11.3424    8.1089   -4.8314 N   0  0  0  0  0  0  0  0  0  0  0  0
   11.6232    9.2765   -4.2133 C   0  0  0  0  0  0  0  0  0  0  0  0
   12.1013    9.2807   -2.9533 N   0  0  0  0  0  0  0  0  0  0  0  0
   12.6846    8.0950   -1.2913 H   0  0  0  0  0  0  0  0  0  0  0  0
   12.1937    5.9918   -2.3655 H   0  0  0  0  0  0  0  0  0  0  0  0
   11.4573   10.1906   -4.7462 H   0  0  0  0  0  0  0  0  0  0  0  0
   13.2814    5.9032   -9.4535 H   0  0  0  0  0  0  0  0  0  0  0  0
   12.2450    6.0041   -9.7151 C   0  0  0  0  0  0  0  0  0  0  0  0
   11.9126    6.1375  -10.8989 O   0  0  0  0  0  0  0  0  0  0  0  0
   11.2605    5.9759   -8.6135 C   0  0  0  0  0  0  0  0  0  0  0  0
   11.6378    5.8280   -7.3107 C   0  0  0  0  0  0  0  0  0  0  0  0
   10.7052    5.8015   -6.2695 C   0  0  0  0  0  0  0  0  0  0  0  0
   11.2157    5.6383   -4.9070 C   0  0  0  0  0  0  0  0  0  0  0  0
    9.3877    5.9317   -6.6202 C   0  0  0  0  0  0  0  0  0  0  0  0
    8.9577    6.0844   -7.9331 C   0  0  0  0  0  0  0  0  0  0  0  0
    9.9222    6.1033   -8.9178 C   0  0  0  0  0  0  0  0  0  0  0  0
    9.5102    6.2516  -10.1980 F   0  0  0  0  0  0  0  0  0  0  0  0
   12.6828    5.7298   -7.0862 H   0  0  0  0  0  0  0  0  0  0  0  0
   12.1019    4.9633   -4.9344 H   0  0  0  0  0  0  0  0  0  0  0  0
   10.4417    5.0787   -4.3257 H   0  0  0  0  0  0  0  0  0  0  0  0
    8.6579    5.9135   -5.8335 H   0  0  0  0  0  0  0  0  0  0  0  0
    7.9138    6.1850   -8.1848 H   0  0  0  0  0  0  0  0  0  0  0  0
  2  1  2  0
  3  2  1  0
  4  3  2  0
  4  5  1  0
  5  6  2  0
  6  1  1  0
  1  7  1  0
  2  8  1  0
  5  9  1  0
 10 11  1  0
 11 12  2  0
 11 13  1  0
 13 14  2  0
 14 15  1  0
 15 16  1  0
 15 17  2  0
 17 18  1  0
 18 19  2  0
 19 20  1  0
 19 13  1  0
 14 21  1  0
 16 22  1  0
 16 23  1  0
 17 24  1  0
 18 25  1  0
  3 16  1  0
M  END
>  <Score>  (1) 
-7.35295

$$$$

     RDKit          3D

 26 27  0  0  0  0  0  0  0  0999 V2000
   12.3040    8.1258   -2.2982 C   0  0  0  0  0  0  0  0  0  0  0  0
   12.0164    6.8841   -2.9254 C   0  0  0  0  0  0  0  0  0  0  0  0
   11.5269    6.8941   -4.2188 C   0  0  0  0  0  0  0  0  0  0  0  0
   11.3436    8.1114   -4.8282 N   0  0  0  0  0  0  0  0  0  0  0  0
   11.6229    9.2721   -4.2132 C   0  0  0  0  0  0  0  0  0  0  0  0
   12.1012    9.2835   -2.9542 N   0  0  0  0  0  0  0  0  0  0  0  0
   12.6842    8.1575   -1.3000 H   0  0  0  0  0  0  0  0  0  0  0  0
   12.1754    6.0120   -2.3554 H   0  0  0  0  0  0  0  0  0  0  0  0
   11.4824   10.2357   -4.6834 H   0  0  0  0  0  0  0  0  0  0  0  0
   11.2348    5.7205   -4.9473 N   0  0  0  0  0  0  0  0  0  0  0  0
   10.9093    5.6484   -6.3126 C   0  0  0  0  0  0  0  0  0  0  0  0
   11.4032    4.5832   -7.0597 C   0  0  0  0  0  0  0  0  0  0  0  0
   11.1063    4.4078   -8.3899 C   0  0  0  0  0  0  0  0  0  0  0  0
   10.2958    5.2972   -9.0372 C   0  0  0  0  0  0  0  0  0  0  0  0
   10.0008    5.1175  -10.3732 O   0  0  0  0  0  0  0  0  0  0  0  0
   10.5349    4.0154  -11.0740 C   0  0  0  0  0  0  0  0  0  0  0  0
    9.7900    6.3701   -8.3095 C   0  0  0  0  0  0  0  0  0  0  0  0
   10.0955    6.5422   -6.9566 C   0  0  0  0  0  0  0  0  0  0  0  0
   11.2612    4.7788   -4.4202 H   0  0  0  0  0  0  0  0  0  0  0  0
   12.0511    3.8470   -6.5972 H   0  0  0  0  0  0  0  0  0  0  0  0
   11.4963    3.5707   -8.9705 H   0  0  0  0  0  0  0  0  0  0  0  0
   10.2211    3.0923  -10.5257 H   0  0  0  0  0  0  0  0  0  0  0  0
   10.2508    3.9951  -12.1267 H   0  0  0  0  0  0  0  0  0  0  0  0
   11.6438    4.1154  -11.0298 H   0  0  0  0  0  0  0  0  0  0  0  0
    9.1528    7.0650   -8.8276 H   0  0  0  0  0  0  0  0  0  0  0  0
    9.6250    7.3946   -6.4962 H   0  0  0  0  0  0  0  0  0  0  0  0
  2  1  2  0
  3  2  1  0
  4  3  2  0
  4  5  1  0
  5  6  2  0
  6  1  1  0
  1  7  1  0
  2  8  1  0
  5  9  1  0
 10 11  1  0
 11 12  2  0
 12 13  1  0
 13 14  2  0
 14 15  1  0
 15 16  1  0
 14 17  1  0
 17 18  2  0
 18 11  1  0
 10 19  1  0
 12 20  1  0
 13 21  1  0
 16 22  1  0
 16 23  1  0
 16 24  1  0
 17 25  1  0
 18 26  1  0
  3 10  1  0
M  END
>  <Score>  (1) 
-7.32507

$$$$

     RDKit          3D

 25 26  0  0  0  0  0  0  0  0999 V2000
   12.3024    8.1207   -2.3015 C   0  0  0  0  0  0  0  0  0  0  0  0
   12.0223    6.8846   -2.9107 C   0  0  0  0  0  0  0  0  0  0  0  0
   11.5234    6.8994   -4.2277 C   0  0  0  0  0  0  0  0  0  0  0  0
   11.3422    8.1051   -4.8316 N   0  0  0  0  0  0  0  0  0  0  0  0
   11.6247    9.2785   -4.2096 C   0  0  0  0  0  0  0  0  0  0  0  0
   12.0999    9.2827   -2.9570 N   0  0  0  0  0  0  0  0  0  0  0  0
   12.6830    8.1411   -1.3003 H   0  0  0  0  0  0  0  0  0  0  0  0
   12.1919    5.9868   -2.3699 H   0  0  0  0  0  0  0  0  0  0  0  0
   11.4457   10.1815   -4.7761 H   0  0  0  0  0  0  0  0  0  0  0  0
   12.7102    2.4682   -5.5058 H   0  0  0  0  0  0  0  0  0  0  0  0
   12.4781    2.9642   -6.4278 C   0  0  0  0  0  0  0  0  0  0  0  0
   12.3941    2.2823   -7.4408 O   0  0  0  0  0  0  0  0  0  0  0  0
   12.2591    4.4476   -6.4960 C   0  0  2  0  0  0  0  0  0  0  0  0
   12.3963    5.0164   -5.2701 O   0  0  0  0  0  0  0  0  0  0  0  0
   11.2183    5.6165   -4.8981 C   0  0  2  0  0  0  0  0  0  0  0  0
   10.3697    5.8004   -6.1107 C   0  0  1  0  0  0  0  0  0  0  0  0
   10.4291    7.0911   -6.5652 O   0  0  0  0  0  0  0  0  0  0  0  0
   10.9330    4.7849   -7.0727 C   0  0  1  0  0  0  0  0  0  0  0  0
   10.9878    5.2793   -8.3726 O   0  0  0  0  0  0  0  0  0  0  0  0
   13.0555    4.8708   -7.1738 H   0  0  0  0  0  0  0  0  0  0  0  0
   10.7081    4.9451   -4.1776 H   0  0  0  0  0  0  0  0  0  0  0  0
    9.2998    5.5514   -5.9141 H   0  0  0  0  0  0  0  0  0  0  0  0
   11.0169    7.2542   -7.3230 H   0  0  0  0  0  0  0  0  0  0  0  0
   10.2886    3.8833   -7.0648 H   0  0  0  0  0  0  0  0  0  0  0  0
   11.8108    5.8030   -8.5267 H   0  0  0  0  0  0  0  0  0  0  0  0
  2  1  2  0
  3  2  1  0
  4  3  2  0
  4  5  1  0
  5  6  2  0
  6  1  1  0
  1  7  1  0
  2  8  1  0
  5  9  1  0
 10 11  1  0
 11 12  2  0
 11 13  1  0
 13 14  1  0
 14 15  1  0
 15 16  1  0
 16 17  1  0
 16 18  1  0
 18 19  1  0
 18 13  1  0
 13 20  1  6
 15 21  1  1
 16 22  1  1
 17 23  1  0
 18 24  1  6
 19 25  1  0
  3 15  1  0
M  END
>  <Score>  (1) 
-7.32173

$$$$

     RDKit          3D

 21 22  0  0  0  0  0  0  0  0999 V2000
   12.3020    8.1243   -2.3031 C   0  0  0  0  0  0  0  0  0  0  0  0
   12.0207    6.8831   -2.9147 C   0  0  0  0  0  0  0  0  0  0  0  0
   11.5250    6.9000   -4.2235 C   0  0  0  0  0  0  0  0  0  0  0  0
   11.3419    8.1059   -4.8324 N   0  0  0  0  0  0  0  0  0  0  0  0
   11.6243    9.2767   -4.2104 C   0  0  0  0  0  0  0  0  0  0  0  0
   12.1011    9.2812   -2.9539 N   0  0  0  0  0  0  0  0  0  0  0  0
   12.6820    8.0630   -1.2950 H   0  0  0  0  0  0  0  0  0  0  0  0
   12.1677    5.9545   -2.4289 H   0  0  0  0  0  0  0  0  0  0  0  0
   11.4767   10.2350   -4.6982 H   0  0  0  0  0  0  0  0  0  0  0  0
   11.2242    5.7136   -4.8921 O   0  0  0  0  0  0  0  0  0  0  0  0
   10.0005    5.5409   -5.5152 C   0  0  0  0  0  0  0  0  0  0  0  0
    9.8727    5.9212   -6.8309 C   0  0  0  0  0  0  0  0  0  0  0  0
    8.6635    5.7672   -7.4999 C   0  0  0  0  0  0  0  0  0  0  0  0
    7.5780    5.2296   -6.8459 C   0  0  0  0  0  0  0  0  0  0  0  0
    6.3843    5.0566   -7.4372 F   0  0  0  0  0  0  0  0  0  0  0  0
    7.7382    4.8577   -5.5259 C   0  0  0  0  0  0  0  0  0  0  0  0
    8.9264    5.0019   -4.8464 C   0  0  0  0  0  0  0  0  0  0  0  0
   10.7159    6.3427   -7.3498 H   0  0  0  0  0  0  0  0  0  0  0  0
    8.5869    6.0771   -8.5459 H   0  0  0  0  0  0  0  0  0  0  0  0
    6.9135    4.4233   -4.9491 H   0  0  0  0  0  0  0  0  0  0  0  0
    9.0599    4.7109   -3.8074 H   0  0  0  0  0  0  0  0  0  0  0  0
  2  1  2  0
  3  2  1  0
  4  3  2  0
  4  5  1  0
  5  6  2  0
  6  1  1  0
  1  7  1  0
  2  8  1  0
  5  9  1  0
 10 11  1  0
 11 12  2  0
 12 13  1  0
 13 14  2  0
 14 15  1  0
 14 16  1  0
 16 17  2  0
 17 11  1  0
 12 18  1  0
 13 19  1  0
 16 20  1  0
 17 21  1  0
  3 10  1  0
M  END
>  <Score>  (1) 
-7.3014

$$$$

     RDKit          3D

 23 24  0  0  0  0  0  0  0  0999 V2000
   12.3028    8.1153   -2.2998 C   0  0  0  0  0  0  0  0  0  0  0  0
   12.0186    6.8936   -2.9224 C   0  0  0  0  0  0  0  0  0  0  0  0
   11.5268    6.8924   -4.2170 C   0  0  0  0  0  0  0  0  0  0  0  0
   11.3427    8.1124   -4.8312 N   0  0  0  0  0  0  0  0  0  0  0  0
   11.6228    9.2721   -4.2144 C   0  0  0  0  0  0  0  0  0  0  0  0
   12.1013    9.2852   -2.9533 N   0  0  0  0  0  0  0  0  0  0  0  0
   12.6838    8.0905   -1.2918 H   0  0  0  0  0  0  0  0  0  0  0  0
   12.2175    6.0103   -2.3645 H   0  0  0  0  0  0  0  0  0  0  0  0
   11.4722   10.2295   -4.7124 H   0  0  0  0  0  0  0  0  0  0  0  0
   11.1851    5.7270   -4.9168 N   0  0  0  0  0  0  0  0  0  0  0  0
   11.0644    5.5570   -6.3073 C   0  0  0  0  0  0  0  0  0  0  0  0
   10.0444    4.7706   -6.7954 C   0  0  0  0  0  0  0  0  0  0  0  0
    9.9516    4.5720   -8.1628 C   0  0  0  0  0  0  0  0  0  0  0  0
   10.8384    5.1293   -9.0517 C   0  0  0  0  0  0  0  0  0  0  0  0
   10.7304    4.9157  -10.4667 C   0  0  0  0  0  0  0  0  0  0  0  0
   10.6489    4.7570  -11.6172 N   0  0  0  0  0  0  0  0  0  0  0  0
   11.8551    5.9146   -8.5445 C   0  0  0  0  0  0  0  0  0  0  0  0
   11.9691    6.1293   -7.1631 C   0  0  0  0  0  0  0  0  0  0  0  0
   10.9871    4.8447   -4.3557 H   0  0  0  0  0  0  0  0  0  0  0  0
    9.3005    4.2934   -6.1491 H   0  0  0  0  0  0  0  0  0  0  0  0
    9.1513    3.9537   -8.5584 H   0  0  0  0  0  0  0  0  0  0  0  0
   12.5810    6.3775   -9.2035 H   0  0  0  0  0  0  0  0  0  0  0  0
   12.8014    6.7306   -6.8774 H   0  0  0  0  0  0  0  0  0  0  0  0
  2  1  2  0
  3  2  1  0
  4  3  2  0
  4  5  1  0
  5  6  2  0
  6  1  1  0
  1  7  1  0
  2  8  1  0
  5  9  1  0
 10 11  1  0
 11 12  2  0
 12 13  1  0
 13 14  2  0
 14 15  1  0
 15 16  3  0
 14 17  1  0
 17 18  2  0
 18 11  1  0
 10 19  1  0
 12 20  1  0
 13 21  1  0
 17 22  1  0
 18 23  1  0
  3 10  1  0
M  END
>  <Score>  (1) 
-7.27709

$$$$

     RDKit          3D

 22 23  0  0  0  0  0  0  0  0999 V2000
   12.3026    8.1215   -2.3011 C   0  0  0  0  0  0  0  0  0  0  0  0
   12.0202    6.8849   -2.9165 C   0  0  0  0  0  0  0  0  0  0  0  0
   11.5259    6.8946   -4.2207 C   0  0  0  0  0  0  0  0  0  0  0  0
   11.3424    8.1121   -4.8319 N   0  0  0  0  0  0  0  0  0  0  0  0
   11.6231    9.2757   -4.2135 C   0  0  0  0  0  0  0  0  0  0  0  0
   12.1009    9.2822   -2.9543 N   0  0  0  0  0  0  0  0  0  0  0  0
   12.6821    8.0573   -1.2938 H   0  0  0  0  0  0  0  0  0  0  0  0
   12.1781    5.9482   -2.4022 H   0  0  0  0  0  0  0  0  0  0  0  0
   11.4412   10.1750   -4.7871 H   0  0  0  0  0  0  0  0  0  0  0  0
   11.2192    5.7095   -4.9052 N   0  0  0  0  0  0  0  0  0  0  0  0
   11.0269    5.7282   -6.3089 C   0  0  0  0  0  0  0  0  0  0  0  0
   10.7213    4.6336   -7.1015 C   0  0  0  0  0  0  0  0  0  0  0  0
   10.6121    5.0451   -8.4117 C   0  0  0  0  0  0  0  0  0  0  0  0
   10.2985    4.2321   -9.6221 C   0  0  0  0  0  0  0  0  0  0  0  0
   10.8505    6.3694   -8.3954 N   0  0  0  0  0  0  0  0  0  0  0  0
   11.0944    6.7714   -7.1597 N   0  0  0  0  0  0  0  0  0  0  0  0
   11.1344    4.8229   -4.3794 H   0  0  0  0  0  0  0  0  0  0  0  0
   10.5778    3.5981   -6.8066 H   0  0  0  0  0  0  0  0  0  0  0  0
   10.4770    3.1677   -9.4767 H   0  0  0  0  0  0  0  0  0  0  0  0
    9.2176    4.3468   -9.9103 H   0  0  0  0  0  0  0  0  0  0  0  0
   10.9360    4.5884  -10.4463 H   0  0  0  0  0  0  0  0  0  0  0  0
   10.8474    7.0028   -9.2283 H   0  0  0  0  0  0  0  0  0  0  0  0
  2  1  2  0
  3  2  1  0
  4  3  2  0
  4  5  1  0
  5  6  2  0
  6  1  1  0
  1  7  1  0
  2  8  1  0
  5  9  1  0
 10 11  1  0
 11 12  1  0
 12 13  2  0
 13 14  1  0
 13 15  1  0
 15 16  1  0
 16 11  2  0
 10 17  1  0
 12 18  1  0
 14 19  1  0
 14 20  1  0
 14 21  1  0
 15 22  1  0
  3 10  1  0
M  END
>  <Score>  (1) 
-7.26309

$$$$

     RDKit          3D

 23 24  0  0  0  0  0  0  0  0999 V2000
   12.3028    8.1218   -2.3006 C   0  0  0  0  0  0  0  0  0  0  0  0
   12.0201    6.8835   -2.9166 C   0  0  0  0  0  0  0  0  0  0  0  0
   11.5256    6.8986   -4.2219 C   0  0  0  0  0  0  0  0  0  0  0  0
   11.3419    8.1060   -4.8324 N   0  0  0  0  0  0  0  0  0  0  0  0
   11.6243    9.2784   -4.2104 C   0  0  0  0  0  0  0  0  0  0  0  0
   12.1003    9.2828   -2.9561 N   0  0  0  0  0  0  0  0  0  0  0  0
   12.6879    8.0920   -1.2822 H   0  0  0  0  0  0  0  0  0  0  0  0
   12.1653    5.9518   -2.4361 H   0  0  0  0  0  0  0  0  0  0  0  0
   11.4535   10.2094   -4.7582 H   0  0  0  0  0  0  0  0  0  0  0  0
    9.9538    5.6786  -11.0317 H   0  0  0  0  0  0  0  0  0  0  0  0
    9.2704    5.7188  -10.2027 C   0  0  0  0  0  0  0  0  0  0  0  0
    8.0470    5.7510  -10.4512 O   0  0  0  0  0  0  0  0  0  0  0  0
    9.7836    5.7339   -8.8532 C   0  0  0  0  0  0  0  0  0  0  0  0
   11.1313    5.6978   -8.6030 C   0  0  0  0  0  0  0  0  0  0  0  0
   11.5843    5.7139   -7.2924 C   0  0  0  0  0  0  0  0  0  0  0  0
   10.7232    5.7653   -6.2188 C   0  0  0  0  0  0  0  0  0  0  0  0
   11.2107    5.7796   -4.9351 O   0  0  0  0  0  0  0  0  0  0  0  0
    9.3747    5.8006   -6.5015 C   0  0  0  0  0  0  0  0  0  0  0  0
    8.8852    5.7860   -7.7985 C   0  0  0  0  0  0  0  0  0  0  0  0
   11.8042    5.6576   -9.4479 H   0  0  0  0  0  0  0  0  0  0  0  0
   12.6352    5.6849   -7.1379 H   0  0  0  0  0  0  0  0  0  0  0  0
    8.6806    5.8412   -5.6750 H   0  0  0  0  0  0  0  0  0  0  0  0
    7.8370    5.8133   -8.0262 H   0  0  0  0  0  0  0  0  0  0  0  0
  2  1  2  0
  3  2  1  0
  4  3  2  0
  4  5  1  0
  5  6  2  0
  6  1  1  0
  1  7  1  0
  2  8  1  0
  5  9  1  0
 10 11  1  0
 11 12  2  0
 11 13  1  0
 13 14  2  0
 14 15  1  0
 15 16  2  0
 16 17  1  0
 16 18  1  0
 18 19  2  0
 19 13  1  0
 14 20  1  0
 15 21  1  0
 18 22  1  0
 19 23  1  0
  3 17  1  0
M  END
>  <Score>  (1) 
-7.20433

$$$$

     RDKit          3D

 21 22  0  0  0  0  0  0  0  0999 V2000
   12.3027    8.1243   -2.3013 C   0  0  0  0  0  0  0  0  0  0  0  0
   12.0211    6.8826   -2.9138 C   0  0  0  0  0  0  0  0  0  0  0  0
   11.5246    6.8972   -4.2244 C   0  0  0  0  0  0  0  0  0  0  0  0
   11.3426    8.1097   -4.8311 N   0  0  0  0  0  0  0  0  0  0  0  0
   11.6236    9.2766   -4.2123 C   0  0  0  0  0  0  0  0  0  0  0  0
   12.1006    9.2807   -2.9551 N   0  0  0  0  0  0  0  0  0  0  0  0
   12.6869    8.1097   -1.2868 H   0  0  0  0  0  0  0  0  0  0  0  0
   12.1823    5.9545   -2.3917 H   0  0  0  0  0  0  0  0  0  0  0  0
   11.4436   10.1805   -4.7815 H   0  0  0  0  0  0  0  0  0  0  0  0
   11.2423    5.7054   -4.8440 O   0  0  0  0  0  0  0  0  0  0  0  0
   10.7550    5.6805   -6.1263 C   0  0  0  0  0  0  0  0  0  0  0  0
    9.4174    5.7089   -6.4390 C   0  0  0  0  0  0  0  0  0  0  0  0
    9.0461    5.6794   -7.7659 C   0  0  0  0  0  0  0  0  0  0  0  0
    9.9650    5.6224   -8.7918 C   0  0  0  0  0  0  0  0  0  0  0  0
    9.5162    5.5842  -10.4792 Cl  0  0  0  0  0  0  0  0  0  0  0  0
   11.3100    5.5936   -8.4834 C   0  0  0  0  0  0  0  0  0  0  0  0
   11.6866    5.6229   -7.1601 C   0  0  0  0  0  0  0  0  0  0  0  0
   12.7507    5.6000   -6.9216 H   0  0  0  0  0  0  0  0  0  0  0  0
    8.7204    5.7534   -5.6212 H   0  0  0  0  0  0  0  0  0  0  0  0
    8.0083    5.7008   -8.0322 H   0  0  0  0  0  0  0  0  0  0  0  0
   12.0737    5.5482   -9.2725 H   0  0  0  0  0  0  0  0  0  0  0  0
  2  1  2  0
  3  2  1  0
  4  3  2  0
  4  5  1  0
  5  6  2  0
  6  1  1  0
  1  7  1  0
  2  8  1  0
  5  9  1  0
 10 11  1  0
 11 12  2  0
 12 13  1  0
 13 14  2  0
 14 15  1  0
 14 16  1  0
 16 17  2  0
 17 18  1  0
 17 11  1  0
 12 19  1  0
 13 20  1  0
 16 21  1  0
  3 10  1  0
M  END
>  <Score>  (1) 
-7.20313

$$$$

     RDKit          3D

 32 33  0  0  0  0  0  0  0  0999 V2000
   12.3020    8.1261   -2.3033 C   0  0  0  0  0  0  0  0  0  0  0  0
   12.0214    6.8830   -2.9130 C   0  0  0  0  0  0  0  0  0  0  0  0
   11.5244    6.8968   -4.2247 C   0  0  0  0  0  0  0  0  0  0  0  0
   11.3425    8.1108   -4.8312 N   0  0  0  0  0  0  0  0  0  0  0  0
   11.6222    9.2753   -4.2157 C   0  0  0  0  0  0  0  0  0  0  0  0
   12.1024    9.2790   -2.9502 N   0  0  0  0  0  0  0  0  0  0  0  0
   12.6827    8.1157   -1.2985 H   0  0  0  0  0  0  0  0  0  0  0  0
   12.1764    5.9599   -2.4077 H   0  0  0  0  0  0  0  0  0  0  0  0
   11.4448   10.1789   -4.7780 H   0  0  0  0  0  0  0  0  0  0  0  0
   11.2249    5.7219   -4.8916 O   0  0  0  0  0  0  0  0  0  0  0  0
   10.7350    5.7751   -6.1887 C   0  0  2  0  0  0  0  0  0  0  0  0
    9.4961    5.1567   -6.3313 O   0  0  0  0  0  0  0  0  0  0  0  0
    8.9109    5.4339   -7.5333 C   0  0  2  0  0  0  0  0  0  0  0  0
    7.7187    4.4737   -7.6750 C   0  0  0  0  0  0  0  0  0  0  0  0
    8.2907    3.1831   -7.6240 O   0  0  0  0  0  0  0  0  0  0  0  0
    9.7641    5.2373   -8.7305 C   0  0  1  0  0  0  0  0  0  0  0  0
    9.2801    6.0841   -9.7537 O   0  0  0  0  0  0  0  0  0  0  0  0
   11.2066    5.5436   -8.5488 C   0  0  1  0  0  0  0  0  0  0  0  0
   11.4195    6.9256   -8.5555 O   0  0  0  0  0  0  0  0  0  0  0  0
   11.6646    5.0543   -7.1755 C   0  0  1  0  0  0  0  0  0  0  0  0
   12.9851    5.3327   -6.9281 O   0  0  0  0  0  0  0  0  0  0  0  0
   10.6469    6.8253   -6.5305 H   0  0  0  0  0  0  0  0  0  0  0  0
    8.4513    6.4597   -7.5709 H   0  0  0  0  0  0  0  0  0  0  0  0
    7.0003    4.5911   -6.8617 H   0  0  0  0  0  0  0  0  0  0  0  0
    7.2613    4.5659   -8.6757 H   0  0  0  0  0  0  0  0  0  0  0  0
    8.6842    3.0455   -6.7092 H   0  0  0  0  0  0  0  0  0  0  0  0
    9.6476    4.1984   -9.1472 H   0  0  0  0  0  0  0  0  0  0  0  0
    8.5413    5.6810  -10.2502 H   0  0  0  0  0  0  0  0  0  0  0  0
   11.7765    5.0485   -9.3606 H   0  0  0  0  0  0  0  0  0  0  0  0
   10.5865    7.4450   -8.6018 H   0  0  0  0  0  0  0  0  0  0  0  0
   11.4196    3.9739   -7.1118 H   0  0  0  0  0  0  0  0  0  0  0  0
   13.0743    5.4997   -5.9476 H   0  0  0  0  0  0  0  0  0  0  0  0
  2  1  2  0
  3  2  1  0
  4  3  2  0
  4  5  1  0
  5  6  2  0
  6  1  1  0
  1  7  1  0
  2  8  1  0
  5  9  1  0
 10 11  1  0
 11 12  1  0
 12 13  1  0
 13 14  1  0
 14 15  1  0
 13 16  1  0
 16 17  1  0
 16 18  1  0
 18 19  1  0
 18 20  1  0
 20 21  1  0
 20 11  1  0
 11 22  1  6
 13 23  1  1
 14 24  1  0
 14 25  1  0
 15 26  1  0
 16 27  1  6
 17 28  1  0
 18 29  1  6
 19 30  1  0
 20 31  1  6
 21 32  1  0
  3 10  1  0
M  END
>  <Score>  (1) 
-7.1933

$$$$

     RDKit          3D

 24 26  0  0  0  0  0  0  0  0999 V2000
   12.3025    8.1239   -2.3017 C   0  0  0  0  0  0  0  0  0  0  0  0
   12.0213    6.8829   -2.9133 C   0  0  0  0  0  0  0  0  0  0  0  0
   11.5244    6.8979   -4.2249 C   0  0  0  0  0  0  0  0  0  0  0  0
   11.3423    8.1084   -4.8316 N   0  0  0  0  0  0  0  0  0  0  0  0
   11.6235    9.2768   -4.2125 C   0  0  0  0  0  0  0  0  0  0  0  0
   12.1010    9.2811   -2.9540 N   0  0  0  0  0  0  0  0  0  0  0  0
   12.6812    8.0650   -1.2972 H   0  0  0  0  0  0  0  0  0  0  0  0
   12.1795    5.9545   -2.3990 H   0  0  0  0  0  0  0  0  0  0  0  0
   11.3031    5.9721   -4.7115 H   0  0  0  0  0  0  0  0  0  0  0  0
   11.4189   10.5184   -4.8818 N   0  0  0  0  0  0  0  0  0  0  0  0
   11.4889   11.7414   -4.3223 C   0  0  0  0  0  0  0  0  0  0  0  0
   11.2253   12.6700   -5.3189 C   0  0  0  0  0  0  0  0  0  0  0  0
   11.1953   13.7620   -5.2342 H   0  0  0  0  0  0  0  0  0  0  0  0
   10.9896   12.0024   -6.5099 C   0  0  0  0  0  0  0  0  0  0  0  0
   10.6852   12.4102   -7.7946 C   0  0  0  0  0  0  0  0  0  0  0  0
   10.5010   11.4931   -8.8045 C   0  0  0  0  0  0  0  0  0  0  0  0
   10.6283   10.1454   -8.5036 C   0  0  0  0  0  0  0  0  0  0  0  0
   10.9326    9.7496   -7.2179 C   0  0  0  0  0  0  0  0  0  0  0  0
   11.1180   10.6565   -6.2038 C   0  0  0  0  0  0  0  0  0  0  0  0
   11.7078   12.0027   -3.2878 H   0  0  0  0  0  0  0  0  0  0  0  0
   10.5801   13.4520   -8.0570 H   0  0  0  0  0  0  0  0  0  0  0  0
   10.2641   11.7550   -9.8147 H   0  0  0  0  0  0  0  0  0  0  0  0
   10.4865    9.3984   -9.2897 H   0  0  0  0  0  0  0  0  0  0  0  0
   11.0326    8.6953   -6.9806 H   0  0  0  0  0  0  0  0  0  0  0  0
  2  1  2  0
  3  2  1  0
  4  3  2  0
  4  5  1  0
  5  6  2  0
  6  1  1  0
  1  7  1  0
  2  8  1  0
  3  9  1  0
 10 11  1  0
 11 12  2  0
 12 13  1  0
 12 14  1  0
 14 15  2  0
 15 16  1  0
 16 17  2  0
 17 18  1  0
 18 19  2  0
 19 10  1  0
 19 14  1  0
 11 20  1  0
 15 21  1  0
 16 22  1  0
 17 23  1  0
 18 24  1  0
  5 10  1  0
M  END
>  <Score>  (1) 
-7.82783

$$$$

     RDKit          3D

 20 20  0  0  0  0  0  0  0  0999 V2000
   12.3028    8.1312   -2.3021 C   0  0  0  0  0  0  0  0  0  0  0  0
   12.0193    6.8773   -2.9182 C   0  0  0  0  0  0  0  0  0  0  0  0
   11.5258    6.9019   -4.2212 C   0  0  0  0  0  0  0  0  0  0  0  0
   11.3425    8.1079   -4.8309 N   0  0  0  0  0  0  0  0  0  0  0  0
   11.6246    9.2750   -4.2100 C   0  0  0  0  0  0  0  0  0  0  0  0
   12.1000    9.2778   -2.9556 N   0  0  0  0  0  0  0  0  0  0  0  0
   12.6902    8.0920   -1.2849 H   0  0  0  0  0  0  0  0  0  0  0  0
   12.1867    5.9709   -2.3875 H   0  0  0  0  0  0  0  0  0  0  0  0
   11.4671   10.2083   -4.7319 H   0  0  0  0  0  0  0  0  0  0  0  0
   11.2072    5.6570   -4.9476 C   0  0  0  0  0  0  0  0  0  0  0  0
   10.9079    4.6560   -4.0246 O   0  0  0  0  0  0  0  0  0  0  0  0
   10.0564    5.9098   -5.8811 C   0  0  0  0  0  0  0  0  0  0  0  0
    8.9807    6.3144   -5.0994 F   0  0  0  0  0  0  0  0  0  0  0  0
   10.3126    6.8755   -6.7982 F   0  0  0  0  0  0  0  0  0  0  0  0
    9.6854    4.7515   -6.5524 F   0  0  0  0  0  0  0  0  0  0  0  0
   12.4416    5.1811   -5.6841 C   0  0  0  0  0  0  0  0  0  0  0  0
   12.9186    6.0739   -6.5982 F   0  0  0  0  0  0  0  0  0  0  0  0
   13.4770    4.9232   -4.7892 F   0  0  0  0  0  0  0  0  0  0  0  0
   12.1878    3.9936   -6.3586 F   0  0  0  0  0  0  0  0  0  0  0  0
    9.9867    4.3078   -4.1182 H   0  0  0  0  0  0  0  0  0  0  0  0
  2  1  2  0
  3  2  1  0
  4  3  2  0
  4  5  1  0
  5  6  2  0
  6  1  1  0
  1  7  1  0
  2  8  1  0
  5  9  1  0
 10 11  1  0
 10 12  1  0
 12 13  1  0
 12 14  1  0
 12 15  1  0
 10 16  1  0
 16 17  1  0
 16 18  1  0
 16 19  1  0
 11 20  1  0
  3 10  1  0
M  END
>  <Score>  (1) 
-7.18729

$$$$

     RDKit          3D

 25 26  0  0  0  0  0  0  0  0999 V2000
   12.3025    8.1238   -2.3017 C   0  0  0  0  0  0  0  0  0  0  0  0
   12.0213    6.8832   -2.9133 C   0  0  0  0  0  0  0  0  0  0  0  0
   11.5244    6.8976   -4.2249 C   0  0  0  0  0  0  0  0  0  0  0  0
   11.3424    8.1087   -4.8315 N   0  0  0  0  0  0  0  0  0  0  0  0
   11.6234    9.2767   -4.2127 C   0  0  0  0  0  0  0  0  0  0  0  0
   12.1010    9.2810   -2.9539 N   0  0  0  0  0  0  0  0  0  0  0  0
   12.6850    8.0716   -1.2878 H   0  0  0  0  0  0  0  0  0  0  0  0
   12.1779    5.9532   -2.4031 H   0  0  0  0  0  0  0  0  0  0  0  0
   11.4560   10.2033   -4.7509 H   0  0  0  0  0  0  0  0  0  0  0  0
   14.8982    4.1095   -6.7387 H   0  0  0  0  0  0  0  0  0  0  0  0
   14.0281    3.9245   -6.1224 C   0  0  0  0  0  0  0  0  0  0  0  0
   13.7259    2.7630   -5.9161 O   0  0  0  0  0  0  0  0  0  0  0  0
   13.2639    5.0764   -5.5719 C   0  0  2  0  0  0  0  0  0  0  0  0
   12.1867    4.6833   -4.8100 O   0  0  0  0  0  0  0  0  0  0  0  0
   11.1995    5.6512   -4.9510 C   0  0  2  0  0  0  0  0  0  0  0  0
   11.2570    5.9201   -6.4520 C   0  0  2  0  0  0  0  0  0  0  0  0
   10.6604    4.8539   -7.1208 O   0  0  0  0  0  0  0  0  0  0  0  0
   12.7442    5.9404   -6.6931 C   0  0  1  0  0  0  0  0  0  0  0  0
   13.2750    7.2122   -6.6882 O   0  0  0  0  0  0  0  0  0  0  0  0
   13.9615    5.6273   -4.9012 H   0  0  0  0  0  0  0  0  0  0  0  0
   10.2105    5.2716   -4.6990 H   0  0  0  0  0  0  0  0  0  0  0  0
   10.7640    6.8678   -6.7023 H   0  0  0  0  0  0  0  0  0  0  0  0
   10.1193    5.2025   -7.8949 H   0  0  0  0  0  0  0  0  0  0  0  0
   12.9972    5.4786   -7.6857 H   0  0  0  0  0  0  0  0  0  0  0  0
   13.8345    7.4242   -5.9109 H   0  0  0  0  0  0  0  0  0  0  0  0
  2  1  2  0
  3  2  1  0
  4  3  2  0
  4  5  1  0
  5  6  2  0
  6  1  1  0
  1  7  1  0
  2  8  1  0
  5  9  1  0
 10 11  1  0
 11 12  2  0
 11 13  1  0
 13 14  1  0
 14 15  1  0
 15 16  1  0
 16 17  1  0
 16 18  1  0
 18 19  1  0
 18 13  1  0
 13 20  1  1
 15 21  1  1
 16 22  1  1
 17 23  1  0
 18 24  1  6
 19 25  1  0
  3 15  1  0
M  END
>  <Score>  (1) 
-7.17062

$$$$

     RDKit          3D

 20 21  0  0  0  0  0  0  0  0999 V2000
   12.3028    8.1206   -2.3006 C   0  0  0  0  0  0  0  0  0  0  0  0
   12.0214    6.8845   -2.9131 C   0  0  0  0  0  0  0  0  0  0  0  0
   11.5242    6.8973   -4.2254 C   0  0  0  0  0  0  0  0  0  0  0  0
   11.3425    8.1093   -4.8311 N   0  0  0  0  0  0  0  0  0  0  0  0
   11.6244    9.2754   -4.2099 C   0  0  0  0  0  0  0  0  0  0  0  0
   12.0996    9.2840   -2.9580 N   0  0  0  0  0  0  0  0  0  0  0  0
   12.6817    8.0822   -1.2976 H   0  0  0  0  0  0  0  0  0  0  0  0
   12.1841    5.9700   -2.3885 H   0  0  0  0  0  0  0  0  0  0  0  0
   11.4834   10.2377   -4.6825 H   0  0  0  0  0  0  0  0  0  0  0  0
   11.2248    5.6878   -4.8882 N   0  0  0  0  0  0  0  0  0  0  0  0
   11.0378    5.7170   -6.2979 C   0  0  0  0  0  0  0  0  0  0  0  0
   11.1424    6.8638   -6.9869 N   0  0  0  0  0  0  0  0  0  0  0  0
   10.9783    6.9621   -8.3166 C   0  0  0  0  0  0  0  0  0  0  0  0
   10.6851    5.7978   -8.9907 C   0  0  0  0  0  0  0  0  0  0  0  0
   10.5054    5.8316  -10.3529 F   0  0  0  0  0  0  0  0  0  0  0  0
   10.5702    4.6038   -8.3181 C   0  0  0  0  0  0  0  0  0  0  0  0
   10.3373    3.7131   -8.8977 H   0  0  0  0  0  0  0  0  0  0  0  0
   10.7465    4.5754   -6.9878 N   0  0  0  0  0  0  0  0  0  0  0  0
   11.1488    4.8172   -4.3405 H   0  0  0  0  0  0  0  0  0  0  0  0
   11.0601    7.8799   -8.8808 H   0  0  0  0  0  0  0  0  0  0  0  0
  2  1  2  0
  3  2  1  0
  4  3  2  0
  4  5  1  0
  5  6  2  0
  6  1  1  0
  1  7  1  0
  2  8  1  0
  5  9  1  0
 10 11  1  0
 11 12  2  0
 12 13  1  0
 13 14  2  0
 14 15  1  0
 14 16  1  0
 16 17  1  0
 16 18  2  0
 18 11  1  0
 10 19  1  0
 13 20  1  0
  3 10  1  0
M  END
>  <Score>  (1) 
-7.16711

$$$$

     RDKit          3D

 31 32  0  0  0  0  0  0  0  0999 V2000
   12.3028    8.1260   -2.3012 C   0  0  0  0  0  0  0  0  0  0  0  0
   12.0202    6.8814   -2.9160 C   0  0  0  0  0  0  0  0  0  0  0  0
   11.5251    6.8981   -4.2231 C   0  0  0  0  0  0  0  0  0  0  0  0
   11.3423    8.1080   -4.8317 N   0  0  0  0  0  0  0  0  0  0  0  0
   11.6234    9.2770   -4.2127 C   0  0  0  0  0  0  0  0  0  0  0  0
   12.1012    9.2805   -2.9534 N   0  0  0  0  0  0  0  0  0  0  0  0
   12.6842    8.1351   -1.2965 H   0  0  0  0  0  0  0  0  0  0  0  0
   12.1883    5.9678   -2.3772 H   0  0  0  0  0  0  0  0  0  0  0  0
   11.4558   10.1973   -4.7509 H   0  0  0  0  0  0  0  0  0  0  0  0
   11.2331    5.6163   -4.8588 C   0  0  2  0  0  0  0  0  0  0  0  0
   11.9749    5.4076   -6.0192 O   0  0  0  0  0  0  0  0  0  0  0  0
   11.5595    6.1961   -7.0776 C   0  0  1  0  0  0  0  0  0  0  0  0
   12.4421    5.8585   -8.2627 C   0  0  0  0  0  0  0  0  0  0  0  0
   12.0783    6.6137   -9.3557 O   0  0  0  0  0  0  0  0  0  0  0  0
   10.1346    5.9247   -7.4880 C   0  0  2  0  0  0  0  0  0  0  0  0
    9.4894    7.1509   -7.6592 O   0  0  0  0  0  0  0  0  0  0  0  0
    9.4420    5.0252   -6.5146 C   0  0  2  0  0  0  0  0  0  0  0  0
    8.0696    5.0967   -6.6881 O   0  0  0  0  0  0  0  0  0  0  0  0
    9.7667    5.3988   -5.0726 C   0  0  2  0  0  0  0  0  0  0  0  0
    9.0067    6.5068   -4.6908 O   0  0  0  0  0  0  0  0  0  0  0  0
   11.5772    4.8130   -4.1406 H   0  0  0  0  0  0  0  0  0  0  0  0
   11.7233    7.2911   -6.8783 H   0  0  0  0  0  0  0  0  0  0  0  0
   13.5121    5.9190   -8.0219 H   0  0  0  0  0  0  0  0  0  0  0  0
   12.2199    4.7851   -8.5121 H   0  0  0  0  0  0  0  0  0  0  0  0
   12.1233    6.0547  -10.1798 H   0  0  0  0  0  0  0  0  0  0  0  0
   10.0741    5.4178   -8.4944 H   0  0  0  0  0  0  0  0  0  0  0  0
   10.0296    7.6430   -8.3439 H   0  0  0  0  0  0  0  0  0  0  0  0
    9.8394    3.9959   -6.6651 H   0  0  0  0  0  0  0  0  0  0  0  0
    7.7698    5.9755   -6.9731 H   0  0  0  0  0  0  0  0  0  0  0  0
    9.3617    4.5417   -4.4575 H   0  0  0  0  0  0  0  0  0  0  0  0
    8.7180    7.0501   -5.4551 H   0  0  0  0  0  0  0  0  0  0  0  0
  2  1  2  0
  3  2  1  0
  4  3  2  0
  4  5  1  0
  5  6  2  0
  6  1  1  0
  1  7  1  0
  2  8  1  0
  5  9  1  0
 10 11  1  0
 11 12  1  0
 12 13  1  0
 13 14  1  0
 12 15  1  0
 15 16  1  0
 15 17  1  0
 17 18  1  0
 17 19  1  0
 19 20  1  0
 19 10  1  0
 10 21  1  1
 12 22  1  1
 13 23  1  0
 13 24  1  0
 14 25  1  0
 15 26  1  6
 16 27  1  0
 17 28  1  6
 18 29  1  0
 19 30  1  1
 20 31  1  0
  3 10  1  0
M  END
>  <Score>  (1) 
-7.16042

$$$$

     RDKit          3D

 25 26  0  0  0  0  0  0  0  0999 V2000
   12.3028    8.1194   -2.3004 C   0  0  0  0  0  0  0  0  0  0  0  0
   12.0200    6.8850   -2.9170 C   0  0  0  0  0  0  0  0  0  0  0  0
   11.5262    6.8959   -4.2198 C   0  0  0  0  0  0  0  0  0  0  0  0
   11.3418    8.1094   -4.8331 N   0  0  0  0  0  0  0  0  0  0  0  0
   11.6243    9.2774   -4.2106 C   0  0  0  0  0  0  0  0  0  0  0  0
   12.0999    9.2839   -2.9571 N   0  0  0  0  0  0  0  0  0  0  0  0
   12.6793    8.0634   -1.3020 H   0  0  0  0  0  0  0  0  0  0  0  0
   12.1647    5.9485   -2.4374 H   0  0  0  0  0  0  0  0  0  0  0  0
   11.4667   10.2176   -4.7245 H   0  0  0  0  0  0  0  0  0  0  0  0
    7.2373    5.0036   -6.6801 H   0  0  0  0  0  0  0  0  0  0  0  0
    7.9836    4.8358   -5.9374 C   0  0  0  0  0  0  0  0  0  0  0  0
    7.8891    3.8197   -5.2693 O   0  0  0  0  0  0  0  0  0  0  0  0
    9.1218    5.7429   -5.6594 C   0  0  1  0  0  0  0  0  0  0  0  0
    9.9202    5.2704   -4.6497 O   0  0  0  0  0  0  0  0  0  0  0  0
   11.2205    5.6262   -4.8932 C   0  0  1  0  0  0  0  0  0  0  0  0
   11.3912    5.7298   -6.3888 C   0  0  2  0  0  0  0  0  0  0  0  0
   12.2272    6.7691   -6.7386 O   0  0  0  0  0  0  0  0  0  0  0  0
    9.9667    6.0198   -6.8546 C   0  0  1  0  0  0  0  0  0  0  0  0
    9.6613    5.2496   -7.9610 O   0  0  0  0  0  0  0  0  0  0  0  0
    8.6646    6.7253   -5.3429 H   0  0  0  0  0  0  0  0  0  0  0  0
   11.9587    4.8733   -4.5307 H   0  0  0  0  0  0  0  0  0  0  0  0
   11.7018    4.7765   -6.8427 H   0  0  0  0  0  0  0  0  0  0  0  0
   13.1358    6.4434   -6.8506 H   0  0  0  0  0  0  0  0  0  0  0  0
    9.9249    7.0946   -7.1819 H   0  0  0  0  0  0  0  0  0  0  0  0
   10.0557    5.7031   -8.7468 H   0  0  0  0  0  0  0  0  0  0  0  0
  2  1  2  0
  3  2  1  0
  4  3  2  0
  4  5  1  0
  5  6  2  0
  6  1  1  0
  1  7  1  0
  2  8  1  0
  5  9  1  0
 10 11  1  0
 11 12  2  0
 11 13  1  0
 13 14  1  0
 14 15  1  0
 15 16  1  0
 16 17  1  0
 16 18  1  0
 18 19  1  0
 18 13  1  0
 13 20  1  1
 15 21  1  1
 16 22  1  6
 17 23  1  0
 18 24  1  6
 19 25  1  0
  3 15  1  0
M  END
>  <Score>  (1) 
-7.15868

$$$$

     RDKit          3D

 32 34  0  0  0  0  0  0  0  0999 V2000
   12.3025    8.1232   -2.3016 C   0  0  0  0  0  0  0  0  0  0  0  0
   12.0217    6.8834   -2.9124 C   0  0  0  0  0  0  0  0  0  0  0  0
   11.5240    6.8985   -4.2261 C   0  0  0  0  0  0  0  0  0  0  0  0
   11.3424    8.1073   -4.8314 N   0  0  0  0  0  0  0  0  0  0  0  0
   11.6238    9.2773   -4.2118 C   0  0  0  0  0  0  0  0  0  0  0  0
   12.1008    9.2813   -2.9547 N   0  0  0  0  0  0  0  0  0  0  0  0
   12.6874    8.1664   -1.2912 H   0  0  0  0  0  0  0  0  0  0  0  0
   12.1826    5.9552   -2.3910 H   0  0  0  0  0  0  0  0  0  0  0  0
   11.4783   10.2314   -4.6953 H   0  0  0  0  0  0  0  0  0  0  0  0
   11.2045    5.6604   -4.9390 C   0  0  0  0  0  0  0  0  0  0  0  0
   10.3902    5.8860   -6.1274 N   0  0  0  0  0  0  0  0  0  0  0  0
   10.8271    6.1387   -7.4714 C   0  0  0  0  0  0  0  0  0  0  0  0
    9.6084    6.2951   -8.2885 C   0  0  0  0  0  0  0  0  0  0  0  0
    9.3966    6.5520   -9.6484 C   0  0  0  0  0  0  0  0  0  0  0  0
    8.1266    6.6527  -10.1702 C   0  0  0  0  0  0  0  0  0  0  0  0
    7.0257    6.5014   -9.3569 C   0  0  0  0  0  0  0  0  0  0  0  0
    5.7589    6.6082   -9.9109 O   0  0  0  0  0  0  0  0  0  0  0  0
    4.5979    6.4645   -9.1374 C   0  0  0  0  0  0  0  0  0  0  0  0
    7.2443    6.2498   -8.0251 C   0  0  0  0  0  0  0  0  0  0  0  0
    8.5189    6.1409   -7.4604 C   0  0  0  0  0  0  0  0  0  0  0  0
    8.9769    5.8836   -6.1010 C   0  0  0  0  0  0  0  0  0  0  0  0
    8.2490    5.6946   -5.0919 O   0  0  0  0  0  0  0  0  0  0  0  0
   12.1526    5.1881   -5.2545 H   0  0  0  0  0  0  0  0  0  0  0  0
   10.6747    4.9409   -4.2850 H   0  0  0  0  0  0  0  0  0  0  0  0
   11.4149    7.1030   -7.4433 H   0  0  0  0  0  0  0  0  0  0  0  0
   11.4887    5.3293   -7.8451 H   0  0  0  0  0  0  0  0  0  0  0  0
   10.2690    6.6713  -10.2897 H   0  0  0  0  0  0  0  0  0  0  0  0
    7.9849    6.8537  -11.2343 H   0  0  0  0  0  0  0  0  0  0  0  0
    4.3390    7.4710   -8.7106 H   0  0  0  0  0  0  0  0  0  0  0  0
    4.6864    5.6916   -8.3650 H   0  0  0  0  0  0  0  0  0  0  0  0
    3.7615    6.1673   -9.8048 H   0  0  0  0  0  0  0  0  0  0  0  0
    6.4106    6.1262   -7.3620 H   0  0  0  0  0  0  0  0  0  0  0  0
  2  1  2  0
  3  2  1  0
  4  3  2  0
  4  5  1  0
  5  6  2  0
  6  1  1  0
  1  7  1  0
  2  8  1  0
  5  9  1  0
 10 11  1  0
 11 12  1  0
 12 13  1  0
 13 14  2  0
 14 15  1  0
 15 16  2  0
 16 17  1  0
 17 18  1  0
 16 19  1  0
 19 20  2  0
 20 21  1  0
 21 22  2  0
 21 11  1  0
 20 13  1  0
 10 23  1  0
 10 24  1  0
 12 25  1  0
 12 26  1  0
 14 27  1  0
 15 28  1  0
 18 29  1  0
 18 30  1  0
 18 31  1  0
 19 32  1  0
  3 10  1  0
M  END
>  <Score>  (1) 
-7.15635

$$$$

     RDKit          3D

 24 25  0  0  0  0  0  0  0  0999 V2000
   12.3018    8.1318   -2.3048 C   0  0  0  0  0  0  0  0  0  0  0  0
   12.0151    6.8809   -2.9278 C   0  0  0  0  0  0  0  0  0  0  0  0
   11.5286    6.8904   -4.2148 C   0  0  0  0  0  0  0  0  0  0  0  0
   11.3446    8.1144   -4.8256 N   0  0  0  0  0  0  0  0  0  0  0  0
   11.6226    9.2735   -4.2135 C   0  0  0  0  0  0  0  0  0  0  0  0
   12.1023    9.2800   -2.9514 N   0  0  0  0  0  0  0  0  0  0  0  0
   12.6816    8.0763   -1.2992 H   0  0  0  0  0  0  0  0  0  0  0  0
   12.1545    5.9940   -2.3593 H   0  0  0  0  0  0  0  0  0  0  0  0
   11.4498   10.1937   -4.7637 H   0  0  0  0  0  0  0  0  0  0  0  0
   11.7261    3.0573   -7.9379 H   0  0  0  0  0  0  0  0  0  0  0  0
   11.6710    3.8113   -7.1620 C   0  0  0  0  0  0  0  0  0  0  0  0
   12.6639    3.8799   -6.4184 O   0  0  0  0  0  0  0  0  0  0  0  0
   10.5057    4.6476   -7.0453 C   0  0  0  0  0  0  0  0  0  0  0  0
    9.5316    4.4554   -8.0374 C   0  0  0  0  0  0  0  0  0  0  0  0
    8.3936    5.2253   -8.0606 C   0  0  0  0  0  0  0  0  0  0  0  0
    8.1992    6.1828   -7.1197 C   0  0  0  0  0  0  0  0  0  0  0  0
    9.1763    6.3570   -6.1431 C   0  0  0  0  0  0  0  0  0  0  0  0
   10.3378    5.6197   -6.0656 C   0  0  0  0  0  0  0  0  0  0  0  0
   11.2460    5.7575   -4.9951 N   0  0  0  0  0  0  0  0  0  0  0  0
    9.6387    3.7064   -8.8078 H   0  0  0  0  0  0  0  0  0  0  0  0
    7.6284    5.0816   -8.8328 H   0  0  0  0  0  0  0  0  0  0  0  0
    7.2975    6.7832   -7.1502 H   0  0  0  0  0  0  0  0  0  0  0  0
    8.9124    7.1152   -5.4074 H   0  0  0  0  0  0  0  0  0  0  0  0
   11.7566    4.8358   -4.7543 H   0  0  0  0  0  0  0  0  0  0  0  0
  2  1  2  0
  3  2  1  0
  4  3  2  0
  4  5  1  0
  5  6  2  0
  6  1  1  0
  1  7  1  0
  2  8  1  0
  5  9  1  0
 10 11  1  0
 11 12  2  0
 11 13  1  0
 13 14  2  0
 14 15  1  0
 15 16  2  0
 16 17  1  0
 17 18  2  0
 18 19  1  0
 18 13  1  0
 14 20  1  0
 15 21  1  0
 16 22  1  0
 17 23  1  0
 19 24  1  0
  3 19  1  0
M  END
>  <Score>  (1) 
-7.15393

$$$$

     RDKit          3D

 26 27  0  0  0  0  0  0  0  0999 V2000
   12.3027    8.1257   -2.3013 C   0  0  0  0  0  0  0  0  0  0  0  0
   12.0197    6.8826   -2.9174 C   0  0  0  0  0  0  0  0  0  0  0  0
   11.5257    6.8955   -4.2211 C   0  0  0  0  0  0  0  0  0  0  0  0
   11.3424    8.1107   -4.8317 N   0  0  0  0  0  0  0  0  0  0  0  0
   11.6229    9.2763   -4.2140 C   0  0  0  0  0  0  0  0  0  0  0  0
   12.1015    9.2802   -2.9525 N   0  0  0  0  0  0  0  0  0  0  0  0
   12.6874    8.1151   -1.2859 H   0  0  0  0  0  0  0  0  0  0  0  0
   12.1746    5.9550   -2.4121 H   0  0  0  0  0  0  0  0  0  0  0  0
   11.4741   10.2246   -4.7055 H   0  0  0  0  0  0  0  0  0  0  0  0
   11.2196    5.6910   -4.9022 N   0  0  0  0  0  0  0  0  0  0  0  0
   10.7187    5.7613   -6.2301 C   0  0  0  0  0  0  0  0  0  0  0  0
   11.4761    5.7606   -7.3980 C   0  0  0  0  0  0  0  0  0  0  0  0
   12.9602    5.6837   -7.4185 C   0  0  0  0  0  0  0  0  0  0  0  0
   10.6134    5.8399   -8.4289 N   0  0  0  0  0  0  0  0  0  0  0  0
   11.0569    5.8630   -9.8186 C   0  0  0  0  0  0  0  0  0  0  0  0
    9.3756    5.8909   -8.0165 N   0  0  0  0  0  0  0  0  0  0  0  0
    8.5205    5.9563   -8.6388 H   0  0  0  0  0  0  0  0  0  0  0  0
    9.4100    5.8444   -6.6702 C   0  0  0  0  0  0  0  0  0  0  0  0
    8.4064    5.8713   -5.9061 O   0  0  0  0  0  0  0  0  0  0  0  0
   11.3629    4.7969   -4.4312 H   0  0  0  0  0  0  0  0  0  0  0  0
   13.2333    4.6351   -7.1032 H   0  0  0  0  0  0  0  0  0  0  0  0
   13.3209    5.7822   -8.4564 H   0  0  0  0  0  0  0  0  0  0  0  0
   13.4351    6.4107   -6.7426 H   0  0  0  0  0  0  0  0  0  0  0  0
   11.5642    6.8554   -9.9624 H   0  0  0  0  0  0  0  0  0  0  0  0
   11.8281    5.0928   -9.9870 H   0  0  0  0  0  0  0  0  0  0  0  0
   10.2147    5.7240  -10.5002 H   0  0  0  0  0  0  0  0  0  0  0  0
  2  1  2  0
  3  2  1  0
  4  3  2  0
  4  5  1  0
  5  6  2  0
  6  1  1  0
  1  7  1  0
  2  8  1  0
  5  9  1  0
 10 11  1  0
 11 12  2  0
 12 13  1  0
 12 14  1  0
 14 15  1  0
 14 16  1  0
 16 17  1  0
 16 18  1  0
 18 19  2  0
 18 11  1  0
 10 20  1  0
 13 21  1  0
 13 22  1  0
 13 23  1  0
 15 24  1  0
 15 25  1  0
 15 26  1  0
  3 10  1  0
M  END
>  <Score>  (1) 
-7.15254

$$$$

     RDKit          3D

 20 21  0  0  0  0  0  0  0  0999 V2000
   12.3019    8.1203   -2.3028 C   0  0  0  0  0  0  0  0  0  0  0  0
   12.0209    6.8842   -2.9144 C   0  0  0  0  0  0  0  0  0  0  0  0
   11.5254    6.8982   -4.2222 C   0  0  0  0  0  0  0  0  0  0  0  0
   11.3423    8.1079   -4.8315 N   0  0  0  0  0  0  0  0  0  0  0  0
   11.6236    9.2776   -4.2124 C   0  0  0  0  0  0  0  0  0  0  0  0
   12.1008    9.2828   -2.9548 N   0  0  0  0  0  0  0  0  0  0  0  0
   12.6857    8.0756   -1.2863 H   0  0  0  0  0  0  0  0  0  0  0  0
   12.1804    5.9521   -2.3964 H   0  0  0  0  0  0  0  0  0  0  0  0
   11.4421   10.1775   -4.7849 H   0  0  0  0  0  0  0  0  0  0  0  0
   11.2233    5.6905   -4.8923 N   0  0  0  0  0  0  0  0  0  0  0  0
   10.7219    5.7431   -6.2199 C   0  0  0  0  0  0  0  0  0  0  0  0
   11.3004    5.7421   -7.4663 C   0  0  0  0  0  0  0  0  0  0  0  0
   12.6323    5.6892   -7.9681 N   0  0  0  0  0  0  0  0  0  0  0  0
   12.9774    6.5188   -8.4988 H   0  0  0  0  0  0  0  0  0  0  0  0
   10.0431    5.8150   -8.0623 C   0  0  0  0  0  0  0  0  0  0  0  0
    9.5903    5.8620   -9.2429 O   0  0  0  0  0  0  0  0  0  0  0  0
    9.4649    5.8158   -6.8077 C   0  0  0  0  0  0  0  0  0  0  0  0
    8.2882    5.8616   -6.3248 O   0  0  0  0  0  0  0  0  0  0  0  0
   11.3773    4.7918   -4.3922 H   0  0  0  0  0  0  0  0  0  0  0  0
   13.2207    4.8579   -7.8059 H   0  0  0  0  0  0  0  0  0  0  0  0
  2  1  2  0
  3  2  1  0
  4  3  2  0
  4  5  1  0
  5  6  2  0
  6  1  1  0
  1  7  1  0
  2  8  1  0
  5  9  1  0
 10 11  1  0
 11 12  2  0
 12 13  1  0
 13 14  1  0
 12 15  1  0
 15 16  2  0
 15 17  1  0
 17 18  2  0
 17 11  1  0
 10 19  1  0
 13 20  1  0
  3 10  1  0
M  END
>  <Score>  (1) 
-7.1309

$$$$

     RDKit          3D

 23 24  0  0  0  0  0  0  0  0999 V2000
   12.3026    8.1239   -2.3014 C   0  0  0  0  0  0  0  0  0  0  0  0
   12.0214    6.8830   -2.9129 C   0  0  0  0  0  0  0  0  0  0  0  0
   11.5240    6.8988   -4.2260 C   0  0  0  0  0  0  0  0  0  0  0  0
   11.3424    8.1071   -4.8312 N   0  0  0  0  0  0  0  0  0  0  0  0
   11.6236    9.2771   -4.2122 C   0  0  0  0  0  0  0  0  0  0  0  0
   12.1009    9.2812   -2.9542 N   0  0  0  0  0  0  0  0  0  0  0  0
   12.6877    8.0756   -1.2811 H   0  0  0  0  0  0  0  0  0  0  0  0
   12.1775    5.9596   -2.4048 H   0  0  0  0  0  0  0  0  0  0  0  0
   11.4816   10.2383   -4.6872 H   0  0  0  0  0  0  0  0  0  0  0  0
   11.2095    5.6354   -4.9230 C   0  0  0  0  0  0  0  0  0  0  0  0
   10.3915    5.8009   -6.1232 C   0  0  0  0  0  0  0  0  0  0  0  0
    9.0119    5.7543   -5.9805 C   0  0  0  0  0  0  0  0  0  0  0  0
    8.1933    5.9058   -7.0870 C   0  0  0  0  0  0  0  0  0  0  0  0
    8.7159    6.1047   -8.3475 C   0  0  0  0  0  0  0  0  0  0  0  0
   10.0897    6.1485   -8.4732 C   0  0  0  0  0  0  0  0  0  0  0  0
   10.8445    6.3970  -10.0349 Cl  0  0  0  0  0  0  0  0  0  0  0  0
   10.9301    6.0007   -7.3879 C   0  0  0  0  0  0  0  0  0  0  0  0
   12.1749    5.1596   -5.2218 H   0  0  0  0  0  0  0  0  0  0  0  0
   10.7167    4.8900   -4.2438 H   0  0  0  0  0  0  0  0  0  0  0  0
    8.5229    5.6036   -5.0362 H   0  0  0  0  0  0  0  0  0  0  0  0
    7.1030    5.8737   -7.0053 H   0  0  0  0  0  0  0  0  0  0  0  0
    8.0942    6.2262   -9.2312 H   0  0  0  0  0  0  0  0  0  0  0  0
   12.0118    6.0321   -7.4658 H   0  0  0  0  0  0  0  0  0  0  0  0
  2  1  2  0
  3  2  1  0
  4  3  2  0
  4  5  1  0
  5  6  2  0
  6  1  1  0
  1  7  1  0
  2  8  1  0
  5  9  1  0
 10 11  1  0
 11 12  2  0
 12 13  1  0
 13 14  2  0
 14 15  1  0
 15 16  1  0
 15 17  2  0
 17 11  1  0
 10 18  1  0
 10 19  1  0
 12 20  1  0
 13 21  1  0
 14 22  1  0
 17 23  1  0
  3 10  1  0
M  END
>  <Score>  (1) 
-7.1197

$$$$

     RDKit          3D

 20 21  0  0  0  0  0  0  0  0999 V2000
   12.3027    8.1256   -2.3014 C   0  0  0  0  0  0  0  0  0  0  0  0
   12.0207    6.8820   -2.9147 C   0  0  0  0  0  0  0  0  0  0  0  0
   11.5247    6.8972   -4.2239 C   0  0  0  0  0  0  0  0  0  0  0  0
   11.3426    8.1098   -4.8311 N   0  0  0  0  0  0  0  0  0  0  0  0
   11.6231    9.2762   -4.2136 C   0  0  0  0  0  0  0  0  0  0  0  0
   12.1012    9.2803   -2.9534 N   0  0  0  0  0  0  0  0  0  0  0  0
   12.6830    8.0549   -1.2912 H   0  0  0  0  0  0  0  0  0  0  0  0
   12.1874    5.9538   -2.3782 H   0  0  0  0  0  0  0  0  0  0  0  0
   11.2941    5.9752   -4.7354 H   0  0  0  0  0  0  0  0  0  0  0  0
   11.4078   10.5374   -4.9130 C   0  0  0  0  0  0  0  0  0  0  0  0
   11.2200   10.5452   -6.2831 C   0  0  0  0  0  0  0  0  0  0  0  0
   11.0157   11.6934   -6.9806 C   0  0  0  0  0  0  0  0  0  0  0  0
   10.8394   11.6290   -8.3168 F   0  0  0  0  0  0  0  0  0  0  0  0
   10.9953   12.8914   -6.2958 C   0  0  0  0  0  0  0  0  0  0  0  0
   11.1817   12.9139   -4.9154 C   0  0  0  0  0  0  0  0  0  0  0  0
   11.3865   11.7301   -4.2384 C   0  0  0  0  0  0  0  0  0  0  0  0
   11.5621   11.8026   -2.9021 F   0  0  0  0  0  0  0  0  0  0  0  0
   11.2346    9.6011   -6.8332 H   0  0  0  0  0  0  0  0  0  0  0  0
   10.8319   13.7889   -6.8680 H   0  0  0  0  0  0  0  0  0  0  0  0
   11.1583   13.8795   -4.4140 H   0  0  0  0  0  0  0  0  0  0  0  0
  2  1  2  0
  3  2  1  0
  4  3  2  0
  4  5  1  0
  5  6  2  0
  6  1  1  0
  1  7  1  0
  2  8  1  0
  3  9  1  0
 10 11  2  0
 11 12  1  0
 12 13  1  0
 12 14  2  0
 14 15  1  0
 15 16  2  0
 16 17  1  0
 16 10  1  0
 11 18  1  0
 14 19  1  0
 15 20  1  0
  5 10  1  0
M  END
>  <Score>  (1) 
-7.82472

$$$$

     RDKit          3D

 21 22  0  0  0  0  0  0  0  0999 V2000
   12.3032    8.1274   -2.3001 C   0  0  0  0  0  0  0  0  0  0  0  0
   12.0186    6.8786   -2.9198 C   0  0  0  0  0  0  0  0  0  0  0  0
   11.5260    6.9035   -4.2211 C   0  0  0  0  0  0  0  0  0  0  0  0
   11.3417    8.1006   -4.8323 N   0  0  0  0  0  0  0  0  0  0  0  0
   11.6245    9.2801   -4.2102 C   0  0  0  0  0  0  0  0  0  0  0  0
   12.1008    9.2809   -2.9544 N   0  0  0  0  0  0  0  0  0  0  0  0
   12.6864    8.1610   -1.2934 H   0  0  0  0  0  0  0  0  0  0  0  0
   12.1777    5.9573   -2.4041 H   0  0  0  0  0  0  0  0  0  0  0  0
   11.4822   10.2317   -4.6848 H   0  0  0  0  0  0  0  0  0  0  0  0
   11.2255    5.6819   -4.8857 N   0  0  0  0  0  0  0  0  0  0  0  0
   11.0227    5.6212   -6.3022 C   0  0  0  0  0  0  0  0  0  0  0  0
   10.7771    4.8833   -7.1756 N   0  0  0  0  0  0  0  0  0  0  0  0
   10.6431    5.1060   -8.4448 C   0  0  0  0  0  0  0  0  0  0  0  0
   10.3219    4.0736   -9.5023 C   0  0  0  0  0  0  0  0  0  0  0  0
   10.8156    6.4290   -8.8517 C   0  0  0  0  0  0  0  0  0  0  0  0
   10.7624    6.8751   -9.8091 H   0  0  0  0  0  0  0  0  0  0  0  0
   11.1647    7.2234   -7.2883 S   0  0  0  0  0  0  0  0  0  0  0  0
   11.1452    4.8039   -4.3637 H   0  0  0  0  0  0  0  0  0  0  0  0
    9.4420    4.4245  -10.0714 H   0  0  0  0  0  0  0  0  0  0  0  0
   11.1891    3.9614  -10.2043 H   0  0  0  0  0  0  0  0  0  0  0  0
   10.1268    3.0913   -9.0786 H   0  0  0  0  0  0  0  0  0  0  0  0
  2  1  2  0
  3  2  1  0
  4  3  2  0
  4  5  1  0
  5  6  2  0
  6  1  1  0
  1  7  1  0
  2  8  1  0
  5  9  1  0
 10 11  1  0
 11 12  2  0
 12 13  1  0
 13 14  1  0
 13 15  2  0
 15 16  1  0
 15 17  1  0
 17 11  1  0
 10 18  1  0
 14 19  1  0
 14 20  1  0
 14 21  1  0
  3 10  1  0
M  END
>  <Score>  (1) 
-7.11433

$$$$

     RDKit          3D

 21 22  0  0  0  0  0  0  0  0999 V2000
   12.3029    8.1235   -2.3006 C   0  0  0  0  0  0  0  0  0  0  0  0
   12.0201    6.8831   -2.9163 C   0  0  0  0  0  0  0  0  0  0  0  0
   11.5252    6.8986   -4.2229 C   0  0  0  0  0  0  0  0  0  0  0  0
   11.3424    8.1079   -4.8312 N   0  0  0  0  0  0  0  0  0  0  0  0
   11.6233    9.2759   -4.2129 C   0  0  0  0  0  0  0  0  0  0  0  0
   12.1010    9.2820   -2.9541 N   0  0  0  0  0  0  0  0  0  0  0  0
   12.6863    8.1513   -1.2927 H   0  0  0  0  0  0  0  0  0  0  0  0
   12.1903    5.9645   -2.3716 H   0  0  0  0  0  0  0  0  0  0  0  0
   11.4438   10.1797   -4.7806 H   0  0  0  0  0  0  0  0  0  0  0  0
   11.2527    5.7019   -4.8161 O   0  0  0  0  0  0  0  0  0  0  0  0
   11.0422    5.4738   -6.1411 C   0  0  0  0  0  0  0  0  0  0  0  0
    9.8447    4.9387   -6.6047 C   0  0  0  0  0  0  0  0  0  0  0  0
    9.0711    4.7021   -5.8928 H   0  0  0  0  0  0  0  0  0  0  0  0
    9.6289    4.7055   -7.9567 C   0  0  0  0  0  0  0  0  0  0  0  0
   10.6262    5.0110   -8.8712 C   0  0  0  0  0  0  0  0  0  0  0  0
   11.8221    5.5430   -8.4298 C   0  0  0  0  0  0  0  0  0  0  0  0
   12.6156    5.7871   -9.1474 H   0  0  0  0  0  0  0  0  0  0  0  0
   12.0031    5.7626   -7.0730 C   0  0  0  0  0  0  0  0  0  0  0  0
   13.1794    6.2815   -6.6793 F   0  0  0  0  0  0  0  0  0  0  0  0
    8.6927    4.2876   -8.3161 H   0  0  0  0  0  0  0  0  0  0  0  0
   10.4794    4.8361   -9.9414 H   0  0  0  0  0  0  0  0  0  0  0  0
  2  1  2  0
  3  2  1  0
  4  3  2  0
  4  5  1  0
  5  6  2  0
  6  1  1  0
  1  7  1  0
  2  8  1  0
  5  9  1  0
 10 11  1  0
 11 12  2  0
 12 13  1  0
 12 14  1  0
 14 15  2  0
 15 16  1  0
 16 17  1  0
 16 18  2  0
 18 19  1  0
 18 11  1  0
 14 20  1  0
 15 21  1  0
  3 10  1  0
M  END
>  <Score>  (1) 
-7.09385

$$$$

     RDKit          3D

 22 23  0  0  0  0  0  0  0  0999 V2000
   12.3028    8.1236   -2.3008 C   0  0  0  0  0  0  0  0  0  0  0  0
   12.0204    6.8832   -2.9157 C   0  0  0  0  0  0  0  0  0  0  0  0
   11.5255    6.8977   -4.2220 C   0  0  0  0  0  0  0  0  0  0  0  0
   11.3414    8.1081   -4.8340 N   0  0  0  0  0  0  0  0  0  0  0  0
   11.6245    9.2767   -4.2097 C   0  0  0  0  0  0  0  0  0  0  0  0
   12.1003    9.2817   -2.9558 N   0  0  0  0  0  0  0  0  0  0  0  0
   12.6865    8.1479   -1.2901 H   0  0  0  0  0  0  0  0  0  0  0  0
   12.1722    5.9584   -2.4198 H   0  0  0  0  0  0  0  0  0  0  0  0
   11.4582   10.2172   -4.7454 H   0  0  0  0  0  0  0  0  0  0  0  0
   11.2204    5.7488   -4.9058 O   0  0  0  0  0  0  0  0  0  0  0  0
   10.6236    5.8443   -6.1623 C   0  0  0  0  0  0  0  0  0  0  0  0
    9.2432    5.8723   -6.2196 C   0  0  0  0  0  0  0  0  0  0  0  0
    8.6228    5.9675   -7.4641 C   0  0  0  0  0  0  0  0  0  0  0  0
    9.3874    6.0317   -8.6104 C   0  0  0  0  0  0  0  0  0  0  0  0
    8.6977    6.1307   -9.8894 C   0  0  0  0  0  0  0  0  0  0  0  0
    8.1508    6.2291  -10.9014 N   0  0  0  0  0  0  0  0  0  0  0  0
   10.7646    6.0028   -8.5402 C   0  0  0  0  0  0  0  0  0  0  0  0
   11.3875    5.9089   -7.3127 C   0  0  0  0  0  0  0  0  0  0  0  0
    8.6617    5.8200   -5.2966 H   0  0  0  0  0  0  0  0  0  0  0  0
    7.5459    5.9852   -7.4476 H   0  0  0  0  0  0  0  0  0  0  0  0
   11.3790    6.0525   -9.4277 H   0  0  0  0  0  0  0  0  0  0  0  0
   12.4516    5.8816   -7.1865 H   0  0  0  0  0  0  0  0  0  0  0  0
  2  1  2  0
  3  2  1  0
  4  3  2  0
  4  5  1  0
  5  6  2  0
  6  1  1  0
  1  7  1  0
  2  8  1  0
  5  9  1  0
 10 11  1  0
 11 12  2  0
 12 13  1  0
 13 14  2  0
 14 15  1  0
 15 16  3  0
 14 17  1  0
 17 18  2  0
 18 11  1  0
 12 19  1  0
 13 20  1  0
 17 21  1  0
 18 22  1  0
  3 10  1  0
M  END
>  <Score>  (1) 
-7.07164

$$$$

     RDKit          3D

 20 21  0  0  0  0  0  0  0  0999 V2000
   12.3025    8.1226   -2.3016 C   0  0  0  0  0  0  0  0  0  0  0  0
   12.0218    6.8837   -2.9119 C   0  0  0  0  0  0  0  0  0  0  0  0
   11.5237    6.8992   -4.2268 C   0  0  0  0  0  0  0  0  0  0  0  0
   11.3423    8.1059   -4.8314 N   0  0  0  0  0  0  0  0  0  0  0  0
   11.6240    9.2779   -4.2112 C   0  0  0  0  0  0  0  0  0  0  0  0
   12.1006    9.2816   -2.9552 N   0  0  0  0  0  0  0  0  0  0  0  0
   12.6860    8.1146   -1.2895 H   0  0  0  0  0  0  0  0  0  0  0  0
   12.1855    5.9614   -2.3840 H   0  0  0  0  0  0  0  0  0  0  0  0
   11.4436   10.1780   -4.7810 H   0  0  0  0  0  0  0  0  0  0  0  0
   11.2285    5.6950   -4.8794 N   0  0  0  0  0  0  0  0  0  0  0  0
   11.0364    5.6812   -6.2792 C   0  0  0  0  0  0  0  0  0  0  0  0
   11.1313    6.8123   -7.0118 N   0  0  0  0  0  0  0  0  0  0  0  0
   10.9478    6.8019   -8.3537 C   0  0  0  0  0  0  0  0  0  0  0  0
   10.6563    5.6300   -9.0198 C   0  0  0  0  0  0  0  0  0  0  0  0
   10.5621    4.4832   -8.2621 C   0  0  0  0  0  0  0  0  0  0  0  0
   10.7518    4.5445   -6.9389 N   0  0  0  0  0  0  0  0  0  0  0  0
   11.1496    4.8211   -4.3539 H   0  0  0  0  0  0  0  0  0  0  0  0
   11.0292    7.7184   -8.9138 H   0  0  0  0  0  0  0  0  0  0  0  0
   10.5148    5.6525  -10.0924 H   0  0  0  0  0  0  0  0  0  0  0  0
   10.3335    3.5567   -8.7748 H   0  0  0  0  0  0  0  0  0  0  0  0
  2  1  2  0
  3  2  1  0
  4  3  2  0
  4  5  1  0
  5  6  2  0
  6  1  1  0
  1  7  1  0
  2  8  1  0
  5  9  1  0
 10 11  1  0
 11 12  2  0
 12 13  1  0
 13 14  2  0
 14 15  1  0
 15 16  2  0
 16 11  1  0
 10 17  1  0
 13 18  1  0
 14 19  1  0
 15 20  1  0
  3 10  1  0
M  END
>  <Score>  (1) 
-7.06153

$$$$

     RDKit          3D

 21 22  0  0  0  0  0  0  0  0999 V2000
   12.3037    8.1237   -2.2983 C   0  0  0  0  0  0  0  0  0  0  0  0
   12.0173    6.8876   -2.9254 C   0  0  0  0  0  0  0  0  0  0  0  0
   11.5266    6.8929   -4.2176 C   0  0  0  0  0  0  0  0  0  0  0  0
   11.3429    8.1128   -4.8308 N   0  0  0  0  0  0  0  0  0  0  0  0
   11.6236    9.2700   -4.2118 C   0  0  0  0  0  0  0  0  0  0  0  0
   12.1009    9.2840   -2.9541 N   0  0  0  0  0  0  0  0  0  0  0  0
   12.6840    8.1657   -1.2992 H   0  0  0  0  0  0  0  0  0  0  0  0
   12.2200    6.0077   -2.3603 H   0  0  0  0  0  0  0  0  0  0  0  0
   11.4839   10.2336   -4.6817 H   0  0  0  0  0  0  0  0  0  0  0  0
   11.1894    5.6994   -4.8982 N   0  0  0  0  0  0  0  0  0  0  0  0
   11.3453    5.4048   -6.2546 C   0  0  0  0  0  0  0  0  0  0  0  0
   12.4641    5.7823   -6.9486 C   0  0  0  0  0  0  0  0  0  0  0  0
   12.6115    5.5260   -8.2845 N   0  0  0  0  0  0  0  0  0  0  0  0
   11.6475    4.8884   -8.9506 C   0  0  0  0  0  0  0  0  0  0  0  0
   10.4871    4.4690   -8.3380 C   0  0  0  0  0  0  0  0  0  0  0  0
   10.3610    4.7379   -6.9966 C   0  0  0  0  0  0  0  0  0  0  0  0
    9.4763    4.4359   -6.4573 H   0  0  0  0  0  0  0  0  0  0  0  0
   10.7554    4.9080   -4.3102 H   0  0  0  0  0  0  0  0  0  0  0  0
   13.2993    6.2830   -6.4506 H   0  0  0  0  0  0  0  0  0  0  0  0
   11.7454    4.6745  -10.0153 H   0  0  0  0  0  0  0  0  0  0  0  0
    9.7300    3.9547   -8.9140 H   0  0  0  0  0  0  0  0  0  0  0  0
  2  1  2  0
  3  2  1  0
  4  3  2  0
  4  5  1  0
  5  6  2  0
  6  1  1  0
  1  7  1  0
  2  8  1  0
  5  9  1  0
 10 11  1  0
 11 12  2  0
 12 13  1  0
 13 14  2  0
 14 15  1  0
 15 16  2  0
 16 17  1  0
 16 11  1  0
 10 18  1  0
 12 19  1  0
 14 20  1  0
 15 21  1  0
  3 10  1  0
M  END
>  <Score>  (1) 
-7.04646

$$$$

     RDKit          3D

 21 22  0  0  0  0  0  0  0  0999 V2000
   12.3025    8.1227   -2.3016 C   0  0  0  0  0  0  0  0  0  0  0  0
   12.0216    6.8835   -2.9125 C   0  0  0  0  0  0  0  0  0  0  0  0
   11.5241    6.8988   -4.2258 C   0  0  0  0  0  0  0  0  0  0  0  0
   11.3423    8.1069   -4.8315 N   0  0  0  0  0  0  0  0  0  0  0  0
   11.6238    9.2775   -4.2118 C   0  0  0  0  0  0  0  0  0  0  0  0
   12.1007    9.2817   -2.9548 N   0  0  0  0  0  0  0  0  0  0  0  0
   12.6814    8.0643   -1.2966 H   0  0  0  0  0  0  0  0  0  0  0  0
   12.1840    5.9527   -2.3870 H   0  0  0  0  0  0  0  0  0  0  0  0
   11.4534   10.1959   -4.7572 H   0  0  0  0  0  0  0  0  0  0  0  0
   11.2511    5.7018   -4.8202 O   0  0  0  0  0  0  0  0  0  0  0  0
   10.5063    5.5430   -5.9511 C   0  0  0  0  0  0  0  0  0  0  0  0
    9.1436    5.3561   -5.8941 C   0  0  0  0  0  0  0  0  0  0  0  0
    8.3752    5.1932   -7.0420 C   0  0  0  0  0  0  0  0  0  0  0  0
    8.9860    5.2176   -8.2865 C   0  0  0  0  0  0  0  0  0  0  0  0
   10.3660    5.4054   -8.3741 C   0  0  0  0  0  0  0  0  0  0  0  0
   11.0784    5.5615   -7.2059 C   0  0  0  0  0  0  0  0  0  0  0  0
    8.6804    5.3392   -4.9186 H   0  0  0  0  0  0  0  0  0  0  0  0
    7.3170    5.0510   -6.9374 H   0  0  0  0  0  0  0  0  0  0  0  0
    8.3768    5.0896   -9.1732 H   0  0  0  0  0  0  0  0  0  0  0  0
   10.8446    5.4248   -9.3435 H   0  0  0  0  0  0  0  0  0  0  0  0
   12.1455    5.7055   -7.2982 H   0  0  0  0  0  0  0  0  0  0  0  0
  2  1  2  0
  3  2  1  0
  4  3  2  0
  4  5  1  0
  5  6  2  0
  6  1  1  0
  1  7  1  0
  2  8  1  0
  5  9  1  0
 10 11  1  0
 11 12  2  0
 12 13  1  0
 13 14  2  0
 14 15  1  0
 15 16  2  0
 16 11  1  0
 12 17  1  0
 13 18  1  0
 14 19  1  0
 15 20  1  0
 16 21  1  0
  3 10  1  0
M  END
>  <Score>  (1) 
-7.04363

$$$$

     RDKit          3D

 32 33  0  0  0  0  0  0  0  0999 V2000
   12.3027    8.1256   -2.3014 C   0  0  0  0  0  0  0  0  0  0  0  0
   12.0201    6.8827   -2.9163 C   0  0  0  0  0  0  0  0  0  0  0  0
   11.5244    6.9019   -4.2253 C   0  0  0  0  0  0  0  0  0  0  0  0
   11.3431    8.1044   -4.8291 N   0  0  0  0  0  0  0  0  0  0  0  0
   11.6226    9.2757   -4.2149 C   0  0  0  0  0  0  0  0  0  0  0  0
   12.1021    9.2807   -2.9510 N   0  0  0  0  0  0  0  0  0  0  0  0
   12.6811    8.0848   -1.2994 H   0  0  0  0  0  0  0  0  0  0  0  0
   12.1708    5.9558   -2.4221 H   0  0  0  0  0  0  0  0  0  0  0  0
   11.4516   10.1856   -4.7607 H   0  0  0  0  0  0  0  0  0  0  0  0
   11.2101    5.7859   -4.9371 O   0  0  0  0  0  0  0  0  0  0  0  0
   10.7146    5.6970   -6.2341 C   0  0  2  0  0  0  0  0  0  0  0  0
    9.5132    5.0004   -6.3209 O   0  0  0  0  0  0  0  0  0  0  0  0
    9.4623    4.1056   -7.3594 C   0  0  1  0  0  0  0  0  0  0  0  0
    8.0140    3.7079   -7.5984 C   0  0  0  0  0  0  0  0  0  0  0  0
    7.4563    3.1134   -6.4645 O   0  0  0  0  0  0  0  0  0  0  0  0
    9.9788    4.6638   -8.6677 C   0  0  1  0  0  0  0  0  0  0  0  0
    9.1226    5.6245   -9.1481 O   0  0  0  0  0  0  0  0  0  0  0  0
   11.3941    5.1950   -8.5210 C   0  0  1  0  0  0  0  0  0  0  0  0
   11.3471    6.5684   -8.7372 O   0  0  0  0  0  0  0  0  0  0  0  0
   11.7856    4.9812   -7.0699 C   0  0  1  0  0  0  0  0  0  0  0  0
   12.9876    5.6224   -6.7794 O   0  0  0  0  0  0  0  0  0  0  0  0
   10.5656    6.6747   -6.7294 H   0  0  0  0  0  0  0  0  0  0  0  0
    9.9899    3.1782   -7.0614 H   0  0  0  0  0  0  0  0  0  0  0  0
    7.9422    2.9464   -8.4105 H   0  0  0  0  0  0  0  0  0  0  0  0
    7.4061    4.5742   -7.9381 H   0  0  0  0  0  0  0  0  0  0  0  0
    7.9705    3.3601   -5.6498 H   0  0  0  0  0  0  0  0  0  0  0  0
   10.0109    3.8070   -9.3865 H   0  0  0  0  0  0  0  0  0  0  0  0
    9.1924    5.7024  -10.1308 H   0  0  0  0  0  0  0  0  0  0  0  0
   12.0856    4.6703   -9.1905 H   0  0  0  0  0  0  0  0  0  0  0  0
   11.4154    6.7843   -9.7087 H   0  0  0  0  0  0  0  0  0  0  0  0
   11.8702    3.9235   -6.7961 H   0  0  0  0  0  0  0  0  0  0  0  0
   13.6967    5.1416   -7.2497 H   0  0  0  0  0  0  0  0  0  0  0  0
  2  1  2  0
  3  2  1  0
  4  3  2  0
  4  5  1  0
  5  6  2  0
  6  1  1  0
  1  7  1  0
  2  8  1  0
  5  9  1  0
 10 11  1  0
 11 12  1  0
 12 13  1  0
 13 14  1  0
 14 15  1  0
 13 16  1  0
 16 17  1  0
 16 18  1  0
 18 19  1  0
 18 20  1  0
 20 21  1  0
 20 11  1  0
 11 22  1  6
 13 23  1  1
 14 24  1  0
 14 25  1  0
 15 26  1  0
 16 27  1  6
 17 28  1  0
 18 29  1  6
 19 30  1  0
 20 31  1  1
 21 32  1  0
  3 10  1  0
M  END
>  <Score>  (1) 
-7.03268

$$$$

     RDKit          3D

 20 20  0  0  0  0  0  0  0  0999 V2000
   12.3026    8.1232   -2.3014 C   0  0  0  0  0  0  0  0  0  0  0  0
   12.0198    6.8841   -2.9172 C   0  0  0  0  0  0  0  0  0  0  0  0
   11.5262    6.8963   -4.2200 C   0  0  0  0  0  0  0  0  0  0  0  0
   11.3439    8.1139   -4.8280 N   0  0  0  0  0  0  0  0  0  0  0  0
   11.6239    9.2752   -4.2112 C   0  0  0  0  0  0  0  0  0  0  0  0
   12.0985    9.2783   -2.9601 N   0  0  0  0  0  0  0  0  0  0  0  0
   12.6810    8.0643   -1.2979 H   0  0  0  0  0  0  0  0  0  0  0  0
   11.3027    5.9847   -4.7148 H   0  0  0  0  0  0  0  0  0  0  0  0
   11.4584   10.2189   -4.7454 H   0  0  0  0  0  0  0  0  0  0  0  0
   12.2393    5.6209   -2.2069 C   0  0  0  0  0  0  0  0  0  0  0  0
   11.4865    4.6149   -2.8398 O   0  0  0  0  0  0  0  0  0  0  0  0
   11.7190    5.6582   -0.7706 C   0  0  0  0  0  0  0  0  0  0  0  0
   12.3142    6.6207   -0.0181 F   0  0  0  0  0  0  0  0  0  0  0  0
   10.3389    5.8377   -0.8601 F   0  0  0  0  0  0  0  0  0  0  0  0
   11.9237    4.3908   -0.2428 F   0  0  0  0  0  0  0  0  0  0  0  0
   13.7125    5.2398   -2.2081 C   0  0  0  0  0  0  0  0  0  0  0  0
   13.7868    4.0302   -1.5073 F   0  0  0  0  0  0  0  0  0  0  0  0
   14.1183    5.0238   -3.4990 F   0  0  0  0  0  0  0  0  0  0  0  0
   14.4799    6.2010   -1.5906 F   0  0  0  0  0  0  0  0  0  0  0  0
   11.8436    4.3641   -3.7080 H   0  0  0  0  0  0  0  0  0  0  0  0
  2  1  2  0
  3  2  1  0
  4  3  2  0
  4  5  1  0
  5  6  2  0
  6  1  1  0
  1  7  1  0
  3  8  1  0
  5  9  1  0
 10 11  1  0
 10 12  1  0
 12 13  1  0
 12 14  1  0
 12 15  1  0
 10 16  1  0
 16 17  1  0
 16 18  1  0
 16 19  1  0
 11 20  1  0
  2 10  1  0
M  END
>  <Score>  (1) 
-7.76746

$$$$

     RDKit          3D

 28 29  0  0  0  0  0  0  0  0999 V2000
   12.3026    8.1211   -2.3010 C   0  0  0  0  0  0  0  0  0  0  0  0
   12.0212    6.8816   -2.9133 C   0  0  0  0  0  0  0  0  0  0  0  0
   11.5247    6.9006   -4.2245 C   0  0  0  0  0  0  0  0  0  0  0  0
   11.3421    8.1050   -4.8318 N   0  0  0  0  0  0  0  0  0  0  0  0
   11.6250    9.2788   -4.2088 C   0  0  0  0  0  0  0  0  0  0  0  0
   12.0994    9.2839   -2.9586 N   0  0  0  0  0  0  0  0  0  0  0  0
   12.6834    8.0993   -1.2952 H   0  0  0  0  0  0  0  0  0  0  0  0
   11.3019    5.9724   -4.7148 H   0  0  0  0  0  0  0  0  0  0  0  0
   11.4447   10.1826   -4.7787 H   0  0  0  0  0  0  0  0  0  0  0  0
   12.2535    5.6135   -2.1678 C   0  0  2  0  0  0  0  0  0  0  0  0
   13.4985    5.6524   -1.3324 C   0  0  0  0  0  0  0  0  0  0  0  0
   14.3127    4.3910   -1.4170 C   0  0  0  0  0  0  0  0  0  0  0  0
   14.6154    4.0736   -2.8525 C   0  0  0  0  0  0  0  0  0  0  0  0
   13.3521    3.8329   -3.5926 C   0  0  0  0  0  0  0  0  0  0  0  0
   12.1192    4.4231   -3.0467 C   0  0  2  0  0  0  0  0  0  0  0  0
   11.2676    4.8249   -4.1773 N   0  0  0  0  0  0  0  0  0  0  0  0
   11.4015    5.5475   -1.4237 H   0  0  0  0  0  0  0  0  0  0  0  0
   14.1248    6.5029   -1.6789 H   0  0  0  0  0  0  0  0  0  0  0  0
   13.3067    5.8388   -0.2544 H   0  0  0  0  0  0  0  0  0  0  0  0
   15.2808    4.5971   -0.8960 H   0  0  0  0  0  0  0  0  0  0  0  0
   13.7824    3.5694   -0.9346 H   0  0  0  0  0  0  0  0  0  0  0  0
   15.1953    4.8971   -3.3202 H   0  0  0  0  0  0  0  0  0  0  0  0
   15.2534    3.1660   -2.8604 H   0  0  0  0  0  0  0  0  0  0  0  0
   13.2387    2.7139   -3.7200 H   0  0  0  0  0  0  0  0  0  0  0  0
   13.5261    4.1827   -4.6553 H   0  0  0  0  0  0  0  0  0  0  0  0
   11.5285    3.5982   -2.5479 H   0  0  0  0  0  0  0  0  0  0  0  0
   11.9013    5.0926   -4.9406 H   0  0  0  0  0  0  0  0  0  0  0  0
   10.5996    4.0902   -4.4462 H   0  0  0  0  0  0  0  0  0  0  0  0
  2  1  2  0
  3  2  1  0
  4  3  2  0
  4  5  1  0
  5  6  2  0
  6  1  1  0
  1  7  1  0
  3  8  1  0
  5  9  1  0
 10 11  1  0
 11 12  1  0
 12 13  1  0
 13 14  1  0
 14 15  1  0
 15 16  1  0
 15 10  1  0
 10 17  1  1
 11 18  1  0
 11 19  1  0
 12 20  1  0
 12 21  1  0
 13 22  1  0
 13 23  1  0
 14 24  1  0
 14 25  1  0
 15 26  1  1
 16 27  1  0
 16 28  1  0
  2 10  1  0
M  END
>  <Score>  (1) 
-7.19634

$$$$

     RDKit          3D

 23 24  0  0  0  0  0  0  0  0999 V2000
   12.3019    8.1285   -2.3038 C   0  0  0  0  0  0  0  0  0  0  0  0
   12.0221    6.8784   -2.9107 C   0  0  0  0  0  0  0  0  0  0  0  0
   11.5238    6.9004   -4.2267 C   0  0  0  0  0  0  0  0  0  0  0  0
   11.3426    8.1096   -4.8310 N   0  0  0  0  0  0  0  0  0  0  0  0
   11.6234    9.2748   -4.2125 C   0  0  0  0  0  0  0  0  0  0  0  0
   12.1012    9.2794   -2.9533 N   0  0  0  0  0  0  0  0  0  0  0  0
   12.6873    8.1033   -1.2849 H   0  0  0  0  0  0  0  0  0  0  0  0
   11.3021    5.9734   -4.7144 H   0  0  0  0  0  0  0  0  0  0  0  0
   11.4444   10.1785   -4.7790 H   0  0  0  0  0  0  0  0  0  0  0  0
   12.2597    5.6164   -2.1895 C   0  0  0  0  0  0  0  0  0  0  0  0
   13.3392    5.6165   -1.2120 C   0  0  0  0  0  0  0  0  0  0  0  0
   13.5464    4.4033   -0.5418 C   0  0  0  0  0  0  0  0  0  0  0  0
   14.5372    4.2792    0.4046 C   0  0  0  0  0  0  0  0  0  0  0  0
   14.6915    3.3330    0.9207 H   0  0  0  0  0  0  0  0  0  0  0  0
   15.3436    5.3437    0.7111 C   0  0  0  0  0  0  0  0  0  0  0  0
   15.1418    6.5272    0.0576 C   0  0  0  0  0  0  0  0  0  0  0  0
   14.1402    6.6832   -0.9113 C   0  0  0  0  0  0  0  0  0  0  0  0
   13.9394    8.2257   -1.7066 Cl  0  0  0  0  0  0  0  0  0  0  0  0
   12.4234    4.7708   -2.9255 H   0  0  0  0  0  0  0  0  0  0  0  0
   11.3328    5.3201   -1.6484 H   0  0  0  0  0  0  0  0  0  0  0  0
   12.9469    3.5394   -0.7409 H   0  0  0  0  0  0  0  0  0  0  0  0
   16.1090    5.1924    1.4642 H   0  0  0  0  0  0  0  0  0  0  0  0
   15.7468    7.3787    0.2665 H   0  0  0  0  0  0  0  0  0  0  0  0
  2  1  2  0
  3  2  1  0
  4  3  2  0
  4  5  1  0
  5  6  2  0
  6  1  1  0
  1  7  1  0
  3  8  1  0
  5  9  1  0
 10 11  1  0
 11 12  2  0
 12 13  1  0
 13 14  1  0
 13 15  2  0
 15 16  1  0
 16 17  2  0
 17 18  1  0
 17 11  1  0
 10 19  1  0
 10 20  1  0
 12 21  1  0
 15 22  1  0
 16 23  1  0
  2 10  1  0
M  END
>  <Score>  (1) 
-7.10928

$$$$

     RDKit          3D

 23 25  0  0  0  0  0  0  0  0999 V2000
   12.3026    8.1240   -2.3014 C   0  0  0  0  0  0  0  0  0  0  0  0
   12.0211    6.8828   -2.9136 C   0  0  0  0  0  0  0  0  0  0  0  0
   11.5244    6.8977   -4.2248 C   0  0  0  0  0  0  0  0  0  0  0  0
   11.3423    8.1084   -4.8316 N   0  0  0  0  0  0  0  0  0  0  0  0
   11.6236    9.2768   -4.2122 C   0  0  0  0  0  0  0  0  0  0  0  0
   12.1009    9.2812   -2.9543 N   0  0  0  0  0  0  0  0  0  0  0  0
   12.6878    8.0813   -1.2815 H   0  0  0  0  0  0  0  0  0  0  0  0
   12.1871    5.9559   -2.3790 H   0  0  0  0  0  0  0  0  0  0  0  0
   11.3003    5.9726   -4.7189 H   0  0  0  0  0  0  0  0  0  0  0  0
   11.3896   10.4684   -4.9537 N   0  0  0  0  0  0  0  0  0  0  0  0
   11.4587   11.7479   -4.5632 C   0  0  0  0  0  0  0  0  0  0  0  0
   11.7140   12.0963   -3.5815 H   0  0  0  0  0  0  0  0  0  0  0  0
   11.1593   12.5594   -5.5871 N   0  0  0  0  0  0  0  0  0  0  0  0
   10.8864   11.8074   -6.6766 C   0  0  0  0  0  0  0  0  0  0  0  0
   10.5280   12.1190   -7.9712 C   0  0  0  0  0  0  0  0  0  0  0  0
   10.3186   11.0807   -8.8554 C   0  0  0  0  0  0  0  0  0  0  0  0
   10.4642    9.7542   -8.4559 C   0  0  0  0  0  0  0  0  0  0  0  0
   10.8259    9.4645   -7.1468 C   0  0  0  0  0  0  0  0  0  0  0  0
   11.0376   10.5022   -6.2538 C   0  0  0  0  0  0  0  0  0  0  0  0
   10.4064   13.1439   -8.3137 H   0  0  0  0  0  0  0  0  0  0  0  0
   10.0350   11.2381   -9.8893 H   0  0  0  0  0  0  0  0  0  0  0  0
   10.2996    8.9411   -9.1505 H   0  0  0  0  0  0  0  0  0  0  0  0
   10.9442    8.4209   -6.8180 H   0  0  0  0  0  0  0  0  0  0  0  0
  2  1  2  0
  3  2  1  0
  4  3  2  0
  4  5  1  0
  5  6  2  0
  6  1  1  0
  1  7  1  0
  2  8  1  0
  3  9  1  0
 10 11  1  0
 11 12  1  0
 11 13  2  0
 13 14  1  0
 14 15  2  0
 15 16  1  0
 16 17  2  0
 17 18  1  0
 18 19  2  0
 19 10  1  0
 19 14  1  0
 15 20  1  0
 16 21  1  0
 17 22  1  0
 18 23  1  0
  5 10  1  0
M  END
>  <Score>  (1) 
-7.80858

$$$$

     RDKit          3D

 25 27  0  0  0  0  0  0  0  0999 V2000
   11.5575    6.9217   -4.1696 C   0  0  0  0  0  0  0  0  0  0  0  0
   12.0442    6.8267   -2.8535 C   0  0  0  0  0  0  0  0  0  0  0  0
   12.3207    8.0177   -2.1654 C   0  0  0  0  0  0  0  0  0  0  0  0
   12.1003    9.2032   -2.8164 N   0  0  0  0  0  0  0  0  0  0  0  0
   11.6321    9.2521   -4.0804 C   0  0  0  0  0  0  0  0  0  0  0  0
   11.3622    8.1286   -4.7538 N   0  0  0  0  0  0  0  0  0  0  0  0
   11.3427    6.0064   -4.7047 H   0  0  0  0  0  0  0  0  0  0  0  0
   12.2035    5.8687   -2.3783 H   0  0  0  0  0  0  0  0  0  0  0  0
   12.6928    8.0120   -1.1624 H   0  0  0  0  0  0  0  0  0  0  0  0
   11.4274   10.5609   -4.6948 C   0  0  0  0  0  0  0  0  0  0  0  0
   10.1695   11.1002   -4.8627 C   0  0  0  0  0  0  0  0  0  0  0  0
    9.9614   12.3036   -5.4262 N   0  0  0  0  0  0  0  0  0  0  0  0
   11.0038   13.0535   -5.8625 C   0  0  0  0  0  0  0  0  0  0  0  0
   10.7857   14.2994   -6.4458 C   0  0  0  0  0  0  0  0  0  0  0  0
   11.8541   15.0256   -6.8726 C   0  0  0  0  0  0  0  0  0  0  0  0
   13.1439   14.5725   -6.7485 C   0  0  0  0  0  0  0  0  0  0  0  0
   13.3385   13.3379   -6.1691 C   0  0  0  0  0  0  0  0  0  0  0  0
   12.2869   12.5711   -5.7238 C   0  0  0  0  0  0  0  0  0  0  0  0
   12.4934   11.3183   -5.1365 C   0  0  0  0  0  0  0  0  0  0  0  0
    9.2833   10.5453   -4.5314 H   0  0  0  0  0  0  0  0  0  0  0  0
    9.7624   14.6332   -6.5318 H   0  0  0  0  0  0  0  0  0  0  0  0
   11.6653   15.9931   -7.3241 H   0  0  0  0  0  0  0  0  0  0  0  0
   13.9523   15.1940   -7.1062 H   0  0  0  0  0  0  0  0  0  0  0  0
   14.3545   12.9870   -6.0743 H   0  0  0  0  0  0  0  0  0  0  0  0
   13.4928   10.9662   -5.0399 H   0  0  0  0  0  0  0  0  0  0  0  0
  1  2  2  0
  2  3  1  0
  4  3  2  0
  5  4  1  0
  6  1  1  0
  6  5  2  0
  1  7  1  0
  2  8  1  0
  3  9  1  0
 10 11  2  0
 11 12  1  0
 12 13  2  0
 13 14  1  0
 14 15  2  0
 15 16  1  0
 16 17  2  0
 17 18  1  0
 18 19  2  0
 19 10  1  0
 18 13  1  0
 11 20  1  0
 14 21  1  0
 15 22  1  0
 16 23  1  0
 17 24  1  0
 19 25  1  0
  5 10  1  0
M  END
>  <Score>  (1) 
-8.95921

$$$$

     RDKit          3D

 25 27  0  0  0  0  0  0  0  0999 V2000
   11.5564    6.9256   -4.1729 C   0  0  0  0  0  0  0  0  0  0  0  0
   12.0450    6.8274   -2.8514 C   0  0  0  0  0  0  0  0  0  0  0  0
   12.3204    8.0178   -2.1662 C   0  0  0  0  0  0  0  0  0  0  0  0
   12.1005    9.2019   -2.8156 N   0  0  0  0  0  0  0  0  0  0  0  0
   11.6327    9.2565   -4.0789 C   0  0  0  0  0  0  0  0  0  0  0  0
   11.3620    8.1209   -4.7539 N   0  0  0  0  0  0  0  0  0  0  0  0
   11.3594    5.9803   -4.6584 H   0  0  0  0  0  0  0  0  0  0  0  0
   12.2008    5.8668   -2.3855 H   0  0  0  0  0  0  0  0  0  0  0  0
   12.6906    8.0195   -1.1686 H   0  0  0  0  0  0  0  0  0  0  0  0
   11.4352   10.5182   -4.6717 N   0  0  0  0  0  0  0  0  0  0  0  0
   10.2600   10.9387   -5.0451 N   0  0  0  0  0  0  0  0  0  0  0  0
   10.0683   12.1495   -5.6143 C   0  0  0  0  0  0  0  0  0  0  0  0
    9.0804   12.4829   -5.9193 H   0  0  0  0  0  0  0  0  0  0  0  0
   11.1178   13.0203   -5.8357 C   0  0  0  0  0  0  0  0  0  0  0  0
   10.9778   14.2561   -6.4079 C   0  0  0  0  0  0  0  0  0  0  0  0
   12.0374   15.1141   -6.6219 C   0  0  0  0  0  0  0  0  0  0  0  0
   13.2977   14.6859   -6.2317 C   0  0  0  0  0  0  0  0  0  0  0  0
   13.4370   13.4402   -5.6552 C   0  0  0  0  0  0  0  0  0  0  0  0
   12.3697   12.5900   -5.4458 C   0  0  0  0  0  0  0  0  0  0  0  0
   12.5011   11.3484   -4.8724 C   0  0  0  0  0  0  0  0  0  0  0  0
   13.6305   10.9556   -4.5186 O   0  0  0  0  0  0  0  0  0  0  0  0
    9.9965   14.5919   -6.7128 H   0  0  0  0  0  0  0  0  0  0  0  0
   11.8948   16.0956   -7.0814 H   0  0  0  0  0  0  0  0  0  0  0  0
   14.1491   15.3552   -6.3948 H   0  0  0  0  0  0  0  0  0  0  0  0
   14.4111   13.0978   -5.3484 H   0  0  0  0  0  0  0  0  0  0  0  0
  1  2  2  0
  2  3  1  0
  4  3  2  0
  5  4  1  0
  6  1  1  0
  6  5  2  0
  1  7  1  0
  2  8  1  0
  3  9  1  0
 10 11  1  0
 11 12  2  0
 12 13  1  0
 12 14  1  0
 14 15  2  0
 15 16  1  0
 16 17  2  0
 17 18  1  0
 18 19  2  0
 19 20  1  0
 20 21  2  0
 20 10  1  0
 19 14  1  0
 15 22  1  0
 16 23  1  0
 17 24  1  0
 18 25  1  0
  5 10  1  0
M  END
>  <Score>  (1) 
-8.23119

$$$$

     RDKit          3D

 23 25  0  0  0  0  0  0  0  0999 V2000
   11.5567    6.9240   -4.1718 C   0  0  0  0  0  0  0  0  0  0  0  0
   12.0444    6.8256   -2.8529 C   0  0  0  0  0  0  0  0  0  0  0  0
   12.3202    8.0215   -2.1669 C   0  0  0  0  0  0  0  0  0  0  0  0
   12.1007    9.2002   -2.8150 N   0  0  0  0  0  0  0  0  0  0  0  0
   11.6328    9.2553   -4.0787 C   0  0  0  0  0  0  0  0  0  0  0  0
   11.3622    8.1233   -4.7537 N   0  0  0  0  0  0  0  0  0  0  0  0
   11.3333    6.0133   -4.7304 H   0  0  0  0  0  0  0  0  0  0  0  0
   12.2047    5.8856   -2.3759 H   0  0  0  0  0  0  0  0  0  0  0  0
   12.6936    7.9894   -1.1592 H   0  0  0  0  0  0  0  0  0  0  0  0
   11.4180   10.5515   -4.7195 C   0  0  0  0  0  0  0  0  0  0  0  0
   10.1687   11.0633   -4.8911 C   0  0  0  0  0  0  0  0  0  0  0  0
    9.9743   12.2873   -5.4968 C   0  0  0  0  0  0  0  0  0  0  0  0
   11.0734   13.0075   -5.9381 C   0  0  0  0  0  0  0  0  0  0  0  0
   10.9691   14.2335   -6.5513 C   0  0  0  0  0  0  0  0  0  0  0  0
    9.9739   14.6427   -6.6886 H   0  0  0  0  0  0  0  0  0  0  0  0
   12.0836   14.9010   -6.9672 N   0  0  0  0  0  0  0  0  0  0  0  0
   13.2968   14.3611   -6.7790 C   0  0  0  0  0  0  0  0  0  0  0  0
   14.2098   14.8360   -7.0833 H   0  0  0  0  0  0  0  0  0  0  0  0
   13.4081   13.1596   -6.1788 N   0  0  0  0  0  0  0  0  0  0  0  0
   12.3206   12.4627   -5.7500 C   0  0  0  0  0  0  0  0  0  0  0  0
   12.4716   11.2657   -5.1548 N   0  0  0  0  0  0  0  0  0  0  0  0
    9.2956   10.5087   -4.5492 H   0  0  0  0  0  0  0  0  0  0  0  0
    9.0066   12.7304   -5.6531 H   0  0  0  0  0  0  0  0  0  0  0  0
  1  2  2  0
  2  3  1  0
  4  3  2  0
  5  4  1  0
  6  1  1  0
  6  5  2  0
  1  7  1  0
  2  8  1  0
  3  9  1  0
 10 11  2  0
 11 12  1  0
 12 13  2  0
 13 14  1  0
 14 15  1  0
 14 16  2  0
 16 17  1  0
 17 18  1  0
 17 19  2  0
 19 20  1  0
 20 21  2  0
 21 10  1  0
 20 13  1  0
 11 22  1  0
 12 23  1  0
  5 10  1  0
M  END
>  <Score>  (1) 
-8.13735

$$$$

     RDKit          3D

 20 21  0  0  0  0  0  0  0  0999 V2000
   11.5553    6.9262   -4.1759 C   0  0  0  0  0  0  0  0  0  0  0  0
   12.0466    6.8292   -2.8471 C   0  0  0  0  0  0  0  0  0  0  0  0
   12.3193    8.0175   -2.1692 C   0  0  0  0  0  0  0  0  0  0  0  0
   12.1017    9.1998   -2.8123 N   0  0  0  0  0  0  0  0  0  0  0  0
   11.6319    9.2565   -4.0812 C   0  0  0  0  0  0  0  0  0  0  0  0
   11.3623    8.1208   -4.7532 N   0  0  0  0  0  0  0  0  0  0  0  0
   11.3421    6.0022   -4.7059 H   0  0  0  0  0  0  0  0  0  0  0  0
   12.1956    5.8628   -2.3993 H   0  0  0  0  0  0  0  0  0  0  0  0
   12.6865    7.9360   -1.1758 H   0  0  0  0  0  0  0  0  0  0  0  0
   11.4195   10.5521   -4.7157 C   0  0  0  0  0  0  0  0  0  0  0  0
   11.8461   10.7564   -6.0109 C   0  0  0  0  0  0  0  0  0  0  0  0
   11.6732   11.9609   -6.6646 C   0  0  0  0  0  0  0  0  0  0  0  0
   12.0871   12.1763   -7.9372 F   0  0  0  0  0  0  0  0  0  0  0  0
   11.0536   12.9672   -5.9763 C   0  0  0  0  0  0  0  0  0  0  0  0
   10.8420   14.1829   -6.5396 F   0  0  0  0  0  0  0  0  0  0  0  0
   10.6217   12.7696   -4.6733 C   0  0  0  0  0  0  0  0  0  0  0  0
   10.7951   11.5658   -4.0219 C   0  0  0  0  0  0  0  0  0  0  0  0
   10.3616   11.3905   -2.7348 F   0  0  0  0  0  0  0  0  0  0  0  0
   12.3455    9.9690   -6.5874 H   0  0  0  0  0  0  0  0  0  0  0  0
   10.1261   13.5508   -4.1010 H   0  0  0  0  0  0  0  0  0  0  0  0
  1  2  2  0
  2  3  1  0
  4  3  2  0
  5  4  1  0
  6  1  1  0
  6  5  2  0
  1  7  1  0
  2  8  1  0
  3  9  1  0
 10 11  2  0
 11 12  1  0
 12 13  1  0
 12 14  2  0
 14 15  1  0
 14 16  1  0
 16 17  2  0
 17 18  1  0
 17 10  1  0
 11 19  1  0
 16 20  1  0
  5 10  1  0
M  END
>  <Score>  (1) 
-8.09023

$$$$

     RDKit          3D

 26 27  0  0  0  0  0  0  0  0999 V2000
   11.5559    6.9253   -4.1742 C   0  0  0  0  0  0  0  0  0  0  0  0
   12.0458    6.8287   -2.8493 C   0  0  0  0  0  0  0  0  0  0  0  0
   12.3204    8.0146   -2.1662 C   0  0  0  0  0  0  0  0  0  0  0  0
   12.0995    9.2031   -2.8184 N   0  0  0  0  0  0  0  0  0  0  0  0
   11.6330    9.2565   -4.0782 C   0  0  0  0  0  0  0  0  0  0  0  0
   11.3624    8.1218   -4.7528 N   0  0  0  0  0  0  0  0  0  0  0  0
   11.3323    6.0315   -4.7339 H   0  0  0  0  0  0  0  0  0  0  0  0
   12.2026    5.8895   -2.3816 H   0  0  0  0  0  0  0  0  0  0  0  0
   12.6959    7.9899   -1.1530 H   0  0  0  0  0  0  0  0  0  0  0  0
   11.4113   10.5464   -4.7373 C   0  0  0  0  0  0  0  0  0  0  0  0
   11.5397   10.6607   -6.0986 C   0  0  0  0  0  0  0  0  0  0  0  0
   11.3480   11.8376   -6.7928 C   0  0  0  0  0  0  0  0  0  0  0  0
   11.5111   11.8643   -8.2832 C   0  0  0  0  0  0  0  0  0  0  0  0
   11.0107   12.9509   -6.0761 C   0  0  0  0  0  0  0  0  0  0  0  0
   10.8740   12.8671   -4.7037 C   0  0  0  0  0  0  0  0  0  0  0  0
   11.0728   11.6638   -4.0185 C   0  0  0  0  0  0  0  0  0  0  0  0
   10.9174   11.6132   -2.5482 C   0  0  0  0  0  0  0  0  0  0  0  0
   11.8070    9.7714   -6.6514 H   0  0  0  0  0  0  0  0  0  0  0  0
   12.4279   12.4045   -8.5630 H   0  0  0  0  0  0  0  0  0  0  0  0
   11.6095   10.8189   -8.6438 H   0  0  0  0  0  0  0  0  0  0  0  0
   10.6117   12.2791   -8.7807 H   0  0  0  0  0  0  0  0  0  0  0  0
   10.8562   13.8872   -6.6120 H   0  0  0  0  0  0  0  0  0  0  0  0
   10.6077   13.7484   -4.1430 H   0  0  0  0  0  0  0  0  0  0  0  0
   10.6560   12.6433   -2.1759 H   0  0  0  0  0  0  0  0  0  0  0  0
   11.8818   11.3752   -2.0247 H   0  0  0  0  0  0  0  0  0  0  0  0
   10.0838   10.9686   -2.2151 H   0  0  0  0  0  0  0  0  0  0  0  0
  1  2  2  0
  2  3  1  0
  4  3  2  0
  5  4  1  0
  6  1  1  0
  6  5  2  0
  1  7  1  0
  2  8  1  0
  3  9  1  0
 10 11  2  0
 11 12  1  0
 12 13  1  0
 12 14  2  0
 14 15  1  0
 15 16  2  0
 16 17  1  0
 16 10  1  0
 11 18  1  0
 13 19  1  0
 13 20  1  0
 13 21  1  0
 14 22  1  0
 15 23  1  0
 17 24  1  0
 17 25  1  0
 17 26  1  0
  5 10  1  0
M  END
>  <Score>  (1) 
-8.08195

$$$$

     RDKit          3D

 23 25  0  0  0  0  0  0  0  0999 V2000
   11.5573    6.9222   -4.1702 C   0  0  0  0  0  0  0  0  0  0  0  0
   12.0446    6.8285   -2.8524 C   0  0  0  0  0  0  0  0  0  0  0  0
   12.3202    8.0171   -2.1668 C   0  0  0  0  0  0  0  0  0  0  0  0
   12.1010    9.2010   -2.8142 N   0  0  0  0  0  0  0  0  0  0  0  0
   11.6313    9.2545   -4.0826 C   0  0  0  0  0  0  0  0  0  0  0  0
   11.3626    8.1267   -4.7528 N   0  0  0  0  0  0  0  0  0  0  0  0
   11.3592    5.9872   -4.6592 H   0  0  0  0  0  0  0  0  0  0  0  0
   12.2080    5.8958   -2.3674 H   0  0  0  0  0  0  0  0  0  0  0  0
   12.6870    7.9457   -1.1747 H   0  0  0  0  0  0  0  0  0  0  0  0
   11.4312   10.5711   -4.6850 C   0  0  0  0  0  0  0  0  0  0  0  0
   12.4103   11.1829   -5.3726 N   0  0  0  0  0  0  0  0  0  0  0  0
   12.2685   12.3701   -5.9305 N   0  0  0  0  0  0  0  0  0  0  0  0
   13.1114   13.1286   -6.6417 C   0  0  0  0  0  0  0  0  0  0  0  0
   12.4905   14.3123   -7.0157 C   0  0  0  0  0  0  0  0  0  0  0  0
   11.2190   14.2477   -6.4991 C   0  0  0  0  0  0  0  0  0  0  0  0
   11.1119   13.0410   -5.8365 C   0  0  0  0  0  0  0  0  0  0  0  0
   10.0821   12.4515   -5.1412 C   0  0  0  0  0  0  0  0  0  0  0  0
    8.9967   13.0812   -5.0530 O   0  0  0  0  0  0  0  0  0  0  0  0
   10.2620   11.2267   -4.5785 N   0  0  0  0  0  0  0  0  0  0  0  0
   14.1252   12.9014   -6.9101 H   0  0  0  0  0  0  0  0  0  0  0  0
   12.8915   15.1391   -7.5944 H   0  0  0  0  0  0  0  0  0  0  0  0
   10.4352   14.9886   -6.5829 H   0  0  0  0  0  0  0  0  0  0  0  0
    9.4696   10.8085   -4.0616 H   0  0  0  0  0  0  0  0  0  0  0  0
  1  2  2  0
  2  3  1  0
  4  3  2  0
  5  4  1  0
  6  1  1  0
  6  5  2  0
  1  7  1  0
  2  8  1  0
  3  9  1  0
 10 11  2  0
 11 12  1  0
 12 13  1  0
 13 14  2  0
 14 15  1  0
 15 16  2  0
 16 17  1  0
 17 18  2  0
 17 19  1  0
 19 10  1  0
 16 12  1  0
 13 20  1  0
 14 21  1  0
 15 22  1  0
 19 23  1  0
  5 10  1  0
M  END
>  <Score>  (1) 
-8.03136

$$$$

     RDKit          3D

 20 21  0  0  0  0  0  0  0  0999 V2000
   11.5565    6.9241   -4.1724 C   0  0  0  0  0  0  0  0  0  0  0  0
   12.0445    6.8277   -2.8527 C   0  0  0  0  0  0  0  0  0  0  0  0
   12.3207    8.0173   -2.1654 C   0  0  0  0  0  0  0  0  0  0  0  0
   12.0997    9.2017   -2.8178 N   0  0  0  0  0  0  0  0  0  0  0  0
   11.6324    9.2558   -4.0796 C   0  0  0  0  0  0  0  0  0  0  0  0
   11.3631    8.1234   -4.7512 N   0  0  0  0  0  0  0  0  0  0  0  0
   11.3582    5.9814   -4.6618 H   0  0  0  0  0  0  0  0  0  0  0  0
   12.2021    5.8784   -2.3825 H   0  0  0  0  0  0  0  0  0  0  0  0
   12.6982    7.9982   -1.1471 H   0  0  0  0  0  0  0  0  0  0  0  0
   11.4388   10.5769   -4.6647 C   0  0  0  0  0  0  0  0  0  0  0  0
   11.1201   11.6635   -3.8779 C   0  0  0  0  0  0  0  0  0  0  0  0
   10.9299   12.9302   -4.4026 C   0  0  0  0  0  0  0  0  0  0  0  0
   11.0559   13.1488   -5.7553 C   0  0  0  0  0  0  0  0  0  0  0  0
   10.8271   14.7331   -6.4839 Cl  0  0  0  0  0  0  0  0  0  0  0  0
   11.3746   12.0667   -6.5501 C   0  0  0  0  0  0  0  0  0  0  0  0
   11.5440   12.3095   -8.2876 Cl  0  0  0  0  0  0  0  0  0  0  0  0
   11.5632   10.8032   -6.0179 C   0  0  0  0  0  0  0  0  0  0  0  0
   11.0255   11.4682   -2.8112 H   0  0  0  0  0  0  0  0  0  0  0  0
   10.6823   13.7508   -3.7525 H   0  0  0  0  0  0  0  0  0  0  0  0
   11.8160    9.9390   -6.6385 H   0  0  0  0  0  0  0  0  0  0  0  0
  1  2  2  0
  2  3  1  0
  4  3  2  0
  5  4  1  0
  6  1  1  0
  6  5  2  0
  1  7  1  0
  2  8  1  0
  3  9  1  0
 10 11  2  0
 11 12  1  0
 12 13  2  0
 13 14  1  0
 13 15  1  0
 15 16  1  0
 15 17  2  0
 17 10  1  0
 11 18  1  0
 12 19  1  0
 17 20  1  0
  5 10  1  0
M  END
>  <Score>  (1) 
-7.96341

$$$$

     RDKit          3D

 25 26  0  0  0  0  0  0  0  0999 V2000
   11.5571    6.9267   -4.1710 C   0  0  0  0  0  0  0  0  0  0  0  0
   12.0442    6.8262   -2.8534 C   0  0  0  0  0  0  0  0  0  0  0  0
   12.3209    8.0161   -2.1649 C   0  0  0  0  0  0  0  0  0  0  0  0
   12.0988    9.2023   -2.8203 N   0  0  0  0  0  0  0  0  0  0  0  0
   11.6330    9.2576   -4.0783 C   0  0  0  0  0  0  0  0  0  0  0  0
   11.3631    8.1211   -4.7511 N   0  0  0  0  0  0  0  0  0  0  0  0
   11.3604    5.9809   -4.6556 H   0  0  0  0  0  0  0  0  0  0  0  0
   12.2016    5.8647   -2.3832 H   0  0  0  0  0  0  0  0  0  0  0  0
   12.6943    7.9939   -1.1574 H   0  0  0  0  0  0  0  0  0  0  0  0
   11.4382   10.5352   -4.6664 N   0  0  0  0  0  0  0  0  0  0  0  0
   12.2661   11.0164   -6.1013 S   0  0  0  0  0  6  0  0  0  0  0  0
   11.9727   12.4385   -6.3990 O   0  0  0  0  0  0  0  0  0  0  0  0
   13.7723   10.9009   -5.9016 O   0  0  0  0  0  0  0  0  0  0  0  0
   11.8847   10.0011   -7.4663 C   0  0  0  0  0  0  0  0  0  0  0  0
   12.6060    8.8827   -7.8083 C   0  0  0  0  0  0  0  0  0  0  0  0
   12.2596    8.1141   -8.8969 C   0  0  0  0  0  0  0  0  0  0  0  0
   11.1726    8.4718   -9.6557 C   0  0  0  0  0  0  0  0  0  0  0  0
   10.4246    9.5903   -9.3407 C   0  0  0  0  0  0  0  0  0  0  0  0
   10.7853   10.3496   -8.2465 C   0  0  0  0  0  0  0  0  0  0  0  0
   10.2143   11.2262   -7.9841 H   0  0  0  0  0  0  0  0  0  0  0  0
   10.7788   11.2125   -4.2302 H   0  0  0  0  0  0  0  0  0  0  0  0
   13.4628    8.5998   -7.2137 H   0  0  0  0  0  0  0  0  0  0  0  0
   12.8164    7.2427   -9.1688 H   0  0  0  0  0  0  0  0  0  0  0  0
   10.8937    7.8756  -10.5106 H   0  0  0  0  0  0  0  0  0  0  0  0
    9.5610    9.9103   -9.9092 H   0  0  0  0  0  0  0  0  0  0  0  0
  1  2  2  0
  2  3  1  0
  4  3  2  0
  5  4  1  0
  6  1  1  0
  6  5  2  0
  1  7  1  0
  2  8  1  0
  3  9  1  0
 10 11  1  0
 11 12  2  0
 11 13  2  0
 11 14  1  0
 14 15  2  0
 15 16  1  0
 16 17  2  0
 17 18  1  0
 18 19  2  0
 19 20  1  0
 19 14  1  0
 10 21  1  0
 15 22  1  0
 16 23  1  0
 17 24  1  0
 18 25  1  0
  5 10  1  0
M  END
>  <Score>  (1) 
-7.95532

$$$$

     RDKit          3D

 22 23  0  0  0  0  0  0  0  0999 V2000
   11.5559    6.9258   -4.1740 C   0  0  0  0  0  0  0  0  0  0  0  0
   12.0459    6.8288   -2.8489 C   0  0  0  0  0  0  0  0  0  0  0  0
   12.3201    8.0144   -2.1668 C   0  0  0  0  0  0  0  0  0  0  0  0
   12.0996    9.2040   -2.8181 N   0  0  0  0  0  0  0  0  0  0  0  0
   11.6334    9.2554   -4.0769 C   0  0  0  0  0  0  0  0  0  0  0  0
   11.3619    8.1216   -4.7542 N   0  0  0  0  0  0  0  0  0  0  0  0
   11.3554    5.9861   -4.6694 H   0  0  0  0  0  0  0  0  0  0  0  0
   12.1966    5.8593   -2.3963 H   0  0  0  0  0  0  0  0  0  0  0  0
   12.6896    7.9684   -1.1689 H   0  0  0  0  0  0  0  0  0  0  0  0
   11.3538   12.9423   -8.6606 H   0  0  0  0  0  0  0  0  0  0  0  0
   11.5105   11.9838   -8.1853 C   0  0  0  0  0  0  0  0  0  0  0  0
   11.8139   10.9886   -8.8906 O   0  0  0  0  0  0  0  0  0  0  0  0
   11.3638   11.8797   -6.7376 C   0  0  0  0  0  0  0  0  0  0  0  0
   11.5500   10.6891   -6.0746 C   0  0  0  0  0  0  0  0  0  0  0  0
   11.4202   10.5544   -4.7140 C   0  0  0  0  0  0  0  0  0  0  0  0
   11.0866   11.6717   -3.9808 C   0  0  0  0  0  0  0  0  0  0  0  0
   10.8911   12.8876   -4.6112 C   0  0  0  0  0  0  0  0  0  0  0  0
   11.0314   12.9795   -5.9809 C   0  0  0  0  0  0  0  0  0  0  0  0
   10.8432   14.1628   -6.6132 F   0  0  0  0  0  0  0  0  0  0  0  0
   11.8111    9.8281   -6.6744 H   0  0  0  0  0  0  0  0  0  0  0  0
   10.9871   11.5495   -2.9011 H   0  0  0  0  0  0  0  0  0  0  0  0
   10.6306   13.7404   -4.0020 H   0  0  0  0  0  0  0  0  0  0  0  0
  1  2  2  0
  2  3  1  0
  4  3  2  0
  5  4  1  0
  6  1  1  0
  6  5  2  0
  1  7  1  0
  2  8  1  0
  3  9  1  0
 10 11  1  0
 11 12  2  0
 11 13  1  0
 13 14  2  0
 14 15  1  0
 15 16  2  0
 16 17  1  0
 17 18  2  0
 18 19  1  0
 18 13  1  0
 14 20  1  0
 16 21  1  0
 17 22  1  0
  5 15  1  0
M  END
>  <Score>  (1) 
-7.90647

$$$$

     RDKit          3D

 20 21  0  0  0  0  0  0  0  0999 V2000
   11.5570    6.9240   -4.1711 C   0  0  0  0  0  0  0  0  0  0  0  0
   12.0441    6.8255   -2.8537 C   0  0  0  0  0  0  0  0  0  0  0  0
   12.3206    8.0210   -2.1658 C   0  0  0  0  0  0  0  0  0  0  0  0
   12.1009    9.2001   -2.8146 N   0  0  0  0  0  0  0  0  0  0  0  0
   11.6321    9.2558   -4.0806 C   0  0  0  0  0  0  0  0  0  0  0  0
   11.3623    8.1237   -4.7532 N   0  0  0  0  0  0  0  0  0  0  0  0
   11.3563    5.9820   -4.6669 H   0  0  0  0  0  0  0  0  0  0  0  0
   12.2041    5.8811   -2.3772 H   0  0  0  0  0  0  0  0  0  0  0  0
   12.6977    8.0048   -1.1488 H   0  0  0  0  0  0  0  0  0  0  0  0
   11.4238   10.5661   -4.7047 C   0  0  0  0  0  0  0  0  0  0  0  0
   10.1691   10.9358   -5.1384 C   0  0  0  0  0  0  0  0  0  0  0  0
    9.9512   12.1783   -5.7346 C   0  0  0  0  0  0  0  0  0  0  0  0
   11.0351   13.0193   -5.8727 C   0  0  0  0  0  0  0  0  0  0  0  0
   10.8616   14.2511   -6.4546 F   0  0  0  0  0  0  0  0  0  0  0  0
   12.3050   12.6713   -5.4453 C   0  0  0  0  0  0  0  0  0  0  0  0
   12.4785   11.4336   -4.8608 C   0  0  0  0  0  0  0  0  0  0  0  0
   13.6937   11.0497   -4.4292 F   0  0  0  0  0  0  0  0  0  0  0  0
    9.3599   10.2420   -5.0062 H   0  0  0  0  0  0  0  0  0  0  0  0
    8.9506   12.4682   -6.0785 H   0  0  0  0  0  0  0  0  0  0  0  0
   13.1628   13.3406   -5.5562 H   0  0  0  0  0  0  0  0  0  0  0  0
  1  2  2  0
  2  3  1  0
  4  3  2  0
  5  4  1  0
  6  1  1  0
  6  5  2  0
  1  7  1  0
  2  8  1  0
  3  9  1  0
 10 11  2  0
 11 12  1  0
 12 13  2  0
 13 14  1  0
 13 15  1  0
 15 16  2  0
 16 17  1  0
 16 10  1  0
 11 18  1  0
 12 19  1  0
 15 20  1  0
  5 10  1  0
M  END
>  <Score>  (1) 
-7.74299

$$$$

     RDKit          3D

 28 29  0  0  0  0  0  0  0  0999 V2000
   12.3006    8.1244   -2.3067 C   0  0  0  0  0  0  0  0  0  0  0  0
   12.0217    6.8838   -2.9124 C   0  0  0  0  0  0  0  0  0  0  0  0
   11.5236    6.8962   -4.2268 C   0  0  0  0  0  0  0  0  0  0  0  0
   11.3481    8.1139   -4.8170 N   0  0  0  0  0  0  0  0  0  0  0  0
   11.6193    9.2777   -4.2236 C   0  0  0  0  0  0  0  0  0  0  0  0
   12.1017    9.2750   -2.9515 N   0  0  0  0  0  0  0  0  0  0  0  0
   12.6819    8.0616   -1.2950 H   0  0  0  0  0  0  0  0  0  0  0  0
   12.1825    5.9505   -2.3906 H   0  0  0  0  0  0  0  0  0  0  0  0
   11.2981    5.9886   -4.7265 H   0  0  0  0  0  0  0  0  0  0  0  0
   11.4167   10.4928   -4.8849 N   0  0  0  0  0  0  0  0  0  0  0  0
   11.2091   10.7316   -6.2552 C   0  0  0  0  0  0  0  0  0  0  0  0
   11.1644    9.7781   -7.2441 C   0  0  0  0  0  0  0  0  0  0  0  0
   10.9553   10.0868   -8.5779 C   0  0  0  0  0  0  0  0  0  0  0  0
   10.9229    8.9871   -9.5763 C   0  0  0  0  0  0  0  0  0  0  0  0
   10.7795   11.4123   -8.9627 C   0  0  0  0  0  0  0  0  0  0  0  0
   10.8188   12.3896   -7.9970 C   0  0  0  0  0  0  0  0  0  0  0  0
   10.6266   13.7937   -8.4496 C   0  0  0  0  0  0  0  0  0  0  0  0
   11.0264   12.0472   -6.6983 C   0  0  0  0  0  0  0  0  0  0  0  0
   11.4206   11.3625   -4.2571 H   0  0  0  0  0  0  0  0  0  0  0  0
   11.2922    8.7395   -7.0154 H   0  0  0  0  0  0  0  0  0  0  0  0
   11.7751    8.2783   -9.3856 H   0  0  0  0  0  0  0  0  0  0  0  0
    9.9872    8.4241   -9.4682 H   0  0  0  0  0  0  0  0  0  0  0  0
   11.0448    9.4432  -10.5841 H   0  0  0  0  0  0  0  0  0  0  0  0
   10.6186   11.6236  -10.0066 H   0  0  0  0  0  0  0  0  0  0  0  0
   11.0215   13.9443   -9.4772 H   0  0  0  0  0  0  0  0  0  0  0  0
    9.5114   13.9629   -8.4713 H   0  0  0  0  0  0  0  0  0  0  0  0
   11.0288   14.5339   -7.7445 H   0  0  0  0  0  0  0  0  0  0  0  0
   11.0469   12.8625   -5.9840 H   0  0  0  0  0  0  0  0  0  0  0  0
  2  1  2  0
  3  2  1  0
  4  3  2  0
  4  5  1  0
  5  6  2  0
  6  1  1  0
  1  7  1  0
  2  8  1  0
  3  9  1  0
 10 11  1  0
 11 12  2  0
 12 13  1  0
 13 14  1  0
 13 15  2  0
 15 16  1  0
 16 17  1  0
 16 18  2  0
 18 11  1  0
 10 19  1  0
 12 20  1  0
 14 21  1  0
 14 22  1  0
 14 23  1  0
 15 24  1  0
 17 25  1  0
 17 26  1  0
 17 27  1  0
 18 28  1  0
  5 10  1  0
M  END
>  <Score>  (1) 
-7.79889

$$$$

     RDKit          3D

 22 23  0  0  0  0  0  0  0  0999 V2000
   11.5574    6.9219   -4.1700 C   0  0  0  0  0  0  0  0  0  0  0  0
   12.0443    6.8265   -2.8533 C   0  0  0  0  0  0  0  0  0  0  0  0
   12.3206    8.0187   -2.1657 C   0  0  0  0  0  0  0  0  0  0  0  0
   12.1005    9.2017   -2.8156 N   0  0  0  0  0  0  0  0  0  0  0  0
   11.6317    9.2530   -4.0815 C   0  0  0  0  0  0  0  0  0  0  0  0
   11.3625    8.1282   -4.7530 N   0  0  0  0  0  0  0  0  0  0  0  0
   11.3387    6.0154   -4.7157 H   0  0  0  0  0  0  0  0  0  0  0  0
   12.1945    5.8593   -2.4021 H   0  0  0  0  0  0  0  0  0  0  0  0
   12.6908    7.9734   -1.1659 H   0  0  0  0  0  0  0  0  0  0  0  0
   10.4945   15.1777   -5.9586 H   0  0  0  0  0  0  0  0  0  0  0  0
   10.7560   14.3504   -6.5941 C   0  0  0  0  0  0  0  0  0  0  0  0
   10.8797   14.4279   -7.8296 O   0  0  0  0  0  0  0  0  0  0  0  0
   10.9783   13.0528   -5.9487 C   0  0  0  0  0  0  0  0  0  0  0  0
   10.8616   12.8802   -4.5851 C   0  0  0  0  0  0  0  0  0  0  0  0
   11.0734   11.6551   -3.9922 C   0  0  0  0  0  0  0  0  0  0  0  0
   11.4116   10.5459   -4.7366 C   0  0  0  0  0  0  0  0  0  0  0  0
   11.5326   10.6996   -6.1012 C   0  0  0  0  0  0  0  0  0  0  0  0
   11.3195   11.9303   -6.6932 C   0  0  0  0  0  0  0  0  0  0  0  0
   11.4381   12.0773   -8.0228 F   0  0  0  0  0  0  0  0  0  0  0  0
   10.5968   13.7444   -3.9938 H   0  0  0  0  0  0  0  0  0  0  0  0
   10.9619   11.5960   -2.9001 H   0  0  0  0  0  0  0  0  0  0  0  0
   11.8010    9.8390   -6.7308 H   0  0  0  0  0  0  0  0  0  0  0  0
  1  2  2  0
  2  3  1  0
  4  3  2  0
  5  4  1  0
  6  1  1  0
  6  5  2  0
  1  7  1  0
  2  8  1  0
  3  9  1  0
 10 11  1  0
 11 12  2  0
 11 13  1  0
 13 14  2  0
 14 15  1  0
 15 16  2  0
 16 17  1  0
 17 18  2  0
 18 19  1  0
 18 13  1  0
 14 20  1  0
 15 21  1  0
 17 22  1  0
  5 16  1  0
M  END
>  <Score>  (1) 
-7.74073

$$$$

     RDKit          3D

 22 23  0  0  0  0  0  0  0  0999 V2000
   11.5572    6.9223   -4.1705 C   0  0  0  0  0  0  0  0  0  0  0  0
   12.0443    6.8266   -2.8532 C   0  0  0  0  0  0  0  0  0  0  0  0
   12.3207    8.0186   -2.1654 C   0  0  0  0  0  0  0  0  0  0  0  0
   12.1001    9.2017   -2.8168 N   0  0  0  0  0  0  0  0  0  0  0  0
   11.6321    9.2532   -4.0804 C   0  0  0  0  0  0  0  0  0  0  0  0
   11.3626    8.1276   -4.7527 N   0  0  0  0  0  0  0  0  0  0  0  0
   11.3514    5.9880   -4.6802 H   0  0  0  0  0  0  0  0  0  0  0  0
   12.2001    5.8680   -2.3873 H   0  0  0  0  0  0  0  0  0  0  0  0
   12.6882    7.9559   -1.1721 H   0  0  0  0  0  0  0  0  0  0  0  0
   11.4288   10.5717   -4.6913 C   0  0  0  0  0  0  0  0  0  0  0  0
   10.1863   10.9757   -5.1300 C   0  0  0  0  0  0  0  0  0  0  0  0
    9.9835   12.2127   -5.7056 C   0  0  0  0  0  0  0  0  0  0  0  0
   11.0218   13.1068   -5.8692 C   0  0  0  0  0  0  0  0  0  0  0  0
   10.8127   14.3536   -6.4505 O   0  0  0  0  0  0  0  0  0  0  0  0
   12.2658   12.7023   -5.4300 C   0  0  0  0  0  0  0  0  0  0  0  0
   12.4672   11.4640   -4.8541 C   0  0  0  0  0  0  0  0  0  0  0  0
   13.7375   11.0645   -4.4114 O   0  0  0  0  0  0  0  0  0  0  0  0
    9.3771   10.2735   -5.0001 H   0  0  0  0  0  0  0  0  0  0  0  0
    8.9919   12.5219   -6.0501 H   0  0  0  0  0  0  0  0  0  0  0  0
   10.5660   15.1461   -5.8500 H   0  0  0  0  0  0  0  0  0  0  0  0
   13.1035   13.3964   -5.5503 H   0  0  0  0  0  0  0  0  0  0  0  0
   14.5368   11.6647   -4.4994 H   0  0  0  0  0  0  0  0  0  0  0  0
  1  2  2  0
  2  3  1  0
  4  3  2  0
  5  4  1  0
  6  1  1  0
  6  5  2  0
  1  7  1  0
  2  8  1  0
  3  9  1  0
 10 11  2  0
 11 12  1  0
 12 13  2  0
 13 14  1  0
 13 15  1  0
 15 16  2  0
 16 17  1  0
 16 10  1  0
 11 18  1  0
 12 19  1  0
 14 20  1  0
 15 21  1  0
 17 22  1  0
  5 10  1  0
M  END
>  <Score>  (1) 
-7.73748

$$$$

     RDKit          3D

 23 25  0  0  0  0  0  0  0  0999 V2000
   11.5556    6.9264   -4.1749 C   0  0  0  0  0  0  0  0  0  0  0  0
   12.0460    6.8295   -2.8488 C   0  0  0  0  0  0  0  0  0  0  0  0
   12.3201    8.0151   -2.1669 C   0  0  0  0  0  0  0  0  0  0  0  0
   12.1004    9.2024   -2.8159 N   0  0  0  0  0  0  0  0  0  0  0  0
   11.6329    9.2574   -4.0785 C   0  0  0  0  0  0  0  0  0  0  0  0
   11.3620    8.1192   -4.7540 N   0  0  0  0  0  0  0  0  0  0  0  0
   11.3516    5.9881   -4.6798 H   0  0  0  0  0  0  0  0  0  0  0  0
   12.1926    5.8554   -2.4070 H   0  0  0  0  0  0  0  0  0  0  0  0
   12.6877    7.9565   -1.1735 H   0  0  0  0  0  0  0  0  0  0  0  0
   11.4282   10.4994   -4.6897 N   0  0  0  0  0  0  0  0  0  0  0  0
   12.4957   11.4175   -4.8751 C   0  0  0  0  0  0  0  0  0  0  0  0
   13.7329   11.1118   -4.4653 N   0  0  0  0  0  0  0  0  0  0  0  0
   14.7543   11.9959   -4.6453 C   0  0  0  0  0  0  0  0  0  0  0  0
   14.5609   13.1838   -5.2293 N   0  0  0  0  0  0  0  0  0  0  0  0
   13.3580   13.5401   -5.6547 C   0  0  0  0  0  0  0  0  0  0  0  0
   12.3170   12.6463   -5.4746 C   0  0  0  0  0  0  0  0  0  0  0  0
   11.2303   13.2394   -5.9826 N   0  0  0  0  0  0  0  0  0  0  0  0
   11.5859   14.4506   -6.4573 C   0  0  0  0  0  0  0  0  0  0  0  0
   12.9115   14.6540   -6.2603 N   0  0  0  0  0  0  0  0  0  0  0  0
   13.4116   15.5166   -6.5444 H   0  0  0  0  0  0  0  0  0  0  0  0
   10.4751   10.7910   -5.0309 H   0  0  0  0  0  0  0  0  0  0  0  0
   15.7685   11.7672   -4.3193 H   0  0  0  0  0  0  0  0  0  0  0  0
   10.8796   15.1467   -6.9291 H   0  0  0  0  0  0  0  0  0  0  0  0
  1  2  2  0
  2  3  1  0
  4  3  2  0
  5  4  1  0
  6  1  1  0
  6  5  2  0
  1  7  1  0
  2  8  1  0
  3  9  1  0
 10 11  1  0
 11 12  2  0
 12 13  1  0
 13 14  2  0
 14 15  1  0
 15 16  2  0
 16 17  1  0
 17 18  2  0
 18 19  1  0
 19 20  1  0
 16 11  1  0
 19 15  1  0
 10 21  1  0
 13 22  1  0
 18 23  1  0
  5 10  1  0
M  END
>  <Score>  (1) 
-7.71656

$$$$

     RDKit          3D

 26 28  0  0  0  0  0  0  0  0999 V2000
   11.5564    6.9289   -4.1731 C   0  0  0  0  0  0  0  0  0  0  0  0
   12.0491    6.8267   -2.8401 C   0  0  0  0  0  0  0  0  0  0  0  0
   12.3152    8.0184   -2.1802 C   0  0  0  0  0  0  0  0  0  0  0  0
   12.0937    9.1849   -2.8332 N   0  0  0  0  0  0  0  0  0  0  0  0
   11.6370    9.2725   -4.0682 C   0  0  0  0  0  0  0  0  0  0  0  0
   11.3656    8.1185   -4.7442 N   0  0  0  0  0  0  0  0  0  0  0  0
   11.3610    5.9784   -4.6540 H   0  0  0  0  0  0  0  0  0  0  0  0
   12.1992    5.8679   -2.3898 H   0  0  0  0  0  0  0  0  0  0  0  0
   12.6839    7.9817   -1.1850 H   0  0  0  0  0  0  0  0  0  0  0  0
   11.3950   10.5060   -4.7794 C   0  0  0  0  0  0  0  0  0  0  0  0
   12.0900   10.7600   -5.9820 C   0  0  0  0  0  0  0  0  0  0  0  0
   11.9190   11.9055   -6.7187 C   0  0  0  0  0  0  0  0  0  0  0  0
   11.0436   12.8838   -6.3132 C   0  0  0  0  0  0  0  0  0  0  0  0
   10.3411   12.6783   -5.1413 C   0  0  0  0  0  0  0  0  0  0  0  0
    9.4712   13.6793   -4.7630 C   0  0  0  0  0  0  0  0  0  0  0  0
    8.7696   13.4867   -3.6034 C   0  0  0  0  0  0  0  0  0  0  0  0
    8.9180   12.3507   -2.8430 C   0  0  0  0  0  0  0  0  0  0  0  0
    9.8055   11.3356   -3.2340 C   0  0  0  0  0  0  0  0  0  0  0  0
   10.5237   11.5048   -4.3972 C   0  0  0  0  0  0  0  0  0  0  0  0
   12.7752    9.9969   -6.3017 H   0  0  0  0  0  0  0  0  0  0  0  0
   12.4561   12.0981   -7.6450 H   0  0  0  0  0  0  0  0  0  0  0  0
   10.8942   13.7911   -6.8769 H   0  0  0  0  0  0  0  0  0  0  0  0
    9.3281   14.5848   -5.3342 H   0  0  0  0  0  0  0  0  0  0  0  0
    8.0698   14.2459   -3.2598 H   0  0  0  0  0  0  0  0  0  0  0  0
    8.3538   12.2114   -1.9237 H   0  0  0  0  0  0  0  0  0  0  0  0
    9.8743   10.4693   -2.5911 H   0  0  0  0  0  0  0  0  0  0  0  0
  1  2  2  0
  2  3  1  0
  4  3  2  0
  5  4  1  0
  6  1  1  0
  6  5  2  0
  1  7  1  0
  2  8  1  0
  3  9  1  0
 10 11  2  0
 11 12  1  0
 12 13  2  0
 13 14  1  0
 14 15  2  0
 15 16  1  0
 16 17  2  0
 17 18  1  0
 18 19  2  0
 19 10  1  0
 19 14  1  0
 11 20  1  0
 12 21  1  0
 13 22  1  0
 15 23  1  0
 16 24  1  0
 17 25  1  0
 18 26  1  0
  5 10  1  0
M  END
>  <Score>  (1) 
-7.70937

$$$$

     RDKit          3D

 32 33  0  0  0  0  0  0  0  0999 V2000
   11.5562    6.9261   -4.1734 C   0  0  0  0  0  0  0  0  0  0  0  0
   12.0450    6.8271   -2.8513 C   0  0  0  0  0  0  0  0  0  0  0  0
   12.3203    8.0187   -2.1665 C   0  0  0  0  0  0  0  0  0  0  0  0
   12.1009    9.2010   -2.8146 N   0  0  0  0  0  0  0  0  0  0  0  0
   11.6326    9.2572   -4.0792 C   0  0  0  0  0  0  0  0  0  0  0  0
   11.3620    8.1199   -4.7541 N   0  0  0  0  0  0  0  0  0  0  0  0
   11.3545    5.9941   -4.6723 H   0  0  0  0  0  0  0  0  0  0  0  0
   12.1971    5.8692   -2.3954 H   0  0  0  0  0  0  0  0  0  0  0  0
   12.6955    7.9854   -1.1538 H   0  0  0  0  0  0  0  0  0  0  0  0
   11.4367   10.4992   -4.6667 O   0  0  0  0  0  0  0  0  0  0  0  0
   12.1290   10.8562   -5.8479 C   0  0  1  0  0  0  0  0  0  0  0  0
   11.2068   11.2155   -6.7919 O   0  0  0  0  0  0  0  0  0  0  0  0
   11.8009   11.6690   -7.9742 C   0  0  1  0  0  0  0  0  0  0  0  0
   10.7724   11.8591   -9.0519 C   0  0  0  0  0  0  0  0  0  0  0  0
   10.1327   10.6487   -9.3120 O   0  0  0  0  0  0  0  0  0  0  0  0
   12.5570   12.9151   -7.6466 C   0  0  2  0  0  0  0  0  0  0  0  0
   12.9831   13.6239   -8.7388 O   0  0  0  0  0  0  0  0  0  0  0  0
   13.7248   12.4525   -6.7631 C   0  0  1  0  0  0  0  0  0  0  0  0
   14.6713   13.4207   -6.5929 O   0  0  0  0  0  0  0  0  0  0  0  0
   13.0708   12.0001   -5.4750 C   0  0  2  0  0  0  0  0  0  0  0  0
   14.0411   11.5019   -4.6170 O   0  0  0  0  0  0  0  0  0  0  0  0
   12.7794   10.0149   -6.1496 H   0  0  0  0  0  0  0  0  0  0  0  0
   12.5187   10.8951   -8.2942 H   0  0  0  0  0  0  0  0  0  0  0  0
   11.3091   12.1347   -9.9836 H   0  0  0  0  0  0  0  0  0  0  0  0
   10.0207   12.6170   -8.7809 H   0  0  0  0  0  0  0  0  0  0  0  0
   10.7887    9.9036   -9.1488 H   0  0  0  0  0  0  0  0  0  0  0  0
   11.9032   13.5609   -7.0284 H   0  0  0  0  0  0  0  0  0  0  0  0
   13.3046   14.5092   -8.4252 H   0  0  0  0  0  0  0  0  0  0  0  0
   14.1447   11.5208   -7.2367 H   0  0  0  0  0  0  0  0  0  0  0  0
   15.5576   13.0650   -6.8763 H   0  0  0  0  0  0  0  0  0  0  0  0
   12.5104   12.8218   -5.0173 H   0  0  0  0  0  0  0  0  0  0  0  0
   14.2761   12.2336   -3.9908 H   0  0  0  0  0  0  0  0  0  0  0  0
  1  2  2  0
  2  3  1  0
  4  3  2  0
  5  4  1  0
  6  1  1  0
  6  5  2  0
  1  7  1  0
  2  8  1  0
  3  9  1  0
 10 11  1  0
 11 12  1  0
 12 13  1  0
 13 14  1  0
 14 15  1  0
 13 16  1  0
 16 17  1  0
 16 18  1  0
 18 19  1  0
 18 20  1  0
 20 21  1  0
 20 11  1  0
 11 22  1  6
 13 23  1  6
 14 24  1  0
 14 25  1  0
 15 26  1  0
 16 27  1  1
 17 28  1  0
 18 29  1  6
 19 30  1  0
 20 31  1  1
 21 32  1  0
  5 10  1  0
M  END
>  <Score>  (1) 
-7.62815

$$$$

     RDKit          3D

 30 31  0  0  0  0  0  0  0  0999 V2000
   11.5582    6.9235   -4.1679 C   0  0  0  0  0  0  0  0  0  0  0  0
   12.0443    6.8320   -2.8534 C   0  0  0  0  0  0  0  0  0  0  0  0
   12.3191    8.0164   -2.1698 C   0  0  0  0  0  0  0  0  0  0  0  0
   12.1018    9.1983   -2.8121 N   0  0  0  0  0  0  0  0  0  0  0  0
   11.6318    9.2576   -4.0814 C   0  0  0  0  0  0  0  0  0  0  0  0
   11.3619    8.1222   -4.7544 N   0  0  0  0  0  0  0  0  0  0  0  0
   11.3506    5.9970   -4.6830 H   0  0  0  0  0  0  0  0  0  0  0  0
   12.1884    5.8545   -2.4182 H   0  0  0  0  0  0  0  0  0  0  0  0
   12.6932    7.9841   -1.1601 H   0  0  0  0  0  0  0  0  0  0  0  0
   11.4388   10.5402   -4.6631 N   0  0  0  0  0  0  0  0  0  0  0  0
   10.9444   10.7048   -6.0097 C   0  0  2  0  0  0  0  0  0  0  0  0
   11.8097   10.1180   -7.0697 C   0  0  0  0  0  0  0  0  0  0  0  0
   12.8381   11.0716   -7.6335 C   0  0  0  0  0  0  0  0  0  0  0  0
   12.2586   12.4200   -7.9867 C   0  0  0  0  0  0  0  0  0  0  0  0
   11.6763   12.9886   -6.7010 C   0  0  0  0  0  0  0  0  0  0  0  0
   10.5333   12.1198   -6.3057 C   0  0  2  0  0  0  0  0  0  0  0  0
    9.7822   12.6687   -5.2124 N   0  0  0  0  0  0  0  0  0  0  0  0
   11.6593   11.3977   -4.1055 H   0  0  0  0  0  0  0  0  0  0  0  0
    9.9813   10.1084   -6.0326 H   0  0  0  0  0  0  0  0  0  0  0  0
   12.3840    9.2727   -6.6397 H   0  0  0  0  0  0  0  0  0  0  0  0
   11.1852    9.7037   -7.8935 H   0  0  0  0  0  0  0  0  0  0  0  0
   13.6705   11.1920   -6.9265 H   0  0  0  0  0  0  0  0  0  0  0  0
   13.2301   10.6070   -8.5766 H   0  0  0  0  0  0  0  0  0  0  0  0
   11.4994   12.3356   -8.7783 H   0  0  0  0  0  0  0  0  0  0  0  0
   13.1036   13.0726   -8.2656 H   0  0  0  0  0  0  0  0  0  0  0  0
   12.4663   12.9282   -5.9269 H   0  0  0  0  0  0  0  0  0  0  0  0
   11.3607   14.0146   -6.8677 H   0  0  0  0  0  0  0  0  0  0  0  0
    9.8284   12.0663   -7.1850 H   0  0  0  0  0  0  0  0  0  0  0  0
    9.4653   13.6360   -5.5150 H   0  0  0  0  0  0  0  0  0  0  0  0
    8.8853   12.1230   -5.1032 H   0  0  0  0  0  0  0  0  0  0  0  0
  1  2  2  0
  2  3  1  0
  4  3  2  0
  5  4  1  0
  6  1  1  0
  6  5  2  0
  1  7  1  0
  2  8  1  0
  3  9  1  0
 10 11  1  0
 11 12  1  0
 12 13  1  0
 13 14  1  0
 14 15  1  0
 15 16  1  0
 16 17  1  0
 16 11  1  0
 10 18  1  0
 11 19  1  1
 12 20  1  0
 12 21  1  0
 13 22  1  0
 13 23  1  0
 14 24  1  0
 14 25  1  0
 15 26  1  0
 15 27  1  0
 16 28  1  6
 17 29  1  0
 17 30  1  0
  5 10  1  0
M  END
>  <Score>  (1) 
-7.62057

$$$$

     RDKit          3D

 24 26  0  0  0  0  0  0  0  0999 V2000
   11.5552    6.9282   -4.1762 C   0  0  0  0  0  0  0  0  0  0  0  0
   12.0464    6.8284   -2.8475 C   0  0  0  0  0  0  0  0  0  0  0  0
   12.3189    8.0202   -2.1704 C   0  0  0  0  0  0  0  0  0  0  0  0
   12.1027    9.1968   -2.8094 N   0  0  0  0  0  0  0  0  0  0  0  0
   11.6313    9.2591   -4.0828 C   0  0  0  0  0  0  0  0  0  0  0  0
   11.3624    8.1174   -4.7528 N   0  0  0  0  0  0  0  0  0  0  0  0
   11.3645    5.9731   -4.6442 H   0  0  0  0  0  0  0  0  0  0  0  0
   12.1987    5.8641   -2.3908 H   0  0  0  0  0  0  0  0  0  0  0  0
   12.6899    7.9402   -1.1667 H   0  0  0  0  0  0  0  0  0  0  0  0
   11.4284   10.5216   -4.6903 N   0  0  0  0  0  0  0  0  0  0  0  0
   11.5664   10.6497   -6.0842 C   0  0  0  0  0  0  0  0  0  0  0  0
   11.4903   11.4514   -6.9132 N   0  0  0  0  0  0  0  0  0  0  0  0
   11.6668   11.3509   -8.2114 C   0  0  0  0  0  0  0  0  0  0  0  0
   11.5695   12.3324   -9.1908 C   0  0  0  0  0  0  0  0  0  0  0  0
   11.7935   12.0157  -10.4917 C   0  0  0  0  0  0  0  0  0  0  0  0
   12.1238   10.7589  -10.9643 C   0  0  0  0  0  0  0  0  0  0  0  0
   12.2248    9.7659   -9.9945 C   0  0  0  0  0  0  0  0  0  0  0  0
   11.9942   10.0839   -8.6398 C   0  0  0  0  0  0  0  0  0  0  0  0
   12.0206    9.1516   -7.1550 S   0  0  0  0  0  0  0  0  0  0  0  0
   11.1796   11.3454   -4.1097 H   0  0  0  0  0  0  0  0  0  0  0  0
   11.3170   13.3733   -8.9774 H   0  0  0  0  0  0  0  0  0  0  0  0
   11.7172   12.7912  -11.2712 H   0  0  0  0  0  0  0  0  0  0  0  0
   12.2988   10.5160  -11.9885 H   0  0  0  0  0  0  0  0  0  0  0  0
   12.4784    8.7427  -10.2497 H   0  0  0  0  0  0  0  0  0  0  0  0
  1  2  2  0
  2  3  1  0
  4  3  2  0
  5  4  1  0
  6  1  1  0
  6  5  2  0
  1  7  1  0
  2  8  1  0
  3  9  1  0
 10 11  1  0
 11 12  2  0
 12 13  1  0
 13 14  2  0
 14 15  1  0
 15 16  2  0
 16 17  1  0
 17 18  2  0
 18 19  1  0
 19 11  1  0
 18 13  1  0
 10 20  1  0
 14 21  1  0
 15 22  1  0
 16 23  1  0
 17 24  1  0
  5 10  1  0
M  END
>  <Score>  (1) 
-7.61589

$$$$

     RDKit          3D

 22 23  0  0  0  0  0  0  0  0999 V2000
   11.5567    6.9234   -4.1719 C   0  0  0  0  0  0  0  0  0  0  0  0
   12.0449    6.8271   -2.8517 C   0  0  0  0  0  0  0  0  0  0  0  0
   12.3206    8.0168   -2.1655 C   0  0  0  0  0  0  0  0  0  0  0  0
   12.0995    9.2025   -2.8184 N   0  0  0  0  0  0  0  0  0  0  0  0
   11.6326    9.2546   -4.0792 C   0  0  0  0  0  0  0  0  0  0  0  0
   11.3627    8.1256   -4.7523 N   0  0  0  0  0  0  0  0  0  0  0  0
   11.3364    6.0144   -4.7220 H   0  0  0  0  0  0  0  0  0  0  0  0
   12.2000    5.8727   -2.3879 H   0  0  0  0  0  0  0  0  0  0  0  0
   12.6940    7.9878   -1.1581 H   0  0  0  0  0  0  0  0  0  0  0  0
   11.4377   10.5764   -4.6676 C   0  0  0  0  0  0  0  0  0  0  0  0
   11.2607   10.7545   -6.0221 C   0  0  0  0  0  0  0  0  0  0  0  0
   11.0779   12.0271   -6.5473 C   0  0  0  0  0  0  0  0  0  0  0  0
   11.0678   13.1440   -5.7373 C   0  0  0  0  0  0  0  0  0  0  0  0
   10.8806   14.4473   -6.2744 N   0  0  0  0  0  4  0  0  0  0  0  0
   10.7243   14.5610   -7.5061 O   0  0  0  0  0  0  0  0  0  0  0  0
   10.8751   15.5399   -5.4433 O   0  0  0  0  0  1  0  0  0  0  0  0
   11.2434   12.9809   -4.3820 C   0  0  0  0  0  0  0  0  0  0  0  0
   11.4221   11.7168   -3.8839 C   0  0  0  0  0  0  0  0  0  0  0  0
   11.2633    9.9063   -6.6803 H   0  0  0  0  0  0  0  0  0  0  0  0
   10.9423   12.1518   -7.5949 H   0  0  0  0  0  0  0  0  0  0  0  0
   11.2350   13.8684   -3.7413 H   0  0  0  0  0  0  0  0  0  0  0  0
   11.5612   11.5765   -2.8201 H   0  0  0  0  0  0  0  0  0  0  0  0
  1  2  2  0
  2  3  1  0
  4  3  2  0
  5  4  1  0
  6  1  1  0
  6  5  2  0
  1  7  1  0
  2  8  1  0
  3  9  1  0
 10 11  2  0
 11 12  1  0
 12 13  2  0
 13 14  1  0
 14 15  2  0
 14 16  1  0
 13 17  1  0
 17 18  2  0
 18 10  1  0
 11 19  1  0
 12 20  1  0
 17 21  1  0
 18 22  1  0
  5 10  1  0
M  CHG  2  14   1  16  -1
M  END
>  <Score>  (1) 
-7.55368

$$$$

     RDKit          3D

 28 29  0  0  0  0  0  0  0  0999 V2000
   11.5567    6.9250   -4.1719 C   0  0  0  0  0  0  0  0  0  0  0  0
   12.0444    6.8265   -2.8528 C   0  0  0  0  0  0  0  0  0  0  0  0
   12.3204    8.0199   -2.1662 C   0  0  0  0  0  0  0  0  0  0  0  0
   12.1013    9.2006   -2.8135 N   0  0  0  0  0  0  0  0  0  0  0  0
   11.6321    9.2561   -4.0806 C   0  0  0  0  0  0  0  0  0  0  0  0
   11.3621    8.1219   -4.7539 N   0  0  0  0  0  0  0  0  0  0  0  0
   11.3485    6.0079   -4.6890 H   0  0  0  0  0  0  0  0  0  0  0  0
   12.1920    5.8694   -2.4092 H   0  0  0  0  0  0  0  0  0  0  0  0
   12.6965    7.9877   -1.1512 H   0  0  0  0  0  0  0  0  0  0  0  0
   11.4001   10.5582   -4.7682 C   0  0  1  0  0  0  0  0  0  0  0  0
   12.5684   11.4574   -4.5322 C   0  0  0  0  0  0  0  0  0  0  0  0
   12.8792   12.3582   -5.6894 C   0  0  0  0  0  0  0  0  0  0  0  0
   13.0473   11.6434   -6.9908 C   0  0  0  0  0  0  0  0  0  0  0  0
   12.3985   10.2848   -7.0103 C   0  0  0  0  0  0  0  0  0  0  0  0
   11.1172   10.3022   -6.2269 C   0  0  2  0  0  0  0  0  0  0  0  0
   10.1581   11.2474   -6.7653 N   0  0  0  0  0  0  0  0  0  0  0  0
   10.4596   11.0025   -4.3328 H   0  0  0  0  0  0  0  0  0  0  0  0
   13.4915   10.8863   -4.2830 H   0  0  0  0  0  0  0  0  0  0  0  0
   12.3122   12.1213   -3.6655 H   0  0  0  0  0  0  0  0  0  0  0  0
   12.1344   13.1915   -5.7789 H   0  0  0  0  0  0  0  0  0  0  0  0
   13.8466   12.8804   -5.4374 H   0  0  0  0  0  0  0  0  0  0  0  0
   14.1162   11.5009   -7.2229 H   0  0  0  0  0  0  0  0  0  0  0  0
   12.6193   12.2506   -7.8220 H   0  0  0  0  0  0  0  0  0  0  0  0
   12.2181    9.9732   -8.0556 H   0  0  0  0  0  0  0  0  0  0  0  0
   13.0750    9.5493   -6.5556 H   0  0  0  0  0  0  0  0  0  0  0  0
   10.6583    9.2842   -6.3318 H   0  0  0  0  0  0  0  0  0  0  0  0
    9.2008   10.8309   -6.8374 H   0  0  0  0  0  0  0  0  0  0  0  0
   10.0545   12.0216   -6.0433 H   0  0  0  0  0  0  0  0  0  0  0  0
  1  2  2  0
  2  3  1  0
  4  3  2  0
  5  4  1  0
  6  1  1  0
  6  5  2  0
  1  7  1  0
  2  8  1  0
  3  9  1  0
 10 11  1  0
 11 12  1  0
 12 13  1  0
 13 14  1  0
 14 15  1  0
 15 16  1  0
 15 10  1  0
 10 17  1  1
 11 18  1  0
 11 19  1  0
 12 20  1  0
 12 21  1  0
 13 22  1  0
 13 23  1  0
 14 24  1  0
 14 25  1  0
 15 26  1  1
 16 27  1  0
 16 28  1  0
  5 10  1  0
M  END
>  <Score>  (1) 
-7.52771

$$$$

     RDKit          3D

 25 26  0  0  0  0  0  0  0  0999 V2000
   11.5565    6.9253   -4.1725 C   0  0  0  0  0  0  0  0  0  0  0  0
   12.0449    6.8272   -2.8517 C   0  0  0  0  0  0  0  0  0  0  0  0
   12.3203    8.0186   -2.1666 C   0  0  0  0  0  0  0  0  0  0  0  0
   12.1012    9.2011   -2.8138 N   0  0  0  0  0  0  0  0  0  0  0  0
   11.6322    9.2562   -4.0804 C   0  0  0  0  0  0  0  0  0  0  0  0
   11.3620    8.1216   -4.7540 N   0  0  0  0  0  0  0  0  0  0  0  0
   11.3272    6.0433   -4.7482 H   0  0  0  0  0  0  0  0  0  0  0  0
   12.1951    5.8696   -2.4010 H   0  0  0  0  0  0  0  0  0  0  0  0
   12.6931    7.9690   -1.1596 H   0  0  0  0  0  0  0  0  0  0  0  0
   11.5268   13.2482   -5.0084 H   0  0  0  0  0  0  0  0  0  0  0  0
   11.5373   13.0031   -6.0497 C   0  0  0  0  0  0  0  0  0  0  0  0
   11.0687   13.8457   -6.8121 O   0  0  0  0  0  0  0  0  0  0  0  0
   12.0905   11.7201   -6.4970 C   0  0  1  0  0  0  0  0  0  0  0  0
   12.5333   11.0070   -5.3872 O   0  0  0  0  0  0  0  0  0  0  0  0
   11.4173   10.5716   -4.7226 C   0  0  1  0  0  0  0  0  0  0  0  0
   10.3121   10.4032   -5.7380 C   0  0  1  0  0  0  0  0  0  0  0  0
    9.2787   11.2831   -5.4538 O   0  0  0  0  0  0  0  0  0  0  0  0
   11.0148   10.7809   -7.0297 C   0  0  1  0  0  0  0  0  0  0  0  0
   10.2055   11.4412   -7.9144 O   0  0  0  0  0  0  0  0  0  0  0  0
   12.9022   11.8272   -7.2419 H   0  0  0  0  0  0  0  0  0  0  0  0
   11.1334   11.3289   -3.9733 H   0  0  0  0  0  0  0  0  0  0  0  0
    9.9269    9.3673   -5.7838 H   0  0  0  0  0  0  0  0  0  0  0  0
    8.7779   10.9432   -4.6814 H   0  0  0  0  0  0  0  0  0  0  0  0
   11.5424    9.9049   -7.4506 H   0  0  0  0  0  0  0  0  0  0  0  0
   10.0482   10.9541   -8.7603 H   0  0  0  0  0  0  0  0  0  0  0  0
  1  2  2  0
  2  3  1  0
  4  3  2  0
  5  4  1  0
  6  1  1  0
  6  5  2  0
  1  7  1  0
  2  8  1  0
  3  9  1  0
 10 11  1  0
 11 12  2  0
 11 13  1  0
 13 14  1  0
 14 15  1  0
 15 16  1  0
 16 17  1  0
 16 18  1  0
 18 19  1  0
 18 13  1  0
 13 20  1  6
 15 21  1  1
 16 22  1  6
 17 23  1  0
 18 24  1  6
 19 25  1  0
  5 15  1  0
M  END
>  <Score>  (1) 
-7.49917

$$$$

     RDKit          3D

 25 26  0  0  0  0  0  0  0  0999 V2000
   12.3034    8.1271   -2.2998 C   0  0  0  0  0  0  0  0  0  0  0  0
   12.0192    6.8792   -2.9184 C   0  0  0  0  0  0  0  0  0  0  0  0
   11.5257    6.8994   -4.2217 C   0  0  0  0  0  0  0  0  0  0  0  0
   11.3426    8.1073   -4.8307 N   0  0  0  0  0  0  0  0  0  0  0  0
   11.6240    9.2773   -4.2111 C   0  0  0  0  0  0  0  0  0  0  0  0
   12.1001    9.2806   -2.9564 N   0  0  0  0  0  0  0  0  0  0  0  0
   12.6828    8.0623   -1.2927 H   0  0  0  0  0  0  0  0  0  0  0  0
   12.1834    5.9681   -2.3901 H   0  0  0  0  0  0  0  0  0  0  0  0
   11.3030    5.9616   -4.7107 H   0  0  0  0  0  0  0  0  0  0  0  0
   13.3953   14.0158   -7.1534 H   0  0  0  0  0  0  0  0  0  0  0  0
   13.4913   13.0960   -6.6175 C   0  0  0  0  0  0  0  0  0  0  0  0
   14.6144   12.6064   -6.4182 O   0  0  0  0  0  0  0  0  0  0  0  0
   12.3128   12.4199   -6.1235 C   0  0  0  0  0  0  0  0  0  0  0  0
   11.0374   12.9341   -6.3251 C   0  0  0  0  0  0  0  0  0  0  0  0
    9.9846   12.2380   -5.8293 C   0  0  0  0  0  0  0  0  0  0  0  0
   10.1495   11.0414   -5.1353 C   0  0  0  0  0  0  0  0  0  0  0  0
    8.9566   10.3512   -4.6318 C   0  0  0  0  0  0  0  0  0  0  0  0
   11.3999   10.5291   -4.9329 C   0  0  0  0  0  0  0  0  0  0  0  0
   12.4625   11.2435   -5.4403 C   0  0  0  0  0  0  0  0  0  0  0  0
   10.9476   13.8695   -6.8707 H   0  0  0  0  0  0  0  0  0  0  0  0
    8.9744   12.6328   -5.9815 H   0  0  0  0  0  0  0  0  0  0  0  0
    8.0264   10.9134   -4.8819 H   0  0  0  0  0  0  0  0  0  0  0  0
    8.9558   10.2868   -3.5119 H   0  0  0  0  0  0  0  0  0  0  0  0
    8.8316    9.3533   -5.1074 H   0  0  0  0  0  0  0  0  0  0  0  0
   13.4531   10.8210   -5.2700 H   0  0  0  0  0  0  0  0  0  0  0  0
  2  1  2  0
  3  2  1  0
  4  3  2  0
  4  5  1  0
  5  6  2  0
  6  1  1  0
  1  7  1  0
  2  8  1  0
  3  9  1  0
 10 11  1  0
 11 12  2  0
 11 13  1  0
 13 14  2  0
 14 15  1  0
 15 16  2  0
 16 17  1  0
 16 18  1  0
 18 19  2  0
 19 13  1  0
 14 20  1  0
 15 21  1  0
 17 22  1  0
 17 23  1  0
 17 24  1  0
 19 25  1  0
  5 18  1  0
M  END
>  <Score>  (1) 
-7.79722

$$$$

     RDKit          3D

 25 26  0  0  0  0  0  0  0  0999 V2000
   11.5556    6.9245   -4.1750 C   0  0  0  0  0  0  0  0  0  0  0  0
   12.0465    6.8290   -2.8473 C   0  0  0  0  0  0  0  0  0  0  0  0
   12.3194    8.0171   -2.1689 C   0  0  0  0  0  0  0  0  0  0  0  0
   12.1011    9.1998   -2.8140 N   0  0  0  0  0  0  0  0  0  0  0  0
   11.6317    9.2552   -4.0817 C   0  0  0  0  0  0  0  0  0  0  0  0
   11.3628    8.1243   -4.7521 N   0  0  0  0  0  0  0  0  0  0  0  0
   11.3485    6.0045   -4.6889 H   0  0  0  0  0  0  0  0  0  0  0  0
   12.1988    5.8715   -2.3910 H   0  0  0  0  0  0  0  0  0  0  0  0
   12.6944    7.9686   -1.1559 H   0  0  0  0  0  0  0  0  0  0  0  0
   11.4190   10.5607   -4.7173 C   0  0  0  0  0  0  0  0  0  0  0  0
   12.0980   10.8857   -5.8711 C   0  0  0  0  0  0  0  0  0  0  0  0
   11.8746   12.1332   -6.4511 C   0  0  0  0  0  0  0  0  0  0  0  0
   10.9812   13.0427   -5.8805 C   0  0  0  0  0  0  0  0  0  0  0  0
   10.7923   14.2735   -6.4956 O   0  0  0  0  0  0  0  0  0  0  0  0
   10.3059   12.7078   -4.7248 C   0  0  0  0  0  0  0  0  0  0  0  0
    9.4234   13.6094   -4.1635 O   0  0  0  0  0  0  0  0  0  0  0  0
    8.6825   13.4021   -3.0086 C   0  0  0  0  0  0  0  0  0  0  0  0
   10.5472   11.4669   -4.1739 C   0  0  0  0  0  0  0  0  0  0  0  0
   12.7861   10.1660   -6.2969 H   0  0  0  0  0  0  0  0  0  0  0  0
   12.4253   12.3416   -7.3476 H   0  0  0  0  0  0  0  0  0  0  0  0
   11.2923   14.5048   -7.3396 H   0  0  0  0  0  0  0  0  0  0  0  0
    7.7403   12.8674   -3.1332 H   0  0  0  0  0  0  0  0  0  0  0  0
    8.4330   14.3772   -2.4994 H   0  0  0  0  0  0  0  0  0  0  0  0
    9.3517   12.8831   -2.2610 H   0  0  0  0  0  0  0  0  0  0  0  0
    9.9987   11.2266   -3.2578 H   0  0  0  0  0  0  0  0  0  0  0  0
  1  2  2  0
  2  3  1  0
  4  3  2  0
  5  4  1  0
  6  1  1  0
  6  5  2  0
  1  7  1  0
  2  8  1  0
  3  9  1  0
 10 11  2  0
 11 12  1  0
 12 13  2  0
 13 14  1  0
 13 15  1  0
 15 16  1  0
 16 17  1  0
 15 18  2  0
 18 10  1  0
 11 19  1  0
 12 20  1  0
 14 21  1  0
 17 22  1  0
 17 23  1  0
 17 24  1  0
 18 25  1  0
  5 10  1  0
M  END
>  <Score>  (1) 
-7.493

$$$$

     RDKit          3D

 23 24  0  0  0  0  0  0  0  0999 V2000
   11.5579    6.9242   -4.1687 C   0  0  0  0  0  0  0  0  0  0  0  0
   12.0438    6.8285   -2.8546 C   0  0  0  0  0  0  0  0  0  0  0  0
   12.3205    8.0156   -2.1658 C   0  0  0  0  0  0  0  0  0  0  0  0
   12.1004    9.2033   -2.8160 N   0  0  0  0  0  0  0  0  0  0  0  0
   11.6327    9.2565   -4.0789 C   0  0  0  0  0  0  0  0  0  0  0  0
   11.3617    8.1219   -4.7549 N   0  0  0  0  0  0  0  0  0  0  0  0
   11.3472    6.0075   -4.6925 H   0  0  0  0  0  0  0  0  0  0  0  0
   12.1936    5.8564   -2.4043 H   0  0  0  0  0  0  0  0  0  0  0  0
   12.6901    7.9648   -1.1674 H   0  0  0  0  0  0  0  0  0  0  0  0
   10.2530   15.0701   -5.8591 H   0  0  0  0  0  0  0  0  0  0  0  0
   10.7400   14.3083   -6.4235 C   0  0  0  0  0  0  0  0  0  0  0  0
   11.1041   14.5398   -7.5858 O   0  0  0  0  0  0  0  0  0  0  0  0
   10.9826   12.9990   -5.8450 C   0  0  0  0  0  0  0  0  0  0  0  0
   10.5771   12.7510   -4.5597 C   0  0  0  0  0  0  0  0  0  0  0  0
   10.8088   11.5413   -4.0448 N   0  0  0  0  0  0  0  0  0  0  0  0
   11.4188   10.5500   -4.7174 C   0  0  0  0  0  0  0  0  0  0  0  0
   11.8395   10.7627   -6.0102 C   0  0  0  0  0  0  0  0  0  0  0  0
   11.6169   11.9981   -6.5723 C   0  0  0  0  0  0  0  0  0  0  0  0
   12.0240   12.2884   -7.9011 N   0  0  0  0  0  0  0  0  0  0  0  0
   11.4454   11.9405   -8.6759 H   0  0  0  0  0  0  0  0  0  0  0  0
   10.0766   13.4787   -3.9283 H   0  0  0  0  0  0  0  0  0  0  0  0
   12.3338    9.9673   -6.5623 H   0  0  0  0  0  0  0  0  0  0  0  0
   12.8919   12.8433   -8.0903 H   0  0  0  0  0  0  0  0  0  0  0  0
  1  2  2  0
  2  3  1  0
  4  3  2  0
  5  4  1  0
  6  1  1  0
  6  5  2  0
  1  7  1  0
  2  8  1  0
  3  9  1  0
 10 11  1  0
 11 12  2  0
 11 13  1  0
 13 14  2  0
 14 15  1  0
 15 16  2  0
 16 17  1  0
 17 18  2  0
 18 19  1  0
 19 20  1  0
 18 13  1  0
 14 21  1  0
 17 22  1  0
 19 23  1  0
  5 16  1  0
M  END
>  <Score>  (1) 
-7.45187

$$$$

     RDKit          3D

 29 30  0  0  0  0  0  0  0  0999 V2000
   11.5559    6.9243   -4.1740 C   0  0  0  0  0  0  0  0  0  0  0  0
   12.0460    6.8306   -2.8488 C   0  0  0  0  0  0  0  0  0  0  0  0
   12.3205    8.0138   -2.1659 C   0  0  0  0  0  0  0  0  0  0  0  0
   12.0992    9.2032   -2.8191 N   0  0  0  0  0  0  0  0  0  0  0  0
   11.6334    9.2544   -4.0770 C   0  0  0  0  0  0  0  0  0  0  0  0
   11.3620    8.1237   -4.7542 N   0  0  0  0  0  0  0  0  0  0  0  0
   11.3561    5.9812   -4.6674 H   0  0  0  0  0  0  0  0  0  0  0  0
   12.1987    5.8724   -2.3913 H   0  0  0  0  0  0  0  0  0  0  0  0
   12.6965    7.9998   -1.1520 H   0  0  0  0  0  0  0  0  0  0  0  0
   11.4158   10.5033   -4.7234 N   0  0  0  0  0  0  0  0  0  0  0  0
   11.8492   10.7265   -6.0948 C   0  0  1  0  0  0  0  0  0  0  0  0
   11.1167    9.7401   -6.9714 C   0  0  0  0  0  0  0  0  0  0  0  0
   10.0461   10.5050   -7.7327 C   0  0  0  0  0  0  0  0  0  0  0  0
   10.7794   11.3549   -8.7654 C   0  0  2  0  0  0  0  0  0  0  0  0
   11.5729   10.4937   -9.5218 O   0  0  0  0  0  0  0  0  0  0  0  0
   11.6546   12.3111   -8.0204 C   0  0  0  0  0  0  0  0  0  0  0  0
   11.5775   12.1354   -6.5253 C   0  0  0  0  0  0  0  0  0  0  0  0
   10.9356   11.3012   -4.2289 H   0  0  0  0  0  0  0  0  0  0  0  0
   12.9558   10.5488   -6.1348 H   0  0  0  0  0  0  0  0  0  0  0  0
   11.8557    9.3432   -7.7175 H   0  0  0  0  0  0  0  0  0  0  0  0
   10.6922    8.9321   -6.3665 H   0  0  0  0  0  0  0  0  0  0  0  0
    9.4431   11.1302   -7.0448 H   0  0  0  0  0  0  0  0  0  0  0  0
    9.4062    9.7740   -8.2858 H   0  0  0  0  0  0  0  0  0  0  0  0
   10.0243   11.8805   -9.3981 H   0  0  0  0  0  0  0  0  0  0  0  0
   11.6544   10.8025  -10.4670 H   0  0  0  0  0  0  0  0  0  0  0  0
   12.7281   12.1830   -8.3147 H   0  0  0  0  0  0  0  0  0  0  0  0
   11.4215   13.3855   -8.2330 H   0  0  0  0  0  0  0  0  0  0  0  0
   12.4012   12.7874   -6.1064 H   0  0  0  0  0  0  0  0  0  0  0  0
   10.6072   12.5376   -6.1492 H   0  0  0  0  0  0  0  0  0  0  0  0
  1  2  2  0
  2  3  1  0
  4  3  2  0
  5  4  1  0
  6  1  1  0
  6  5  2  0
  1  7  1  0
  2  8  1  0
  3  9  1  0
 10 11  1  0
 11 12  1  0
 12 13  1  0
 13 14  1  0
 14 15  1  0
 14 16  1  0
 16 17  1  0
 17 11  1  0
 10 18  1  0
 11 19  1  1
 12 20  1  0
 12 21  1  0
 13 22  1  0
 13 23  1  0
 14 24  1  6
 15 25  1  0
 16 26  1  0
 16 27  1  0
 17 28  1  0
 17 29  1  0
  5 10  1  0
M  END
>  <Score>  (1) 
-7.43322

$$$$

     RDKit          3D

 29 30  0  0  0  0  0  0  0  0999 V2000
   11.5564    6.9241   -4.1727 C   0  0  0  0  0  0  0  0  0  0  0  0
   12.0452    6.8289   -2.8508 C   0  0  0  0  0  0  0  0  0  0  0  0
   12.3202    8.0159   -2.1666 C   0  0  0  0  0  0  0  0  0  0  0  0
   12.0993    9.2002   -2.8187 N   0  0  0  0  0  0  0  0  0  0  0  0
   11.6327    9.2589   -4.0790 C   0  0  0  0  0  0  0  0  0  0  0  0
   11.3631    8.1220   -4.7512 N   0  0  0  0  0  0  0  0  0  0  0  0
   11.3498    6.0005   -4.6851 H   0  0  0  0  0  0  0  0  0  0  0  0
   12.2087    5.8968   -2.3655 H   0  0  0  0  0  0  0  0  0  0  0  0
   12.6918    8.0287   -1.1659 H   0  0  0  0  0  0  0  0  0  0  0  0
   11.4127   10.5149   -4.7258 N   0  0  0  0  0  0  0  0  0  0  0  0
   11.2226   10.6575   -6.1322 C   0  0  1  0  0  0  0  0  0  0  0  0
   12.4106   10.1855   -6.9489 C   0  0  0  0  0  0  0  0  0  0  0  0
   12.1337   10.4852   -8.3982 C   0  0  0  0  0  0  0  0  0  0  0  0
   10.8198   11.1862   -8.6284 C   0  0  1  0  0  0  0  0  0  0  0  0
   10.6550   11.2300  -10.0338 O   0  0  0  0  0  0  0  0  0  0  0  0
    9.6855   10.4295   -8.0183 C   0  0  0  0  0  0  0  0  0  0  0  0
   10.0226    9.8910   -6.6458 C   0  0  0  0  0  0  0  0  0  0  0  0
   11.3929   11.3649   -4.1222 H   0  0  0  0  0  0  0  0  0  0  0  0
   11.0485   11.7259   -6.3698 H   0  0  0  0  0  0  0  0  0  0  0  0
   12.4958    9.0944   -6.8207 H   0  0  0  0  0  0  0  0  0  0  0  0
   13.3237   10.7087   -6.5905 H   0  0  0  0  0  0  0  0  0  0  0  0
   12.9741   11.0829   -8.7861 H   0  0  0  0  0  0  0  0  0  0  0  0
   12.0982    9.5358   -9.0014 H   0  0  0  0  0  0  0  0  0  0  0  0
   10.8446   12.2530   -8.3231 H   0  0  0  0  0  0  0  0  0  0  0  0
    9.7150   11.4353  -10.2246 H   0  0  0  0  0  0  0  0  0  0  0  0
    9.4401    9.5603   -8.6593 H   0  0  0  0  0  0  0  0  0  0  0  0
    8.8188   11.1393   -7.9455 H   0  0  0  0  0  0  0  0  0  0  0  0
    9.1463    9.9836   -5.9682 H   0  0  0  0  0  0  0  0  0  0  0  0
   10.3457    8.8217   -6.7273 H   0  0  0  0  0  0  0  0  0  0  0  0
  1  2  2  0
  2  3  1  0
  4  3  2  0
  5  4  1  0
  6  1  1  0
  6  5  2  0
  1  7  1  0
  2  8  1  0
  3  9  1  0
 10 11  1  0
 11 12  1  0
 12 13  1  0
 13 14  1  0
 14 15  1  0
 14 16  1  0
 16 17  1  0
 17 11  1  0
 10 18  1  0
 11 19  1  1
 12 20  1  0
 12 21  1  0
 13 22  1  0
 13 23  1  0
 14 24  1  1
 15 25  1  0
 16 26  1  0
 16 27  1  0
 17 28  1  0
 17 29  1  0
  5 10  1  0
M  END
>  <Score>  (1) 
-7.42728

$$$$

     RDKit          3D

 22 23  0  0  0  0  0  0  0  0999 V2000
   11.5570    6.9239   -4.1711 C   0  0  0  0  0  0  0  0  0  0  0  0
   12.0443    6.8263   -2.8531 C   0  0  0  0  0  0  0  0  0  0  0  0
   12.3204    8.0202   -2.1663 C   0  0  0  0  0  0  0  0  0  0  0  0
   12.1013    9.2004   -2.8133 N   0  0  0  0  0  0  0  0  0  0  0  0
   11.6317    9.2552   -4.0815 C   0  0  0  0  0  0  0  0  0  0  0  0
   11.3622    8.1240   -4.7536 N   0  0  0  0  0  0  0  0  0  0  0  0
   11.3365    6.0327   -4.7226 H   0  0  0  0  0  0  0  0  0  0  0  0
   12.1982    5.8641   -2.3923 H   0  0  0  0  0  0  0  0  0  0  0  0
   12.6918    7.9702   -1.1632 H   0  0  0  0  0  0  0  0  0  0  0  0
   11.5553   14.5950   -7.4604 H   0  0  0  0  0  0  0  0  0  0  0  0
   10.8506   14.2759   -6.7094 C   0  0  0  0  0  0  0  0  0  0  0  0
    9.8875   15.0402   -6.4558 O   0  0  0  0  0  0  0  0  0  0  0  0
   11.0275   13.0029   -6.0269 C   0  0  0  0  0  0  0  0  0  0  0  0
   12.0980   12.1873   -6.3305 C   0  0  0  0  0  0  0  0  0  0  0  0
   12.2980   10.9769   -5.7061 C   0  0  0  0  0  0  0  0  0  0  0  0
   11.4110   10.5400   -4.7379 C   0  0  0  0  0  0  0  0  0  0  0  0
   10.3497   11.3225   -4.4200 C   0  0  0  0  0  0  0  0  0  0  0  0
    9.6618   10.9727   -3.6622 H   0  0  0  0  0  0  0  0  0  0  0  0
   10.1579   12.5511   -5.0626 C   0  0  0  0  0  0  0  0  0  0  0  0
   12.7881   12.5272   -7.0837 H   0  0  0  0  0  0  0  0  0  0  0  0
   13.1572   10.3978   -5.9984 H   0  0  0  0  0  0  0  0  0  0  0  0
    9.3118   13.1355   -4.7837 H   0  0  0  0  0  0  0  0  0  0  0  0
  1  2  2  0
  2  3  1  0
  4  3  2  0
  5  4  1  0
  6  1  1  0
  6  5  2  0
  1  7  1  0
  2  8  1  0
  3  9  1  0
 10 11  1  0
 11 12  2  0
 11 13  1  0
 13 14  2  0
 14 15  1  0
 15 16  2  0
 16 17  1  0
 17 18  1  0
 17 19  2  0
 19 13  1  0
 14 20  1  0
 15 21  1  0
 19 22  1  0
  5 16  1  0
M  END
>  <Score>  (1) 
-7.41391

$$$$

     RDKit          3D

 27 28  0  0  0  0  0  0  0  0999 V2000
   11.5568    6.9247   -4.1717 C   0  0  0  0  0  0  0  0  0  0  0  0
   12.0445    6.8268   -2.8527 C   0  0  0  0  0  0  0  0  0  0  0  0
   12.3204    8.0194   -2.1663 C   0  0  0  0  0  0  0  0  0  0  0  0
   12.1013    9.2008   -2.8135 N   0  0  0  0  0  0  0  0  0  0  0  0
   11.6320    9.2561   -4.0809 C   0  0  0  0  0  0  0  0  0  0  0  0
   11.3621    8.1223   -4.7539 N   0  0  0  0  0  0  0  0  0  0  0  0
   11.3564    5.9808   -4.6666 H   0  0  0  0  0  0  0  0  0  0  0  0
   12.2042    5.8796   -2.3769 H   0  0  0  0  0  0  0  0  0  0  0  0
   12.6973    8.0038   -1.1500 H   0  0  0  0  0  0  0  0  0  0  0  0
   11.4319   10.5786   -4.6834 C   0  0  2  0  0  0  0  0  0  0  0  0
   11.6102   10.5541   -6.0845 O   0  0  0  0  0  0  0  0  0  0  0  0
   11.5956   11.9305   -6.3475 C   0  0  2  0  0  0  0  0  0  0  0  0
   11.8667   12.2342   -7.7951 C   0  0  0  0  0  0  0  0  0  0  0  0
   10.9298   11.6607   -8.6415 O   0  0  0  0  0  0  0  0  0  0  0  0
   12.6780   12.4208   -5.4317 C   0  0  2  0  0  0  0  0  0  0  0  0
   13.9489   12.0283   -5.8291 O   0  0  0  0  0  0  0  0  0  0  0  0
   12.3602   11.6319   -4.1567 C   0  0  2  0  0  0  0  0  0  0  0  0
   13.5153   11.1353   -3.5949 O   0  0  0  0  0  0  0  0  0  0  0  0
   10.3909   10.9354   -4.5316 H   0  0  0  0  0  0  0  0  0  0  0  0
   10.6439   12.3262   -5.9996 H   0  0  0  0  0  0  0  0  0  0  0  0
   11.7498   13.3429   -7.9085 H   0  0  0  0  0  0  0  0  0  0  0  0
   12.9150   12.0204   -8.0842 H   0  0  0  0  0  0  0  0  0  0  0  0
   11.3996   11.2353   -9.3812 H   0  0  0  0  0  0  0  0  0  0  0  0
   12.5737   13.4969   -5.2885 H   0  0  0  0  0  0  0  0  0  0  0  0
   14.2645   12.6978   -6.5020 H   0  0  0  0  0  0  0  0  0  0  0  0
   11.8166   12.3339   -3.4826 H   0  0  0  0  0  0  0  0  0  0  0  0
   13.3196   10.4640   -2.9212 H   0  0  0  0  0  0  0  0  0  0  0  0
  1  2  2  0
  2  3  1  0
  4  3  2  0
  5  4  1  0
  6  1  1  0
  6  5  2  0
  1  7  1  0
  2  8  1  0
  3  9  1  0
 10 11  1  0
 11 12  1  0
 12 13  1  0
 13 14  1  0
 12 15  1  0
 15 16  1  0
 15 17  1  0
 17 18  1  0
 17 10  1  0
 10 19  1  6
 12 20  1  1
 13 21  1  0
 13 22  1  0
 14 23  1  0
 15 24  1  1
 16 25  1  0
 17 26  1  1
 18 27  1  0
  5 10  1  0
M  END
>  <Score>  (1) 
-7.40957

$$$$

     RDKit          3D

 22 24  0  0  0  0  0  0  0  0999 V2000
   11.5587    6.9205   -4.1663 C   0  0  0  0  0  0  0  0  0  0  0  0
   12.0436    6.8302   -2.8554 C   0  0  0  0  0  0  0  0  0  0  0  0
   12.3205    8.0214   -2.1662 C   0  0  0  0  0  0  0  0  0  0  0  0
   12.0972    9.1903   -2.8239 N   0  0  0  0  0  0  0  0  0  0  0  0
   11.6335    9.2583   -4.0767 C   0  0  0  0  0  0  0  0  0  0  0  0
   11.3634    8.1293   -4.7505 N   0  0  0  0  0  0  0  0  0  0  0  0
   11.3273    6.0586   -4.7486 H   0  0  0  0  0  0  0  0  0  0  0  0
   12.1961    5.8757   -2.3985 H   0  0  0  0  0  0  0  0  0  0  0  0
   12.6912    7.9737   -1.1648 H   0  0  0  0  0  0  0  0  0  0  0  0
   11.4200   10.5983   -4.7164 C   0  0  0  0  0  0  0  0  0  0  0  0
   11.0937   11.6173   -3.8331 N   0  0  0  0  0  0  0  0  0  0  0  0
   10.9244   13.0252   -4.9649 S   0  0  0  0  0  0  0  0  0  0  0  0
   11.2730   12.1982   -6.3811 C   0  0  0  0  0  0  0  0  0  0  0  0
   11.3428   12.6264   -7.7386 C   0  0  0  0  0  0  0  0  0  0  0  0
   11.6537   11.7433   -8.7384 C   0  0  0  0  0  0  0  0  0  0  0  0
   11.8866   10.4596   -8.3629 C   0  0  0  0  0  0  0  0  0  0  0  0
   11.8246   10.0273   -7.0640 C   0  0  0  0  0  0  0  0  0  0  0  0
   11.5073   10.9111   -6.0114 C   0  0  0  0  0  0  0  0  0  0  0  0
   11.1356   13.6765   -7.9063 H   0  0  0  0  0  0  0  0  0  0  0  0
   11.6971   12.1001   -9.7463 H   0  0  0  0  0  0  0  0  0  0  0  0
   12.1346    9.7622   -9.1735 H   0  0  0  0  0  0  0  0  0  0  0  0
   12.0327    8.9858   -6.9195 H   0  0  0  0  0  0  0  0  0  0  0  0
  1  2  2  0
  2  3  1  0
  4  3  2  0
  5  4  1  0
  6  1  1  0
  6  5  2  0
  1  7  1  0
  2  8  1  0
  3  9  1  0
 10 11  2  0
 11 12  1  0
 12 13  1  0
 13 14  2  0
 14 15  1  0
 15 16  2  0
 16 17  1  0
 17 18  2  0
 18 10  1  0
 18 13  1  0
 14 19  1  0
 15 20  1  0
 16 21  1  0
 17 22  1  0
  5 10  1  0
M  END
>  <Score>  (1) 
-7.39924

$$$$

     RDKit          3D

 24 25  0  0  0  0  0  0  0  0999 V2000
   11.5563    6.9248   -4.1729 C   0  0  0  0  0  0  0  0  0  0  0  0
   12.0450    6.8283   -2.8515 C   0  0  0  0  0  0  0  0  0  0  0  0
   12.3201    8.0208   -2.1671 C   0  0  0  0  0  0  0  0  0  0  0  0
   12.1018    9.1970   -2.8119 N   0  0  0  0  0  0  0  0  0  0  0  0
   11.6314    9.2574   -4.0824 C   0  0  0  0  0  0  0  0  0  0  0  0
   11.3623    8.1218   -4.7531 N   0  0  0  0  0  0  0  0  0  0  0  0
   11.3505    5.9922   -4.6829 H   0  0  0  0  0  0  0  0  0  0  0  0
   12.2081    5.8991   -2.3673 H   0  0  0  0  0  0  0  0  0  0  0  0
   12.6964    8.0086   -1.1526 H   0  0  0  0  0  0  0  0  0  0  0  0
   11.4379   10.5357   -4.6653 N   0  0  0  0  0  0  0  0  0  0  0  0
   11.8870   10.7870   -6.0181 C   0  0  0  0  0  0  0  0  0  0  0  0
   11.1945    9.8498   -6.9737 C   0  0  0  0  0  0  0  0  0  0  0  0
   11.4802    9.9226   -8.3199 C   0  0  0  0  0  0  0  0  0  0  0  0
   10.8853    9.0977   -9.2499 C   0  0  0  0  0  0  0  0  0  0  0  0
    9.9818    8.1796   -8.8089 C   0  0  0  0  0  0  0  0  0  0  0  0
    9.7115    8.1282   -7.4393 C   0  0  0  0  0  0  0  0  0  0  0  0
   10.3106    8.9482   -6.5614 N   0  0  0  0  0  0  0  0  0  0  0  0
   10.9778   11.3072   -4.1446 H   0  0  0  0  0  0  0  0  0  0  0  0
   11.6240   11.8032   -6.3662 H   0  0  0  0  0  0  0  0  0  0  0  0
   12.9903   10.7001   -6.1168 H   0  0  0  0  0  0  0  0  0  0  0  0
   12.1970   10.6486   -8.6828 H   0  0  0  0  0  0  0  0  0  0  0  0
   11.1019    9.1460  -10.3077 H   0  0  0  0  0  0  0  0  0  0  0  0
    9.4660    7.4913   -9.4673 H   0  0  0  0  0  0  0  0  0  0  0  0
    8.9846    7.3836   -7.1176 H   0  0  0  0  0  0  0  0  0  0  0  0
  1  2  2  0
  2  3  1  0
  4  3  2  0
  5  4  1  0
  6  1  1  0
  6  5  2  0
  1  7  1  0
  2  8  1  0
  3  9  1  0
 10 11  1  0
 11 12  1  0
 12 13  2  0
 13 14  1  0
 14 15  2  0
 15 16  1  0
 16 17  2  0
 17 12  1  0
 10 18  1  0
 11 19  1  0
 11 20  1  0
 13 21  1  0
 14 22  1  0
 15 23  1  0
 16 24  1  0
  5 10  1  0
M  END
>  <Score>  (1) 
-7.39385

$$$$

     RDKit          3D

 22 23  0  0  0  0  0  0  0  0999 V2000
   11.5577    6.9229   -4.1693 C   0  0  0  0  0  0  0  0  0  0  0  0
   12.0441    6.8280   -2.8539 C   0  0  0  0  0  0  0  0  0  0  0  0
   12.3205    8.0177   -2.1660 C   0  0  0  0  0  0  0  0  0  0  0  0
   12.1012    9.2007   -2.8138 N   0  0  0  0  0  0  0  0  0  0  0  0
   11.6309    9.2539   -4.0836 C   0  0  0  0  0  0  0  0  0  0  0  0
   11.3627    8.1268   -4.7525 N   0  0  0  0  0  0  0  0  0  0  0  0
   11.3559    5.9898   -4.6682 H   0  0  0  0  0  0  0  0  0  0  0  0
   12.2035    5.8740   -2.3786 H   0  0  0  0  0  0  0  0  0  0  0  0
   12.6930    7.9742   -1.1601 H   0  0  0  0  0  0  0  0  0  0  0  0
   11.4303   10.5648   -4.6870 C   0  0  0  0  0  0  0  0  0  0  0  0
   10.2133   11.1958   -4.5513 C   0  0  0  0  0  0  0  0  0  0  0  0
    9.9504   12.4348   -5.0937 C   0  0  0  0  0  0  0  0  0  0  0  0
   10.9201   13.0834   -5.7989 C   0  0  0  0  0  0  0  0  0  0  0  0
   10.6956   14.3834   -6.3876 N   0  0  0  0  0  0  0  0  0  0  0  0
   12.1500   12.4789   -5.9534 C   0  0  0  0  0  0  0  0  0  0  0  0
   12.3974   11.2353   -5.4027 C   0  0  0  0  0  0  0  0  0  0  0  0
    9.4223   10.6932   -3.9898 H   0  0  0  0  0  0  0  0  0  0  0  0
    8.9925   12.9008   -4.9708 H   0  0  0  0  0  0  0  0  0  0  0  0
   11.2015   14.5662   -7.2814 H   0  0  0  0  0  0  0  0  0  0  0  0
   10.0801   15.0743   -5.9519 H   0  0  0  0  0  0  0  0  0  0  0  0
   12.8954   13.0257   -6.5204 H   0  0  0  0  0  0  0  0  0  0  0  0
   13.3700   10.7757   -5.5343 H   0  0  0  0  0  0  0  0  0  0  0  0
  1  2  2  0
  2  3  1  0
  4  3  2  0
  5  4  1  0
  6  1  1  0
  6  5  2  0
  1  7  1  0
  2  8  1  0
  3  9  1  0
 10 11  2  0
 11 12  1  0
 12 13  2  0
 13 14  1  0
 13 15  1  0
 15 16  2  0
 16 10  1  0
 11 17  1  0
 12 18  1  0
 14 19  1  0
 14 20  1  0
 15 21  1  0
 16 22  1  0
  5 10  1  0
M  END
>  <Score>  (1) 
-7.36397

$$$$

     RDKit          3D

 26 27  0  0  0  0  0  0  0  0999 V2000
   11.5565    6.9250   -4.1726 C   0  0  0  0  0  0  0  0  0  0  0  0
   12.0451    6.8287   -2.8511 C   0  0  0  0  0  0  0  0  0  0  0  0
   12.3203    8.0161   -2.1665 C   0  0  0  0  0  0  0  0  0  0  0  0
   12.1006    9.2025   -2.8153 N   0  0  0  0  0  0  0  0  0  0  0  0
   11.6325    9.2564   -4.0794 C   0  0  0  0  0  0  0  0  0  0  0  0
   11.3620    8.1213   -4.7541 N   0  0  0  0  0  0  0  0  0  0  0  0
   11.3645    5.9838   -4.6447 H   0  0  0  0  0  0  0  0  0  0  0  0
   12.2033    5.8760   -2.3792 H   0  0  0  0  0  0  0  0  0  0  0  0
   12.6932    8.0264   -1.1620 H   0  0  0  0  0  0  0  0  0  0  0  0
   10.6685    8.9521   -8.2696 H   0  0  0  0  0  0  0  0  0  0  0  0
   11.1294    9.9526   -8.1952 C   0  0  0  0  0  0  0  0  0  0  0  0
   10.9070   10.6481   -6.9004 C   0  0  2  0  0  0  0  0  0  0  0  0
   11.9276   10.5434   -5.9951 O   0  0  0  0  0  0  0  0  0  0  0  0
   11.4178   10.5924   -4.7220 C   0  0  1  0  0  0  0  0  0  0  0  0
    9.9266   10.8404   -4.8328 C   0  0  2  0  0  0  0  0  0  0  0  0
    9.1995   10.3217   -3.8041 O   0  0  0  0  0  0  0  0  0  0  0  0
    9.6615   10.1289   -6.1674 C   0  0  1  0  0  0  0  0  0  0  0  0
    8.4977   10.5451   -6.7578 O   0  0  0  0  0  0  0  0  0  0  0  0
   10.6775   10.5774   -9.0162 H   0  0  0  0  0  0  0  0  0  0  0  0
   12.2258    9.9272   -8.4493 H   0  0  0  0  0  0  0  0  0  0  0  0
   10.6865   11.7391   -7.0822 H   0  0  0  0  0  0  0  0  0  0  0  0
   11.9007   11.3815   -4.1139 H   0  0  0  0  0  0  0  0  0  0  0  0
    9.7180   11.9119   -5.0272 H   0  0  0  0  0  0  0  0  0  0  0  0
    8.7617   11.0832   -3.3247 H   0  0  0  0  0  0  0  0  0  0  0  0
    9.7547    9.0313   -6.0514 H   0  0  0  0  0  0  0  0  0  0  0  0
    7.7908    9.8639   -6.5189 H   0  0  0  0  0  0  0  0  0  0  0  0
  1  2  2  0
  2  3  1  0
  4  3  2  0
  5  4  1  0
  6  1  1  0
  6  5  2  0
  1  7  1  0
  2  8  1  0
  3  9  1  0
 10 11  1  0
 11 12  1  0
 12 13  1  0
 13 14  1  0
 14 15  1  0
 15 16  1  0
 15 17  1  0
 17 18  1  0
 17 12  1  0
 11 19  1  0
 11 20  1  0
 12 21  1  6
 14 22  1  1
 15 23  1  6
 16 24  1  0
 17 25  1  1
 18 26  1  0
  5 14  1  0
M  END
>  <Score>  (1) 
-7.35141

$$$$

     RDKit          3D

 24 26  0  0  0  0  0  0  0  0999 V2000
   12.3026    8.1241   -2.3016 C   0  0  0  0  0  0  0  0  0  0  0  0
   12.0213    6.8832   -2.9133 C   0  0  0  0  0  0  0  0  0  0  0  0
   11.5243    6.8977   -4.2251 C   0  0  0  0  0  0  0  0  0  0  0  0
   11.3423    8.1085   -4.8316 N   0  0  0  0  0  0  0  0  0  0  0  0
   11.6235    9.2768   -4.2126 C   0  0  0  0  0  0  0  0  0  0  0  0
   12.1010    9.2808   -2.9539 N   0  0  0  0  0  0  0  0  0  0  0  0
   12.6867    8.1258   -1.2889 H   0  0  0  0  0  0  0  0  0  0  0  0
   12.1900    5.9690   -2.3729 H   0  0  0  0  0  0  0  0  0  0  0  0
   11.2961    5.9678   -4.7295 H   0  0  0  0  0  0  0  0  0  0  0  0
   11.4314   10.5348   -4.8506 N   0  0  0  0  0  0  0  0  0  0  0  0
   11.3702   11.7473   -4.2694 C   0  0  0  0  0  0  0  0  0  0  0  0
   11.4891   11.8711   -3.0027 O   0  0  0  0  0  0  0  0  0  0  0  0
   11.1811   12.6995   -5.1737 N   0  0  0  0  0  0  0  0  0  0  0  0
   11.1115   12.1324   -6.3938 C   0  0  0  0  0  0  0  0  0  0  0  0
   10.9287   12.6457   -7.6625 C   0  0  0  0  0  0  0  0  0  0  0  0
   10.9083   11.7565   -8.7178 C   0  0  0  0  0  0  0  0  0  0  0  0
   11.0674   10.3935   -8.5004 C   0  0  0  0  0  0  0  0  0  0  0  0
   11.2480    9.8974   -7.2369 C   0  0  0  0  0  0  0  0  0  0  0  0
   11.2699   10.7740   -6.1779 C   0  0  0  0  0  0  0  0  0  0  0  0
   11.0994   13.7294   -4.9674 H   0  0  0  0  0  0  0  0  0  0  0  0
   10.8068   13.7137   -7.8069 H   0  0  0  0  0  0  0  0  0  0  0  0
   10.7664   12.1153   -9.7412 H   0  0  0  0  0  0  0  0  0  0  0  0
   11.0515    9.6952   -9.3287 H   0  0  0  0  0  0  0  0  0  0  0  0
   11.3759    8.8371   -7.0267 H   0  0  0  0  0  0  0  0  0  0  0  0
  2  1  2  0
  3  2  1  0
  4  3  2  0
  4  5  1  0
  5  6  2  0
  6  1  1  0
  1  7  1  0
  2  8  1  0
  3  9  1  0
 10 11  1  0
 11 12  2  0
 11 13  1  0
 13 14  1  0
 14 15  2  0
 15 16  1  0
 16 17  2  0
 17 18  1  0
 18 19  2  0
 19 10  1  0
 19 14  1  0
 13 20  1  0
 15 21  1  0
 16 22  1  0
 17 23  1  0
 18 24  1  0
  5 10  1  0
M  END
>  <Score>  (1) 
-7.79417

$$$$

     RDKit          3D

 21 22  0  0  0  0  0  0  0  0999 V2000
   11.5563    6.9253   -4.1731 C   0  0  0  0  0  0  0  0  0  0  0  0
   12.0451    6.8273   -2.8511 C   0  0  0  0  0  0  0  0  0  0  0  0
   12.3200    8.0197   -2.1675 C   0  0  0  0  0  0  0  0  0  0  0  0
   12.1018    9.1998   -2.8121 N   0  0  0  0  0  0  0  0  0  0  0  0
   11.6317    9.2561   -4.0817 C   0  0  0  0  0  0  0  0  0  0  0  0
   11.3622    8.1218   -4.7535 N   0  0  0  0  0  0  0  0  0  0  0  0
   11.3332    6.0381   -4.7316 H   0  0  0  0  0  0  0  0  0  0  0  0
   12.2032    5.8872   -2.3799 H   0  0  0  0  0  0  0  0  0  0  0  0
   12.6904    8.0323   -1.1697 H   0  0  0  0  0  0  0  0  0  0  0  0
   11.4175   10.5493   -4.7208 C   0  0  0  0  0  0  0  0  0  0  0  0
   11.0827   11.6473   -3.9525 C   0  0  0  0  0  0  0  0  0  0  0  0
   10.8773   12.8727   -4.5374 C   0  0  0  0  0  0  0  0  0  0  0  0
   11.0008   13.0295   -5.8959 C   0  0  0  0  0  0  0  0  0  0  0  0
   10.7816   14.3277   -6.5007 C   0  0  0  0  0  0  0  0  0  0  0  0
   10.6231   15.3722   -6.9758 N   0  0  0  0  0  0  0  0  0  0  0  0
   11.3341   11.9254   -6.6391 C   0  0  0  0  0  0  0  0  0  0  0  0
   11.4335   12.0335   -7.6982 H   0  0  0  0  0  0  0  0  0  0  0  0
   11.5470   10.6783   -6.0767 C   0  0  0  0  0  0  0  0  0  0  0  0
   10.9821   11.5453   -2.8954 H   0  0  0  0  0  0  0  0  0  0  0  0
   10.6153   13.7334   -3.9399 H   0  0  0  0  0  0  0  0  0  0  0  0
   11.8087    9.8314   -6.6984 H   0  0  0  0  0  0  0  0  0  0  0  0
  1  2  2  0
  2  3  1  0
  4  3  2  0
  5  4  1  0
  6  1  1  0
  6  5  2  0
  1  7  1  0
  2  8  1  0
  3  9  1  0
 10 11  2  0
 11 12  1  0
 12 13  2  0
 13 14  1  0
 14 15  3  0
 13 16  1  0
 16 17  1  0
 16 18  2  0
 18 10  1  0
 11 19  1  0
 12 20  1  0
 18 21  1  0
  5 10  1  0
M  END
>  <Score>  (1) 
-7.35102

$$$$

     RDKit          3D

 27 28  0  0  0  0  0  0  0  0999 V2000
   11.5563    6.9257   -4.1731 C   0  0  0  0  0  0  0  0  0  0  0  0
   12.0454    6.8284   -2.8504 C   0  0  0  0  0  0  0  0  0  0  0  0
   12.3202    8.0153   -2.1667 C   0  0  0  0  0  0  0  0  0  0  0  0
   12.0997    9.2035   -2.8179 N   0  0  0  0  0  0  0  0  0  0  0  0
   11.6337    9.2573   -4.0762 C   0  0  0  0  0  0  0  0  0  0  0  0
   11.3617    8.1197   -4.7547 N   0  0  0  0  0  0  0  0  0  0  0  0
   11.3417    6.0185   -4.7080 H   0  0  0  0  0  0  0  0  0  0  0  0
   12.1990    5.8590   -2.3900 H   0  0  0  0  0  0  0  0  0  0  0  0
   12.6892    7.9681   -1.1698 H   0  0  0  0  0  0  0  0  0  0  0  0
   11.4130   10.5129   -4.7312 N   0  0  0  0  0  0  0  0  0  0  0  0
   10.4039   10.6924   -5.7275 C   0  0  0  0  0  0  0  0  0  0  0  0
   10.7893   11.5845   -6.8560 C   0  0  0  0  0  0  0  0  0  0  0  0
   11.6430   12.7490   -6.4379 C   0  0  0  0  0  0  0  0  0  0  0  0
   12.1635   13.4685   -7.6074 C   0  0  0  0  0  0  0  0  0  0  0  0
   13.0354   14.1323   -7.4718 H   0  0  0  0  0  0  0  0  0  0  0  0
   11.7220   13.4052   -8.7318 O   0  0  0  0  0  0  0  0  0  0  0  0
   12.8287   12.2084   -5.6336 C   0  0  0  0  0  0  0  0  0  0  0  0
   12.2509   11.6366   -4.3613 C   0  0  0  0  0  0  0  0  0  0  0  0
   10.1960    9.6727   -6.1652 H   0  0  0  0  0  0  0  0  0  0  0  0
    9.4239   11.0019   -5.2732 H   0  0  0  0  0  0  0  0  0  0  0  0
    9.8401   12.0181   -7.2813 H   0  0  0  0  0  0  0  0  0  0  0  0
   11.2352   11.0193   -7.7237 H   0  0  0  0  0  0  0  0  0  0  0  0
   11.0541   13.3672   -5.7453 H   0  0  0  0  0  0  0  0  0  0  0  0
   13.2967   11.3820   -6.1959 H   0  0  0  0  0  0  0  0  0  0  0  0
   13.5358   13.0460   -5.4312 H   0  0  0  0  0  0  0  0  0  0  0  0
   13.0905   11.3329   -3.7103 H   0  0  0  0  0  0  0  0  0  0  0  0
   11.5785   12.3715   -3.8510 H   0  0  0  0  0  0  0  0  0  0  0  0
  1  2  2  0
  2  3  1  0
  4  3  2  0
  5  4  1  0
  6  1  1  0
  6  5  2  0
  1  7  1  0
  2  8  1  0
  3  9  1  0
 10 11  1  0
 11 12  1  0
 12 13  1  0
 13 14  1  0
 14 15  1  0
 14 16  2  0
 13 17  1  0
 17 18  1  0
 18 10  1  0
 11 19  1  0
 11 20  1  0
 12 21  1  0
 12 22  1  0
 13 23  1  0
 17 24  1  0
 17 25  1  0
 18 26  1  0
 18 27  1  0
  5 10  1  0
M  END
>  <Score>  (1) 
-7.34889

$$$$

     RDKit          3D

 26 27  0  0  0  0  0  0  0  0999 V2000
   11.5564    6.9252   -4.1728 C   0  0  0  0  0  0  0  0  0  0  0  0
   12.0450    6.8276   -2.8513 C   0  0  0  0  0  0  0  0  0  0  0  0
   12.3203    8.0179   -2.1665 C   0  0  0  0  0  0  0  0  0  0  0  0
   12.1009    9.2016   -2.8145 N   0  0  0  0  0  0  0  0  0  0  0  0
   11.6324    9.2563   -4.0799 C   0  0  0  0  0  0  0  0  0  0  0  0
   11.3620    8.1214   -4.7539 N   0  0  0  0  0  0  0  0  0  0  0  0
   11.3495    5.9963   -4.6860 H   0  0  0  0  0  0  0  0  0  0  0  0
   12.1963    5.8600   -2.3973 H   0  0  0  0  0  0  0  0  0  0  0  0
   12.6929    7.9801   -1.1606 H   0  0  0  0  0  0  0  0  0  0  0  0
   13.3922   12.2388   -7.2575 H   0  0  0  0  0  0  0  0  0  0  0  0
   12.5924   11.6627   -7.7634 C   0  0  0  0  0  0  0  0  0  0  0  0
   11.9659   10.6226   -6.8441 C   0  0  1  0  0  0  0  0  0  0  0  0
   12.4354   10.8579   -5.5748 O   0  0  0  0  0  0  0  0  0  0  0  0
   11.4366   10.5963   -4.6716 C   0  0  1  0  0  0  0  0  0  0  0  0
   10.1153   10.7485   -5.3601 C   0  0  2  0  0  0  0  0  0  0  0  0
    9.2411    9.7292   -5.0036 O   0  0  0  0  0  0  0  0  0  0  0  0
   10.4714   10.7237   -6.8190 C   0  0  1  0  0  0  0  0  0  0  0  0
   10.0251   11.9141   -7.4368 O   0  0  0  0  0  0  0  0  0  0  0  0
   11.8040   12.3406   -8.1464 H   0  0  0  0  0  0  0  0  0  0  0  0
   13.0533   11.1769   -8.6477 H   0  0  0  0  0  0  0  0  0  0  0  0
   12.2664    9.6144   -7.2179 H   0  0  0  0  0  0  0  0  0  0  0  0
   11.5091   11.3479   -3.8450 H   0  0  0  0  0  0  0  0  0  0  0  0
    9.6698   11.7291   -5.0918 H   0  0  0  0  0  0  0  0  0  0  0  0
    8.8448    9.2735   -5.8040 H   0  0  0  0  0  0  0  0  0  0  0  0
   10.0092    9.8756   -7.3713 H   0  0  0  0  0  0  0  0  0  0  0  0
    9.1476   12.1724   -7.0525 H   0  0  0  0  0  0  0  0  0  0  0  0
  1  2  2  0
  2  3  1  0
  4  3  2  0
  5  4  1  0
  6  1  1  0
  6  5  2  0
  1  7  1  0
  2  8  1  0
  3  9  1  0
 10 11  1  0
 11 12  1  0
 12 13  1  0
 13 14  1  0
 14 15  1  0
 15 16  1  0
 15 17  1  0
 17 18  1  0
 17 12  1  0
 11 19  1  0
 11 20  1  0
 12 21  1  6
 14 22  1  1
 15 23  1  1
 16 24  1  0
 17 25  1  6
 18 26  1  0
  5 14  1  0
M  END
>  <Score>  (1) 
-7.34856

$$$$

     RDKit          3D

 23 24  0  0  0  0  0  0  0  0999 V2000
   11.5567    6.9244   -4.1719 C   0  0  0  0  0  0  0  0  0  0  0  0
   12.0445    6.8264   -2.8527 C   0  0  0  0  0  0  0  0  0  0  0  0
   12.3205    8.0198   -2.1660 C   0  0  0  0  0  0  0  0  0  0  0  0
   12.1005    9.1995   -2.8155 N   0  0  0  0  0  0  0  0  0  0  0  0
   11.6320    9.2569   -4.0808 C   0  0  0  0  0  0  0  0  0  0  0  0
   11.3628    8.1230   -4.7521 N   0  0  0  0  0  0  0  0  0  0  0  0
   11.3596    5.9884   -4.6583 H   0  0  0  0  0  0  0  0  0  0  0  0
   12.2069    5.8923   -2.3701 H   0  0  0  0  0  0  0  0  0  0  0  0
   12.6912    8.0365   -1.1677 H   0  0  0  0  0  0  0  0  0  0  0  0
   14.6532   13.5537   -4.6974 H   0  0  0  0  0  0  0  0  0  0  0  0
   13.6232   13.8409   -5.5462 S   0  0  0  0  0  6  0  0  0  0  0  0
   13.0885   15.2286   -5.3474 O   0  0  0  0  0  0  0  0  0  0  0  0
   14.1147   13.6799   -6.9747 O   0  0  0  0  0  0  0  0  0  0  0  0
   12.2898   12.7247   -5.3666 C   0  0  0  0  0  0  0  0  0  0  0  0
   11.0495   13.1438   -5.7979 C   0  0  0  0  0  0  0  0  0  0  0  0
   10.0006   12.2585   -5.6538 C   0  0  0  0  0  0  0  0  0  0  0  0
   10.2060   11.0125   -5.0994 C   0  0  0  0  0  0  0  0  0  0  0  0
   11.4390   10.5801   -4.6643 C   0  0  0  0  0  0  0  0  0  0  0  0
   12.4865   11.4768   -4.8134 C   0  0  0  0  0  0  0  0  0  0  0  0
   10.9102   14.1344   -6.2336 H   0  0  0  0  0  0  0  0  0  0  0  0
    9.0265   12.5934   -5.9947 H   0  0  0  0  0  0  0  0  0  0  0  0
    9.3766   10.3160   -4.9869 H   0  0  0  0  0  0  0  0  0  0  0  0
   13.4756   11.1620   -4.4775 H   0  0  0  0  0  0  0  0  0  0  0  0
  1  2  2  0
  2  3  1  0
  4  3  2  0
  5  4  1  0
  6  1  1  0
  6  5  2  0
  1  7  1  0
  2  8  1  0
  3  9  1  0
 10 11  1  0
 11 12  2  0
 11 13  2  0
 11 14  1  0
 14 15  2  0
 15 16  1  0
 16 17  2  0
 17 18  1  0
 18 19  2  0
 19 14  1  0
 15 20  1  0
 16 21  1  0
 17 22  1  0
 19 23  1  0
  5 18  1  0
M  END
>  <Score>  (1) 
-7.34446

$$$$

     RDKit          3D

 21 22  0  0  0  0  0  0  0  0999 V2000
   11.5574    6.9243   -4.1699 C   0  0  0  0  0  0  0  0  0  0  0  0
   12.0448    6.8279   -2.8519 C   0  0  0  0  0  0  0  0  0  0  0  0
   12.3200    8.0153   -2.1673 C   0  0  0  0  0  0  0  0  0  0  0  0
   12.1002    9.2027   -2.8164 N   0  0  0  0  0  0  0  0  0  0  0  0
   11.6324    9.2561   -4.0798 C   0  0  0  0  0  0  0  0  0  0  0  0
   11.3622    8.1237   -4.7537 N   0  0  0  0  0  0  0  0  0  0  0  0
   11.3615    5.9871   -4.6529 H   0  0  0  0  0  0  0  0  0  0  0  0
   12.2045    5.8772   -2.3759 H   0  0  0  0  0  0  0  0  0  0  0  0
   12.6884    7.9690   -1.1722 H   0  0  0  0  0  0  0  0  0  0  0  0
   11.4261   10.5601   -4.6978 C   0  0  0  0  0  0  0  0  0  0  0  0
   11.5529   10.7332   -6.0578 C   0  0  0  0  0  0  0  0  0  0  0  0
   11.3620   11.9617   -6.6684 C   0  0  0  0  0  0  0  0  0  0  0  0
   11.0306   13.0529   -5.8704 C   0  0  0  0  0  0  0  0  0  0  0  0
   10.8405   14.2845   -6.4940 O   0  0  0  0  0  0  0  0  0  0  0  0
   10.8970   12.9098   -4.5086 C   0  0  0  0  0  0  0  0  0  0  0  0
   10.6414   13.7650   -3.9177 H   0  0  0  0  0  0  0  0  0  0  0  0
   11.0939   11.6759   -3.9374 C   0  0  0  0  0  0  0  0  0  0  0  0
   11.8106    9.9082   -6.7204 H   0  0  0  0  0  0  0  0  0  0  0  0
   11.4523   12.1366   -7.7291 H   0  0  0  0  0  0  0  0  0  0  0  0
    9.9038   14.5259   -6.8162 H   0  0  0  0  0  0  0  0  0  0  0  0
   10.9910   11.5660   -2.8890 H   0  0  0  0  0  0  0  0  0  0  0  0
  1  2  2  0
  2  3  1  0
  4  3  2  0
  5  4  1  0
  6  1  1  0
  6  5  2  0
  1  7  1  0
  2  8  1  0
  3  9  1  0
 10 11  2  0
 11 12  1  0
 12 13  2  0
 13 14  1  0
 13 15  1  0
 15 16  1  0
 15 17  2  0
 17 10  1  0
 11 18  1  0
 12 19  1  0
 14 20  1  0
 17 21  1  0
  5 10  1  0
M  END
>  <Score>  (1) 
-7.30377

$$$$

     RDKit          3D

 24 25  0  0  0  0  0  0  0  0999 V2000
   11.5560    6.9297   -4.1740 C   0  0  0  0  0  0  0  0  0  0  0  0
   12.0461    6.8304   -2.8485 C   0  0  0  0  0  0  0  0  0  0  0  0
   12.3209    8.0141   -2.1647 C   0  0  0  0  0  0  0  0  0  0  0  0
   12.0953    9.1960   -2.8295 N   0  0  0  0  0  0  0  0  0  0  0  0
   11.6360    9.2634   -4.0703 C   0  0  0  0  0  0  0  0  0  0  0  0
   11.3627    8.1164   -4.7520 N   0  0  0  0  0  0  0  0  0  0  0  0
   11.3549    5.9818   -4.6705 H   0  0  0  0  0  0  0  0  0  0  0  0
   12.2009    5.8715   -2.3854 H   0  0  0  0  0  0  0  0  0  0  0  0
   12.6908    7.9761   -1.1662 H   0  0  0  0  0  0  0  0  0  0  0  0
   11.3973   12.6240  -10.6666 H   0  0  0  0  0  0  0  0  0  0  0  0
   11.7344   11.6634  -10.3172 C   0  0  0  0  0  0  0  0  0  0  0  0
   12.1947   10.8100  -11.1104 O   0  0  0  0  0  0  0  0  0  0  0  0
   11.6423   11.3764   -8.8915 C   0  0  0  0  0  0  0  0  0  0  0  0
   11.1451   12.2789   -7.9826 C   0  0  0  0  0  0  0  0  0  0  0  0
   11.0805   11.9571   -6.6496 C   0  0  0  0  0  0  0  0  0  0  0  0
   11.5008   10.7275   -6.1281 C   0  0  0  0  0  0  0  0  0  0  0  0
   11.4105   10.4727   -4.7371 N   0  0  0  0  0  0  0  0  0  0  0  0
   11.9926    9.8441   -7.0517 C   0  0  0  0  0  0  0  0  0  0  0  0
   12.0637   10.1621   -8.4184 C   0  0  0  0  0  0  0  0  0  0  0  0
   10.8187   13.2310   -8.3806 H   0  0  0  0  0  0  0  0  0  0  0  0
   10.6825   12.6897   -5.9549 H   0  0  0  0  0  0  0  0  0  0  0  0
   11.1343   11.3415   -4.1512 H   0  0  0  0  0  0  0  0  0  0  0  0
   12.3457    8.8745   -6.7448 H   0  0  0  0  0  0  0  0  0  0  0  0
   12.4707    9.4016   -9.1026 H   0  0  0  0  0  0  0  0  0  0  0  0
  1  2  2  0
  2  3  1  0
  4  3  2  0
  5  4  1  0
  6  1  1  0
  6  5  2  0
  1  7  1  0
  2  8  1  0
  3  9  1  0
 10 11  1  0
 11 12  2  0
 11 13  1  0
 13 14  2  0
 14 15  1  0
 15 16  2  0
 16 17  1  0
 16 18  1  0
 18 19  2  0
 19 13  1  0
 14 20  1  0
 15 21  1  0
 17 22  1  0
 18 23  1  0
 19 24  1  0
  5 17  1  0
M  END
>  <Score>  (1) 
-7.29002

$$$$

     RDKit          3D

 24 25  0  0  0  0  0  0  0  0999 V2000
   11.5563    6.9262   -4.1732 C   0  0  0  0  0  0  0  0  0  0  0  0
   12.0451    6.8276   -2.8510 C   0  0  0  0  0  0  0  0  0  0  0  0
   12.3203    8.0173   -2.1666 C   0  0  0  0  0  0  0  0  0  0  0  0
   12.1008    9.2021   -2.8148 N   0  0  0  0  0  0  0  0  0  0  0  0
   11.6325    9.2561   -4.0796 C   0  0  0  0  0  0  0  0  0  0  0  0
   11.3621    8.1207   -4.7538 N   0  0  0  0  0  0  0  0  0  0  0  0
   11.3595    5.9797   -4.6581 H   0  0  0  0  0  0  0  0  0  0  0  0
   12.1948    5.8607   -2.4014 H   0  0  0  0  0  0  0  0  0  0  0  0
   12.6950    7.9788   -1.1549 H   0  0  0  0  0  0  0  0  0  0  0  0
   11.4188   10.5505   -4.7174 C   0  0  0  0  0  0  0  0  0  0  0  0
   10.7941   11.5637   -4.0263 C   0  0  0  0  0  0  0  0  0  0  0  0
   10.5802   12.8123   -4.6213 C   0  0  0  0  0  0  0  0  0  0  0  0
   10.9972   13.0347   -5.9123 C   0  0  0  0  0  0  0  0  0  0  0  0
   10.7842   14.2705   -6.4980 O   0  0  0  0  0  0  0  0  0  0  0  0
   11.1914   14.5512   -7.8167 C   0  0  0  0  0  0  0  0  0  0  0  0
   11.6170   12.0123   -6.5821 C   0  0  0  0  0  0  0  0  0  0  0  0
   11.8368   10.7688   -6.0071 C   0  0  0  0  0  0  0  0  0  0  0  0
   10.4620   11.4002   -3.0109 H   0  0  0  0  0  0  0  0  0  0  0  0
   10.0836   13.5647   -4.0231 H   0  0  0  0  0  0  0  0  0  0  0  0
   10.5650   14.0962   -8.5851 H   0  0  0  0  0  0  0  0  0  0  0  0
   11.1309   15.6710   -7.9320 H   0  0  0  0  0  0  0  0  0  0  0  0
   12.2632   14.2808   -7.8971 H   0  0  0  0  0  0  0  0  0  0  0  0
   11.9565   12.1676   -7.6092 H   0  0  0  0  0  0  0  0  0  0  0  0
   12.3248    9.9558   -6.5273 H   0  0  0  0  0  0  0  0  0  0  0  0
  1  2  2  0
  2  3  1  0
  4  3  2  0
  5  4  1  0
  6  1  1  0
  6  5  2  0
  1  7  1  0
  2  8  1  0
  3  9  1  0
 10 11  2  0
 11 12  1  0
 12 13  2  0
 13 14  1  0
 14 15  1  0
 13 16  1  0
 16 17  2  0
 17 10  1  0
 11 18  1  0
 12 19  1  0
 15 20  1  0
 15 21  1  0
 15 22  1  0
 16 23  1  0
 17 24  1  0
  5 10  1  0
M  END
>  <Score>  (1) 
-7.25421

$$$$

     RDKit          3D

 27 28  0  0  0  0  0  0  0  0999 V2000
   11.5558    6.9277   -4.1746 C   0  0  0  0  0  0  0  0  0  0  0  0
   12.0453    6.8274   -2.8504 C   0  0  0  0  0  0  0  0  0  0  0  0
   12.3203    8.0183   -2.1665 C   0  0  0  0  0  0  0  0  0  0  0  0
   12.1011    9.2008   -2.8141 N   0  0  0  0  0  0  0  0  0  0  0  0
   11.6324    9.2577   -4.0798 C   0  0  0  0  0  0  0  0  0  0  0  0
   11.3621    8.1181   -4.7536 N   0  0  0  0  0  0  0  0  0  0  0  0
   11.3514    6.0159   -4.6815 H   0  0  0  0  0  0  0  0  0  0  0  0
   12.2026    5.8833   -2.3815 H   0  0  0  0  0  0  0  0  0  0  0  0
   12.6906    7.9887   -1.1672 H   0  0  0  0  0  0  0  0  0  0  0  0
   11.4223   10.4978   -4.7056 N   0  0  0  0  0  0  0  0  0  0  0  0
   11.0672   11.6617   -3.9184 C   0  0  0  0  0  0  0  0  0  0  0  0
   11.3667   12.8725   -4.8037 C   0  0  0  0  0  0  0  0  0  0  0  0
   10.4297   12.8315   -5.8973 N   0  0  0  0  0  0  0  0  0  0  0  0
    9.4705   12.9405   -5.4781 H   0  0  0  0  0  0  0  0  0  0  0  0
   10.4852   11.5878   -6.6121 C   0  0  1  0  0  0  0  0  0  0  0  0
   10.7199   11.8302   -8.0881 C   0  0  0  0  0  0  0  0  0  0  0  0
   11.5501   10.6524   -6.1251 C   0  0  0  0  0  0  0  0  0  0  0  0
   11.6378   11.7399   -2.9832 H   0  0  0  0  0  0  0  0  0  0  0  0
    9.9752   11.6528   -3.6822 H   0  0  0  0  0  0  0  0  0  0  0  0
   12.4118   12.7501   -5.1423 H   0  0  0  0  0  0  0  0  0  0  0  0
   11.2899   13.8122   -4.2583 H   0  0  0  0  0  0  0  0  0  0  0  0
    9.5054   11.0295   -6.5500 H   0  0  0  0  0  0  0  0  0  0  0  0
   11.7187   12.3322   -8.1614 H   0  0  0  0  0  0  0  0  0  0  0  0
    9.9146   12.4297   -8.5395 H   0  0  0  0  0  0  0  0  0  0  0  0
   10.7775   10.8482   -8.5840 H   0  0  0  0  0  0  0  0  0  0  0  0
   11.3535    9.6578   -6.5880 H   0  0  0  0  0  0  0  0  0  0  0  0
   12.5652   10.9846   -6.4167 H   0  0  0  0  0  0  0  0  0  0  0  0
  1  2  2  0
  2  3  1  0
  4  3  2  0
  5  4  1  0
  6  1  1  0
  6  5  2  0
  1  7  1  0
  2  8  1  0
  3  9  1  0
 10 11  1  0
 11 12  1  0
 12 13  1  0
 13 14  1  0
 13 15  1  0
 15 16  1  0
 15 17  1  0
 17 10  1  0
 11 18  1  0
 11 19  1  0
 12 20  1  0
 12 21  1  0
 15 22  1  6
 16 23  1  0
 16 24  1  0
 16 25  1  0
 17 26  1  0
 17 27  1  0
  5 10  1  0
M  END
>  <Score>  (1) 
-7.22876

$$$$

     RDKit          3D

 24 25  0  0  0  0  0  0  0  0999 V2000
   11.5589    6.9303   -4.1664 C   0  0  0  0  0  0  0  0  0  0  0  0
   12.0438    6.8297   -2.8548 C   0  0  0  0  0  0  0  0  0  0  0  0
   12.3216    8.0129   -2.1627 C   0  0  0  0  0  0  0  0  0  0  0  0
   12.0942    9.1928   -2.8323 N   0  0  0  0  0  0  0  0  0  0  0  0
   11.6356    9.2700   -4.0719 C   0  0  0  0  0  0  0  0  0  0  0  0
   11.3631    8.1143   -4.7508 N   0  0  0  0  0  0  0  0  0  0  0  0
   11.3615    5.9843   -4.6528 H   0  0  0  0  0  0  0  0  0  0  0  0
   12.2076    5.8797   -2.3677 H   0  0  0  0  0  0  0  0  0  0  0  0
   12.6961    8.0079   -1.1534 H   0  0  0  0  0  0  0  0  0  0  0  0
   10.2114   14.1416   -6.0058 H   0  0  0  0  0  0  0  0  0  0  0  0
   10.5067   13.1529   -5.5778 C   0  0  0  0  0  0  0  0  0  0  0  0
   10.7597   13.1251   -4.3710 O   0  0  0  0  0  0  0  0  0  0  0  0
   10.5723   11.9927   -6.4483 C   0  0  0  0  0  0  0  0  0  0  0  0
   10.1677   12.2101   -7.7884 C   0  0  0  0  0  0  0  0  0  0  0  0
   10.1424   11.1852   -8.6903 C   0  0  0  0  0  0  0  0  0  0  0  0
   10.5132    9.9250   -8.2989 C   0  0  0  0  0  0  0  0  0  0  0  0
   10.9087    9.7262   -6.9823 C   0  0  0  0  0  0  0  0  0  0  0  0
   10.9527   10.7407   -6.0205 C   0  0  0  0  0  0  0  0  0  0  0  0
   11.4176   10.5029   -4.7220 N   0  0  0  0  0  0  0  0  0  0  0  0
    9.8696   13.1815   -8.1367 H   0  0  0  0  0  0  0  0  0  0  0  0
    9.8378   11.3122   -9.7273 H   0  0  0  0  0  0  0  0  0  0  0  0
   10.5035    9.0904   -8.9900 H   0  0  0  0  0  0  0  0  0  0  0  0
   11.2085    8.7360   -6.6894 H   0  0  0  0  0  0  0  0  0  0  0  0
   11.6734   11.3696   -4.1422 H   0  0  0  0  0  0  0  0  0  0  0  0
  1  2  2  0
  2  3  1  0
  4  3  2  0
  5  4  1  0
  6  1  1  0
  6  5  2  0
  1  7  1  0
  2  8  1  0
  3  9  1  0
 10 11  1  0
 11 12  2  0
 11 13  1  0
 13 14  2  0
 14 15  1  0
 15 16  2  0
 16 17  1  0
 17 18  2  0
 18 19  1  0
 18 13  1  0
 14 20  1  0
 15 21  1  0
 16 22  1  0
 17 23  1  0
 19 24  1  0
  5 19  1  0
M  END
>  <Score>  (1) 
-7.20387

$$$$

     RDKit          3D

 34 35  0  0  0  0  0  0  0  0999 V2000
   11.5578    6.9219   -4.1690 C   0  0  0  0  0  0  0  0  0  0  0  0
   12.0437    6.8258   -2.8547 C   0  0  0  0  0  0  0  0  0  0  0  0
   12.3206    8.0207   -2.1659 C   0  0  0  0  0  0  0  0  0  0  0  0
   12.1014    9.2008   -2.8133 N   0  0  0  0  0  0  0  0  0  0  0  0
   11.6313    9.2527   -4.0825 C   0  0  0  0  0  0  0  0  0  0  0  0
   11.3623    8.1281   -4.7536 N   0  0  0  0  0  0  0  0  0  0  0  0
   11.3513    5.9900   -4.6806 H   0  0  0  0  0  0  0  0  0  0  0  0
   12.1941    5.8653   -2.4035 H   0  0  0  0  0  0  0  0  0  0  0  0
   12.6887    7.9574   -1.1708 H   0  0  0  0  0  0  0  0  0  0  0  0
   11.8701   14.5285  -10.5258 H   0  0  0  0  0  0  0  0  0  0  0  0
   11.2249   13.9614   -9.8180 C   0  0  0  0  0  0  0  0  0  0  0  0
   12.0083   12.9340   -9.0345 C   0  0  0  0  0  0  0  0  0  0  0  0
   11.1595   11.7432   -8.6380 C   0  0  1  0  0  0  0  0  0  0  0  0
   12.0560   10.8005   -7.8675 C   0  0  0  0  0  0  0  0  0  0  0  0
   11.2340    9.8436   -7.0296 C   0  0  0  0  0  0  0  0  0  0  0  0
   10.6416   10.6499   -5.8946 C   0  0  1  0  0  0  0  0  0  0  0  0
   11.4275   10.5254   -4.6922 N   0  0  0  0  0  0  0  0  0  0  0  0
   10.4565   12.0968   -6.2692 C   0  0  0  0  0  0  0  0  0  0  0  0
   10.0253   12.1463   -7.7297 C   0  0  0  0  0  0  0  0  0  0  0  0
   10.3770   13.5073  -10.3802 H   0  0  0  0  0  0  0  0  0  0  0  0
   10.7643   14.6619   -9.0931 H   0  0  0  0  0  0  0  0  0  0  0  0
   12.4083   13.3740   -8.0819 H   0  0  0  0  0  0  0  0  0  0  0  0
   12.8584   12.6109   -9.6627 H   0  0  0  0  0  0  0  0  0  0  0  0
   10.7714   11.2808   -9.5618 H   0  0  0  0  0  0  0  0  0  0  0  0
   12.7075   10.2078   -8.5362 H   0  0  0  0  0  0  0  0  0  0  0  0
   12.6922   11.4228   -7.2054 H   0  0  0  0  0  0  0  0  0  0  0  0
   10.4699    9.3661   -7.6529 H   0  0  0  0  0  0  0  0  0  0  0  0
   11.9066    9.0521   -6.6639 H   0  0  0  0  0  0  0  0  0  0  0  0
    9.6148   10.2409   -5.6631 H   0  0  0  0  0  0  0  0  0  0  0  0
   11.8435   11.3880   -4.2789 H   0  0  0  0  0  0  0  0  0  0  0  0
   11.3566   12.7023   -6.0858 H   0  0  0  0  0  0  0  0  0  0  0  0
    9.6334   12.5294   -5.6791 H   0  0  0  0  0  0  0  0  0  0  0  0
    9.6637   13.1497   -8.0038 H   0  0  0  0  0  0  0  0  0  0  0  0
    9.1711   11.4259   -7.8182 H   0  0  0  0  0  0  0  0  0  0  0  0
  1  2  2  0
  2  3  1  0
  4  3  2  0
  5  4  1  0
  6  1  1  0
  6  5  2  0
  1  7  1  0
  2  8  1  0
  3  9  1  0
 10 11  1  0
 11 12  1  0
 12 13  1  0
 13 14  1  0
 14 15  1  0
 15 16  1  0
 16 17  1  0
 16 18  1  0
 18 19  1  0
 19 13  1  0
 11 20  1  0
 11 21  1  0
 12 22  1  0
 12 23  1  0
 13 24  1  6
 14 25  1  0
 14 26  1  0
 15 27  1  0
 15 28  1  0
 16 29  1  1
 17 30  1  0
 18 31  1  0
 18 32  1  0
 19 33  1  0
 19 34  1  0
  5 17  1  0
M  END
>  <Score>  (1) 
-7.20308

$$$$

     RDKit          3D

 23 24  0  0  0  0  0  0  0  0999 V2000
   12.3026    8.1235   -2.3013 C   0  0  0  0  0  0  0  0  0  0  0  0
   12.0212    6.8832   -2.9137 C   0  0  0  0  0  0  0  0  0  0  0  0
   11.5243    6.8981   -4.2253 C   0  0  0  0  0  0  0  0  0  0  0  0
   11.3425    8.1077   -4.8311 N   0  0  0  0  0  0  0  0  0  0  0  0
   11.6238    9.2769   -4.2117 C   0  0  0  0  0  0  0  0  0  0  0  0
   12.1007    9.2817   -2.9550 N   0  0  0  0  0  0  0  0  0  0  0  0
   12.6853    8.0759   -1.2874 H   0  0  0  0  0  0  0  0  0  0  0  0
   12.1773    5.9559   -2.4050 H   0  0  0  0  0  0  0  0  0  0  0  0
   11.2898    5.9778   -4.7472 H   0  0  0  0  0  0  0  0  0  0  0  0
   12.4814   12.9491   -8.5525 H   0  0  0  0  0  0  0  0  0  0  0  0
   12.1083   11.9180   -8.3782 C   0  0  0  0  0  0  0  0  0  0  0  0
   11.6351   11.8362   -6.9529 C   0  0  0  0  0  0  0  0  0  0  0  0
   11.0183   12.8894   -6.3230 C   0  0  0  0  0  0  0  0  0  0  0  0
   10.5927   12.7870   -5.0103 C   0  0  0  0  0  0  0  0  0  0  0  0
   10.7932   11.5935   -4.3141 C   0  0  0  0  0  0  0  0  0  0  0  0
   11.4034   10.5395   -4.9248 C   0  0  0  0  0  0  0  0  0  0  0  0
   11.8103   10.6790   -6.2235 C   0  0  0  0  0  0  0  0  0  0  0  0
   11.2845   11.6237   -9.0372 H   0  0  0  0  0  0  0  0  0  0  0  0
   12.9827   11.2219   -8.4716 H   0  0  0  0  0  0  0  0  0  0  0  0
   10.8629   13.8159   -6.8640 H   0  0  0  0  0  0  0  0  0  0  0  0
   10.1103   13.6378   -4.5462 H   0  0  0  0  0  0  0  0  0  0  0  0
   10.4504   11.5484   -3.2963 H   0  0  0  0  0  0  0  0  0  0  0  0
   12.2993    9.8236   -6.7016 H   0  0  0  0  0  0  0  0  0  0  0  0
  2  1  2  0
  3  2  1  0
  4  3  2  0
  4  5  1  0
  5  6  2  0
  6  1  1  0
  1  7  1  0
  2  8  1  0
  3  9  1  0
 10 11  1  0
 11 12  1  0
 12 13  2  0
 13 14  1  0
 14 15  2  0
 15 16  1  0
 16 17  2  0
 17 12  1  0
 11 18  1  0
 11 19  1  0
 13 20  1  0
 14 21  1  0
 15 22  1  0
 17 23  1  0
  5 16  1  0
M  END
>  <Score>  (1) 
-7.79272

$$$$

     RDKit          3D

 25 26  0  0  0  0  0  0  0  0999 V2000
   11.5560    6.9255   -4.1738 C   0  0  0  0  0  0  0  0  0  0  0  0
   12.0455    6.8278   -2.8501 C   0  0  0  0  0  0  0  0  0  0  0  0
   12.3198    8.0189   -2.1678 C   0  0  0  0  0  0  0  0  0  0  0  0
   12.1018    9.2002   -2.8122 N   0  0  0  0  0  0  0  0  0  0  0  0
   11.6317    9.2560   -4.0815 C   0  0  0  0  0  0  0  0  0  0  0  0
   11.3622    8.1215   -4.7536 N   0  0  0  0  0  0  0  0  0  0  0  0
   11.3482    5.9863   -4.6889 H   0  0  0  0  0  0  0  0  0  0  0  0
   12.1963    5.8658   -2.3976 H   0  0  0  0  0  0  0  0  0  0  0  0
   12.6932    8.0053   -1.1610 H   0  0  0  0  0  0  0  0  0  0  0  0
   10.4024   11.3980   -8.2151 H   0  0  0  0  0  0  0  0  0  0  0  0
   11.1494   10.6384   -8.2058 C   0  0  0  0  0  0  0  0  0  0  0  0
   11.8294   10.3230   -9.1722 O   0  0  0  0  0  0  0  0  0  0  0  0
   11.4179    9.8780   -6.9391 C   0  0  2  0  0  0  0  0  0  0  0  0
   10.6101   10.3021   -5.9188 O   0  0  0  0  0  0  0  0  0  0  0  0
   11.3887   10.5265   -4.7975 C   0  0  2  0  0  0  0  0  0  0  0  0
   12.6442   11.1103   -5.3919 C   0  0  2  0  0  0  0  0  0  0  0  0
   12.2846   12.3596   -5.9342 O   0  0  0  0  0  0  0  0  0  0  0  0
   12.8508   10.1797   -6.5546 C   0  0  1  0  0  0  0  0  0  0  0  0
   13.4697    8.9953   -6.2122 O   0  0  0  0  0  0  0  0  0  0  0  0
   11.2692    8.7934   -7.1523 H   0  0  0  0  0  0  0  0  0  0  0  0
   10.9305   11.3054   -4.1667 H   0  0  0  0  0  0  0  0  0  0  0  0
   13.4790   11.1763   -4.7040 H   0  0  0  0  0  0  0  0  0  0  0  0
   11.3095   12.3801   -6.1552 H   0  0  0  0  0  0  0  0  0  0  0  0
   13.3932   10.7425   -7.3379 H   0  0  0  0  0  0  0  0  0  0  0  0
   13.1845    8.3039   -6.8523 H   0  0  0  0  0  0  0  0  0  0  0  0
  1  2  2  0
  2  3  1  0
  4  3  2  0
  5  4  1  0
  6  1  1  0
  6  5  2  0
  1  7  1  0
  2  8  1  0
  3  9  1  0
 10 11  1  0
 11 12  2  0
 11 13  1  0
 13 14  1  0
 14 15  1  0
 15 16  1  0
 16 17  1  0
 16 18  1  0
 18 19  1  0
 18 13  1  0
 13 20  1  6
 15 21  1  1
 16 22  1  1
 17 23  1  0
 18 24  1  6
 19 25  1  0
  5 15  1  0
M  END
>  <Score>  (1) 
-7.19746

$$$$

     RDKit          3D

 26 27  0  0  0  0  0  0  0  0999 V2000
   11.5572    6.9240   -4.1706 C   0  0  0  0  0  0  0  0  0  0  0  0
   12.0446    6.8272   -2.8524 C   0  0  0  0  0  0  0  0  0  0  0  0
   12.3202    8.0175   -2.1667 C   0  0  0  0  0  0  0  0  0  0  0  0
   12.1007    9.2022   -2.8151 N   0  0  0  0  0  0  0  0  0  0  0  0
   11.6323    9.2551   -4.0800 C   0  0  0  0  0  0  0  0  0  0  0  0
   11.3620    8.1240   -4.7542 N   0  0  0  0  0  0  0  0  0  0  0  0
   11.3557    5.9836   -4.6684 H   0  0  0  0  0  0  0  0  0  0  0  0
   12.2012    5.8617   -2.3842 H   0  0  0  0  0  0  0  0  0  0  0  0
   12.6919    7.9757   -1.1630 H   0  0  0  0  0  0  0  0  0  0  0  0
   12.9963   13.8097   -7.0495 H   0  0  0  0  0  0  0  0  0  0  0  0
   13.3636   12.8765   -6.6215 C   0  0  0  0  0  0  0  0  0  0  0  0
   12.2130   12.1826   -5.9343 C   0  0  2  0  0  0  0  0  0  0  0  0
   12.6463   11.1552   -5.1028 O   0  0  0  0  0  0  0  0  0  0  0  0
   11.4161   10.5755   -4.7260 C   0  0  1  0  0  0  0  0  0  0  0  0
   10.6005   10.4807   -5.9738 C   0  0  1  0  0  0  0  0  0  0  0  0
    9.2974   10.9619   -5.7117 O   0  0  0  0  0  0  0  0  0  0  0  0
   11.3243   11.4484   -6.9050 C   0  0  2  0  0  0  0  0  0  0  0  0
   12.0591   10.6763   -7.7974 O   0  0  0  0  0  0  0  0  0  0  0  0
   14.1005   13.1350   -5.8238 H   0  0  0  0  0  0  0  0  0  0  0  0
   13.8894   12.2123   -7.3324 H   0  0  0  0  0  0  0  0  0  0  0  0
   11.6303   12.9441   -5.4110 H   0  0  0  0  0  0  0  0  0  0  0  0
   10.9509   11.3130   -4.0228 H   0  0  0  0  0  0  0  0  0  0  0  0
   10.5313    9.4721   -6.4038 H   0  0  0  0  0  0  0  0  0  0  0  0
    9.1564   10.9518   -4.7126 H   0  0  0  0  0  0  0  0  0  0  0  0
   10.6076   12.1224   -7.4131 H   0  0  0  0  0  0  0  0  0  0  0  0
   12.9248   10.4094   -7.4184 H   0  0  0  0  0  0  0  0  0  0  0  0
  1  2  2  0
  2  3  1  0
  4  3  2  0
  5  4  1  0
  6  1  1  0
  6  5  2  0
  1  7  1  0
  2  8  1  0
  3  9  1  0
 10 11  1  0
 11 12  1  0
 12 13  1  0
 13 14  1  0
 14 15  1  0
 15 16  1  0
 15 17  1  0
 17 18  1  0
 17 12  1  0
 11 19  1  0
 11 20  1  0
 12 21  1  1
 14 22  1  1
 15 23  1  6
 16 24  1  0
 17 25  1  6
 18 26  1  0
  5 14  1  0
M  END
>  <Score>  (1) 
-7.18814

$$$$

     RDKit          3D

 30 32  0  0  0  0  0  0  0  0999 V2000
   11.5576    6.9233   -4.1696 C   0  0  0  0  0  0  0  0  0  0  0  0
   12.0443    6.8249   -2.8530 C   0  0  0  0  0  0  0  0  0  0  0  0
   12.3193    8.0211   -2.1693 C   0  0  0  0  0  0  0  0  0  0  0  0
   12.1009    9.1954   -2.8142 N   0  0  0  0  0  0  0  0  0  0  0  0
   11.6299    9.2580   -4.0866 C   0  0  0  0  0  0  0  0  0  0  0  0
   11.3650    8.1273   -4.7463 N   0  0  0  0  0  0  0  0  0  0  0  0
   11.3561    5.9834   -4.6673 H   0  0  0  0  0  0  0  0  0  0  0  0
   12.2072    5.8909   -2.3694 H   0  0  0  0  0  0  0  0  0  0  0  0
   12.6954    8.0183   -1.1556 H   0  0  0  0  0  0  0  0  0  0  0  0
   11.4476   10.5573   -4.6401 N   0  0  0  0  0  0  0  0  0  0  0  0
   11.2647   10.7908   -6.0297 C   0  0  0  0  0  0  0  0  0  0  0  0
   11.2189    9.9289   -7.0942 C   0  0  0  0  0  0  0  0  0  0  0  0
   11.0240   10.5883   -8.2553 N   0  0  0  0  0  0  0  0  0  0  0  0
   10.9278    9.9946   -9.5452 C   0  0  0  0  0  0  0  0  0  0  0  0
   11.0413    8.5694   -9.6808 N   0  0  0  0  0  0  0  0  0  0  0  0
   10.7445   10.7039  -10.5670 O   0  0  0  0  0  0  0  0  0  0  0  0
   10.9374   11.8999   -7.9772 C   0  0  0  0  0  0  0  0  0  0  0  0
   10.7462   12.9885   -8.7710 C   0  0  0  0  0  0  0  0  0  0  0  0
   10.6963   14.2496   -8.2168 C   0  0  0  0  0  0  0  0  0  0  0  0
   10.8393   14.4205   -6.8556 C   0  0  0  0  0  0  0  0  0  0  0  0
   11.0329   13.3224   -6.0482 C   0  0  0  0  0  0  0  0  0  0  0  0
   11.0845   12.0446   -6.6007 C   0  0  0  0  0  0  0  0  0  0  0  0
   11.4450   11.4085   -3.9989 H   0  0  0  0  0  0  0  0  0  0  0  0
   11.3244    8.8570   -7.0235 H   0  0  0  0  0  0  0  0  0  0  0  0
   10.6773    8.0971  -10.5486 H   0  0  0  0  0  0  0  0  0  0  0  0
   11.4672    7.9773   -8.9611 H   0  0  0  0  0  0  0  0  0  0  0  0
   10.6292   12.9156   -9.8339 H   0  0  0  0  0  0  0  0  0  0  0  0
   10.5449   15.1345   -8.8283 H   0  0  0  0  0  0  0  0  0  0  0  0
   10.7979   15.4234   -6.4298 H   0  0  0  0  0  0  0  0  0  0  0  0
   11.1488   13.4310   -4.9681 H   0  0  0  0  0  0  0  0  0  0  0  0
  1  2  2  0
  2  3  1  0
  4  3  2  0
  5  4  1  0
  6  1  1  0
  6  5  2  0
  1  7  1  0
  2  8  1  0
  3  9  1  0
 10 11  1  0
 11 12  2  0
 12 13  1  0
 13 14  1  0
 14 15  1  0
 14 16  2  0
 13 17  1  0
 17 18  2  0
 18 19  1  0
 19 20  2  0
 20 21  1  0
 21 22  2  0
 22 11  1  0
 22 17  1  0
 10 23  1  0
 12 24  1  0
 15 25  1  0
 15 26  1  0
 18 27  1  0
 19 28  1  0
 20 29  1  0
 21 30  1  0
  5 10  1  0
M  END
>  <Score>  (1) 
-7.17793

$$$$

     RDKit          3D

 22 23  0  0  0  0  0  0  0  0999 V2000
   11.5567    6.9227   -4.1736 C   0  0  0  0  0  0  0  0  0  0  0  0
   12.0448    6.8344   -2.8510 C   0  0  0  0  0  0  0  0  0  0  0  0
   12.3210    8.0136   -2.1651 C   0  0  0  0  0  0  0  0  0  0  0  0
   12.1011    9.2003   -2.8135 N   0  0  0  0  0  0  0  0  0  0  0  0
   11.6316    9.2568   -4.0828 C   0  0  0  0  0  0  0  0  0  0  0  0
   11.3618    8.1222   -4.7531 N   0  0  0  0  0  0  0  0  0  0  0  0
   11.3605    5.9762   -4.6776 H   0  0  0  0  0  0  0  0  0  0  0  0
   12.2082    5.9115   -2.3436 H   0  0  0  0  0  0  0  0  0  0  0  0
   12.7005    7.9947   -1.1410 H   0  0  0  0  0  0  0  0  0  0  0  0
   13.3169   13.3398   -7.7422 H   0  0  0  0  0  0  0  0  0  0  0  0
   13.4083   13.0256   -6.7260 C   0  0  0  0  0  0  0  0  0  0  0  0
   14.4935   13.1975   -6.1244 O   0  0  0  0  0  0  0  0  0  0  0  0
   12.3056   12.4069   -6.0237 C   0  0  0  0  0  0  0  0  0  0  0  0
   11.0793   13.0472   -5.9407 C   0  0  0  0  0  0  0  0  0  0  0  0
   10.0265   12.4719   -5.2645 C   0  0  0  0  0  0  0  0  0  0  0  0
   10.2061   11.2167   -4.6529 C   0  0  0  0  0  0  0  0  0  0  0  0
   11.4087   10.5533   -4.7161 C   0  0  0  0  0  0  0  0  0  0  0  0
   12.4340   11.1642   -5.4028 C   0  0  0  0  0  0  0  0  0  0  0  0
   13.9699   10.3380   -5.4885 Cl  0  0  0  0  0  0  0  0  0  0  0  0
   10.9371   14.0355   -6.4085 H   0  0  0  0  0  0  0  0  0  0  0  0
    9.0580   12.9580   -5.1849 H   0  0  0  0  0  0  0  0  0  0  0  0
    9.3863   10.7742   -4.1323 H   0  0  0  0  0  0  0  0  0  0  0  0
  1  2  2  0
  2  3  1  0
  4  3  2  0
  5  4  1  0
  6  1  1  0
  6  5  2  0
  1  7  1  0
  2  8  1  0
  3  9  1  0
 10 11  1  0
 11 12  2  0
 11 13  1  0
 13 14  2  0
 14 15  1  0
 15 16  2  0
 16 17  1  0
 17 18  2  0
 18 19  1  0
 18 13  1  0
 14 20  1  0
 15 21  1  0
 16 22  1  0
  5 17  1  0
M  END
>  <Score>  (1) 
-7.1743

$$$$

     RDKit          3D

 27 28  0  0  0  0  0  0  0  0999 V2000
   11.5580    6.9246   -4.1684 C   0  0  0  0  0  0  0  0  0  0  0  0
   12.0431    6.8258   -2.8563 C   0  0  0  0  0  0  0  0  0  0  0  0
   12.3211    8.0182   -2.1644 C   0  0  0  0  0  0  0  0  0  0  0  0
   12.0998    9.2023   -2.8175 N   0  0  0  0  0  0  0  0  0  0  0  0
   11.6323    9.2552   -4.0799 C   0  0  0  0  0  0  0  0  0  0  0  0
   11.3626    8.1239   -4.7526 N   0  0  0  0  0  0  0  0  0  0  0  0
   11.3435    6.0273   -4.7034 H   0  0  0  0  0  0  0  0  0  0  0  0
   12.2093    5.8933   -2.3637 H   0  0  0  0  0  0  0  0  0  0  0  0
   12.6924    7.9766   -1.1617 H   0  0  0  0  0  0  0  0  0  0  0  0
   11.4105   10.4900   -4.7369 N   0  0  0  0  0  0  0  0  0  0  0  0
   10.2202   10.7490   -5.4909 C   0  0  1  0  0  0  0  0  0  0  0  0
   10.2307   12.1364   -6.0891 C   0  0  0  0  0  0  0  0  0  0  0  0
   11.1547   12.1601   -7.2983 C   0  0  0  0  0  0  0  0  0  0  0  0
   10.7191   11.1503   -8.3360 C   0  0  0  0  0  0  0  0  0  0  0  0
    9.5754   10.4164   -7.7927 N   0  0  0  0  0  0  0  0  0  0  0  0
    9.2802    9.6829   -8.4800 H   0  0  0  0  0  0  0  0  0  0  0  0
   10.0506    9.7334   -6.6026 C   0  0  0  0  0  0  0  0  0  0  0  0
   12.1464   11.2259   -4.6606 H   0  0  0  0  0  0  0  0  0  0  0  0
    9.3532   10.6681   -4.8027 H   0  0  0  0  0  0  0  0  0  0  0  0
    9.1990   12.4219   -6.3654 H   0  0  0  0  0  0  0  0  0  0  0  0
   10.6088   12.8877   -5.3774 H   0  0  0  0  0  0  0  0  0  0  0  0
   12.1747   11.9569   -6.9160 H   0  0  0  0  0  0  0  0  0  0  0  0
   11.1249   13.1945   -7.7110 H   0  0  0  0  0  0  0  0  0  0  0  0
   11.5103   10.3749   -8.5213 H   0  0  0  0  0  0  0  0  0  0  0  0
   10.4634   11.6554   -9.2892 H   0  0  0  0  0  0  0  0  0  0  0  0
   11.0607    9.2679   -6.7850 H   0  0  0  0  0  0  0  0  0  0  0  0
    9.3396    8.9270   -6.3317 H   0  0  0  0  0  0  0  0  0  0  0  0
  1  2  2  0
  2  3  1  0
  4  3  2  0
  5  4  1  0
  6  1  1  0
  6  5  2  0
  1  7  1  0
  2  8  1  0
  3  9  1  0
 10 11  1  0
 11 12  1  0
 12 13  1  0
 13 14  1  0
 14 15  1  0
 15 16  1  0
 15 17  1  0
 17 11  1  0
 10 18  1  0
 11 19  1  1
 12 20  1  0
 12 21  1  0
 13 22  1  0
 13 23  1  0
 14 24  1  0
 14 25  1  0
 17 26  1  0
 17 27  1  0
  5 10  1  0
M  END
>  <Score>  (1) 
-7.17239

$$$$

     RDKit          3D

 22 23  0  0  0  0  0  0  0  0999 V2000
   11.5569    6.9240   -4.1714 C   0  0  0  0  0  0  0  0  0  0  0  0
   12.0449    6.8291   -2.8517 C   0  0  0  0  0  0  0  0  0  0  0  0
   12.3203    8.0153   -2.1664 C   0  0  0  0  0  0  0  0  0  0  0  0
   12.1006    9.2030   -2.8154 N   0  0  0  0  0  0  0  0  0  0  0  0
   11.6323    9.2559   -4.0799 C   0  0  0  0  0  0  0  0  0  0  0  0
   11.3620    8.1228   -4.7542 N   0  0  0  0  0  0  0  0  0  0  0  0
   11.3369    6.0189   -4.7209 H   0  0  0  0  0  0  0  0  0  0  0  0
   12.1883    5.8561   -2.4185 H   0  0  0  0  0  0  0  0  0  0  0  0
   12.6881    7.9576   -1.1726 H   0  0  0  0  0  0  0  0  0  0  0  0
   11.4162   10.5453   -4.7242 C   0  0  0  0  0  0  0  0  0  0  0  0
   11.2390   10.6265   -6.0881 C   0  0  0  0  0  0  0  0  0  0  0  0
   11.0359   11.8387   -6.6938 C   0  0  0  0  0  0  0  0  0  0  0  0
   11.0081   12.9904   -5.9325 C   0  0  0  0  0  0  0  0  0  0  0  0
   10.7906   14.3280   -6.5472 C   0  0  0  0  0  0  0  0  0  0  0  0
   11.1826   12.8804   -4.6144 N   0  0  0  0  0  0  0  0  0  0  0  0
   11.3853   11.6984   -3.9861 C   0  0  0  0  0  0  0  0  0  0  0  0
   11.2584    9.7302   -6.6992 H   0  0  0  0  0  0  0  0  0  0  0  0
   10.8928   11.9481   -7.7582 H   0  0  0  0  0  0  0  0  0  0  0  0
   10.3907   14.1763   -7.5660 H   0  0  0  0  0  0  0  0  0  0  0  0
   10.0410   14.8770   -5.9730 H   0  0  0  0  0  0  0  0  0  0  0  0
   11.7898   14.8497   -6.5772 H   0  0  0  0  0  0  0  0  0  0  0  0
   11.5249   11.6376   -2.9095 H   0  0  0  0  0  0  0  0  0  0  0  0
  1  2  2  0
  2  3  1  0
  4  3  2  0
  5  4  1  0
  6  1  1  0
  6  5  2  0
  1  7  1  0
  2  8  1  0
  3  9  1  0
 10 11  2  0
 11 12  1  0
 12 13  2  0
 13 14  1  0
 13 15  1  0
 15 16  2  0
 16 10  1  0
 11 17  1  0
 12 18  1  0
 14 19  1  0
 14 20  1  0
 14 21  1  0
 16 22  1  0
  5 10  1  0
M  END
>  <Score>  (1) 
-7.15994

$$$$

     RDKit          3D

 25 26  0  0  0  0  0  0  0  0999 V2000
   11.5566    6.9249   -4.1723 C   0  0  0  0  0  0  0  0  0  0  0  0
   12.0448    6.8274   -2.8518 C   0  0  0  0  0  0  0  0  0  0  0  0
   12.3204    8.0181   -2.1664 C   0  0  0  0  0  0  0  0  0  0  0  0
   12.1010    9.2016   -2.8144 N   0  0  0  0  0  0  0  0  0  0  0  0
   11.6322    9.2561   -4.0802 C   0  0  0  0  0  0  0  0  0  0  0  0
   11.3620    8.1220   -4.7539 N   0  0  0  0  0  0  0  0  0  0  0  0
   11.3552    5.9847   -4.6699 H   0  0  0  0  0  0  0  0  0  0  0  0
   12.2061    5.8884   -2.3721 H   0  0  0  0  0  0  0  0  0  0  0  0
   12.6977    7.9993   -1.1485 H   0  0  0  0  0  0  0  0  0  0  0  0
   10.1941   13.0959   -4.0420 H   0  0  0  0  0  0  0  0  0  0  0  0
   10.8920   13.3308   -4.8155 C   0  0  0  0  0  0  0  0  0  0  0  0
   10.6414   14.2847   -5.5307 O   0  0  0  0  0  0  0  0  0  0  0  0
   12.1433   12.5870   -5.0882 C   0  0  1  0  0  0  0  0  0  0  0  0
   12.3187   11.5225   -4.2081 O   0  0  0  0  0  0  0  0  0  0  0  0
   11.4222   10.5809   -4.7098 C   0  0  1  0  0  0  0  0  0  0  0  0
   11.7577   10.5410   -6.1694 C   0  0  1  0  0  0  0  0  0  0  0  0
   10.6828   10.0919   -6.9390 O   0  0  0  0  0  0  0  0  0  0  0  0
   12.0859   11.9796   -6.4726 C   0  0  2  0  0  0  0  0  0  0  0  0
   13.2788   12.1368   -7.1567 O   0  0  0  0  0  0  0  0  0  0  0  0
   12.9986   13.2912   -5.0593 H   0  0  0  0  0  0  0  0  0  0  0  0
   10.4071   10.9502   -4.4978 H   0  0  0  0  0  0  0  0  0  0  0  0
   12.5952    9.8620   -6.3591 H   0  0  0  0  0  0  0  0  0  0  0  0
   11.0158    9.6505   -7.7525 H   0  0  0  0  0  0  0  0  0  0  0  0
   11.2183   12.4108   -7.0320 H   0  0  0  0  0  0  0  0  0  0  0  0
   13.2726   11.5288   -7.9307 H   0  0  0  0  0  0  0  0  0  0  0  0
  1  2  2  0
  2  3  1  0
  4  3  2  0
  5  4  1  0
  6  1  1  0
  6  5  2  0
  1  7  1  0
  2  8  1  0
  3  9  1  0
 10 11  1  0
 11 12  2  0
 11 13  1  0
 13 14  1  0
 14 15  1  0
 15 16  1  0
 16 17  1  0
 16 18  1  0
 18 19  1  0
 18 13  1  0
 13 20  1  6
 15 21  1  6
 16 22  1  1
 17 23  1  0
 18 24  1  6
 19 25  1  0
  5 15  1  0
M  END
>  <Score>  (1) 
-7.15775

$$$$

     RDKit          3D

 29 30  0  0  0  0  0  0  0  0999 V2000
   11.5571    6.9248   -4.1709 C   0  0  0  0  0  0  0  0  0  0  0  0
   12.0444    6.8278   -2.8531 C   0  0  0  0  0  0  0  0  0  0  0  0
   12.3205    8.0172   -2.1661 C   0  0  0  0  0  0  0  0  0  0  0  0
   12.1008    9.2021   -2.8150 N   0  0  0  0  0  0  0  0  0  0  0  0
   11.6325    9.2567   -4.0796 C   0  0  0  0  0  0  0  0  0  0  0  0
   11.3619    8.1214   -4.7544 N   0  0  0  0  0  0  0  0  0  0  0  0
   11.3396    6.0153   -4.7135 H   0  0  0  0  0  0  0  0  0  0  0  0
   12.1946    5.8562   -2.4017 H   0  0  0  0  0  0  0  0  0  0  0  0
   12.6942    7.9851   -1.1574 H   0  0  0  0  0  0  0  0  0  0  0  0
   11.4288   10.5250   -4.6892 N   0  0  0  0  0  0  0  0  0  0  0  0
   12.5522   11.4284   -4.8492 C   0  0  0  0  0  0  0  0  0  0  0  0
   12.4673   12.0899   -6.1901 C   0  0  2  0  0  0  0  0  0  0  0  0
   12.2722   13.5819   -5.9468 C   0  0  0  0  0  0  0  0  0  0  0  0
   11.5183   11.5579   -7.0281 O   0  0  0  0  0  0  0  0  0  0  0  0
   10.2453   11.5811   -6.5116 C   0  0  1  0  0  0  0  0  0  0  0  0
    9.3365   10.8341   -7.4834 C   0  0  0  0  0  0  0  0  0  0  0  0
   10.1364   10.9297   -5.1489 C   0  0  0  0  0  0  0  0  0  0  0  0
   12.5325   12.1394   -4.0005 H   0  0  0  0  0  0  0  0  0  0  0  0
   13.5261   10.8780   -4.7805 H   0  0  0  0  0  0  0  0  0  0  0  0
   13.4545   12.0135   -6.7316 H   0  0  0  0  0  0  0  0  0  0  0  0
   11.2524   13.8139   -5.5810 H   0  0  0  0  0  0  0  0  0  0  0  0
   12.9718   13.8360   -5.0988 H   0  0  0  0  0  0  0  0  0  0  0  0
   12.5951   14.1886   -6.7949 H   0  0  0  0  0  0  0  0  0  0  0  0
    9.8669   12.6280   -6.4950 H   0  0  0  0  0  0  0  0  0  0  0  0
    9.2101    9.7944   -7.0754 H   0  0  0  0  0  0  0  0  0  0  0  0
    8.3310   11.3092   -7.4931 H   0  0  0  0  0  0  0  0  0  0  0  0
    9.7811   10.7614   -8.4821 H   0  0  0  0  0  0  0  0  0  0  0  0
    9.4826   10.0139   -5.2110 H   0  0  0  0  0  0  0  0  0  0  0  0
    9.6413   11.5877   -4.4074 H   0  0  0  0  0  0  0  0  0  0  0  0
  1  2  2  0
  2  3  1  0
  4  3  2  0
  5  4  1  0
  6  1  1  0
  6  5  2  0
  1  7  1  0
  2  8  1  0
  3  9  1  0
 10 11  1  0
 11 12  1  0
 12 13  1  0
 12 14  1  0
 14 15  1  0
 15 16  1  0
 15 17  1  0
 17 10  1  0
 11 18  1  0
 11 19  1  0
 12 20  1  6
 13 21  1  0
 13 22  1  0
 13 23  1  0
 15 24  1  1
 16 25  1  0
 16 26  1  0
 16 27  1  0
 17 28  1  0
 17 29  1  0
  5 10  1  0
M  END
>  <Score>  (1) 
-7.14895

$$$$

     RDKit          3D

 31 32  0  0  0  0  0  0  0  0999 V2000
   11.5566    6.9262   -4.1724 C   0  0  0  0  0  0  0  0  0  0  0  0
   12.0445    6.8266   -2.8525 C   0  0  0  0  0  0  0  0  0  0  0  0
   12.3205    8.0189   -2.1661 C   0  0  0  0  0  0  0  0  0  0  0  0
   12.1009    9.2015   -2.8145 N   0  0  0  0  0  0  0  0  0  0  0  0
   11.6325    9.2568   -4.0796 C   0  0  0  0  0  0  0  0  0  0  0  0
   11.3620    8.1201   -4.7539 N   0  0  0  0  0  0  0  0  0  0  0  0
   11.3620    5.9759   -4.6511 H   0  0  0  0  0  0  0  0  0  0  0  0
   12.2018    5.8855   -2.3836 H   0  0  0  0  0  0  0  0  0  0  0  0
   12.6884    7.9637   -1.1719 H   0  0  0  0  0  0  0  0  0  0  0  0
   11.4035   10.5333   -4.7577 C   0  0  2  0  0  0  0  0  0  0  0  0
   12.3855   10.8274   -5.7197 O   0  0  0  0  0  0  0  0  0  0  0  0
   11.7980   11.7477   -6.5852 C   0  0  2  0  0  0  0  0  0  0  0  0
   12.5545   11.8874   -7.8737 C   0  0  0  0  0  0  0  0  0  0  0  0
   12.5804   10.6455   -8.4950 O   0  0  0  0  0  0  0  0  0  0  0  0
   11.5381   13.0795   -5.9323 C   0  0  2  0  0  0  0  0  0  0  0  0
   12.6992   13.7816   -5.6903 O   0  0  0  0  0  0  0  0  0  0  0  0
   10.7441   12.8573   -4.6640 C   0  0  1  0  0  0  0  0  0  0  0  0
    9.4400   12.4793   -4.9901 O   0  0  0  0  0  0  0  0  0  0  0  0
   11.3217   11.7106   -3.8373 C   0  0  1  0  0  0  0  0  0  0  0  0
   10.4068   11.4638   -2.8195 O   0  0  0  0  0  0  0  0  0  0  0  0
   10.4236   10.4825   -5.3104 H   0  0  0  0  0  0  0  0  0  0  0  0
   10.7940   11.3125   -6.8501 H   0  0  0  0  0  0  0  0  0  0  0  0
   11.9873   12.5943   -8.5142 H   0  0  0  0  0  0  0  0  0  0  0  0
   13.5665   12.2993   -7.7430 H   0  0  0  0  0  0  0  0  0  0  0  0
   12.1444   10.6340   -9.3698 H   0  0  0  0  0  0  0  0  0  0  0  0
   10.8577   13.6421   -6.6254 H   0  0  0  0  0  0  0  0  0  0  0  0
   12.6102   14.7531   -5.9092 H   0  0  0  0  0  0  0  0  0  0  0  0
   10.6630   13.7822   -4.0580 H   0  0  0  0  0  0  0  0  0  0  0  0
    9.2902   12.3500   -5.9415 H   0  0  0  0  0  0  0  0  0  0  0  0
   12.2978   12.0207   -3.4201 H   0  0  0  0  0  0  0  0  0  0  0  0
   10.1644   12.3441   -2.4066 H   0  0  0  0  0  0  0  0  0  0  0  0
  1  2  2  0
  2  3  1  0
  4  3  2  0
  5  4  1  0
  6  1  1  0
  6  5  2  0
  1  7  1  0
  2  8  1  0
  3  9  1  0
 10 11  1  0
 11 12  1  0
 12 13  1  0
 13 14  1  0
 12 15  1  0
 15 16  1  0
 15 17  1  0
 17 18  1  0
 17 19  1  0
 19 20  1  0
 19 10  1  0
 10 21  1  6
 12 22  1  6
 13 23  1  0
 13 24  1  0
 14 25  1  0
 15 26  1  6
 16 27  1  0
 17 28  1  1
 18 29  1  0
 19 30  1  1
 20 31  1  0
  5 10  1  0
M  END
>  <Score>  (1) 
-7.14664

$$$$

     RDKit          3D

 22 23  0  0  0  0  0  0  0  0999 V2000
   11.5566    6.9244   -4.1722 C   0  0  0  0  0  0  0  0  0  0  0  0
   12.0449    6.8273   -2.8517 C   0  0  0  0  0  0  0  0  0  0  0  0
   12.3205    8.0177   -2.1661 C   0  0  0  0  0  0  0  0  0  0  0  0
   12.1004    9.2019   -2.8158 N   0  0  0  0  0  0  0  0  0  0  0  0
   11.6325    9.2557   -4.0794 C   0  0  0  0  0  0  0  0  0  0  0  0
   11.3621    8.1229   -4.7537 N   0  0  0  0  0  0  0  0  0  0  0  0
   11.3362    6.0091   -4.7222 H   0  0  0  0  0  0  0  0  0  0  0  0
   12.1989    5.8734   -2.3909 H   0  0  0  0  0  0  0  0  0  0  0  0
   12.6959    7.9859   -1.1528 H   0  0  0  0  0  0  0  0  0  0  0  0
   11.4146   10.5438   -4.7283 C   0  0  0  0  0  0  0  0  0  0  0  0
   10.1515   11.0541   -4.9042 C   0  0  0  0  0  0  0  0  0  0  0  0
   10.0205   12.2768   -5.5254 C   0  0  0  0  0  0  0  0  0  0  0  0
    8.8637   12.7819   -5.7059 O   0  0  0  0  0  0  0  0  0  0  0  0
   11.0809   12.9897   -5.9659 N   0  0  0  0  0  0  0  0  0  0  0  0
   10.9006   14.2890   -6.6231 C   0  0  0  0  0  0  0  0  0  0  0  0
   12.2928   12.4501   -5.7713 C   0  0  0  0  0  0  0  0  0  0  0  0
   13.1596   12.9888   -6.1087 H   0  0  0  0  0  0  0  0  0  0  0  0
   12.4522   11.2685   -5.1733 N   0  0  0  0  0  0  0  0  0  0  0  0
    9.2669   10.5007   -4.5579 H   0  0  0  0  0  0  0  0  0  0  0  0
   10.1056   14.8805   -6.1699 H   0  0  0  0  0  0  0  0  0  0  0  0
   11.8982   14.7781   -6.6227 H   0  0  0  0  0  0  0  0  0  0  0  0
   10.6510   14.1366   -7.7056 H   0  0  0  0  0  0  0  0  0  0  0  0
  1  2  2  0
  2  3  1  0
  4  3  2  0
  5  4  1  0
  6  1  1  0
  6  5  2  0
  1  7  1  0
  2  8  1  0
  3  9  1  0
 10 11  2  0
 11 12  1  0
 12 13  2  0
 12 14  1  0
 14 15  1  0
 14 16  1  0
 16 17  1  0
 16 18  2  0
 18 10  1  0
 11 19  1  0
 15 20  1  0
 15 21  1  0
 15 22  1  0
  5 10  1  0
M  END
>  <Score>  (1) 
-7.11273

$$$$

     RDKit          3D

 26 28  0  0  0  0  0  0  0  0999 V2000
   12.3023    8.1179   -2.3015 C   0  0  0  0  0  0  0  0  0  0  0  0
   12.0225    6.8865   -2.9105 C   0  0  0  0  0  0  0  0  0  0  0  0
   11.5237    6.8981   -4.2267 C   0  0  0  0  0  0  0  0  0  0  0  0
   11.3420    8.1065   -4.8322 N   0  0  0  0  0  0  0  0  0  0  0  0
   11.6253    9.2780   -4.2080 C   0  0  0  0  0  0  0  0  0  0  0  0
   12.0992    9.2841   -2.9591 N   0  0  0  0  0  0  0  0  0  0  0  0
   12.6809    8.0997   -1.3015 H   0  0  0  0  0  0  0  0  0  0  0  0
   12.1762    5.9462   -2.4068 H   0  0  0  0  0  0  0  0  0  0  0  0
   11.3063    5.9659   -4.7025 H   0  0  0  0  0  0  0  0  0  0  0  0
   11.3940   10.4616   -4.9417 N   0  0  0  0  0  0  0  0  0  0  0  0
   11.5863   11.8423   -4.5793 C   0  0  0  0  0  0  0  0  0  0  0  0
   12.0681   12.4320   -5.8885 C   0  0  0  0  0  0  0  0  0  0  0  0
   11.2779   11.6508   -6.8766 C   0  0  0  0  0  0  0  0  0  0  0  0
   10.9005   11.8851   -8.1824 C   0  0  0  0  0  0  0  0  0  0  0  0
   10.1482   10.9888   -8.9142 C   0  0  0  0  0  0  0  0  0  0  0  0
    9.7486    9.8042   -8.3304 C   0  0  0  0  0  0  0  0  0  0  0  0
   10.1280    9.5742   -7.0254 C   0  0  0  0  0  0  0  0  0  0  0  0
   10.8866   10.4730   -6.2808 C   0  0  0  0  0  0  0  0  0  0  0  0
   10.5727   12.2851   -4.3589 H   0  0  0  0  0  0  0  0  0  0  0  0
   12.2863   11.9954   -3.7568 H   0  0  0  0  0  0  0  0  0  0  0  0
   11.8427   13.5161   -5.9425 H   0  0  0  0  0  0  0  0  0  0  0  0
   13.1556   12.2306   -6.0037 H   0  0  0  0  0  0  0  0  0  0  0  0
   11.2114   12.8246   -8.6610 H   0  0  0  0  0  0  0  0  0  0  0  0
    9.8622   11.2044   -9.9555 H   0  0  0  0  0  0  0  0  0  0  0  0
    9.1586    9.0532   -8.8382 H   0  0  0  0  0  0  0  0  0  0  0  0
    9.8284    8.6391   -6.5238 H   0  0  0  0  0  0  0  0  0  0  0  0
  2  1  2  0
  3  2  1  0
  4  3  2  0
  4  5  1  0
  5  6  2  0
  6  1  1  0
  1  7  1  0
  2  8  1  0
  3  9  1  0
 10 11  1  0
 11 12  1  0
 12 13  1  0
 13 14  2  0
 14 15  1  0
 15 16  2  0
 16 17  1  0
 17 18  2  0
 18 10  1  0
 18 13  1  0
 11 19  1  0
 11 20  1  0
 12 21  1  0
 12 22  1  0
 14 23  1  0
 15 24  1  0
 16 25  1  0
 17 26  1  0
  5 10  1  0
M  END
>  <Score>  (1) 
-7.7873

$$$$

     RDKit          3D

 26 28  0  0  0  0  0  0  0  0999 V2000
   12.3027    8.1265   -2.3015 C   0  0  0  0  0  0  0  0  0  0  0  0
   12.0205    6.8817   -2.9152 C   0  0  0  0  0  0  0  0  0  0  0  0
   11.5250    6.8965   -4.2232 C   0  0  0  0  0  0  0  0  0  0  0  0
   11.3426    8.1113   -4.8311 N   0  0  0  0  0  0  0  0  0  0  0  0
   11.6226    9.2755   -4.2146 C   0  0  0  0  0  0  0  0  0  0  0  0
   12.1015    9.2796   -2.9524 N   0  0  0  0  0  0  0  0  0  0  0  0
   12.6813    8.0557   -1.2958 H   0  0  0  0  0  0  0  0  0  0  0  0
   12.1834    5.9552   -2.3889 H   0  0  0  0  0  0  0  0  0  0  0  0
   11.2902    5.9759   -4.7459 H   0  0  0  0  0  0  0  0  0  0  0  0
   13.4556   14.8007   -9.4242 H   0  0  0  0  0  0  0  0  0  0  0  0
   12.5815   14.9403   -8.8119 C   0  0  0  0  0  0  0  0  0  0  0  0
   11.9125   15.9910   -8.9801 O   0  0  0  0  0  0  0  0  0  0  0  0
   12.1757   13.9601   -7.8224 C   0  0  0  0  0  0  0  0  0  0  0  0
   12.8134   12.7714   -7.5359 C   0  0  0  0  0  0  0  0  0  0  0  0
   12.1000   12.1553   -6.5435 C   0  0  0  0  0  0  0  0  0  0  0  0
   12.2805   10.9616   -5.8839 C   0  0  0  0  0  0  0  0  0  0  0  0
   11.4125   10.5455   -4.9017 C   0  0  0  0  0  0  0  0  0  0  0  0
   10.3400   11.3471   -4.5755 C   0  0  0  0  0  0  0  0  0  0  0  0
   10.1660   12.5421   -5.2413 C   0  0  0  0  0  0  0  0  0  0  0  0
   11.0293   12.9699   -6.2277 C   0  0  0  0  0  0  0  0  0  0  0  0
   11.1060   14.0471   -7.0165 N   0  0  0  0  0  0  0  0  0  0  0  0
   13.7119   12.4588   -8.0513 H   0  0  0  0  0  0  0  0  0  0  0  0
   13.1473   10.3662   -6.1829 H   0  0  0  0  0  0  0  0  0  0  0  0
    9.6663   11.0090   -3.8028 H   0  0  0  0  0  0  0  0  0  0  0  0
    9.3189   13.1602   -4.9735 H   0  0  0  0  0  0  0  0  0  0  0  0
   10.3930   14.8263   -6.9659 H   0  0  0  0  0  0  0  0  0  0  0  0
  2  1  2  0
  3  2  1  0
  4  3  2  0
  4  5  1  0
  5  6  2  0
  6  1  1  0
  1  7  1  0
  2  8  1  0
  3  9  1  0
 10 11  1  0
 11 12  2  0
 11 13  1  0
 13 14  2  0
 14 15  1  0
 15 16  2  0
 16 17  1  0
 17 18  2  0
 18 19  1  0
 19 20  2  0
 20 21  1  0
 21 13  1  0
 20 15  1  0
 14 22  1  0
 16 23  1  0
 18 24  1  0
 19 25  1  0
 21 26  1  0
  5 17  1  0
M  END
>  <Score>  (1) 
-8.59449

$$$$

     RDKit          3D

 24 25  0  0  0  0  0  0  0  0999 V2000
   11.5576    6.9233   -4.1694 C   0  0  0  0  0  0  0  0  0  0  0  0
   12.0438    6.8249   -2.8544 C   0  0  0  0  0  0  0  0  0  0  0  0
   12.3203    8.0233   -2.1670 C   0  0  0  0  0  0  0  0  0  0  0  0
   12.1006    9.1975   -2.8152 N   0  0  0  0  0  0  0  0  0  0  0  0
   11.6329    9.2577   -4.0786 C   0  0  0  0  0  0  0  0  0  0  0  0
   11.3619    8.1234   -4.7544 N   0  0  0  0  0  0  0  0  0  0  0  0
   11.3449    5.9957   -4.6979 H   0  0  0  0  0  0  0  0  0  0  0  0
   12.2010    5.8728   -2.3847 H   0  0  0  0  0  0  0  0  0  0  0  0
   12.6906    7.9539   -1.1654 H   0  0  0  0  0  0  0  0  0  0  0  0
   11.4267   10.4889   -4.6933 O   0  0  0  0  0  0  0  0  0  0  0  0
   10.4755   11.3932   -4.2539 C   0  0  0  0  0  0  0  0  0  0  0  0
    9.6576   11.1536   -3.1769 C   0  0  0  0  0  0  0  0  0  0  0  0
    8.7130   12.0893   -2.7664 C   0  0  0  0  0  0  0  0  0  0  0  0
    8.6041   13.2886   -3.4690 C   0  0  0  0  0  0  0  0  0  0  0  0
    9.4208   13.5289   -4.5451 C   0  0  0  0  0  0  0  0  0  0  0  0
   10.3478   12.5852   -4.9305 C   0  0  0  0  0  0  0  0  0  0  0  0
   11.2054   12.9184   -6.1164 C   0  0  0  0  0  0  0  0  0  0  0  0
    9.7448   10.2124   -2.6268 H   0  0  0  0  0  0  0  0  0  0  0  0
    8.0584   11.9222   -1.9216 H   0  0  0  0  0  0  0  0  0  0  0  0
    7.8639   14.0367   -3.1574 H   0  0  0  0  0  0  0  0  0  0  0  0
    9.3414   14.4571   -5.0941 H   0  0  0  0  0  0  0  0  0  0  0  0
   11.6675   13.9213   -5.9241 H   0  0  0  0  0  0  0  0  0  0  0  0
   11.9454   12.1286   -6.2869 H   0  0  0  0  0  0  0  0  0  0  0  0
   10.5083   13.0356   -6.9867 H   0  0  0  0  0  0  0  0  0  0  0  0
  1  2  2  0
  2  3  1  0
  4  3  2  0
  5  4  1  0
  6  1  1  0
  6  5  2  0
  1  7  1  0
  2  8  1  0
  3  9  1  0
 10 11  1  0
 11 12  2  0
 12 13  1  0
 13 14  2  0
 14 15  1  0
 15 16  2  0
 16 17  1  0
 16 11  1  0
 12 18  1  0
 13 19  1  0
 14 20  1  0
 15 21  1  0
 17 22  1  0
 17 23  1  0
 17 24  1  0
  5 10  1  0
M  END
>  <Score>  (1) 
-7.10636

$$$$

     RDKit          3D

 21 22  0  0  0  0  0  0  0  0999 V2000
   11.5565    6.9248   -4.1726 C   0  0  0  0  0  0  0  0  0  0  0  0
   12.0450    6.8273   -2.8514 C   0  0  0  0  0  0  0  0  0  0  0  0
   12.3203    8.0179   -2.1664 C   0  0  0  0  0  0  0  0  0  0  0  0
   12.1006    9.2015   -2.8153 N   0  0  0  0  0  0  0  0  0  0  0  0
   11.6323    9.2560   -4.0799 C   0  0  0  0  0  0  0  0  0  0  0  0
   11.3623    8.1225   -4.7533 N   0  0  0  0  0  0  0  0  0  0  0  0
   11.3565    5.9787   -4.6661 H   0  0  0  0  0  0  0  0  0  0  0  0
   12.2015    5.8711   -2.3837 H   0  0  0  0  0  0  0  0  0  0  0  0
   12.6950    8.0055   -1.1561 H   0  0  0  0  0  0  0  0  0  0  0  0
   11.4395   10.5015   -4.6592 O   0  0  0  0  0  0  0  0  0  0  0  0
   11.2621   10.6465   -6.0156 C   0  0  0  0  0  0  0  0  0  0  0  0
   12.3068   10.8389   -6.8949 C   0  0  0  0  0  0  0  0  0  0  0  0
   12.0341   10.9741   -8.2378 C   0  0  0  0  0  0  0  0  0  0  0  0
   10.7545   10.9266   -8.7544 C   0  0  0  0  0  0  0  0  0  0  0  0
    9.7292   10.7343   -7.8611 C   0  0  0  0  0  0  0  0  0  0  0  0
    8.0826   10.6664   -8.4687 Cl  0  0  0  0  0  0  0  0  0  0  0  0
    9.9810   10.5973   -6.5185 C   0  0  0  0  0  0  0  0  0  0  0  0
   13.3382   10.8809   -6.5104 H   0  0  0  0  0  0  0  0  0  0  0  0
   12.8614   11.1234   -8.9084 H   0  0  0  0  0  0  0  0  0  0  0  0
   10.5774   11.0386   -9.8308 H   0  0  0  0  0  0  0  0  0  0  0  0
    9.1112   10.4472   -5.8717 H   0  0  0  0  0  0  0  0  0  0  0  0
  1  2  2  0
  2  3  1  0
  4  3  2  0
  5  4  1  0
  6  1  1  0
  6  5  2  0
  1  7  1  0
  2  8  1  0
  3  9  1  0
 10 11  1  0
 11 12  2  0
 12 13  1  0
 13 14  2  0
 14 15  1  0
 15 16  1  0
 15 17  2  0
 17 11  1  0
 12 18  1  0
 13 19  1  0
 14 20  1  0
 17 21  1  0
  5 10  1  0
M  END
>  <Score>  (1) 
-7.09606

$$$$

     RDKit          3D

 27 28  0  0  0  0  0  0  0  0999 V2000
   11.5567    6.9246   -4.1719 C   0  0  0  0  0  0  0  0  0  0  0  0
   12.0447    6.8270   -2.8522 C   0  0  0  0  0  0  0  0  0  0  0  0
   12.3203    8.0190   -2.1665 C   0  0  0  0  0  0  0  0  0  0  0  0
   12.1013    9.2010   -2.8135 N   0  0  0  0  0  0  0  0  0  0  0  0
   11.6319    9.2558   -4.0811 C   0  0  0  0  0  0  0  0  0  0  0  0
   11.3621    8.1227   -4.7538 N   0  0  0  0  0  0  0  0  0  0  0  0
   11.3485    5.9910   -4.6883 H   0  0  0  0  0  0  0  0  0  0  0  0
   12.1957    5.8597   -2.3987 H   0  0  0  0  0  0  0  0  0  0  0  0
   12.6949    7.9782   -1.1553 H   0  0  0  0  0  0  0  0  0  0  0  0
   11.4075   10.5454   -4.7477 C   0  0  2  0  0  0  0  0  0  0  0  0
   11.2471   10.4576   -6.1045 O   0  0  0  0  0  0  0  0  0  0  0  0
   11.8579   11.5233   -6.7095 C   0  0  1  0  0  0  0  0  0  0  0  0
   10.9940   12.2214   -7.7257 C   0  0  0  0  0  0  0  0  0  0  0  0
   11.7421   13.2835   -8.2604 O   0  0  0  0  0  0  0  0  0  0  0  0
   12.2910   12.4889   -5.6256 C   0  0  2  0  0  0  0  0  0  0  0  0
   13.3947   13.2323   -5.9770 O   0  0  0  0  0  0  0  0  0  0  0  0
   12.5971   11.4901   -4.5146 C   0  0  1  0  0  0  0  0  0  0  0  0
   12.5605   12.0640   -3.2687 O   0  0  0  0  0  0  0  0  0  0  0  0
   10.5301   11.0872   -4.3093 H   0  0  0  0  0  0  0  0  0  0  0  0
   12.7731   11.1415   -7.2249 H   0  0  0  0  0  0  0  0  0  0  0  0
   10.7181   11.5476   -8.5330 H   0  0  0  0  0  0  0  0  0  0  0  0
   10.0950   12.6412   -7.2156 H   0  0  0  0  0  0  0  0  0  0  0  0
   12.6909   12.9957   -8.4147 H   0  0  0  0  0  0  0  0  0  0  0  0
   11.4215   13.0806   -5.3285 H   0  0  0  0  0  0  0  0  0  0  0  0
   13.1695   14.1899   -5.8434 H   0  0  0  0  0  0  0  0  0  0  0  0
   13.5205   10.9149   -4.7275 H   0  0  0  0  0  0  0  0  0  0  0  0
   12.4429   11.3220   -2.6043 H   0  0  0  0  0  0  0  0  0  0  0  0
  1  2  2  0
  2  3  1  0
  4  3  2  0
  5  4  1  0
  6  1  1  0
  6  5  2  0
  1  7  1  0
  2  8  1  0
  3  9  1  0
 10 11  1  0
 11 12  1  0
 12 13  1  0
 13 14  1  0
 12 15  1  0
 15 16  1  0
 15 17  1  0
 17 18  1  0
 17 10  1  0
 10 19  1  1
 12 20  1  6
 13 21  1  0
 13 22  1  0
 14 23  1  0
 15 24  1  1
 16 25  1  0
 17 26  1  6
 18 27  1  0
  5 10  1  0
M  END
>  <Score>  (1) 
-7.08388

$$$$

     RDKit          3D

 22 23  0  0  0  0  0  0  0  0999 V2000
   11.5566    6.9258   -4.1723 C   0  0  0  0  0  0  0  0  0  0  0  0
   12.0446    6.8263   -2.8522 C   0  0  0  0  0  0  0  0  0  0  0  0
   12.3209    8.0168   -2.1649 C   0  0  0  0  0  0  0  0  0  0  0  0
   12.0989    9.2022   -2.8198 N   0  0  0  0  0  0  0  0  0  0  0  0
   11.6330    9.2565   -4.0783 C   0  0  0  0  0  0  0  0  0  0  0  0
   11.3630    8.1224   -4.7514 N   0  0  0  0  0  0  0  0  0  0  0  0
   11.3414    6.0157   -4.7086 H   0  0  0  0  0  0  0  0  0  0  0  0
   12.2005    5.8672   -2.3862 H   0  0  0  0  0  0  0  0  0  0  0  0
   12.6939    8.0086   -1.1592 H   0  0  0  0  0  0  0  0  0  0  0  0
   14.4288   13.0252   -6.0402 H   0  0  0  0  0  0  0  0  0  0  0  0
   13.4012   13.3465   -6.1140 C   0  0  0  0  0  0  0  0  0  0  0  0
   13.1802   14.4718   -6.6218 O   0  0  0  0  0  0  0  0  0  0  0  0
   12.3002   12.5214   -5.6483 C   0  0  0  0  0  0  0  0  0  0  0  0
   12.4755   11.3109   -5.0974 N   0  0  0  0  0  0  0  0  0  0  0  0
   11.4343   10.5732   -4.6768 C   0  0  0  0  0  0  0  0  0  0  0  0
   10.1241   11.0327   -4.7940 C   0  0  0  0  0  0  0  0  0  0  0  0
    9.9500   12.2455   -5.3460 N   0  0  0  0  0  0  0  0  0  0  0  0
   10.9998   12.9873   -5.7691 C   0  0  0  0  0  0  0  0  0  0  0  0
   10.8174   14.2699   -6.3531 N   0  0  0  0  0  0  0  0  0  0  0  0
    9.3122   10.4105   -4.4441 H   0  0  0  0  0  0  0  0  0  0  0  0
   10.9625   14.4662   -7.3651 H   0  0  0  0  0  0  0  0  0  0  0  0
   10.5230   15.0553   -5.7362 H   0  0  0  0  0  0  0  0  0  0  0  0
  1  2  2  0
  2  3  1  0
  4  3  2  0
  5  4  1  0
  6  1  1  0
  6  5  2  0
  1  7  1  0
  2  8  1  0
  3  9  1  0
 10 11  1  0
 11 12  2  0
 11 13  1  0
 13 14  2  0
 14 15  1  0
 15 16  2  0
 16 17  1  0
 17 18  2  0
 18 19  1  0
 18 13  1  0
 16 20  1  0
 19 21  1  0
 19 22  1  0
  5 15  1  0
M  END
>  <Score>  (1) 
-7.05993

$$$$

     RDKit          3D

 31 33  0  0  0  0  0  0  0  0999 V2000
   11.5561    6.9260   -4.1737 C   0  0  0  0  0  0  0  0  0  0  0  0
   12.0452    6.8274   -2.8509 C   0  0  0  0  0  0  0  0  0  0  0  0
   12.3204    8.0175   -2.1661 C   0  0  0  0  0  0  0  0  0  0  0  0
   12.1004    9.2020   -2.8160 N   0  0  0  0  0  0  0  0  0  0  0  0
   11.6330    9.2573   -4.0782 C   0  0  0  0  0  0  0  0  0  0  0  0
   11.3619    8.1197   -4.7541 N   0  0  0  0  0  0  0  0  0  0  0  0
   11.3400    6.0055   -4.7118 H   0  0  0  0  0  0  0  0  0  0  0  0
   12.2009    5.8688   -2.3852 H   0  0  0  0  0  0  0  0  0  0  0  0
   12.6929    7.9935   -1.1612 H   0  0  0  0  0  0  0  0  0  0  0  0
   11.4271   10.5137   -4.6935 N   0  0  0  0  0  0  0  0  0  0  0  0
   11.2422   10.6032   -6.1252 C   0  0  2  0  0  0  0  0  0  0  0  0
   12.3969   10.0847   -6.9144 C   0  0  0  0  0  0  0  0  0  0  0  0
   12.9064   11.1649   -7.7652 N   0  0  0  0  0  0  0  0  0  0  0  0
   13.2728   12.2444   -6.8754 C   0  0  0  0  0  0  0  0  0  0  0  0
   12.0427   12.9520   -6.4106 C   0  0  0  0  0  0  0  0  0  0  0  0
   10.8588   11.9991   -6.5596 C   0  0  0  0  0  0  0  0  0  0  0  0
   10.5839   11.9039   -8.0645 C   0  0  0  0  0  0  0  0  0  0  0  0
   11.8971   11.5832   -8.7227 C   0  0  0  0  0  0  0  0  0  0  0  0
   11.4048   11.3803   -4.1423 H   0  0  0  0  0  0  0  0  0  0  0  0
   10.3591    9.9536   -6.3636 H   0  0  0  0  0  0  0  0  0  0  0  0
   12.1837    9.1750   -7.4823 H   0  0  0  0  0  0  0  0  0  0  0  0
   13.2222    9.8543   -6.1959 H   0  0  0  0  0  0  0  0  0  0  0  0
   13.7602   11.7635   -5.9808 H   0  0  0  0  0  0  0  0  0  0  0  0
   14.0399   12.9089   -7.3183 H   0  0  0  0  0  0  0  0  0  0  0  0
   11.8225   13.8660   -7.0007 H   0  0  0  0  0  0  0  0  0  0  0  0
   12.1701   13.2626   -5.3714 H   0  0  0  0  0  0  0  0  0  0  0  0
    9.9649   12.3536   -6.0438 H   0  0  0  0  0  0  0  0  0  0  0  0
   10.0987   12.8039   -8.4508 H   0  0  0  0  0  0  0  0  0  0  0  0
    9.8485   11.0568   -8.1660 H   0  0  0  0  0  0  0  0  0  0  0  0
   12.2495   12.4843   -9.2314 H   0  0  0  0  0  0  0  0  0  0  0  0
   11.8058   10.7862   -9.4906 H   0  0  0  0  0  0  0  0  0  0  0  0
  1  2  2  0
  2  3  1  0
  4  3  2  0
  5  4  1  0
  6  1  1  0
  6  5  2  0
  1  7  1  0
  2  8  1  0
  3  9  1  0
 10 11  1  0
 11 12  1  0
 12 13  1  0
 13 14  1  0
 14 15  1  0
 15 16  1  0
 16 17  1  0
 17 18  1  0
 16 11  1  0
 18 13  1  0
 10 19  1  0
 11 20  1  6
 12 21  1  0
 12 22  1  0
 14 23  1  0
 14 24  1  0
 15 25  1  0
 15 26  1  0
 16 27  1  0
 17 28  1  0
 17 29  1  0
 18 30  1  0
 18 31  1  0
  5 10  1  0
M  END
>  <Score>  (1) 
-7.05743

$$$$

     RDKit          3D

 27 28  0  0  0  0  0  0  0  0999 V2000
   11.5568    6.9241   -4.1716 C   0  0  0  0  0  0  0  0  0  0  0  0
   12.0445    6.8266   -2.8526 C   0  0  0  0  0  0  0  0  0  0  0  0
   12.3204    8.0196   -2.1663 C   0  0  0  0  0  0  0  0  0  0  0  0
   12.1012    9.2006   -2.8136 N   0  0  0  0  0  0  0  0  0  0  0  0
   11.6317    9.2553   -4.0815 C   0  0  0  0  0  0  0  0  0  0  0  0
   11.3623    8.1238   -4.7533 N   0  0  0  0  0  0  0  0  0  0  0  0
   11.3445    6.0081   -4.7000 H   0  0  0  0  0  0  0  0  0  0  0  0
   12.2040    5.8783   -2.3774 H   0  0  0  0  0  0  0  0  0  0  0  0
   12.6896    8.0095   -1.1709 H   0  0  0  0  0  0  0  0  0  0  0  0
   11.3938   10.5384   -4.7842 C   0  0  1  0  0  0  0  0  0  0  0  0
   12.3762   10.8088   -5.7406 O   0  0  0  0  0  0  0  0  0  0  0  0
   11.8230   11.7029   -6.6335 C   0  0  2  0  0  0  0  0  0  0  0  0
   12.0260   13.1374   -6.1526 C   0  0  0  0  0  0  0  0  0  0  0  0
   13.3849   13.3662   -6.0484 O   0  0  0  0  0  0  0  0  0  0  0  0
   10.3348   11.4537   -6.6670 C   0  0  1  0  0  0  0  0  0  0  0  0
    9.9555   11.1030   -7.9499 O   0  0  0  0  0  0  0  0  0  0  0  0
   10.1792   10.3147   -5.6916 C   0  0  2  0  0  0  0  0  0  0  0  0
    8.9941   10.3707   -4.9991 O   0  0  0  0  0  0  0  0  0  0  0  0
   11.2566   11.3929   -4.1198 H   0  0  0  0  0  0  0  0  0  0  0  0
   12.2843   11.5800   -7.6363 H   0  0  0  0  0  0  0  0  0  0  0  0
   11.4846   13.2402   -5.1969 H   0  0  0  0  0  0  0  0  0  0  0  0
   11.5609   13.8340   -6.8680 H   0  0  0  0  0  0  0  0  0  0  0  0
   13.5645   14.3391   -5.9002 H   0  0  0  0  0  0  0  0  0  0  0  0
    9.7510   12.3103   -6.2635 H   0  0  0  0  0  0  0  0  0  0  0  0
    9.4824   10.2380   -7.8967 H   0  0  0  0  0  0  0  0  0  0  0  0
   10.3545    9.3453   -6.2091 H   0  0  0  0  0  0  0  0  0  0  0  0
    8.3191    9.8520   -5.5350 H   0  0  0  0  0  0  0  0  0  0  0  0
  1  2  2  0
  2  3  1  0
  4  3  2  0
  5  4  1  0
  6  1  1  0
  6  5  2  0
  1  7  1  0
  2  8  1  0
  3  9  1  0
 10 11  1  0
 11 12  1  0
 12 13  1  0
 13 14  1  0
 12 15  1  0
 15 16  1  0
 15 17  1  0
 17 18  1  0
 17 10  1  0
 10 19  1  1
 12 20  1  6
 13 21  1  0
 13 22  1  0
 14 23  1  0
 15 24  1  1
 16 25  1  0
 17 26  1  6
 18 27  1  0
  5 10  1  0
M  END
>  <Score>  (1) 
-7.05697

$$$$

     RDKit          3D

 25 26  0  0  0  0  0  0  0  0999 V2000
   11.5567    6.9254   -4.1719 C   0  0  0  0  0  0  0  0  0  0  0  0
   12.0440    6.8251   -2.8538 C   0  0  0  0  0  0  0  0  0  0  0  0
   12.3204    8.0232   -2.1666 C   0  0  0  0  0  0  0  0  0  0  0  0
   12.1021    9.1977   -2.8112 N   0  0  0  0  0  0  0  0  0  0  0  0
   11.6313    9.2576   -4.0827 C   0  0  0  0  0  0  0  0  0  0  0  0
   11.3624    8.1210   -4.7528 N   0  0  0  0  0  0  0  0  0  0  0  0
   11.3491    5.9932   -4.6866 H   0  0  0  0  0  0  0  0  0  0  0  0
   12.2017    5.8828   -2.3838 H   0  0  0  0  0  0  0  0  0  0  0  0
   12.6961    7.9841   -1.1522 H   0  0  0  0  0  0  0  0  0  0  0  0
   11.4330   10.5305   -4.6782 N   0  0  0  0  0  0  0  0  0  0  0  0
   11.8806   10.7518   -6.0166 C   0  0  0  0  0  0  0  0  0  0  0  0
   11.5890   12.1608   -6.4905 C   0  0  0  0  0  0  0  0  0  0  0  0
   12.8990   12.7128   -7.0165 C   0  0  0  0  0  0  0  0  0  0  0  0
   13.6221   11.4436   -7.4175 C   0  0  0  0  0  0  0  0  0  0  0  0
   13.4010   10.6008   -6.1536 C   0  0  0  0  0  0  0  0  0  0  0  0
   13.7076    9.5653   -6.2863 H   0  0  0  0  0  0  0  0  0  0  0  0
   10.9711   11.2956   -4.1582 H   0  0  0  0  0  0  0  0  0  0  0  0
   11.4462   10.0018   -6.7299 H   0  0  0  0  0  0  0  0  0  0  0  0
   10.8870   12.1272   -7.3658 H   0  0  0  0  0  0  0  0  0  0  0  0
   11.1749   12.7900   -5.6751 H   0  0  0  0  0  0  0  0  0  0  0  0
   12.7467   13.3947   -7.8753 H   0  0  0  0  0  0  0  0  0  0  0  0
   13.4566   13.1741   -6.1850 H   0  0  0  0  0  0  0  0  0  0  0  0
   14.6786   11.5939   -7.6320 H   0  0  0  0  0  0  0  0  0  0  0  0
   13.0686   10.9162   -8.2219 H   0  0  0  0  0  0  0  0  0  0  0  0
   13.8823   11.1339   -5.3189 H   0  0  0  0  0  0  0  0  0  0  0  0
  1  2  2  0
  2  3  1  0
  4  3  2  0
  5  4  1  0
  6  1  1  0
  6  5  2  0
  1  7  1  0
  2  8  1  0
  3  9  1  0
 10 11  1  0
 11 12  1  0
 12 13  1  0
 13 14  1  0
 14 15  1  0
 15 16  1  0
 15 11  1  0
 10 17  1  0
 11 18  1  0
 12 19  1  0
 12 20  1  0
 13 21  1  0
 13 22  1  0
 14 23  1  0
 14 24  1  0
 15 25  1  0
  5 10  1  0
M  END
>  <Score>  (1) 
-7.05527

$$$$

     RDKit          3D

 25 27  0  0  0  0  0  0  0  0999 V2000
   11.5577    6.9239   -4.1693 C   0  0  0  0  0  0  0  0  0  0  0  0
   12.0435    6.8257   -2.8552 C   0  0  0  0  0  0  0  0  0  0  0  0
   12.3201    8.0232   -2.1672 C   0  0  0  0  0  0  0  0  0  0  0  0
   12.1024    9.1979   -2.8103 N   0  0  0  0  0  0  0  0  0  0  0  0
   11.6306    9.2534   -4.0846 C   0  0  0  0  0  0  0  0  0  0  0  0
   11.3627    8.1260   -4.7524 N   0  0  0  0  0  0  0  0  0  0  0  0
   11.3593    5.9804   -4.6588 H   0  0  0  0  0  0  0  0  0  0  0  0
   12.1941    5.8654   -2.4034 H   0  0  0  0  0  0  0  0  0  0  0  0
   12.6952    7.9758   -1.1542 H   0  0  0  0  0  0  0  0  0  0  0  0
   10.2527    9.0412   -6.4572 H   0  0  0  0  0  0  0  0  0  0  0  0
    9.7926   10.0042   -6.3969 C   0  0  0  0  0  0  0  0  0  0  0  0
    8.8512   10.2728   -7.0990 O   0  0  0  0  0  0  0  0  0  0  0  0
   10.3129   11.0090   -5.4495 C   0  0  2  0  0  0  0  0  0  0  0  0
   10.8435   12.1689   -6.2716 C   0  0  0  0  0  0  0  0  0  0  0  0
   12.1715   12.5460   -5.7158 C   0  0  2  0  0  0  0  0  0  0  0  0
   13.3521   11.6606   -5.7800 C   0  0  0  0  0  0  0  0  0  0  0  0
   12.3936   11.6311   -4.5996 C   0  0  2  0  0  0  0  0  0  0  0  0
   11.4306   10.5431   -4.6853 N   0  0  0  0  0  0  0  0  0  0  0  0
    9.4644   11.3351   -4.7971 H   0  0  0  0  0  0  0  0  0  0  0  0
   10.1423   13.0154   -6.1535 H   0  0  0  0  0  0  0  0  0  0  0  0
   10.8993   11.9198   -7.3517 H   0  0  0  0  0  0  0  0  0  0  0  0
   12.3481   13.6456   -5.5296 H   0  0  0  0  0  0  0  0  0  0  0  0
   13.4185   10.7841   -6.4342 H   0  0  0  0  0  0  0  0  0  0  0  0
   14.3231   12.1329   -5.5413 H   0  0  0  0  0  0  0  0  0  0  0  0
   12.7420   11.9574   -3.6086 H   0  0  0  0  0  0  0  0  0  0  0  0
  1  2  2  0
  2  3  1  0
  4  3  2  0
  5  4  1  0
  6  1  1  0
  6  5  2  0
  1  7  1  0
  2  8  1  0
  3  9  1  0
 10 11  1  0
 11 12  2  0
 11 13  1  0
 13 14  1  0
 14 15  1  0
 15 16  1  0
 16 17  1  0
 17 18  1  0
 18 13  1  0
 17 15  1  0
 13 19  1  1
 14 20  1  0
 14 21  1  0
 15 22  1  1
 16 23  1  0
 16 24  1  0
 17 25  1  1
  5 18  1  0
M  END
>  <Score>  (1) 
-7.05381

$$$$

     RDKit          3D

 22 23  0  0  0  0  0  0  0  0999 V2000
   11.5565    6.9240   -4.1723 C   0  0  0  0  0  0  0  0  0  0  0  0
   12.0453    6.8290   -2.8507 C   0  0  0  0  0  0  0  0  0  0  0  0
   12.3204    8.0147   -2.1661 C   0  0  0  0  0  0  0  0  0  0  0  0
   12.1000    9.2030   -2.8171 N   0  0  0  0  0  0  0  0  0  0  0  0
   11.6324    9.2553   -4.0798 C   0  0  0  0  0  0  0  0  0  0  0  0
   11.3625    8.1240   -4.7529 N   0  0  0  0  0  0  0  0  0  0  0  0
   11.3556    5.9901   -4.6690 H   0  0  0  0  0  0  0  0  0  0  0  0
   12.1990    5.8709   -2.3904 H   0  0  0  0  0  0  0  0  0  0  0  0
   12.6902    8.0127   -1.1693 H   0  0  0  0  0  0  0  0  0  0  0  0
   11.4288   10.5206   -4.6892 N   0  0  0  0  0  0  0  0  0  0  0  0
   10.9357   10.6122   -6.0226 C   0  0  0  0  0  0  0  0  0  0  0  0
   10.6495    9.5044   -6.7403 N   0  0  0  0  0  0  0  0  0  0  0  0
   10.1838    9.5318   -7.9965 C   0  0  0  0  0  0  0  0  0  0  0  0
    9.9804   10.7509   -8.6029 C   0  0  0  0  0  0  0  0  0  0  0  0
    9.3239   10.8923  -10.3789 Br  0  0  0  0  0  0  0  0  0  0  0  0
   10.2628   11.9017   -7.8976 C   0  0  0  0  0  0  0  0  0  0  0  0
   10.0611   13.1682   -8.5019 N   0  0  0  0  0  0  0  0  0  0  0  0
    9.5330   13.9098   -7.9732 H   0  0  0  0  0  0  0  0  0  0  0  0
   10.7304   11.7933   -6.6323 N   0  0  0  0  0  0  0  0  0  0  0  0
   11.6431   11.3875   -4.1536 H   0  0  0  0  0  0  0  0  0  0  0  0
    9.9556    8.6324   -8.5679 H   0  0  0  0  0  0  0  0  0  0  0  0
   10.4255   13.3654   -9.4475 H   0  0  0  0  0  0  0  0  0  0  0  0
  1  2  2  0
  2  3  1  0
  4  3  2  0
  5  4  1  0
  6  1  1  0
  6  5  2  0
  1  7  1  0
  2  8  1  0
  3  9  1  0
 10 11  1  0
 11 12  2  0
 12 13  1  0
 13 14  2  0
 14 15  1  0
 14 16  1  0
 16 17  1  0
 17 18  1  0
 16 19  2  0
 19 11  1  0
 10 20  1  0
 13 21  1  0
 17 22  1  0
  5 10  1  0
M  END
>  <Score>  (1) 
-7.04573

$$$$

     RDKit          3D

 30 31  0  0  0  0  0  0  0  0999 V2000
   11.5566    6.9242   -4.1722 C   0  0  0  0  0  0  0  0  0  0  0  0
   12.0452    6.8292   -2.8509 C   0  0  0  0  0  0  0  0  0  0  0  0
   12.3202    8.0153   -2.1668 C   0  0  0  0  0  0  0  0  0  0  0  0
   12.1008    9.2027   -2.8148 N   0  0  0  0  0  0  0  0  0  0  0  0
   11.6321    9.2559   -4.0805 C   0  0  0  0  0  0  0  0  0  0  0  0
   11.3621    8.1227   -4.7538 N   0  0  0  0  0  0  0  0  0  0  0  0
   11.3393    6.0144   -4.7142 H   0  0  0  0  0  0  0  0  0  0  0  0
   12.1963    5.8709   -2.3978 H   0  0  0  0  0  0  0  0  0  0  0  0
   12.6961    7.9982   -1.1528 H   0  0  0  0  0  0  0  0  0  0  0  0
   11.4180   10.5157   -4.7180 N   0  0  0  0  0  0  0  0  0  0  0  0
   11.5609   10.6148   -6.1633 C   0  0  1  0  0  0  0  0  0  0  0  0
   10.5990    9.7050   -6.8109 C   0  0  0  0  0  0  0  0  0  0  0  0
    9.9632   10.2322   -8.0548 C   0  0  0  0  0  0  0  0  0  0  0  0
   11.0781   10.9862   -8.7944 C   0  0  0  0  0  0  0  0  0  0  0  0
   11.2116   12.2836   -8.0198 C   0  0  0  0  0  0  0  0  0  0  0  0
   11.5356   12.0386   -6.6049 C   0  0  2  0  0  0  0  0  0  0  0  0
   12.8196   12.6883   -6.2911 N   0  0  0  0  0  0  0  0  0  0  0  0
   11.1659   11.3462   -4.1696 H   0  0  0  0  0  0  0  0  0  0  0  0
   12.6015   10.2285   -6.3790 H   0  0  0  0  0  0  0  0  0  0  0  0
   11.0763    8.7206   -7.0805 H   0  0  0  0  0  0  0  0  0  0  0  0
    9.7896    9.4225   -6.0844 H   0  0  0  0  0  0  0  0  0  0  0  0
    9.5380    9.4376   -8.6645 H   0  0  0  0  0  0  0  0  0  0  0  0
    9.1592   10.9558   -7.7327 H   0  0  0  0  0  0  0  0  0  0  0  0
   12.0277   10.4327   -8.6595 H   0  0  0  0  0  0  0  0  0  0  0  0
   10.8270   11.1464   -9.8490 H   0  0  0  0  0  0  0  0  0  0  0  0
   10.2369   12.7993   -8.1212 H   0  0  0  0  0  0  0  0  0  0  0  0
   11.9713   12.9155   -8.5031 H   0  0  0  0  0  0  0  0  0  0  0  0
   10.7946   12.5713   -5.9655 H   0  0  0  0  0  0  0  0  0  0  0  0
   13.5862   12.0813   -6.6300 H   0  0  0  0  0  0  0  0  0  0  0  0
   12.8118   13.6184   -6.7891 H   0  0  0  0  0  0  0  0  0  0  0  0
  1  2  2  0
  2  3  1  0
  4  3  2  0
  5  4  1  0
  6  1  1  0
  6  5  2  0
  1  7  1  0
  2  8  1  0
  3  9  1  0
 10 11  1  0
 11 12  1  0
 12 13  1  0
 13 14  1  0
 14 15  1  0
 15 16  1  0
 16 17  1  0
 16 11  1  0
 10 18  1  0
 11 19  1  1
 12 20  1  0
 12 21  1  0
 13 22  1  0
 13 23  1  0
 14 24  1  0
 14 25  1  0
 15 26  1  0
 15 27  1  0
 16 28  1  1
 17 29  1  0
 17 30  1  0
  5 10  1  0
M  END
>  <Score>  (1) 
-7.02929

$$$$

     RDKit          3D

 26 28  0  0  0  0  0  0  0  0999 V2000
   12.3031    8.1256   -2.3003 C   0  0  0  0  0  0  0  0  0  0  0  0
   12.0199    6.8806   -2.9167 C   0  0  0  0  0  0  0  0  0  0  0  0
   11.5252    6.8995   -4.2230 C   0  0  0  0  0  0  0  0  0  0  0  0
   11.3421    8.1057   -4.8318 N   0  0  0  0  0  0  0  0  0  0  0  0
   11.6245    9.2781   -4.2099 C   0  0  0  0  0  0  0  0  0  0  0  0
   12.1002    9.2815   -2.9562 N   0  0  0  0  0  0  0  0  0  0  0  0
   12.6836    8.1114   -1.2955 H   0  0  0  0  0  0  0  0  0  0  0  0
   12.1816    5.9645   -2.3946 H   0  0  0  0  0  0  0  0  0  0  0  0
   11.3025    5.9610   -4.7120 H   0  0  0  0  0  0  0  0  0  0  0  0
   11.4055   10.5362   -4.9190 C   0  0  0  0  0  0  0  0  0  0  0  0
   11.2107   10.6886   -6.2302 N   0  0  0  0  0  0  0  0  0  0  0  0
   11.0438   12.0026   -6.5203 C   0  0  0  0  0  0  0  0  0  0  0  0
   10.8176   12.6166   -7.7348 C   0  0  0  0  0  0  0  0  0  0  0  0
   10.6847   13.9898   -7.7366 C   0  0  0  0  0  0  0  0  0  0  0  0
   10.7737   14.7235   -6.5727 C   0  0  0  0  0  0  0  0  0  0  0  0
   11.0020   14.0706   -5.3701 C   0  0  0  0  0  0  0  0  0  0  0  0
   11.1401   12.6980   -5.3301 C   0  0  0  0  0  0  0  0  0  0  0  0
   11.3596   11.7693   -4.3851 N   0  0  0  0  0  0  0  0  0  0  0  0
   11.5232   12.0741   -2.9801 C   0  0  0  0  0  0  0  0  0  0  0  0
   10.7480   12.0246   -8.6587 H   0  0  0  0  0  0  0  0  0  0  0  0
   10.5069   14.4538   -8.7045 H   0  0  0  0  0  0  0  0  0  0  0  0
   10.6624   15.8046   -6.6216 H   0  0  0  0  0  0  0  0  0  0  0  0
   11.0738   14.6283   -4.4541 H   0  0  0  0  0  0  0  0  0  0  0  0
   11.2336   13.1096   -2.7588 H   0  0  0  0  0  0  0  0  0  0  0  0
   12.5932   11.8835   -2.6863 H   0  0  0  0  0  0  0  0  0  0  0  0
   10.8916   11.4251   -2.3318 H   0  0  0  0  0  0  0  0  0  0  0  0
  2  1  2  0
  3  2  1  0
  4  3  2  0
  4  5  1  0
  5  6  2  0
  6  1  1  0
  1  7  1  0
  2  8  1  0
  3  9  1  0
 10 11  2  0
 11 12  1  0
 12 13  2  0
 13 14  1  0
 14 15  2  0
 15 16  1  0
 16 17  2  0
 17 18  1  0
 18 19  1  0
 18 10  1  0
 17 12  1  0
 13 20  1  0
 14 21  1  0
 15 22  1  0
 16 23  1  0
 19 24  1  0
 19 25  1  0
 19 26  1  0
  5 10  1  0
M  END
>  <Score>  (1) 
-7.78424

$$$$

     RDKit          3D

 21 22  0  0  0  0  0  0  0  0999 V2000
   11.5564    6.9254   -4.1728 C   0  0  0  0  0  0  0  0  0  0  0  0
   12.0449    6.8273   -2.8516 C   0  0  0  0  0  0  0  0  0  0  0  0
   12.3203    8.0186   -2.1666 C   0  0  0  0  0  0  0  0  0  0  0  0
   12.1011    9.2012   -2.8141 N   0  0  0  0  0  0  0  0  0  0  0  0
   11.6323    9.2565   -4.0799 C   0  0  0  0  0  0  0  0  0  0  0  0
   11.3620    8.1211   -4.7540 N   0  0  0  0  0  0  0  0  0  0  0  0
   11.3318    6.0531   -4.7363 H   0  0  0  0  0  0  0  0  0  0  0  0
   12.1949    5.8658   -2.4012 H   0  0  0  0  0  0  0  0  0  0  0  0
   12.6887    8.0069   -1.1732 H   0  0  0  0  0  0  0  0  0  0  0  0
   11.4089   10.4564   -4.7395 O   0  0  0  0  0  0  0  0  0  0  0  0
   11.2354   10.4262   -6.1138 C   0  0  0  0  0  0  0  0  0  0  0  0
   10.0384   10.8978   -6.6516 C   0  0  0  0  0  0  0  0  0  0  0  0
    9.8371   10.8803   -8.0166 C   0  0  0  0  0  0  0  0  0  0  0  0
   10.8539   10.3853   -8.8011 C   0  0  0  0  0  0  0  0  0  0  0  0
   10.6880   10.3535  -10.1544 F   0  0  0  0  0  0  0  0  0  0  0  0
   12.0481    9.9139   -8.2772 C   0  0  0  0  0  0  0  0  0  0  0  0
   12.2310    9.9395   -6.9106 C   0  0  0  0  0  0  0  0  0  0  0  0
   13.3908    9.4867   -6.3342 F   0  0  0  0  0  0  0  0  0  0  0  0
    9.2409   11.2869   -6.0245 H   0  0  0  0  0  0  0  0  0  0  0  0
    8.8982   11.2501   -8.4395 H   0  0  0  0  0  0  0  0  0  0  0  0
   12.8481    9.5238   -8.9037 H   0  0  0  0  0  0  0  0  0  0  0  0
  1  2  2  0
  2  3  1  0
  4  3  2  0
  5  4  1  0
  6  1  1  0
  6  5  2  0
  1  7  1  0
  2  8  1  0
  3  9  1  0
 10 11  1  0
 11 12  2  0
 12 13  1  0
 13 14  2  0
 14 15  1  0
 14 16  1  0
 16 17  2  0
 17 18  1  0
 17 11  1  0
 12 19  1  0
 13 20  1  0
 16 21  1  0
  5 10  1  0
M  END
>  <Score>  (1) 
-7.02833

$$$$

     RDKit          3D

 28 29  0  0  0  0  0  0  0  0999 V2000
   11.5563    6.9246   -4.1730 C   0  0  0  0  0  0  0  0  0  0  0  0
   12.0450    6.8269   -2.8512 C   0  0  0  0  0  0  0  0  0  0  0  0
   12.3205    8.0183   -2.1661 C   0  0  0  0  0  0  0  0  0  0  0  0
   12.1004    9.2006   -2.8159 N   0  0  0  0  0  0  0  0  0  0  0  0
   11.6320    9.2559   -4.0809 C   0  0  0  0  0  0  0  0  0  0  0  0
   11.3628    8.1236   -4.7519 N   0  0  0  0  0  0  0  0  0  0  0  0
   11.3292    6.0231   -4.7418 H   0  0  0  0  0  0  0  0  0  0  0  0
   12.1930    5.8705   -2.4066 H   0  0  0  0  0  0  0  0  0  0  0  0
   12.6940    7.9847   -1.1579 H   0  0  0  0  0  0  0  0  0  0  0  0
   11.4350   10.5743   -4.6749 C   0  0  0  0  0  0  0  0  0  0  0  0
   11.1140   11.6521   -3.8756 C   0  0  0  0  0  0  0  0  0  0  0  0
   10.9260   12.9138   -4.4492 C   0  0  0  0  0  0  0  0  0  0  0  0
   11.0625   13.0670   -5.7989 C   0  0  0  0  0  0  0  0  0  0  0  0
   10.8791   14.3103   -6.3797 O   0  0  0  0  0  0  0  0  0  0  0  0
   10.5512   15.4272   -5.5896 C   0  0  0  0  0  0  0  0  0  0  0  0
   11.3857   11.9959   -6.6278 C   0  0  0  0  0  0  0  0  0  0  0  0
   11.5114   12.2109   -7.9923 O   0  0  0  0  0  0  0  0  0  0  0  0
   11.8423   11.0930   -8.8048 C   0  0  0  0  0  0  0  0  0  0  0  0
   11.5614   10.7804   -6.0312 C   0  0  0  0  0  0  0  0  0  0  0  0
   11.0160   11.4871   -2.8162 H   0  0  0  0  0  0  0  0  0  0  0  0
   10.6762   13.7162   -3.7667 H   0  0  0  0  0  0  0  0  0  0  0  0
   10.7120   16.3574   -6.1982 H   0  0  0  0  0  0  0  0  0  0  0  0
   11.2067   15.5175   -4.6923 H   0  0  0  0  0  0  0  0  0  0  0  0
    9.4782   15.3588   -5.3145 H   0  0  0  0  0  0  0  0  0  0  0  0
   10.9306   10.4487   -8.8367 H   0  0  0  0  0  0  0  0  0  0  0  0
   12.0788   11.4219   -9.8518 H   0  0  0  0  0  0  0  0  0  0  0  0
   12.6882   10.5036   -8.3796 H   0  0  0  0  0  0  0  0  0  0  0  0
   11.8136    9.9177   -6.6325 H   0  0  0  0  0  0  0  0  0  0  0  0
  1  2  2  0
  2  3  1  0
  4  3  2  0
  5  4  1  0
  6  1  1  0
  6  5  2  0
  1  7  1  0
  2  8  1  0
  3  9  1  0
 10 11  2  0
 11 12  1  0
 12 13  2  0
 13 14  1  0
 14 15  1  0
 13 16  1  0
 16 17  1  0
 17 18  1  0
 16 19  2  0
 19 10  1  0
 11 20  1  0
 12 21  1  0
 15 22  1  0
 15 23  1  0
 15 24  1  0
 18 25  1  0
 18 26  1  0
 18 27  1  0
 19 28  1  0
  5 10  1  0
M  END
>  <Score>  (1) 
-7.02554

$$$$

     RDKit          3D

 22 23  0  0  0  0  0  0  0  0999 V2000
   11.5583    6.9277   -4.1678 C   0  0  0  0  0  0  0  0  0  0  0  0
   12.0433    6.8265   -2.8558 C   0  0  0  0  0  0  0  0  0  0  0  0
   12.3207    8.0183   -2.1656 C   0  0  0  0  0  0  0  0  0  0  0  0
   12.0949    9.1902   -2.8303 N   0  0  0  0  0  0  0  0  0  0  0  0
   11.6345    9.2712   -4.0749 C   0  0  0  0  0  0  0  0  0  0  0  0
   11.3654    8.1161   -4.7446 N   0  0  0  0  0  0  0  0  0  0  0  0
   11.3491    6.0028   -4.6873 H   0  0  0  0  0  0  0  0  0  0  0  0
   12.2116    5.8873   -2.3573 H   0  0  0  0  0  0  0  0  0  0  0  0
   12.6894    7.9718   -1.1696 H   0  0  0  0  0  0  0  0  0  0  0  0
   12.0672    8.6220   -6.6941 H   0  0  0  0  0  0  0  0  0  0  0  0
   11.8535    9.6016   -7.0186 C   0  0  0  0  0  0  0  0  0  0  0  0
   11.9371    9.7811   -8.2735 O   0  0  0  0  0  0  0  0  0  0  0  0
   11.4920   10.6762   -6.1389 C   0  0  0  0  0  0  0  0  0  0  0  0
   11.2377   11.9247   -6.7313 C   0  0  0  0  0  0  0  0  0  0  0  0
   10.8908   12.9923   -5.9768 C   0  0  0  0  0  0  0  0  0  0  0  0
   10.7843   12.8590   -4.6114 C   0  0  0  0  0  0  0  0  0  0  0  0
   11.0312   11.6543   -4.0558 C   0  0  0  0  0  0  0  0  0  0  0  0
   11.3929   10.5180   -4.7856 C   0  0  0  0  0  0  0  0  0  0  0  0
   11.3230   12.0311   -7.8231 H   0  0  0  0  0  0  0  0  0  0  0  0
   10.6932   13.9634   -6.4386 H   0  0  0  0  0  0  0  0  0  0  0  0
   10.5009   13.7556   -4.0548 H   0  0  0  0  0  0  0  0  0  0  0  0
   10.9510   11.5388   -2.9908 H   0  0  0  0  0  0  0  0  0  0  0  0
  1  2  2  0
  2  3  1  0
  4  3  2  0
  5  4  1  0
  6  1  1  0
  6  5  2  0
  1  7  1  0
  2  8  1  0
  3  9  1  0
 10 11  1  0
 11 12  2  0
 11 13  1  0
 13 14  2  0
 14 15  1  0
 15 16  2  0
 16 17  1  0
 17 18  2  0
 18 13  1  0
 14 19  1  0
 15 20  1  0
 16 21  1  0
 17 22  1  0
  5 18  1  0
M  END
>  <Score>  (1) 
-7.014

$$$$

     RDKit          3D

 21 22  0  0  0  0  0  0  0  0999 V2000
   11.5566    6.9243   -4.1722 C   0  0  0  0  0  0  0  0  0  0  0  0
   12.0444    6.8260   -2.8530 C   0  0  0  0  0  0  0  0  0  0  0  0
   12.3200    8.0218   -2.1675 C   0  0  0  0  0  0  0  0  0  0  0  0
   12.1001    9.2003   -2.8166 N   0  0  0  0  0  0  0  0  0  0  0  0
   11.6339    9.2563   -4.0756 C   0  0  0  0  0  0  0  0  0  0  0  0
   11.3620    8.1213   -4.7541 N   0  0  0  0  0  0  0  0  0  0  0  0
   11.3257    6.0528   -4.7526 H   0  0  0  0  0  0  0  0  0  0  0  0
   12.1977    5.8759   -2.3941 H   0  0  0  0  0  0  0  0  0  0  0  0
   12.6872    7.9502   -1.1747 H   0  0  0  0  0  0  0  0  0  0  0  0
   10.1939   15.0412   -6.0895 H   0  0  0  0  0  0  0  0  0  0  0  0
   10.8753   14.3255   -6.5205 C   0  0  0  0  0  0  0  0  0  0  0  0
   11.4938   14.6333   -7.5672 O   0  0  0  0  0  0  0  0  0  0  0  0
   11.0583   13.0312   -5.8820 C   0  0  0  0  0  0  0  0  0  0  0  0
   11.9371   12.1278   -6.4512 C   0  0  0  0  0  0  0  0  0  0  0  0
   12.1093   10.9040   -5.8462 C   0  0  0  0  0  0  0  0  0  0  0  0
   11.4265   10.5745   -4.6977 C   0  0  0  0  0  0  0  0  0  0  0  0
   10.5604   11.5009   -4.1613 C   0  0  0  0  0  0  0  0  0  0  0  0
   10.0213   11.2468   -3.2588 H   0  0  0  0  0  0  0  0  0  0  0  0
   10.3972   12.6915   -4.7558 N   0  0  0  0  0  0  0  0  0  0  0  0
   12.4765   12.4036   -7.3690 H   0  0  0  0  0  0  0  0  0  0  0  0
   12.7959   10.1819   -6.2798 H   0  0  0  0  0  0  0  0  0  0  0  0
  1  2  2  0
  2  3  1  0
  4  3  2  0
  5  4  1  0
  6  1  1  0
  6  5  2  0
  1  7  1  0
  2  8  1  0
  3  9  1  0
 10 11  1  0
 11 12  2  0
 11 13  1  0
 13 14  2  0
 14 15  1  0
 15 16  2  0
 16 17  1  0
 17 18  1  0
 17 19  2  0
 19 13  1  0
 14 20  1  0
 15 21  1  0
  5 16  1  0
M  END
>  <Score>  (1) 
-7.01362

$$$$

     RDKit          3D

 27 28  0  0  0  0  0  0  0  0999 V2000
   11.5564    6.9251   -4.1728 C   0  0  0  0  0  0  0  0  0  0  0  0
   12.0452    6.8288   -2.8508 C   0  0  0  0  0  0  0  0  0  0  0  0
   12.3202    8.0159   -2.1667 C   0  0  0  0  0  0  0  0  0  0  0  0
   12.1007    9.2024   -2.8151 N   0  0  0  0  0  0  0  0  0  0  0  0
   11.6324    9.2566   -4.0797 C   0  0  0  0  0  0  0  0  0  0  0  0
   11.3620    8.1212   -4.7540 N   0  0  0  0  0  0  0  0  0  0  0  0
   11.3456    5.9999   -4.6964 H   0  0  0  0  0  0  0  0  0  0  0  0
   12.1837    5.8591   -2.4311 H   0  0  0  0  0  0  0  0  0  0  0  0
   12.6901    7.9641   -1.1674 H   0  0  0  0  0  0  0  0  0  0  0  0
   12.8616   14.0763   -5.8137 H   0  0  0  0  0  0  0  0  0  0  0  0
   13.5233   13.2346   -5.9455 C   0  0  0  0  0  0  0  0  0  0  0  0
   14.7128   13.4123   -6.0426 O   0  0  0  0  0  0  0  0  0  0  0  0
   12.8848   11.8735   -5.9978 C   0  0  2  0  0  0  0  0  0  0  0  0
   11.8772   11.7631   -7.0731 C   0  0  0  0  0  0  0  0  0  0  0  0
   10.4570   11.6754   -6.6379 C   0  0  0  0  0  0  0  0  0  0  0  0
   10.2240   10.7702   -5.4586 C   0  0  0  0  0  0  0  0  0  0  0  0
   11.4201   10.5035   -4.7118 N   0  0  0  0  0  0  0  0  0  0  0  0
   12.4053   11.5534   -4.6254 C   0  0  0  0  0  0  0  0  0  0  0  0
   13.7269   11.1566   -6.2290 H   0  0  0  0  0  0  0  0  0  0  0  0
   11.9674   12.6827   -7.7233 H   0  0  0  0  0  0  0  0  0  0  0  0
   12.1049   10.9130   -7.7759 H   0  0  0  0  0  0  0  0  0  0  0  0
   10.0011   12.6748   -6.4779 H   0  0  0  0  0  0  0  0  0  0  0  0
    9.8751   11.2248   -7.4945 H   0  0  0  0  0  0  0  0  0  0  0  0
    9.5196   11.3022   -4.7541 H   0  0  0  0  0  0  0  0  0  0  0  0
    9.7018    9.8274   -5.7258 H   0  0  0  0  0  0  0  0  0  0  0  0
   13.2825   11.1905   -4.0189 H   0  0  0  0  0  0  0  0  0  0  0  0
   12.0317   12.4453   -4.0774 H   0  0  0  0  0  0  0  0  0  0  0  0
  1  2  2  0
  2  3  1  0
  4  3  2  0
  5  4  1  0
  6  1  1  0
  6  5  2  0
  1  7  1  0
  2  8  1  0
  3  9  1  0
 10 11  1  0
 11 12  2  0
 11 13  1  0
 13 14  1  0
 14 15  1  0
 15 16  1  0
 16 17  1  0
 17 18  1  0
 18 13  1  0
 13 19  1  6
 14 20  1  0
 14 21  1  0
 15 22  1  0
 15 23  1  0
 16 24  1  0
 16 25  1  0
 18 26  1  0
 18 27  1  0
  5 17  1  0
M  END
>  <Score>  (1) 
-7.01302

$$$$

     RDKit          3D

 26 27  0  0  0  0  0  0  0  0999 V2000
   11.5565    6.9254   -4.1724 C   0  0  0  0  0  0  0  0  0  0  0  0
   12.0447    6.8269   -2.8520 C   0  0  0  0  0  0  0  0  0  0  0  0
   12.3203    8.0189   -2.1666 C   0  0  0  0  0  0  0  0  0  0  0  0
   12.1011    9.2011   -2.8139 N   0  0  0  0  0  0  0  0  0  0  0  0
   11.6323    9.2565   -4.0801 C   0  0  0  0  0  0  0  0  0  0  0  0
   11.3620    8.1212   -4.7540 N   0  0  0  0  0  0  0  0  0  0  0  0
   11.3610    5.9796   -4.6540 H   0  0  0  0  0  0  0  0  0  0  0  0
   12.2006    5.8665   -2.3860 H   0  0  0  0  0  0  0  0  0  0  0  0
   12.6974    7.9963   -1.1494 H   0  0  0  0  0  0  0  0  0  0  0  0
    9.1304   10.9916   -7.6259 H   0  0  0  0  0  0  0  0  0  0  0  0
    9.9076   11.7829   -7.5968 C   0  0  0  0  0  0  0  0  0  0  0  0
   10.5180   11.8575   -6.2097 C   0  0  1  0  0  0  0  0  0  0  0  0
   10.4038   10.6178   -5.6152 O   0  0  0  0  0  0  0  0  0  0  0  0
   11.4344   10.5843   -4.6771 C   0  0  2  0  0  0  0  0  0  0  0  0
   12.6132   11.0414   -5.5100 C   0  0  2  0  0  0  0  0  0  0  0  0
   13.6942   11.4346   -4.7628 O   0  0  0  0  0  0  0  0  0  0  0  0
   11.9781   12.2076   -6.2770 C   0  0  1  0  0  0  0  0  0  0  0  0
   12.4698   12.3156   -7.5574 O   0  0  0  0  0  0  0  0  0  0  0  0
    9.4392   12.7382   -7.8758 H   0  0  0  0  0  0  0  0  0  0  0  0
   10.7547   11.5447   -8.2940 H   0  0  0  0  0  0  0  0  0  0  0  0
    9.9473   12.5829   -5.5675 H   0  0  0  0  0  0  0  0  0  0  0  0
   11.1792   11.3381   -3.9053 H   0  0  0  0  0  0  0  0  0  0  0  0
   12.8852   10.2206   -6.1942 H   0  0  0  0  0  0  0  0  0  0  0  0
   14.5490   11.2363   -5.2627 H   0  0  0  0  0  0  0  0  0  0  0  0
   12.1371   13.1236   -5.6635 H   0  0  0  0  0  0  0  0  0  0  0  0
   12.5983   13.2880   -7.7915 H   0  0  0  0  0  0  0  0  0  0  0  0
  1  2  2  0
  2  3  1  0
  4  3  2  0
  5  4  1  0
  6  1  1  0
  6  5  2  0
  1  7  1  0
  2  8  1  0
  3  9  1  0
 10 11  1  0
 11 12  1  0
 12 13  1  0
 13 14  1  0
 14 15  1  0
 15 16  1  0
 15 17  1  0
 17 18  1  0
 17 12  1  0
 11 19  1  0
 11 20  1  0
 12 21  1  1
 14 22  1  1
 15 23  1  6
 16 24  1  0
 17 25  1  1
 18 26  1  0
  5 14  1  0
M  END
>  <Score>  (1) 
-7.00378

$$$$

     RDKit          3D

 23 24  0  0  0  0  0  0  0  0999 V2000
   11.5580    6.9225   -4.1682 C   0  0  0  0  0  0  0  0  0  0  0  0
   12.0444    6.8270   -2.8531 C   0  0  0  0  0  0  0  0  0  0  0  0
   12.3202    8.0157   -2.1666 C   0  0  0  0  0  0  0  0  0  0  0  0
   12.0995    9.2022   -2.8182 N   0  0  0  0  0  0  0  0  0  0  0  0
   11.6321    9.2549   -4.0805 C   0  0  0  0  0  0  0  0  0  0  0  0
   11.3627    8.1276   -4.7523 N   0  0  0  0  0  0  0  0  0  0  0  0
   11.3503    6.0044   -4.6841 H   0  0  0  0  0  0  0  0  0  0  0  0
   12.6891    7.9629   -1.1701 H   0  0  0  0  0  0  0  0  0  0  0  0
   11.4884   10.2393   -4.5149 H   0  0  0  0  0  0  0  0  0  0  0  0
   12.2633    5.5206   -2.2004 C   0  0  0  0  0  0  0  0  0  0  0  0
   13.3316    5.5143   -1.2200 C   0  0  0  0  0  0  0  0  0  0  0  0
   14.0610    6.6399   -0.9420 C   0  0  0  0  0  0  0  0  0  0  0  0
   15.0812    6.6227   -0.0019 C   0  0  0  0  0  0  0  0  0  0  0  0
   15.3836    5.4470    0.6820 C   0  0  0  0  0  0  0  0  0  0  0  0
   14.6597    4.3234    0.4082 C   0  0  0  0  0  0  0  0  0  0  0  0
   13.6425    4.3621   -0.5365 C   0  0  0  0  0  0  0  0  0  0  0  0
   12.9558    3.2206   -0.7701 F   0  0  0  0  0  0  0  0  0  0  0  0
   12.4650    4.7094   -2.9439 H   0  0  0  0  0  0  0  0  0  0  0  0
   11.3195    5.1848   -1.6779 H   0  0  0  0  0  0  0  0  0  0  0  0
   13.8233    7.5456   -1.4731 H   0  0  0  0  0  0  0  0  0  0  0  0
   15.6687    7.4995    0.2325 H   0  0  0  0  0  0  0  0  0  0  0  0
   16.1824    5.4251    1.4209 H   0  0  0  0  0  0  0  0  0  0  0  0
   14.8458    3.3898    0.9018 H   0  0  0  0  0  0  0  0  0  0  0  0
  1  2  2  0
  2  3  1  0
  4  3  2  0
  5  4  1  0
  6  1  1  0
  6  5  2  0
  1  7  1  0
  3  8  1  0
  5  9  1  0
 10 11  1  0
 11 12  2  0
 12 13  1  0
 13 14  2  0
 14 15  1  0
 15 16  2  0
 16 17  1  0
 16 11  1  0
 10 18  1  0
 10 19  1  0
 12 20  1  0
 13 21  1  0
 14 22  1  0
 15 23  1  0
  2 10  1  0
M  END
>  <Score>  (1) 
-7.39096

$$$$

     RDKit          3D

 23 24  0  0  0  0  0  0  0  0999 V2000
   11.5566    6.9246   -4.1723 C   0  0  0  0  0  0  0  0  0  0  0  0
   12.0448    6.8269   -2.8520 C   0  0  0  0  0  0  0  0  0  0  0  0
   12.3203    8.0191   -2.1665 C   0  0  0  0  0  0  0  0  0  0  0  0
   12.1012    9.2008   -2.8137 N   0  0  0  0  0  0  0  0  0  0  0  0
   11.6318    9.2556   -4.0813 C   0  0  0  0  0  0  0  0  0  0  0  0
   11.3623    8.1230   -4.7533 N   0  0  0  0  0  0  0  0  0  0  0  0
   11.3549    5.9858   -4.6708 H   0  0  0  0  0  0  0  0  0  0  0  0
   12.6962    7.9932   -1.1523 H   0  0  0  0  0  0  0  0  0  0  0  0
   11.4698   10.2198   -4.5640 H   0  0  0  0  0  0  0  0  0  0  0  0
   12.2557    5.5199   -2.2208 C   0  0  0  0  0  0  0  0  0  0  0  0
   13.4586    4.8131   -2.7162 C   0  0  0  0  0  0  0  0  0  0  0  0
   13.3512    3.9696   -3.7995 C   0  0  0  0  0  0  0  0  0  0  0  0
   14.4408    3.2740   -4.3170 C   0  0  0  0  0  0  0  0  0  0  0  0
   15.6686    3.4464   -3.7112 C   0  0  0  0  0  0  0  0  0  0  0  0
   15.8239    4.2919   -2.6103 C   0  0  0  0  0  0  0  0  0  0  0  0
   14.7057    4.9550   -2.1422 C   0  0  0  0  0  0  0  0  0  0  0  0
   12.4166    5.6880   -1.1253 H   0  0  0  0  0  0  0  0  0  0  0  0
   11.3518    4.8718   -2.2936 H   0  0  0  0  0  0  0  0  0  0  0  0
   12.4037    3.7997   -4.3129 H   0  0  0  0  0  0  0  0  0  0  0  0
   14.3166    2.6181   -5.1723 H   0  0  0  0  0  0  0  0  0  0  0  0
   16.5478    2.9153   -4.0913 H   0  0  0  0  0  0  0  0  0  0  0  0
   16.8081    4.3996   -2.1625 H   0  0  0  0  0  0  0  0  0  0  0  0
   14.8001    5.6041   -1.3049 H   0  0  0  0  0  0  0  0  0  0  0  0
  1  2  2  0
  2  3  1  0
  4  3  2  0
  5  4  1  0
  6  1  1  0
  6  5  2  0
  1  7  1  0
  3  8  1  0
  5  9  1  0
 10 11  1  0
 11 12  2  0
 12 13  1  0
 13 14  2  0
 14 15  1  0
 15 16  2  0
 16 11  1  0
 10 17  1  0
 10 18  1  0
 12 19  1  0
 13 20  1  0
 14 21  1  0
 15 22  1  0
 16 23  1  0
  2 10  1  0
M  END
>  <Score>  (1) 
-7.22148

$$$$

     RDKit          3D

 27 28  0  0  0  0  0  0  0  0999 V2000
   11.5567    6.9247   -4.1720 C   0  0  0  0  0  0  0  0  0  0  0  0
   12.0446    6.8267   -2.8523 C   0  0  0  0  0  0  0  0  0  0  0  0
   12.3203    8.0199   -2.1667 C   0  0  0  0  0  0  0  0  0  0  0  0
   12.1015    9.2003   -2.8128 N   0  0  0  0  0  0  0  0  0  0  0  0
   11.6317    9.2558   -4.0815 C   0  0  0  0  0  0  0  0  0  0  0  0
   11.3621    8.1226   -4.7537 N   0  0  0  0  0  0  0  0  0  0  0  0
   11.3303    6.0195   -4.7386 H   0  0  0  0  0  0  0  0  0  0  0  0
   12.6897    7.9591   -1.1682 H   0  0  0  0  0  0  0  0  0  0  0  0
   11.4812   10.2180   -4.5334 H   0  0  0  0  0  0  0  0  0  0  0  0
   12.2570    5.4992   -2.2163 C   0  0  2  0  0  0  0  0  0  0  0  0
   12.0727    5.6088   -0.8665 O   0  0  0  0  0  0  0  0  0  0  0  0
   13.2633    5.4685   -0.2113 C   0  0  1  0  0  0  0  0  0  0  0  0
   13.1442    4.3152    0.7558 C   0  0  0  0  0  0  0  0  0  0  0  0
   12.8457    3.1205    0.0908 O   0  0  0  0  0  0  0  0  0  0  0  0
   14.3600    5.2965   -1.2056 C   0  0  1  0  0  0  0  0  0  0  0  0
   15.2685    4.3015   -0.8615 O   0  0  0  0  0  0  0  0  0  0  0  0
   13.6312    4.9823   -2.4930 C   0  0  2  0  0  0  0  0  0  0  0  0
   14.2031    5.6991   -3.5662 O   0  0  0  0  0  0  0  0  0  0  0  0
   11.5185    4.8021   -2.6747 H   0  0  0  0  0  0  0  0  0  0  0  0
   13.4554    6.3766    0.3999 H   0  0  0  0  0  0  0  0  0  0  0  0
   14.0390    4.1995    1.3985 H   0  0  0  0  0  0  0  0  0  0  0  0
   12.2948    4.5374    1.4376 H   0  0  0  0  0  0  0  0  0  0  0  0
   12.0820    2.6455    0.5048 H   0  0  0  0  0  0  0  0  0  0  0  0
   14.9055    6.2493   -1.3631 H   0  0  0  0  0  0  0  0  0  0  0  0
   16.1321    4.4445   -1.3263 H   0  0  0  0  0  0  0  0  0  0  0  0
   13.6620    3.9089   -2.7433 H   0  0  0  0  0  0  0  0  0  0  0  0
   14.3520    5.0874   -4.3411 H   0  0  0  0  0  0  0  0  0  0  0  0
  1  2  2  0
  2  3  1  0
  4  3  2  0
  5  4  1  0
  6  1  1  0
  6  5  2  0
  1  7  1  0
  3  8  1  0
  5  9  1  0
 10 11  1  0
 11 12  1  0
 12 13  1  0
 13 14  1  0
 12 15  1  0
 15 16  1  0
 15 17  1  0
 17 18  1  0
 17 10  1  0
 10 19  1  6
 12 20  1  1
 13 21  1  0
 13 22  1  0
 14 23  1  0
 15 24  1  6
 16 25  1  0
 17 26  1  6
 18 27  1  0
  2 10  1  0
M  END
>  <Score>  (1) 
-7.095

$$$$

     RDKit          3D

 32 33  0  0  0  0  0  0  0  0999 V2000
   11.5574    6.9240   -4.1701 C   0  0  0  0  0  0  0  0  0  0  0  0
   12.0438    6.8260   -2.8545 C   0  0  0  0  0  0  0  0  0  0  0  0
   12.3204    8.0211   -2.1663 C   0  0  0  0  0  0  0  0  0  0  0  0
   12.1017    9.2000   -2.8122 N   0  0  0  0  0  0  0  0  0  0  0  0
   11.6316    9.2557   -4.0819 C   0  0  0  0  0  0  0  0  0  0  0  0
   11.3621    8.1233   -4.7539 N   0  0  0  0  0  0  0  0  0  0  0  0
   12.1994    5.8750   -2.3895 H   0  0  0  0  0  0  0  0  0  0  0  0
   12.6913    8.0160   -1.1665 H   0  0  0  0  0  0  0  0  0  0  0  0
   11.4671   10.1992   -4.5705 H   0  0  0  0  0  0  0  0  0  0  0  0
   11.3010    5.7318   -4.8039 O   0  0  0  0  0  0  0  0  0  0  0  0
   10.8126    5.6076   -6.1141 C   0  0  2  0  0  0  0  0  0  0  0  0
    9.5337    5.0038   -6.1311 O   0  0  0  0  0  0  0  0  0  0  0  0
    8.9956    5.3099   -7.3804 C   0  0  2  0  0  0  0  0  0  0  0  0
    7.4929    5.1882   -7.3957 C   0  0  0  0  0  0  0  0  0  0  0  0
    6.9658    6.0644   -6.4631 O   0  0  0  0  0  0  0  0  0  0  0  0
    9.6628    4.4176   -8.3876 C   0  0  2  0  0  0  0  0  0  0  0  0
    8.8385    3.3290   -8.7543 O   0  0  0  0  0  0  0  0  0  0  0  0
   10.9483    3.8236   -7.8150 C   0  0  2  0  0  0  0  0  0  0  0  0
   10.6674    2.6942   -7.0700 O   0  0  0  0  0  0  0  0  0  0  0  0
   11.7189    4.8549   -7.0280 C   0  0  1  0  0  0  0  0  0  0  0  0
   12.3174    5.7300   -7.9588 O   0  0  0  0  0  0  0  0  0  0  0  0
   10.6832    6.6354   -6.5125 H   0  0  0  0  0  0  0  0  0  0  0  0
    9.2702    6.3619   -7.6000 H   0  0  0  0  0  0  0  0  0  0  0  0
    7.1444    4.1601   -7.2440 H   0  0  0  0  0  0  0  0  0  0  0  0
    7.1355    5.5224   -8.3914 H   0  0  0  0  0  0  0  0  0  0  0  0
    5.9818    6.1569   -6.5591 H   0  0  0  0  0  0  0  0  0  0  0  0
    9.9544    4.9575   -9.3118 H   0  0  0  0  0  0  0  0  0  0  0  0
    8.5217    2.8420   -7.9705 H   0  0  0  0  0  0  0  0  0  0  0  0
   11.5870    3.5343   -8.6815 H   0  0  0  0  0  0  0  0  0  0  0  0
   11.4137    2.0501   -7.0614 H   0  0  0  0  0  0  0  0  0  0  0  0
   12.5472    4.3461   -6.5161 H   0  0  0  0  0  0  0  0  0  0  0  0
   12.9143    5.2448   -8.5693 H   0  0  0  0  0  0  0  0  0  0  0  0
  1  2  2  0
  2  3  1  0
  4  3  2  0
  5  4  1  0
  6  1  1  0
  6  5  2  0
  2  7  1  0
  3  8  1  0
  5  9  1  0
 10 11  1  0
 11 12  1  0
 12 13  1  0
 13 14  1  0
 14 15  1  0
 13 16  1  0
 16 17  1  0
 16 18  1  0
 18 19  1  0
 18 20  1  0
 20 21  1  0
 20 11  1  0
 11 22  1  6
 13 23  1  6
 14 24  1  0
 14 25  1  0
 15 26  1  0
 16 27  1  6
 17 28  1  0
 18 29  1  6
 19 30  1  0
 20 31  1  1
 21 32  1  0
  1 10  1  0
M  END
>  <Score>  (1) 
-7.88429

$$$$

     RDKit          3D

 29 31  0  0  0  0  0  0  0  0999 V2000
   12.3025    8.1195   -2.3012 C   0  0  0  0  0  0  0  0  0  0  0  0
   12.0221    6.8852   -2.9114 C   0  0  0  0  0  0  0  0  0  0  0  0
   11.5239    6.8978   -4.2261 C   0  0  0  0  0  0  0  0  0  0  0  0
   11.3423    8.1077   -4.8317 N   0  0  0  0  0  0  0  0  0  0  0  0
   11.6245    9.2774   -4.2100 C   0  0  0  0  0  0  0  0  0  0  0  0
   12.0997    9.2834   -2.9576 N   0  0  0  0  0  0  0  0  0  0  0  0
   12.6869    8.0957   -1.2853 H   0  0  0  0  0  0  0  0  0  0  0  0
   12.1794    5.9479   -2.3987 H   0  0  0  0  0  0  0  0  0  0  0  0
   11.3039    5.9673   -4.7088 H   0  0  0  0  0  0  0  0  0  0  0  0
   11.4143   10.4991   -4.8920 N   0  0  0  0  0  0  0  0  0  0  0  0
   11.9294   11.8003   -4.5176 C   0  0  2  0  0  0  0  0  0  0  0  0
   10.8207   12.7817   -4.9142 C   0  0  0  0  0  0  0  0  0  0  0  0
    9.7970   11.9366   -5.6431 C   0  0  0  0  0  0  0  0  0  0  0  0
   10.6551   10.7481   -6.0981 C   0  0  1  0  0  0  0  0  0  0  0  0
   11.5136   11.2117   -7.2377 C   0  0  0  0  0  0  0  0  0  0  0  0
   12.6227   12.1152   -6.8727 C   0  0  0  0  0  0  0  0  0  0  0  0
   13.5105   11.8466   -7.5188 H   0  0  0  0  0  0  0  0  0  0  0  0
   13.0788   12.0837   -5.4628 C   0  0  0  0  0  0  0  0  0  0  0  0
   12.2179   11.8875   -3.4754 H   0  0  0  0  0  0  0  0  0  0  0  0
   10.3910   13.2357   -3.9925 H   0  0  0  0  0  0  0  0  0  0  0  0
   11.1781   13.5747   -5.5757 H   0  0  0  0  0  0  0  0  0  0  0  0
    9.0397   11.5126   -4.9605 H   0  0  0  0  0  0  0  0  0  0  0  0
    9.3631   12.4676   -6.5115 H   0  0  0  0  0  0  0  0  0  0  0  0
   10.0468    9.9020   -6.4168 H   0  0  0  0  0  0  0  0  0  0  0  0
   10.8466   11.7333   -7.9609 H   0  0  0  0  0  0  0  0  0  0  0  0
   11.8573   10.2827   -7.7809 H   0  0  0  0  0  0  0  0  0  0  0  0
   12.4198   13.1920   -7.1479 H   0  0  0  0  0  0  0  0  0  0  0  0
   13.9141   11.3567   -5.2809 H   0  0  0  0  0  0  0  0  0  0  0  0
   13.4887   13.0782   -5.1651 H   0  0  0  0  0  0  0  0  0  0  0  0
  2  1  2  0
  3  2  1  0
  4  3  2  0
  4  5  1  0
  5  6  2  0
  6  1  1  0
  1  7  1  0
  2  8  1  0
  3  9  1  0
 10 11  1  0
 11 12  1  0
 12 13  1  0
 13 14  1  0
 14 15  1  0
 15 16  1  0
 16 17  1  0
 16 18  1  0
 14 10  1  0
 18 11  1  0
 11 19  1  1
 12 20  1  0
 12 21  1  0
 13 22  1  0
 13 23  1  0
 14 24  1  6
 15 25  1  0
 15 26  1  0
 16 27  1  0
 18 28  1  0
 18 29  1  0
  5 10  1  0
M  END
>  <Score>  (1) 
-7.78389

$$$$

     RDKit          3D

 24 26  0  0  0  0  0  0  0  0999 V2000
   11.5551    6.9271   -4.1761 C   0  0  0  0  0  0  0  0  0  0  0  0
   12.0452    6.8250   -2.8509 C   0  0  0  0  0  0  0  0  0  0  0  0
   12.3202    8.0217   -2.1671 C   0  0  0  0  0  0  0  0  0  0  0  0
   12.1014    9.2010   -2.8129 N   0  0  0  0  0  0  0  0  0  0  0  0
   11.6317    9.2532   -4.0818 C   0  0  0  0  0  0  0  0  0  0  0  0
   11.3634    8.1219   -4.7502 N   0  0  0  0  0  0  0  0  0  0  0  0
   12.2000    5.8681   -2.3854 H   0  0  0  0  0  0  0  0  0  0  0  0
   12.6923    8.0078   -1.1654 H   0  0  0  0  0  0  0  0  0  0  0  0
   11.4537   10.1813   -4.6092 H   0  0  0  0  0  0  0  0  0  0  0  0
   11.2699    5.6854   -4.8967 C   0  0  0  0  0  0  0  0  0  0  0  0
   11.3861    4.5799   -4.3188 O   0  0  0  0  0  0  0  0  0  0  0  0
   10.8517    5.7248   -6.2806 C   0  0  0  0  0  0  0  0  0  0  0  0
   10.3183    6.7631   -7.0214 C   0  0  0  0  0  0  0  0  0  0  0  0
   10.0731    6.3367   -8.2785 N   0  0  0  0  0  0  0  0  0  0  0  0
    9.6658    6.9046   -9.0720 H   0  0  0  0  0  0  0  0  0  0  0  0
   10.4287    5.0383   -8.3998 C   0  0  0  0  0  0  0  0  0  0  0  0
   10.3856    4.1597   -9.4347 N   0  0  0  0  0  0  0  0  0  0  0  0
   10.8170    2.8959   -9.2652 C   0  0  0  0  0  0  0  0  0  0  0  0
   11.2913    2.4985   -8.0736 N   0  0  0  0  0  0  0  0  0  0  0  0
   11.3467    3.3455   -7.0294 C   0  0  0  0  0  0  0  0  0  0  0  0
   10.9121    4.6478   -7.1713 C   0  0  0  0  0  0  0  0  0  0  0  0
   10.1386    7.7557   -6.6130 H   0  0  0  0  0  0  0  0  0  0  0  0
   10.7751    2.1969  -10.1146 H   0  0  0  0  0  0  0  0  0  0  0  0
   11.7279    3.0484   -6.0524 H   0  0  0  0  0  0  0  0  0  0  0  0
  1  2  2  0
  2  3  1  0
  4  3  2  0
  5  4  1  0
  6  1  1  0
  6  5  2  0
  2  7  1  0
  3  8  1  0
  5  9  1  0
 10 11  2  0
 10 12  1  0
 12 13  2  0
 13 14  1  0
 14 15  1  0
 14 16  1  0
 16 17  2  0
 17 18  1  0
 18 19  2  0
 19 20  1  0
 20 21  2  0
 21 12  1  0
 21 16  1  0
 13 22  1  0
 18 23  1  0
 20 24  1  0
  1 10  1  0
M  END
>  <Score>  (1) 
-7.82961

$$$$

     RDKit          3D

 28 30  0  0  0  0  0  0  0  0999 V2000
   11.5563    6.9256   -4.1732 C   0  0  0  0  0  0  0  0  0  0  0  0
   12.0447    6.8278   -2.8522 C   0  0  0  0  0  0  0  0  0  0  0  0
   12.3201    8.0191   -2.1670 C   0  0  0  0  0  0  0  0  0  0  0  0
   12.1016    9.2007   -2.8127 N   0  0  0  0  0  0  0  0  0  0  0  0
   11.6320    9.2567   -4.0809 C   0  0  0  0  0  0  0  0  0  0  0  0
   11.3624    8.1201   -4.7529 N   0  0  0  0  0  0  0  0  0  0  0  0
   12.2017    5.8829   -2.3838 H   0  0  0  0  0  0  0  0  0  0  0  0
   12.6922    8.0132   -1.1640 H   0  0  0  0  0  0  0  0  0  0  0  0
   11.4889   10.2434   -4.5139 H   0  0  0  0  0  0  0  0  0  0  0  0
   11.2714    5.7483   -4.8842 N   0  0  0  0  0  0  0  0  0  0  0  0
   11.6919    5.5881   -6.2509 C   0  0  0  0  0  0  0  0  0  0  0  0
   11.2744    4.2643   -6.7813 C   0  0  0  0  0  0  0  0  0  0  0  0
   12.1640    3.2116   -6.6204 C   0  0  0  0  0  0  0  0  0  0  0  0
   11.7814    1.9807   -7.1109 C   0  0  0  0  0  0  0  0  0  0  0  0
   10.5606    1.7864   -7.7419 C   0  0  0  0  0  0  0  0  0  0  0  0
    9.6898    2.8462   -7.8920 C   0  0  0  0  0  0  0  0  0  0  0  0
   10.0429    4.0915   -7.4119 C   0  0  0  0  0  0  0  0  0  0  0  0
    8.5643    2.3441   -8.5544 O   0  0  0  0  0  0  0  0  0  0  0  0
    8.9253    1.1136   -9.1013 C   0  0  0  0  0  0  0  0  0  0  0  0
    9.9874    0.6401   -8.3022 O   0  0  0  0  0  0  0  0  0  0  0  0
   10.7474    4.9659   -4.4310 H   0  0  0  0  0  0  0  0  0  0  0  0
   12.8088    5.7214   -6.3360 H   0  0  0  0  0  0  0  0  0  0  0  0
   11.2719    6.3958   -6.9081 H   0  0  0  0  0  0  0  0  0  0  0  0
   13.1289    3.3543   -6.1245 H   0  0  0  0  0  0  0  0  0  0  0  0
   12.4810    1.1525   -6.9846 H   0  0  0  0  0  0  0  0  0  0  0  0
    9.3647    4.9339   -7.5245 H   0  0  0  0  0  0  0  0  0  0  0  0
    8.0629    0.3903   -9.0617 H   0  0  0  0  0  0  0  0  0  0  0  0
    9.3238    1.1962  -10.1482 H   0  0  0  0  0  0  0  0  0  0  0  0
  1  2  2  0
  2  3  1  0
  4  3  2  0
  5  4  1  0
  6  1  1  0
  6  5  2  0
  2  7  1  0
  3  8  1  0
  5  9  1  0
 10 11  1  0
 11 12  1  0
 12 13  2  0
 13 14  1  0
 14 15  2  0
 15 16  1  0
 16 17  2  0
 16 18  1  0
 18 19  1  0
 19 20  1  0
 17 12  1  0
 20 15  1  0
 10 21  1  0
 11 22  1  0
 11 23  1  0
 13 24  1  0
 14 25  1  0
 17 26  1  0
 19 27  1  0
 19 28  1  0
  1 10  1  0
M  END
>  <Score>  (1) 
-7.76348

$$$$

     RDKit          3D

 32 33  0  0  0  0  0  0  0  0999 V2000
   11.5570    6.9240   -4.1711 C   0  0  0  0  0  0  0  0  0  0  0  0
   12.0443    6.8266   -2.8532 C   0  0  0  0  0  0  0  0  0  0  0  0
   12.3204    8.0196   -2.1662 C   0  0  0  0  0  0  0  0  0  0  0  0
   12.1013    9.2009   -2.8134 N   0  0  0  0  0  0  0  0  0  0  0  0
   11.6318    9.2554   -4.0813 C   0  0  0  0  0  0  0  0  0  0  0  0
   11.3621    8.1234   -4.7539 N   0  0  0  0  0  0  0  0  0  0  0  0
   12.1964    5.8670   -2.3972 H   0  0  0  0  0  0  0  0  0  0  0  0
   12.6909    7.9700   -1.1656 H   0  0  0  0  0  0  0  0  0  0  0  0
   11.4762   10.2023   -4.5461 H   0  0  0  0  0  0  0  0  0  0  0  0
   11.2998    5.7271   -4.8069 O   0  0  0  0  0  0  0  0  0  0  0  0
   11.9717    5.3768   -6.0068 C   0  0  1  0  0  0  0  0  0  0  0  0
   12.7469    4.2685   -5.7323 O   0  0  0  0  0  0  0  0  0  0  0  0
   13.4460    3.9277   -6.8794 C   0  0  1  0  0  0  0  0  0  0  0  0
   14.6334    3.0518   -6.5764 C   0  0  0  0  0  0  0  0  0  0  0  0
   14.1829    1.8981   -5.9747 O   0  0  0  0  0  0  0  0  0  0  0  0
   12.4664    3.2793   -7.8188 C   0  0  1  0  0  0  0  0  0  0  0  0
   11.6716    2.3318   -7.1563 O   0  0  0  0  0  0  0  0  0  0  0  0
   11.5204    4.3836   -8.2654 C   0  0  1  0  0  0  0  0  0  0  0  0
   10.4945    3.8610   -9.0407 O   0  0  0  0  0  0  0  0  0  0  0  0
   10.9946    5.1908   -7.1160 C   0  0  1  0  0  0  0  0  0  0  0  0
    9.7621    4.7068   -6.6591 O   0  0  0  0  0  0  0  0  0  0  0  0
   12.6815    6.1984   -6.2939 H   0  0  0  0  0  0  0  0  0  0  0  0
   13.8019    4.8633   -7.3767 H   0  0  0  0  0  0  0  0  0  0  0  0
   15.2327    3.6036   -5.7983 H   0  0  0  0  0  0  0  0  0  0  0  0
   15.2931    2.9138   -7.4291 H   0  0  0  0  0  0  0  0  0  0  0  0
   14.9171    1.3349   -5.5971 H   0  0  0  0  0  0  0  0  0  0  0  0
   12.9403    2.8570   -8.7260 H   0  0  0  0  0  0  0  0  0  0  0  0
   12.1352    1.4737   -7.0281 H   0  0  0  0  0  0  0  0  0  0  0  0
   12.1380    5.0577   -8.9251 H   0  0  0  0  0  0  0  0  0  0  0  0
    9.6657    3.7361   -8.5363 H   0  0  0  0  0  0  0  0  0  0  0  0
   10.7655    6.2174   -7.5285 H   0  0  0  0  0  0  0  0  0  0  0  0
    9.6968    4.7882   -5.6622 H   0  0  0  0  0  0  0  0  0  0  0  0
  1  2  2  0
  2  3  1  0
  4  3  2  0
  5  4  1  0
  6  1  1  0
  6  5  2  0
  2  7  1  0
  3  8  1  0
  5  9  1  0
 10 11  1  0
 11 12  1  0
 12 13  1  0
 13 14  1  0
 14 15  1  0
 13 16  1  0
 16 17  1  0
 16 18  1  0
 18 19  1  0
 18 20  1  0
 20 21  1  0
 20 11  1  0
 11 22  1  6
 13 23  1  6
 14 24  1  0
 14 25  1  0
 15 26  1  0
 16 27  1  6
 17 28  1  0
 18 29  1  6
 19 30  1  0
 20 31  1  6
 21 32  1  0
  1 10  1  0
M  END
>  <Score>  (1) 
-7.75629

$$$$

     RDKit          3D

 25 26  0  0  0  0  0  0  0  0999 V2000
   11.5550    6.9211   -4.1763 C   0  0  0  0  0  0  0  0  0  0  0  0
   12.0451    6.8329   -2.8514 C   0  0  0  0  0  0  0  0  0  0  0  0
   12.3201    8.0155   -2.1669 C   0  0  0  0  0  0  0  0  0  0  0  0
   12.1013    9.2027   -2.8135 N   0  0  0  0  0  0  0  0  0  0  0  0
   11.6315    9.2549   -4.0822 C   0  0  0  0  0  0  0  0  0  0  0  0
   11.3640    8.1229   -4.7487 N   0  0  0  0  0  0  0  0  0  0  0  0
   12.1984    5.8689   -2.3920 H   0  0  0  0  0  0  0  0  0  0  0  0
   12.6907    7.9717   -1.1661 H   0  0  0  0  0  0  0  0  0  0  0  0
   11.4935   10.2336   -4.5010 H   0  0  0  0  0  0  0  0  0  0  0  0
   11.2698    5.7313   -4.8878 N   0  0  0  0  0  0  0  0  0  0  0  0
   11.4051    5.6213   -6.5791 S   0  0  0  0  0  6  0  0  0  0  0  0
   10.9903    4.2524   -7.0829 O   0  0  0  0  0  0  0  0  0  0  0  0
   10.5051    6.6501   -7.2492 O   0  0  0  0  0  0  0  0  0  0  0  0
   13.0187    5.9021   -7.1698 C   0  0  0  0  0  0  0  0  0  0  0  0
   13.9509    4.8906   -7.2794 C   0  0  0  0  0  0  0  0  0  0  0  0
   15.2047    5.1890   -7.7587 C   0  0  0  0  0  0  0  0  0  0  0  0
   15.5937    6.4514   -8.1415 C   0  0  0  0  0  0  0  0  0  0  0  0
   14.6664    7.4671   -8.0344 C   0  0  0  0  0  0  0  0  0  0  0  0
   13.3898    7.1700   -7.5478 C   0  0  0  0  0  0  0  0  0  0  0  0
   12.7264    8.0349   -7.5017 H   0  0  0  0  0  0  0  0  0  0  0  0
   10.9657    4.8929   -4.3516 H   0  0  0  0  0  0  0  0  0  0  0  0
   13.6444    3.9023   -6.9790 H   0  0  0  0  0  0  0  0  0  0  0  0
   15.9380    4.3734   -7.8408 H   0  0  0  0  0  0  0  0  0  0  0  0
   16.6058    6.6434   -8.5185 H   0  0  0  0  0  0  0  0  0  0  0  0
   14.9293    8.4935   -8.3277 H   0  0  0  0  0  0  0  0  0  0  0  0
  1  2  2  0
  2  3  1  0
  4  3  2  0
  5  4  1  0
  6  1  1  0
  6  5  2  0
  2  7  1  0
  3  8  1  0
  5  9  1  0
 10 11  1  0
 11 12  2  0
 11 13  2  0
 11 14  1  0
 14 15  2  0
 15 16  1  0
 16 17  2  0
 17 18  1  0
 18 19  2  0
 19 20  1  0
 19 14  1  0
 10 21  1  0
 15 22  1  0
 16 23  1  0
 17 24  1  0
 18 25  1  0
  1 10  1  0
M  END
>  <Score>  (1) 
-7.70455

$$$$

     RDKit          3D

 27 28  0  0  0  0  0  0  0  0999 V2000
   11.5558    6.9277   -4.1744 C   0  0  0  0  0  0  0  0  0  0  0  0
   12.0451    6.8276   -2.8510 C   0  0  0  0  0  0  0  0  0  0  0  0
   12.3204    8.0175   -2.1661 C   0  0  0  0  0  0  0  0  0  0  0  0
   12.1009    9.2021   -2.8145 N   0  0  0  0  0  0  0  0  0  0  0  0
   11.6323    9.2557   -4.0800 C   0  0  0  0  0  0  0  0  0  0  0  0
   11.3623    8.1193   -4.7531 N   0  0  0  0  0  0  0  0  0  0  0  0
   12.1989    5.8606   -2.3902 H   0  0  0  0  0  0  0  0  0  0  0  0
   12.6940    7.9769   -1.1574 H   0  0  0  0  0  0  0  0  0  0  0  0
   11.4713   10.2177   -4.5600 H   0  0  0  0  0  0  0  0  0  0  0  0
   11.2485    5.7121   -4.9444 C   0  0  1  0  0  0  0  0  0  0  0  0
    9.9380    5.2767   -4.7903 O   0  0  0  0  0  0  0  0  0  0  0  0
    9.1398    6.0319   -5.6178 C   0  0  2  0  0  0  0  0  0  0  0  0
    7.9657    5.2309   -6.1817 C   0  0  0  0  0  0  0  0  0  0  0  0
    7.2007    4.7771   -5.1230 O   0  0  0  0  0  0  0  0  0  0  0  0
    9.9993    6.5375   -6.7502 C   0  0  2  0  0  0  0  0  0  0  0  0
    9.5698    6.0408   -7.9891 O   0  0  0  0  0  0  0  0  0  0  0  0
   11.3521    5.9892   -6.4140 C   0  0  1  0  0  0  0  0  0  0  0  0
   12.3909    6.8729   -6.6970 O   0  0  0  0  0  0  0  0  0  0  0  0
   11.9477    4.8816   -4.7129 H   0  0  0  0  0  0  0  0  0  0  0  0
    8.6853    6.8609   -5.0321 H   0  0  0  0  0  0  0  0  0  0  0  0
    7.3792    5.9335   -6.8016 H   0  0  0  0  0  0  0  0  0  0  0  0
    8.3006    4.3941   -6.8144 H   0  0  0  0  0  0  0  0  0  0  0  0
    7.6985    4.6900   -4.2841 H   0  0  0  0  0  0  0  0  0  0  0  0
    9.9814    7.6372   -6.7519 H   0  0  0  0  0  0  0  0  0  0  0  0
   10.3887    5.7432   -8.4787 H   0  0  0  0  0  0  0  0  0  0  0  0
   11.4951    5.0455   -6.9835 H   0  0  0  0  0  0  0  0  0  0  0  0
   13.2230    6.4237   -6.3776 H   0  0  0  0  0  0  0  0  0  0  0  0
  1  2  2  0
  2  3  1  0
  4  3  2  0
  5  4  1  0
  6  1  1  0
  6  5  2  0
  2  7  1  0
  3  8  1  0
  5  9  1  0
 10 11  1  0
 11 12  1  0
 12 13  1  0
 13 14  1  0
 12 15  1  0
 15 16  1  0
 15 17  1  0
 17 18  1  0
 17 10  1  0
 10 19  1  1
 12 20  1  1
 13 21  1  0
 13 22  1  0
 14 23  1  0
 15 24  1  6
 16 25  1  0
 17 26  1  6
 18 27  1  0
  1 10  1  0
M  END
>  <Score>  (1) 
-7.63364

$$$$

     RDKit          3D

 27 29  0  0  0  0  0  0  0  0999 V2000
   11.5561    6.9285   -4.1738 C   0  0  0  0  0  0  0  0  0  0  0  0
   12.0450    6.8269   -2.8512 C   0  0  0  0  0  0  0  0  0  0  0  0
   12.3205    8.0170   -2.1661 C   0  0  0  0  0  0  0  0  0  0  0  0
   12.0995    9.2015   -2.8185 N   0  0  0  0  0  0  0  0  0  0  0  0
   11.6334    9.2587   -4.0772 C   0  0  0  0  0  0  0  0  0  0  0  0
   11.3626    8.1174   -4.7522 N   0  0  0  0  0  0  0  0  0  0  0  0
   12.2019    5.8857   -2.3833 H   0  0  0  0  0  0  0  0  0  0  0  0
   12.6917    8.0394   -1.1666 H   0  0  0  0  0  0  0  0  0  0  0  0
   11.4822   10.2313   -4.5313 H   0  0  0  0  0  0  0  0  0  0  0  0
   11.2450    5.7111   -4.9522 C   0  0  1  0  0  0  0  0  0  0  0  0
    9.7513    5.4957   -5.1362 C   0  0  0  0  0  0  0  0  0  0  0  0
    9.5414    5.3642   -6.6436 C   0  0  2  0  0  0  0  0  0  0  0  0
   10.1403    4.1070   -7.1756 C   0  0  0  0  0  0  0  0  0  0  0  0
   11.6209    4.2977   -6.8763 C   0  0  0  0  0  0  0  0  0  0  0  0
   11.7617    5.7149   -6.3508 C   0  0  1  0  0  0  0  0  0  0  0  0
   10.6094    6.3735   -7.1071 C   0  0  0  0  0  0  0  0  0  0  0  0
   11.7049    4.8333   -4.4378 H   0  0  0  0  0  0  0  0  0  0  0  0
    9.4811    4.5411   -4.6540 H   0  0  0  0  0  0  0  0  0  0  0  0
    9.1625    6.3503   -4.7677 H   0  0  0  0  0  0  0  0  0  0  0  0
    8.5519    5.6133   -6.9746 H   0  0  0  0  0  0  0  0  0  0  0  0
    9.7450    3.1877   -6.7067 H   0  0  0  0  0  0  0  0  0  0  0  0
   10.0428    4.1131   -8.2725 H   0  0  0  0  0  0  0  0  0  0  0  0
   11.8594    3.6068   -6.0441 H   0  0  0  0  0  0  0  0  0  0  0  0
   12.2442    4.1267   -7.7779 H   0  0  0  0  0  0  0  0  0  0  0  0
   12.7171    6.1690   -6.5191 H   0  0  0  0  0  0  0  0  0  0  0  0
   10.3295    7.3509   -6.7328 H   0  0  0  0  0  0  0  0  0  0  0  0
   10.7513    6.3194   -8.2019 H   0  0  0  0  0  0  0  0  0  0  0  0
  1  2  2  0
  2  3  1  0
  4  3  2  0
  5  4  1  0
  6  1  1  0
  6  5  2  0
  2  7  1  0
  3  8  1  0
  5  9  1  0
 10 11  1  0
 11 12  1  0
 12 13  1  0
 13 14  1  0
 14 15  1  0
 15 16  1  0
 15 10  1  0
 16 12  1  0
 10 17  1  1
 11 18  1  0
 11 19  1  0
 12 20  1  1
 13 21  1  0
 13 22  1  0
 14 23  1  0
 14 24  1  0
 15 25  1  1
 16 26  1  0
 16 27  1  0
  1 10  1  0
M  END
>  <Score>  (1) 
-7.59595

$$$$

     RDKit          3D

 25 26  0  0  0  0  0  0  0  0999 V2000
   11.5570    6.9266   -4.1713 C   0  0  0  0  0  0  0  0  0  0  0  0
   12.0437    6.8257   -2.8549 C   0  0  0  0  0  0  0  0  0  0  0  0
   12.3206    8.0208   -2.1658 C   0  0  0  0  0  0  0  0  0  0  0  0
   12.1013    9.2008   -2.8135 N   0  0  0  0  0  0  0  0  0  0  0  0
   11.6324    9.2573   -4.0799 C   0  0  0  0  0  0  0  0  0  0  0  0
   11.3621    8.1189   -4.7536 N   0  0  0  0  0  0  0  0  0  0  0  0
   12.2022    5.8722   -2.3819 H   0  0  0  0  0  0  0  0  0  0  0  0
   12.6933    7.9887   -1.1600 H   0  0  0  0  0  0  0  0  0  0  0  0
   11.4665   10.2033   -4.5722 H   0  0  0  0  0  0  0  0  0  0  0  0
   11.2705    5.7321   -4.8861 N   0  0  0  0  0  0  0  0  0  0  0  0
   11.6943    5.5666   -6.2618 C   0  0  0  0  0  0  0  0  0  0  0  0
   11.2716    4.2373   -6.7713 C   0  0  0  0  0  0  0  0  0  0  0  0
   12.0371    3.0976   -6.6779 C   0  0  0  0  0  0  0  0  0  0  0  0
   11.6215    1.8719   -7.1598 C   0  0  0  0  0  0  0  0  0  0  0  0
   10.3828    1.8118   -7.7563 C   0  0  0  0  0  0  0  0  0  0  0  0
    9.9645    0.6164   -8.2323 F   0  0  0  0  0  0  0  0  0  0  0  0
    9.5705    2.9172   -7.8796 C   0  0  0  0  0  0  0  0  0  0  0  0
   10.0250    4.1195   -7.3848 C   0  0  0  0  0  0  0  0  0  0  0  0
   10.7488    4.9587   -4.4229 H   0  0  0  0  0  0  0  0  0  0  0  0
   11.2262    6.3845   -6.8529 H   0  0  0  0  0  0  0  0  0  0  0  0
   12.8050    5.6719   -6.2597 H   0  0  0  0  0  0  0  0  0  0  0  0
   13.0089    3.1837   -6.2010 H   0  0  0  0  0  0  0  0  0  0  0  0
   12.2676    0.9858   -7.0633 H   0  0  0  0  0  0  0  0  0  0  0  0
    8.6053    2.8274   -8.3542 H   0  0  0  0  0  0  0  0  0  0  0  0
    9.4045    4.9868   -7.4736 H   0  0  0  0  0  0  0  0  0  0  0  0
  1  2  2  0
  2  3  1  0
  4  3  2  0
  5  4  1  0
  6  1  1  0
  6  5  2  0
  2  7  1  0
  3  8  1  0
  5  9  1  0
 10 11  1  0
 11 12  1  0
 12 13  2  0
 13 14  1  0
 14 15  2  0
 15 16  1  0
 15 17  1  0
 17 18  2  0
 18 12  1  0
 10 19  1  0
 11 20  1  0
 11 21  1  0
 13 22  1  0
 14 23  1  0
 17 24  1  0
 18 25  1  0
  1 10  1  0
M  END
>  <Score>  (1) 
-7.59262

$$$$

     RDKit          3D

 27 28  0  0  0  0  0  0  0  0999 V2000
   11.5575    6.9232   -4.1696 C   0  0  0  0  0  0  0  0  0  0  0  0
   12.0436    6.8253   -2.8550 C   0  0  0  0  0  0  0  0  0  0  0  0
   12.3205    8.0223   -2.1662 C   0  0  0  0  0  0  0  0  0  0  0  0
   12.1020    9.1994   -2.8116 N   0  0  0  0  0  0  0  0  0  0  0  0
   11.6312    9.2547   -4.0828 C   0  0  0  0  0  0  0  0  0  0  0  0
   11.3621    8.1251   -4.7538 N   0  0  0  0  0  0  0  0  0  0  0  0
   12.2021    5.8685   -2.3821 H   0  0  0  0  0  0  0  0  0  0  0  0
   12.6990    7.9995   -1.1452 H   0  0  0  0  0  0  0  0  0  0  0  0
   11.4856   10.2212   -4.5217 H   0  0  0  0  0  0  0  0  0  0  0  0
   11.2568    5.6922   -4.9212 C   0  0  2  0  0  0  0  0  0  0  0  0
   12.3346    5.2196   -5.6378 O   0  0  0  0  0  0  0  0  0  0  0  0
   11.8828    4.4741   -6.6896 C   0  0  1  0  0  0  0  0  0  0  0  0
   12.2987    3.0253   -6.6296 C   0  0  0  0  0  0  0  0  0  0  0  0
   13.6907    2.9687   -6.6300 O   0  0  0  0  0  0  0  0  0  0  0  0
   10.3969    4.6479   -6.8039 C   0  0  2  0  0  0  0  0  0  0  0  0
   10.0034    4.8383   -8.1322 O   0  0  0  0  0  0  0  0  0  0  0  0
   10.2162    5.9403   -6.0029 C   0  0  1  0  0  0  0  0  0  0  0  0
    8.9371    6.0493   -5.4926 O   0  0  0  0  0  0  0  0  0  0  0  0
   10.8665    4.9087   -4.2164 H   0  0  0  0  0  0  0  0  0  0  0  0
   12.3324    4.8899   -7.6282 H   0  0  0  0  0  0  0  0  0  0  0  0
   11.8692    2.5140   -5.7382 H   0  0  0  0  0  0  0  0  0  0  0  0
   11.9511    2.5059   -7.5340 H   0  0  0  0  0  0  0  0  0  0  0  0
   14.0778    3.7515   -7.1122 H   0  0  0  0  0  0  0  0  0  0  0  0
    9.8172    3.8382   -6.3089 H   0  0  0  0  0  0  0  0  0  0  0  0
    9.1986    5.4077   -8.1216 H   0  0  0  0  0  0  0  0  0  0  0  0
   10.5387    6.8112   -6.5837 H   0  0  0  0  0  0  0  0  0  0  0  0
    8.7644    7.0134   -5.3257 H   0  0  0  0  0  0  0  0  0  0  0  0
  1  2  2  0
  2  3  1  0
  4  3  2  0
  5  4  1  0
  6  1  1  0
  6  5  2  0
  2  7  1  0
  3  8  1  0
  5  9  1  0
 10 11  1  0
 11 12  1  0
 12 13  1  0
 13 14  1  0
 12 15  1  0
 15 16  1  0
 15 17  1  0
 17 18  1  0
 17 10  1  0
 10 19  1  1
 12 20  1  6
 13 21  1  0
 13 22  1  0
 14 23  1  0
 15 24  1  1
 16 25  1  0
 17 26  1  6
 18 27  1  0
  1 10  1  0
M  END
>  <Score>  (1) 
-7.58095

$$$$

     RDKit          3D

 22 23  0  0  0  0  0  0  0  0999 V2000
   11.5591    6.9200   -4.1644 C   0  0  0  0  0  0  0  0  0  0  0  0
   12.0410    6.8221   -2.8628 C   0  0  0  0  0  0  0  0  0  0  0  0
   12.3195    8.0283   -2.1688 C   0  0  0  0  0  0  0  0  0  0  0  0
   12.1012    9.2011   -2.8132 N   0  0  0  0  0  0  0  0  0  0  0  0
   11.6330    9.2497   -4.0783 C   0  0  0  0  0  0  0  0  0  0  0  0
   11.3631    8.1287   -4.7516 N   0  0  0  0  0  0  0  0  0  0  0  0
   12.2302    5.9020   -2.3725 H   0  0  0  0  0  0  0  0  0  0  0  0
   12.6949    8.0004   -1.1549 H   0  0  0  0  0  0  0  0  0  0  0  0
   11.4685   10.2154   -4.5689 H   0  0  0  0  0  0  0  0  0  0  0  0
   11.2237    5.7852   -4.9233 N   0  0  0  0  0  0  0  0  0  0  0  0
   11.4471    5.6994   -6.3161 C   0  0  0  0  0  0  0  0  0  0  0  0
   12.6057    6.1149   -6.9206 C   0  0  0  0  0  0  0  0  0  0  0  0
   12.7889    6.0482   -8.3080 C   0  0  0  0  0  0  0  0  0  0  0  0
   11.7799    5.5501   -9.0993 C   0  0  0  0  0  0  0  0  0  0  0  0
   11.8849    5.4542  -10.4562 F   0  0  0  0  0  0  0  0  0  0  0  0
   10.6227    5.1361   -8.4749 C   0  0  0  0  0  0  0  0  0  0  0  0
    9.2870    4.4850   -9.4339 Cl  0  0  0  0  0  0  0  0  0  0  0  0
   10.4147    5.1903   -7.1147 C   0  0  0  0  0  0  0  0  0  0  0  0
   10.7835    4.9399   -4.4740 H   0  0  0  0  0  0  0  0  0  0  0  0
   13.4656    6.4995   -6.3553 H   0  0  0  0  0  0  0  0  0  0  0  0
   13.7090    6.3807   -8.7716 H   0  0  0  0  0  0  0  0  0  0  0  0
    9.4890    4.8554   -6.6516 H   0  0  0  0  0  0  0  0  0  0  0  0
  1  2  2  0
  2  3  1  0
  4  3  2  0
  5  4  1  0
  6  1  1  0
  6  5  2  0
  2  7  1  0
  3  8  1  0
  5  9  1  0
 10 11  1  0
 11 12  2  0
 12 13  1  0
 13 14  2  0
 14 15  1  0
 14 16  1  0
 16 17  1  0
 16 18  2  0
 18 11  1  0
 10 19  1  0
 12 20  1  0
 13 21  1  0
 18 22  1  0
  1 10  1  0
M  END
>  <Score>  (1) 
-7.49004

$$$$

     RDKit          3D

 26 27  0  0  0  0  0  0  0  0999 V2000
   11.5565    6.9251   -4.1725 C   0  0  0  0  0  0  0  0  0  0  0  0
   12.0449    6.8273   -2.8517 C   0  0  0  0  0  0  0  0  0  0  0  0
   12.3203    8.0184   -2.1665 C   0  0  0  0  0  0  0  0  0  0  0  0
   12.1011    9.2014   -2.8140 N   0  0  0  0  0  0  0  0  0  0  0  0
   11.6321    9.2559   -4.0805 C   0  0  0  0  0  0  0  0  0  0  0  0
   11.3621    8.1220   -4.7538 N   0  0  0  0  0  0  0  0  0  0  0  0
   12.1975    5.8629   -2.3941 H   0  0  0  0  0  0  0  0  0  0  0  0
   12.6930    7.9883   -1.1606 H   0  0  0  0  0  0  0  0  0  0  0  0
   11.4831   10.2207   -4.5284 H   0  0  0  0  0  0  0  0  0  0  0  0
   11.3033    5.7233   -4.7972 O   0  0  0  0  0  0  0  0  0  0  0  0
   10.8262    5.6035   -6.0772 C   0  0  0  0  0  0  0  0  0  0  0  0
    9.4734    5.5565   -6.3822 C   0  0  0  0  0  0  0  0  0  0  0  0
    9.0765    5.4342   -7.7031 C   0  0  0  0  0  0  0  0  0  0  0  0
    9.9901    5.3568   -8.7358 C   0  0  0  0  0  0  0  0  0  0  0  0
    9.4996    5.2030  -10.3987 S   0  0  0  0  0  6  0  0  0  0  0  0
   10.5324    5.8847  -11.2496 O   0  0  0  0  0  0  0  0  0  0  0  0
    8.1915    5.8906  -10.6486 O   0  0  0  0  0  0  0  0  0  0  0  0
    9.3391    3.5678  -10.8833 N   0  0  0  0  0  0  0  0  0  0  0  0
    8.3601    3.2121  -10.8379 H   0  0  0  0  0  0  0  0  0  0  0  0
   11.3360    5.4051   -8.4145 C   0  0  0  0  0  0  0  0  0  0  0  0
   11.7558    5.5266   -7.1064 C   0  0  0  0  0  0  0  0  0  0  0  0
    8.7542    5.6165   -5.5801 H   0  0  0  0  0  0  0  0  0  0  0  0
    8.0192    5.3951   -7.9684 H   0  0  0  0  0  0  0  0  0  0  0  0
    9.6917    3.4823  -11.8510 H   0  0  0  0  0  0  0  0  0  0  0  0
   12.0381    5.3429   -9.2395 H   0  0  0  0  0  0  0  0  0  0  0  0
   12.8234    5.5579   -6.9310 H   0  0  0  0  0  0  0  0  0  0  0  0
  1  2  2  0
  2  3  1  0
  4  3  2  0
  5  4  1  0
  6  1  1  0
  6  5  2  0
  2  7  1  0
  3  8  1  0
  5  9  1  0
 10 11  1  0
 11 12  2  0
 12 13  1  0
 13 14  2  0
 14 15  1  0
 15 16  2  0
 15 17  2  0
 15 18  1  0
 18 19  1  0
 14 20  1  0
 20 21  2  0
 21 11  1  0
 12 22  1  0
 13 23  1  0
 18 24  1  0
 20 25  1  0
 21 26  1  0
  1 10  1  0
M  END
>  <Score>  (1) 
-7.48789

$$$$

     RDKit          3D

 24 26  0  0  0  0  0  0  0  0999 V2000
   12.3029    8.1209   -2.3003 C   0  0  0  0  0  0  0  0  0  0  0  0
   12.0210    6.8839   -2.9142 C   0  0  0  0  0  0  0  0  0  0  0  0
   11.5247    6.8981   -4.2242 C   0  0  0  0  0  0  0  0  0  0  0  0
   11.3419    8.1064   -4.8324 N   0  0  0  0  0  0  0  0  0  0  0  0
   11.6254    9.2781   -4.2077 C   0  0  0  0  0  0  0  0  0  0  0  0
   12.0992    9.2836   -2.9591 N   0  0  0  0  0  0  0  0  0  0  0  0
   12.6806    8.1700   -1.3096 H   0  0  0  0  0  0  0  0  0  0  0  0
   12.1752    5.9580   -2.4107 H   0  0  0  0  0  0  0  0  0  0  0  0
   11.2874    6.0079   -4.7566 H   0  0  0  0  0  0  0  0  0  0  0  0
   11.4070   10.4869   -4.9099 N   0  0  0  0  0  0  0  0  0  0  0  0
   12.5206   11.3666   -5.1424 C   0  0  0  0  0  0  0  0  0  0  0  0
   12.3182   12.5560   -5.8305 C   0  0  0  0  0  0  0  0  0  0  0  0
   13.3520   13.4341   -6.0797 C   0  0  0  0  0  0  0  0  0  0  0  0
   13.4608   14.6213   -6.6985 N   0  0  0  0  0  0  0  0  0  0  0  0
   14.7202   15.0084   -6.6323 N   0  0  0  0  0  0  0  0  0  0  0  0
   15.4503   14.0879   -5.9743 C   0  0  0  0  0  0  0  0  0  0  0  0
   16.5040   14.1875   -5.7975 H   0  0  0  0  0  0  0  0  0  0  0  0
   14.6054   13.0769   -5.6118 C   0  0  0  0  0  0  0  0  0  0  0  0
   14.8057   11.9004   -4.9312 C   0  0  0  0  0  0  0  0  0  0  0  0
   13.7467   11.0692   -4.7130 N   0  0  0  0  0  0  0  0  0  0  0  0
   10.4677   10.7579   -5.2622 H   0  0  0  0  0  0  0  0  0  0  0  0
   11.3371   12.8350   -6.1963 H   0  0  0  0  0  0  0  0  0  0  0  0
   12.7085   15.1689   -7.1597 H   0  0  0  0  0  0  0  0  0  0  0  0
   15.7930   11.6418   -4.5750 H   0  0  0  0  0  0  0  0  0  0  0  0
  2  1  2  0
  3  2  1  0
  4  3  2  0
  4  5  1  0
  5  6  2  0
  6  1  1  0
  1  7  1  0
  2  8  1  0
  3  9  1  0
 10 11  1  0
 11 12  2  0
 12 13  1  0
 13 14  1  0
 14 15  1  0
 15 16  2  0
 16 17  1  0
 16 18  1  0
 18 19  1  0
 19 20  2  0
 20 11  1  0
 18 13  2  0
 10 21  1  0
 12 22  1  0
 14 23  1  0
 19 24  1  0
  5 10  1  0
M  END
>  <Score>  (1) 
-7.77614

$$$$

     RDKit          3D

 28 29  0  0  0  0  0  0  0  0999 V2000
   11.5562    6.9255   -4.1733 C   0  0  0  0  0  0  0  0  0  0  0  0
   12.0451    6.8274   -2.8510 C   0  0  0  0  0  0  0  0  0  0  0  0
   12.3202    8.0182   -2.1667 C   0  0  0  0  0  0  0  0  0  0  0  0
   12.1011    9.2013   -2.8141 N   0  0  0  0  0  0  0  0  0  0  0  0
   11.6323    9.2563   -4.0801 C   0  0  0  0  0  0  0  0  0  0  0  0
   11.3621    8.1212   -4.7538 N   0  0  0  0  0  0  0  0  0  0  0  0
   12.2007    5.8852   -2.3866 H   0  0  0  0  0  0  0  0  0  0  0  0
   12.6935    7.9824   -1.1590 H   0  0  0  0  0  0  0  0  0  0  0  0
   11.4675   10.2037   -4.5695 H   0  0  0  0  0  0  0  0  0  0  0  0
   11.2561    5.6708   -4.9220 C   0  0  2  0  0  0  0  0  0  0  0  0
   12.5049    4.8497   -5.0242 C   0  0  0  0  0  0  0  0  0  0  0  0
   12.6997    4.3618   -6.4394 C   0  0  0  0  0  0  0  0  0  0  0  0
   11.4630    3.7087   -6.9929 C   0  0  2  0  0  0  0  0  0  0  0  0
   11.7684    3.3052   -8.3610 N   0  0  0  0  0  0  0  0  0  0  0  0
   10.3229    4.6903   -6.9433 C   0  0  0  0  0  0  0  0  0  0  0  0
   10.7005    5.9979   -6.2912 C   0  0  0  0  0  0  0  0  0  0  0  0
   10.4854    5.0926   -4.3838 H   0  0  0  0  0  0  0  0  0  0  0  0
   12.4904    3.9768   -4.3334 H   0  0  0  0  0  0  0  0  0  0  0  0
   13.3974    5.4433   -4.7425 H   0  0  0  0  0  0  0  0  0  0  0  0
   12.9259    5.2362   -7.1009 H   0  0  0  0  0  0  0  0  0  0  0  0
   13.5655    3.6851   -6.5140 H   0  0  0  0  0  0  0  0  0  0  0  0
   11.2257    2.8052   -6.3732 H   0  0  0  0  0  0  0  0  0  0  0  0
   11.2956    2.3982   -8.5541 H   0  0  0  0  0  0  0  0  0  0  0  0
   12.7977    3.1915   -8.4840 H   0  0  0  0  0  0  0  0  0  0  0  0
    9.4707    4.2773   -6.3341 H   0  0  0  0  0  0  0  0  0  0  0  0
    9.9880    4.8692   -7.9877 H   0  0  0  0  0  0  0  0  0  0  0  0
   11.3962    6.5766   -6.9043 H   0  0  0  0  0  0  0  0  0  0  0  0
    9.7556    6.5635   -6.1207 H   0  0  0  0  0  0  0  0  0  0  0  0
  1  2  2  0
  2  3  1  0
  4  3  2  0
  5  4  1  0
  6  1  1  0
  6  5  2  0
  2  7  1  0
  3  8  1  0
  5  9  1  0
 10 11  1  0
 11 12  1  0
 12 13  1  0
 13 14  1  0
 13 15  1  0
 15 16  1  0
 16 10  1  0
 10 17  1  1
 11 18  1  0
 11 19  1  0
 12 20  1  0
 12 21  1  0
 13 22  1  1
 14 23  1  0
 14 24  1  0
 15 25  1  0
 15 26  1  0
 16 27  1  0
 16 28  1  0
  1 10  1  0
M  END
>  <Score>  (1) 
-7.45907

$$$$

     RDKit          3D

 32 33  0  0  0  0  0  0  0  0999 V2000
   11.5585    6.9217   -4.1670 C   0  0  0  0  0  0  0  0  0  0  0  0
   12.0433    6.8273   -2.8560 C   0  0  0  0  0  0  0  0  0  0  0  0
   12.3207    8.0171   -2.1654 C   0  0  0  0  0  0  0  0  0  0  0  0
   12.1005    9.2032   -2.8157 N   0  0  0  0  0  0  0  0  0  0  0  0
   11.6324    9.2552   -4.0797 C   0  0  0  0  0  0  0  0  0  0  0  0
   11.3616    8.1254   -4.7552 N   0  0  0  0  0  0  0  0  0  0  0  0
   12.1896    5.8721   -2.4159 H   0  0  0  0  0  0  0  0  0  0  0  0
   12.6883    7.9547   -1.1719 H   0  0  0  0  0  0  0  0  0  0  0  0
   11.4900   10.2425   -4.5109 H   0  0  0  0  0  0  0  0  0  0  0  0
   11.2958    5.7417   -4.8183 O   0  0  0  0  0  0  0  0  0  0  0  0
   10.8082    5.6435   -6.1276 C   0  0  2  0  0  0  0  0  0  0  0  0
    9.5105    5.0807   -6.1509 O   0  0  0  0  0  0  0  0  0  0  0  0
    9.0582    5.3035   -7.4508 C   0  0  2  0  0  0  0  0  0  0  0  0
    7.5563    5.2447   -7.5371 C   0  0  0  0  0  0  0  0  0  0  0  0
    7.0168    6.2280   -6.7008 O   0  0  0  0  0  0  0  0  0  0  0  0
    9.7008    4.2692   -8.3326 C   0  0  1  0  0  0  0  0  0  0  0  0
    9.6627    4.7758   -9.6511 O   0  0  0  0  0  0  0  0  0  0  0  0
   11.0845    3.9259   -7.9419 C   0  0  2  0  0  0  0  0  0  0  0  0
   11.1246    2.6563   -7.3485 O   0  0  0  0  0  0  0  0  0  0  0  0
   11.7414    4.8820   -6.9953 C   0  0  2  0  0  0  0  0  0  0  0  0
   12.6771    4.2261   -6.1623 O   0  0  0  0  0  0  0  0  0  0  0  0
   10.6827    6.6692   -6.5165 H   0  0  0  0  0  0  0  0  0  0  0  0
    9.3944    6.3032   -7.8207 H   0  0  0  0  0  0  0  0  0  0  0  0
    7.1688    4.2583   -7.2723 H   0  0  0  0  0  0  0  0  0  0  0  0
    7.2296    5.5012   -8.5629 H   0  0  0  0  0  0  0  0  0  0  0  0
    7.3689    7.1037   -6.9363 H   0  0  0  0  0  0  0  0  0  0  0  0
    9.0819    3.3264   -8.3786 H   0  0  0  0  0  0  0  0  0  0  0  0
    8.7514    4.7782  -10.0160 H   0  0  0  0  0  0  0  0  0  0  0  0
   11.7136    3.8316   -8.8716 H   0  0  0  0  0  0  0  0  0  0  0  0
   10.3162    2.4587   -6.8187 H   0  0  0  0  0  0  0  0  0  0  0  0
   12.3423    5.5999   -7.5905 H   0  0  0  0  0  0  0  0  0  0  0  0
   12.2646    3.8662   -5.3567 H   0  0  0  0  0  0  0  0  0  0  0  0
  1  2  2  0
  2  3  1  0
  4  3  2  0
  5  4  1  0
  6  1  1  0
  6  5  2  0
  2  7  1  0
  3  8  1  0
  5  9  1  0
 10 11  1  0
 11 12  1  0
 12 13  1  0
 13 14  1  0
 14 15  1  0
 13 16  1  0
 16 17  1  0
 16 18  1  0
 18 19  1  0
 18 20  1  0
 20 21  1  0
 20 11  1  0
 11 22  1  6
 13 23  1  6
 14 24  1  0
 14 25  1  0
 15 26  1  0
 16 27  1  6
 17 28  1  0
 18 29  1  6
 19 30  1  0
 20 31  1  6
 21 32  1  0
  1 10  1  0
M  END
>  <Score>  (1) 
-7.39277

$$$$

     RDKit          3D

 29 30  0  0  0  0  0  0  0  0999 V2000
   11.5560    6.9283   -4.1741 C   0  0  0  0  0  0  0  0  0  0  0  0
   12.0451    6.8272   -2.8511 C   0  0  0  0  0  0  0  0  0  0  0  0
   12.3203    8.0178   -2.1666 C   0  0  0  0  0  0  0  0  0  0  0  0
   12.1008    9.2017   -2.8149 N   0  0  0  0  0  0  0  0  0  0  0  0
   11.6329    9.2584   -4.0784 C   0  0  0  0  0  0  0  0  0  0  0  0
   11.3620    8.1166   -4.7539 N   0  0  0  0  0  0  0  0  0  0  0  0
   12.2018    5.8786   -2.3832 H   0  0  0  0  0  0  0  0  0  0  0  0
   12.6965    8.0228   -1.1530 H   0  0  0  0  0  0  0  0  0  0  0  0
   11.4835   10.2303   -4.5279 H   0  0  0  0  0  0  0  0  0  0  0  0
   12.4165    2.0880   -7.8201 H   0  0  0  0  0  0  0  0  0  0  0  0
   11.5423    2.5419   -7.3468 C   0  0  0  0  0  0  0  0  0  0  0  0
   11.6350    4.0591   -7.3805 C   0  0  1  0  0  0  0  0  0  0  0  0
   10.3307    4.6775   -6.9462 C   0  0  0  0  0  0  0  0  0  0  0  0
   10.6836    6.0324   -6.3217 C   0  0  0  0  0  0  0  0  0  0  0  0
   11.2481    5.6919   -4.9444 C   0  0  1  0  0  0  0  0  0  0  0  0
   12.4535    4.8145   -5.1315 C   0  0  0  0  0  0  0  0  0  0  0  0
   12.7998    4.5705   -6.5721 C   0  0  0  0  0  0  0  0  0  0  0  0
   10.6024    2.2642   -7.8421 H   0  0  0  0  0  0  0  0  0  0  0  0
   11.4564    2.2299   -6.2696 H   0  0  0  0  0  0  0  0  0  0  0  0
   11.8041    4.3691   -8.4344 H   0  0  0  0  0  0  0  0  0  0  0  0
    9.9312    4.0138   -6.1281 H   0  0  0  0  0  0  0  0  0  0  0  0
    9.5948    4.7774   -7.7497 H   0  0  0  0  0  0  0  0  0  0  0  0
    9.7875    6.6595   -6.2439 H   0  0  0  0  0  0  0  0  0  0  0  0
   11.4340    6.5539   -6.9433 H   0  0  0  0  0  0  0  0  0  0  0  0
   10.4703    5.0804   -4.4415 H   0  0  0  0  0  0  0  0  0  0  0  0
   13.3241    5.3386   -4.6723 H   0  0  0  0  0  0  0  0  0  0  0  0
   12.3586    3.8502   -4.5804 H   0  0  0  0  0  0  0  0  0  0  0  0
   13.2289    5.4852   -7.0183 H   0  0  0  0  0  0  0  0  0  0  0  0
   13.5794    3.7714   -6.5875 H   0  0  0  0  0  0  0  0  0  0  0  0
  1  2  2  0
  2  3  1  0
  4  3  2  0
  5  4  1  0
  6  1  1  0
  6  5  2  0
  2  7  1  0
  3  8  1  0
  5  9  1  0
 10 11  1  0
 11 12  1  0
 12 13  1  0
 13 14  1  0
 14 15  1  0
 15 16  1  0
 16 17  1  0
 17 12  1  0
 11 18  1  0
 11 19  1  0
 12 20  1  6
 13 21  1  0
 13 22  1  0
 14 23  1  0
 14 24  1  0
 15 25  1  1
 16 26  1  0
 16 27  1  0
 17 28  1  0
 17 29  1  0
  1 15  1  0
M  END
>  <Score>  (1) 
-7.38685

$$$$

     RDKit          3D

 31 32  0  0  0  0  0  0  0  0999 V2000
   11.5562    6.9263   -4.1734 C   0  0  0  0  0  0  0  0  0  0  0  0
   12.0445    6.8277   -2.8526 C   0  0  0  0  0  0  0  0  0  0  0  0
   12.3205    8.0181   -2.1661 C   0  0  0  0  0  0  0  0  0  0  0  0
   12.1008    9.2019   -2.8148 N   0  0  0  0  0  0  0  0  0  0  0  0
   11.6326    9.2575   -4.0792 C   0  0  0  0  0  0  0  0  0  0  0  0
   11.3623    8.1185   -4.7530 N   0  0  0  0  0  0  0  0  0  0  0  0
   12.1969    5.8623   -2.3957 H   0  0  0  0  0  0  0  0  0  0  0  0
   12.6891    7.9564   -1.1697 H   0  0  0  0  0  0  0  0  0  0  0  0
   11.4959   10.2409   -4.4948 H   0  0  0  0  0  0  0  0  0  0  0  0
   11.2626    5.6648   -4.9042 C   0  0  1  0  0  0  0  0  0  0  0  0
   10.4927    5.9936   -6.0104 O   0  0  0  0  0  0  0  0  0  0  0  0
   10.4606    4.9786   -6.9598 C   0  0  1  0  0  0  0  0  0  0  0  0
    9.4436    5.3640   -8.0144 C   0  0  0  0  0  0  0  0  0  0  0  0
    8.1730    5.5271   -7.4927 O   0  0  0  0  0  0  0  0  0  0  0  0
   11.8141    5.0120   -7.6818 C   0  0  2  0  0  0  0  0  0  0  0  0
   11.9105    3.8971   -8.4841 O   0  0  0  0  0  0  0  0  0  0  0  0
   12.9454    5.1477   -6.6963 C   0  0  2  0  0  0  0  0  0  0  0  0
   13.9025    4.1878   -7.0326 O   0  0  0  0  0  0  0  0  0  0  0  0
   12.5224    4.9199   -5.2726 C   0  0  1  0  0  0  0  0  0  0  0  0
   13.5807    5.3802   -4.4593 O   0  0  0  0  0  0  0  0  0  0  0  0
   10.6712    4.9869   -4.2520 H   0  0  0  0  0  0  0  0  0  0  0  0
   10.2561    3.9967   -6.5209 H   0  0  0  0  0  0  0  0  0  0  0  0
    9.4572    4.5374   -8.7816 H   0  0  0  0  0  0  0  0  0  0  0  0
    9.8192    6.2575   -8.5478 H   0  0  0  0  0  0  0  0  0  0  0  0
    7.6607    6.0741   -8.1431 H   0  0  0  0  0  0  0  0  0  0  0  0
   11.8137    5.9181   -8.3249 H   0  0  0  0  0  0  0  0  0  0  0  0
   11.5364    3.1208   -8.0281 H   0  0  0  0  0  0  0  0  0  0  0  0
   13.4483    6.1306   -6.7638 H   0  0  0  0  0  0  0  0  0  0  0  0
   14.8115    4.5376   -6.9782 H   0  0  0  0  0  0  0  0  0  0  0  0
   12.4473    3.8293   -5.0812 H   0  0  0  0  0  0  0  0  0  0  0  0
   14.4078    4.8964   -4.7457 H   0  0  0  0  0  0  0  0  0  0  0  0
  1  2  2  0
  2  3  1  0
  4  3  2  0
  5  4  1  0
  6  1  1  0
  6  5  2  0
  2  7  1  0
  3  8  1  0
  5  9  1  0
 10 11  1  0
 11 12  1  0
 12 13  1  0
 13 14  1  0
 12 15  1  0
 15 16  1  0
 15 17  1  0
 17 18  1  0
 17 19  1  0
 19 20  1  0
 19 10  1  0
 10 21  1  1
 12 22  1  1
 13 23  1  0
 13 24  1  0
 14 25  1  0
 15 26  1  6
 16 27  1  0
 17 28  1  1
 18 29  1  0
 19 30  1  6
 20 31  1  0
  1 10  1  0
M  END
>  <Score>  (1) 
-7.33857

$$$$

     RDKit          3D

 23 24  0  0  0  0  0  0  0  0999 V2000
   11.5574    6.9145   -4.1707 C   0  0  0  0  0  0  0  0  0  0  0  0
   12.0402    6.8242   -2.8632 C   0  0  0  0  0  0  0  0  0  0  0  0
   12.3193    8.0297   -2.1700 C   0  0  0  0  0  0  0  0  0  0  0  0
   12.1007    9.2017   -2.8154 N   0  0  0  0  0  0  0  0  0  0  0  0
   11.6335    9.2537   -4.0761 C   0  0  0  0  0  0  0  0  0  0  0  0
   11.3659    8.1262   -4.7436 N   0  0  0  0  0  0  0  0  0  0  0  0
   12.1943    5.9143   -2.3432 H   0  0  0  0  0  0  0  0  0  0  0  0
   12.6940    7.9895   -1.1590 H   0  0  0  0  0  0  0  0  0  0  0  0
   11.4827   10.2154   -4.5276 H   0  0  0  0  0  0  0  0  0  0  0  0
   11.2934    5.7595   -4.9159 N   0  0  0  0  0  0  0  0  0  0  0  0
   10.0772    5.2668   -5.3846 C   0  0  0  0  0  0  0  0  0  0  0  0
    9.9707    4.6884   -6.6561 C   0  0  0  0  0  0  0  0  0  0  0  0
    8.7762    4.1645   -7.1003 C   0  0  0  0  0  0  0  0  0  0  0  0
    7.6451    4.1889   -6.3152 C   0  0  0  0  0  0  0  0  0  0  0  0
    7.7405    4.7539   -5.0657 C   0  0  0  0  0  0  0  0  0  0  0  0
    6.5781    4.7934   -4.2251 C   0  0  0  0  0  0  0  0  0  0  0  0
    5.6492    4.8406   -3.5377 N   0  0  0  0  0  0  0  0  0  0  0  0
    8.9505    5.2819   -4.6203 C   0  0  0  0  0  0  0  0  0  0  0  0
   12.1667    5.1690   -5.1619 H   0  0  0  0  0  0  0  0  0  0  0  0
   10.8795    4.6834   -7.2534 H   0  0  0  0  0  0  0  0  0  0  0  0
    8.7269    3.7311   -8.0730 H   0  0  0  0  0  0  0  0  0  0  0  0
    6.6999    3.7655   -6.6885 H   0  0  0  0  0  0  0  0  0  0  0  0
    8.9352    5.6781   -3.6215 H   0  0  0  0  0  0  0  0  0  0  0  0
  1  2  2  0
  2  3  1  0
  4  3  2  0
  5  4  1  0
  6  1  1  0
  6  5  2  0
  2  7  1  0
  3  8  1  0
  5  9  1  0
 10 11  1  0
 11 12  2  0
 12 13  1  0
 13 14  2  0
 14 15  1  0
 15 16  1  0
 16 17  3  0
 15 18  2  0
 18 11  1  0
 10 19  1  0
 12 20  1  0
 13 21  1  0
 14 22  1  0
 18 23  1  0
  1 10  1  0
M  END
>  <Score>  (1) 
-7.3222

$$$$

     RDKit          3D

 22 23  0  0  0  0  0  0  0  0999 V2000
   11.5585    6.9181   -4.1657 C   0  0  0  0  0  0  0  0  0  0  0  0
   12.0409    6.8210   -2.8631 C   0  0  0  0  0  0  0  0  0  0  0  0
   12.3193    8.0287   -2.1695 C   0  0  0  0  0  0  0  0  0  0  0  0
   12.1012    9.2001   -2.8131 N   0  0  0  0  0  0  0  0  0  0  0  0
   11.6320    9.2540   -4.0813 C   0  0  0  0  0  0  0  0  0  0  0  0
   11.3651    8.1281   -4.7462 N   0  0  0  0  0  0  0  0  0  0  0  0
   12.2359    5.8990   -2.3566 H   0  0  0  0  0  0  0  0  0  0  0  0
   12.6971    7.9879   -1.1485 H   0  0  0  0  0  0  0  0  0  0  0  0
   11.4905   10.2454   -4.5109 H   0  0  0  0  0  0  0  0  0  0  0  0
   11.2341    5.7558   -4.8935 N   0  0  0  0  0  0  0  0  0  0  0  0
   11.1429    5.6493   -6.3068 C   0  0  0  0  0  0  0  0  0  0  0  0
   10.1097    4.9061   -6.8915 C   0  0  0  0  0  0  0  0  0  0  0  0
    9.9867    4.7305   -8.2504 C   0  0  0  0  0  0  0  0  0  0  0  0
   10.9041    5.2973   -9.1092 C   0  0  0  0  0  0  0  0  0  0  0  0
   10.7699    5.1163  -10.4451 F   0  0  0  0  0  0  0  0  0  0  0  0
   11.9321    6.0334   -8.5646 C   0  0  0  0  0  0  0  0  0  0  0  0
   12.0478    6.2051   -7.1789 C   0  0  0  0  0  0  0  0  0  0  0  0
   11.0381    4.8757   -4.3351 H   0  0  0  0  0  0  0  0  0  0  0  0
    9.3982    4.4685   -6.1977 H   0  0  0  0  0  0  0  0  0  0  0  0
    9.1720    4.1462   -8.6877 H   0  0  0  0  0  0  0  0  0  0  0  0
   12.6394    6.4691   -9.2460 H   0  0  0  0  0  0  0  0  0  0  0  0
   12.9049    6.7790   -6.8264 H   0  0  0  0  0  0  0  0  0  0  0  0
  1  2  2  0
  2  3  1  0
  4  3  2  0
  5  4  1  0
  6  1  1  0
  6  5  2  0
  2  7  1  0
  3  8  1  0
  5  9  1  0
 10 11  1  0
 11 12  2  0
 12 13  1  0
 13 14  2  0
 14 15  1  0
 14 16  1  0
 16 17  2  0
 17 11  1  0
 10 18  1  0
 12 19  1  0
 13 20  1  0
 16 21  1  0
 17 22  1  0
  1 10  1  0
M  END
>  <Score>  (1) 
-7.28543

$$$$

     RDKit          3D

 28 30  0  0  0  0  0  0  0  0999 V2000
   11.5573    6.9246   -4.1702 C   0  0  0  0  0  0  0  0  0  0  0  0
   12.0435    6.8248   -2.8553 C   0  0  0  0  0  0  0  0  0  0  0  0
   12.3205    8.0231   -2.1662 C   0  0  0  0  0  0  0  0  0  0  0  0
   12.1021    9.1991   -2.8112 N   0  0  0  0  0  0  0  0  0  0  0  0
   11.6313    9.2555   -4.0826 C   0  0  0  0  0  0  0  0  0  0  0  0
   11.3622    8.1229   -4.7535 N   0  0  0  0  0  0  0  0  0  0  0  0
   12.2067    5.8860   -2.3707 H   0  0  0  0  0  0  0  0  0  0  0  0
   12.6958    8.0081   -1.1543 H   0  0  0  0  0  0  0  0  0  0  0  0
   11.4637   10.1887   -4.5789 H   0  0  0  0  0  0  0  0  0  0  0  0
   11.2686    5.7367   -4.8915 N   0  0  0  0  0  0  0  0  0  0  0  0
   12.2023    4.6778   -5.2236 C   0  0  0  0  0  0  0  0  0  0  0  0
   11.7261    4.1432   -6.5770 C   0  0  1  0  0  0  0  0  0  0  0  0
   11.5538    2.6639   -6.5792 C   0  0  0  0  0  0  0  0  0  0  0  0
   10.2336    2.3653   -7.0624 N   0  0  0  0  0  0  0  0  0  0  0  0
   10.2191    1.8738   -7.9704 H   0  0  0  0  0  0  0  0  0  0  0  0
    9.4667    3.5628   -7.0790 C   0  0  0  0  0  0  0  0  0  0  0  0
   10.3627    4.7179   -6.7472 C   0  0  1  0  0  0  0  0  0  0  0  0
   10.0049    5.3453   -5.4340 C   0  0  0  0  0  0  0  0  0  0  0  0
   12.1766    3.8607   -4.4905 H   0  0  0  0  0  0  0  0  0  0  0  0
   13.2339    5.0411   -5.2923 H   0  0  0  0  0  0  0  0  0  0  0  0
   12.4151    4.5084   -7.3690 H   0  0  0  0  0  0  0  0  0  0  0  0
   12.2931    2.1619   -7.2643 H   0  0  0  0  0  0  0  0  0  0  0  0
   11.7012    2.1874   -5.5919 H   0  0  0  0  0  0  0  0  0  0  0  0
    8.6887    3.4784   -6.2684 H   0  0  0  0  0  0  0  0  0  0  0  0
    8.9559    3.7610   -8.0434 H   0  0  0  0  0  0  0  0  0  0  0  0
   10.3844    5.4907   -7.5446 H   0  0  0  0  0  0  0  0  0  0  0  0
    9.3281    6.2146   -5.6493 H   0  0  0  0  0  0  0  0  0  0  0  0
    9.4705    4.6147   -4.7642 H   0  0  0  0  0  0  0  0  0  0  0  0
  1  2  2  0
  2  3  1  0
  4  3  2  0
  5  4  1  0
  6  1  1  0
  6  5  2  0
  2  7  1  0
  3  8  1  0
  5  9  1  0
 10 11  1  0
 11 12  1  0
 12 13  1  0
 13 14  1  0
 14 15  1  0
 14 16  1  0
 16 17  1  0
 17 18  1  0
 18 10  1  0
 17 12  1  0
 11 19  1  0
 11 20  1  0
 12 21  1  6
 13 22  1  0
 13 23  1  0
 16 24  1  0
 16 25  1  0
 17 26  1  6
 18 27  1  0
 18 28  1  0
  1 10  1  0
M  END
>  <Score>  (1) 
-7.27319

$$$$

     RDKit          3D

 29 30  0  0  0  0  0  0  0  0999 V2000
   11.5560    6.9257   -4.1740 C   0  0  0  0  0  0  0  0  0  0  0  0
   12.0455    6.8279   -2.8500 C   0  0  0  0  0  0  0  0  0  0  0  0
   12.3200    8.0179   -2.1673 C   0  0  0  0  0  0  0  0  0  0  0  0
   12.1012    9.2012   -2.8138 N   0  0  0  0  0  0  0  0  0  0  0  0
   11.6322    9.2562   -4.0804 C   0  0  0  0  0  0  0  0  0  0  0  0
   11.3621    8.1212   -4.7536 N   0  0  0  0  0  0  0  0  0  0  0  0
   12.1964    5.8672   -2.3973 H   0  0  0  0  0  0  0  0  0  0  0  0
   12.6918    7.9944   -1.1642 H   0  0  0  0  0  0  0  0  0  0  0  0
   11.4678   10.2043   -4.5688 H   0  0  0  0  0  0  0  0  0  0  0  0
    8.8002    4.8122   -8.8742 H   0  0  0  0  0  0  0  0  0  0  0  0
    9.8084    4.3880   -8.7314 C   0  0  0  0  0  0  0  0  0  0  0  0
   10.1873    4.3053   -7.2633 C   0  0  1  0  0  0  0  0  0  0  0  0
   11.6662    4.5830   -7.1391 C   0  0  0  0  0  0  0  0  0  0  0  0
   11.8838    5.8187   -6.2972 C   0  0  0  0  0  0  0  0  0  0  0  0
   11.2552    5.6761   -4.9245 C   0  0  2  0  0  0  0  0  0  0  0  0
    9.7814    5.4689   -5.0779 C   0  0  0  0  0  0  0  0  0  0  0  0
    9.3492    5.2895   -6.5039 C   0  0  0  0  0  0  0  0  0  0  0  0
    9.9138    3.3975   -9.2367 H   0  0  0  0  0  0  0  0  0  0  0  0
   10.5206    5.0704   -9.2263 H   0  0  0  0  0  0  0  0  0  0  0  0
    9.9311    3.2901   -6.8762 H   0  0  0  0  0  0  0  0  0  0  0  0
   12.1919    3.7148   -6.7161 H   0  0  0  0  0  0  0  0  0  0  0  0
   12.1205    4.7832   -8.1290 H   0  0  0  0  0  0  0  0  0  0  0  0
   12.9809    5.9699   -6.2191 H   0  0  0  0  0  0  0  0  0  0  0  0
   11.3823    6.6738   -6.7921 H   0  0  0  0  0  0  0  0  0  0  0  0
   11.7206    4.8122   -4.4068 H   0  0  0  0  0  0  0  0  0  0  0  0
    9.2175    6.3502   -4.6760 H   0  0  0  0  0  0  0  0  0  0  0  0
    9.4782    4.5828   -4.4787 H   0  0  0  0  0  0  0  0  0  0  0  0
    8.3037    4.8656   -6.4774 H   0  0  0  0  0  0  0  0  0  0  0  0
    9.2589    6.2674   -7.0340 H   0  0  0  0  0  0  0  0  0  0  0  0
  1  2  2  0
  2  3  1  0
  4  3  2  0
  5  4  1  0
  6  1  1  0
  6  5  2  0
  2  7  1  0
  3  8  1  0
  5  9  1  0
 10 11  1  0
 11 12  1  0
 12 13  1  0
 13 14  1  0
 14 15  1  0
 15 16  1  0
 16 17  1  0
 17 12  1  0
 11 18  1  0
 11 19  1  0
 12 20  1  1
 13 21  1  0
 13 22  1  0
 14 23  1  0
 14 24  1  0
 15 25  1  1
 16 26  1  0
 16 27  1  0
 17 28  1  0
 17 29  1  0
  1 15  1  0
M  END
>  <Score>  (1) 
-7.19516

$$$$

     RDKit          3D

 24 25  0  0  0  0  0  0  0  0999 V2000
   11.5605    6.9203   -4.1606 C   0  0  0  0  0  0  0  0  0  0  0  0
   12.0408    6.8245   -2.8635 C   0  0  0  0  0  0  0  0  0  0  0  0
   12.3185    8.0243   -2.1713 C   0  0  0  0  0  0  0  0  0  0  0  0
   12.1032    9.2004   -2.8079 N   0  0  0  0  0  0  0  0  0  0  0  0
   11.6307    9.2532   -4.0847 C   0  0  0  0  0  0  0  0  0  0  0  0
   11.3633    8.1274   -4.7510 N   0  0  0  0  0  0  0  0  0  0  0  0
   12.2415    5.9175   -2.3418 H   0  0  0  0  0  0  0  0  0  0  0  0
   12.6860    7.9305   -1.1757 H   0  0  0  0  0  0  0  0  0  0  0  0
   11.4913   10.2446   -4.5088 H   0  0  0  0  0  0  0  0  0  0  0  0
    9.9900    4.3216  -10.8836 H   0  0  0  0  0  0  0  0  0  0  0  0
   10.7960    4.9226  -10.4636 C   0  0  0  0  0  0  0  0  0  0  0  0
   11.6139    5.4103  -11.2719 O   0  0  0  0  0  0  0  0  0  0  0  0
   10.8889    5.1300   -9.0197 C   0  0  0  0  0  0  0  0  0  0  0  0
    9.9767    4.5836   -8.1429 C   0  0  0  0  0  0  0  0  0  0  0  0
   10.1024    4.8064   -6.7805 C   0  0  0  0  0  0  0  0  0  0  0  0
   11.1463    5.5830   -6.2629 C   0  0  0  0  0  0  0  0  0  0  0  0
   11.2444    5.7388   -4.8695 N   0  0  0  0  0  0  0  0  0  0  0  0
   12.0411    6.1152   -7.1453 C   0  0  0  0  0  0  0  0  0  0  0  0
   11.9238    5.8967   -8.5291 C   0  0  0  0  0  0  0  0  0  0  0  0
    9.1792    3.9881   -8.5623 H   0  0  0  0  0  0  0  0  0  0  0  0
    9.3856    4.3781   -6.0819 H   0  0  0  0  0  0  0  0  0  0  0  0
   11.0490    4.8318   -4.3147 H   0  0  0  0  0  0  0  0  0  0  0  0
   12.8728    6.6927   -6.8220 H   0  0  0  0  0  0  0  0  0  0  0  0
   12.6575    6.3386   -9.2105 H   0  0  0  0  0  0  0  0  0  0  0  0
  1  2  2  0
  2  3  1  0
  4  3  2  0
  5  4  1  0
  6  1  1  0
  6  5  2  0
  2  7  1  0
  3  8  1  0
  5  9  1  0
 10 11  1  0
 11 12  2  0
 11 13  1  0
 13 14  2  0
 14 15  1  0
 15 16  2  0
 16 17  1  0
 16 18  1  0
 18 19  2  0
 19 13  1  0
 14 20  1  0
 15 21  1  0
 17 22  1  0
 18 23  1  0
 19 24  1  0
  1 17  1  0
M  END
>  <Score>  (1) 
-7.18933

$$$$

     RDKit          3D

 26 27  0  0  0  0  0  0  0  0999 V2000
   11.5572    6.9240   -4.1706 C   0  0  0  0  0  0  0  0  0  0  0  0
   12.0440    6.8256   -2.8541 C   0  0  0  0  0  0  0  0  0  0  0  0
   12.3205    8.0215   -2.1662 C   0  0  0  0  0  0  0  0  0  0  0  0
   12.1017    9.1998   -2.8122 N   0  0  0  0  0  0  0  0  0  0  0  0
   11.6315    9.2552   -4.0821 C   0  0  0  0  0  0  0  0  0  0  0  0
   11.3622    8.1238   -4.7537 N   0  0  0  0  0  0  0  0  0  0  0  0
   12.2038    5.8806   -2.3779 H   0  0  0  0  0  0  0  0  0  0  0  0
   12.6920    7.9675   -1.1624 H   0  0  0  0  0  0  0  0  0  0  0  0
   11.4632   10.2037   -4.5810 H   0  0  0  0  0  0  0  0  0  0  0  0
   12.7625    2.5966   -5.4215 H   0  0  0  0  0  0  0  0  0  0  0  0
   12.2723    2.8494   -6.3966 C   0  0  0  0  0  0  0  0  0  0  0  0
   12.0073    4.3230   -6.5105 C   0  0  2  0  0  0  0  0  0  0  0  0
   12.3518    5.0144   -5.3725 O   0  0  0  0  0  0  0  0  0  0  0  0
   11.2604    5.7008   -4.9116 C   0  0  2  0  0  0  0  0  0  0  0  0
   10.4992    6.0326   -6.1939 C   0  0  2  0  0  0  0  0  0  0  0  0
    9.2184    6.4368   -5.9575 O   0  0  0  0  0  0  0  0  0  0  0  0
   10.5707    4.6356   -6.8302 C   0  0  1  0  0  0  0  0  0  0  0  0
   10.3088    4.6705   -8.1797 O   0  0  0  0  0  0  0  0  0  0  0  0
   11.3570    2.2636   -6.5131 H   0  0  0  0  0  0  0  0  0  0  0  0
   13.0029    2.5360   -7.1798 H   0  0  0  0  0  0  0  0  0  0  0  0
   12.6187    4.7517   -7.3510 H   0  0  0  0  0  0  0  0  0  0  0  0
   10.6059    5.0291   -4.3089 H   0  0  0  0  0  0  0  0  0  0  0  0
   11.1123    6.7003   -6.7970 H   0  0  0  0  0  0  0  0  0  0  0  0
    8.8755    6.8990   -6.7561 H   0  0  0  0  0  0  0  0  0  0  0  0
    9.9221    3.9578   -6.2524 H   0  0  0  0  0  0  0  0  0  0  0  0
    9.3477    4.8613   -8.2940 H   0  0  0  0  0  0  0  0  0  0  0  0
  1  2  2  0
  2  3  1  0
  4  3  2  0
  5  4  1  0
  6  1  1  0
  6  5  2  0
  2  7  1  0
  3  8  1  0
  5  9  1  0
 10 11  1  0
 11 12  1  0
 12 13  1  0
 13 14  1  0
 14 15  1  0
 15 16  1  0
 15 17  1  0
 17 18  1  0
 17 12  1  0
 11 19  1  0
 11 20  1  0
 12 21  1  6
 14 22  1  1
 15 23  1  6
 16 24  1  0
 17 25  1  1
 18 26  1  0
  1 14  1  0
M  END
>  <Score>  (1) 
-7.17927

$$$$

     RDKit          3D

 31 32  0  0  0  0  0  0  0  0999 V2000
   12.3023    8.1216   -2.3019 C   0  0  0  0  0  0  0  0  0  0  0  0
   12.0222    6.8843   -2.9110 C   0  0  0  0  0  0  0  0  0  0  0  0
   11.5235    6.8991   -4.2273 C   0  0  0  0  0  0  0  0  0  0  0  0
   11.3423    8.1060   -4.8314 N   0  0  0  0  0  0  0  0  0  0  0  0
   11.6241    9.2779   -4.2109 C   0  0  0  0  0  0  0  0  0  0  0  0
   12.1005    9.2821   -2.9555 N   0  0  0  0  0  0  0  0  0  0  0  0
   12.6855    8.1283   -1.2923 H   0  0  0  0  0  0  0  0  0  0  0  0
   12.1785    5.9591   -2.4020 H   0  0  0  0  0  0  0  0  0  0  0  0
   11.3093    5.9661   -4.6946 H   0  0  0  0  0  0  0  0  0  0  0  0
   11.3981   10.5554   -4.9405 C   0  0  2  0  0  0  0  0  0  0  0  0
   10.9079   10.2086   -6.1970 O   0  0  0  0  0  0  0  0  0  0  0  0
   10.7556   11.3073   -7.0299 C   0  0  2  0  0  0  0  0  0  0  0  0
   10.0661   10.8216   -8.2891 C   0  0  0  0  0  0  0  0  0  0  0  0
    8.8285   10.2868   -7.9180 O   0  0  0  0  0  0  0  0  0  0  0  0
   12.0698   11.9753   -7.3479 C   0  0  1  0  0  0  0  0  0  0  0  0
   11.9770   13.3616   -7.3048 O   0  0  0  0  0  0  0  0  0  0  0  0
   13.1746   11.4917   -6.4452 C   0  0  2  0  0  0  0  0  0  0  0  0
   13.6720   10.3098   -6.9494 O   0  0  0  0  0  0  0  0  0  0  0  0
   12.6718   11.3642   -5.0302 C   0  0  2  0  0  0  0  0  0  0  0  0
   13.6850   10.7519   -4.2844 O   0  0  0  0  0  0  0  0  0  0  0  0
   10.6158   11.1094   -4.4024 H   0  0  0  0  0  0  0  0  0  0  0  0
   10.0827   12.0471   -6.5449 H   0  0  0  0  0  0  0  0  0  0  0  0
   10.6782   10.0350   -8.7302 H   0  0  0  0  0  0  0  0  0  0  0  0
    9.9187   11.6386   -9.0219 H   0  0  0  0  0  0  0  0  0  0  0  0
    8.3074   10.9844   -7.4548 H   0  0  0  0  0  0  0  0  0  0  0  0
   12.3619   11.7108   -8.4045 H   0  0  0  0  0  0  0  0  0  0  0  0
   12.6413   13.7926   -7.9023 H   0  0  0  0  0  0  0  0  0  0  0  0
   13.9835   12.2364   -6.4466 H   0  0  0  0  0  0  0  0  0  0  0  0
   12.9571    9.7710   -7.3834 H   0  0  0  0  0  0  0  0  0  0  0  0
   12.5184   12.4024   -4.6431 H   0  0  0  0  0  0  0  0  0  0  0  0
   13.6836   11.1481   -3.3595 H   0  0  0  0  0  0  0  0  0  0  0  0
  2  1  2  0
  3  2  1  0
  4  3  2  0
  4  5  1  0
  5  6  2  0
  6  1  1  0
  1  7  1  0
  2  8  1  0
  3  9  1  0
 10 11  1  0
 11 12  1  0
 12 13  1  0
 13 14  1  0
 12 15  1  0
 15 16  1  0
 15 17  1  0
 17 18  1  0
 17 19  1  0
 19 20  1  0
 19 10  1  0
 10 21  1  1
 12 22  1  1
 13 23  1  0
 13 24  1  0
 14 25  1  0
 15 26  1  6
 16 27  1  0
 17 28  1  1
 18 29  1  0
 19 30  1  1
 20 31  1  0
  5 10  1  0
M  END
>  <Score>  (1) 
-7.76576

$$$$

     RDKit          3D

 25 27  0  0  0  0  0  0  0  0999 V2000
   11.5582    6.9139   -4.1683 C   0  0  0  0  0  0  0  0  0  0  0  0
   12.0398    6.8293   -2.8646 C   0  0  0  0  0  0  0  0  0  0  0  0
   12.3202    8.0252   -2.1675 C   0  0  0  0  0  0  0  0  0  0  0  0
   12.1013    9.2028   -2.8141 N   0  0  0  0  0  0  0  0  0  0  0  0
   11.6328    9.2513   -4.0780 C   0  0  0  0  0  0  0  0  0  0  0  0
   11.3648    8.1276   -4.7465 N   0  0  0  0  0  0  0  0  0  0  0  0
   12.1912    5.9190   -2.3514 H   0  0  0  0  0  0  0  0  0  0  0  0
   12.6885    8.0359   -1.1762 H   0  0  0  0  0  0  0  0  0  0  0  0
   11.4782   10.2159   -4.5398 H   0  0  0  0  0  0  0  0  0  0  0  0
   11.2814    5.7762   -4.9475 N   0  0  0  0  0  0  0  0  0  0  0  0
   10.4366    5.6928   -6.0791 C   0  0  0  0  0  0  0  0  0  0  0  0
   10.8110    4.9003   -7.1745 C   0  0  0  0  0  0  0  0  0  0  0  0
   10.0102    4.7527   -8.2844 C   0  0  0  0  0  0  0  0  0  0  0  0
    8.7883    5.3896   -8.3623 C   0  0  0  0  0  0  0  0  0  0  0  0
    7.8089    5.4373   -9.2934 N   0  0  0  0  0  0  0  0  0  0  0  0
    6.8283    6.2198   -8.8470 N   0  0  0  0  0  0  0  0  0  0  0  0
    7.1727    6.6871   -7.6113 C   0  0  0  0  0  0  0  0  0  0  0  0
    8.4090    6.1677   -7.2978 C   0  0  0  0  0  0  0  0  0  0  0  0
    9.2193    6.3098   -6.1869 C   0  0  0  0  0  0  0  0  0  0  0  0
   11.7503    4.8412   -4.6840 H   0  0  0  0  0  0  0  0  0  0  0  0
   11.7683    4.4144   -7.0891 H   0  0  0  0  0  0  0  0  0  0  0  0
   10.3397    4.1278   -9.1124 H   0  0  0  0  0  0  0  0  0  0  0  0
    7.8488    4.9304  -10.2030 H   0  0  0  0  0  0  0  0  0  0  0  0
    6.5973    7.3439   -6.9785 H   0  0  0  0  0  0  0  0  0  0  0  0
    8.8551    6.9160   -5.3637 H   0  0  0  0  0  0  0  0  0  0  0  0
  1  2  2  0
  2  3  1  0
  4  3  2  0
  5  4  1  0
  6  1  1  0
  6  5  2  0
  2  7  1  0
  3  8  1  0
  5  9  1  0
 10 11  1  0
 11 12  2  0
 12 13  1  0
 13 14  2  0
 14 15  1  0
 15 16  1  0
 16 17  2  0
 17 18  1  0
 18 19  2  0
 19 11  1  0
 18 14  1  0
 10 20  1  0
 12 21  1  0
 13 22  1  0
 15 23  1  0
 17 24  1  0
 19 25  1  0
  1 10  1  0
M  END
>  <Score>  (1) 
-7.17332

$$$$

     RDKit          3D

 26 27  0  0  0  0  0  0  0  0999 V2000
   11.5601    6.9227   -4.1618 C   0  0  0  0  0  0  0  0  0  0  0  0
   12.0415    6.8184   -2.8613 C   0  0  0  0  0  0  0  0  0  0  0  0
   12.3187    8.0263   -2.1709 C   0  0  0  0  0  0  0  0  0  0  0  0
   12.1022    9.2008   -2.8105 N   0  0  0  0  0  0  0  0  0  0  0  0
   11.6310    9.2540   -4.0839 C   0  0  0  0  0  0  0  0  0  0  0  0
   11.3635    8.1277   -4.7506 N   0  0  0  0  0  0  0  0  0  0  0  0
   12.2376    5.9095   -2.3508 H   0  0  0  0  0  0  0  0  0  0  0  0
   12.6854    7.9515   -1.1783 H   0  0  0  0  0  0  0  0  0  0  0  0
   11.4752   10.2242   -4.5514 H   0  0  0  0  0  0  0  0  0  0  0  0
   11.2389    5.7584   -4.8846 N   0  0  0  0  0  0  0  0  0  0  0  0
   11.4209    5.5385   -6.2632 C   0  0  0  0  0  0  0  0  0  0  0  0
   12.5783    5.9278   -6.8858 C   0  0  0  0  0  0  0  0  0  0  0  0
   12.7230    5.7279   -8.2673 C   0  0  0  0  0  0  0  0  0  0  0  0
   11.7174    5.1446   -9.0046 C   0  0  0  0  0  0  0  0  0  0  0  0
   10.5469    4.7450   -8.3984 C   0  0  0  0  0  0  0  0  0  0  0  0
    9.5475    4.1566   -9.1731 O   0  0  0  0  0  0  0  0  0  0  0  0
    8.3636    3.7631   -8.5037 C   0  0  0  0  0  0  0  0  0  0  0  0
   10.4369    4.9531   -7.0574 C   0  0  0  0  0  0  0  0  0  0  0  0
   10.8035    4.9221   -4.3622 H   0  0  0  0  0  0  0  0  0  0  0  0
   13.3915    6.3626   -6.3289 H   0  0  0  0  0  0  0  0  0  0  0  0
   13.6344    6.0381   -8.7443 H   0  0  0  0  0  0  0  0  0  0  0  0
   11.8627    5.0062  -10.0653 H   0  0  0  0  0  0  0  0  0  0  0  0
    7.5433    3.5247   -9.2143 H   0  0  0  0  0  0  0  0  0  0  0  0
    8.6071    2.8504   -7.9000 H   0  0  0  0  0  0  0  0  0  0  0  0
    7.9662    4.5589   -7.8377 H   0  0  0  0  0  0  0  0  0  0  0  0
    9.5376    4.6561   -6.5392 H   0  0  0  0  0  0  0  0  0  0  0  0
  1  2  2  0
  2  3  1  0
  4  3  2  0
  5  4  1  0
  6  1  1  0
  6  5  2  0
  2  7  1  0
  3  8  1  0
  5  9  1  0
 10 11  1  0
 11 12  2  0
 12 13  1  0
 13 14  2  0
 14 15  1  0
 15 16  1  0
 16 17  1  0
 15 18  2  0
 18 11  1  0
 10 19  1  0
 12 20  1  0
 13 21  1  0
 14 22  1  0
 17 23  1  0
 17 24  1  0
 17 25  1  0
 18 26  1  0
  1 10  1  0
M  END
>  <Score>  (1) 
-7.16088

$$$$

     RDKit          3D

 27 28  0  0  0  0  0  0  0  0999 V2000
   11.5563    6.9254   -4.1730 C   0  0  0  0  0  0  0  0  0  0  0  0
   12.0451    6.8274   -2.8512 C   0  0  0  0  0  0  0  0  0  0  0  0
   12.3203    8.0183   -2.1667 C   0  0  0  0  0  0  0  0  0  0  0  0
   12.1011    9.2013   -2.8140 N   0  0  0  0  0  0  0  0  0  0  0  0
   11.6322    9.2562   -4.0804 C   0  0  0  0  0  0  0  0  0  0  0  0
   11.3621    8.1215   -4.7538 N   0  0  0  0  0  0  0  0  0  0  0  0
   12.2059    5.8892   -2.3728 H   0  0  0  0  0  0  0  0  0  0  0  0
   12.6988    7.9938   -1.1452 H   0  0  0  0  0  0  0  0  0  0  0  0
   11.4729   10.2144   -4.5555 H   0  0  0  0  0  0  0  0  0  0  0  0
   11.2812    5.6483   -4.8532 C   0  0  2  0  0  0  0  0  0  0  0  0
   12.1392    4.6960   -4.3638 O   0  0  0  0  0  0  0  0  0  0  0  0
   13.2939    4.6981   -5.0971 C   0  0  1  0  0  0  0  0  0  0  0  0
   13.4788    3.2927   -5.6857 C   0  0  0  0  0  0  0  0  0  0  0  0
   13.5671    2.3500   -4.6640 O   0  0  0  0  0  0  0  0  0  0  0  0
   13.1149    5.6428   -6.2596 C   0  0  1  0  0  0  0  0  0  0  0  0
   13.6310    5.1371   -7.4430 O   0  0  0  0  0  0  0  0  0  0  0  0
   11.6008    5.6958   -6.3241 C   0  0  2  0  0  0  0  0  0  0  0  0
   11.2188    6.8704   -6.9358 O   0  0  0  0  0  0  0  0  0  0  0  0
   10.2187    5.3699   -4.6501 H   0  0  0  0  0  0  0  0  0  0  0  0
   14.1806    4.9415   -4.4868 H   0  0  0  0  0  0  0  0  0  0  0  0
   12.6251    3.0449   -6.3425 H   0  0  0  0  0  0  0  0  0  0  0  0
   14.4361    3.2369   -6.2592 H   0  0  0  0  0  0  0  0  0  0  0  0
   14.5150    2.0622   -4.5225 H   0  0  0  0  0  0  0  0  0  0  0  0
   13.4685    6.6518   -6.0125 H   0  0  0  0  0  0  0  0  0  0  0  0
   14.6103    5.1522   -7.3690 H   0  0  0  0  0  0  0  0  0  0  0  0
   11.2269    4.7835   -6.8104 H   0  0  0  0  0  0  0  0  0  0  0  0
   10.4692    6.7735   -7.5558 H   0  0  0  0  0  0  0  0  0  0  0  0
  1  2  2  0
  2  3  1  0
  4  3  2  0
  5  4  1  0
  6  1  1  0
  6  5  2  0
  2  7  1  0
  3  8  1  0
  5  9  1  0
 10 11  1  0
 11 12  1  0
 12 13  1  0
 13 14  1  0
 12 15  1  0
 15 16  1  0
 15 17  1  0
 17 18  1  0
 17 10  1  0
 10 19  1  6
 12 20  1  1
 13 21  1  0
 13 22  1  0
 14 23  1  0
 15 24  1  1
 16 25  1  0
 17 26  1  6
 18 27  1  0
  1 10  1  0
M  END
>  <Score>  (1) 
-7.13892

$$$$

     RDKit          3D

 22 23  0  0  0  0  0  0  0  0999 V2000
   11.5585    6.9242   -4.1670 C   0  0  0  0  0  0  0  0  0  0  0  0
   12.0425    6.8254   -2.8580 C   0  0  0  0  0  0  0  0  0  0  0  0
   12.3208    8.0211   -2.1654 C   0  0  0  0  0  0  0  0  0  0  0  0
   12.1016    9.2007   -2.8126 N   0  0  0  0  0  0  0  0  0  0  0  0
   11.6317    9.2560   -4.0816 C   0  0  0  0  0  0  0  0  0  0  0  0
   11.3619    8.1226   -4.7544 N   0  0  0  0  0  0  0  0  0  0  0  0
   12.2084    5.9005   -2.3666 H   0  0  0  0  0  0  0  0  0  0  0  0
   12.6950    8.0068   -1.1561 H   0  0  0  0  0  0  0  0  0  0  0  0
   11.4954   10.2461   -4.4964 H   0  0  0  0  0  0  0  0  0  0  0  0
   11.2753    5.7380   -4.8733 N   0  0  0  0  0  0  0  0  0  0  0  0
   10.4956    5.7468   -6.0700 C   0  0  0  0  0  0  0  0  0  0  0  0
   10.2217    4.6202   -6.7485 N   0  0  0  0  0  0  0  0  0  0  0  0
    9.4784    4.6357   -7.8876 C   0  0  0  0  0  0  0  0  0  0  0  0
    8.9821    5.8139   -8.3817 C   0  0  0  0  0  0  0  0  0  0  0  0
    7.9291    5.8872   -9.9839 Br  0  0  0  0  0  0  0  0  0  0  0  0
    9.2685    6.9779   -7.6755 C   0  0  0  0  0  0  0  0  0  0  0  0
    8.7789    8.2236   -8.1438 N   0  0  0  0  0  0  0  0  0  0  0  0
    9.2193    9.1210   -7.8587 H   0  0  0  0  0  0  0  0  0  0  0  0
   10.0057    6.9022   -6.5592 N   0  0  0  0  0  0  0  0  0  0  0  0
   11.6272    4.8130   -4.5437 H   0  0  0  0  0  0  0  0  0  0  0  0
    9.2585    3.7309   -8.4324 H   0  0  0  0  0  0  0  0  0  0  0  0
    7.9639    8.2715   -8.7866 H   0  0  0  0  0  0  0  0  0  0  0  0
  1  2  2  0
  2  3  1  0
  4  3  2  0
  5  4  1  0
  6  1  1  0
  6  5  2  0
  2  7  1  0
  3  8  1  0
  5  9  1  0
 10 11  1  0
 11 12  2  0
 12 13  1  0
 13 14  2  0
 14 15  1  0
 14 16  1  0
 16 17  1  0
 17 18  1  0
 16 19  2  0
 19 11  1  0
 10 20  1  0
 13 21  1  0
 17 22  1  0
  1 10  1  0
M  END
>  <Score>  (1) 
-7.12383

$$$$

     RDKit          3D

 22 23  0  0  0  0  0  0  0  0999 V2000
   11.5566    6.9219   -4.1722 C   0  0  0  0  0  0  0  0  0  0  0  0
   12.0446    6.8285   -2.8524 C   0  0  0  0  0  0  0  0  0  0  0  0
   12.3202    8.0190   -2.1668 C   0  0  0  0  0  0  0  0  0  0  0  0
   12.1018    9.2007   -2.8119 N   0  0  0  0  0  0  0  0  0  0  0  0
   11.6310    9.2541   -4.0834 C   0  0  0  0  0  0  0  0  0  0  0  0
   11.3627    8.1259   -4.7523 N   0  0  0  0  0  0  0  0  0  0  0  0
   12.1995    5.8711   -2.3892 H   0  0  0  0  0  0  0  0  0  0  0  0
   12.6955    7.9765   -1.1534 H   0  0  0  0  0  0  0  0  0  0  0  0
   11.4889   10.2200   -4.5128 H   0  0  0  0  0  0  0  0  0  0  0  0
   11.2656    5.7370   -4.8993 N   0  0  0  0  0  0  0  0  0  0  0  0
   10.7755    5.8163   -6.2239 C   0  0  0  0  0  0  0  0  0  0  0  0
   10.5790    7.0318   -6.8116 N   0  0  0  0  0  0  0  0  0  0  0  0
   10.1128    7.1080   -8.0718 C   0  0  0  0  0  0  0  0  0  0  0  0
    9.8385    5.9440   -8.7546 C   0  0  0  0  0  0  0  0  0  0  0  0
    9.2331    6.0740  -10.3919 Cl  0  0  0  0  0  0  0  0  0  0  0  0
   10.0382    4.7143   -8.1572 C   0  0  0  0  0  0  0  0  0  0  0  0
    9.7628    3.5138   -8.8412 N   0  0  0  0  0  0  0  0  0  0  0  0
    9.7909    2.5968   -8.3711 H   0  0  0  0  0  0  0  0  0  0  0  0
   10.5042    4.7126   -6.9017 N   0  0  0  0  0  0  0  0  0  0  0  0
   11.4034    4.7974   -4.4831 H   0  0  0  0  0  0  0  0  0  0  0  0
    9.9659    8.0916   -8.5148 H   0  0  0  0  0  0  0  0  0  0  0  0
    9.5242    3.5465   -9.8469 H   0  0  0  0  0  0  0  0  0  0  0  0
  1  2  2  0
  2  3  1  0
  4  3  2  0
  5  4  1  0
  6  1  1  0
  6  5  2  0
  2  7  1  0
  3  8  1  0
  5  9  1  0
 10 11  1  0
 11 12  2  0
 12 13  1  0
 13 14  2  0
 14 15  1  0
 14 16  1  0
 16 17  1  0
 17 18  1  0
 16 19  2  0
 19 11  1  0
 10 20  1  0
 13 21  1  0
 17 22  1  0
  1 10  1  0
M  END
>  <Score>  (1) 
-7.10593

$$$$

     RDKit          3D

 25 26  0  0  0  0  0  0  0  0999 V2000
   11.5573    6.9230   -4.1704 C   0  0  0  0  0  0  0  0  0  0  0  0
   12.0447    6.8272   -2.8521 C   0  0  0  0  0  0  0  0  0  0  0  0
   12.3203    8.0175   -2.1666 C   0  0  0  0  0  0  0  0  0  0  0  0
   12.1014    9.2023   -2.8133 N   0  0  0  0  0  0  0  0  0  0  0  0
   11.6316    9.2549   -4.0817 C   0  0  0  0  0  0  0  0  0  0  0  0
   11.3618    8.1251   -4.7548 N   0  0  0  0  0  0  0  0  0  0  0  0
   12.2087    5.8979   -2.3660 H   0  0  0  0  0  0  0  0  0  0  0  0
   12.6873    7.9455   -1.1739 H   0  0  0  0  0  0  0  0  0  0  0  0
   11.4647   10.1990   -4.5756 H   0  0  0  0  0  0  0  0  0  0  0  0
   11.2831    5.7534   -4.8526 O   0  0  0  0  0  0  0  0  0  0  0  0
   10.9912    5.7741   -6.2149 C   0  0  0  0  0  0  0  0  0  0  0  0
    9.6753    5.9114   -6.6221 C   0  0  0  0  0  0  0  0  0  0  0  0
    9.3487    5.9362   -7.9402 C   0  0  0  0  0  0  0  0  0  0  0  0
   10.3250    5.8246   -8.9040 C   0  0  0  0  0  0  0  0  0  0  0  0
    9.9805    5.8512  -10.2429 O   0  0  0  0  0  0  0  0  0  0  0  0
    8.6281    5.9921  -10.6310 C   0  0  0  0  0  0  0  0  0  0  0  0
   11.6530    5.6858   -8.5222 C   0  0  0  0  0  0  0  0  0  0  0  0
   11.9706    5.6621   -7.1818 C   0  0  0  0  0  0  0  0  0  0  0  0
    8.9239    5.9979   -5.8355 H   0  0  0  0  0  0  0  0  0  0  0  0
    8.3194    6.0435   -8.2548 H   0  0  0  0  0  0  0  0  0  0  0  0
    8.0623    5.1817  -10.1136 H   0  0  0  0  0  0  0  0  0  0  0  0
    8.5983    5.8418  -11.7362 H   0  0  0  0  0  0  0  0  0  0  0  0
    8.2117    6.9457  -10.3030 H   0  0  0  0  0  0  0  0  0  0  0  0
   12.3997    5.6000   -9.3020 H   0  0  0  0  0  0  0  0  0  0  0  0
   13.0061    5.5543   -6.8765 H   0  0  0  0  0  0  0  0  0  0  0  0
  1  2  2  0
  2  3  1  0
  4  3  2  0
  5  4  1  0
  6  1  1  0
  6  5  2  0
  2  7  1  0
  3  8  1  0
  5  9  1  0
 10 11  1  0
 11 12  2  0
 12 13  1  0
 13 14  2  0
 14 15  1  0
 15 16  1  0
 14 17  1  0
 17 18  2  0
 18 11  1  0
 12 19  1  0
 13 20  1  0
 16 21  1  0
 16 22  1  0
 16 23  1  0
 17 24  1  0
 18 25  1  0
  1 10  1  0
M  END
>  <Score>  (1) 
-7.10175

$$$$

     RDKit          3D

 25 26  0  0  0  0  0  0  0  0999 V2000
   11.5580    6.9193   -4.1681 C   0  0  0  0  0  0  0  0  0  0  0  0
   12.0436    6.8297   -2.8552 C   0  0  0  0  0  0  0  0  0  0  0  0
   12.3205    8.0161   -2.1658 C   0  0  0  0  0  0  0  0  0  0  0  0
   12.1005    9.2024   -2.8157 N   0  0  0  0  0  0  0  0  0  0  0  0
   11.6317    9.2545   -4.0816 C   0  0  0  0  0  0  0  0  0  0  0  0
   11.3626    8.1281   -4.7526 N   0  0  0  0  0  0  0  0  0  0  0  0
   12.2092    5.8822   -2.3632 H   0  0  0  0  0  0  0  0  0  0  0  0
   12.6902    7.9766   -1.1678 H   0  0  0  0  0  0  0  0  0  0  0  0
   11.4748   10.2213   -4.5508 H   0  0  0  0  0  0  0  0  0  0  0  0
   11.2688    5.7287   -4.8911 N   0  0  0  0  0  0  0  0  0  0  0  0
   10.0902    4.9690   -4.5820 C   0  0  0  0  0  0  0  0  0  0  0  0
    9.0382    5.1088   -5.6783 C   0  0  0  0  0  0  0  0  0  0  0  0
    9.8414    4.6343   -7.1991 S   0  0  0  0  0  6  0  0  0  0  0  0
    9.1557    3.4126   -7.7414 O   0  0  0  0  0  0  0  0  0  0  0  0
    9.8468    5.7661   -8.1672 O   0  0  0  0  0  0  0  0  0  0  0  0
   11.5208    4.2165   -6.7982 C   0  0  0  0  0  0  0  0  0  0  0  0
   12.1625    5.2860   -5.9365 C   0  0  0  0  0  0  0  0  0  0  0  0
    9.6012    5.3432   -3.6530 H   0  0  0  0  0  0  0  0  0  0  0  0
   10.2868    3.8919   -4.4485 H   0  0  0  0  0  0  0  0  0  0  0  0
    8.6722    6.1297   -5.7856 H   0  0  0  0  0  0  0  0  0  0  0  0
    8.2265    4.4266   -5.4254 H   0  0  0  0  0  0  0  0  0  0  0  0
   12.0834    4.1149   -7.7375 H   0  0  0  0  0  0  0  0  0  0  0  0
   11.4945    3.2851   -6.1943 H   0  0  0  0  0  0  0  0  0  0  0  0
   13.0831    4.8773   -5.4732 H   0  0  0  0  0  0  0  0  0  0  0  0
   12.4370    6.1353   -6.5754 H   0  0  0  0  0  0  0  0  0  0  0  0
  1  2  2  0
  2  3  1  0
  4  3  2  0
  5  4  1  0
  6  1  1  0
  6  5  2  0
  2  7  1  0
  3  8  1  0
  5  9  1  0
 10 11  1  0
 11 12  1  0
 12 13  1  0
 13 14  2  0
 13 15  2  0
 13 16  1  0
 16 17  1  0
 17 10  1  0
 11 18  1  0
 11 19  1  0
 12 20  1  0
 12 21  1  0
 16 22  1  0
 16 23  1  0
 17 24  1  0
 17 25  1  0
  1 10  1  0
M  END
>  <Score>  (1) 
-7.07298

$$$$

     RDKit          3D

 31 32  0  0  0  0  0  0  0  0999 V2000
   11.5570    6.9244   -4.1710 C   0  0  0  0  0  0  0  0  0  0  0  0
   12.0439    6.8266   -2.8544 C   0  0  0  0  0  0  0  0  0  0  0  0
   12.3205    8.0203   -2.1661 C   0  0  0  0  0  0  0  0  0  0  0  0
   12.1015    9.2006   -2.8129 N   0  0  0  0  0  0  0  0  0  0  0  0
   11.6318    9.2558   -4.0814 C   0  0  0  0  0  0  0  0  0  0  0  0
   11.3623    8.1223   -4.7533 N   0  0  0  0  0  0  0  0  0  0  0  0
   12.1896    5.8638   -2.4154 H   0  0  0  0  0  0  0  0  0  0  0  0
   12.6907    7.9642   -1.1659 H   0  0  0  0  0  0  0  0  0  0  0  0
   11.4827   10.2276   -4.5299 H   0  0  0  0  0  0  0  0  0  0  0  0
   11.2443    5.6881   -4.9545 C   0  0  1  0  0  0  0  0  0  0  0  0
    9.9737    5.3084   -4.7743 O   0  0  0  0  0  0  0  0  0  0  0  0
    9.0101    5.6685   -5.6272 C   0  0  2  0  0  0  0  0  0  0  0  0
    7.9565    4.5501   -5.6442 C   0  0  0  0  0  0  0  0  0  0  0  0
    7.4076    4.3518   -4.3907 O   0  0  0  0  0  0  0  0  0  0  0  0
    9.3803    5.9530   -7.0308 C   0  0  2  0  0  0  0  0  0  0  0  0
    8.4187    5.4758   -7.9263 O   0  0  0  0  0  0  0  0  0  0  0  0
   10.7280    5.3701   -7.3850 C   0  0  2  0  0  0  0  0  0  0  0  0
   10.7523    3.9882   -7.2733 O   0  0  0  0  0  0  0  0  0  0  0  0
   11.6974    5.9222   -6.3583 C   0  0  1  0  0  0  0  0  0  0  0  0
   11.8007    7.2978   -6.6104 O   0  0  0  0  0  0  0  0  0  0  0  0
   11.9125    4.8747   -4.5395 H   0  0  0  0  0  0  0  0  0  0  0  0
    8.4503    6.5642   -5.2287 H   0  0  0  0  0  0  0  0  0  0  0  0
    8.4669    3.5887   -5.9401 H   0  0  0  0  0  0  0  0  0  0  0  0
    7.1794    4.7276   -6.3897 H   0  0  0  0  0  0  0  0  0  0  0  0
    6.4154    4.4078   -4.3878 H   0  0  0  0  0  0  0  0  0  0  0  0
    9.4661    7.0551   -7.1808 H   0  0  0  0  0  0  0  0  0  0  0  0
    8.0161    6.1991   -8.4655 H   0  0  0  0  0  0  0  0  0  0  0  0
   11.0211    5.7122   -8.3849 H   0  0  0  0  0  0  0  0  0  0  0  0
   11.6828    3.7053   -7.4670 H   0  0  0  0  0  0  0  0  0  0  0  0
   12.6883    5.4663   -6.5742 H   0  0  0  0  0  0  0  0  0  0  0  0
   12.6268    7.6784   -6.2525 H   0  0  0  0  0  0  0  0  0  0  0  0
  1  2  2  0
  2  3  1  0
  4  3  2  0
  5  4  1  0
  6  1  1  0
  6  5  2  0
  2  7  1  0
  3  8  1  0
  5  9  1  0
 10 11  1  0
 11 12  1  0
 12 13  1  0
 13 14  1  0
 12 15  1  0
 15 16  1  0
 15 17  1  0
 17 18  1  0
 17 19  1  0
 19 20  1  0
 19 10  1  0
 10 21  1  1
 12 22  1  1
 13 23  1  0
 13 24  1  0
 14 25  1  0
 15 26  1  1
 16 27  1  0
 17 28  1  6
 18 29  1  0
 19 30  1  1
 20 31  1  0
  1 10  1  0
M  END
>  <Score>  (1) 
-7.04985

$$$$

     RDKit          3D

 23 24  0  0  0  0  0  0  0  0999 V2000
   11.5568    6.9245   -4.1716 C   0  0  0  0  0  0  0  0  0  0  0  0
   12.0447    6.8283   -2.8522 C   0  0  0  0  0  0  0  0  0  0  0  0
   12.3203    8.0168   -2.1664 C   0  0  0  0  0  0  0  0  0  0  0  0
   12.1009    9.2021   -2.8147 N   0  0  0  0  0  0  0  0  0  0  0  0
   11.6324    9.2565   -4.0799 C   0  0  0  0  0  0  0  0  0  0  0  0
   11.3620    8.1217   -4.7542 N   0  0  0  0  0  0  0  0  0  0  0  0
   12.1982    5.8621   -2.3923 H   0  0  0  0  0  0  0  0  0  0  0  0
   12.6936    7.9857   -1.1590 H   0  0  0  0  0  0  0  0  0  0  0  0
   11.4926   10.2466   -4.5041 H   0  0  0  0  0  0  0  0  0  0  0  0
   11.3032    5.7159   -4.7970 O   0  0  0  0  0  0  0  0  0  0  0  0
   10.5471    5.6278   -5.9569 C   0  0  0  0  0  0  0  0  0  0  0  0
   11.1560    5.7148   -7.1911 C   0  0  0  0  0  0  0  0  0  0  0  0
   10.4238    5.6298   -8.3553 C   0  0  0  0  0  0  0  0  0  0  0  0
    9.0551    5.4546   -8.3475 C   0  0  0  0  0  0  0  0  0  0  0  0
    8.2958    5.3665   -9.5517 N   0  0  0  0  0  0  0  0  0  0  0  0
    7.5829    6.0986   -9.7982 H   0  0  0  0  0  0  0  0  0  0  0  0
    8.4671    5.3702   -7.0994 C   0  0  0  0  0  0  0  0  0  0  0  0
    9.1795    5.4527   -5.9332 C   0  0  0  0  0  0  0  0  0  0  0  0
   12.2315    5.8528   -7.2510 H   0  0  0  0  0  0  0  0  0  0  0  0
   10.9006    5.6980   -9.3416 H   0  0  0  0  0  0  0  0  0  0  0  0
    8.3992    4.5915  -10.2415 H   0  0  0  0  0  0  0  0  0  0  0  0
    7.3934    5.2327   -7.0743 H   0  0  0  0  0  0  0  0  0  0  0  0
    8.7010    5.3843   -4.9502 H   0  0  0  0  0  0  0  0  0  0  0  0
  1  2  2  0
  2  3  1  0
  4  3  2  0
  5  4  1  0
  6  1  1  0
  6  5  2  0
  2  7  1  0
  3  8  1  0
  5  9  1  0
 10 11  1  0
 11 12  2  0
 12 13  1  0
 13 14  2  0
 14 15  1  0
 15 16  1  0
 14 17  1  0
 17 18  2  0
 18 11  1  0
 12 19  1  0
 13 20  1  0
 15 21  1  0
 17 22  1  0
 18 23  1  0
  1 10  1  0
M  END
>  <Score>  (1) 
-7.04235

$$$$

     RDKit          3D

 27 28  0  0  0  0  0  0  0  0999 V2000
   11.5569    6.9248   -4.1715 C   0  0  0  0  0  0  0  0  0  0  0  0
   12.0439    6.8270   -2.8542 C   0  0  0  0  0  0  0  0  0  0  0  0
   12.3205    8.0191   -2.1660 C   0  0  0  0  0  0  0  0  0  0  0  0
   12.1008    9.2019   -2.8149 N   0  0  0  0  0  0  0  0  0  0  0  0
   11.6326    9.2561   -4.0792 C   0  0  0  0  0  0  0  0  0  0  0  0
   11.3623    8.1210   -4.7532 N   0  0  0  0  0  0  0  0  0  0  0  0
   12.2072    5.8963   -2.3696 H   0  0  0  0  0  0  0  0  0  0  0  0
   12.6897    7.9598   -1.1682 H   0  0  0  0  0  0  0  0  0  0  0  0
   11.4943   10.2433   -4.4992 H   0  0  0  0  0  0  0  0  0  0  0  0
   11.2556    5.6662   -4.9229 C   0  0  2  0  0  0  0  0  0  0  0  0
   12.4077    5.0658   -5.3292 O   0  0  0  0  0  0  0  0  0  0  0  0
   12.5688    5.1854   -6.6717 C   0  0  1  0  0  0  0  0  0  0  0  0
   12.7627    3.8349   -7.3240 C   0  0  0  0  0  0  0  0  0  0  0  0
   13.8900    3.2205   -6.8000 O   0  0  0  0  0  0  0  0  0  0  0  0
   11.4312    5.9307   -7.2655 C   0  0  1  0  0  0  0  0  0  0  0  0
   10.9216    5.2981   -8.3895 O   0  0  0  0  0  0  0  0  0  0  0  0
   10.4335    5.9974   -6.1388 C   0  0  1  0  0  0  0  0  0  0  0  0
    9.3487    5.1626   -6.3122 O   0  0  0  0  0  0  0  0  0  0  0  0
   10.6978    4.9354   -4.2715 H   0  0  0  0  0  0  0  0  0  0  0  0
   13.5280    5.7536   -6.8506 H   0  0  0  0  0  0  0  0  0  0  0  0
   11.8673    3.2162   -7.1141 H   0  0  0  0  0  0  0  0  0  0  0  0
   12.8798    3.9843   -8.4050 H   0  0  0  0  0  0  0  0  0  0  0  0
   14.6790    3.3919   -7.3827 H   0  0  0  0  0  0  0  0  0  0  0  0
   11.7652    6.9584   -7.5748 H   0  0  0  0  0  0  0  0  0  0  0  0
   11.5199    5.5054   -9.1541 H   0  0  0  0  0  0  0  0  0  0  0  0
   10.0820    7.0480   -6.0774 H   0  0  0  0  0  0  0  0  0  0  0  0
    8.5595    5.6838   -6.6471 H   0  0  0  0  0  0  0  0  0  0  0  0
  1  2  2  0
  2  3  1  0
  4  3  2  0
  5  4  1  0
  6  1  1  0
  6  5  2  0
  2  7  1  0
  3  8  1  0
  5  9  1  0
 10 11  1  0
 11 12  1  0
 12 13  1  0
 13 14  1  0
 12 15  1  0
 15 16  1  0
 15 17  1  0
 17 18  1  0
 17 10  1  0
 10 19  1  1
 12 20  1  1
 13 21  1  0
 13 22  1  0
 14 23  1  0
 15 24  1  6
 16 25  1  0
 17 26  1  1
 18 27  1  0
  1 10  1  0
M  END
>  <Score>  (1) 
-7.04107

$$$$

     RDKit          3D

 25 27  0  0  0  0  0  0  0  0999 V2000
   12.3018    8.1198   -2.3032 C   0  0  0  0  0  0  0  0  0  0  0  0
   12.0228    6.8847   -2.9096 C   0  0  0  0  0  0  0  0  0  0  0  0
   11.5237    6.8999   -4.2271 C   0  0  0  0  0  0  0  0  0  0  0  0
   11.3431    8.1056   -4.8291 N   0  0  0  0  0  0  0  0  0  0  0  0
   11.6242    9.2807   -4.2111 C   0  0  0  0  0  0  0  0  0  0  0  0
   12.0995    9.2803   -2.9579 N   0  0  0  0  0  0  0  0  0  0  0  0
   12.6830    8.0667   -1.2925 H   0  0  0  0  0  0  0  0  0  0  0  0
   12.1833    5.9550   -2.3892 H   0  0  0  0  0  0  0  0  0  0  0  0
   11.3037    5.9697   -4.7097 H   0  0  0  0  0  0  0  0  0  0  0  0
   12.3063    8.6411   -9.6305 H   0  0  0  0  0  0  0  0  0  0  0  0
   12.0906    9.6842   -9.7585 C   0  0  0  0  0  0  0  0  0  0  0  0
   12.0970   10.1759  -10.8991 O   0  0  0  0  0  0  0  0  0  0  0  0
   11.7912   10.5329   -8.6231 C   0  0  0  0  0  0  0  0  0  0  0  0
   11.5141   11.8776   -8.7983 C   0  0  0  0  0  0  0  0  0  0  0  0
   11.2280   12.6953   -7.7281 C   0  0  0  0  0  0  0  0  0  0  0  0
   11.2234   12.1407   -6.4678 C   0  0  0  0  0  0  0  0  0  0  0  0
   10.9849   12.6726   -5.2481 N   0  0  0  0  0  0  0  0  0  0  0  0
   11.1008   11.7222   -4.3258 N   0  0  0  0  0  0  0  0  0  0  0  0
   11.4139   10.5545   -4.8987 C   0  0  0  0  0  0  0  0  0  0  0  0
   11.4924   10.8176   -6.2600 C   0  0  0  0  0  0  0  0  0  0  0  0
   11.7778   10.0068   -7.3374 C   0  0  0  0  0  0  0  0  0  0  0  0
   11.5154   12.3255   -9.7924 H   0  0  0  0  0  0  0  0  0  0  0  0
   11.0074   13.7667   -7.8691 H   0  0  0  0  0  0  0  0  0  0  0  0
   10.7502   13.6723   -5.0917 H   0  0  0  0  0  0  0  0  0  0  0  0
   11.9867    8.9655   -7.1454 H   0  0  0  0  0  0  0  0  0  0  0  0
  2  1  2  0
  3  2  1  0
  4  3  2  0
  4  5  1  0
  5  6  2  0
  6  1  1  0
  1  7  1  0
  2  8  1  0
  3  9  1  0
 10 11  1  0
 11 12  2  0
 11 13  1  0
 13 14  2  0
 14 15  1  0
 15 16  2  0
 16 17  1  0
 17 18  1  0
 18 19  2  0
 19 20  1  0
 20 21  2  0
 21 13  1  0
 20 16  1  0
 14 22  1  0
 15 23  1  0
 17 24  1  0
 21 25  1  0
  5 19  1  0
M  END
>  <Score>  (1) 
-7.76247

$$$$

     RDKit          3D

 20 21  0  0  0  0  0  0  0  0999 V2000
   11.5555    6.9248   -4.1752 C   0  0  0  0  0  0  0  0  0  0  0  0
   12.0464    6.8355   -2.8480 C   0  0  0  0  0  0  0  0  0  0  0  0
   12.3202    8.0108   -2.1666 C   0  0  0  0  0  0  0  0  0  0  0  0
   12.0996    9.2027   -2.8180 N   0  0  0  0  0  0  0  0  0  0  0  0
   11.6335    9.2556   -4.0769 C   0  0  0  0  0  0  0  0  0  0  0  0
   11.3619    8.1206   -4.7543 N   0  0  0  0  0  0  0  0  0  0  0  0
   11.3374    6.0140   -4.7192 H   0  0  0  0  0  0  0  0  0  0  0  0
   12.2054    5.8903   -2.3741 H   0  0  0  0  0  0  0  0  0  0  0  0
   11.4699   10.2109   -4.5636 H   0  0  0  0  0  0  0  0  0  0  0  0
   12.8309    8.0393   -0.7915 C   0  0  0  0  0  0  0  0  0  0  0  0
   12.1731    7.5041    0.2832 C   0  0  0  0  0  0  0  0  0  0  0  0
   12.6992    7.5557    1.5725 C   0  0  0  0  0  0  0  0  0  0  0  0
   13.9142    8.1549    1.8104 C   0  0  0  0  0  0  0  0  0  0  0  0
   14.5874    8.6976    0.7396 C   0  0  0  0  0  0  0  0  0  0  0  0
   15.7823    9.2926    0.9409 F   0  0  0  0  0  0  0  0  0  0  0  0
   14.0608    8.6418   -0.5277 C   0  0  0  0  0  0  0  0  0  0  0  0
   14.7368    9.1819   -1.5749 F   0  0  0  0  0  0  0  0  0  0  0  0
   11.1994    7.0193    0.1188 H   0  0  0  0  0  0  0  0  0  0  0  0
   12.1698    7.1329    2.3926 H   0  0  0  0  0  0  0  0  0  0  0  0
   14.3347    8.1990    2.8253 H   0  0  0  0  0  0  0  0  0  0  0  0
  1  2  2  0
  2  3  1  0
  4  3  2  0
  5  4  1  0
  6  1  1  0
  6  5  2  0
  1  7  1  0
  2  8  1  0
  5  9  1  0
 10 11  2  0
 11 12  1  0
 12 13  2  0
 13 14  1  0
 14 15  1  0
 14 16  2  0
 16 17  1  0
 16 10  1  0
 11 18  1  0
 12 19  1  0
 13 20  1  0
  3 10  1  0
M  END
>  <Score>  (1) 
-7.54515

$$$$

     RDKit          3D

 22 23  0  0  0  0  0  0  0  0999 V2000
   11.5562    6.9239   -4.1728 C   0  0  0  0  0  0  0  0  0  0  0  0
   12.0499    6.8360   -2.8406 C   0  0  0  0  0  0  0  0  0  0  0  0
   12.3164    8.0087   -2.1745 C   0  0  0  0  0  0  0  0  0  0  0  0
   12.1016    9.1985   -2.8131 N   0  0  0  0  0  0  0  0  0  0  0  0
   11.6312    9.2540   -4.0837 C   0  0  0  0  0  0  0  0  0  0  0  0
   11.3617    8.1289   -4.7543 N   0  0  0  0  0  0  0  0  0  0  0  0
   11.3509    6.0049   -4.6776 H   0  0  0  0  0  0  0  0  0  0  0  0
   12.2106    5.8517   -2.4899 H   0  0  0  0  0  0  0  0  0  0  0  0
   11.4591   10.1977   -4.5948 H   0  0  0  0  0  0  0  0  0  0  0  0
   12.9122    7.9858   -0.8559 C   0  0  0  0  0  0  0  0  0  0  0  0
   12.0766    7.5739    0.2106 C   0  0  0  0  0  0  0  0  0  0  0  0
   12.5441    7.4838    1.4810 C   0  0  0  0  0  0  0  0  0  0  0  0
   13.8492    7.7874    1.7939 C   0  0  0  0  0  0  0  0  0  0  0  0
   14.6765    8.1845    0.7861 C   0  0  0  0  0  0  0  0  0  0  0  0
   14.2097    8.2832   -0.5446 C   0  0  0  0  0  0  0  0  0  0  0  0
   15.1523    8.6036   -1.5359 N   0  0  0  0  0  4  0  0  0  0  0  0
   16.3587    8.2190   -1.2487 O   0  0  0  0  0  0  0  0  0  0  0  0
   15.0056    9.2257   -2.7212 O   0  0  0  0  0  1  0  0  0  0  0  0
   11.0536    7.3349   -0.0305 H   0  0  0  0  0  0  0  0  0  0  0  0
   11.8915    7.1684    2.2777 H   0  0  0  0  0  0  0  0  0  0  0  0
   14.2210    7.7162    2.8131 H   0  0  0  0  0  0  0  0  0  0  0  0
   15.7129    8.4311    1.0010 H   0  0  0  0  0  0  0  0  0  0  0  0
  1  2  2  0
  2  3  1  0
  4  3  2  0
  5  4  1  0
  6  1  1  0
  6  5  2  0
  1  7  1  0
  2  8  1  0
  5  9  1  0
 10 11  2  0
 11 12  1  0
 12 13  2  0
 13 14  1  0
 14 15  2  0
 15 16  1  0
 16 17  2  0
 16 18  1  0
 15 10  1  0
 11 19  1  0
 12 20  1  0
 13 21  1  0
 14 22  1  0
  3 10  1  0
M  CHG  2  16   1  18  -1
M  END
>  <Score>  (1) 
-7.4683

$$$$

     RDKit          3D

 21 22  0  0  0  0  0  0  0  0999 V2000
   11.5573    6.9205   -4.1702 C   0  0  0  0  0  0  0  0  0  0  0  0
   12.0453    6.8290   -2.8500 C   0  0  0  0  0  0  0  0  0  0  0  0
   12.3197    8.0159   -2.1685 C   0  0  0  0  0  0  0  0  0  0  0  0
   12.1017    9.2018   -2.8125 N   0  0  0  0  0  0  0  0  0  0  0  0
   11.6315    9.2561   -4.0820 C   0  0  0  0  0  0  0  0  0  0  0  0
   11.3615    8.1266   -4.7558 N   0  0  0  0  0  0  0  0  0  0  0  0
   11.3270    6.0299   -4.7366 H   0  0  0  0  0  0  0  0  0  0  0  0
   12.2018    5.8726   -2.3820 H   0  0  0  0  0  0  0  0  0  0  0  0
   11.4923   10.2363   -4.5038 H   0  0  0  0  0  0  0  0  0  0  0  0
   12.8160    8.0107   -0.8401 N   0  0  0  0  0  0  0  0  0  0  0  0
   13.2596    6.8750   -0.0743 C   0  0  0  0  0  0  0  0  0  0  0  0
   13.9416    7.4279    1.1575 C   0  0  0  0  0  0  0  0  0  0  0  0
   14.1812    8.8846    0.8503 C   0  0  0  0  0  0  0  0  0  0  0  0
   15.0607    8.9641    0.1737 H   0  0  0  0  0  0  0  0  0  0  0  0
   12.9748    9.1781   -0.0058 C   0  0  0  0  0  0  0  0  0  0  0  0
   12.2359   10.1729   -0.0425 O   0  0  0  0  0  0  0  0  0  0  0  0
   12.3603    6.2757    0.2214 H   0  0  0  0  0  0  0  0  0  0  0  0
   13.9405    6.2039   -0.5992 H   0  0  0  0  0  0  0  0  0  0  0  0
   14.8968    6.9031    1.3603 H   0  0  0  0  0  0  0  0  0  0  0  0
   13.2577    7.3675    2.0322 H   0  0  0  0  0  0  0  0  0  0  0  0
   14.2436    9.5335    1.7257 H   0  0  0  0  0  0  0  0  0  0  0  0
  1  2  2  0
  2  3  1  0
  4  3  2  0
  5  4  1  0
  6  1  1  0
  6  5  2  0
  1  7  1  0
  2  8  1  0
  5  9  1  0
 10 11  1  0
 11 12  1  0
 12 13  1  0
 13 14  1  0
 13 15  1  0
 15 16  2  0
 15 10  1  0
 11 17  1  0
 11 18  1  0
 12 19  1  0
 12 20  1  0
 13 21  1  0
  3 10  1  0
M  END
>  <Score>  (1) 
-7.43859

$$$$

     RDKit          3D

 19 20  0  0  0  0  0  0  0  0999 V2000
   11.5545    6.9274   -4.1781 C   0  0  0  0  0  0  0  0  0  0  0  0
   12.0469    6.8326   -2.8465 C   0  0  0  0  0  0  0  0  0  0  0  0
   12.3213    8.0158   -2.1638 C   0  0  0  0  0  0  0  0  0  0  0  0
   12.0990    9.1980   -2.8195 N   0  0  0  0  0  0  0  0  0  0  0  0
   11.6335    9.2553   -4.0768 C   0  0  0  0  0  0  0  0  0  0  0  0
   11.3619    8.1209   -4.7543 N   0  0  0  0  0  0  0  0  0  0  0  0
   11.3433    6.0150   -4.7035 H   0  0  0  0  0  0  0  0  0  0  0  0
   12.1970    5.8849   -2.3965 H   0  0  0  0  0  0  0  0  0  0  0  0
   11.4561   10.1839   -4.5994 H   0  0  0  0  0  0  0  0  0  0  0  0
   12.8242    8.0345   -0.8092 C   0  0  0  0  0  0  0  0  0  0  0  0
   11.9737    8.3740    0.2223 C   0  0  0  0  0  0  0  0  0  0  0  0
   12.3656    8.4179    1.5411 C   0  0  0  0  0  0  0  0  0  0  0  0
   13.6846    8.0994    1.8032 C   0  0  0  0  0  0  0  0  0  0  0  0
   14.1889    8.1081    3.0711 F   0  0  0  0  0  0  0  0  0  0  0  0
   14.5156    7.7682    0.7994 N   0  0  0  0  0  0  0  0  0  0  0  0
   14.1108    7.7305   -0.4935 C   0  0  0  0  0  0  0  0  0  0  0  0
   10.9363    8.6197   -0.0268 H   0  0  0  0  0  0  0  0  0  0  0  0
   11.6991    8.6833    2.3441 H   0  0  0  0  0  0  0  0  0  0  0  0
   14.8396    7.4543   -1.2461 H   0  0  0  0  0  0  0  0  0  0  0  0
  1  2  2  0
  2  3  1  0
  4  3  2  0
  5  4  1  0
  6  1  1  0
  6  5  2  0
  1  7  1  0
  2  8  1  0
  5  9  1  0
 10 11  2  0
 11 12  1  0
 12 13  2  0
 13 14  1  0
 13 15  1  0
 15 16  2  0
 16 10  1  0
 11 17  1  0
 12 18  1  0
 16 19  1  0
  3 10  1  0
M  END
>  <Score>  (1) 
-7.39204

$$$$

     RDKit          3D

 24 26  0  0  0  0  0  0  0  0999 V2000
   11.5571    6.9256   -4.1709 C   0  0  0  0  0  0  0  0  0  0  0  0
   12.0439    6.8255   -2.8542 C   0  0  0  0  0  0  0  0  0  0  0  0
   12.3206    8.0206   -2.1659 C   0  0  0  0  0  0  0  0  0  0  0  0
   12.1012    9.2009   -2.8137 N   0  0  0  0  0  0  0  0  0  0  0  0
   11.6322    9.2559   -4.0803 C   0  0  0  0  0  0  0  0  0  0  0  0
   11.3620    8.1215   -4.7540 N   0  0  0  0  0  0  0  0  0  0  0  0
   11.3636    5.9768   -4.6470 H   0  0  0  0  0  0  0  0  0  0  0  0
   12.1991    5.8611   -2.3896 H   0  0  0  0  0  0  0  0  0  0  0  0
   11.4764   10.2070   -4.5457 H   0  0  0  0  0  0  0  0  0  0  0  0
   12.8147    7.9845   -0.8326 N   0  0  0  0  0  0  0  0  0  0  0  0
   12.6367    8.9347    0.1021 C   0  0  0  0  0  0  0  0  0  0  0  0
   13.2692    8.5311    1.2691 C   0  0  0  0  0  0  0  0  0  0  0  0
   13.3081    9.0681    2.1892 H   0  0  0  0  0  0  0  0  0  0  0  0
   13.8561    7.2866    1.0389 C   0  0  0  0  0  0  0  0  0  0  0  0
   14.5977    6.4342    1.8350 C   0  0  0  0  0  0  0  0  0  0  0  0
   15.0487    5.2447    1.3056 C   0  0  0  0  0  0  0  0  0  0  0  0
   14.7493    4.9296   -0.0116 C   0  0  0  0  0  0  0  0  0  0  0  0
   14.0074    5.7936   -0.7906 C   0  0  0  0  0  0  0  0  0  0  0  0
   13.5464    6.9947   -0.2720 C   0  0  0  0  0  0  0  0  0  0  0  0
   12.0802    9.8437   -0.0886 H   0  0  0  0  0  0  0  0  0  0  0  0
   14.8241    6.6927    2.8611 H   0  0  0  0  0  0  0  0  0  0  0  0
   15.6316    4.5259    1.8576 H   0  0  0  0  0  0  0  0  0  0  0  0
   15.0755    4.0090   -0.4853 H   0  0  0  0  0  0  0  0  0  0  0  0
   13.7514    5.5884   -1.8193 H   0  0  0  0  0  0  0  0  0  0  0  0
  1  2  2  0
  2  3  1  0
  4  3  2  0
  5  4  1  0
  6  1  1  0
  6  5  2  0
  1  7  1  0
  2  8  1  0
  5  9  1  0
 10 11  1  0
 11 12  2  0
 12 13  1  0
 12 14  1  0
 14 15  2  0
 15 16  1  0
 16 17  2  0
 17 18  1  0
 18 19  2  0
 19 10  1  0
 19 14  1  0
 11 20  1  0
 15 21  1  0
 16 22  1  0
 17 23  1  0
 18 24  1  0
  3 10  1  0
M  END
>  <Score>  (1) 
-7.36226

$$$$

     RDKit          3D

 27 29  0  0  0  0  0  0  0  0999 V2000
   11.5554    6.9267   -4.1754 C   0  0  0  0  0  0  0  0  0  0  0  0
   12.0460    6.8293   -2.8486 C   0  0  0  0  0  0  0  0  0  0  0  0
   12.3201    8.0164   -2.1671 C   0  0  0  0  0  0  0  0  0  0  0  0
   12.1008    9.2012   -2.8149 N   0  0  0  0  0  0  0  0  0  0  0  0
   11.6327    9.2574   -4.0791 C   0  0  0  0  0  0  0  0  0  0  0  0
   11.3620    8.1191   -4.7539 N   0  0  0  0  0  0  0  0  0  0  0  0
   11.3433    5.9992   -4.7026 H   0  0  0  0  0  0  0  0  0  0  0  0
   12.1952    5.8670   -2.4004 H   0  0  0  0  0  0  0  0  0  0  0  0
   11.4552   10.1767   -4.6014 H   0  0  0  0  0  0  0  0  0  0  0  0
   12.8311    7.9893   -0.7887 C   0  0  2  0  0  0  0  0  0  0  0  0
   14.3650    8.0334   -0.7556 C   0  0  0  0  0  0  0  0  0  0  0  0
   14.6830    6.9606    0.2538 C   0  0  1  0  0  0  0  0  0  0  0  0
   14.1178    7.3143    1.6196 C   0  0  0  0  0  0  0  0  0  0  0  0
   12.5955    7.1558    1.4781 C   0  0  0  0  0  0  0  0  0  0  0  0
   12.4334    6.7991   -0.0002 C   0  0  2  0  0  0  0  0  0  0  0  0
   13.6608    5.8888   -0.1618 C   0  0  0  0  0  0  0  0  0  0  0  0
   12.4851    8.8975   -0.2603 H   0  0  0  0  0  0  0  0  0  0  0  0
   14.7604    7.6988   -1.7269 H   0  0  0  0  0  0  0  0  0  0  0  0
   14.7274    9.0306   -0.4552 H   0  0  0  0  0  0  0  0  0  0  0  0
   15.6953    6.6069    0.2606 H   0  0  0  0  0  0  0  0  0  0  0  0
   14.3655    8.3568    1.9037 H   0  0  0  0  0  0  0  0  0  0  0  0
   14.4882    6.5627    2.3467 H   0  0  0  0  0  0  0  0  0  0  0  0
   12.2062    6.3724    2.1311 H   0  0  0  0  0  0  0  0  0  0  0  0
   12.1145    8.1382    1.6190 H   0  0  0  0  0  0  0  0  0  0  0  0
   11.5086    6.3224   -0.2400 H   0  0  0  0  0  0  0  0  0  0  0  0
   13.7040    5.1173    0.6069 H   0  0  0  0  0  0  0  0  0  0  0  0
   13.8011    5.5619   -1.1877 H   0  0  0  0  0  0  0  0  0  0  0  0
  1  2  2  0
  2  3  1  0
  4  3  2  0
  5  4  1  0
  6  1  1  0
  6  5  2  0
  1  7  1  0
  2  8  1  0
  5  9  1  0
 10 11  1  0
 11 12  1  0
 12 13  1  0
 13 14  1  0
 14 15  1  0
 15 16  1  0
 15 10  1  0
 16 12  1  0
 10 17  1  1
 11 18  1  0
 11 19  1  0
 12 20  1  1
 13 21  1  0
 13 22  1  0
 14 23  1  0
 14 24  1  0
 15 25  1  1
 16 26  1  0
 16 27  1  0
  3 10  1  0
M  END
>  <Score>  (1) 
-7.35957

$$$$

     RDKit          3D

 21 22  0  0  0  0  0  0  0  0999 V2000
   11.5552    6.9283   -4.1761 C   0  0  0  0  0  0  0  0  0  0  0  0
   12.0466    6.8330   -2.8473 C   0  0  0  0  0  0  0  0  0  0  0  0
   12.3196    8.0168   -2.1683 C   0  0  0  0  0  0  0  0  0  0  0  0
   12.1006    9.1967   -2.8152 N   0  0  0  0  0  0  0  0  0  0  0  0
   11.6336    9.2592   -4.0767 C   0  0  0  0  0  0  0  0  0  0  0  0
   11.3614    8.1160   -4.7554 N   0  0  0  0  0  0  0  0  0  0  0  0
   11.3313    6.0319   -4.7365 H   0  0  0  0  0  0  0  0  0  0  0  0
   12.1951    5.8730   -2.4012 H   0  0  0  0  0  0  0  0  0  0  0  0
   11.4784   10.2227   -4.5412 H   0  0  0  0  0  0  0  0  0  0  0  0
   12.8262    8.0165   -0.8031 C   0  0  0  0  0  0  0  0  0  0  0  0
   12.3398    7.2364    0.2036 C   0  0  0  0  0  0  0  0  0  0  0  0
   12.8263    7.2447    1.4893 C   0  0  0  0  0  0  0  0  0  0  0  0
   13.8700    8.0945    1.7769 C   0  0  0  0  0  0  0  0  0  0  0  0
   14.4190    8.9238    0.7929 C   0  0  0  0  0  0  0  0  0  0  0  0
   13.8750    8.8592   -0.4805 C   0  0  0  0  0  0  0  0  0  0  0  0
   14.4537    9.7176   -1.4710 C   0  0  0  0  0  0  0  0  0  0  0  0
   14.9153   10.4352   -2.2747 N   0  0  0  0  0  0  0  0  0  0  0  0
   11.5272    6.5679   -0.0002 H   0  0  0  0  0  0  0  0  0  0  0  0
   12.4448    6.6306    2.2854 H   0  0  0  0  0  0  0  0  0  0  0  0
   14.2801    8.1297    2.7773 H   0  0  0  0  0  0  0  0  0  0  0  0
   15.2392    9.5844    1.0406 H   0  0  0  0  0  0  0  0  0  0  0  0
  1  2  2  0
  2  3  1  0
  4  3  2  0
  5  4  1  0
  6  1  1  0
  6  5  2  0
  1  7  1  0
  2  8  1  0
  5  9  1  0
 10 11  2  0
 11 12  1  0
 12 13  2  0
 13 14  1  0
 14 15  2  0
 15 16  1  0
 16 17  3  0
 15 10  1  0
 11 18  1  0
 12 19  1  0
 13 20  1  0
 14 21  1  0
  3 10  1  0
M  END
>  <Score>  (1) 
-7.34583

$$$$

     RDKit          3D

 21 23  0  0  0  0  0  0  0  0999 V2000
   11.5564    6.9253   -4.1727 C   0  0  0  0  0  0  0  0  0  0  0  0
   12.0449    6.8273   -2.8517 C   0  0  0  0  0  0  0  0  0  0  0  0
   12.3202    8.0188   -2.1667 C   0  0  0  0  0  0  0  0  0  0  0  0
   12.1013    9.2010   -2.8135 N   0  0  0  0  0  0  0  0  0  0  0  0
   11.6321    9.2563   -4.0806 C   0  0  0  0  0  0  0  0  0  0  0  0
   11.3621    8.1213   -4.7538 N   0  0  0  0  0  0  0  0  0  0  0  0
   11.3332    6.0171   -4.7308 H   0  0  0  0  0  0  0  0  0  0  0  0
   12.2018    5.8807   -2.3834 H   0  0  0  0  0  0  0  0  0  0  0  0
   11.4585   10.1945   -4.5932 H   0  0  0  0  0  0  0  0  0  0  0  0
   12.8165    7.9952   -0.8282 N   0  0  0  0  0  0  0  0  0  0  0  0
   12.7048    9.0140    0.0479 C   0  0  0  0  0  0  0  0  0  0  0  0
   13.2944    8.5914    1.1798 N   0  0  0  0  0  0  0  0  0  0  0  0
   13.7599    7.3395    1.0069 C   0  0  0  0  0  0  0  0  0  0  0  0
   14.4287    6.4593    1.8255 C   0  0  0  0  0  0  0  0  0  0  0  0
   14.6519    6.7905    2.8243 H   0  0  0  0  0  0  0  0  0  0  0  0
   14.7690    5.2412    1.3472 N   0  0  0  0  0  0  0  0  0  0  0  0
   14.4711    4.8654    0.0903 C   0  0  0  0  0  0  0  0  0  0  0  0
   13.8164    5.7226   -0.7159 N   0  0  0  0  0  0  0  0  0  0  0  0
   13.4553    6.9539   -0.2797 C   0  0  0  0  0  0  0  0  0  0  0  0
   12.2372    9.9888   -0.1070 H   0  0  0  0  0  0  0  0  0  0  0  0
   14.7755    3.8708   -0.2270 H   0  0  0  0  0  0  0  0  0  0  0  0
  1  2  2  0
  2  3  1  0
  4  3  2  0
  5  4  1  0
  6  1  1  0
  6  5  2  0
  1  7  1  0
  2  8  1  0
  5  9  1  0
 10 11  1  0
 11 12  2  0
 12 13  1  0
 13 14  2  0
 14 15  1  0
 14 16  1  0
 16 17  2  0
 17 18  1  0
 18 19  2  0
 19 10  1  0
 19 13  1  0
 11 20  1  0
 17 21  1  0
  3 10  1  0
M  END
>  <Score>  (1) 
-7.30963

$$$$

     RDKit          3D

 21 22  0  0  0  0  0  0  0  0999 V2000
   11.5570    6.9237   -4.1711 C   0  0  0  0  0  0  0  0  0  0  0  0
   12.0444    6.8260   -2.8530 C   0  0  0  0  0  0  0  0  0  0  0  0
   12.3199    8.0231   -2.1679 C   0  0  0  0  0  0  0  0  0  0  0  0
   12.1029    9.1977   -2.8090 N   0  0  0  0  0  0  0  0  0  0  0  0
   11.6306    9.2546   -4.0845 C   0  0  0  0  0  0  0  0  0  0  0  0
   11.3623    8.1248   -4.7535 N   0  0  0  0  0  0  0  0  0  0  0  0
   11.3420    6.0076   -4.7065 H   0  0  0  0  0  0  0  0  0  0  0  0
   12.1949    5.8639   -2.4013 H   0  0  0  0  0  0  0  0  0  0  0  0
   11.4698   10.2123   -4.5636 H   0  0  0  0  0  0  0  0  0  0  0  0
   12.8131    7.9730   -0.8364 N   0  0  0  0  0  0  0  0  0  0  0  0
   13.6023    6.8472   -0.4697 C   0  0  0  0  0  0  0  0  0  0  0  0
   14.1117    6.7431    0.8174 C   0  0  0  0  0  0  0  0  0  0  0  0
   14.8744    5.6605    1.1811 C   0  0  0  0  0  0  0  0  0  0  0  0
   15.1486    4.6565    0.2747 C   0  0  0  0  0  0  0  0  0  0  0  0
   15.7591    3.7867    0.5604 H   0  0  0  0  0  0  0  0  0  0  0  0
   14.6307    4.7862   -0.9934 C   0  0  0  0  0  0  0  0  0  0  0  0
   13.8894    5.8575   -1.3149 N   0  0  0  0  0  0  0  0  0  0  0  0
   12.5936    8.7419   -0.1698 H   0  0  0  0  0  0  0  0  0  0  0  0
   13.9204    7.5043    1.5522 H   0  0  0  0  0  0  0  0  0  0  0  0
   15.2893    5.5511    2.1876 H   0  0  0  0  0  0  0  0  0  0  0  0
   14.8424    4.0042   -1.7049 H   0  0  0  0  0  0  0  0  0  0  0  0
  1  2  2  0
  2  3  1  0
  4  3  2  0
  5  4  1  0
  6  1  1  0
  6  5  2  0
  1  7  1  0
  2  8  1  0
  5  9  1  0
 10 11  1  0
 11 12  2  0
 12 13  1  0
 13 14  2  0
 14 15  1  0
 14 16  1  0
 16 17  2  0
 17 11  1  0
 10 18  1  0
 12 19  1  0
 13 20  1  0
 16 21  1  0
  3 10  1  0
M  END
>  <Score>  (1) 
-7.21059

$$$$

     RDKit          3D

 19 20  0  0  0  0  0  0  0  0999 V2000
   11.5566    6.9239   -4.1721 C   0  0  0  0  0  0  0  0  0  0  0  0
   12.0449    6.8268   -2.8517 C   0  0  0  0  0  0  0  0  0  0  0  0
   12.3195    8.0229   -2.1689 C   0  0  0  0  0  0  0  0  0  0  0  0
   12.1032    9.1971   -2.8081 N   0  0  0  0  0  0  0  0  0  0  0  0
   11.6304    9.2545   -4.0850 C   0  0  0  0  0  0  0  0  0  0  0  0
   11.3624    8.1247   -4.7532 N   0  0  0  0  0  0  0  0  0  0  0  0
   11.3303    6.0230   -4.7387 H   0  0  0  0  0  0  0  0  0  0  0  0
   12.2012    5.8821   -2.3852 H   0  0  0  0  0  0  0  0  0  0  0  0
   11.4960   10.2357   -4.4943 H   0  0  0  0  0  0  0  0  0  0  0  0
   12.8245    7.9887   -0.8062 C   0  0  0  0  0  0  0  0  0  0  0  0
   11.9492    7.6801    0.2057 C   0  0  0  0  0  0  0  0  0  0  0  0
   12.3518    7.6263    1.5362 C   0  0  0  0  0  0  0  0  0  0  0  0
   13.6657    7.8909    1.8388 C   0  0  0  0  0  0  0  0  0  0  0  0
   14.1426    7.8590    3.1224 F   0  0  0  0  0  0  0  0  0  0  0  0
   14.5175    8.1985    0.7885 C   0  0  0  0  0  0  0  0  0  0  0  0
   14.1005    8.2431   -0.4870 N   0  0  0  0  0  0  0  0  0  0  0  0
   10.9015    7.4636    0.0138 H   0  0  0  0  0  0  0  0  0  0  0  0
   11.6471    7.3820    2.3116 H   0  0  0  0  0  0  0  0  0  0  0  0
   15.5460    8.4036    1.0440 H   0  0  0  0  0  0  0  0  0  0  0  0
  1  2  2  0
  2  3  1  0
  4  3  2  0
  5  4  1  0
  6  1  1  0
  6  5  2  0
  1  7  1  0
  2  8  1  0
  5  9  1  0
 10 11  2  0
 11 12  1  0
 12 13  2  0
 13 14  1  0
 13 15  1  0
 15 16  2  0
 16 10  1  0
 11 17  1  0
 12 18  1  0
 15 19  1  0
  3 10  1  0
M  END
>  <Score>  (1) 
-7.15802

$$$$

     RDKit          3D

 27 29  0  0  0  0  0  0  0  0999 V2000
   12.3005    8.1254   -2.3072 C   0  0  0  0  0  0  0  0  0  0  0  0
   12.0226    6.8835   -2.9100 C   0  0  0  0  0  0  0  0  0  0  0  0
   11.5240    6.9012   -4.2262 C   0  0  0  0  0  0  0  0  0  0  0  0
   11.3433    8.1075   -4.8289 N   0  0  0  0  0  0  0  0  0  0  0  0
   11.6227    9.2768   -4.2146 C   0  0  0  0  0  0  0  0  0  0  0  0
   12.1019    9.2765   -2.9511 N   0  0  0  0  0  0  0  0  0  0  0  0
   12.6818    8.1179   -1.3010 H   0  0  0  0  0  0  0  0  0  0  0  0
   12.1720    5.9557   -2.4191 H   0  0  0  0  0  0  0  0  0  0  0  0
   11.2813    6.0206   -4.7739 H   0  0  0  0  0  0  0  0  0  0  0  0
   11.4035   10.4719   -4.9174 N   0  0  0  0  0  0  0  0  0  0  0  0
   12.4864   11.3843   -5.1784 C   0  0  0  0  0  0  0  0  0  0  0  0
   12.2682   12.5564   -5.8683 C   0  0  0  0  0  0  0  0  0  0  0  0
   13.2790   13.4577   -6.1392 C   0  0  0  0  0  0  0  0  0  0  0  0
   13.0913   14.6365   -6.8262 C   0  0  0  0  0  0  0  0  0  0  0  0
   14.0969   15.5383   -7.0984 C   0  0  0  0  0  0  0  0  0  0  0  0
   15.3884   15.2385   -6.6498 C   0  0  0  0  0  0  0  0  0  0  0  0
   16.2287   15.8933   -6.8233 H   0  0  0  0  0  0  0  0  0  0  0  0
   15.5980   14.0624   -5.9596 C   0  0  0  0  0  0  0  0  0  0  0  0
   14.5622   13.1733   -5.7008 C   0  0  0  0  0  0  0  0  0  0  0  0
   14.7540   11.9935   -5.0125 C   0  0  0  0  0  0  0  0  0  0  0  0
   13.7338   11.1257   -4.7621 N   0  0  0  0  0  0  0  0  0  0  0  0
   10.4333   10.6832   -5.2468 H   0  0  0  0  0  0  0  0  0  0  0  0
   11.2718   12.7814   -6.2110 H   0  0  0  0  0  0  0  0  0  0  0  0
   12.0937   14.8632   -7.1700 H   0  0  0  0  0  0  0  0  0  0  0  0
   13.9121   16.4564   -7.6419 H   0  0  0  0  0  0  0  0  0  0  0  0
   16.5733   13.7811   -5.5907 H   0  0  0  0  0  0  0  0  0  0  0  0
   15.7626   11.7890   -4.6784 H   0  0  0  0  0  0  0  0  0  0  0  0
  2  1  2  0
  3  2  1  0
  4  3  2  0
  4  5  1  0
  5  6  2  0
  6  1  1  0
  1  7  1  0
  2  8  1  0
  3  9  1  0
 10 11  1  0
 11 12  2  0
 12 13  1  0
 13 14  2  0
 14 15  1  0
 15 16  2  0
 16 17  1  0
 16 18  1  0
 18 19  2  0
 19 20  1  0
 20 21  2  0
 21 11  1  0
 19 13  1  0
 10 22  1  0
 12 23  1  0
 14 24  1  0
 15 25  1  0
 18 26  1  0
 20 27  1  0
  5 10  1  0
M  END
>  <Score>  (1) 
-7.74512

$$$$

     RDKit          3D

 28 29  0  0  0  0  0  0  0  0999 V2000
   11.5558    6.9248   -4.1743 C   0  0  0  0  0  0  0  0  0  0  0  0
   12.0460    6.8312   -2.8488 C   0  0  0  0  0  0  0  0  0  0  0  0
   12.3200    8.0161   -2.1672 C   0  0  0  0  0  0  0  0  0  0  0  0
   12.1011    9.1997   -2.8140 N   0  0  0  0  0  0  0  0  0  0  0  0
   11.6321    9.2565   -4.0806 C   0  0  0  0  0  0  0  0  0  0  0  0
   11.3620    8.1218   -4.7542 N   0  0  0  0  0  0  0  0  0  0  0  0
   11.3375    6.0160   -4.7190 H   0  0  0  0  0  0  0  0  0  0  0  0
   12.1954    5.8678   -2.3999 H   0  0  0  0  0  0  0  0  0  0  0  0
   11.4774   10.2066   -4.5431 H   0  0  0  0  0  0  0  0  0  0  0  0
   12.8303    7.9601   -0.7895 C   0  0  2  0  0  0  0  0  0  0  0  0
   14.1561    7.2617   -0.7970 C   0  0  0  0  0  0  0  0  0  0  0  0
   14.4624    6.5123    0.4553 C   0  0  0  0  0  0  0  0  0  0  0  0
   13.7728    7.0330    1.6779 C   0  0  0  0  0  0  0  0  0  0  0  0
   12.3024    7.2172    1.5293 C   0  0  0  0  0  0  0  0  0  0  0  0
   11.8189    7.3107    0.1246 C   0  0  2  0  0  0  0  0  0  0  0  0
   11.3869    6.0180   -0.3761 N   0  0  0  0  0  0  0  0  0  0  0  0
   12.9895    8.9888   -0.4091 H   0  0  0  0  0  0  0  0  0  0  0  0
   14.9683    7.9978   -0.9976 H   0  0  0  0  0  0  0  0  0  0  0  0
   14.1918    6.5379   -1.6395 H   0  0  0  0  0  0  0  0  0  0  0  0
   14.2273    5.4279    0.3251 H   0  0  0  0  0  0  0  0  0  0  0  0
   15.5567    6.5603    0.6372 H   0  0  0  0  0  0  0  0  0  0  0  0
   14.2384    8.0030    1.9759 H   0  0  0  0  0  0  0  0  0  0  0  0
   13.9818    6.3254    2.5077 H   0  0  0  0  0  0  0  0  0  0  0  0
   11.9736    8.1028    2.1096 H   0  0  0  0  0  0  0  0  0  0  0  0
   11.7709    6.3447    2.0077 H   0  0  0  0  0  0  0  0  0  0  0  0
   10.9223    7.9685    0.1171 H   0  0  0  0  0  0  0  0  0  0  0  0
   10.3435    5.9553   -0.4665 H   0  0  0  0  0  0  0  0  0  0  0  0
   11.6542    5.2353    0.2788 H   0  0  0  0  0  0  0  0  0  0  0  0
  1  2  2  0
  2  3  1  0
  4  3  2  0
  5  4  1  0
  6  1  1  0
  6  5  2  0
  1  7  1  0
  2  8  1  0
  5  9  1  0
 10 11  1  0
 11 12  1  0
 12 13  1  0
 13 14  1  0
 14 15  1  0
 15 16  1  0
 15 10  1  0
 10 17  1  1
 11 18  1  0
 11 19  1  0
 12 20  1  0
 12 21  1  0
 13 22  1  0
 13 23  1  0
 14 24  1  0
 14 25  1  0
 15 26  1  1
 16 27  1  0
 16 28  1  0
  3 10  1  0
M  END
>  <Score>  (1) 
-7.12007

$$$$

     RDKit          3D

 26 27  0  0  0  0  0  0  0  0999 V2000
   11.5573    6.9279   -4.1706 C   0  0  0  0  0  0  0  0  0  0  0  0
   12.0443    6.8284   -2.8532 C   0  0  0  0  0  0  0  0  0  0  0  0
   12.3203    8.0169   -2.1666 C   0  0  0  0  0  0  0  0  0  0  0  0
   12.1001    9.2019   -2.8167 N   0  0  0  0  0  0  0  0  0  0  0  0
   11.6334    9.2554   -4.0770 C   0  0  0  0  0  0  0  0  0  0  0  0
   11.3617    8.1195   -4.7549 N   0  0  0  0  0  0  0  0  0  0  0  0
   11.3517    6.0179   -4.6810 H   0  0  0  0  0  0  0  0  0  0  0  0
   12.2094    5.9030   -2.3640 H   0  0  0  0  0  0  0  0  0  0  0  0
   11.4899   10.2345   -4.5107 H   0  0  0  0  0  0  0  0  0  0  0  0
   12.8137    7.9981   -0.8359 N   0  0  0  0  0  0  0  0  0  0  0  0
   13.0725    6.7942   -0.0798 C   0  0  0  0  0  0  0  0  0  0  0  0
   13.9215    7.1976    1.0981 C   0  0  0  0  0  0  0  0  0  0  0  0
   13.8847    8.6946    1.1555 C   0  0  0  0  0  0  0  0  0  0  0  0
   13.1233    9.1747   -0.0595 C   0  0  2  0  0  0  0  0  0  0  0  0
   11.8773    9.8878    0.4244 C   0  0  0  0  0  0  0  0  0  0  0  0
   11.0683   10.3096   -0.6084 O   0  0  0  0  0  0  0  0  0  0  0  0
   13.6412    6.0365   -0.6565 H   0  0  0  0  0  0  0  0  0  0  0  0
   12.1353    6.2898    0.2584 H   0  0  0  0  0  0  0  0  0  0  0  0
   14.9738    6.8086    1.0035 H   0  0  0  0  0  0  0  0  0  0  0  0
   13.5413    6.7420    2.0524 H   0  0  0  0  0  0  0  0  0  0  0  0
   14.9433    9.0705    1.0936 H   0  0  0  0  0  0  0  0  0  0  0  0
   13.4527    9.0819    2.0999 H   0  0  0  0  0  0  0  0  0  0  0  0
   13.7228    9.9228   -0.6197 H   0  0  0  0  0  0  0  0  0  0  0  0
   12.2374   10.8072    0.9538 H   0  0  0  0  0  0  0  0  0  0  0  0
   11.3113    9.2780    1.1628 H   0  0  0  0  0  0  0  0  0  0  0  0
   10.2792    9.7304   -0.7561 H   0  0  0  0  0  0  0  0  0  0  0  0
  1  2  2  0
  2  3  1  0
  4  3  2  0
  5  4  1  0
  6  1  1  0
  6  5  2  0
  1  7  1  0
  2  8  1  0
  5  9  1  0
 10 11  1  0
 11 12  1  0
 12 13  1  0
 13 14  1  0
 14 15  1  0
 15 16  1  0
 14 10  1  0
 11 17  1  0
 11 18  1  0
 12 19  1  0
 12 20  1  0
 13 21  1  0
 13 22  1  0
 14 23  1  6
 15 24  1  0
 15 25  1  0
 16 26  1  0
  3 10  1  0
M  END
>  <Score>  (1) 
-7.10068

$$$$

     RDKit          3D

 20 21  0  0  0  0  0  0  0  0999 V2000
   11.5566    6.9248   -4.1722 C   0  0  0  0  0  0  0  0  0  0  0  0
   12.0447    6.8269   -2.8520 C   0  0  0  0  0  0  0  0  0  0  0  0
   12.3203    8.0191   -2.1665 C   0  0  0  0  0  0  0  0  0  0  0  0
   12.1013    9.2009   -2.8135 N   0  0  0  0  0  0  0  0  0  0  0  0
   11.6319    9.2557   -4.0811 C   0  0  0  0  0  0  0  0  0  0  0  0
   11.3621    8.1226   -4.7537 N   0  0  0  0  0  0  0  0  0  0  0  0
   11.3490    6.0189   -4.6883 H   0  0  0  0  0  0  0  0  0  0  0  0
   12.2046    5.8829   -2.3759 H   0  0  0  0  0  0  0  0  0  0  0  0
   11.4685   10.2093   -4.5671 H   0  0  0  0  0  0  0  0  0  0  0  0
   12.8267    7.9724   -0.7996 C   0  0  0  0  0  0  0  0  0  0  0  0
   12.2928    7.1429    0.1588 C   0  0  0  0  0  0  0  0  0  0  0  0
   11.2635    6.3340   -0.1518 F   0  0  0  0  0  0  0  0  0  0  0  0
   12.7793    7.1066    1.4485 C   0  0  0  0  0  0  0  0  0  0  0  0
   13.8331    7.9135    1.8246 C   0  0  0  0  0  0  0  0  0  0  0  0
   14.3708    8.7465    0.8659 C   0  0  0  0  0  0  0  0  0  0  0  0
   13.8853    8.7839   -0.4243 C   0  0  0  0  0  0  0  0  0  0  0  0
   14.4454    9.6247   -1.3490 F   0  0  0  0  0  0  0  0  0  0  0  0
   12.3697    6.4588    2.2148 H   0  0  0  0  0  0  0  0  0  0  0  0
   14.2320    7.8960    2.8485 H   0  0  0  0  0  0  0  0  0  0  0  0
   15.2075    9.3829    1.1759 H   0  0  0  0  0  0  0  0  0  0  0  0
  1  2  2  0
  2  3  1  0
  4  3  2  0
  5  4  1  0
  6  1  1  0
  6  5  2  0
  1  7  1  0
  2  8  1  0
  5  9  1  0
 10 11  2  0
 11 12  1  0
 11 13  1  0
 13 14  2  0
 14 15  1  0
 15 16  2  0
 16 17  1  0
 16 10  1  0
 13 18  1  0
 14 19  1  0
 15 20  1  0
  3 10  1  0
M  END
>  <Score>  (1) 
-7.04066

$$$$

     RDKit          3D

 26 28  0  0  0  0  0  0  0  0999 V2000
   11.8124    6.9307   -2.9651 C   0  0  0  0  0  0  0  0  0  0  0  0
   11.4347    6.8806   -4.3292 C   0  0  0  0  0  0  0  0  0  0  0  0
   11.3604    8.0896   -5.0280 C   0  0  0  0  0  0  0  0  0  0  0  0
   11.6542    9.2437   -4.3609 N   0  0  0  0  0  0  0  0  0  0  0  0
   12.0117    9.2534   -3.0563 C   0  0  0  0  0  0  0  0  0  0  0  0
   12.0886    8.0979   -2.3665 N   0  0  0  0  0  0  0  0  0  0  0  0
   11.8553    5.9730   -2.4697 H   0  0  0  0  0  0  0  0  0  0  0  0
   11.2158    5.9392   -4.7974 H   0  0  0  0  0  0  0  0  0  0  0  0
   11.0746    8.0822   -6.0713 H   0  0  0  0  0  0  0  0  0  0  0  0
   12.3120   10.5162   -2.4034 C   0  0  0  0  0  0  0  0  0  0  0  0
   11.9459   11.7025   -2.9914 C   0  0  0  0  0  0  0  0  0  0  0  0
   12.2448   12.9018   -2.3460 C   0  0  0  0  0  0  0  0  0  0  0  0
   12.8986   12.9225   -1.1326 C   0  0  0  0  0  0  0  0  0  0  0  0
   13.1827   14.1420   -0.5133 C   0  0  0  0  0  0  0  0  0  0  0  0
   13.8345   14.1274    0.6937 C   0  0  0  0  0  0  0  0  0  0  0  0
   14.2098   12.9570    1.2997 C   0  0  0  0  0  0  0  0  0  0  0  0
   13.9206   11.7707    0.6733 C   0  0  0  0  0  0  0  0  0  0  0  0
   13.2674   11.7297   -0.5404 C   0  0  0  0  0  0  0  0  0  0  0  0
   12.9607   10.5522   -1.1984 C   0  0  0  0  0  0  0  0  0  0  0  0
   11.4246   11.7106   -3.9568 H   0  0  0  0  0  0  0  0  0  0  0  0
   11.9535   13.8378   -2.8143 H   0  0  0  0  0  0  0  0  0  0  0  0
   12.9112   15.0783   -0.9450 H   0  0  0  0  0  0  0  0  0  0  0  0
   14.0613   15.0627    1.1853 H   0  0  0  0  0  0  0  0  0  0  0  0
   14.7292   12.9224    2.2597 H   0  0  0  0  0  0  0  0  0  0  0  0
   14.1902   10.8033    1.0991 H   0  0  0  0  0  0  0  0  0  0  0  0
   13.2455    9.6348   -0.7407 H   0  0  0  0  0  0  0  0  0  0  0  0
  1  6  2  0
  2  1  1  0
  3  4  1  0
  3  2  2  0
  4  5  2  0
  5  6  1  0
  1  7  1  0
  2  8  1  0
  3  9  1  0
 10 11  2  0
 11 12  1  0
 12 13  2  0
 13 14  1  0
 14 15  2  0
 15 16  1  0
 16 17  2  0
 17 18  1  0
 18 19  2  0
 19 10  1  0
 18 13  1  0
 11 20  1  0
 12 21  1  0
 14 22  1  0
 15 23  1  0
 16 24  1  0
 17 25  1  0
 19 26  1  0
  5 10  1  0
M  END
>  <Score>  (1) 
-8.9525

$$$$

     RDKit          3D

 25 27  0  0  0  0  0  0  0  0999 V2000
   11.8119    6.9313   -2.9668 C   0  0  0  0  0  0  0  0  0  0  0  0
   11.4350    6.8808   -4.3283 C   0  0  0  0  0  0  0  0  0  0  0  0
   11.3599    8.0865   -5.0287 C   0  0  0  0  0  0  0  0  0  0  0  0
   11.6554    9.2461   -4.3575 N   0  0  0  0  0  0  0  0  0  0  0  0
   12.0111    9.2545   -3.0588 C   0  0  0  0  0  0  0  0  0  0  0  0
   12.0887    8.0967   -2.3659 N   0  0  0  0  0  0  0  0  0  0  0  0
   11.8737    6.0036   -2.4133 H   0  0  0  0  0  0  0  0  0  0  0  0
   11.2127    5.9485   -4.8120 H   0  0  0  0  0  0  0  0  0  0  0  0
   11.0795    8.1287   -6.0697 H   0  0  0  0  0  0  0  0  0  0  0  0
   12.3159   10.5052   -2.3855 C   0  0  0  0  0  0  0  0  0  0  0  0
   11.9558   11.7107   -2.9549 C   0  0  0  0  0  0  0  0  0  0  0  0
   12.2180   12.9202   -2.3642 C   0  0  0  0  0  0  0  0  0  0  0  0
   12.8698   12.9272   -1.1493 C   0  0  0  0  0  0  0  0  0  0  0  0
   13.1327   14.1004   -0.5604 N   0  0  0  0  0  0  0  0  0  0  0  0
   13.7644   14.1632    0.6219 C   0  0  0  0  0  0  0  0  0  0  0  0
   14.1523   13.0034    1.2470 C   0  0  0  0  0  0  0  0  0  0  0  0
   13.8930   11.7841    0.6611 C   0  0  0  0  0  0  0  0  0  0  0  0
   13.2451   11.7203   -0.5516 C   0  0  0  0  0  0  0  0  0  0  0  0
   12.9619   10.5216   -1.1804 C   0  0  0  0  0  0  0  0  0  0  0  0
   11.4353   11.7443   -3.9217 H   0  0  0  0  0  0  0  0  0  0  0  0
   11.9225   13.8460   -2.8369 H   0  0  0  0  0  0  0  0  0  0  0  0
   13.9435   15.1414    1.0381 H   0  0  0  0  0  0  0  0  0  0  0  0
   14.6525   13.0505    2.1829 H   0  0  0  0  0  0  0  0  0  0  0  0
   14.1812   10.8407    1.1186 H   0  0  0  0  0  0  0  0  0  0  0  0
   13.2697    9.5889   -0.6853 H   0  0  0  0  0  0  0  0  0  0  0  0
  1  6  2  0
  2  1  1  0
  3  4  1  0
  3  2  2  0
  4  5  2  0
  5  6  1  0
  1  7  1  0
  2  8  1  0
  3  9  1  0
 10 11  2  0
 11 12  1  0
 12 13  2  0
 13 14  1  0
 14 15  2  0
 15 16  1  0
 16 17  2  0
 17 18  1  0
 18 19  2  0
 19 10  1  0
 18 13  1  0
 11 20  1  0
 12 21  1  0
 15 22  1  0
 16 23  1  0
 17 24  1  0
 19 25  1  0
  5 10  1  0
M  END
>  <Score>  (1) 
-8.59649

$$$$

     RDKit          3D

 24 26  0  0  0  0  0  0  0  0999 V2000
   11.8113    6.9286   -2.9683 C   0  0  0  0  0  0  0  0  0  0  0  0
   11.4355    6.8784   -4.3254 C   0  0  0  0  0  0  0  0  0  0  0  0
   11.3601    8.0917   -5.0300 C   0  0  0  0  0  0  0  0  0  0  0  0
   11.6547    9.2433   -4.3589 N   0  0  0  0  0  0  0  0  0  0  0  0
   12.0117    9.2518   -3.0556 C   0  0  0  0  0  0  0  0  0  0  0  0
   12.0887    8.1023   -2.3678 N   0  0  0  0  0  0  0  0  0  0  0  0
   11.8565    5.9788   -2.4672 H   0  0  0  0  0  0  0  0  0  0  0  0
   11.2135    5.9524   -4.8106 H   0  0  0  0  0  0  0  0  0  0  0  0
   11.0835    8.1351   -6.0572 H   0  0  0  0  0  0  0  0  0  0  0  0
   12.3222   10.5104   -2.3644 C   0  0  0  0  0  0  0  0  0  0  0  0
   11.9842   11.7009   -2.8906 N   0  0  0  0  0  0  0  0  0  0  0  0
   12.2541   12.8700   -2.2827 C   0  0  0  0  0  0  0  0  0  0  0  0
   11.9833   13.8365   -2.7033 H   0  0  0  0  0  0  0  0  0  0  0  0
   12.9092   12.8429   -1.0613 C   0  0  0  0  0  0  0  0  0  0  0  0
   13.2147   14.0274   -0.3859 C   0  0  0  0  0  0  0  0  0  0  0  0
   13.8654   13.9493    0.8229 C   0  0  0  0  0  0  0  0  0  0  0  0
   14.2152   12.7525    1.3703 C   0  0  0  0  0  0  0  0  0  0  0  0
   13.9127   11.5883    0.7024 C   0  0  0  0  0  0  0  0  0  0  0  0
   13.2606   11.6336   -0.5119 C   0  0  0  0  0  0  0  0  0  0  0  0
   12.9550   10.5015   -1.1831 N   0  0  0  0  0  0  0  0  0  0  0  0
   12.9286   14.9882   -0.8353 H   0  0  0  0  0  0  0  0  0  0  0  0
   14.1172   14.8618    1.3741 H   0  0  0  0  0  0  0  0  0  0  0  0
   14.7288   12.6877    2.3242 H   0  0  0  0  0  0  0  0  0  0  0  0
   14.2033   10.6452    1.1619 H   0  0  0  0  0  0  0  0  0  0  0  0
  1  6  2  0
  2  1  1  0
  3  4  1  0
  3  2  2  0
  4  5  2  0
  5  6  1  0
  1  7  1  0
  2  8  1  0
  3  9  1  0
 10 11  2  0
 11 12  1  0
 12 13  1  0
 12 14  2  0
 14 15  1  0
 15 16  2  0
 16 17  1  0
 17 18  2  0
 18 19  1  0
 19 20  2  0
 20 10  1  0
 19 14  1  0
 15 21  1  0
 16 22  1  0
 17 23  1  0
 18 24  1  0
  5 10  1  0
M  END
>  <Score>  (1) 
-8.27234

$$$$

     RDKit          3D

 24 26  0  0  0  0  0  0  0  0999 V2000
   11.8120    6.9309   -2.9665 C   0  0  0  0  0  0  0  0  0  0  0  0
   11.4351    6.8791   -4.3271 C   0  0  0  0  0  0  0  0  0  0  0  0
   11.3596    8.0884   -5.0304 C   0  0  0  0  0  0  0  0  0  0  0  0
   11.6561    9.2456   -4.3548 N   0  0  0  0  0  0  0  0  0  0  0  0
   12.0108    9.2530   -3.0593 C   0  0  0  0  0  0  0  0  0  0  0  0
   12.0884    8.0990   -2.3678 N   0  0  0  0  0  0  0  0  0  0  0  0
   11.8528    5.9673   -2.4766 H   0  0  0  0  0  0  0  0  0  0  0  0
   11.2133    5.9432   -4.8080 H   0  0  0  0  0  0  0  0  0  0  0  0
   11.0759    8.0946   -6.0709 H   0  0  0  0  0  0  0  0  0  0  0  0
   12.3058   10.5431   -2.4360 C   0  0  0  0  0  0  0  0  0  0  0  0
   11.9408   11.7271   -3.0328 C   0  0  0  0  0  0  0  0  0  0  0  0
   12.2174   12.9127   -2.4499 N   0  0  0  0  0  0  0  0  0  0  0  0
   12.8619   12.9846   -1.2602 C   0  0  0  0  0  0  0  0  0  0  0  0
   13.1506   14.1879   -0.6536 C   0  0  0  0  0  0  0  0  0  0  0  0
   13.8137   14.2453    0.5695 C   0  0  0  0  0  0  0  0  0  0  0  0
   14.1864   13.0647    1.1808 C   0  0  0  0  0  0  0  0  0  0  0  0
   13.8947   11.8614    0.5688 C   0  0  0  0  0  0  0  0  0  0  0  0
   13.2305   11.8055   -0.6562 C   0  0  0  0  0  0  0  0  0  0  0  0
   12.9464   10.6345   -1.2521 N   0  0  0  0  0  0  0  0  0  0  0  0
   11.4251   11.6547   -3.9856 H   0  0  0  0  0  0  0  0  0  0  0  0
   12.8542   15.1081   -1.1411 H   0  0  0  0  0  0  0  0  0  0  0  0
   14.0394   15.1903    1.0438 H   0  0  0  0  0  0  0  0  0  0  0  0
   14.6998   13.1320    2.1291 H   0  0  0  0  0  0  0  0  0  0  0  0
   14.1859   10.9419    1.0465 H   0  0  0  0  0  0  0  0  0  0  0  0
  1  6  2  0
  2  1  1  0
  3  4  1  0
  3  2  2  0
  4  5  2  0
  5  6  1  0
  1  7  1  0
  2  8  1  0
  3  9  1  0
 10 11  2  0
 11 12  1  0
 12 13  2  0
 13 14  1  0
 14 15  2  0
 15 16  1  0
 16 17  2  0
 17 18  1  0
 18 19  2  0
 19 10  1  0
 18 13  1  0
 11 20  1  0
 14 21  1  0
 15 22  1  0
 16 23  1  0
 17 24  1  0
  5 10  1  0
M  END
>  <Score>  (1) 
-8.26966

$$$$

     RDKit          3D

 24 26  0  0  0  0  0  0  0  0999 V2000
   11.8100    6.9314   -2.9740 C   0  0  0  0  0  0  0  0  0  0  0  0
   11.4363    6.8825   -4.3241 C   0  0  0  0  0  0  0  0  0  0  0  0
   11.3595    8.0855   -5.0301 C   0  0  0  0  0  0  0  0  0  0  0  0
   11.6593    9.2308   -4.3377 N   0  0  0  0  0  0  0  0  0  0  0  0
   12.0111    9.2700   -3.0644 C   0  0  0  0  0  0  0  0  0  0  0  0
   12.0859    8.0958   -2.3756 N   0  0  0  0  0  0  0  0  0  0  0  0
   11.8540    5.9844   -2.4785 H   0  0  0  0  0  0  0  0  0  0  0  0
   11.2111    5.9590   -4.8217 H   0  0  0  0  0  0  0  0  0  0  0  0
   11.0781    8.1180   -6.0712 H   0  0  0  0  0  0  0  0  0  0  0  0
   12.3328   10.4574   -2.3066 C   0  0  0  0  0  0  0  0  0  0  0  0
   11.9978   11.6905   -2.7972 N   0  0  0  0  0  0  0  0  0  0  0  0
   12.2319   12.8457   -2.2104 C   0  0  0  0  0  0  0  0  0  0  0  0
   12.8538   12.8483   -1.0225 N   0  0  0  0  0  0  0  0  0  0  0  0
   13.2288   11.6784   -0.4481 C   0  0  0  0  0  0  0  0  0  0  0  0
   13.8587   11.7681    0.7657 C   0  0  0  0  0  0  0  0  0  0  0  0
   14.2510   10.6204    1.3758 C   0  0  0  0  0  0  0  0  0  0  0  0
   14.0025    9.4195    0.7562 C   0  0  0  0  0  0  0  0  0  0  0  0
   14.3102    8.5002    1.2325 H   0  0  0  0  0  0  0  0  0  0  0  0
   13.3618    9.3193   -0.4795 C   0  0  0  0  0  0  0  0  0  0  0  0
   12.9693   10.4853   -1.0879 C   0  0  0  0  0  0  0  0  0  0  0  0
   11.9490   13.8150   -2.6334 H   0  0  0  0  0  0  0  0  0  0  0  0
   14.0269   12.7553    1.2061 H   0  0  0  0  0  0  0  0  0  0  0  0
   14.7524   10.6891    2.3416 H   0  0  0  0  0  0  0  0  0  0  0  0
   13.1870    8.3627   -0.9290 H   0  0  0  0  0  0  0  0  0  0  0  0
  1  6  2  0
  2  1  1  0
  3  4  1  0
  3  2  2  0
  4  5  2  0
  5  6  1  0
  1  7  1  0
  2  8  1  0
  3  9  1  0
 10 11  2  0
 11 12  1  0
 12 13  2  0
 13 14  1  0
 14 15  2  0
 15 16  1  0
 16 17  2  0
 17 18  1  0
 17 19  1  0
 19 20  2  0
 20 10  1  0
 20 14  1  0
 12 21  1  0
 15 22  1  0
 16 23  1  0
 19 24  1  0
  5 10  1  0
M  END
>  <Score>  (1) 
-7.74597

$$$$

     RDKit          3D

 20 21  0  0  0  0  0  0  0  0999 V2000
   11.8106    6.9278   -2.9703 C   0  0  0  0  0  0  0  0  0  0  0  0
   11.4358    6.8793   -4.3247 C   0  0  0  0  0  0  0  0  0  0  0  0
   11.3605    8.0924   -5.0287 C   0  0  0  0  0  0  0  0  0  0  0  0
   11.6536    9.2420   -4.3625 N   0  0  0  0  0  0  0  0  0  0  0  0
   12.0122    9.2512   -3.0536 C   0  0  0  0  0  0  0  0  0  0  0  0
   12.0893    8.1033   -2.3662 N   0  0  0  0  0  0  0  0  0  0  0  0
   11.8565    5.9876   -2.4705 H   0  0  0  0  0  0  0  0  0  0  0  0
   11.2127    5.9389   -4.8088 H   0  0  0  0  0  0  0  0  0  0  0  0
   11.0834    8.1253   -6.0544 H   0  0  0  0  0  0  0  0  0  0  0  0
   12.3114   10.5263   -2.4094 C   0  0  0  0  0  0  0  0  0  0  0  0
   12.9623   10.5674   -1.2036 C   0  0  0  0  0  0  0  0  0  0  0  0
   13.2735   11.7351   -0.5449 C   0  0  0  0  0  0  0  0  0  0  0  0
   12.8994   12.9148   -1.1518 C   0  0  0  0  0  0  0  0  0  0  0  0
   13.2406   14.4648   -0.4102 Cl  0  0  0  0  0  0  0  0  0  0  0  0
   12.2418   12.8982   -2.3682 C   0  0  0  0  0  0  0  0  0  0  0  0
   11.9340   11.7024   -3.0225 C   0  0  0  0  0  0  0  0  0  0  0  0
   11.1097   11.6618   -4.5486 Cl  0  0  0  0  0  0  0  0  0  0  0  0
   13.2528    9.6373   -0.7334 H   0  0  0  0  0  0  0  0  0  0  0  0
   13.7797   11.7505    0.3918 H   0  0  0  0  0  0  0  0  0  0  0  0
   11.9495   13.8244   -2.8419 H   0  0  0  0  0  0  0  0  0  0  0  0
  1  6  2  0
  2  1  1  0
  3  4  1  0
  3  2  2  0
  4  5  2  0
  5  6  1  0
  1  7  1  0
  2  8  1  0
  3  9  1  0
 10 11  2  0
 11 12  1  0
 12 13  2  0
 13 14  1  0
 13 15  1  0
 15 16  2  0
 16 17  1  0
 16 10  1  0
 11 18  1  0
 12 19  1  0
 15 20  1  0
  5 10  1  0
M  END
>  <Score>  (1) 
-7.5193

$$$$

     RDKit          3D

 20 21  0  0  0  0  0  0  0  0999 V2000
   11.8111    6.9276   -2.9684 C   0  0  0  0  0  0  0  0  0  0  0  0
   11.4353    6.8795   -4.3264 C   0  0  0  0  0  0  0  0  0  0  0  0
   11.3604    8.0913   -5.0288 C   0  0  0  0  0  0  0  0  0  0  0  0
   11.6542    9.2431   -4.3607 N   0  0  0  0  0  0  0  0  0  0  0  0
   12.0120    9.2502   -3.0542 C   0  0  0  0  0  0  0  0  0  0  0  0
   12.0890    8.1043   -2.3675 N   0  0  0  0  0  0  0  0  0  0  0  0
   11.8637    5.9806   -2.4415 H   0  0  0  0  0  0  0  0  0  0  0  0
   11.2121    5.9452   -4.8130 H   0  0  0  0  0  0  0  0  0  0  0  0
   11.0767    8.0805   -6.0629 H   0  0  0  0  0  0  0  0  0  0  0  0
   12.3034   10.5527   -2.4480 C   0  0  0  0  0  0  0  0  0  0  0  0
   12.9587   10.6710   -1.2419 C   0  0  0  0  0  0  0  0  0  0  0  0
   13.2336   11.8965   -0.6702 C   0  0  0  0  0  0  0  0  0  0  0  0
   12.8591   13.0694   -1.2899 C   0  0  0  0  0  0  0  0  0  0  0  0
   13.1993   14.6435   -0.5789 Cl  0  0  0  0  0  0  0  0  0  0  0  0
   12.2028   12.9527   -2.4978 C   0  0  0  0  0  0  0  0  0  0  0  0
   11.8167   14.0894   -3.1407 F   0  0  0  0  0  0  0  0  0  0  0  0
   11.9286   11.7269   -3.0682 C   0  0  0  0  0  0  0  0  0  0  0  0
   13.2514    9.7324   -0.7588 H   0  0  0  0  0  0  0  0  0  0  0  0
   13.7561   11.9670    0.2901 H   0  0  0  0  0  0  0  0  0  0  0  0
   11.4046   11.6336   -4.0325 H   0  0  0  0  0  0  0  0  0  0  0  0
  1  6  2  0
  2  1  1  0
  3  4  1  0
  3  2  2  0
  4  5  2  0
  5  6  1  0
  1  7  1  0
  2  8  1  0
  3  9  1  0
 10 11  2  0
 11 12  1  0
 12 13  2  0
 13 14  1  0
 13 15  1  0
 15 16  1  0
 15 17  2  0
 17 10  1  0
 11 18  1  0
 12 19  1  0
 17 20  1  0
  5 10  1  0
M  END
>  <Score>  (1) 
-7.51483

$$$$

     RDKit          3D

 25 26  0  0  0  0  0  0  0  0999 V2000
   12.3027    8.1226   -2.3009 C   0  0  0  0  0  0  0  0  0  0  0  0
   12.0211    6.8843   -2.9140 C   0  0  0  0  0  0  0  0  0  0  0  0
   11.5246    6.8989   -4.2244 C   0  0  0  0  0  0  0  0  0  0  0  0
   11.3445    8.1103   -4.8260 N   0  0  0  0  0  0  0  0  0  0  0  0
   11.6214    9.2778   -4.2183 C   0  0  0  0  0  0  0  0  0  0  0  0
   12.1007    9.2771   -2.9544 N   0  0  0  0  0  0  0  0  0  0  0  0
   12.6876    8.0899   -1.2830 H   0  0  0  0  0  0  0  0  0  0  0  0
   12.1909    5.9660   -2.3701 H   0  0  0  0  0  0  0  0  0  0  0  0
   11.2971    5.9722   -4.7274 H   0  0  0  0  0  0  0  0  0  0  0  0
   11.4233   10.5237   -4.8698 N   0  0  0  0  0  0  0  0  0  0  0  0
   11.5260   10.7236   -6.2839 C   0  0  0  0  0  0  0  0  0  0  0  0
   10.5814    9.9233   -7.0926 C   0  0  0  0  0  0  0  0  0  0  0  0
    9.2592   10.2863   -7.2041 C   0  0  0  0  0  0  0  0  0  0  0  0
    8.3546    9.5584   -7.9579 C   0  0  0  0  0  0  0  0  0  0  0  0
    8.7619    8.4347   -8.6260 C   0  0  0  0  0  0  0  0  0  0  0  0
    8.0330    7.8825   -9.2096 H   0  0  0  0  0  0  0  0  0  0  0  0
   10.0747    8.0480   -8.5338 C   0  0  0  0  0  0  0  0  0  0  0  0
   10.9813    8.7919   -7.7683 C   0  0  0  0  0  0  0  0  0  0  0  0
   11.1845   11.3432   -4.2448 H   0  0  0  0  0  0  0  0  0  0  0  0
   12.5858   10.4803   -6.5689 H   0  0  0  0  0  0  0  0  0  0  0  0
   11.4411   11.8197   -6.5101 H   0  0  0  0  0  0  0  0  0  0  0  0
    8.8821   11.1608   -6.7006 H   0  0  0  0  0  0  0  0  0  0  0  0
    7.3203    9.8548   -8.0364 H   0  0  0  0  0  0  0  0  0  0  0  0
   10.4263    7.1664   -9.0492 H   0  0  0  0  0  0  0  0  0  0  0  0
   12.0007    8.4332   -7.7409 H   0  0  0  0  0  0  0  0  0  0  0  0
  2  1  2  0
  3  2  1  0
  4  3  2  0
  4  5  1  0
  5  6  2  0
  6  1  1  0
  1  7  1  0
  2  8  1  0
  3  9  1  0
 10 11  1  0
 11 12  1  0
 12 13  2  0
 13 14  1  0
 14 15  2  0
 15 16  1  0
 15 17  1  0
 17 18  2  0
 18 12  1  0
 10 19  1  0
 11 20  1  0
 11 21  1  0
 13 22  1  0
 14 23  1  0
 17 24  1  0
 18 25  1  0
  5 10  1  0
M  END
>  <Score>  (1) 
-7.74456

$$$$

     RDKit          3D

 25 26  0  0  0  0  0  0  0  0999 V2000
   11.8113    6.9293   -2.9683 C   0  0  0  0  0  0  0  0  0  0  0  0
   11.4357    6.8792   -4.3250 C   0  0  0  0  0  0  0  0  0  0  0  0
   11.3603    8.0915   -5.0293 C   0  0  0  0  0  0  0  0  0  0  0  0
   11.6541    9.2443   -4.3616 N   0  0  0  0  0  0  0  0  0  0  0  0
   12.0119    9.2487   -3.0538 C   0  0  0  0  0  0  0  0  0  0  0  0
   12.0887    8.1029   -2.3681 N   0  0  0  0  0  0  0  0  0  0  0  0
   11.8702    5.9901   -2.4212 H   0  0  0  0  0  0  0  0  0  0  0  0
   11.2173    5.9423   -4.7931 H   0  0  0  0  0  0  0  0  0  0  0  0
   11.0774    8.0483   -6.0491 H   0  0  0  0  0  0  0  0  0  0  0  0
   12.3141   10.5173   -2.3964 C   0  0  0  0  0  0  0  0  0  0  0  0
   12.2346   11.6932   -3.1032 C   0  0  0  0  0  0  0  0  0  0  0  0
   12.5124   12.9081   -2.5161 C   0  0  0  0  0  0  0  0  0  0  0  0
   12.8762   12.9301   -1.1932 C   0  0  0  0  0  0  0  0  0  0  0  0
   12.9725   11.7716   -0.4310 C   0  0  0  0  0  0  0  0  0  0  0  0
   13.4405   11.8477    1.2544 S   0  0  0  0  0  6  0  0  0  0  0  0
   11.9713   12.0248    2.1779 N   0  0  0  0  0  0  0  0  0  0  0  0
   14.1590   10.5895    1.6338 O   0  0  0  0  0  0  0  0  0  0  0  0
   14.2992   13.0700    1.4695 O   0  0  0  0  0  0  0  0  0  0  0  0
   12.6821   10.5844   -1.0737 C   0  0  0  0  0  0  0  0  0  0  0  0
   11.9418   11.6641   -4.1645 H   0  0  0  0  0  0  0  0  0  0  0  0
   12.4301   13.7948   -3.1308 H   0  0  0  0  0  0  0  0  0  0  0  0
   13.0984   13.8693   -0.7117 H   0  0  0  0  0  0  0  0  0  0  0  0
   11.6732   13.0345    2.0436 H   0  0  0  0  0  0  0  0  0  0  0  0
   11.2534   11.4475    1.6868 H   0  0  0  0  0  0  0  0  0  0  0  0
   12.7522    9.6639   -0.4918 H   0  0  0  0  0  0  0  0  0  0  0  0
  1  6  2  0
  2  1  1  0
  3  4  1  0
  3  2  2  0
  4  5  2  0
  5  6  1  0
  1  7  1  0
  2  8  1  0
  3  9  1  0
 10 11  2  0
 11 12  1  0
 12 13  2  0
 13 14  1  0
 14 15  1  0
 15 16  1  0
 15 17  2  0
 15 18  2  0
 14 19  2  0
 19 10  1  0
 11 20  1  0
 12 21  1  0
 13 22  1  0
 16 23  1  0
 16 24  1  0
 19 25  1  0
  5 10  1  0
M  END
>  <Score>  (1) 
-7.47467

$$$$

     RDKit          3D

 20 21  0  0  0  0  0  0  0  0999 V2000
   11.8109    6.9284   -2.9697 C   0  0  0  0  0  0  0  0  0  0  0  0
   11.4359    6.8776   -4.3237 C   0  0  0  0  0  0  0  0  0  0  0  0
   11.3604    8.0940   -5.0297 C   0  0  0  0  0  0  0  0  0  0  0  0
   11.6537    9.2425   -4.3623 N   0  0  0  0  0  0  0  0  0  0  0  0
   12.0121    9.2518   -3.0542 C   0  0  0  0  0  0  0  0  0  0  0  0
   12.0891    8.1017   -2.3663 N   0  0  0  0  0  0  0  0  0  0  0  0
   11.8578    5.9800   -2.4630 H   0  0  0  0  0  0  0  0  0  0  0  0
   11.2122    5.9439   -4.8123 H   0  0  0  0  0  0  0  0  0  0  0  0
   11.0765    8.0646   -6.0580 H   0  0  0  0  0  0  0  0  0  0  0  0
   12.3130   10.5227   -2.4021 C   0  0  0  0  0  0  0  0  0  0  0  0
   12.3729   10.5898   -1.0320 C   0  0  0  0  0  0  0  0  0  0  0  0
   12.6538   11.7691   -0.3776 C   0  0  0  0  0  0  0  0  0  0  0  0
   12.8796   12.9096   -1.1331 C   0  0  0  0  0  0  0  0  0  0  0  0
   13.2428   14.4474   -0.3735 Cl  0  0  0  0  0  0  0  0  0  0  0  0
   12.8248   12.8653   -2.5050 C   0  0  0  0  0  0  0  0  0  0  0  0
   12.5397   11.6605   -3.1160 C   0  0  0  0  0  0  0  0  0  0  0  0
   12.2019    9.7179   -0.4020 H   0  0  0  0  0  0  0  0  0  0  0  0
   12.7064   11.8457    0.7107 H   0  0  0  0  0  0  0  0  0  0  0  0
   13.0066   13.7800   -3.0893 H   0  0  0  0  0  0  0  0  0  0  0  0
   12.5010   11.6453   -4.1918 H   0  0  0  0  0  0  0  0  0  0  0  0
  1  6  2  0
  2  1  1  0
  3  4  1  0
  3  2  2  0
  4  5  2  0
  5  6  1  0
  1  7  1  0
  2  8  1  0
  3  9  1  0
 10 11  2  0
 11 12  1  0
 12 13  2  0
 13 14  1  0
 13 15  1  0
 15 16  2  0
 16 10  1  0
 11 17  1  0
 12 18  1  0
 15 19  1  0
 16 20  1  0
  5 10  1  0
M  END
>  <Score>  (1) 
-7.42985

$$$$

     RDKit          3D

 20 21  0  0  0  0  0  0  0  0999 V2000
   11.8114    6.9306   -2.9684 C   0  0  0  0  0  0  0  0  0  0  0  0
   11.4356    6.8773   -4.3248 C   0  0  0  0  0  0  0  0  0  0  0  0
   11.3599    8.0925   -5.0308 C   0  0  0  0  0  0  0  0  0  0  0  0
   11.6545    9.2440   -4.3597 N   0  0  0  0  0  0  0  0  0  0  0  0
   12.0118    9.2482   -3.0542 C   0  0  0  0  0  0  0  0  0  0  0  0
   12.0888    8.1034   -2.3681 N   0  0  0  0  0  0  0  0  0  0  0  0
   11.8559    5.9729   -2.4673 H   0  0  0  0  0  0  0  0  0  0  0  0
   11.2141    5.9372   -4.8032 H   0  0  0  0  0  0  0  0  0  0  0  0
   11.0756    8.0829   -6.0676 H   0  0  0  0  0  0  0  0  0  0  0  0
   12.3064   10.5371   -2.4316 C   0  0  0  0  0  0  0  0  0  0  0  0
   12.9622   10.6219   -1.2208 C   0  0  0  0  0  0  0  0  0  0  0  0
   13.2361   11.8416   -0.6406 C   0  0  0  0  0  0  0  0  0  0  0  0
   12.8558   13.0095   -1.2660 C   0  0  0  0  0  0  0  0  0  0  0  0
   12.1886   12.9667   -2.4951 C   0  0  0  0  0  0  0  0  0  0  0  0
   11.9443   11.7297   -3.0220 C   0  0  0  0  0  0  0  0  0  0  0  0
   11.0375   11.6270   -4.6953 Br  0  0  0  0  0  0  0  0  0  0  0  0
   13.2605    9.6929   -0.7311 H   0  0  0  0  0  0  0  0  0  0  0  0
   13.7487   11.9046    0.3056 H   0  0  0  0  0  0  0  0  0  0  0  0
   13.0654   13.9650   -0.8206 H   0  0  0  0  0  0  0  0  0  0  0  0
   11.9080   13.8975   -2.9523 H   0  0  0  0  0  0  0  0  0  0  0  0
  1  6  2  0
  2  1  1  0
  3  4  1  0
  3  2  2  0
  4  5  2  0
  5  6  1  0
  1  7  1  0
  2  8  1  0
  3  9  1  0
 10 11  2  0
 11 12  1  0
 12 13  2  0
 13 14  1  0
 14 15  2  0
 15 16  1  0
 15 10  1  0
 11 17  1  0
 12 18  1  0
 13 19  1  0
 14 20  1  0
  5 10  1  0
M  END
>  <Score>  (1) 
-7.4105

$$$$

     RDKit          3D

 21 22  0  0  0  0  0  0  0  0999 V2000
   11.8106    6.9270   -2.9703 C   0  0  0  0  0  0  0  0  0  0  0  0
   11.4358    6.8799   -4.3248 C   0  0  0  0  0  0  0  0  0  0  0  0
   11.3598    8.0890   -5.0301 C   0  0  0  0  0  0  0  0  0  0  0  0
   11.6549    9.2442   -4.3586 N   0  0  0  0  0  0  0  0  0  0  0  0
   12.0121    9.2513   -3.0541 C   0  0  0  0  0  0  0  0  0  0  0  0
   12.0889    8.1047   -2.3681 N   0  0  0  0  0  0  0  0  0  0  0  0
   11.8784    6.0143   -2.3995 H   0  0  0  0  0  0  0  0  0  0  0  0
   11.2102    5.9484   -4.8211 H   0  0  0  0  0  0  0  0  0  0  0  0
   11.0760    8.0910   -6.0691 H   0  0  0  0  0  0  0  0  0  0  0  0
   12.3067   10.5471   -2.4341 C   0  0  0  0  0  0  0  0  0  0  0  0
   12.9615   10.6438   -1.2257 C   0  0  0  0  0  0  0  0  0  0  0  0
   13.2424   11.8693   -0.6352 C   0  0  0  0  0  0  0  0  0  0  0  0
   12.8693   13.0462   -1.2491 C   0  0  0  0  0  0  0  0  0  0  0  0
   12.2139   12.9517   -2.4585 C   0  0  0  0  0  0  0  0  0  0  0  0
   11.9337   11.7248   -3.0476 C   0  0  0  0  0  0  0  0  0  0  0  0
   11.2522   11.6306   -4.3050 C   0  0  0  0  0  0  0  0  0  0  0  0
   10.7011   11.5544   -5.3202 N   0  0  0  0  0  0  0  0  0  0  0  0
   13.2576    9.7158   -0.7382 H   0  0  0  0  0  0  0  0  0  0  0  0
   13.7635   11.9234    0.3250 H   0  0  0  0  0  0  0  0  0  0  0  0
   13.0974   13.9904   -0.7727 H   0  0  0  0  0  0  0  0  0  0  0  0
   11.9131   13.8642   -2.9552 H   0  0  0  0  0  0  0  0  0  0  0  0
  1  6  2  0
  2  1  1  0
  3  4  1  0
  3  2  2  0
  4  5  2  0
  5  6  1  0
  1  7  1  0
  2  8  1  0
  3  9  1  0
 10 11  2  0
 11 12  1  0
 12 13  2  0
 13 14  1  0
 14 15  2  0
 15 16  1  0
 16 17  3  0
 15 10  1  0
 11 18  1  0
 12 19  1  0
 13 20  1  0
 14 21  1  0
  5 10  1  0
M  END
>  <Score>  (1) 
-7.40595

$$$$

     RDKit          3D

 22 23  0  0  0  0  0  0  0  0999 V2000
   11.8098    6.9258   -2.9727 C   0  0  0  0  0  0  0  0  0  0  0  0
   11.4363    6.8805   -4.3233 C   0  0  0  0  0  0  0  0  0  0  0  0
   11.3603    8.0899   -5.0286 C   0  0  0  0  0  0  0  0  0  0  0  0
   11.6552    9.2444   -4.3576 N   0  0  0  0  0  0  0  0  0  0  0  0
   12.0108    9.2511   -3.0587 C   0  0  0  0  0  0  0  0  0  0  0  0
   12.0897    8.1043   -2.3651 N   0  0  0  0  0  0  0  0  0  0  0  0
   11.8654    5.9871   -2.4369 H   0  0  0  0  0  0  0  0  0  0  0  0
   11.2085    5.9546   -4.8297 H   0  0  0  0  0  0  0  0  0  0  0  0
   11.0797    8.1189   -6.0652 H   0  0  0  0  0  0  0  0  0  0  0  0
   14.1601   12.7565    1.2114 H   0  0  0  0  0  0  0  0  0  0  0  0
   13.9385   11.8105    0.7414 C   0  0  0  0  0  0  0  0  0  0  0  0
   14.2997   10.7756    1.3513 O   0  0  0  0  0  0  0  0  0  0  0  0
   13.2474   11.7569   -0.5486 C   0  0  0  0  0  0  0  0  0  0  0  0
   12.9658   10.5629   -1.1722 C   0  0  0  0  0  0  0  0  0  0  0  0
   12.3153   10.5084   -2.3870 C   0  0  0  0  0  0  0  0  0  0  0  0
   11.9562   11.7121   -2.9545 C   0  0  0  0  0  0  0  0  0  0  0  0
   12.2251   12.9294   -2.3523 C   0  0  0  0  0  0  0  0  0  0  0  0
   12.8733   12.9411   -1.1455 C   0  0  0  0  0  0  0  0  0  0  0  0
   13.2368   14.4611   -0.3421 Cl  0  0  0  0  0  0  0  0  0  0  0  0
   13.2660    9.6416   -0.6910 H   0  0  0  0  0  0  0  0  0  0  0  0
   11.4446   11.7196   -3.9055 H   0  0  0  0  0  0  0  0  0  0  0  0
   11.9172   13.8326   -2.8495 H   0  0  0  0  0  0  0  0  0  0  0  0
  1  6  2  0
  2  1  1  0
  3  4  1  0
  3  2  2  0
  4  5  2  0
  5  6  1  0
  1  7  1  0
  2  8  1  0
  3  9  1  0
 10 11  1  0
 11 12  2  0
 11 13  1  0
 13 14  2  0
 14 15  1  0
 15 16  2  0
 16 17  1  0
 17 18  2  0
 18 19  1  0
 18 13  1  0
 14 20  1  0
 16 21  1  0
 17 22  1  0
  5 15  1  0
M  END
>  <Score>  (1) 
-7.19959

$$$$

     RDKit          3D

 25 27  0  0  0  0  0  0  0  0999 V2000
   11.8108    6.9295   -2.9703 C   0  0  0  0  0  0  0  0  0  0  0  0
   11.4345    6.8831   -4.3306 C   0  0  0  0  0  0  0  0  0  0  0  0
   11.3633    8.0893   -5.0172 C   0  0  0  0  0  0  0  0  0  0  0  0
   11.6574    9.2288   -4.3438 N   0  0  0  0  0  0  0  0  0  0  0  0
   12.0104    9.2693   -3.0665 C   0  0  0  0  0  0  0  0  0  0  0  0
   12.0854    8.0959   -2.3775 N   0  0  0  0  0  0  0  0  0  0  0  0
   11.8797    6.0156   -2.3954 H   0  0  0  0  0  0  0  0  0  0  0  0
   11.2165    5.9682   -4.8050 H   0  0  0  0  0  0  0  0  0  0  0  0
   11.0785    8.0553   -6.0474 H   0  0  0  0  0  0  0  0  0  0  0  0
   12.3255   10.4652   -2.3361 C   0  0  0  0  0  0  0  0  0  0  0  0
   12.8646   11.5265   -2.9905 N   0  0  0  0  0  0  0  0  0  0  0  0
   13.1976   12.6620   -2.4668 N   0  0  0  0  0  0  0  0  0  0  0  0
   13.0136   12.8634   -1.1538 C   0  0  0  0  0  0  0  0  0  0  0  0
   13.3188   13.9372   -0.6095 O   0  0  0  0  0  0  0  0  0  0  0  0
   12.4733   11.8636   -0.3748 C   0  0  0  0  0  0  0  0  0  0  0  0
   12.2707   12.0406    0.9847 C   0  0  0  0  0  0  0  0  0  0  0  0
   11.7325   11.0528    1.7772 C   0  0  0  0  0  0  0  0  0  0  0  0
   11.4073    9.8838    1.1492 C   0  0  0  0  0  0  0  0  0  0  0  0
   11.5986    9.6796   -0.2061 C   0  0  0  0  0  0  0  0  0  0  0  0
   12.1348   10.6671   -0.9887 C   0  0  0  0  0  0  0  0  0  0  0  0
   13.6073   13.4024   -3.0922 H   0  0  0  0  0  0  0  0  0  0  0  0
   12.5456   12.9872    1.4354 H   0  0  0  0  0  0  0  0  0  0  0  0
   11.5880   11.2265    2.8381 H   0  0  0  0  0  0  0  0  0  0  0  0
   10.9775    9.0898    1.7716 H   0  0  0  0  0  0  0  0  0  0  0  0
   11.3187    8.7455   -0.6069 H   0  0  0  0  0  0  0  0  0  0  0  0
  1  6  2  0
  2  1  1  0
  3  4  1  0
  3  2  2  0
  4  5  2  0
  5  6  1  0
  1  7  1  0
  2  8  1  0
  3  9  1  0
 10 11  2  0
 11 12  1  0
 12 13  1  0
 13 14  2  0
 13 15  1  0
 15 16  2  0
 16 17  1  0
 17 18  2  0
 18 19  1  0
 19 20  2  0
 20 10  1  0
 20 15  1  0
 12 21  1  0
 16 22  1  0
 17 23  1  0
 18 24  1  0
 19 25  1  0
  5 10  1  0
M  END
>  <Score>  (1) 
-7.19727

$$$$

     RDKit          3D

 19 20  0  0  0  0  0  0  0  0999 V2000
   11.8121    6.9312   -2.9663 C   0  0  0  0  0  0  0  0  0  0  0  0
   11.4352    6.8799   -4.3269 C   0  0  0  0  0  0  0  0  0  0  0  0
   11.3603    8.0910   -5.0288 C   0  0  0  0  0  0  0  0  0  0  0  0
   11.6538    9.2419   -4.3619 N   0  0  0  0  0  0  0  0  0  0  0  0
   12.0124    9.2557   -3.0544 C   0  0  0  0  0  0  0  0  0  0  0  0
   12.0882    8.0964   -2.3677 N   0  0  0  0  0  0  0  0  0  0  0  0
   11.8850    6.0355   -2.3829 H   0  0  0  0  0  0  0  0  0  0  0  0
   11.2125    5.9427   -4.8109 H   0  0  0  0  0  0  0  0  0  0  0  0
   11.0777    8.1170   -6.0719 H   0  0  0  0  0  0  0  0  0  0  0  0
   12.3195   10.4993   -2.3702 C   0  0  0  0  0  0  0  0  0  0  0  0
   12.3820   10.5542   -0.9978 C   0  0  0  0  0  0  0  0  0  0  0  0
   12.6796   11.7640   -0.3623 C   0  0  0  0  0  0  0  0  0  0  0  0
   12.9063   12.8842   -1.1149 C   0  0  0  0  0  0  0  0  0  0  0  0
   13.1967   14.0698   -0.5256 F   0  0  0  0  0  0  0  0  0  0  0  0
   12.8368   12.7974   -2.4778 C   0  0  0  0  0  0  0  0  0  0  0  0
   12.5476   11.6186   -3.0760 N   0  0  0  0  0  0  0  0  0  0  0  0
   12.2048    9.6744   -0.3868 H   0  0  0  0  0  0  0  0  0  0  0  0
   12.7358   11.8383    0.7141 H   0  0  0  0  0  0  0  0  0  0  0  0
   13.0083   13.6581   -3.1276 H   0  0  0  0  0  0  0  0  0  0  0  0
  1  6  2  0
  2  1  1  0
  3  4  1  0
  3  2  2  0
  4  5  2  0
  5  6  1  0
  1  7  1  0
  2  8  1  0
  3  9  1  0
 10 11  2  0
 11 12  1  0
 12 13  2  0
 13 14  1  0
 13 15  1  0
 15 16  2  0
 16 10  1  0
 11 17  1  0
 12 18  1  0
 15 19  1  0
  5 10  1  0
M  END
>  <Score>  (1) 
-7.18856

$$$$

     RDKit          3D

 26 27  0  0  0  0  0  0  0  0999 V2000
   11.8118    6.9302   -2.9670 C   0  0  0  0  0  0  0  0  0  0  0  0
   11.4353    6.8791   -4.3265 C   0  0  0  0  0  0  0  0  0  0  0  0
   11.3601    8.0908   -5.0295 C   0  0  0  0  0  0  0  0  0  0  0  0
   11.6545    9.2442   -4.3598 N   0  0  0  0  0  0  0  0  0  0  0  0
   12.0115    9.2533   -3.0568 C   0  0  0  0  0  0  0  0  0  0  0  0
   12.0888    8.0986   -2.3664 N   0  0  0  0  0  0  0  0  0  0  0  0
   11.8615    5.9767   -2.4482 H   0  0  0  0  0  0  0  0  0  0  0  0
   11.2119    5.9553   -4.8176 H   0  0  0  0  0  0  0  0  0  0  0  0
   11.0777    8.0868   -6.0615 H   0  0  0  0  0  0  0  0  0  0  0  0
   12.3299   10.5008   -2.3328 C   0  0  0  0  0  0  0  0  0  0  0  0
   12.3481   10.3249   -0.8369 C   0  0  0  0  0  0  0  0  0  0  0  0
   12.6808   11.6563   -0.2450 C   0  0  0  0  0  0  0  0  0  0  0  0
   11.6838   12.5661    0.0857 C   0  0  0  0  0  0  0  0  0  0  0  0
   11.9793   13.7973    0.6323 C   0  0  0  0  0  0  0  0  0  0  0  0
   13.2896   14.1531    0.8639 C   0  0  0  0  0  0  0  0  0  0  0  0
   14.3076   13.2760    0.5485 C   0  0  0  0  0  0  0  0  0  0  0  0
   13.9817   12.0524    0.0034 C   0  0  0  0  0  0  0  0  0  0  0  0
   11.5565   11.2534   -2.6303 H   0  0  0  0  0  0  0  0  0  0  0  0
   13.3472   10.8494   -2.6260 H   0  0  0  0  0  0  0  0  0  0  0  0
   11.3472   10.0270   -0.4391 H   0  0  0  0  0  0  0  0  0  0  0  0
   13.1254    9.5728   -0.5954 H   0  0  0  0  0  0  0  0  0  0  0  0
   10.6701   12.2532   -0.1097 H   0  0  0  0  0  0  0  0  0  0  0  0
   11.1770   14.4788    0.8768 H   0  0  0  0  0  0  0  0  0  0  0  0
   13.5298   15.1273    1.2969 H   0  0  0  0  0  0  0  0  0  0  0  0
   15.3427   13.5341    0.7217 H   0  0  0  0  0  0  0  0  0  0  0  0
   14.7919   11.3786   -0.2372 H   0  0  0  0  0  0  0  0  0  0  0  0
  1  6  2  0
  2  1  1  0
  3  4  1  0
  3  2  2  0
  4  5  2  0
  5  6  1  0
  1  7  1  0
  2  8  1  0
  3  9  1  0
 10 11  1  0
 11 12  1  0
 12 13  2  0
 13 14  1  0
 14 15  2  0
 15 16  1  0
 16 17  2  0
 17 12  1  0
 10 18  1  0
 10 19  1  0
 11 20  1  0
 11 21  1  0
 13 22  1  0
 14 23  1  0
 15 24  1  0
 16 25  1  0
 17 26  1  0
  5 10  1  0
M  END
>  <Score>  (1) 
-7.17189

$$$$

     RDKit          3D

 22 23  0  0  0  0  0  0  0  0999 V2000
   11.8127    6.9331   -2.9647 C   0  0  0  0  0  0  0  0  0  0  0  0
   11.4346    6.8804   -4.3294 C   0  0  0  0  0  0  0  0  0  0  0  0
   11.3605    8.0888   -5.0276 C   0  0  0  0  0  0  0  0  0  0  0  0
   11.6547    9.2438   -4.3589 N   0  0  0  0  0  0  0  0  0  0  0  0
   12.0113    9.2549   -3.0582 C   0  0  0  0  0  0  0  0  0  0  0  0
   12.0882    8.0950   -2.3672 N   0  0  0  0  0  0  0  0  0  0  0  0
   11.8563    5.9744   -2.4665 H   0  0  0  0  0  0  0  0  0  0  0  0
   11.2174    5.9393   -4.7916 H   0  0  0  0  0  0  0  0  0  0  0  0
   11.0776    8.0985   -6.0662 H   0  0  0  0  0  0  0  0  0  0  0  0
   12.3197   10.5067   -2.3718 C   0  0  0  0  0  0  0  0  0  0  0  0
   11.8169   10.7643   -1.1158 C   0  0  0  0  0  0  0  0  0  0  0  0
   12.1267   11.9180   -0.5337 N   0  0  0  0  0  0  0  0  0  0  0  0
   12.9070   12.8649   -1.0916 C   0  0  0  0  0  0  0  0  0  0  0  0
   13.1396   14.0376   -0.3378 N   0  0  0  0  0  0  0  0  0  0  0  0
   13.4000   12.6314   -2.3031 N   0  0  0  0  0  0  0  0  0  0  0  0
   13.1141   11.4625   -2.9480 C   0  0  0  0  0  0  0  0  0  0  0  0
   13.6770   11.2868   -4.2377 N   0  0  0  0  0  0  0  0  0  0  0  0
   11.1822   10.0591   -0.5950 H   0  0  0  0  0  0  0  0  0  0  0  0
   12.3315   14.5385    0.1115 H   0  0  0  0  0  0  0  0  0  0  0  0
   14.0793   14.4584   -0.1876 H   0  0  0  0  0  0  0  0  0  0  0  0
   14.6591   10.9513   -4.3081 H   0  0  0  0  0  0  0  0  0  0  0  0
   13.1748   11.4708   -5.1299 H   0  0  0  0  0  0  0  0  0  0  0  0
  1  6  2  0
  2  1  1  0
  3  4  1  0
  3  2  2  0
  4  5  2  0
  5  6  1  0
  1  7  1  0
  2  8  1  0
  3  9  1  0
 10 11  2  0
 11 12  1  0
 12 13  2  0
 13 14  1  0
 13 15  1  0
 15 16  2  0
 16 17  1  0
 16 10  1  0
 11 18  1  0
 14 19  1  0
 14 20  1  0
 17 21  1  0
 17 22  1  0
  5 10  1  0
M  END
>  <Score>  (1) 
-7.15832

$$$$

     RDKit          3D

 20 21  0  0  0  0  0  0  0  0999 V2000
   11.8118    6.9308   -2.9671 C   0  0  0  0  0  0  0  0  0  0  0  0
   11.4352    6.8784   -4.3264 C   0  0  0  0  0  0  0  0  0  0  0  0
   11.3600    8.0914   -5.0301 C   0  0  0  0  0  0  0  0  0  0  0  0
   11.6543    9.2439   -4.3604 N   0  0  0  0  0  0  0  0  0  0  0  0
   12.0119    9.2493   -3.0540 C   0  0  0  0  0  0  0  0  0  0  0  0
   12.0887    8.1022   -2.3679 N   0  0  0  0  0  0  0  0  0  0  0  0
   11.8812    6.0193   -2.3911 H   0  0  0  0  0  0  0  0  0  0  0  0
   11.2185    5.9344   -4.7860 H   0  0  0  0  0  0  0  0  0  0  0  0
   11.0751    8.0885   -6.0715 H   0  0  0  0  0  0  0  0  0  0  0  0
   12.3196   10.5076   -2.3728 C   0  0  0  0  0  0  0  0  0  0  0  0
   12.3827   10.5720   -1.0104 C   0  0  0  0  0  0  0  0  0  0  0  0
   12.6691   11.7346   -0.3263 C   0  0  0  0  0  0  0  0  0  0  0  0
   12.9044   12.8926   -1.0364 C   0  0  0  0  0  0  0  0  0  0  0  0
   13.3032   14.5147   -0.0996 Br  0  0  0  0  0  0  0  0  0  0  0  0
   12.8454   12.8486   -2.4132 C   0  0  0  0  0  0  0  0  0  0  0  0
   12.5570   11.6725   -3.0704 C   0  0  0  0  0  0  0  0  0  0  0  0
   12.1967    9.6579   -0.4556 H   0  0  0  0  0  0  0  0  0  0  0  0
   12.7222   11.7994    0.7533 H   0  0  0  0  0  0  0  0  0  0  0  0
   13.0314   13.7616   -2.9615 H   0  0  0  0  0  0  0  0  0  0  0  0
   12.5130   11.6512   -4.1713 H   0  0  0  0  0  0  0  0  0  0  0  0
  1  6  2  0
  2  1  1  0
  3  4  1  0
  3  2  2  0
  4  5  2  0
  5  6  1  0
  1  7  1  0
  2  8  1  0
  3  9  1  0
 10 11  2  0
 11 12  1  0
 12 13  2  0
 13 14  1  0
 13 15  1  0
 15 16  2  0
 16 10  1  0
 11 17  1  0
 12 18  1  0
 15 19  1  0
 16 20  1  0
  5 10  1  0
M  END
>  <Score>  (1) 
-7.12059

$$$$

     RDKit          3D

 21 22  0  0  0  0  0  0  0  0999 V2000
   12.3032    8.1216   -2.2996 C   0  0  0  0  0  0  0  0  0  0  0  0
   12.0202    6.8835   -2.9161 C   0  0  0  0  0  0  0  0  0  0  0  0
   11.5247    6.8973   -4.2240 C   0  0  0  0  0  0  0  0  0  0  0  0
   11.3429    8.1084   -4.8300 N   0  0  0  0  0  0  0  0  0  0  0  0
   11.6247    9.2761   -4.2093 C   0  0  0  0  0  0  0  0  0  0  0  0
   12.0992    9.2842   -2.9590 N   0  0  0  0  0  0  0  0  0  0  0  0
   12.6804    8.0711   -1.3000 H   0  0  0  0  0  0  0  0  0  0  0  0
   12.1778    5.9591   -2.4041 H   0  0  0  0  0  0  0  0  0  0  0  0
   11.2893    5.9829   -4.7489 H   0  0  0  0  0  0  0  0  0  0  0  0
   11.3894   10.5049   -4.9583 C   0  0  0  0  0  0  0  0  0  0  0  0
   11.3562   11.7279   -4.2910 C   0  0  0  0  0  0  0  0  0  0  0  0
   11.1359   12.9034   -4.9739 C   0  0  0  0  0  0  0  0  0  0  0  0
   10.9434   12.8668   -6.3528 C   0  0  0  0  0  0  0  0  0  0  0  0
   10.7728   13.8231   -6.8472 H   0  0  0  0  0  0  0  0  0  0  0  0
   10.9715   11.6703   -7.0359 C   0  0  0  0  0  0  0  0  0  0  0  0
   10.7751   11.6805   -8.4081 O   0  0  0  0  0  0  0  0  0  0  0  0
   11.1960   10.5251   -6.3021 C   0  0  0  0  0  0  0  0  0  0  0  0
   11.5083   11.7410   -3.2121 H   0  0  0  0  0  0  0  0  0  0  0  0
   11.1099   13.8613   -4.4504 H   0  0  0  0  0  0  0  0  0  0  0  0
   10.7966   10.7903   -8.9131 H   0  0  0  0  0  0  0  0  0  0  0  0
   11.2180    9.5862   -6.8384 H   0  0  0  0  0  0  0  0  0  0  0  0
  2  1  2  0
  3  2  1  0
  4  3  2  0
  4  5  1  0
  5  6  2  0
  6  1  1  0
  1  7  1  0
  2  8  1  0
  3  9  1  0
 10 11  2  0
 11 12  1  0
 12 13  2  0
 13 14  1  0
 13 15  1  0
 15 16  1  0
 15 17  2  0
 17 10  1  0
 11 18  1  0
 12 19  1  0
 16 20  1  0
 17 21  1  0
  5 10  1  0
M  END
>  <Score>  (1) 
-7.73724

$$$$

     RDKit          3D

 22 23  0  0  0  0  0  0  0  0999 V2000
   11.8114    6.9288   -2.9677 C   0  0  0  0  0  0  0  0  0  0  0  0
   11.4354    6.8788   -4.3261 C   0  0  0  0  0  0  0  0  0  0  0  0
   11.3600    8.0907   -5.0301 C   0  0  0  0  0  0  0  0  0  0  0  0
   11.6550    9.2438   -4.3580 N   0  0  0  0  0  0  0  0  0  0  0  0
   12.0116    9.2524   -3.0564 C   0  0  0  0  0  0  0  0  0  0  0  0
   12.0887    8.1015   -2.3677 N   0  0  0  0  0  0  0  0  0  0  0  0
   11.8612    5.9866   -2.4527 H   0  0  0  0  0  0  0  0  0  0  0  0
   11.2110    5.9688   -4.8254 H   0  0  0  0  0  0  0  0  0  0  0  0
   11.0800    8.1295   -6.0679 H   0  0  0  0  0  0  0  0  0  0  0  0
   13.0715   15.1247   -1.2517 H   0  0  0  0  0  0  0  0  0  0  0  0
   13.1574   14.2326   -0.6226 C   0  0  0  0  0  0  0  0  0  0  0  0
   13.4869   14.2707    0.5697 O   0  0  0  0  0  0  0  0  0  0  0  0
   12.8607   12.9605   -1.2592 C   0  0  0  0  0  0  0  0  0  0  0  0
   12.9482   11.7943   -0.5275 C   0  0  0  0  0  0  0  0  0  0  0  0
   12.6790   10.5572   -1.0754 C   0  0  0  0  0  0  0  0  0  0  0  0
   12.3133   10.5345   -2.4053 C   0  0  0  0  0  0  0  0  0  0  0  0
   12.2202   11.6961   -3.1558 C   0  0  0  0  0  0  0  0  0  0  0  0
   11.8463   11.5992   -4.4897 O   0  0  0  0  0  0  0  0  0  0  0  0
   10.8651   11.4437   -4.7121 H   0  0  0  0  0  0  0  0  0  0  0  0
   12.4965   12.8662   -2.5582 N   0  0  0  0  0  0  0  0  0  0  0  0
   13.2446   11.8817    0.5263 H   0  0  0  0  0  0  0  0  0  0  0  0
   12.7495    9.6573   -0.4998 H   0  0  0  0  0  0  0  0  0  0  0  0
  1  6  2  0
  2  1  1  0
  3  4  1  0
  3  2  2  0
  4  5  2  0
  5  6  1  0
  1  7  1  0
  2  8  1  0
  3  9  1  0
 10 11  1  0
 11 12  2  0
 11 13  1  0
 13 14  2  0
 14 15  1  0
 15 16  2  0
 16 17  1  0
 17 18  1  0
 18 19  1  0
 17 20  2  0
 20 13  1  0
 14 21  1  0
 15 22  1  0
  5 16  1  0
M  END
>  <Score>  (1) 
-7.04203

$$$$

     RDKit          3D

 24 26  0  0  0  0  0  0  0  0999 V2000
   11.8120    6.9288   -2.9656 C   0  0  0  0  0  0  0  0  0  0  0  0
   11.4347    6.8802   -4.3289 C   0  0  0  0  0  0  0  0  0  0  0  0
   11.3602    8.0892   -5.0287 C   0  0  0  0  0  0  0  0  0  0  0  0
   11.6561    9.2443   -4.3540 N   0  0  0  0  0  0  0  0  0  0  0  0
   12.0103    9.2523   -3.0609 C   0  0  0  0  0  0  0  0  0  0  0  0
   12.0886    8.1013   -2.3679 N   0  0  0  0  0  0  0  0  0  0  0  0
   11.8561    5.9713   -2.4659 H   0  0  0  0  0  0  0  0  0  0  0  0
   11.2205    5.9405   -4.7808 H   0  0  0  0  0  0  0  0  0  0  0  0
   11.0768    8.0895   -6.0657 H   0  0  0  0  0  0  0  0  0  0  0  0
   12.3263   10.4874   -2.3410 C   0  0  0  0  0  0  0  0  0  0  0  0
   11.9900   11.7317   -2.8483 C   0  0  0  0  0  0  0  0  0  0  0  0
   12.2751   12.9059   -2.1928 C   0  0  0  0  0  0  0  0  0  0  0  0
   12.9222   12.8919   -0.9759 C   0  0  0  0  0  0  0  0  0  0  0  0
   13.2650   11.6610   -0.4550 C   0  0  0  0  0  0  0  0  0  0  0  0
   13.9017   11.3444    0.7116 N   0  0  0  0  0  0  0  0  0  0  0  0
   14.0272   10.0119    0.8132 C   0  0  0  0  0  0  0  0  0  0  0  0
   13.4500    9.4815   -0.3271 C   0  0  0  0  0  0  0  0  0  0  0  0
   12.9757   10.4844   -1.1187 C   0  0  0  0  0  0  0  0  0  0  0  0
   11.4818   11.7856   -3.7996 H   0  0  0  0  0  0  0  0  0  0  0  0
   11.9745   13.8318   -2.6652 H   0  0  0  0  0  0  0  0  0  0  0  0
   13.1372   13.8209   -0.4773 H   0  0  0  0  0  0  0  0  0  0  0  0
   14.2260   12.0567    1.3943 H   0  0  0  0  0  0  0  0  0  0  0  0
   14.4972    9.5208    1.6485 H   0  0  0  0  0  0  0  0  0  0  0  0
   13.4056    8.4219   -0.5179 H   0  0  0  0  0  0  0  0  0  0  0  0
  1  6  2  0
  2  1  1  0
  3  4  1  0
  3  2  2  0
  4  5  2  0
  5  6  1  0
  1  7  1  0
  2  8  1  0
  3  9  1  0
 10 11  2  0
 11 12  1  0
 12 13  2  0
 13 14  1  0
 14 15  1  0
 15 16  1  0
 16 17  2  0
 17 18  1  0
 18 10  1  0
 18 14  2  0
 11 19  1  0
 12 20  1  0
 13 21  1  0
 15 22  1  0
 16 23  1  0
 17 24  1  0
  5 10  1  0
M  END
>  <Score>  (1) 
-7.02265

$$$$

     RDKit          3D

 22 23  0  0  0  0  0  0  0  0999 V2000
   11.8126    6.9341   -2.9653 C   0  0  0  0  0  0  0  0  0  0  0  0
   11.4348    6.8837   -4.3295 C   0  0  0  0  0  0  0  0  0  0  0  0
   11.3598    8.0879   -5.0301 C   0  0  0  0  0  0  0  0  0  0  0  0
   11.6547    9.2401   -4.3577 N   0  0  0  0  0  0  0  0  0  0  0  0
   12.0114    9.2557   -3.0580 C   0  0  0  0  0  0  0  0  0  0  0  0
   12.0886    8.0945   -2.3655 N   0  0  0  0  0  0  0  0  0  0  0  0
   11.8824    6.0147   -2.3855 H   0  0  0  0  0  0  0  0  0  0  0  0
   11.0836    8.1267   -6.0759 H   0  0  0  0  0  0  0  0  0  0  0  0
   12.2442   10.1515   -2.5224 H   0  0  0  0  0  0  0  0  0  0  0  0
   11.1503    5.6182   -4.9625 C   0  0  0  0  0  0  0  0  0  0  0  0
   10.9267    4.6468   -4.1526 O   0  0  0  0  0  0  0  0  0  0  0  0
   11.0966    5.3569   -6.3714 C   0  0  0  0  0  0  0  0  0  0  0  0
   11.3817    4.0815   -6.8457 C   0  0  0  0  0  0  0  0  0  0  0  0
   11.3398    3.7639   -8.1814 C   0  0  0  0  0  0  0  0  0  0  0  0
   10.9997    4.7651   -9.0643 C   0  0  0  0  0  0  0  0  0  0  0  0
   10.9535    4.5596  -10.1369 H   0  0  0  0  0  0  0  0  0  0  0  0
   10.7059    6.0553   -8.6411 C   0  0  0  0  0  0  0  0  0  0  0  0
   10.7595    6.3384   -7.2725 C   0  0  0  0  0  0  0  0  0  0  0  0
   11.6514    3.2828   -6.1589 H   0  0  0  0  0  0  0  0  0  0  0  0
   11.5686    2.7519   -8.5301 H   0  0  0  0  0  0  0  0  0  0  0  0
   10.4402    6.8426   -9.3177 H   0  0  0  0  0  0  0  0  0  0  0  0
   10.5377    7.3160   -6.8747 H   0  0  0  0  0  0  0  0  0  0  0  0
  1  6  2  0
  2  1  1  0
  3  4  1  0
  3  2  2  0
  4  5  2  0
  5  6  1  0
  1  7  1  0
  3  8  1  0
  5  9  1  0
 10 11  2  0
 10 12  1  0
 12 13  2  0
 13 14  1  0
 14 15  2  0
 15 16  1  0
 15 17  1  0
 17 18  2  0
 18 12  1  0
 13 19  1  0
 14 20  1  0
 17 21  1  0
 18 22  1  0
  2 10  1  0
M  END
>  <Score>  (1) 
-7.80976

$$$$

     RDKit          3D

 26 27  0  0  0  0  0  0  0  0999 V2000
   11.8125    6.9304   -2.9646 C   0  0  0  0  0  0  0  0  0  0  0  0
   11.4345    6.8827   -4.3305 C   0  0  0  0  0  0  0  0  0  0  0  0
   11.3600    8.0868   -5.0287 C   0  0  0  0  0  0  0  0  0  0  0  0
   11.6550    9.2446   -4.3583 N   0  0  0  0  0  0  0  0  0  0  0  0
   12.0113    9.2526   -3.0575 C   0  0  0  0  0  0  0  0  0  0  0  0
   12.0888    8.0989   -2.3664 N   0  0  0  0  0  0  0  0  0  0  0  0
   11.8682    5.9891   -2.4281 H   0  0  0  0  0  0  0  0  0  0  0  0
   11.0772    8.0975   -6.0673 H   0  0  0  0  0  0  0  0  0  0  0  0
   12.2239   10.2170   -2.6202 H   0  0  0  0  0  0  0  0  0  0  0  0
    7.7887    4.2458   -7.3572 H   0  0  0  0  0  0  0  0  0  0  0  0
    8.3693    4.0652   -6.4508 C   0  0  0  0  0  0  0  0  0  0  0  0
    9.2301    5.2898   -6.1677 C   0  0  1  0  0  0  0  0  0  0  0  0
    9.8150    5.2243   -4.9302 O   0  0  0  0  0  0  0  0  0  0  0  0
   11.1285    5.6040   -4.9989 C   0  0  1  0  0  0  0  0  0  0  0  0
   11.5883    5.5980   -6.4161 C   0  0  1  0  0  0  0  0  0  0  0  0
   12.4434    4.5417   -6.6690 O   0  0  0  0  0  0  0  0  0  0  0  0
   10.2947    5.4861   -7.1913 C   0  0  1  0  0  0  0  0  0  0  0  0
   10.4320    4.4128   -8.0634 O   0  0  0  0  0  0  0  0  0  0  0  0
    8.9470    3.1364   -6.4336 H   0  0  0  0  0  0  0  0  0  0  0  0
    7.6370    4.0128   -5.5993 H   0  0  0  0  0  0  0  0  0  0  0  0
    8.5017    6.1539   -6.1659 H   0  0  0  0  0  0  0  0  0  0  0  0
   11.7163    4.8174   -4.4387 H   0  0  0  0  0  0  0  0  0  0  0  0
   12.1123    6.5532   -6.6155 H   0  0  0  0  0  0  0  0  0  0  0  0
   13.3774    4.8564   -6.7594 H   0  0  0  0  0  0  0  0  0  0  0  0
   10.0679    6.4248   -7.7666 H   0  0  0  0  0  0  0  0  0  0  0  0
    9.6202    3.8992   -8.2035 H   0  0  0  0  0  0  0  0  0  0  0  0
  1  6  2  0
  2  1  1  0
  3  4  1  0
  3  2  2  0
  4  5  2  0
  5  6  1  0
  1  7  1  0
  3  8  1  0
  5  9  1  0
 10 11  1  0
 11 12  1  0
 12 13  1  0
 13 14  1  0
 14 15  1  0
 15 16  1  0
 15 17  1  0
 17 18  1  0
 17 12  1  0
 11 19  1  0
 11 20  1  0
 12 21  1  1
 14 22  1  1
 15 23  1  6
 16 24  1  0
 17 25  1  6
 18 26  1  0
  2 14  1  0
M  END
>  <Score>  (1) 
-7.60049

$$$$

     RDKit          3D

 25 26  0  0  0  0  0  0  0  0999 V2000
   11.8123    6.9311   -2.9655 C   0  0  0  0  0  0  0  0  0  0  0  0
   11.4350    6.8797   -4.3278 C   0  0  0  0  0  0  0  0  0  0  0  0
   11.3601    8.0898   -5.0293 C   0  0  0  0  0  0  0  0  0  0  0  0
   11.6547    9.2446   -4.3594 N   0  0  0  0  0  0  0  0  0  0  0  0
   12.0114    9.2537   -3.0574 C   0  0  0  0  0  0  0  0  0  0  0  0
   12.0886    8.0972   -2.3666 N   0  0  0  0  0  0  0  0  0  0  0  0
   11.8716    6.0012   -2.4200 H   0  0  0  0  0  0  0  0  0  0  0  0
   11.0762    8.1027   -6.0727 H   0  0  0  0  0  0  0  0  0  0  0  0
   12.2396   10.1619   -2.5433 H   0  0  0  0  0  0  0  0  0  0  0  0
   11.1412    5.6730   -4.9764 N   0  0  0  0  0  0  0  0  0  0  0  0
   10.6913    5.6555   -6.6161 S   0  0  0  0  0  6  0  0  0  0  0  0
   10.4772    4.2377   -7.0570 O   0  0  0  0  0  0  0  0  0  0  0  0
    9.4673    6.4785   -6.8954 O   0  0  0  0  0  0  0  0  0  0  0  0
   11.9900    6.2983   -7.6232 C   0  0  0  0  0  0  0  0  0  0  0  0
   12.0811    7.6404   -7.9292 C   0  0  0  0  0  0  0  0  0  0  0  0
   13.1160    8.1339   -8.7284 C   0  0  0  0  0  0  0  0  0  0  0  0
   14.0764    7.2829   -9.2328 C   0  0  0  0  0  0  0  0  0  0  0  0
   13.9864    5.9395   -8.9274 C   0  0  0  0  0  0  0  0  0  0  0  0
   12.9615    5.4593   -8.1373 C   0  0  0  0  0  0  0  0  0  0  0  0
   12.8865    4.3970   -7.8931 H   0  0  0  0  0  0  0  0  0  0  0  0
   11.2019    4.7890   -4.4417 H   0  0  0  0  0  0  0  0  0  0  0  0
   11.3143    8.3004   -7.5230 H   0  0  0  0  0  0  0  0  0  0  0  0
   13.1456    9.2040   -8.9429 H   0  0  0  0  0  0  0  0  0  0  0  0
   14.8672    7.6894   -9.8488 H   0  0  0  0  0  0  0  0  0  0  0  0
   14.7434    5.2732   -9.3257 H   0  0  0  0  0  0  0  0  0  0  0  0
  1  6  2  0
  2  1  1  0
  3  4  1  0
  3  2  2  0
  4  5  2  0
  5  6  1  0
  1  7  1  0
  3  8  1  0
  5  9  1  0
 10 11  1  0
 11 12  2  0
 11 13  2  0
 11 14  1  0
 14 15  2  0
 15 16  1  0
 16 17  2  0
 17 18  1  0
 18 19  2  0
 19 20  1  0
 19 14  1  0
 10 21  1  0
 15 22  1  0
 16 23  1  0
 17 24  1  0
 18 25  1  0
  2 10  1  0
M  END
>  <Score>  (1) 
-7.4897

$$$$

     RDKit          3D

 26 27  0  0  0  0  0  0  0  0999 V2000
   11.8107    6.9280   -2.9700 C   0  0  0  0  0  0  0  0  0  0  0  0
   11.4359    6.8774   -4.3235 C   0  0  0  0  0  0  0  0  0  0  0  0
   11.3605    8.0945   -5.0295 C   0  0  0  0  0  0  0  0  0  0  0  0
   11.6534    9.2422   -4.3634 N   0  0  0  0  0  0  0  0  0  0  0  0
   12.0124    9.2510   -3.0530 C   0  0  0  0  0  0  0  0  0  0  0  0
   12.0891    8.1029   -2.3666 N   0  0  0  0  0  0  0  0  0  0  0  0
   11.8792    6.0083   -2.3946 H   0  0  0  0  0  0  0  0  0  0  0  0
   11.0765    8.0542   -6.0542 H   0  0  0  0  0  0  0  0  0  0  0  0
   12.2357   10.2026   -2.5721 H   0  0  0  0  0  0  0  0  0  0  0  0
   11.9079    2.5618   -6.4635 H   0  0  0  0  0  0  0  0  0  0  0  0
   12.8653    3.0956   -6.5091 C   0  0  0  0  0  0  0  0  0  0  0  0
   12.6957    4.5871   -6.2238 C   0  0  2  0  0  0  0  0  0  0  0  0
   12.2009    4.7327   -4.9648 O   0  0  0  0  0  0  0  0  0  0  0  0
   11.1316    5.5977   -4.9846 C   0  0  2  0  0  0  0  0  0  0  0  0
   10.6314    5.7234   -6.3779 C   0  0  1  0  0  0  0  0  0  0  0  0
   10.3386    7.0539   -6.6679 O   0  0  0  0  0  0  0  0  0  0  0  0
   11.7692    5.2003   -7.2088 C   0  0  2  0  0  0  0  0  0  0  0  0
   11.2640    4.2460   -8.1197 O   0  0  0  0  0  0  0  0  0  0  0  0
   13.2255    3.0270   -7.5559 H   0  0  0  0  0  0  0  0  0  0  0  0
   13.6569    2.6827   -5.8670 H   0  0  0  0  0  0  0  0  0  0  0  0
   13.7120    5.0345   -6.3717 H   0  0  0  0  0  0  0  0  0  0  0  0
   10.3145    5.1085   -4.3789 H   0  0  0  0  0  0  0  0  0  0  0  0
    9.6933    5.1527   -6.5498 H   0  0  0  0  0  0  0  0  0  0  0  0
   11.1524    7.5775   -6.5299 H   0  0  0  0  0  0  0  0  0  0  0  0
   12.2103    6.0194   -7.8119 H   0  0  0  0  0  0  0  0  0  0  0  0
   10.2654    4.3418   -8.1905 H   0  0  0  0  0  0  0  0  0  0  0  0
  1  6  2  0
  2  1  1  0
  3  4  1  0
  3  2  2  0
  4  5  2  0
  5  6  1  0
  1  7  1  0
  3  8  1  0
  5  9  1  0
 10 11  1  0
 11 12  1  0
 12 13  1  0
 13 14  1  0
 14 15  1  0
 15 16  1  0
 15 17  1  0
 17 18  1  0
 17 12  1  0
 11 19  1  0
 11 20  1  0
 12 21  1  1
 14 22  1  1
 15 23  1  1
 16 24  1  0
 17 25  1  6
 18 26  1  0
  2 14  1  0
M  END
>  <Score>  (1) 
-7.30988

$$$$

     RDKit          3D

 26 27  0  0  0  0  0  0  0  0999 V2000
   11.8113    6.9292   -2.9684 C   0  0  0  0  0  0  0  0  0  0  0  0
   11.4356    6.8783   -4.3252 C   0  0  0  0  0  0  0  0  0  0  0  0
   11.3604    8.0926   -5.0293 C   0  0  0  0  0  0  0  0  0  0  0  0
   11.6539    9.2431   -4.3619 N   0  0  0  0  0  0  0  0  0  0  0  0
   12.0120    9.2521   -3.0547 C   0  0  0  0  0  0  0  0  0  0  0  0
   12.0889    8.1007   -2.3666 N   0  0  0  0  0  0  0  0  0  0  0  0
   11.8796    6.0280   -2.4002 H   0  0  0  0  0  0  0  0  0  0  0  0
   11.0818    8.1222   -6.0589 H   0  0  0  0  0  0  0  0  0  0  0  0
   12.2222   10.2191   -2.6273 H   0  0  0  0  0  0  0  0  0  0  0  0
   11.9420    2.6742   -6.6242 H   0  0  0  0  0  0  0  0  0  0  0  0
   12.6304    3.3870   -7.1315 C   0  0  0  0  0  0  0  0  0  0  0  0
   12.4341    4.8113   -6.6337 C   0  0  2  0  0  0  0  0  0  0  0  0
   12.2249    4.8411   -5.2879 O   0  0  0  0  0  0  0  0  0  0  0  0
   11.1285    5.5937   -4.9947 C   0  0  2  0  0  0  0  0  0  0  0  0
   10.3123    5.7750   -6.2429 C   0  0  2  0  0  0  0  0  0  0  0  0
    9.2078    4.9253   -6.2721 O   0  0  0  0  0  0  0  0  0  0  0  0
   11.2563    5.3897   -7.3374 C   0  0  1  0  0  0  0  0  0  0  0  0
   11.6343    6.5057   -8.1186 O   0  0  0  0  0  0  0  0  0  0  0  0
   12.3648    3.3576   -8.2085 H   0  0  0  0  0  0  0  0  0  0  0  0
   13.6936    3.0763   -7.0654 H   0  0  0  0  0  0  0  0  0  0  0  0
   13.3839    5.3661   -6.8559 H   0  0  0  0  0  0  0  0  0  0  0  0
   10.4922    5.0089   -4.2793 H   0  0  0  0  0  0  0  0  0  0  0  0
   10.0262    6.8444   -6.3917 H   0  0  0  0  0  0  0  0  0  0  0  0
    8.9099    4.6480   -5.3771 H   0  0  0  0  0  0  0  0  0  0  0  0
   10.7925    4.6737   -8.0579 H   0  0  0  0  0  0  0  0  0  0  0  0
   12.6403    6.5546   -8.1050 H   0  0  0  0  0  0  0  0  0  0  0  0
  1  6  2  0
  2  1  1  0
  3  4  1  0
  3  2  2  0
  4  5  2  0
  5  6  1  0
  1  7  1  0
  3  8  1  0
  5  9  1  0
 10 11  1  0
 11 12  1  0
 12 13  1  0
 13 14  1  0
 14 15  1  0
 15 16  1  0
 15 17  1  0
 17 18  1  0
 17 12  1  0
 11 19  1  0
 11 20  1  0
 12 21  1  1
 14 22  1  1
 15 23  1  6
 16 24  1  0
 17 25  1  6
 18 26  1  0
  2 14  1  0
M  END
>  <Score>  (1) 
-7.28296

$$$$

     RDKit          3D

 32 33  0  0  0  0  0  0  0  0999 V2000
   11.8097    6.9267   -2.9733 C   0  0  0  0  0  0  0  0  0  0  0  0
   11.4368    6.8810   -4.3214 C   0  0  0  0  0  0  0  0  0  0  0  0
   11.3600    8.0913   -5.0303 C   0  0  0  0  0  0  0  0  0  0  0  0
   11.6544    9.2426   -4.3599 N   0  0  0  0  0  0  0  0  0  0  0  0
   12.0115    9.2490   -3.0553 C   0  0  0  0  0  0  0  0  0  0  0  0
   12.0896    8.1053   -2.3658 N   0  0  0  0  0  0  0  0  0  0  0  0
   11.8803    6.0174   -2.3938 H   0  0  0  0  0  0  0  0  0  0  0  0
   11.0780    8.1157   -6.0706 H   0  0  0  0  0  0  0  0  0  0  0  0
   12.2237   10.2160   -2.6206 H   0  0  0  0  0  0  0  0  0  0  0  0
   11.1381    5.7573   -5.0173 O   0  0  0  0  0  0  0  0  0  0  0  0
   10.7576    5.6353   -6.3664 C   0  0  2  0  0  0  0  0  0  0  0  0
    9.4998    5.0696   -6.3894 O   0  0  0  0  0  0  0  0  0  0  0  0
    9.0096    4.7644   -7.6207 C   0  0  1  0  0  0  0  0  0  0  0  0
    8.2006    5.8953   -8.2216 C   0  0  0  0  0  0  0  0  0  0  0  0
    7.7510    5.4788   -9.4731 O   0  0  0  0  0  0  0  0  0  0  0  0
   10.0420    4.2425   -8.5956 C   0  0  2  0  0  0  0  0  0  0  0  0
    9.4626    3.3350   -9.4685 O   0  0  0  0  0  0  0  0  0  0  0  0
   11.1287    3.6038   -7.7513 C   0  0  1  0  0  0  0  0  0  0  0  0
   12.0227    2.8778   -8.4929 O   0  0  0  0  0  0  0  0  0  0  0  0
   11.8067    4.7845   -7.0422 C   0  0  2  0  0  0  0  0  0  0  0  0
   12.8067    4.3701   -6.1918 O   0  0  0  0  0  0  0  0  0  0  0  0
   10.7320    6.6438   -6.8161 H   0  0  0  0  0  0  0  0  0  0  0  0
    8.2742    3.9160   -7.4854 H   0  0  0  0  0  0  0  0  0  0  0  0
    8.7930    6.8236   -8.3434 H   0  0  0  0  0  0  0  0  0  0  0  0
    7.3210    6.1501   -7.5996 H   0  0  0  0  0  0  0  0  0  0  0  0
    7.1317    6.1477   -9.8428 H   0  0  0  0  0  0  0  0  0  0  0  0
   10.4601    5.1357   -9.1380 H   0  0  0  0  0  0  0  0  0  0  0  0
    8.4843    3.2593   -9.3400 H   0  0  0  0  0  0  0  0  0  0  0  0
   10.6571    3.0110   -6.9235 H   0  0  0  0  0  0  0  0  0  0  0  0
   11.7866    1.9044   -8.3605 H   0  0  0  0  0  0  0  0  0  0  0  0
   12.2749    5.3787   -7.8540 H   0  0  0  0  0  0  0  0  0  0  0  0
   13.5849    4.1028   -6.7752 H   0  0  0  0  0  0  0  0  0  0  0  0
  1  6  2  0
  2  1  1  0
  3  4  1  0
  3  2  2  0
  4  5  2  0
  5  6  1  0
  1  7  1  0
  3  8  1  0
  5  9  1  0
 10 11  1  0
 11 12  1  0
 12 13  1  0
 13 14  1  0
 14 15  1  0
 13 16  1  0
 16 17  1  0
 16 18  1  0
 18 19  1  0
 18 20  1  0
 20 21  1  0
 20 11  1  0
 11 22  1  6
 13 23  1  1
 14 24  1  0
 14 25  1  0
 15 26  1  0
 16 27  1  6
 17 28  1  0
 18 29  1  1
 19 30  1  0
 20 31  1  6
 21 32  1  0
  2 10  1  0
M  END
>  <Score>  (1) 
-7.25745

$$$$

     RDKit          3D

 23 24  0  0  0  0  0  0  0  0999 V2000
   11.8117    6.9302   -2.9672 C   0  0  0  0  0  0  0  0  0  0  0  0
   11.4354    6.8790   -4.3262 C   0  0  0  0  0  0  0  0  0  0  0  0
   11.3602    8.0910   -5.0295 C   0  0  0  0  0  0  0  0  0  0  0  0
   11.6544    9.2439   -4.3602 N   0  0  0  0  0  0  0  0  0  0  0  0
   12.0116    9.2533   -3.0565 C   0  0  0  0  0  0  0  0  0  0  0  0
   12.0887    8.0985   -2.3664 N   0  0  0  0  0  0  0  0  0  0  0  0
   11.8867    6.0283   -2.3744 H   0  0  0  0  0  0  0  0  0  0  0  0
   11.0771    8.0887   -6.0642 H   0  0  0  0  0  0  0  0  0  0  0  0
   12.2364   10.1979   -2.5678 H   0  0  0  0  0  0  0  0  0  0  0  0
   11.1401    5.5808   -4.9477 C   0  0  0  0  0  0  0  0  0  0  0  0
   10.1368    5.6807   -6.0418 C   0  0  0  0  0  0  0  0  0  0  0  0
   10.4981    5.9038   -7.3544 C   0  0  0  0  0  0  0  0  0  0  0  0
    9.5311    5.9888   -8.3338 C   0  0  0  0  0  0  0  0  0  0  0  0
    8.1888    5.8546   -8.0322 C   0  0  0  0  0  0  0  0  0  0  0  0
    7.2550    5.9432   -9.0206 F   0  0  0  0  0  0  0  0  0  0  0  0
    7.8095    5.6301   -6.7173 C   0  0  0  0  0  0  0  0  0  0  0  0
    6.5013    5.4915   -6.3716 F   0  0  0  0  0  0  0  0  0  0  0  0
    8.7891    5.5479   -5.7504 C   0  0  0  0  0  0  0  0  0  0  0  0
   10.7665    4.9039   -4.1296 H   0  0  0  0  0  0  0  0  0  0  0  0
   12.0705    5.0645   -5.3191 H   0  0  0  0  0  0  0  0  0  0  0  0
   11.5170    6.0130   -7.6321 H   0  0  0  0  0  0  0  0  0  0  0  0
    9.7688    6.1632   -9.3799 H   0  0  0  0  0  0  0  0  0  0  0  0
    8.5290    5.3735   -4.7148 H   0  0  0  0  0  0  0  0  0  0  0  0
  1  6  2  0
  2  1  1  0
  3  4  1  0
  3  2  2  0
  4  5  2  0
  5  6  1  0
  1  7  1  0
  3  8  1  0
  5  9  1  0
 10 11  1  0
 11 12  2  0
 12 13  1  0
 13 14  2  0
 14 15  1  0
 14 16  1  0
 16 17  1  0
 16 18  2  0
 18 11  1  0
 10 19  1  0
 10 20  1  0
 12 21  1  0
 13 22  1  0
 18 23  1  0
  2 10  1  0
M  END
>  <Score>  (1) 
-7.241

$$$$

     RDKit          3D

 25 26  0  0  0  0  0  0  0  0999 V2000
   11.8113    6.9290   -2.9683 C   0  0  0  0  0  0  0  0  0  0  0  0
   11.4355    6.8806   -4.3261 C   0  0  0  0  0  0  0  0  0  0  0  0
   11.3599    8.0885   -5.0296 C   0  0  0  0  0  0  0  0  0  0  0  0
   11.6549    9.2452   -4.3589 N   0  0  0  0  0  0  0  0  0  0  0  0
   12.0115    9.2531   -3.0570 C   0  0  0  0  0  0  0  0  0  0  0  0
   12.0889    8.0996   -2.3660 N   0  0  0  0  0  0  0  0  0  0  0  0
   11.8518    5.9709   -2.4817 H   0  0  0  0  0  0  0  0  0  0  0  0
   11.0785    8.1091   -6.0666 H   0  0  0  0  0  0  0  0  0  0  0  0
   12.2222   10.2155   -2.6259 H   0  0  0  0  0  0  0  0  0  0  0  0
    8.6603    6.7068  -10.2365 H   0  0  0  0  0  0  0  0  0  0  0  0
    8.6442    6.5956   -9.1672 C   0  0  0  0  0  0  0  0  0  0  0  0
    7.6110    6.7543   -8.4857 O   0  0  0  0  0  0  0  0  0  0  0  0
    9.8948    6.2400   -8.4699 C   0  0  0  0  0  0  0  0  0  0  0  0
   11.0660    6.0528   -9.1748 C   0  0  0  0  0  0  0  0  0  0  0  0
   12.2508    5.7199   -8.5504 C   0  0  0  0  0  0  0  0  0  0  0  0
   12.2856    5.5657   -7.1846 C   0  0  0  0  0  0  0  0  0  0  0  0
   11.1141    5.7524   -6.4740 C   0  0  0  0  0  0  0  0  0  0  0  0
   11.1280    5.5908   -4.9955 C   0  0  0  0  0  0  0  0  0  0  0  0
    9.9272    6.0864   -7.1044 C   0  0  0  0  0  0  0  0  0  0  0  0
   11.0066    6.1829  -10.2643 H   0  0  0  0  0  0  0  0  0  0  0  0
   13.1389    5.5861   -9.1627 H   0  0  0  0  0  0  0  0  0  0  0  0
   13.2009    5.3048   -6.6686 H   0  0  0  0  0  0  0  0  0  0  0  0
   10.1061    5.2846   -4.6894 H   0  0  0  0  0  0  0  0  0  0  0  0
   11.8288    4.7946   -4.6715 H   0  0  0  0  0  0  0  0  0  0  0  0
    9.0020    6.2366   -6.5678 H   0  0  0  0  0  0  0  0  0  0  0  0
  1  6  2  0
  2  1  1  0
  3  4  1  0
  3  2  2  0
  4  5  2  0
  5  6  1  0
  1  7  1  0
  3  8  1  0
  5  9  1  0
 10 11  1  0
 11 12  2  0
 11 13  1  0
 13 14  2  0
 14 15  1  0
 15 16  2  0
 16 17  1  0
 17 18  1  0
 17 19  2  0
 19 13  1  0
 14 20  1  0
 15 21  1  0
 16 22  1  0
 18 23  1  0
 18 24  1  0
 19 25  1  0
  2 18  1  0
M  END
>  <Score>  (1) 
-7.18289

$$$$

     RDKit          3D

 34 35  0  0  0  0  0  0  0  0999 V2000
   12.3029    8.1254   -2.3009 C   0  0  0  0  0  0  0  0  0  0  0  0
   12.0204    6.8816   -2.9155 C   0  0  0  0  0  0  0  0  0  0  0  0
   11.5254    6.8949   -4.2220 C   0  0  0  0  0  0  0  0  0  0  0  0
   11.3430    8.1148   -4.8306 N   0  0  0  0  0  0  0  0  0  0  0  0
   11.6227    9.2739   -4.2142 C   0  0  0  0  0  0  0  0  0  0  0  0
   12.1007    9.2804   -2.9548 N   0  0  0  0  0  0  0  0  0  0  0  0
   12.6797    8.0611   -1.3008 H   0  0  0  0  0  0  0  0  0  0  0  0
   12.1729    5.9558   -2.4167 H   0  0  0  0  0  0  0  0  0  0  0  0
   11.3068    5.9743   -4.7019 H   0  0  0  0  0  0  0  0  0  0  0  0
   12.8830   12.5423  -10.0505 H   0  0  0  0  0  0  0  0  0  0  0  0
   11.9954   13.2058   -9.9967 C   0  0  0  0  0  0  0  0  0  0  0  0
   10.7817   12.3233   -9.9306 C   0  0  0  0  0  0  0  0  0  0  0  0
   10.7485   11.5190   -8.6567 C   0  0  1  0  0  0  0  0  0  0  0  0
   11.9482   10.6191   -8.5108 C   0  0  0  0  0  0  0  0  0  0  0  0
   11.7877    9.8823   -7.1840 C   0  0  0  0  0  0  0  0  0  0  0  0
   12.1140   10.8494   -6.0903 C   0  0  2  0  0  0  0  0  0  0  0  0
   11.4266   10.5112   -4.8606 N   0  0  0  0  0  0  0  0  0  0  0  0
   11.7926   12.2438   -6.5040 C   0  0  0  0  0  0  0  0  0  0  0  0
   10.6092   12.3521   -7.4245 C   0  0  0  0  0  0  0  0  0  0  0  0
   12.0749   13.8969   -9.1580 H   0  0  0  0  0  0  0  0  0  0  0  0
   11.9622   13.7772  -10.9487 H   0  0  0  0  0  0  0  0  0  0  0  0
   10.7651   11.6395  -10.7841 H   0  0  0  0  0  0  0  0  0  0  0  0
    9.8495   12.9238   -9.9620 H   0  0  0  0  0  0  0  0  0  0  0  0
    9.8422   10.8607   -8.7185 H   0  0  0  0  0  0  0  0  0  0  0  0
   11.9283    9.8846   -9.3326 H   0  0  0  0  0  0  0  0  0  0  0  0
   12.8811   11.1964   -8.4531 H   0  0  0  0  0  0  0  0  0  0  0  0
   10.7323    9.5498   -7.0586 H   0  0  0  0  0  0  0  0  0  0  0  0
   12.4392    8.9895   -7.1316 H   0  0  0  0  0  0  0  0  0  0  0  0
   13.2085   10.7350   -5.8697 H   0  0  0  0  0  0  0  0  0  0  0  0
   10.7689   11.1956   -4.4378 H   0  0  0  0  0  0  0  0  0  0  0  0
   12.6448   12.7701   -6.9904 H   0  0  0  0  0  0  0  0  0  0  0  0
   11.5530   12.8475   -5.5945 H   0  0  0  0  0  0  0  0  0  0  0  0
    9.6856   12.0981   -6.8302 H   0  0  0  0  0  0  0  0  0  0  0  0
   10.4890   13.4414   -7.6613 H   0  0  0  0  0  0  0  0  0  0  0  0
  2  1  2  0
  3  2  1  0
  4  3  2  0
  4  5  1  0
  5  6  2  0
  6  1  1  0
  1  7  1  0
  2  8  1  0
  3  9  1  0
 10 11  1  0
 11 12  1  0
 12 13  1  0
 13 14  1  0
 14 15  1  0
 15 16  1  0
 16 17  1  0
 16 18  1  0
 18 19  1  0
 19 13  1  0
 11 20  1  0
 11 21  1  0
 12 22  1  0
 12 23  1  0
 13 24  1  6
 14 25  1  0
 14 26  1  0
 15 27  1  0
 15 28  1  0
 16 29  1  1
 17 30  1  0
 18 31  1  0
 18 32  1  0
 19 33  1  0
 19 34  1  0
  5 17  1  0
M  END
>  <Score>  (1) 
-7.73577

$$$$

     RDKit          3D

 26 27  0  0  0  0  0  0  0  0999 V2000
   11.8117    6.9299   -2.9672 C   0  0  0  0  0  0  0  0  0  0  0  0
   11.4353    6.8794   -4.3266 C   0  0  0  0  0  0  0  0  0  0  0  0
   11.3602    8.0905   -5.0293 C   0  0  0  0  0  0  0  0  0  0  0  0
   11.6544    9.2441   -4.3602 N   0  0  0  0  0  0  0  0  0  0  0  0
   12.0117    9.2529   -3.0562 C   0  0  0  0  0  0  0  0  0  0  0  0
   12.0888    8.0992   -2.3664 N   0  0  0  0  0  0  0  0  0  0  0  0
   11.8525    5.9704   -2.4788 H   0  0  0  0  0  0  0  0  0  0  0  0
   11.0767    8.0873   -6.0655 H   0  0  0  0  0  0  0  0  0  0  0  0
   12.2422   10.1674   -2.5358 H   0  0  0  0  0  0  0  0  0  0  0  0
   11.1299    5.5968   -4.9909 C   0  0  0  0  0  0  0  0  0  0  0  0
   11.4889    5.7246   -6.4483 C   0  0  0  0  0  0  0  0  0  0  0  0
   11.2267    4.4984   -7.2214 C   0  0  0  0  0  0  0  0  0  0  0  0
   12.1341    3.4925   -7.3999 C   0  0  0  0  0  0  0  0  0  0  0  0
   11.8066    2.3711   -8.1425 C   0  0  0  0  0  0  0  0  0  0  0  0
   10.5693    2.2117   -8.7314 C   0  0  0  0  0  0  0  0  0  0  0  0
   10.3506    1.3210   -9.3045 H   0  0  0  0  0  0  0  0  0  0  0  0
    9.6556    3.2319   -8.5477 C   0  0  0  0  0  0  0  0  0  0  0  0
    9.9823    4.3504   -7.8070 C   0  0  0  0  0  0  0  0  0  0  0  0
   11.7503    4.7904   -4.5225 H   0  0  0  0  0  0  0  0  0  0  0  0
   10.0661    5.3479   -4.8850 H   0  0  0  0  0  0  0  0  0  0  0  0
   10.8902    6.5715   -6.8717 H   0  0  0  0  0  0  0  0  0  0  0  0
   12.5882    5.9259   -6.5116 H   0  0  0  0  0  0  0  0  0  0  0  0
   13.1106    3.6193   -6.9346 H   0  0  0  0  0  0  0  0  0  0  0  0
   12.5405    1.5815   -8.2739 H   0  0  0  0  0  0  0  0  0  0  0  0
    8.6871    3.1012   -9.0119 H   0  0  0  0  0  0  0  0  0  0  0  0
    9.2261    5.1097   -7.7011 H   0  0  0  0  0  0  0  0  0  0  0  0
  1  6  2  0
  2  1  1  0
  3  4  1  0
  3  2  2  0
  4  5  2  0
  5  6  1  0
  1  7  1  0
  3  8  1  0
  5  9  1  0
 10 11  1  0
 11 12  1  0
 12 13  2  0
 13 14  1  0
 14 15  2  0
 15 16  1  0
 15 17  1  0
 17 18  2  0
 18 12  1  0
 10 19  1  0
 10 20  1  0
 11 21  1  0
 11 22  1  0
 13 23  1  0
 14 24  1  0
 17 25  1  0
 18 26  1  0
  2 10  1  0
M  END
>  <Score>  (1) 
-7.15832

$$$$

     RDKit          3D

 26 27  0  0  0  0  0  0  0  0999 V2000
   11.8115    6.9294   -2.9678 C   0  0  0  0  0  0  0  0  0  0  0  0
   11.4353    6.8803   -4.3268 C   0  0  0  0  0  0  0  0  0  0  0  0
   11.3602    8.0896   -5.0287 C   0  0  0  0  0  0  0  0  0  0  0  0
   11.6543    9.2442   -4.3607 N   0  0  0  0  0  0  0  0  0  0  0  0
   12.0118    9.2528   -3.0558 C   0  0  0  0  0  0  0  0  0  0  0  0
   12.0889    8.0997   -2.3663 N   0  0  0  0  0  0  0  0  0  0  0  0
   11.8796    6.0106   -2.3939 H   0  0  0  0  0  0  0  0  0  0  0  0
   11.0793    8.1322   -6.0718 H   0  0  0  0  0  0  0  0  0  0  0  0
   12.2381   10.1890   -2.5585 H   0  0  0  0  0  0  0  0  0  0  0  0
   14.3795    3.1169   -6.4314 H   0  0  0  0  0  0  0  0  0  0  0  0
   14.0150    3.8041   -5.6480 C   0  0  0  0  0  0  0  0  0  0  0  0
   12.5493    4.0880   -5.8155 C   0  0  1  0  0  0  0  0  0  0  0  0
   12.0655    4.6659   -4.6770 O   0  0  0  0  0  0  0  0  0  0  0  0
   11.1314    5.6100   -4.9903 C   0  0  2  0  0  0  0  0  0  0  0  0
   10.9884    5.7011   -6.4694 C   0  0  2  0  0  0  0  0  0  0  0  0
    9.8855    4.9456   -6.9179 O   0  0  0  0  0  0  0  0  0  0  0  0
   12.2343    4.9766   -6.9728 C   0  0  1  0  0  0  0  0  0  0  0  0
   13.2434    5.8368   -7.3232 O   0  0  0  0  0  0  0  0  0  0  0  0
   14.5638    4.7611   -5.6151 H   0  0  0  0  0  0  0  0  0  0  0  0
   14.1359    3.3368   -4.6334 H   0  0  0  0  0  0  0  0  0  0  0  0
   12.0085    3.1274   -5.9711 H   0  0  0  0  0  0  0  0  0  0  0  0
   10.1424    5.2448   -4.5857 H   0  0  0  0  0  0  0  0  0  0  0  0
   10.9106    6.7242   -6.8681 H   0  0  0  0  0  0  0  0  0  0  0  0
    9.1071    5.0859   -6.3304 H   0  0  0  0  0  0  0  0  0  0  0  0
   11.9715    4.3597   -7.8732 H   0  0  0  0  0  0  0  0  0  0  0  0
   13.1146    6.1710   -8.2415 H   0  0  0  0  0  0  0  0  0  0  0  0
  1  6  2  0
  2  1  1  0
  3  4  1  0
  3  2  2  0
  4  5  2  0
  5  6  1  0
  1  7  1  0
  3  8  1  0
  5  9  1  0
 10 11  1  0
 11 12  1  0
 12 13  1  0
 13 14  1  0
 14 15  1  0
 15 16  1  0
 15 17  1  0
 17 18  1  0
 17 12  1  0
 11 19  1  0
 11 20  1  0
 12 21  1  6
 14 22  1  1
 15 23  1  1
 16 24  1  0
 17 25  1  6
 18 26  1  0
  2 14  1  0
M  END
>  <Score>  (1) 
-7.15307

$$$$

     RDKit          3D

 27 28  0  0  0  0  0  0  0  0999 V2000
   11.8120    6.9304   -2.9664 C   0  0  0  0  0  0  0  0  0  0  0  0
   11.4351    6.8798   -4.3273 C   0  0  0  0  0  0  0  0  0  0  0  0
   11.3600    8.0896   -5.0295 C   0  0  0  0  0  0  0  0  0  0  0  0
   11.6547    9.2446   -4.3592 N   0  0  0  0  0  0  0  0  0  0  0  0
   12.0114    9.2535   -3.0572 C   0  0  0  0  0  0  0  0  0  0  0  0
   12.0887    8.0981   -2.3664 N   0  0  0  0  0  0  0  0  0  0  0  0
   11.8677    5.9991   -2.4333 H   0  0  0  0  0  0  0  0  0  0  0  0
   11.0774    8.0892   -6.0633 H   0  0  0  0  0  0  0  0  0  0  0  0
   12.2298   10.1922   -2.5900 H   0  0  0  0  0  0  0  0  0  0  0  0
   11.1373    5.5809   -4.9581 C   0  0  2  0  0  0  0  0  0  0  0  0
   11.9447    5.4513   -6.2505 C   0  0  0  0  0  0  0  0  0  0  0  0
   11.5933    4.0950   -6.8305 C   0  0  0  0  0  0  0  0  0  0  0  0
   10.1156    4.0077   -7.1513 C   0  0  2  0  0  0  0  0  0  0  0  0
    9.9178    3.7603   -8.5061 O   0  0  0  0  0  0  0  0  0  0  0  0
    9.4040    5.2767   -6.7088 C   0  0  0  0  0  0  0  0  0  0  0  0
    9.6741    5.4173   -5.2087 C   0  0  0  0  0  0  0  0  0  0  0  0
   11.5318    4.7921   -4.2828 H   0  0  0  0  0  0  0  0  0  0  0  0
   13.0045    5.4181   -5.9391 H   0  0  0  0  0  0  0  0  0  0  0  0
   11.7676    6.2755   -6.9379 H   0  0  0  0  0  0  0  0  0  0  0  0
   11.8397    3.3415   -6.0526 H   0  0  0  0  0  0  0  0  0  0  0  0
   12.2289    3.8506   -7.7079 H   0  0  0  0  0  0  0  0  0  0  0  0
    9.6228    3.1737   -6.5997 H   0  0  0  0  0  0  0  0  0  0  0  0
    9.1223    3.2213   -8.6839 H   0  0  0  0  0  0  0  0  0  0  0  0
    8.3239    5.0991   -6.8738 H   0  0  0  0  0  0  0  0  0  0  0  0
    9.7344    6.1607   -7.2629 H   0  0  0  0  0  0  0  0  0  0  0  0
    9.0480    6.2095   -4.7584 H   0  0  0  0  0  0  0  0  0  0  0  0
    9.2971    4.4551   -4.7563 H   0  0  0  0  0  0  0  0  0  0  0  0
  1  6  2  0
  2  1  1  0
  3  4  1  0
  3  2  2  0
  4  5  2  0
  5  6  1  0
  1  7  1  0
  3  8  1  0
  5  9  1  0
 10 11  1  0
 11 12  1  0
 12 13  1  0
 13 14  1  0
 13 15  1  0
 15 16  1  0
 16 10  1  0
 10 17  1  1
 11 18  1  0
 11 19  1  0
 12 20  1  0
 12 21  1  0
 13 22  1  1
 14 23  1  0
 15 24  1  0
 15 25  1  0
 16 26  1  0
 16 27  1  0
  2 10  1  0
M  END
>  <Score>  (1) 
-7.11736

$$$$

     RDKit          3D

 26 27  0  0  0  0  0  0  0  0999 V2000
   11.8115    6.9297   -2.9678 C   0  0  0  0  0  0  0  0  0  0  0  0
   11.4355    6.8787   -4.3257 C   0  0  0  0  0  0  0  0  0  0  0  0
   11.3602    8.0917   -5.0295 C   0  0  0  0  0  0  0  0  0  0  0  0
   11.6542    9.2436   -4.3608 N   0  0  0  0  0  0  0  0  0  0  0  0
   12.0118    9.2528   -3.0558 C   0  0  0  0  0  0  0  0  0  0  0  0
   12.0888    8.0995   -2.3664 N   0  0  0  0  0  0  0  0  0  0  0  0
   11.8623    5.9792   -2.4461 H   0  0  0  0  0  0  0  0  0  0  0  0
   11.0759    8.0724   -6.0631 H   0  0  0  0  0  0  0  0  0  0  0  0
   12.2439   10.1702   -2.5305 H   0  0  0  0  0  0  0  0  0  0  0  0
   11.1289    5.5885   -4.9914 C   0  0  0  0  0  0  0  0  0  0  0  0
   10.4195    5.8041   -6.2895 C   0  0  0  0  0  0  0  0  0  0  0  0
   11.1162    5.9503   -7.4744 C   0  0  0  0  0  0  0  0  0  0  0  0
   10.4566    6.1494   -8.6724 C   0  0  0  0  0  0  0  0  0  0  0  0
    9.0785    6.2103   -8.7337 C   0  0  0  0  0  0  0  0  0  0  0  0
    8.3340    6.4232  -10.0040 C   0  0  0  0  0  0  0  0  0  0  0  0
    8.3684    6.0660   -7.5580 C   0  0  0  0  0  0  0  0  0  0  0  0
    9.0432    5.8676   -6.3689 C   0  0  0  0  0  0  0  0  0  0  0  0
   10.4992    4.9970   -4.3193 H   0  0  0  0  0  0  0  0  0  0  0  0
   12.0975    5.0901   -5.1884 H   0  0  0  0  0  0  0  0  0  0  0  0
   12.1963    5.9046   -7.4409 H   0  0  0  0  0  0  0  0  0  0  0  0
   10.9762    6.2669   -9.6143 H   0  0  0  0  0  0  0  0  0  0  0  0
    9.0578    6.6157  -10.8208 H   0  0  0  0  0  0  0  0  0  0  0  0
    7.7069    5.5315  -10.1681 H   0  0  0  0  0  0  0  0  0  0  0  0
    7.7042    7.3578   -9.9300 H   0  0  0  0  0  0  0  0  0  0  0  0
    7.2735    6.1148   -7.6094 H   0  0  0  0  0  0  0  0  0  0  0  0
    8.4967    5.7538   -5.4452 H   0  0  0  0  0  0  0  0  0  0  0  0
  1  6  2  0
  2  1  1  0
  3  4  1  0
  3  2  2  0
  4  5  2  0
  5  6  1  0
  1  7  1  0
  3  8  1  0
  5  9  1  0
 10 11  1  0
 11 12  2  0
 12 13  1  0
 13 14  2  0
 14 15  1  0
 14 16  1  0
 16 17  2  0
 17 11  1  0
 10 18  1  0
 10 19  1  0
 12 20  1  0
 13 21  1  0
 15 22  1  0
 15 23  1  0
 15 24  1  0
 16 25  1  0
 17 26  1  0
  2 10  1  0
M  END
>  <Score>  (1) 
-7.06902

$$$$

     RDKit          3D

 26 27  0  0  0  0  0  0  0  0999 V2000
   11.8117    6.9300   -2.9672 C   0  0  0  0  0  0  0  0  0  0  0  0
   11.4353    6.8789   -4.3262 C   0  0  0  0  0  0  0  0  0  0  0  0
   11.3602    8.0913   -5.0295 C   0  0  0  0  0  0  0  0  0  0  0  0
   11.6544    9.2438   -4.3603 N   0  0  0  0  0  0  0  0  0  0  0  0
   12.0116    9.2530   -3.0564 C   0  0  0  0  0  0  0  0  0  0  0  0
   12.0888    8.0989   -2.3665 N   0  0  0  0  0  0  0  0  0  0  0  0
   11.8770    6.0163   -2.4055 H   0  0  0  0  0  0  0  0  0  0  0  0
   11.0781    8.0818   -6.0582 H   0  0  0  0  0  0  0  0  0  0  0  0
   12.2335   10.1970   -2.5782 H   0  0  0  0  0  0  0  0  0  0  0  0
   12.3149    2.4724   -5.4896 H   0  0  0  0  0  0  0  0  0  0  0  0
   13.0424    2.9796   -6.1535 C   0  0  0  0  0  0  0  0  0  0  0  0
   12.6686    4.4629   -6.1516 C   0  0  2  0  0  0  0  0  0  0  0  0
   12.2375    4.7816   -4.8955 O   0  0  0  0  0  0  0  0  0  0  0  0
   11.1356    5.5808   -4.9643 C   0  0  2  0  0  0  0  0  0  0  0  0
   10.7579    5.7991   -6.3853 C   0  0  2  0  0  0  0  0  0  0  0  0
    9.3939    5.6777   -6.5739 O   0  0  0  0  0  0  0  0  0  0  0  0
   11.5516    4.7466   -7.1255 C   0  0  2  0  0  0  0  0  0  0  0  0
   10.8297    3.5827   -7.3174 O   0  0  0  0  0  0  0  0  0  0  0  0
   13.0751    2.5649   -7.1742 H   0  0  0  0  0  0  0  0  0  0  0  0
   14.0349    2.8769   -5.6578 H   0  0  0  0  0  0  0  0  0  0  0  0
   13.5775    5.0050   -6.4698 H   0  0  0  0  0  0  0  0  0  0  0  0
   10.3180    5.1025   -4.3854 H   0  0  0  0  0  0  0  0  0  0  0  0
   11.1218    6.7857   -6.7422 H   0  0  0  0  0  0  0  0  0  0  0  0
    9.1378    5.5514   -7.5205 H   0  0  0  0  0  0  0  0  0  0  0  0
   11.9689    5.1549   -8.0555 H   0  0  0  0  0  0  0  0  0  0  0  0
    9.9886    3.7081   -7.8012 H   0  0  0  0  0  0  0  0  0  0  0  0
  1  6  2  0
  2  1  1  0
  3  4  1  0
  3  2  2  0
  4  5  2  0
  5  6  1  0
  1  7  1  0
  3  8  1  0
  5  9  1  0
 10 11  1  0
 11 12  1  0
 12 13  1  0
 13 14  1  0
 14 15  1  0
 15 16  1  0
 15 17  1  0
 17 18  1  0
 17 12  1  0
 11 19  1  0
 11 20  1  0
 12 21  1  6
 14 22  1  1
 15 23  1  6
 16 24  1  0
 17 25  1  6
 18 26  1  0
  2 14  1  0
M  END
>  <Score>  (1) 
-7.01355

$$$$

     RDKit          3D

 27 29  0  0  0  0  0  0  0  0999 V2000
   11.8088    6.9289   -2.9757 C   0  0  0  0  0  0  0  0  0  0  0  0
   11.4352    6.8678   -4.3243 C   0  0  0  0  0  0  0  0  0  0  0  0
   11.3620    8.0987   -5.0249 C   0  0  0  0  0  0  0  0  0  0  0  0
   11.6542    9.2405   -4.3592 N   0  0  0  0  0  0  0  0  0  0  0  0
   12.0121    9.2521   -3.0554 C   0  0  0  0  0  0  0  0  0  0  0  0
   12.0897    8.1080   -2.3666 N   0  0  0  0  0  0  0  0  0  0  0  0
   11.8583    6.0365   -2.3753 H   0  0  0  0  0  0  0  0  0  0  0  0
   11.0784    8.0601   -6.0477 H   0  0  0  0  0  0  0  0  0  0  0  0
   12.2432   10.1747   -2.5373 H   0  0  0  0  0  0  0  0  0  0  0  0
   11.1640    5.6955   -5.0298 N   0  0  0  0  0  0  0  0  0  0  0  0
   11.1467    5.6093   -6.4618 C   0  0  0  0  0  0  0  0  0  0  0  0
   11.2777    6.7020   -7.2810 C   0  0  0  0  0  0  0  0  0  0  0  0
   11.2851    6.5495   -8.6563 C   0  0  0  0  0  0  0  0  0  0  0  0
   11.4209    7.6788   -9.4554 C   0  0  0  0  0  0  0  0  0  0  0  0
   11.4317    7.5587  -10.8250 C   0  0  0  0  0  0  0  0  0  0  0  0
   11.3056    6.3003  -11.3805 C   0  0  0  0  0  0  0  0  0  0  0  0
   11.3064    6.1343  -12.4517 H   0  0  0  0  0  0  0  0  0  0  0  0
   11.1717    5.1879  -10.5783 C   0  0  0  0  0  0  0  0  0  0  0  0
   11.1610    5.3077   -9.2149 C   0  0  0  0  0  0  0  0  0  0  0  0
   11.0316    4.2468   -8.3590 C   0  0  0  0  0  0  0  0  0  0  0  0
   11.0251    4.3925   -7.0467 N   0  0  0  0  0  0  0  0  0  0  0  0
   10.9492    4.7813   -4.5241 H   0  0  0  0  0  0  0  0  0  0  0  0
   11.3542    7.7027   -6.8675 H   0  0  0  0  0  0  0  0  0  0  0  0
   11.5179    8.6526   -8.9920 H   0  0  0  0  0  0  0  0  0  0  0  0
   11.5369    8.4264  -11.4883 H   0  0  0  0  0  0  0  0  0  0  0  0
   11.0721    4.1965  -10.9991 H   0  0  0  0  0  0  0  0  0  0  0  0
   10.9311    3.2500   -8.7883 H   0  0  0  0  0  0  0  0  0  0  0  0
  1  6  2  0
  2  1  1  0
  3  4  1  0
  3  2  2  0
  4  5  2  0
  5  6  1  0
  1  7  1  0
  3  8  1  0
  5  9  1  0
 10 11  1  0
 11 12  2  0
 12 13  1  0
 13 14  2  0
 14 15  1  0
 15 16  2  0
 16 17  1  0
 16 18  1  0
 18 19  2  0
 19 20  1  0
 20 21  2  0
 21 11  1  0
 19 13  1  0
 10 22  1  0
 12 23  1  0
 14 24  1  0
 15 25  1  0
 18 26  1  0
 20 27  1  0
  2 10  1  0
M  END
>  <Score>  (1) 
-7.0111

$$$$

     RDKit          3D

 22 23  0  0  0  0  0  0  0  0999 V2000
   11.8130    6.9344   -2.9644 C   0  0  0  0  0  0  0  0  0  0  0  0
   11.4329    6.8811   -4.3349 C   0  0  0  0  0  0  0  0  0  0  0  0
   11.3610    8.0827   -5.0245 C   0  0  0  0  0  0  0  0  0  0  0  0
   11.6559    9.2462   -4.3553 N   0  0  0  0  0  0  0  0  0  0  0  0
   12.0109    9.2555   -3.0594 C   0  0  0  0  0  0  0  0  0  0  0  0
   12.0884    8.0961   -2.3675 N   0  0  0  0  0  0  0  0  0  0  0  0
   11.8648    5.9945   -2.4436 H   0  0  0  0  0  0  0  0  0  0  0  0
   11.1015    8.1460   -6.0681 H   0  0  0  0  0  0  0  0  0  0  0  0
   12.2316   10.2149   -2.5897 H   0  0  0  0  0  0  0  0  0  0  0  0
   11.1848    5.6286   -4.9215 N   0  0  0  0  0  0  0  0  0  0  0  0
   11.2027    5.3298   -6.2938 C   0  0  0  0  0  0  0  0  0  0  0  0
   10.9735    6.2969   -7.2338 C   0  0  0  0  0  0  0  0  0  0  0  0
   11.0153    6.0106   -8.6038 C   0  0  0  0  0  0  0  0  0  0  0  0
   11.2900    4.7367   -9.0395 C   0  0  0  0  0  0  0  0  0  0  0  0
   11.3243    4.5070  -10.0928 H   0  0  0  0  0  0  0  0  0  0  0  0
   11.5169    3.7768   -8.0791 C   0  0  0  0  0  0  0  0  0  0  0  0
   11.7376    2.7535   -8.4028 H   0  0  0  0  0  0  0  0  0  0  0  0
   11.4788    4.0467   -6.7300 C   0  0  0  0  0  0  0  0  0  0  0  0
   10.9563    4.8027   -4.2812 H   0  0  0  0  0  0  0  0  0  0  0  0
   10.7310    7.3181   -6.9980 H   0  0  0  0  0  0  0  0  0  0  0  0
   10.8303    6.7977   -9.3276 H   0  0  0  0  0  0  0  0  0  0  0  0
   11.6653    3.2546   -5.9873 H   0  0  0  0  0  0  0  0  0  0  0  0
  1  6  2  0
  2  1  1  0
  3  4  1  0
  3  2  2  0
  4  5  2  0
  5  6  1  0
  1  7  1  0
  3  8  1  0
  5  9  1  0
 10 11  1  0
 11 12  2  0
 12 13  1  0
 13 14  2  0
 14 15  1  0
 14 16  1  0
 16 17  1  0
 16 18  2  0
 18 11  1  0
 10 19  1  0
 12 20  1  0
 13 21  1  0
 18 22  1  0
  2 10  1  0
M  END
>  <Score>  (1) 
-7.00136

$$$$

     RDKit          3D

 29 30  0  0  0  0  0  0  0  0999 V2000
   11.8107    6.9270   -2.9700 C   0  0  0  0  0  0  0  0  0  0  0  0
   11.4362    6.8783   -4.3229 C   0  0  0  0  0  0  0  0  0  0  0  0
   11.3604    8.0940   -5.0296 C   0  0  0  0  0  0  0  0  0  0  0  0
   11.6534    9.2425   -4.3633 N   0  0  0  0  0  0  0  0  0  0  0  0
   12.0124    9.2507   -3.0527 C   0  0  0  0  0  0  0  0  0  0  0  0
   12.0889    8.1035   -2.3675 N   0  0  0  0  0  0  0  0  0  0  0  0
   11.2135    5.9438   -4.8074 H   0  0  0  0  0  0  0  0  0  0  0  0
   11.0758    8.0906   -6.0699 H   0  0  0  0  0  0  0  0  0  0  0  0
   12.2355   10.1886   -2.5680 H   0  0  0  0  0  0  0  0  0  0  0  0
   11.8946    5.7161   -2.2349 N   0  0  0  0  0  0  0  0  0  0  0  0
   12.5798    5.6941   -0.9587 C   0  0  1  0  0  0  0  0  0  0  0  0
   12.5385    4.3021   -0.3679 C   0  0  0  0  0  0  0  0  0  0  0  0
   13.6887    3.5058   -0.9414 C   0  0  0  0  0  0  0  0  0  0  0  0
   14.9703    3.9951   -0.2982 C   0  0  2  0  0  0  0  0  0  0  0  0
   15.1556    3.2794    0.8940 O   0  0  0  0  0  0  0  0  0  0  0  0
   14.8467    5.4719   -0.0259 C   0  0  0  0  0  0  0  0  0  0  0  0
   14.0411    6.1075   -1.1482 C   0  0  0  0  0  0  0  0  0  0  0  0
   11.4743    4.8520   -2.5975 H   0  0  0  0  0  0  0  0  0  0  0  0
   12.1452    6.4482   -0.2752 H   0  0  0  0  0  0  0  0  0  0  0  0
   11.6014    3.7817   -0.7016 H   0  0  0  0  0  0  0  0  0  0  0  0
   12.5688    4.3033    0.7312 H   0  0  0  0  0  0  0  0  0  0  0  0
   13.5755    2.4312   -0.8027 H   0  0  0  0  0  0  0  0  0  0  0  0
   13.7636    3.7450   -2.0293 H   0  0  0  0  0  0  0  0  0  0  0  0
   15.8334    3.8146   -0.9479 H   0  0  0  0  0  0  0  0  0  0  0  0
   14.8757    3.8366    1.6818 H   0  0  0  0  0  0  0  0  0  0  0  0
   15.8355    5.9683    0.0805 H   0  0  0  0  0  0  0  0  0  0  0  0
   14.2797    5.6406    0.9185 H   0  0  0  0  0  0  0  0  0  0  0  0
   14.1209    7.2022   -1.1131 H   0  0  0  0  0  0  0  0  0  0  0  0
   14.4037    5.7394   -2.1342 H   0  0  0  0  0  0  0  0  0  0  0  0
  1  6  1  0
  2  1  2  0
  3  4  2  0
  3  2  1  0
  4  5  1  0
  5  6  2  0
  2  7  1  0
  3  8  1  0
  5  9  1  0
 10 11  1  0
 11 12  1  0
 12 13  1  0
 13 14  1  0
 14 15  1  0
 14 16  1  0
 16 17  1  0
 17 11  1  0
 10 18  1  0
 11 19  1  1
 12 20  1  0
 12 21  1  0
 13 22  1  0
 13 23  1  0
 14 24  1  6
 15 25  1  0
 16 26  1  0
 16 27  1  0
 17 28  1  0
 17 29  1  0
  1 10  1  0
M  END
>  <Score>  (1) 
-7.2

$$$$

     RDKit          3D

 26 28  0  0  0  0  0  0  0  0999 V2000
   11.8129    6.9339   -2.9641 C   0  0  0  0  0  0  0  0  0  0  0  0
   11.4351    6.8851   -4.3293 C   0  0  0  0  0  0  0  0  0  0  0  0
   11.3602    8.0896   -5.0290 C   0  0  0  0  0  0  0  0  0  0  0  0
   11.6550    9.2377   -4.3559 N   0  0  0  0  0  0  0  0  0  0  0  0
   12.0109    9.2538   -3.0594 C   0  0  0  0  0  0  0  0  0  0  0  0
   12.0880    8.0959   -2.3683 N   0  0  0  0  0  0  0  0  0  0  0  0
   11.8582    5.9680   -2.4572 H   0  0  0  0  0  0  0  0  0  0  0  0
   11.2214    5.9398   -4.7771 H   0  0  0  0  0  0  0  0  0  0  0  0
   12.2447   10.1653   -2.5261 H   0  0  0  0  0  0  0  0  0  0  0  0
   10.9784    8.1198   -6.4366 C   0  0  0  0  0  0  0  0  0  0  0  0
   11.9501    7.6966   -7.3520 C   0  0  0  0  0  0  0  0  0  0  0  0
   11.6680    7.6951   -8.7004 C   0  0  0  0  0  0  0  0  0  0  0  0
   10.4251    8.1133   -9.1279 C   0  0  0  0  0  0  0  0  0  0  0  0
   10.1249    8.1170  -10.4931 C   0  0  0  0  0  0  0  0  0  0  0  0
    8.8849    8.5334  -10.9267 C   0  0  0  0  0  0  0  0  0  0  0  0
    7.9180    8.9538  -10.0240 C   0  0  0  0  0  0  0  0  0  0  0  0
    8.2004    8.9549   -8.6797 C   0  0  0  0  0  0  0  0  0  0  0  0
    9.4571    8.5328   -8.2400 C   0  0  0  0  0  0  0  0  0  0  0  0
    9.7470    8.5321   -6.8849 C   0  0  0  0  0  0  0  0  0  0  0  0
   12.9238    7.3701   -7.0064 H   0  0  0  0  0  0  0  0  0  0  0  0
   12.4156    7.3678   -9.4285 H   0  0  0  0  0  0  0  0  0  0  0  0
   10.9072    7.7809  -11.1707 H   0  0  0  0  0  0  0  0  0  0  0  0
    8.6857    8.5230  -11.9991 H   0  0  0  0  0  0  0  0  0  0  0  0
    6.9640    9.2690  -10.4256 H   0  0  0  0  0  0  0  0  0  0  0  0
    7.4586    9.2799   -7.9540 H   0  0  0  0  0  0  0  0  0  0  0  0
    8.9983    8.8577   -6.1841 H   0  0  0  0  0  0  0  0  0  0  0  0
  1  6  2  0
  2  1  1  0
  3  4  1  0
  3  2  2  0
  4  5  2  0
  5  6  1  0
  1  7  1  0
  2  8  1  0
  5  9  1  0
 10 11  2  0
 11 12  1  0
 12 13  2  0
 13 14  1  0
 14 15  2  0
 15 16  1  0
 16 17  2  0
 17 18  1  0
 18 19  2  0
 19 10  1  0
 18 13  1  0
 11 20  1  0
 12 21  1  0
 14 22  1  0
 15 23  1  0
 16 24  1  0
 17 25  1  0
 19 26  1  0
  3 10  1  0
M  END
>  <Score>  (1) 
-9.44293

$$$$

     RDKit          3D

 32 34  0  0  0  0  0  0  0  0999 V2000
   11.8110    6.9289   -2.9695 C   0  0  0  0  0  0  0  0  0  0  0  0
   11.4361    6.8803   -4.3238 C   0  0  0  0  0  0  0  0  0  0  0  0
   11.3603    8.0939   -5.0299 C   0  0  0  0  0  0  0  0  0  0  0  0
   11.6534    9.2399   -4.3624 N   0  0  0  0  0  0  0  0  0  0  0  0
   12.0120    9.2528   -3.0549 C   0  0  0  0  0  0  0  0  0  0  0  0
   12.0891    8.1003   -2.3656 N   0  0  0  0  0  0  0  0  0  0  0  0
   11.8687    6.0042   -2.4315 H   0  0  0  0  0  0  0  0  0  0  0  0
   11.2129    5.9617   -4.8160 H   0  0  0  0  0  0  0  0  0  0  0  0
   12.2414   10.1666   -2.5384 H   0  0  0  0  0  0  0  0  0  0  0  0
   10.9725    8.0922   -6.4481 C   0  0  0  0  0  0  0  0  0  0  0  0
   12.0599    7.6160   -7.3378 C   0  0  0  0  0  0  0  0  0  0  0  0
   13.2632    7.2298   -6.8968 N   0  0  0  0  0  0  0  0  0  0  0  0
   14.2024    6.8122   -7.7290 N   0  0  0  0  0  0  0  0  0  0  0  0
   14.0125    6.7487   -9.0602 C   0  0  0  0  0  0  0  0  0  0  0  0
   14.9320    6.3442   -9.8314 O   0  0  0  0  0  0  0  0  0  0  0  0
   12.7771    7.1402   -9.5628 C   0  0  0  0  0  0  0  0  0  0  0  0
   11.8234    7.5664   -8.6961 C   0  0  0  0  0  0  0  0  0  0  0  0
   10.4966    7.9895   -9.2103 C   0  0  0  0  0  0  0  0  0  0  0  0
   10.1860    7.1531  -10.4223 C   0  0  0  0  0  0  0  0  0  0  0  0
   11.2268    7.3382  -11.5013 C   0  0  0  0  0  0  0  0  0  0  0  0
   12.6130    7.0534  -11.0364 C   0  0  0  0  0  0  0  0  0  0  0  0
   10.1021    7.3800   -6.5405 H   0  0  0  0  0  0  0  0  0  0  0  0
   10.6400    9.0870   -6.8172 H   0  0  0  0  0  0  0  0  0  0  0  0
   15.1509    6.5087   -7.3728 H   0  0  0  0  0  0  0  0  0  0  0  0
   10.5595    9.0727   -9.4852 H   0  0  0  0  0  0  0  0  0  0  0  0
    9.6820    7.8372   -8.4849 H   0  0  0  0  0  0  0  0  0  0  0  0
   10.0753    6.1068  -10.1097 H   0  0  0  0  0  0  0  0  0  0  0  0
    9.2232    7.5579  -10.8480 H   0  0  0  0  0  0  0  0  0  0  0  0
   11.1225    8.3984  -11.8605 H   0  0  0  0  0  0  0  0  0  0  0  0
   10.9834    6.6571  -12.3389 H   0  0  0  0  0  0  0  0  0  0  0  0
   12.9027    5.9972  -11.3090 H   0  0  0  0  0  0  0  0  0  0  0  0
   13.3871    7.7204  -11.4775 H   0  0  0  0  0  0  0  0  0  0  0  0
  1  6  2  0
  2  1  1  0
  3  4  1  0
  3  2  2  0
  4  5  2  0
  5  6  1  0
  1  7  1  0
  2  8  1  0
  5  9  1  0
 10 11  1  0
 11 12  2  0
 12 13  1  0
 13 14  1  0
 14 15  2  0
 14 16  1  0
 16 17  2  0
 17 18  1  0
 18 19  1  0
 19 20  1  0
 20 21  1  0
 17 11  1  0
 21 16  1  0
 10 22  1  0
 10 23  1  0
 13 24  1  0
 18 25  1  0
 18 26  1  0
 19 27  1  0
 19 28  1  0
 20 29  1  0
 20 30  1  0
 21 31  1  0
 21 32  1  0
  3 10  1  0
M  END
>  <Score>  (1) 
-9.14743

$$$$

     RDKit          3D

 27 28  0  0  0  0  0  0  0  0999 V2000
   12.3026    8.1233   -2.3015 C   0  0  0  0  0  0  0  0  0  0  0  0
   12.0217    6.8833   -2.9123 C   0  0  0  0  0  0  0  0  0  0  0  0
   11.5239    6.8984   -4.2263 C   0  0  0  0  0  0  0  0  0  0  0  0
   11.3424    8.1076   -4.8312 N   0  0  0  0  0  0  0  0  0  0  0  0
   11.6236    9.2770   -4.2122 C   0  0  0  0  0  0  0  0  0  0  0  0
   12.1008    9.2813   -2.9546 N   0  0  0  0  0  0  0  0  0  0  0  0
   12.6888    8.1586   -1.2869 H   0  0  0  0  0  0  0  0  0  0  0  0
   12.1868    5.9609   -2.3804 H   0  0  0  0  0  0  0  0  0  0  0  0
   11.3004    5.9688   -4.7184 H   0  0  0  0  0  0  0  0  0  0  0  0
   11.4378   10.5978   -4.8403 C   0  0  1  0  0  0  0  0  0  0  0  0
   12.6687   11.2293   -4.8781 O   0  0  0  0  0  0  0  0  0  0  0  0
   13.2900   10.8900   -6.0595 C   0  0  2  0  0  0  0  0  0  0  0  0
   14.0356   12.1422   -6.5291 C   0  0  0  0  0  0  0  0  0  0  0  0
   14.9463   12.4527   -5.5144 O   0  0  0  0  0  0  0  0  0  0  0  0
   12.2477   10.4566   -7.0385 C   0  0  2  0  0  0  0  0  0  0  0  0
   12.2584   11.3801   -8.1078 O   0  0  0  0  0  0  0  0  0  0  0  0
   10.9739   10.5630   -6.2431 C   0  0  1  0  0  0  0  0  0  0  0  0
   10.0369    9.6173   -6.5462 O   0  0  0  0  0  0  0  0  0  0  0  0
   10.7472   11.2203   -4.2332 H   0  0  0  0  0  0  0  0  0  0  0  0
   14.0173   10.0504   -5.9504 H   0  0  0  0  0  0  0  0  0  0  0  0
   14.5206   11.9820   -7.5066 H   0  0  0  0  0  0  0  0  0  0  0  0
   13.2854   12.9549   -6.5901 H   0  0  0  0  0  0  0  0  0  0  0  0
   14.5232   13.0681   -4.8504 H   0  0  0  0  0  0  0  0  0  0  0  0
   12.4166    9.4577   -7.4703 H   0  0  0  0  0  0  0  0  0  0  0  0
   12.0217   10.9166   -8.9638 H   0  0  0  0  0  0  0  0  0  0  0  0
   10.5274   11.5685   -6.4898 H   0  0  0  0  0  0  0  0  0  0  0  0
    9.1184   10.0063   -6.6954 H   0  0  0  0  0  0  0  0  0  0  0  0
  2  1  2  0
  3  2  1  0
  4  3  2  0
  4  5  1  0
  5  6  2  0
  6  1  1  0
  1  7  1  0
  2  8  1  0
  3  9  1  0
 10 11  1  0
 11 12  1  0
 12 13  1  0
 13 14  1  0
 12 15  1  0
 15 16  1  0
 15 17  1  0
 17 18  1  0
 17 10  1  0
 10 19  1  1
 12 20  1  1
 13 21  1  0
 13 22  1  0
 14 23  1  0
 15 24  1  6
 16 25  1  0
 17 26  1  6
 18 27  1  0
  5 10  1  0
M  END
>  <Score>  (1) 
-7.73078

$$$$

     RDKit          3D

 25 27  0  0  0  0  0  0  0  0999 V2000
   12.3027    8.1227   -2.3010 C   0  0  0  0  0  0  0  0  0  0  0  0
   12.0207    6.8836   -2.9148 C   0  0  0  0  0  0  0  0  0  0  0  0
   11.5244    6.9013   -4.2252 C   0  0  0  0  0  0  0  0  0  0  0  0
   11.3424    8.1032   -4.8307 N   0  0  0  0  0  0  0  0  0  0  0  0
   11.6252    9.2785   -4.2082 C   0  0  0  0  0  0  0  0  0  0  0  0
   12.0995    9.2816   -2.9581 N   0  0  0  0  0  0  0  0  0  0  0  0
   12.6835    8.0648   -1.2910 H   0  0  0  0  0  0  0  0  0  0  0  0
   12.1831    5.9574   -2.3897 H   0  0  0  0  0  0  0  0  0  0  0  0
   11.3031    5.9680   -4.7110 H   0  0  0  0  0  0  0  0  0  0  0  0
   11.4078   10.5562   -4.9152 C   0  0  0  0  0  0  0  0  0  0  0  0
   10.1777   10.9329   -5.3724 C   0  0  0  0  0  0  0  0  0  0  0  0
   10.0378   12.1497   -6.0313 C   0  0  0  0  0  0  0  0  0  0  0  0
   11.1284   12.9700   -6.2228 C   0  0  0  0  0  0  0  0  0  0  0  0
   11.0694   14.1853   -6.8636 C   0  0  0  0  0  0  0  0  0  0  0  0
   12.1983   14.9845   -7.0360 C   0  0  0  0  0  0  0  0  0  0  0  0
   13.4116   14.5420   -6.5483 C   0  0  0  0  0  0  0  0  0  0  0  0
   13.4878   13.3233   -5.9020 C   0  0  0  0  0  0  0  0  0  0  0  0
   12.3539   12.5541   -5.7462 C   0  0  0  0  0  0  0  0  0  0  0  0
   12.4380   11.3759   -5.1191 N   0  0  0  0  0  0  0  0  0  0  0  0
    9.3336   10.2905   -5.2203 H   0  0  0  0  0  0  0  0  0  0  0  0
    9.0593   12.4698   -6.4056 H   0  0  0  0  0  0  0  0  0  0  0  0
   10.1038   14.5122   -7.2386 H   0  0  0  0  0  0  0  0  0  0  0  0
   12.1261   15.9370   -7.5438 H   0  0  0  0  0  0  0  0  0  0  0  0
   14.2697   15.1847   -6.6974 H   0  0  0  0  0  0  0  0  0  0  0  0
   14.4595   13.0218   -5.5387 H   0  0  0  0  0  0  0  0  0  0  0  0
  2  1  2  0
  3  2  1  0
  4  3  2  0
  4  5  1  0
  5  6  2  0
  6  1  1  0
  1  7  1  0
  2  8  1  0
  3  9  1  0
 10 11  2  0
 11 12  1  0
 12 13  2  0
 13 14  1  0
 14 15  2  0
 15 16  1  0
 16 17  2  0
 17 18  1  0
 18 19  2  0
 19 10  1  0
 18 13  1  0
 11 20  1  0
 12 21  1  0
 14 22  1  0
 15 23  1  0
 16 24  1  0
 17 25  1  0
  5 10  1  0
M  END
>  <Score>  (1) 
-8.54005

$$$$

     RDKit          3D

 25 27  0  0  0  0  0  0  0  0999 V2000
   11.8108    6.9288   -2.9702 C   0  0  0  0  0  0  0  0  0  0  0  0
   11.4355    6.8857   -4.3280 C   0  0  0  0  0  0  0  0  0  0  0  0
   11.3616    8.0890   -5.0235 C   0  0  0  0  0  0  0  0  0  0  0  0
   11.6525    9.2378   -4.3650 N   0  0  0  0  0  0  0  0  0  0  0  0
   12.0129    9.2536   -3.0520 C   0  0  0  0  0  0  0  0  0  0  0  0
   12.0887    8.1011   -2.3674 N   0  0  0  0  0  0  0  0  0  0  0  0
   11.8756    6.0289   -2.4150 H   0  0  0  0  0  0  0  0  0  0  0  0
   11.2203    5.9557   -4.7870 H   0  0  0  0  0  0  0  0  0  0  0  0
   12.2446   10.1706   -2.5282 H   0  0  0  0  0  0  0  0  0  0  0  0
   10.9839    8.1525   -6.4278 C   0  0  0  0  0  0  0  0  0  0  0  0
   10.6239    9.3555   -6.9954 C   0  0  0  0  0  0  0  0  0  0  0  0
   10.2558    9.4949   -8.3122 C   0  0  0  0  0  0  0  0  0  0  0  0
   10.2386    8.3765   -9.1322 C   0  0  0  0  0  0  0  0  0  0  0  0
    9.8778    8.4946  -10.4349 N   0  0  0  0  0  0  0  0  0  0  0  0
    9.8643    7.4075  -11.2198 C   0  0  0  0  0  0  0  0  0  0  0  0
   10.2042    6.1659  -10.7548 C   0  0  0  0  0  0  0  0  0  0  0  0
   10.5695    6.0561   -9.4293 C   0  0  0  0  0  0  0  0  0  0  0  0
   10.5923    7.1574   -8.5991 C   0  0  0  0  0  0  0  0  0  0  0  0
   10.9628    7.0497   -7.2523 C   0  0  0  0  0  0  0  0  0  0  0  0
   10.6253   10.2480   -6.3886 H   0  0  0  0  0  0  0  0  0  0  0  0
    9.9713   10.4367   -8.7670 H   0  0  0  0  0  0  0  0  0  0  0  0
    9.5748    7.5187  -12.2537 H   0  0  0  0  0  0  0  0  0  0  0  0
   10.1819    5.3072  -11.4190 H   0  0  0  0  0  0  0  0  0  0  0  0
   10.8485    5.1005   -9.0045 H   0  0  0  0  0  0  0  0  0  0  0  0
   11.2312    6.0771   -6.8796 H   0  0  0  0  0  0  0  0  0  0  0  0
  1  6  2  0
  2  1  1  0
  3  4  1  0
  3  2  2  0
  4  5  2  0
  5  6  1  0
  1  7  1  0
  2  8  1  0
  5  9  1  0
 10 11  2  0
 11 12  1  0
 12 13  2  0
 13 14  1  0
 14 15  2  0
 15 16  1  0
 16 17  2  0
 17 18  1  0
 18 19  2  0
 19 10  1  0
 18 13  1  0
 11 20  1  0
 12 21  1  0
 15 22  1  0
 16 23  1  0
 17 24  1  0
 19 25  1  0
  3 10  1  0
M  END
>  <Score>  (1) 
-9.00177

$$$$

     RDKit          3D

 25 27  0  0  0  0  0  0  0  0999 V2000
   11.8128    6.9302   -2.9631 C   0  0  0  0  0  0  0  0  0  0  0  0
   11.4341    6.8850   -4.3330 C   0  0  0  0  0  0  0  0  0  0  0  0
   11.3603    8.0887   -5.0281 C   0  0  0  0  0  0  0  0  0  0  0  0
   11.6552    9.2405   -4.3559 N   0  0  0  0  0  0  0  0  0  0  0  0
   12.0102    9.2503   -3.0608 C   0  0  0  0  0  0  0  0  0  0  0  0
   12.0893    8.1013   -2.3652 N   0  0  0  0  0  0  0  0  0  0  0  0
   11.8721    6.0048   -2.4192 H   0  0  0  0  0  0  0  0  0  0  0  0
   11.2170    5.9425   -4.7944 H   0  0  0  0  0  0  0  0  0  0  0  0
   12.2441   10.1605   -2.5265 H   0  0  0  0  0  0  0  0  0  0  0  0
   10.9800    8.1268   -6.4330 C   0  0  0  0  0  0  0  0  0  0  0  0
   11.2216    9.2767   -7.1466 C   0  0  0  0  0  0  0  0  0  0  0  0
   10.9185    9.4358   -8.4422 N   0  0  0  0  0  0  0  0  0  0  0  0
   10.3443    8.4032   -9.0717 C   0  0  0  0  0  0  0  0  0  0  0  0
   10.0088    8.5111  -10.4125 C   0  0  0  0  0  0  0  0  0  0  0  0
    9.4146    7.4629  -11.0918 C   0  0  0  0  0  0  0  0  0  0  0  0
    9.1388    6.2754  -10.4479 C   0  0  0  0  0  0  0  0  0  0  0  0
    9.4723    6.1663   -9.1130 C   0  0  0  0  0  0  0  0  0  0  0  0
   10.0613    7.2114   -8.4478 C   0  0  0  0  0  0  0  0  0  0  0  0
   10.3910    7.0828   -7.0997 C   0  0  0  0  0  0  0  0  0  0  0  0
   11.6894   10.1197   -6.6363 H   0  0  0  0  0  0  0  0  0  0  0  0
   10.2354    9.4550  -10.8977 H   0  0  0  0  0  0  0  0  0  0  0  0
    9.1853    7.6273  -12.1318 H   0  0  0  0  0  0  0  0  0  0  0  0
    8.6668    5.4562  -11.0057 H   0  0  0  0  0  0  0  0  0  0  0  0
    9.2635    5.2387   -8.5866 H   0  0  0  0  0  0  0  0  0  0  0  0
   10.1834    6.1732   -6.5932 H   0  0  0  0  0  0  0  0  0  0  0  0
  1  6  2  0
  2  1  1  0
  3  4  1  0
  3  2  2  0
  4  5  2  0
  5  6  1  0
  1  7  1  0
  2  8  1  0
  5  9  1  0
 10 11  2  0
 11 12  1  0
 12 13  2  0
 13 14  1  0
 14 15  2  0
 15 16  1  0
 16 17  2  0
 17 18  1  0
 18 19  2  0
 19 10  1  0
 18 13  1  0
 11 20  1  0
 14 21  1  0
 15 22  1  0
 16 23  1  0
 17 24  1  0
 19 25  1  0
  3 10  1  0
M  END
>  <Score>  (1) 
-8.98525

$$$$

     RDKit          3D

 25 27  0  0  0  0  0  0  0  0999 V2000
   11.8125    6.9285   -2.9637 C   0  0  0  0  0  0  0  0  0  0  0  0
   11.4340    6.8824   -4.3324 C   0  0  0  0  0  0  0  0  0  0  0  0
   11.3606    8.0884   -5.0271 C   0  0  0  0  0  0  0  0  0  0  0  0
   11.6550    9.2408   -4.3570 N   0  0  0  0  0  0  0  0  0  0  0  0
   12.0119    9.2521   -3.0552 C   0  0  0  0  0  0  0  0  0  0  0  0
   12.0881    8.1038   -2.3706 N   0  0  0  0  0  0  0  0  0  0  0  0
   11.8674    5.9894   -2.4310 H   0  0  0  0  0  0  0  0  0  0  0  0
   11.2196    5.9479   -4.7867 H   0  0  0  0  0  0  0  0  0  0  0  0
   12.2417   10.1920   -2.5465 H   0  0  0  0  0  0  0  0  0  0  0  0
   10.9788    8.1023   -6.4286 C   0  0  0  0  0  0  0  0  0  0  0  0
   10.9169    9.3220   -7.0854 C   0  0  0  0  0  0  0  0  0  0  0  0
   10.5535    9.3242   -8.4155 C   0  0  0  0  0  0  0  0  0  0  0  0
   10.2599    8.1388   -9.0716 C   0  0  0  0  0  0  0  0  0  0  0  0
    9.8957    8.1333  -10.4020 C   0  0  0  0  0  0  0  0  0  0  0  0
    9.6113    6.9320  -11.0191 C   0  0  0  0  0  0  0  0  0  0  0  0
    9.6926    5.7484  -10.3040 C   0  0  0  0  0  0  0  0  0  0  0  0
   10.0559    5.7517   -8.9760 C   0  0  0  0  0  0  0  0  0  0  0  0
   10.3430    6.9642   -8.3537 C   0  0  0  0  0  0  0  0  0  0  0  0
   10.6999    6.9556   -7.0450 N   0  0  0  0  0  0  0  0  0  0  0  0
   11.1482   10.2410   -6.5632 H   0  0  0  0  0  0  0  0  0  0  0  0
   10.4975   10.2555   -8.9488 H   0  0  0  0  0  0  0  0  0  0  0  0
    9.8291    9.0617  -10.9734 H   0  0  0  0  0  0  0  0  0  0  0  0
    9.3296    6.9175  -12.0446 H   0  0  0  0  0  0  0  0  0  0  0  0
    9.4715    4.8011  -10.7786 H   0  0  0  0  0  0  0  0  0  0  0  0
   10.1349    4.8681   -8.3754 H   0  0  0  0  0  0  0  0  0  0  0  0
  1  6  2  0
  2  1  1  0
  3  4  1  0
  3  2  2  0
  4  5  2  0
  5  6  1  0
  1  7  1  0
  2  8  1  0
  5  9  1  0
 10 11  2  0
 11 12  1  0
 12 13  2  0
 13 14  1  0
 14 15  2  0
 15 16  1  0
 16 17  2  0
 17 18  1  0
 18 19  2  0
 19 10  1  0
 18 13  1  0
 11 20  1  0
 12 21  1  0
 14 22  1  0
 15 23  1  0
 16 24  1  0
 17 25  1  0
  3 10  1  0
M  END
>  <Score>  (1) 
-8.92399

$$$$

     RDKit          3D

 25 27  0  0  0  0  0  0  0  0999 V2000
   11.8108    6.9299   -2.9704 C   0  0  0  0  0  0  0  0  0  0  0  0
   11.4378    6.8861   -4.3198 C   0  0  0  0  0  0  0  0  0  0  0  0
   11.3602    8.1084   -5.0356 C   0  0  0  0  0  0  0  0  0  0  0  0
   11.6503    9.2158   -4.3652 N   0  0  0  0  0  0  0  0  0  0  0  0
   12.0130    9.2551   -3.0523 C   0  0  0  0  0  0  0  0  0  0  0  0
   12.0900    8.1007   -2.3627 N   0  0  0  0  0  0  0  0  0  0  0  0
   11.8901    6.0450   -2.3677 H   0  0  0  0  0  0  0  0  0  0  0  0
   11.2212    5.9637   -4.7864 H   0  0  0  0  0  0  0  0  0  0  0  0
   12.2425   10.1620   -2.5327 H   0  0  0  0  0  0  0  0  0  0  0  0
   10.9754    8.0280   -6.4151 C   0  0  0  0  0  0  0  0  0  0  0  0
    9.6439    8.1028   -6.7297 N   0  0  0  0  0  0  0  0  0  0  0  0
    9.1714    8.0412   -7.9541 N   0  0  0  0  0  0  0  0  0  0  0  0
   10.0032    7.8954   -9.0097 C   0  0  0  0  0  0  0  0  0  0  0  0
    9.5520    7.8375  -10.1681 O   0  0  0  0  0  0  0  0  0  0  0  0
   11.3494    7.8115   -8.7957 C   0  0  0  0  0  0  0  0  0  0  0  0
   12.1954    7.6643   -9.8554 C   0  0  0  0  0  0  0  0  0  0  0  0
   13.5666    7.5774   -9.6577 C   0  0  0  0  0  0  0  0  0  0  0  0
   14.0486    7.6429   -8.3740 C   0  0  0  0  0  0  0  0  0  0  0  0
   13.1760    7.7934   -7.2981 C   0  0  0  0  0  0  0  0  0  0  0  0
   11.8186    7.8804   -7.4819 C   0  0  0  0  0  0  0  0  0  0  0  0
    8.1399    8.1054   -8.1188 H   0  0  0  0  0  0  0  0  0  0  0  0
   11.7681    7.6177  -10.8483 H   0  0  0  0  0  0  0  0  0  0  0  0
   14.2188    7.4614  -10.5066 H   0  0  0  0  0  0  0  0  0  0  0  0
   15.1213    7.5776   -8.1854 H   0  0  0  0  0  0  0  0  0  0  0  0
   13.5739    7.8422   -6.3055 H   0  0  0  0  0  0  0  0  0  0  0  0
  1  6  2  0
  2  1  1  0
  3  4  1  0
  3  2  2  0
  4  5  2  0
  5  6  1  0
  1  7  1  0
  2  8  1  0
  5  9  1  0
 10 11  2  0
 11 12  1  0
 12 13  1  0
 13 14  2  0
 13 15  1  0
 15 16  2  0
 16 17  1  0
 17 18  2  0
 18 19  1  0
 19 20  2  0
 20 10  1  0
 20 15  1  0
 12 21  1  0
 16 22  1  0
 17 23  1  0
 18 24  1  0
 19 25  1  0
  3 10  1  0
M  END
>  <Score>  (1) 
-8.72862

$$$$

     RDKit          3D

 29 31  0  0  0  0  0  0  0  0999 V2000
   11.8128    6.9314   -2.9638 C   0  0  0  0  0  0  0  0  0  0  0  0
   11.4345    6.8826   -4.3306 C   0  0  0  0  0  0  0  0  0  0  0  0
   11.3601    8.0873   -5.0285 C   0  0  0  0  0  0  0  0  0  0  0  0
   11.6548    9.2441   -4.3590 N   0  0  0  0  0  0  0  0  0  0  0  0
   12.0113    9.2545   -3.0579 C   0  0  0  0  0  0  0  0  0  0  0  0
   12.0885    8.0961   -2.3663 N   0  0  0  0  0  0  0  0  0  0  0  0
   11.8555    5.9762   -2.4702 H   0  0  0  0  0  0  0  0  0  0  0  0
   11.2193    5.9473   -4.7849 H   0  0  0  0  0  0  0  0  0  0  0  0
   12.2309   10.2043   -2.5901 H   0  0  0  0  0  0  0  0  0  0  0  0
   10.9921    8.1296   -6.3933 N   0  0  0  0  0  0  0  0  0  0  0  0
    9.6667    8.5597   -6.7637 C   0  0  0  0  0  0  0  0  0  0  0  0
    9.2011    7.8772   -8.0111 C   0  0  0  0  0  0  0  0  0  0  0  0
    7.9177    7.3843   -8.1590 C   0  0  0  0  0  0  0  0  0  0  0  0
    7.6122    6.7698   -9.3708 C   0  0  0  0  0  0  0  0  0  0  0  0
    8.5597    6.6646  -10.3716 C   0  0  0  0  0  0  0  0  0  0  0  0
    9.8321    7.1684  -10.1891 C   0  0  0  0  0  0  0  0  0  0  0  0
   10.1477    7.7729   -9.0092 C   0  0  0  0  0  0  0  0  0  0  0  0
   11.4857    8.3450   -8.7190 C   0  0  0  0  0  0  0  0  0  0  0  0
   11.9405    7.7437   -7.4047 C   0  0  0  0  0  0  0  0  0  0  0  0
   12.0003    6.6401   -7.4796 H   0  0  0  0  0  0  0  0  0  0  0  0
    9.7482    9.6541   -7.0142 H   0  0  0  0  0  0  0  0  0  0  0  0
    8.9273    8.4317   -5.9490 H   0  0  0  0  0  0  0  0  0  0  0  0
    7.1983    7.4835   -7.3535 H   0  0  0  0  0  0  0  0  0  0  0  0
    6.6087    6.3843   -9.4866 H   0  0  0  0  0  0  0  0  0  0  0  0
    8.3006    6.1859  -11.2987 H   0  0  0  0  0  0  0  0  0  0  0  0
   10.5962    7.1012  -10.9543 H   0  0  0  0  0  0  0  0  0  0  0  0
   12.2171    8.1289   -9.5212 H   0  0  0  0  0  0  0  0  0  0  0  0
   11.3349    9.4397   -8.5865 H   0  0  0  0  0  0  0  0  0  0  0  0
   12.9858    8.0815   -7.1692 H   0  0  0  0  0  0  0  0  0  0  0  0
  1  6  2  0
  2  1  1  0
  3  4  1  0
  3  2  2  0
  4  5  2  0
  5  6  1  0
  1  7  1  0
  2  8  1  0
  5  9  1  0
 10 11  1  0
 11 12  1  0
 12 13  2  0
 13 14  1  0
 14 15  2  0
 15 16  1  0
 16 17  2  0
 17 18  1  0
 18 19  1  0
 19 20  1  0
 19 10  1  0
 17 12  1  0
 11 21  1  0
 11 22  1  0
 13 23  1  0
 14 24  1  0
 15 25  1  0
 16 26  1  0
 18 27  1  0
 18 28  1  0
 19 29  1  0
  3 10  1  0
M  END
>  <Score>  (1) 
-8.62808

$$$$

     RDKit          3D

 25 27  0  0  0  0  0  0  0  0999 V2000
   11.8118    6.9303   -2.9669 C   0  0  0  0  0  0  0  0  0  0  0  0
   11.4352    6.8795   -4.3268 C   0  0  0  0  0  0  0  0  0  0  0  0
   11.3601    8.0901   -5.0295 C   0  0  0  0  0  0  0  0  0  0  0  0
   11.6547    9.2445   -4.3593 N   0  0  0  0  0  0  0  0  0  0  0  0
   12.0114    9.2535   -3.0573 C   0  0  0  0  0  0  0  0  0  0  0  0
   12.0887    8.0982   -2.3663 N   0  0  0  0  0  0  0  0  0  0  0  0
   11.8721    6.0050   -2.4195 H   0  0  0  0  0  0  0  0  0  0  0  0
   11.2118    5.9585   -4.8188 H   0  0  0  0  0  0  0  0  0  0  0  0
   12.2343   10.1764   -2.5678 H   0  0  0  0  0  0  0  0  0  0  0  0
   10.9917    8.1415   -6.3953 N   0  0  0  0  0  0  0  0  0  0  0  0
    9.7086    8.1587   -6.7022 N   0  0  0  0  0  0  0  0  0  0  0  0
    9.2474    8.2068   -7.9616 C   0  0  0  0  0  0  0  0  0  0  0  0
    8.1673    8.2193   -8.1656 H   0  0  0  0  0  0  0  0  0  0  0  0
   10.1173    8.2412   -9.0189 C   0  0  0  0  0  0  0  0  0  0  0  0
    9.6660    8.2904  -10.3127 C   0  0  0  0  0  0  0  0  0  0  0  0
   10.5669    8.3247  -11.3694 C   0  0  0  0  0  0  0  0  0  0  0  0
   11.9115    8.3084  -11.0927 C   0  0  0  0  0  0  0  0  0  0  0  0
   12.3676    8.2581   -9.7715 C   0  0  0  0  0  0  0  0  0  0  0  0
   11.4812    8.2238   -8.7157 C   0  0  0  0  0  0  0  0  0  0  0  0
   11.8873    8.1737   -7.3938 C   0  0  0  0  0  0  0  0  0  0  0  0
   13.1220    8.1584   -7.1327 O   0  0  0  0  0  0  0  0  0  0  0  0
    8.6026    8.3018  -10.4878 H   0  0  0  0  0  0  0  0  0  0  0  0
   10.2401    8.3636  -12.3958 H   0  0  0  0  0  0  0  0  0  0  0  0
   12.6230    8.3339  -11.8881 H   0  0  0  0  0  0  0  0  0  0  0  0
   13.4108    8.2454   -9.5562 H   0  0  0  0  0  0  0  0  0  0  0  0
  1  6  2  0
  2  1  1  0
  3  4  1  0
  3  2  2  0
  4  5  2  0
  5  6  1  0
  1  7  1  0
  2  8  1  0
  5  9  1  0
 10 11  1  0
 11 12  2  0
 12 13  1  0
 12 14  1  0
 14 15  2  0
 15 16  1  0
 16 17  2  0
 17 18  1  0
 18 19  2  0
 19 20  1  0
 20 21  2  0
 20 10  1  0
 19 14  1  0
 15 22  1  0
 16 23  1  0
 17 24  1  0
 18 25  1  0
  3 10  1  0
M  END
>  <Score>  (1) 
-8.62159

$$$$

     RDKit          3D

 24 26  0  0  0  0  0  0  0  0999 V2000
   11.8128    6.9311   -2.9635 C   0  0  0  0  0  0  0  0  0  0  0  0
   11.4342    6.8815   -4.3313 C   0  0  0  0  0  0  0  0  0  0  0  0
   11.3607    8.0890   -5.0267 C   0  0  0  0  0  0  0  0  0  0  0  0
   11.6539    9.2435   -4.3617 N   0  0  0  0  0  0  0  0  0  0  0  0
   12.0118    9.2533   -3.0558 C   0  0  0  0  0  0  0  0  0  0  0  0
   12.0885    8.0976   -2.3669 N   0  0  0  0  0  0  0  0  0  0  0  0
   11.8828    6.0262   -2.3879 H   0  0  0  0  0  0  0  0  0  0  0  0
   11.2137    5.9479   -4.8080 H   0  0  0  0  0  0  0  0  0  0  0  0
   12.2446   10.1722   -2.5288 H   0  0  0  0  0  0  0  0  0  0  0  0
   10.9845    8.0871   -6.4025 N   0  0  0  0  0  0  0  0  0  0  0  0
   10.3699    7.0470   -7.1522 C   0  0  0  0  0  0  0  0  0  0  0  0
   10.0555    5.9347   -6.6981 O   0  0  0  0  0  0  0  0  0  0  0  0
   10.1556    7.4632   -8.5391 C   0  0  0  0  0  0  0  0  0  0  0  0
    9.6138    6.8618   -9.6558 C   0  0  0  0  0  0  0  0  0  0  0  0
    9.5434    7.5200  -10.8642 C   0  0  0  0  0  0  0  0  0  0  0  0
   10.0356    8.8172  -10.9343 C   0  0  0  0  0  0  0  0  0  0  0  0
   10.5762    9.4281   -9.8354 C   0  0  0  0  0  0  0  0  0  0  0  0
   10.6423    8.7519   -8.6167 C   0  0  0  0  0  0  0  0  0  0  0  0
   11.1596    9.1655   -7.3184 C   0  0  0  0  0  0  0  0  0  0  0  0
   11.6798   10.2623   -6.9965 O   0  0  0  0  0  0  0  0  0  0  0  0
    9.2279    5.8534   -9.6134 H   0  0  0  0  0  0  0  0  0  0  0  0
    9.1164    7.0546  -11.7569 H   0  0  0  0  0  0  0  0  0  0  0  0
    9.9603    9.3008  -11.9090 H   0  0  0  0  0  0  0  0  0  0  0  0
   10.9539   10.4544   -9.9340 H   0  0  0  0  0  0  0  0  0  0  0  0
  1  6  2  0
  2  1  1  0
  3  4  1  0
  3  2  2  0
  4  5  2  0
  5  6  1  0
  1  7  1  0
  2  8  1  0
  5  9  1  0
 10 11  1  0
 11 12  2  0
 11 13  1  0
 13 14  2  0
 14 15  1  0
 15 16  2  0
 16 17  1  0
 17 18  2  0
 18 19  1  0
 19 20  2  0
 19 10  1  0
 18 13  1  0
 14 21  1  0
 15 22  1  0
 16 23  1  0
 17 24  1  0
  3 10  1  0
M  END
>  <Score>  (1) 
-8.61464

$$$$

     RDKit          3D

 24 26  0  0  0  0  0  0  0  0999 V2000
   11.8129    6.9313   -2.9631 C   0  0  0  0  0  0  0  0  0  0  0  0
   11.4342    6.8826   -4.3316 C   0  0  0  0  0  0  0  0  0  0  0  0
   11.3607    8.0891   -5.0267 C   0  0  0  0  0  0  0  0  0  0  0  0
   11.6537    9.2422   -4.3622 N   0  0  0  0  0  0  0  0  0  0  0  0
   12.0119    9.2541   -3.0558 C   0  0  0  0  0  0  0  0  0  0  0  0
   12.0885    8.0967   -2.3665 N   0  0  0  0  0  0  0  0  0  0  0  0
   11.8528    5.9814   -2.4816 H   0  0  0  0  0  0  0  0  0  0  0  0
   11.2157    5.9504   -4.8017 H   0  0  0  0  0  0  0  0  0  0  0  0
   12.2425   10.1569   -2.5311 H   0  0  0  0  0  0  0  0  0  0  0  0
   10.9777    8.1198   -6.4389 C   0  0  0  0  0  0  0  0  0  0  0  0
   11.4732    9.0960   -7.2187 N   0  0  0  0  0  0  0  0  0  0  0  0
   11.1545    9.1699   -8.5181 C   0  0  0  0  0  0  0  0  0  0  0  0
   11.5169    9.9259   -9.1961 H   0  0  0  0  0  0  0  0  0  0  0  0
   10.2907    8.1884   -9.0071 C   0  0  0  0  0  0  0  0  0  0  0  0
    9.9317    8.2216  -10.3420 C   0  0  0  0  0  0  0  0  0  0  0  0
    9.0701    7.2434  -10.8314 C   0  0  0  0  0  0  0  0  0  0  0  0
    8.5861    6.2571   -9.9854 C   0  0  0  0  0  0  0  0  0  0  0  0
    8.9391    6.2164   -8.6523 C   0  0  0  0  0  0  0  0  0  0  0  0
    9.7935    7.1980   -8.1969 C   0  0  0  0  0  0  0  0  0  0  0  0
   10.1502    7.1757   -6.8979 N   0  0  0  0  0  0  0  0  0  0  0  0
   10.3186    8.9985  -10.9882 H   0  0  0  0  0  0  0  0  0  0  0  0
    8.7854    7.2649  -11.8779 H   0  0  0  0  0  0  0  0  0  0  0  0
    7.9285    5.5232  -10.3919 H   0  0  0  0  0  0  0  0  0  0  0  0
    8.5373    5.4286   -8.0298 H   0  0  0  0  0  0  0  0  0  0  0  0
  1  6  2  0
  2  1  1  0
  3  4  1  0
  3  2  2  0
  4  5  2  0
  5  6  1  0
  1  7  1  0
  2  8  1  0
  5  9  1  0
 10 11  2  0
 11 12  1  0
 12 13  1  0
 12 14  2  0
 14 15  1  0
 15 16  2  0
 16 17  1  0
 17 18  2  0
 18 19  1  0
 19 20  2  0
 20 10  1  0
 19 14  1  0
 15 21  1  0
 16 22  1  0
 17 23  1  0
 18 24  1  0
  3 10  1  0
M  END
>  <Score>  (1) 
-8.60401

$$$$

     RDKit          3D

 27 29  0  0  0  0  0  0  0  0999 V2000
   11.8120    6.9321   -2.9668 C   0  0  0  0  0  0  0  0  0  0  0  0
   11.4352    6.8842   -4.3287 C   0  0  0  0  0  0  0  0  0  0  0  0
   11.3608    8.0871   -5.0256 C   0  0  0  0  0  0  0  0  0  0  0  0
   11.6536    9.2434   -4.3630 N   0  0  0  0  0  0  0  0  0  0  0  0
   12.0118    9.2539   -3.0563 C   0  0  0  0  0  0  0  0  0  0  0  0
   12.0887    8.0952   -2.3655 N   0  0  0  0  0  0  0  0  0  0  0  0
   11.8817    6.0249   -2.3912 H   0  0  0  0  0  0  0  0  0  0  0  0
   11.2110    5.9633   -4.8237 H   0  0  0  0  0  0  0  0  0  0  0  0
   12.2464   10.1582   -2.5171 H   0  0  0  0  0  0  0  0  0  0  0  0
   10.9806    8.1392   -6.4352 C   0  0  0  0  0  0  0  0  0  0  0  0
    9.8853    8.8324   -6.8811 C   0  0  0  0  0  0  0  0  0  0  0  0
    9.5820    8.8434   -8.2091 C   0  0  0  0  0  0  0  0  0  0  0  0
    8.5342    9.4912   -8.7362 N   0  0  0  0  0  0  0  0  0  0  0  0
    8.2680    9.4772  -10.0590 C   0  0  0  0  0  0  0  0  0  0  0  0
    9.0444    8.8070  -10.9345 N   0  0  0  0  0  0  0  0  0  0  0  0
    8.7771    8.7790  -12.3552 C   0  0  0  0  0  0  0  0  0  0  0  0
   10.1058    8.1459  -10.4318 C   0  0  0  0  0  0  0  0  0  0  0  0
   10.8779    7.4931  -11.2116 O   0  0  0  0  0  0  0  0  0  0  0  0
   10.4070    8.1403   -9.0786 C   0  0  0  0  0  0  0  0  0  0  0  0
   11.5114    7.4422   -8.6233 C   0  0  0  0  0  0  0  0  0  0  0  0
   12.1353    6.9009   -9.3443 H   0  0  0  0  0  0  0  0  0  0  0  0
   11.7784    7.4544   -7.3083 N   0  0  0  0  0  0  0  0  0  0  0  0
    9.2795    9.3591   -6.1730 H   0  0  0  0  0  0  0  0  0  0  0  0
    7.4171   10.0063  -10.4675 H   0  0  0  0  0  0  0  0  0  0  0  0
    9.5268    9.3606  -12.9350 H   0  0  0  0  0  0  0  0  0  0  0  0
    7.7473    9.1342  -12.5678 H   0  0  0  0  0  0  0  0  0  0  0  0
    8.8535    7.7106  -12.6824 H   0  0  0  0  0  0  0  0  0  0  0  0
  1  6  2  0
  2  1  1  0
  3  4  1  0
  3  2  2  0
  4  5  2  0
  5  6  1  0
  1  7  1  0
  2  8  1  0
  5  9  1  0
 10 11  2  0
 11 12  1  0
 12 13  1  0
 13 14  2  0
 14 15  1  0
 15 16  1  0
 15 17  1  0
 17 18  2  0
 17 19  1  0
 19 20  1  0
 20 21  1  0
 20 22  2  0
 22 10  1  0
 19 12  2  0
 11 23  1  0
 14 24  1  0
 16 25  1  0
 16 26  1  0
 16 27  1  0
  3 10  1  0
M  END
>  <Score>  (1) 
-8.57778

$$$$

     RDKit          3D

 27 29  0  0  0  0  0  0  0  0999 V2000
   11.8107    6.9262   -2.9696 C   0  0  0  0  0  0  0  0  0  0  0  0
   11.4366    6.8909   -4.3259 C   0  0  0  0  0  0  0  0  0  0  0  0
   11.3588    8.0847   -5.0321 C   0  0  0  0  0  0  0  0  0  0  0  0
   11.6548    9.2388   -4.3568 N   0  0  0  0  0  0  0  0  0  0  0  0
   12.0115    9.2548   -3.0575 C   0  0  0  0  0  0  0  0  0  0  0  0
   12.0896    8.1006   -2.3640 N   0  0  0  0  0  0  0  0  0  0  0  0
   11.8573    5.9812   -2.4651 H   0  0  0  0  0  0  0  0  0  0  0  0
   11.2207    5.9396   -4.7798 H   0  0  0  0  0  0  0  0  0  0  0  0
   12.2455   10.1537   -2.5190 H   0  0  0  0  0  0  0  0  0  0  0  0
   10.9793    8.1423   -6.4410 C   0  0  0  0  0  0  0  0  0  0  0  0
    9.9264    7.4305   -6.9206 C   0  0  0  0  0  0  0  0  0  0  0  0
    9.5180    7.4443   -8.2479 C   0  0  0  0  0  0  0  0  0  0  0  0
   10.2495    8.2469   -9.1269 C   0  0  0  0  0  0  0  0  0  0  0  0
   11.3163    8.9747   -8.6675 C   0  0  0  0  0  0  0  0  0  0  0  0
   11.6921    8.9300   -7.3200 C   0  0  0  0  0  0  0  0  0  0  0  0
   12.8684    9.7502   -6.8822 C   0  0  0  0  0  0  0  0  0  0  0  0
   11.8692    9.7066   -9.8250 C   0  0  0  0  0  0  0  0  0  0  0  0
   11.0794    9.3611  -10.9262 O   0  0  0  0  0  0  0  0  0  0  0  0
   10.0906    8.4819  -10.5473 C   0  0  0  0  0  0  0  0  0  0  0  0
    9.1907    7.9484  -11.2521 O   0  0  0  0  0  0  0  0  0  0  0  0
    9.3054    6.7775   -6.2855 H   0  0  0  0  0  0  0  0  0  0  0  0
    8.6778    6.8697   -8.6042 H   0  0  0  0  0  0  0  0  0  0  0  0
   12.5563   10.5635   -6.1740 H   0  0  0  0  0  0  0  0  0  0  0  0
   13.7111    9.1509   -6.5432 H   0  0  0  0  0  0  0  0  0  0  0  0
   13.2530   10.3256   -7.7714 H   0  0  0  0  0  0  0  0  0  0  0  0
   12.9370    9.4543  -10.0041 H   0  0  0  0  0  0  0  0  0  0  0  0
   11.7422   10.8234   -9.7018 H   0  0  0  0  0  0  0  0  0  0  0  0
  1  6  2  0
  2  1  1  0
  3  4  1  0
  3  2  2  0
  4  5  2  0
  5  6  1  0
  1  7  1  0
  2  8  1  0
  5  9  1  0
 10 11  2  0
 11 12  1  0
 12 13  2  0
 13 14  1  0
 14 15  2  0
 15 16  1  0
 14 17  1  0
 17 18  1  0
 18 19  1  0
 19 20  2  0
 15 10  1  0
 19 13  1  0
 11 21  1  0
 12 22  1  0
 16 23  1  0
 16 24  1  0
 16 25  1  0
 17 26  1  0
 17 27  1  0
  3 10  1  0
M  END
>  <Score>  (1) 
-8.56228

$$$$

     RDKit          3D

 22 24  0  0  0  0  0  0  0  0999 V2000
   12.3028    8.1220   -2.3008 C   0  0  0  0  0  0  0  0  0  0  0  0
   12.0211    6.8845   -2.9141 C   0  0  0  0  0  0  0  0  0  0  0  0
   11.5248    6.8960   -4.2237 C   0  0  0  0  0  0  0  0  0  0  0  0
   11.3426    8.1123   -4.8312 N   0  0  0  0  0  0  0  0  0  0  0  0
   11.6236    9.2739   -4.2120 C   0  0  0  0  0  0  0  0  0  0  0  0
   12.1002    9.2824   -2.9562 N   0  0  0  0  0  0  0  0  0  0  0  0
   12.6819    8.0727   -1.2960 H   0  0  0  0  0  0  0  0  0  0  0  0
   12.1875    5.9618   -2.3786 H   0  0  0  0  0  0  0  0  0  0  0  0
   11.2939    5.9721   -4.7357 H   0  0  0  0  0  0  0  0  0  0  0  0
   11.3997   10.5424   -4.9348 C   0  0  0  0  0  0  0  0  0  0  0  0
   11.3564   11.7666   -4.3814 N   0  0  0  0  0  0  0  0  0  0  0  0
   11.1342   12.6460   -5.3670 C   0  0  0  0  0  0  0  0  0  0  0  0
   10.9978   14.0244   -5.3778 C   0  0  0  0  0  0  0  0  0  0  0  0
   10.7684   14.7119   -6.5522 C   0  0  0  0  0  0  0  0  0  0  0  0
   10.6730   14.0086   -7.7402 C   0  0  0  0  0  0  0  0  0  0  0  0
   10.8109   12.6275   -7.7204 C   0  0  0  0  0  0  0  0  0  0  0  0
   11.0415   11.9309   -6.5446 C   0  0  0  0  0  0  0  0  0  0  0  0
   11.2085   10.6867   -6.2165 O   0  0  0  0  0  0  0  0  0  0  0  0
   11.0789   14.5320   -4.4321 H   0  0  0  0  0  0  0  0  0  0  0  0
   10.6649   15.7960   -6.5332 H   0  0  0  0  0  0  0  0  0  0  0  0
   10.4951   14.5371   -8.6541 H   0  0  0  0  0  0  0  0  0  0  0  0
   10.7371   12.0837   -8.6396 H   0  0  0  0  0  0  0  0  0  0  0  0
  2  1  2  0
  3  2  1  0
  4  3  2  0
  4  5  1  0
  5  6  2  0
  6  1  1  0
  1  7  1  0
  2  8  1  0
  3  9  1  0
 10 11  2  0
 11 12  1  0
 12 13  2  0
 13 14  1  0
 14 15  2  0
 15 16  1  0
 16 17  2  0
 17 18  1  0
 18 10  1  0
 17 12  1  0
 13 19  1  0
 14 20  1  0
 15 21  1  0
 16 22  1  0
  5 10  1  0
M  END
>  <Score>  (1) 
-7.73013

$$$$

     RDKit          3D

 26 28  0  0  0  0  0  0  0  0999 V2000
   11.8123    6.9315   -2.9656 C   0  0  0  0  0  0  0  0  0  0  0  0
   11.4348    6.8882   -4.3314 C   0  0  0  0  0  0  0  0  0  0  0  0
   11.3603    8.0842   -5.0266 C   0  0  0  0  0  0  0  0  0  0  0  0
   11.6535    9.2421   -4.3629 N   0  0  0  0  0  0  0  0  0  0  0  0
   12.0122    9.2512   -3.0538 C   0  0  0  0  0  0  0  0  0  0  0  0
   12.0890    8.0988   -2.3657 N   0  0  0  0  0  0  0  0  0  0  0  0
   11.8748    6.0073   -2.4104 H   0  0  0  0  0  0  0  0  0  0  0  0
   11.2099    5.9840   -4.8347 H   0  0  0  0  0  0  0  0  0  0  0  0
   12.2406   10.1923   -2.5505 H   0  0  0  0  0  0  0  0  0  0  0  0
    7.0793    6.4465  -11.3751 H   0  0  0  0  0  0  0  0  0  0  0  0
    7.8945    7.1301  -11.5289 C   0  0  0  0  0  0  0  0  0  0  0  0
    8.0673    7.5816  -12.6857 O   0  0  0  0  0  0  0  0  0  0  0  0
    8.7458    7.4955  -10.4124 C   0  0  0  0  0  0  0  0  0  0  0  0
    8.6214    7.0467   -9.1261 C   0  0  0  0  0  0  0  0  0  0  0  0
    9.5967    7.5933   -8.3161 C   0  0  0  0  0  0  0  0  0  0  0  0
    9.9351    7.4964   -6.9840 C   0  0  0  0  0  0  0  0  0  0  0  0
   10.9843    8.1720   -6.4333 C   0  0  0  0  0  0  0  0  0  0  0  0
   11.7121    8.9778   -7.2874 C   0  0  0  0  0  0  0  0  0  0  0  0
   11.3883    9.0851   -8.6154 C   0  0  0  0  0  0  0  0  0  0  0  0
   10.3364    8.4081   -9.1686 C   0  0  0  0  0  0  0  0  0  0  0  0
    9.8095    8.3284  -10.3968 N   0  0  0  0  0  0  0  0  0  0  0  0
    7.8632    6.3542   -8.7748 H   0  0  0  0  0  0  0  0  0  0  0  0
    9.3358    6.8545   -6.3600 H   0  0  0  0  0  0  0  0  0  0  0  0
   12.5486    9.5258   -6.8825 H   0  0  0  0  0  0  0  0  0  0  0  0
   11.9917    9.7330   -9.2496 H   0  0  0  0  0  0  0  0  0  0  0  0
   10.1346    8.8181  -11.2535 H   0  0  0  0  0  0  0  0  0  0  0  0
  1  6  2  0
  2  1  1  0
  3  4  1  0
  3  2  2  0
  4  5  2  0
  5  6  1  0
  1  7  1  0
  2  8  1  0
  5  9  1  0
 10 11  1  0
 11 12  2  0
 11 13  1  0
 13 14  2  0
 14 15  1  0
 15 16  2  0
 16 17  1  0
 17 18  2  0
 18 19  1  0
 19 20  2  0
 20 21  1  0
 21 13  1  0
 20 15  1  0
 14 22  1  0
 16 23  1  0
 18 24  1  0
 19 25  1  0
 21 26  1  0
  3 17  1  0
M  END
>  <Score>  (1) 
-8.50555

$$$$

     RDKit          3D

 31 32  0  0  0  0  0  0  0  0999 V2000
   11.8119    6.9304   -2.9667 C   0  0  0  0  0  0  0  0  0  0  0  0
   11.4351    6.8797   -4.3273 C   0  0  0  0  0  0  0  0  0  0  0  0
   11.3602    8.0898   -5.0291 C   0  0  0  0  0  0  0  0  0  0  0  0
   11.6546    9.2443   -4.3597 N   0  0  0  0  0  0  0  0  0  0  0  0
   12.0115    9.2535   -3.0569 C   0  0  0  0  0  0  0  0  0  0  0  0
   12.0887    8.0983   -2.3663 N   0  0  0  0  0  0  0  0  0  0  0  0
   11.8710    5.9992   -2.4215 H   0  0  0  0  0  0  0  0  0  0  0  0
   11.2109    5.9808   -4.8300 H   0  0  0  0  0  0  0  0  0  0  0  0
   12.2450   10.1632   -2.5243 H   0  0  0  0  0  0  0  0  0  0  0  0
   10.9880    8.1998   -6.4296 C   0  0  2  0  0  0  0  0  0  0  0  0
   11.3997    7.0089   -7.0731 O   0  0  0  0  0  0  0  0  0  0  0  0
   10.4796    6.8086   -8.0980 C   0  0  2  0  0  0  0  0  0  0  0  0
   10.8592    5.6095   -8.9262 C   0  0  0  0  0  0  0  0  0  0  0  0
    9.9938    5.3555   -9.9547 O   0  0  0  0  0  0  0  0  0  0  0  0
   10.2906    8.0519   -8.8893 C   0  0  2  0  0  0  0  0  0  0  0  0
   10.2050    7.8488  -10.2544 O   0  0  0  0  0  0  0  0  0  0  0  0
   11.4112    9.0693   -8.6539 C   0  0  2  0  0  0  0  0  0  0  0  0
   12.5918    8.6290   -9.2310 O   0  0  0  0  0  0  0  0  0  0  0  0
   11.5933    9.3360   -7.1659 C   0  0  1  0  0  0  0  0  0  0  0  0
   11.0244   10.5671   -6.9020 O   0  0  0  0  0  0  0  0  0  0  0  0
    9.8723    8.3056   -6.4933 H   0  0  0  0  0  0  0  0  0  0  0  0
    9.5102    6.5447   -7.5819 H   0  0  0  0  0  0  0  0  0  0  0  0
   10.9288    4.6958   -8.3027 H   0  0  0  0  0  0  0  0  0  0  0  0
   11.8700    5.7895   -9.3469 H   0  0  0  0  0  0  0  0  0  0  0  0
   10.3624    5.4957  -10.8559 H   0  0  0  0  0  0  0  0  0  0  0  0
    9.3582    8.5694   -8.5622 H   0  0  0  0  0  0  0  0  0  0  0  0
    9.2868    7.9302  -10.5671 H   0  0  0  0  0  0  0  0  0  0  0  0
   11.0865    9.9874   -9.1961 H   0  0  0  0  0  0  0  0  0  0  0  0
   12.4150    8.1573  -10.0725 H   0  0  0  0  0  0  0  0  0  0  0  0
   12.6920    9.4115   -6.9970 H   0  0  0  0  0  0  0  0  0  0  0  0
   10.3418   10.5676   -6.2117 H   0  0  0  0  0  0  0  0  0  0  0  0
  1  6  2  0
  2  1  1  0
  3  4  1  0
  3  2  2  0
  4  5  2  0
  5  6  1  0
  1  7  1  0
  2  8  1  0
  5  9  1  0
 10 11  1  0
 11 12  1  0
 12 13  1  0
 13 14  1  0
 12 15  1  0
 15 16  1  0
 15 17  1  0
 17 18  1  0
 17 19  1  0
 19 20  1  0
 19 10  1  0
 10 21  1  1
 12 22  1  1
 13 23  1  0
 13 24  1  0
 14 25  1  0
 15 26  1  1
 16 27  1  0
 17 28  1  6
 18 29  1  0
 19 30  1  6
 20 31  1  0
  3 10  1  0
M  END
>  <Score>  (1) 
-8.49022

$$$$

     RDKit          3D

 24 26  0  0  0  0  0  0  0  0999 V2000
   11.8116    6.9285   -2.9672 C   0  0  0  0  0  0  0  0  0  0  0  0
   11.4350    6.8828   -4.3287 C   0  0  0  0  0  0  0  0  0  0  0  0
   11.3609    8.0903   -5.0265 C   0  0  0  0  0  0  0  0  0  0  0  0
   11.6529    9.2410   -4.3645 N   0  0  0  0  0  0  0  0  0  0  0  0
   12.0125    9.2524   -3.0529 C   0  0  0  0  0  0  0  0  0  0  0  0
   12.0891    8.1011   -2.3662 N   0  0  0  0  0  0  0  0  0  0  0  0
   11.8846    6.0249   -2.3808 H   0  0  0  0  0  0  0  0  0  0  0  0
   11.2181    5.9310   -4.7860 H   0  0  0  0  0  0  0  0  0  0  0  0
   12.2427   10.1794   -2.5382 H   0  0  0  0  0  0  0  0  0  0  0  0
   10.9769    8.0940   -6.4328 C   0  0  0  0  0  0  0  0  0  0  0  0
   10.3186    9.1756   -6.9599 C   0  0  0  0  0  0  0  0  0  0  0  0
    9.9818    9.1419   -8.2577 N   0  0  0  0  0  0  0  0  0  0  0  0
   10.2888    8.0573   -9.0285 C   0  0  0  0  0  0  0  0  0  0  0  0
    9.9190    8.0737  -10.3605 C   0  0  0  0  0  0  0  0  0  0  0  0
   10.2188    6.9984  -11.1411 C   0  0  0  0  0  0  0  0  0  0  0  0
   10.8831    5.8982  -10.6246 C   0  0  0  0  0  0  0  0  0  0  0  0
   11.2482    5.8909   -9.2941 C   0  0  0  0  0  0  0  0  0  0  0  0
   10.9473    6.9737   -8.5040 C   0  0  0  0  0  0  0  0  0  0  0  0
   11.2701    7.0390   -7.2023 N   0  0  0  0  0  0  0  0  0  0  0  0
   10.0700   10.0546   -6.3345 H   0  0  0  0  0  0  0  0  0  0  0  0
    9.3915    8.9549  -10.7573 H   0  0  0  0  0  0  0  0  0  0  0  0
    9.9217    7.0186  -12.1991 H   0  0  0  0  0  0  0  0  0  0  0  0
   11.1114    5.0550  -11.2615 H   0  0  0  0  0  0  0  0  0  0  0  0
   11.7748    5.0217   -8.8790 H   0  0  0  0  0  0  0  0  0  0  0  0
  1  6  2  0
  2  1  1  0
  3  4  1  0
  3  2  2  0
  4  5  2  0
  5  6  1  0
  1  7  1  0
  2  8  1  0
  5  9  1  0
 10 11  2  0
 11 12  1  0
 12 13  2  0
 13 14  1  0
 14 15  2  0
 15 16  1  0
 16 17  2  0
 17 18  1  0
 18 19  2  0
 19 10  1  0
 18 13  1  0
 11 20  1  0
 14 21  1  0
 15 22  1  0
 16 23  1  0
 17 24  1  0
  3 10  1  0
M  END
>  <Score>  (1) 
-8.48984

$$$$

     RDKit          3D

 29 31  0  0  0  0  0  0  0  0999 V2000
   11.8107    6.9293   -2.9705 C   0  0  0  0  0  0  0  0  0  0  0  0
   11.4361    6.8789   -4.3236 C   0  0  0  0  0  0  0  0  0  0  0  0
   11.3599    8.0902   -5.0300 C   0  0  0  0  0  0  0  0  0  0  0  0
   11.6546    9.2449   -4.3597 N   0  0  0  0  0  0  0  0  0  0  0  0
   12.0117    9.2527   -3.0561 C   0  0  0  0  0  0  0  0  0  0  0  0
   12.0890    8.1000   -2.3661 N   0  0  0  0  0  0  0  0  0  0  0  0
   11.8766    6.0105   -2.4049 H   0  0  0  0  0  0  0  0  0  0  0  0
   11.2182    5.9408   -4.7897 H   0  0  0  0  0  0  0  0  0  0  0  0
   12.2368   10.1771   -2.5592 H   0  0  0  0  0  0  0  0  0  0  0  0
   10.9898    8.1119   -6.3918 N   0  0  0  0  0  0  0  0  0  0  0  0
   10.9413    6.9352   -7.2369 C   0  0  0  0  0  0  0  0  0  0  0  0
   10.5069    7.4406   -8.5653 C   0  0  0  0  0  0  0  0  0  0  0  0
   10.2846    6.7891   -9.7596 C   0  0  0  0  0  0  0  0  0  0  0  0
    9.8769    7.4492  -10.9015 C   0  0  0  0  0  0  0  0  0  0  0  0
    9.6917    8.8271  -10.8104 C   0  0  0  0  0  0  0  0  0  0  0  0
    9.2862    9.4857  -11.9449 O   0  0  0  0  0  0  0  0  0  0  0  0
    9.0490   10.8577  -12.0505 C   0  0  0  0  0  0  0  0  0  0  0  0
    9.9122    9.4850   -9.6190 C   0  0  0  0  0  0  0  0  0  0  0  0
   10.3167    8.8255   -8.4886 C   0  0  0  0  0  0  0  0  0  0  0  0
   10.6149    9.2663   -7.1316 C   0  0  0  0  0  0  0  0  0  0  0  0
   10.5688   10.4228   -6.6486 O   0  0  0  0  0  0  0  0  0  0  0  0
   11.9515    6.4754   -7.3204 H   0  0  0  0  0  0  0  0  0  0  0  0
   10.2079    6.2073   -6.8149 H   0  0  0  0  0  0  0  0  0  0  0  0
   10.4263    5.7195   -9.8383 H   0  0  0  0  0  0  0  0  0  0  0  0
    9.7084    6.9141  -11.8302 H   0  0  0  0  0  0  0  0  0  0  0  0
    7.9998   11.1272  -11.8090 H   0  0  0  0  0  0  0  0  0  0  0  0
    9.2258   11.2158  -13.0938 H   0  0  0  0  0  0  0  0  0  0  0  0
    9.7833   11.3898  -11.4097 H   0  0  0  0  0  0  0  0  0  0  0  0
    9.7706   10.5609   -9.5366 H   0  0  0  0  0  0  0  0  0  0  0  0
  1  6  2  0
  2  1  1  0
  3  4  1  0
  3  2  2  0
  4  5  2  0
  5  6  1  0
  1  7  1  0
  2  8  1  0
  5  9  1  0
 10 11  1  0
 11 12  1  0
 12 13  2  0
 13 14  1  0
 14 15  2  0
 15 16  1  0
 16 17  1  0
 15 18  1  0
 18 19  2  0
 19 20  1  0
 20 21  2  0
 20 10  1  0
 19 12  1  0
 11 22  1  0
 11 23  1  0
 13 24  1  0
 14 25  1  0
 17 26  1  0
 17 27  1  0
 17 28  1  0
 18 29  1  0
  3 10  1  0
M  END
>  <Score>  (1) 
-8.48566

$$$$

     RDKit          3D

 26 28  0  0  0  0  0  0  0  0999 V2000
   11.8129    6.9318   -2.9636 C   0  0  0  0  0  0  0  0  0  0  0  0
   11.4350    6.8848   -4.3297 C   0  0  0  0  0  0  0  0  0  0  0  0
   11.3612    8.0885   -5.0248 C   0  0  0  0  0  0  0  0  0  0  0  0
   11.6534    9.2432   -4.3637 N   0  0  0  0  0  0  0  0  0  0  0  0
   12.0118    9.2516   -3.0554 C   0  0  0  0  0  0  0  0  0  0  0  0
   12.0879    8.0961   -2.3688 N   0  0  0  0  0  0  0  0  0  0  0  0
   11.8723    5.9958   -2.4153 H   0  0  0  0  0  0  0  0  0  0  0  0
   11.2140    5.9406   -4.8047 H   0  0  0  0  0  0  0  0  0  0  0  0
   12.2442   10.1543   -2.5237 H   0  0  0  0  0  0  0  0  0  0  0  0
   10.9843    8.1084   -6.4110 N   0  0  0  0  0  0  0  0  0  0  0  0
   10.9270    9.3717   -7.0671 C   0  0  0  0  0  0  0  0  0  0  0  0
   11.2267   10.4852   -6.3643 N   0  0  0  0  0  0  0  0  0  0  0  0
   11.1806   11.6824   -6.9562 C   0  0  0  0  0  0  0  0  0  0  0  0
   11.4181   12.6119   -6.4159 H   0  0  0  0  0  0  0  0  0  0  0  0
   10.8363   11.7764   -8.2491 N   0  0  0  0  0  0  0  0  0  0  0  0
   10.5367   10.7055   -8.9669 C   0  0  0  0  0  0  0  0  0  0  0  0
   10.1780   10.7833  -10.3067 C   0  0  0  0  0  0  0  0  0  0  0  0
    9.8707    9.6610  -11.0347 C   0  0  0  0  0  0  0  0  0  0  0  0
    9.9128    8.4182  -10.4407 C   0  0  0  0  0  0  0  0  0  0  0  0
   10.2624    8.3157   -9.1256 C   0  0  0  0  0  0  0  0  0  0  0  0
   10.5703    9.4310   -8.3930 C   0  0  0  0  0  0  0  0  0  0  0  0
   10.7843    7.2071   -6.8240 H   0  0  0  0  0  0  0  0  0  0  0  0
   10.1596   11.7904  -10.7301 H   0  0  0  0  0  0  0  0  0  0  0  0
    9.5918    9.7704  -12.0935 H   0  0  0  0  0  0  0  0  0  0  0  0
    9.6690    7.5680  -11.0323 H   0  0  0  0  0  0  0  0  0  0  0  0
   10.2886    7.3403   -8.6848 H   0  0  0  0  0  0  0  0  0  0  0  0
  1  6  2  0
  2  1  1  0
  3  4  1  0
  3  2  2  0
  4  5  2  0
  5  6  1  0
  1  7  1  0
  2  8  1  0
  5  9  1  0
 10 11  1  0
 11 12  2  0
 12 13  1  0
 13 14  1  0
 13 15  2  0
 15 16  1  0
 16 17  2  0
 17 18  1  0
 18 19  2  0
 19 20  1  0
 20 21  2  0
 21 11  1  0
 21 16  1  0
 10 22  1  0
 17 23  1  0
 18 24  1  0
 19 25  1  0
 20 26  1  0
  3 10  1  0
M  END
>  <Score>  (1) 
-8.4789

$$$$

     RDKit          3D

 26 27  0  0  0  0  0  0  0  0999 V2000
   11.8126    6.9301   -2.9640 C   0  0  0  0  0  0  0  0  0  0  0  0
   11.4343    6.8864   -4.3328 C   0  0  0  0  0  0  0  0  0  0  0  0
   11.3603    8.0834   -5.0264 C   0  0  0  0  0  0  0  0  0  0  0  0
   11.6545    9.2444   -4.3600 N   0  0  0  0  0  0  0  0  0  0  0  0
   12.0116    9.2545   -3.0570 C   0  0  0  0  0  0  0  0  0  0  0  0
   12.0888    8.0971   -2.3658 N   0  0  0  0  0  0  0  0  0  0  0  0
   11.8625    5.9820   -2.4464 H   0  0  0  0  0  0  0  0  0  0  0  0
   11.2200    5.9299   -4.7788 H   0  0  0  0  0  0  0  0  0  0  0  0
   12.2432   10.1674   -2.5320 H   0  0  0  0  0  0  0  0  0  0  0  0
   10.9858    8.1345   -6.4144 C   0  0  0  0  0  0  0  0  0  0  0  0
   10.9070    9.3001   -7.1141 C   0  0  0  0  0  0  0  0  0  0  0  0
   10.5403    9.3118   -8.4592 C   0  0  0  0  0  0  0  0  0  0  0  0
   10.2467    8.1373   -9.1181 C   0  0  0  0  0  0  0  0  0  0  0  0
    9.8669    8.1745  -10.5204 C   0  0  0  0  0  0  0  0  0  0  0  0
   10.3166    6.9556   -8.4451 C   0  0  0  0  0  0  0  0  0  0  0  0
   10.0087    5.7077   -9.1299 C   0  0  0  0  0  0  0  0  0  0  0  0
   10.6807    6.9616   -7.1157 C   0  0  0  0  0  0  0  0  0  0  0  0
   11.1256   10.2628   -6.6551 H   0  0  0  0  0  0  0  0  0  0  0  0
   10.4986   10.2723   -8.9515 H   0  0  0  0  0  0  0  0  0  0  0  0
    9.2795    7.3347  -10.8831 H   0  0  0  0  0  0  0  0  0  0  0  0
   10.7786    8.3418  -11.1581 H   0  0  0  0  0  0  0  0  0  0  0  0
    9.2536    9.1077  -10.6813 H   0  0  0  0  0  0  0  0  0  0  0  0
   10.6174    4.8925   -8.6405 H   0  0  0  0  0  0  0  0  0  0  0  0
    8.9430    5.4033   -8.9149 H   0  0  0  0  0  0  0  0  0  0  0  0
   10.2572    5.6760  -10.1910 H   0  0  0  0  0  0  0  0  0  0  0  0
   10.7383    6.0257   -6.5742 H   0  0  0  0  0  0  0  0  0  0  0  0
  1  6  2  0
  2  1  1  0
  3  4  1  0
  3  2  2  0
  4  5  2  0
  5  6  1  0
  1  7  1  0
  2  8  1  0
  5  9  1  0
 10 11  2  0
 11 12  1  0
 12 13  2  0
 13 14  1  0
 13 15  1  0
 15 16  1  0
 15 17  2  0
 17 10  1  0
 11 18  1  0
 12 19  1  0
 14 20  1  0
 14 21  1  0
 14 22  1  0
 16 23  1  0
 16 24  1  0
 16 25  1  0
 17 26  1  0
  3 10  1  0
M  END
>  <Score>  (1) 
-8.41411

$$$$

     RDKit          3D

 26 28  0  0  0  0  0  0  0  0999 V2000
   11.8122    6.9286   -2.9650 C   0  0  0  0  0  0  0  0  0  0  0  0
   11.4349    6.8863   -4.3305 C   0  0  0  0  0  0  0  0  0  0  0  0
   11.3597    8.0865   -5.0296 C   0  0  0  0  0  0  0  0  0  0  0  0
   11.6549    9.2416   -4.3577 N   0  0  0  0  0  0  0  0  0  0  0  0
   12.0112    9.2523   -3.0577 C   0  0  0  0  0  0  0  0  0  0  0  0
   12.0892    8.1007   -2.3655 N   0  0  0  0  0  0  0  0  0  0  0  0
   11.8752    6.0113   -2.4104 H   0  0  0  0  0  0  0  0  0  0  0  0
   11.2222    5.9527   -4.7788 H   0  0  0  0  0  0  0  0  0  0  0  0
   12.2365   10.1735   -2.5590 H   0  0  0  0  0  0  0  0  0  0  0  0
   10.9811    8.1342   -6.4317 C   0  0  0  0  0  0  0  0  0  0  0  0
    9.6932    7.9646   -6.8448 C   0  0  0  0  0  0  0  0  0  0  0  0
    9.3842    8.0197   -8.2015 C   0  0  0  0  0  0  0  0  0  0  0  0
   10.3802    8.2472   -9.1464 C   0  0  0  0  0  0  0  0  0  0  0  0
   11.6755    8.4182   -8.7368 C   0  0  0  0  0  0  0  0  0  0  0  0
   11.9529    8.3586   -7.3850 C   0  0  0  0  0  0  0  0  0  0  0  0
   12.6494    8.6438   -9.7009 O   0  0  0  0  0  0  0  0  0  0  0  0
   12.3561    8.1949  -11.0271 C   0  0  0  0  0  0  0  0  0  0  0  0
   11.0154    8.8515  -11.3800 C   0  0  0  0  0  0  0  0  0  0  0  0
   10.0491    8.2992  -10.5082 O   0  0  0  0  0  0  0  0  0  0  0  0
    8.8864    7.7880   -6.1805 H   0  0  0  0  0  0  0  0  0  0  0  0
    8.3663    7.8850   -8.5198 H   0  0  0  0  0  0  0  0  0  0  0  0
   13.0045    8.5023   -7.1163 H   0  0  0  0  0  0  0  0  0  0  0  0
   12.1689    7.0962  -10.9853 H   0  0  0  0  0  0  0  0  0  0  0  0
   13.1405    8.4381  -11.7420 H   0  0  0  0  0  0  0  0  0  0  0  0
   11.1273    9.9434  -11.1603 H   0  0  0  0  0  0  0  0  0  0  0  0
   10.7713    8.6556  -12.4422 H   0  0  0  0  0  0  0  0  0  0  0  0
  1  6  2  0
  2  1  1  0
  3  4  1  0
  3  2  2  0
  4  5  2  0
  5  6  1  0
  1  7  1  0
  2  8  1  0
  5  9  1  0
 10 11  2  0
 11 12  1  0
 12 13  2  0
 13 14  1  0
 14 15  2  0
 14 16  1  0
 16 17  1  0
 17 18  1  0
 18 19  1  0
 15 10  1  0
 19 13  1  0
 11 20  1  0
 12 21  1  0
 15 22  1  0
 17 23  1  0
 17 24  1  0
 18 25  1  0
 18 26  1  0
  3 10  1  0
M  END
>  <Score>  (1) 
-8.40078

$$$$

     RDKit          3D

 24 26  0  0  0  0  0  0  0  0999 V2000
   11.8128    6.9316   -2.9636 C   0  0  0  0  0  0  0  0  0  0  0  0
   11.4343    6.8843   -4.3320 C   0  0  0  0  0  0  0  0  0  0  0  0
   11.3611    8.0896   -5.0257 C   0  0  0  0  0  0  0  0  0  0  0  0
   11.6545    9.2411   -4.3589 N   0  0  0  0  0  0  0  0  0  0  0  0
   12.0103    9.2516   -3.0607 C   0  0  0  0  0  0  0  0  0  0  0  0
   12.0890    8.0978   -2.3650 N   0  0  0  0  0  0  0  0  0  0  0  0
   11.8740    6.0076   -2.4135 H   0  0  0  0  0  0  0  0  0  0  0  0
   11.2235    5.9435   -4.7707 H   0  0  0  0  0  0  0  0  0  0  0  0
   12.2439   10.1619   -2.5276 H   0  0  0  0  0  0  0  0  0  0  0  0
   10.9793    8.1189   -6.4330 C   0  0  0  0  0  0  0  0  0  0  0  0
   10.3182    9.2470   -6.9130 C   0  0  0  0  0  0  0  0  0  0  0  0
    9.9191    9.3623   -8.2299 C   0  0  0  0  0  0  0  0  0  0  0  0
   10.1994    8.3021   -9.0832 C   0  0  0  0  0  0  0  0  0  0  0  0
    9.9361    8.1350  -10.3937 N   0  0  0  0  0  0  0  0  0  0  0  0
   10.3932    6.9417  -10.8117 C   0  0  0  0  0  0  0  0  0  0  0  0
   10.9729    6.3183   -9.7269 C   0  0  0  0  0  0  0  0  0  0  0  0
   10.8429    7.1791   -8.6611 C   0  0  0  0  0  0  0  0  0  0  0  0
   11.2239    7.1135   -7.3227 C   0  0  0  0  0  0  0  0  0  0  0  0
   10.1232   10.0391   -6.2206 H   0  0  0  0  0  0  0  0  0  0  0  0
    9.4014   10.2471   -8.6034 H   0  0  0  0  0  0  0  0  0  0  0  0
    9.4378    8.8678  -10.9686 H   0  0  0  0  0  0  0  0  0  0  0  0
   10.3253    6.5342  -11.8119 H   0  0  0  0  0  0  0  0  0  0  0  0
   11.4428    5.3489   -9.6903 H   0  0  0  0  0  0  0  0  0  0  0  0
   11.7311    6.2273   -6.9925 H   0  0  0  0  0  0  0  0  0  0  0  0
  1  6  2  0
  2  1  1  0
  3  4  1  0
  3  2  2  0
  4  5  2  0
  5  6  1  0
  1  7  1  0
  2  8  1  0
  5  9  1  0
 10 11  2  0
 11 12  1  0
 12 13  2  0
 13 14  1  0
 14 15  1  0
 15 16  2  0
 16 17  1  0
 17 18  2  0
 18 10  1  0
 17 13  1  0
 11 19  1  0
 12 20  1  0
 14 21  1  0
 15 22  1  0
 16 23  1  0
 18 24  1  0
  3 10  1  0
M  END
>  <Score>  (1) 
-8.34022

$$$$

     RDKit          3D

 29 31  0  0  0  0  0  0  0  0999 V2000
   11.8127    6.9298   -2.9637 C   0  0  0  0  0  0  0  0  0  0  0  0
   11.4341    6.8846   -4.3327 C   0  0  0  0  0  0  0  0  0  0  0  0
   11.3620    8.0923   -5.0232 C   0  0  0  0  0  0  0  0  0  0  0  0
   11.6525    9.2374   -4.3648 N   0  0  0  0  0  0  0  0  0  0  0  0
   12.0117    9.2544   -3.0567 C   0  0  0  0  0  0  0  0  0  0  0  0
   12.0890    8.0976   -2.3650 N   0  0  0  0  0  0  0  0  0  0  0  0
   11.8628    5.9862   -2.4470 H   0  0  0  0  0  0  0  0  0  0  0  0
   11.2141    5.9352   -4.8022 H   0  0  0  0  0  0  0  0  0  0  0  0
   12.2385   10.1867   -2.5561 H   0  0  0  0  0  0  0  0  0  0  0  0
   10.9728    8.0732   -6.4403 C   0  0  0  0  0  0  0  0  0  0  0  0
    9.9231    7.3082   -6.8195 N   0  0  0  0  0  0  0  0  0  0  0  0
    9.4852    7.2117   -8.0529 N   0  0  0  0  0  0  0  0  0  0  0  0
   10.0748    7.8904   -9.0436 C   0  0  0  0  0  0  0  0  0  0  0  0
    9.6496    7.7967  -10.2416 O   0  0  0  0  0  0  0  0  0  0  0  0
   11.1492    8.6847   -8.7105 C   0  0  0  0  0  0  0  0  0  0  0  0
   11.6078    8.7848   -7.4141 C   0  0  0  0  0  0  0  0  0  0  0  0
   12.7722    9.6427   -7.0373 C   0  0  0  0  0  0  0  0  0  0  0  0
   13.3395   10.4160   -8.1903 C   0  0  0  0  0  0  0  0  0  0  0  0
   12.2452   10.7667   -9.1936 C   0  0  0  0  0  0  0  0  0  0  0  0
   11.8134    9.4404   -9.7840 C   0  0  0  0  0  0  0  0  0  0  0  0
    8.6671    6.6073   -8.3084 H   0  0  0  0  0  0  0  0  0  0  0  0
   13.5883    9.0568   -6.5969 H   0  0  0  0  0  0  0  0  0  0  0  0
   12.3595   10.4120   -6.3229 H   0  0  0  0  0  0  0  0  0  0  0  0
   14.1205    9.8679   -8.7538 H   0  0  0  0  0  0  0  0  0  0  0  0
   13.8068   11.3612   -7.8042 H   0  0  0  0  0  0  0  0  0  0  0  0
   11.4143   11.2059   -8.6162 H   0  0  0  0  0  0  0  0  0  0  0  0
   12.6575   11.4502   -9.9583 H   0  0  0  0  0  0  0  0  0  0  0  0
   11.1869    9.5547  -10.6869 H   0  0  0  0  0  0  0  0  0  0  0  0
   12.7347    8.8690  -10.0610 H   0  0  0  0  0  0  0  0  0  0  0  0
  1  6  2  0
  2  1  1  0
  3  4  1  0
  3  2  2  0
  4  5  2  0
  5  6  1  0
  1  7  1  0
  2  8  1  0
  5  9  1  0
 10 11  2  0
 11 12  1  0
 12 13  1  0
 13 14  2  0
 13 15  1  0
 15 16  2  0
 16 17  1  0
 17 18  1  0
 18 19  1  0
 19 20  1  0
 16 10  1  0
 20 15  1  0
 12 21  1  0
 17 22  1  0
 17 23  1  0
 18 24  1  0
 18 25  1  0
 19 26  1  0
 19 27  1  0
 20 28  1  0
 20 29  1  0
  3 10  1  0
M  END
>  <Score>  (1) 
-8.32678

$$$$

     RDKit          3D

 26 28  0  0  0  0  0  0  0  0999 V2000
   11.8116    6.9291   -2.9673 C   0  0  0  0  0  0  0  0  0  0  0  0
   11.4352    6.8795   -4.3268 C   0  0  0  0  0  0  0  0  0  0  0  0
   11.3610    8.0941   -5.0275 C   0  0  0  0  0  0  0  0  0  0  0  0
   11.6527    9.2404   -4.3652 N   0  0  0  0  0  0  0  0  0  0  0  0
   12.0126    9.2519   -3.0526 C   0  0  0  0  0  0  0  0  0  0  0  0
   12.0889    8.1011   -2.3667 N   0  0  0  0  0  0  0  0  0  0  0  0
   11.8848    6.0236   -2.3795 H   0  0  0  0  0  0  0  0  0  0  0  0
   11.2155    5.9563   -4.8047 H   0  0  0  0  0  0  0  0  0  0  0  0
   12.2261   10.2141   -2.6113 H   0  0  0  0  0  0  0  0  0  0  0  0
   10.9775    8.0973   -6.4320 C   0  0  0  0  0  0  0  0  0  0  0  0
   10.6607    7.0007   -7.2036 C   0  0  0  0  0  0  0  0  0  0  0  0
   10.3546    7.4379   -8.4767 C   0  0  0  0  0  0  0  0  0  0  0  0
   10.4820    8.7922   -8.4913 C   0  0  0  0  0  0  0  0  0  0  0  0
   10.8646    9.1626   -7.2215 N   0  0  0  0  0  0  0  0  0  0  0  0
   10.2385    9.5738   -9.7184 C   0  0  0  0  0  0  0  0  0  0  0  0
    9.2510    8.8539  -10.5941 C   0  0  0  0  0  0  0  0  0  0  0  0
    9.6673    7.4819  -10.8789 N   0  0  0  0  0  0  0  0  0  0  0  0
    9.9416    6.7241   -9.6749 C   0  0  0  0  0  0  0  0  0  0  0  0
    9.8349    5.4795   -9.6332 O   0  0  0  0  0  0  0  0  0  0  0  0
   10.6396    5.9637   -6.9151 H   0  0  0  0  0  0  0  0  0  0  0  0
   11.0381   10.1483   -6.9341 H   0  0  0  0  0  0  0  0  0  0  0  0
    9.7384   10.5190   -9.3941 H   0  0  0  0  0  0  0  0  0  0  0  0
   11.1774    9.7953  -10.2753 H   0  0  0  0  0  0  0  0  0  0  0  0
    8.2711    8.8467  -10.0619 H   0  0  0  0  0  0  0  0  0  0  0  0
    9.0987    9.4148  -11.5399 H   0  0  0  0  0  0  0  0  0  0  0  0
    9.7689    7.0556  -11.7915 H   0  0  0  0  0  0  0  0  0  0  0  0
  1  6  2  0
  2  1  1  0
  3  4  1  0
  3  2  2  0
  4  5  2  0
  5  6  1  0
  1  7  1  0
  2  8  1  0
  5  9  1  0
 10 11  2  0
 11 12  1  0
 12 13  2  0
 13 14  1  0
 13 15  1  0
 15 16  1  0
 16 17  1  0
 17 18  1  0
 18 19  2  0
 14 10  1  0
 18 12  1  0
 11 20  1  0
 14 21  1  0
 15 22  1  0
 15 23  1  0
 16 24  1  0
 16 25  1  0
 17 26  1  0
  3 10  1  0
M  END
>  <Score>  (1) 
-8.30742

$$$$

     RDKit          3D

 21 22  0  0  0  0  0  0  0  0999 V2000
   12.3025    8.1208   -2.3013 C   0  0  0  0  0  0  0  0  0  0  0  0
   12.0212    6.8835   -2.9135 C   0  0  0  0  0  0  0  0  0  0  0  0
   11.5250    6.8964   -4.2231 C   0  0  0  0  0  0  0  0  0  0  0  0
   11.3423    8.1116   -4.8319 N   0  0  0  0  0  0  0  0  0  0  0  0
   11.6242    9.2750   -4.2106 C   0  0  0  0  0  0  0  0  0  0  0  0
   12.0997    9.2836   -2.9576 N   0  0  0  0  0  0  0  0  0  0  0  0
   12.6849    8.0885   -1.2899 H   0  0  0  0  0  0  0  0  0  0  0  0
   12.1846    5.9522   -2.3854 H   0  0  0  0  0  0  0  0  0  0  0  0
   11.2956    5.9722   -4.7313 H   0  0  0  0  0  0  0  0  0  0  0  0
   11.4008   10.5246   -4.9301 C   0  0  0  0  0  0  0  0  0  0  0  0
   11.3681   11.7322   -4.3045 C   0  0  0  0  0  0  0  0  0  0  0  0
   11.1569   12.9252   -4.9760 C   0  0  0  0  0  0  0  0  0  0  0  0
   10.9704   12.8738   -6.3563 C   0  0  0  0  0  0  0  0  0  0  0  0
   10.9977   11.6691   -7.0177 C   0  0  0  0  0  0  0  0  0  0  0  0
   10.8100   11.5586   -8.4486 C   0  0  0  0  0  0  0  0  0  0  0  0
   10.6766   11.4857   -9.5745 N   0  0  0  0  0  0  0  0  0  0  0  0
   11.2106   10.5199   -6.3035 C   0  0  0  0  0  0  0  0  0  0  0  0
   11.5115   11.7846   -3.2343 H   0  0  0  0  0  0  0  0  0  0  0  0
   11.1382   13.8705   -4.4369 H   0  0  0  0  0  0  0  0  0  0  0  0
   10.8035   13.7728   -6.9173 H   0  0  0  0  0  0  0  0  0  0  0  0
   11.2313    9.5747   -6.8278 H   0  0  0  0  0  0  0  0  0  0  0  0
  2  1  2  0
  3  2  1  0
  4  3  2  0
  4  5  1  0
  5  6  2  0
  6  1  1  0
  1  7  1  0
  2  8  1  0
  3  9  1  0
 10 11  2  0
 11 12  1  0
 12 13  2  0
 13 14  1  0
 14 15  1  0
 15 16  3  0
 14 17  2  0
 17 10  1  0
 11 18  1  0
 12 19  1  0
 13 20  1  0
 17 21  1  0
  5 10  1  0
M  END
>  <Score>  (1) 
-7.71882

$$$$

     RDKit          3D

 31 32  0  0  0  0  0  0  0  0999 V2000
   11.8114    6.9295   -2.9680 C   0  0  0  0  0  0  0  0  0  0  0  0
   11.4355    6.8786   -4.3255 C   0  0  0  0  0  0  0  0  0  0  0  0
   11.3602    8.0919   -5.0296 C   0  0  0  0  0  0  0  0  0  0  0  0
   11.6542    9.2436   -4.3608 N   0  0  0  0  0  0  0  0  0  0  0  0
   12.0118    9.2525   -3.0557 C   0  0  0  0  0  0  0  0  0  0  0  0
   12.0889    8.0999   -2.3664 N   0  0  0  0  0  0  0  0  0  0  0  0
   11.8733    6.0018   -2.4139 H   0  0  0  0  0  0  0  0  0  0  0  0
   11.2108    5.9698   -4.8265 H   0  0  0  0  0  0  0  0  0  0  0  0
   12.2428   10.1665   -2.5334 H   0  0  0  0  0  0  0  0  0  0  0  0
   10.9709    8.0642   -6.4444 C   0  0  2  0  0  0  0  0  0  0  0  0
   10.7292    6.7401   -6.8610 O   0  0  0  0  0  0  0  0  0  0  0  0
   10.1971    6.7640   -8.1565 C   0  0  2  0  0  0  0  0  0  0  0  0
    9.9682    5.3144   -8.5721 C   0  0  0  0  0  0  0  0  0  0  0  0
    9.4363    5.2470   -9.8587 O   0  0  0  0  0  0  0  0  0  0  0  0
   11.1609    7.3689   -9.1491 C   0  0  1  0  0  0  0  0  0  0  0  0
   10.6236    8.4639   -9.8188 O   0  0  0  0  0  0  0  0  0  0  0  0
   12.4179    7.7540   -8.3808 C   0  0  1  0  0  0  0  0  0  0  0  0
   13.4191    8.2057   -9.2062 O   0  0  0  0  0  0  0  0  0  0  0  0
   12.0111    8.7342   -7.3224 C   0  0  1  0  0  0  0  0  0  0  0  0
   11.5606    9.9321   -7.8431 O   0  0  0  0  0  0  0  0  0  0  0  0
    9.9849    8.5810   -6.5416 H   0  0  0  0  0  0  0  0  0  0  0  0
    9.2395    7.2984   -8.0901 H   0  0  0  0  0  0  0  0  0  0  0  0
   10.9269    4.7571   -8.5869 H   0  0  0  0  0  0  0  0  0  0  0  0
    9.3103    4.7836   -7.8433 H   0  0  0  0  0  0  0  0  0  0  0  0
    8.6145    5.7743   -9.9578 H   0  0  0  0  0  0  0  0  0  0  0  0
   11.4836    6.6495   -9.9273 H   0  0  0  0  0  0  0  0  0  0  0  0
    9.9779    8.9674   -9.2873 H   0  0  0  0  0  0  0  0  0  0  0  0
   12.7472    6.8210   -7.8602 H   0  0  0  0  0  0  0  0  0  0  0  0
   13.9332    7.3938   -9.5131 H   0  0  0  0  0  0  0  0  0  0  0  0
   12.9212    8.9676   -6.7056 H   0  0  0  0  0  0  0  0  0  0  0  0
   11.3308   10.5130   -7.0619 H   0  0  0  0  0  0  0  0  0  0  0  0
  1  6  2  0
  2  1  1  0
  3  4  1  0
  3  2  2  0
  4  5  2  0
  5  6  1  0
  1  7  1  0
  2  8  1  0
  5  9  1  0
 10 11  1  0
 11 12  1  0
 12 13  1  0
 13 14  1  0
 12 15  1  0
 15 16  1  0
 15 17  1  0
 17 18  1  0
 17 19  1  0
 19 20  1  0
 19 10  1  0
 10 21  1  1
 12 22  1  1
 13 23  1  0
 13 24  1  0
 14 25  1  0
 15 26  1  6
 16 27  1  0
 17 28  1  1
 18 29  1  0
 19 30  1  1
 20 31  1  0
  3 10  1  0
M  END
>  <Score>  (1) 
-8.2579

$$$$

     RDKit          3D

 33 35  0  0  0  0  0  0  0  0999 V2000
   11.8129    6.9314   -2.9634 C   0  0  0  0  0  0  0  0  0  0  0  0
   11.4344    6.8828   -4.3312 C   0  0  0  0  0  0  0  0  0  0  0  0
   11.3603    8.0875   -5.0279 C   0  0  0  0  0  0  0  0  0  0  0  0
   11.6545    9.2437   -4.3598 N   0  0  0  0  0  0  0  0  0  0  0  0
   12.0115    9.2544   -3.0574 C   0  0  0  0  0  0  0  0  0  0  0  0
   12.0885    8.0963   -2.3663 N   0  0  0  0  0  0  0  0  0  0  0  0
   11.8753    6.0020   -2.4068 H   0  0  0  0  0  0  0  0  0  0  0  0
   11.2170    5.9459   -4.7954 H   0  0  0  0  0  0  0  0  0  0  0  0
   12.2405   10.1587   -2.5390 H   0  0  0  0  0  0  0  0  0  0  0  0
   10.1734    9.8518  -11.9256 H   0  0  0  0  0  0  0  0  0  0  0  0
   11.0220    9.1871  -11.9917 C   0  0  0  0  0  0  0  0  0  0  0  0
   11.7464    9.3119  -13.0111 O   0  0  0  0  0  0  0  0  0  0  0  0
   11.2590    8.2536  -10.9692 N   0  0  0  0  0  0  0  0  0  0  0  0
   10.4657    8.0666   -9.7828 C   0  0  0  0  0  0  0  0  0  0  0  0
   11.5493    7.7431   -8.7863 C   0  0  0  0  0  0  0  0  0  0  0  0
   11.8589    7.7290   -7.4428 C   0  0  0  0  0  0  0  0  0  0  0  0
   10.9916    8.1219   -6.3888 N   0  0  0  0  0  0  0  0  0  0  0  0
   13.1360    7.2724   -7.3324 N   0  0  0  0  0  0  0  0  0  0  0  0
   13.5923    7.0186   -8.5293 N   0  0  0  0  0  0  0  0  0  0  0  0
   12.6636    7.2887   -9.4522 C   0  0  0  0  0  0  0  0  0  0  0  0
   12.3331    7.3007  -10.8973 C   0  0  0  0  0  0  0  0  0  0  0  0
   11.8627    5.9062  -11.3109 C   0  0  0  0  0  0  0  0  0  0  0  0
   13.5370    7.7235  -11.7055 C   0  0  0  0  0  0  0  0  0  0  0  0
    9.9187    8.9742   -9.4742 H   0  0  0  0  0  0  0  0  0  0  0  0
    9.7469    7.2460   -9.8779 H   0  0  0  0  0  0  0  0  0  0  0  0
   10.0359    8.4517   -6.6333 H   0  0  0  0  0  0  0  0  0  0  0  0
   14.5476    6.6512   -8.7986 H   0  0  0  0  0  0  0  0  0  0  0  0
   11.4479    5.4301  -10.3989 H   0  0  0  0  0  0  0  0  0  0  0  0
   12.7938    5.3517  -11.5893 H   0  0  0  0  0  0  0  0  0  0  0  0
   11.1355    5.9510  -12.1455 H   0  0  0  0  0  0  0  0  0  0  0  0
   13.3569    7.3716  -12.7591 H   0  0  0  0  0  0  0  0  0  0  0  0
   13.6616    8.8160  -11.6542 H   0  0  0  0  0  0  0  0  0  0  0  0
   14.4376    7.1720  -11.3644 H   0  0  0  0  0  0  0  0  0  0  0  0
  1  6  2  0
  2  1  1  0
  3  4  1  0
  3  2  2  0
  4  5  2  0
  5  6  1  0
  1  7  1  0
  2  8  1  0
  5  9  1  0
 10 11  1  0
 11 12  2  0
 11 13  1  0
 13 14  1  0
 14 15  1  0
 15 16  1  0
 16 17  1  0
 16 18  2  0
 18 19  1  0
 19 20  1  0
 20 21  1  0
 21 22  1  0
 21 23  1  0
 21 13  1  0
 20 15  2  0
 14 24  1  0
 14 25  1  0
 17 26  1  0
 19 27  1  0
 22 28  1  0
 22 29  1  0
 22 30  1  0
 23 31  1  0
 23 32  1  0
 23 33  1  0
  3 17  1  0
M  END
>  <Score>  (1) 
-8.25354

$$$$

     RDKit          3D

 31 32  0  0  0  0  0  0  0  0999 V2000
   11.8127    6.9322   -2.9645 C   0  0  0  0  0  0  0  0  0  0  0  0
   11.4348    6.8803   -4.3288 C   0  0  0  0  0  0  0  0  0  0  0  0
   11.3600    8.0884   -5.0293 C   0  0  0  0  0  0  0  0  0  0  0  0
   11.6551    9.2451   -4.3581 N   0  0  0  0  0  0  0  0  0  0  0  0
   12.0111    9.2550   -3.0590 C   0  0  0  0  0  0  0  0  0  0  0  0
   12.0884    8.0948   -2.3663 N   0  0  0  0  0  0  0  0  0  0  0  0
   11.8693    5.9976   -2.4271 H   0  0  0  0  0  0  0  0  0  0  0  0
   11.2165    5.9455   -4.7972 H   0  0  0  0  0  0  0  0  0  0  0  0
   12.2388   10.1710   -2.5495 H   0  0  0  0  0  0  0  0  0  0  0  0
   10.9720    8.0940   -6.4507 C   0  0  1  0  0  0  0  0  0  0  0  0
   11.0442    6.8226   -7.0110 O   0  0  0  0  0  0  0  0  0  0  0  0
   10.6899    6.9044   -8.3324 C   0  0  1  0  0  0  0  0  0  0  0  0
   11.0673    5.6961   -9.1423 C   0  0  0  0  0  0  0  0  0  0  0  0
   10.4704    4.5338   -8.6691 O   0  0  0  0  0  0  0  0  0  0  0  0
    9.1819    7.1540   -8.3707 C   0  0  2  0  0  0  0  0  0  0  0  0
    8.6306    6.8877   -9.5951 O   0  0  0  0  0  0  0  0  0  0  0  0
    9.0498    8.6318   -7.9771 C   0  0  2  0  0  0  0  0  0  0  0  0
    9.8724    9.3320   -8.8617 O   0  0  0  0  0  0  0  0  0  0  0  0
    9.6227    8.7263   -6.5744 C   0  0  2  0  0  0  0  0  0  0  0  0
    9.7442   10.0760   -6.2343 O   0  0  0  0  0  0  0  0  0  0  0  0
   11.6931    8.7256   -7.0108 H   0  0  0  0  0  0  0  0  0  0  0  0
   11.2140    7.7780   -8.7790 H   0  0  0  0  0  0  0  0  0  0  0  0
   10.6790    5.8563  -10.1704 H   0  0  0  0  0  0  0  0  0  0  0  0
   12.1540    5.6483   -9.2107 H   0  0  0  0  0  0  0  0  0  0  0  0
   10.0753    4.6629   -7.7673 H   0  0  0  0  0  0  0  0  0  0  0  0
    8.6863    6.5926   -7.5371 H   0  0  0  0  0  0  0  0  0  0  0  0
    7.9018    6.2048   -9.4440 H   0  0  0  0  0  0  0  0  0  0  0  0
    8.0185    8.9724   -7.9748 H   0  0  0  0  0  0  0  0  0  0  0  0
   10.5842    9.8294   -8.3854 H   0  0  0  0  0  0  0  0  0  0  0  0
    8.9113    8.2111   -5.8779 H   0  0  0  0  0  0  0  0  0  0  0  0
    9.4369   10.2556   -5.3131 H   0  0  0  0  0  0  0  0  0  0  0  0
  1  6  2  0
  2  1  1  0
  3  4  1  0
  3  2  2  0
  4  5  2  0
  5  6  1  0
  1  7  1  0
  2  8  1  0
  5  9  1  0
 10 11  1  0
 11 12  1  0
 12 13  1  0
 13 14  1  0
 12 15  1  0
 15 16  1  0
 15 17  1  0
 17 18  1  0
 17 19  1  0
 19 20  1  0
 19 10  1  0
 10 21  1  6
 12 22  1  6
 13 23  1  0
 13 24  1  0
 14 25  1  0
 15 26  1  1
 16 27  1  0
 17 28  1  1
 18 29  1  0
 19 30  1  1
 20 31  1  0
  3 10  1  0
M  END
>  <Score>  (1) 
-8.24975

$$$$

     RDKit          3D

 23 25  0  0  0  0  0  0  0  0999 V2000
   11.8110    6.9308   -2.9700 C   0  0  0  0  0  0  0  0  0  0  0  0
   11.4356    6.8784   -4.3250 C   0  0  0  0  0  0  0  0  0  0  0  0
   11.3614    8.0944   -5.0262 C   0  0  0  0  0  0  0  0  0  0  0  0
   11.6528    9.2412   -4.3650 N   0  0  0  0  0  0  0  0  0  0  0  0
   12.0121    9.2497   -3.0535 C   0  0  0  0  0  0  0  0  0  0  0  0
   12.0891    8.1015   -2.3662 N   0  0  0  0  0  0  0  0  0  0  0  0
   11.8703    6.0109   -2.4280 H   0  0  0  0  0  0  0  0  0  0  0  0
   11.2122    5.9522   -4.8154 H   0  0  0  0  0  0  0  0  0  0  0  0
   12.2316   10.1840   -2.5806 H   0  0  0  0  0  0  0  0  0  0  0  0
   10.9804    8.1056   -6.4240 C   0  0  0  0  0  0  0  0  0  0  0  0
   10.0632    9.0409   -6.8543 C   0  0  0  0  0  0  0  0  0  0  0  0
    9.7178    9.0285   -8.1945 C   0  0  0  0  0  0  0  0  0  0  0  0
   10.2974    8.0943   -9.0316 C   0  0  0  0  0  0  0  0  0  0  0  0
    9.9778    8.0521  -10.3708 C   0  0  0  0  0  0  0  0  0  0  0  0
    9.2628    8.7749  -10.7266 H   0  0  0  0  0  0  0  0  0  0  0  0
   10.5618    7.1256  -11.1666 N   0  0  0  0  0  0  0  0  0  0  0  0
   11.4526    6.2294  -10.7089 C   0  0  0  0  0  0  0  0  0  0  0  0
   11.9035    5.4972  -11.3773 H   0  0  0  0  0  0  0  0  0  0  0  0
   11.7779    6.2540   -9.4054 N   0  0  0  0  0  0  0  0  0  0  0  0
   11.2133    7.1677   -8.5778 C   0  0  0  0  0  0  0  0  0  0  0  0
   11.5240    7.2110   -7.2686 N   0  0  0  0  0  0  0  0  0  0  0  0
    9.6449    9.7468   -6.1480 H   0  0  0  0  0  0  0  0  0  0  0  0
    8.9911    9.7632   -8.5560 H   0  0  0  0  0  0  0  0  0  0  0  0
  1  6  2  0
  2  1  1  0
  3  4  1  0
  3  2  2  0
  4  5  2  0
  5  6  1  0
  1  7  1  0
  2  8  1  0
  5  9  1  0
 10 11  2  0
 11 12  1  0
 12 13  2  0
 13 14  1  0
 14 15  1  0
 14 16  2  0
 16 17  1  0
 17 18  1  0
 17 19  2  0
 19 20  1  0
 20 21  2  0
 21 10  1  0
 20 13  1  0
 11 22  1  0
 12 23  1  0
  3 10  1  0
M  END
>  <Score>  (1) 
-8.24021

$$$$

     RDKit          3D

 26 28  0  0  0  0  0  0  0  0999 V2000
   11.8119    6.9298   -2.9662 C   0  0  0  0  0  0  0  0  0  0  0  0
   11.4353    6.8806   -4.3268 C   0  0  0  0  0  0  0  0  0  0  0  0
   11.3614    8.0937   -5.0261 C   0  0  0  0  0  0  0  0  0  0  0  0
   11.6524    9.2408   -4.3663 N   0  0  0  0  0  0  0  0  0  0  0  0
   12.0126    9.2523   -3.0527 C   0  0  0  0  0  0  0  0  0  0  0  0
   12.0883    8.0988   -2.3680 N   0  0  0  0  0  0  0  0  0  0  0  0
   11.8633    5.9773   -2.4420 H   0  0  0  0  0  0  0  0  0  0  0  0
   11.2148    5.9423   -4.8022 H   0  0  0  0  0  0  0  0  0  0  0  0
   12.2451   10.1621   -2.5234 H   0  0  0  0  0  0  0  0  0  0  0  0
   10.9789    8.1044   -6.4291 C   0  0  0  0  0  0  0  0  0  0  0  0
   11.1656    9.1575   -7.2189 N   0  0  0  0  0  0  0  0  0  0  0  0
   10.8123    9.1695   -8.5176 C   0  0  0  0  0  0  0  0  0  0  0  0
   10.2337    8.0255   -9.0222 C   0  0  0  0  0  0  0  0  0  0  0  0
   10.0235    6.9066   -8.2260 C   0  0  0  0  0  0  0  0  0  0  0  0
    9.4915    5.8498   -8.6840 O   0  0  0  0  0  0  0  0  0  0  0  0
   10.4127    6.9984   -6.9422 N   0  0  0  0  0  0  0  0  0  0  0  0
    9.9280    8.2601  -10.4508 C   0  0  0  0  0  0  0  0  0  0  0  0
   10.9499    9.3058  -10.8407 C   0  0  0  0  0  0  0  0  0  0  0  0
   10.9108   10.2013   -9.6046 C   0  0  0  0  0  0  0  0  0  0  0  0
   10.2693    6.1626   -6.2983 H   0  0  0  0  0  0  0  0  0  0  0  0
    8.9240    8.7270  -10.5916 H   0  0  0  0  0  0  0  0  0  0  0  0
   10.0620    7.3473  -11.0709 H   0  0  0  0  0  0  0  0  0  0  0  0
   10.6232    9.8470  -11.7423 H   0  0  0  0  0  0  0  0  0  0  0  0
   11.9254    8.8303  -10.9750 H   0  0  0  0  0  0  0  0  0  0  0  0
   10.0062   10.8251   -9.6471 H   0  0  0  0  0  0  0  0  0  0  0  0
   11.8413   10.7979   -9.5159 H   0  0  0  0  0  0  0  0  0  0  0  0
  1  6  2  0
  2  1  1  0
  3  4  1  0
  3  2  2  0
  4  5  2  0
  5  6  1  0
  1  7  1  0
  2  8  1  0
  5  9  1  0
 10 11  2  0
 11 12  1  0
 12 13  2  0
 13 14  1  0
 14 15  2  0
 14 16  1  0
 13 17  1  0
 17 18  1  0
 18 19  1  0
 16 10  1  0
 19 12  1  0
 16 20  1  0
 17 21  1  0
 17 22  1  0
 18 23  1  0
 18 24  1  0
 19 25  1  0
 19 26  1  0
  3 10  1  0
M  END
>  <Score>  (1) 
-8.22997

$$$$

     RDKit          3D

 31 32  0  0  0  0  0  0  0  0999 V2000
   11.8121    6.9320   -2.9664 C   0  0  0  0  0  0  0  0  0  0  0  0
   11.4350    6.8824   -4.3288 C   0  0  0  0  0  0  0  0  0  0  0  0
   11.3605    8.0870   -5.0269 C   0  0  0  0  0  0  0  0  0  0  0  0
   11.6542    9.2445   -4.3611 N   0  0  0  0  0  0  0  0  0  0  0  0
   12.0117    9.2550   -3.0570 C   0  0  0  0  0  0  0  0  0  0  0  0
   12.0886    8.0950   -2.3658 N   0  0  0  0  0  0  0  0  0  0  0  0
   11.8864    6.0290   -2.3758 H   0  0  0  0  0  0  0  0  0  0  0  0
   11.2153    5.9538   -4.8044 H   0  0  0  0  0  0  0  0  0  0  0  0
   12.2440   10.1675   -2.5290 H   0  0  0  0  0  0  0  0  0  0  0  0
   10.9811    8.1482   -6.4365 C   0  0  2  0  0  0  0  0  0  0  0  0
    9.8256    8.9198   -6.6612 O   0  0  0  0  0  0  0  0  0  0  0  0
    9.8350    9.2119   -8.0364 C   0  0  2  0  0  0  0  0  0  0  0  0
    8.9387   10.3607   -8.3829 C   0  0  0  0  0  0  0  0  0  0  0  0
    7.6197   10.1441   -8.0546 O   0  0  0  0  0  0  0  0  0  0  0  0
    9.5910    7.9901   -8.8587 C   0  0  1  0  0  0  0  0  0  0  0  0
    9.6235    8.3579  -10.2000 O   0  0  0  0  0  0  0  0  0  0  0  0
   10.7153    7.0015   -8.5596 C   0  0  2  0  0  0  0  0  0  0  0  0
   10.5218    5.8052   -9.2433 O   0  0  0  0  0  0  0  0  0  0  0  0
   10.7154    6.7963   -7.0559 C   0  0  2  0  0  0  0  0  0  0  0  0
    9.4027    6.4285   -6.7135 O   0  0  0  0  0  0  0  0  0  0  0  0
   11.7794    8.6342   -7.0431 H   0  0  0  0  0  0  0  0  0  0  0  0
   10.8894    9.5457   -8.2502 H   0  0  0  0  0  0  0  0  0  0  0  0
    9.1080   10.6328   -9.4248 H   0  0  0  0  0  0  0  0  0  0  0  0
    9.2836   11.2362   -7.7679 H   0  0  0  0  0  0  0  0  0  0  0  0
    7.5759    9.9618   -7.0780 H   0  0  0  0  0  0  0  0  0  0  0  0
    8.6509    7.4704   -8.6234 H   0  0  0  0  0  0  0  0  0  0  0  0
    8.8581    8.0117  -10.7110 H   0  0  0  0  0  0  0  0  0  0  0  0
   11.6801    7.4844   -8.8186 H   0  0  0  0  0  0  0  0  0  0  0  0
   11.2806    5.6509   -9.8589 H   0  0  0  0  0  0  0  0  0  0  0  0
   11.4475    6.0327   -6.7317 H   0  0  0  0  0  0  0  0  0  0  0  0
    9.3383    5.4697   -6.4842 H   0  0  0  0  0  0  0  0  0  0  0  0
  1  6  2  0
  2  1  1  0
  3  4  1  0
  3  2  2  0
  4  5  2  0
  5  6  1  0
  1  7  1  0
  2  8  1  0
  5  9  1  0
 10 11  1  0
 11 12  1  0
 12 13  1  0
 13 14  1  0
 12 15  1  0
 15 16  1  0
 15 17  1  0
 17 18  1  0
 17 19  1  0
 19 20  1  0
 19 10  1  0
 10 21  1  6
 12 22  1  6
 13 23  1  0
 13 24  1  0
 14 25  1  0
 15 26  1  1
 16 27  1  0
 17 28  1  6
 18 29  1  0
 19 30  1  6
 20 31  1  0
  3 10  1  0
M  END
>  <Score>  (1) 
-8.20355

$$$$

     RDKit          3D

 25 27  0  0  0  0  0  0  0  0999 V2000
   11.8114    6.9288   -2.9678 C   0  0  0  0  0  0  0  0  0  0  0  0
   11.4352    6.8788   -4.3265 C   0  0  0  0  0  0  0  0  0  0  0  0
   11.3608    8.0930   -5.0279 C   0  0  0  0  0  0  0  0  0  0  0  0
   11.6534    9.2422   -4.3632 N   0  0  0  0  0  0  0  0  0  0  0  0
   12.0121    9.2516   -3.0540 C   0  0  0  0  0  0  0  0  0  0  0  0
   12.0890    8.1015   -2.3665 N   0  0  0  0  0  0  0  0  0  0  0  0
   11.8608    5.9826   -2.4528 H   0  0  0  0  0  0  0  0  0  0  0  0
   11.2121    5.9446   -4.8129 H   0  0  0  0  0  0  0  0  0  0  0  0
   12.2450   10.1582   -2.5224 H   0  0  0  0  0  0  0  0  0  0  0  0
   10.9841    8.0912   -6.4055 N   0  0  0  0  0  0  0  0  0  0  0  0
    9.9367    7.3894   -7.0341 C   0  0  0  0  0  0  0  0  0  0  0  0
    9.1821    6.6298   -6.3187 O   0  0  0  0  0  0  0  0  0  0  0  0
    9.8176    7.6012   -8.4458 C   0  0  0  0  0  0  0  0  0  0  0  0
    8.8750    7.0330   -9.3021 C   0  0  0  0  0  0  0  0  0  0  0  0
    8.8737    7.3233  -10.6403 C   0  0  0  0  0  0  0  0  0  0  0  0
    9.8216    8.1911  -11.1410 C   0  0  0  0  0  0  0  0  0  0  0  0
   10.7648    8.7669  -10.3174 C   0  0  0  0  0  0  0  0  0  0  0  0
   10.7239    8.4433   -8.9806 C   0  0  0  0  0  0  0  0  0  0  0  0
   11.7595    8.9836   -7.6547 S   0  0  0  0  0  6  0  0  0  0  0  0
   11.5867   10.4544   -7.4595 O   0  0  0  0  0  0  0  0  0  0  0  0
   13.1734    8.5735   -7.8607 O   0  0  0  0  0  0  0  0  0  0  0  0
    8.1101    6.3457   -8.9567 H   0  0  0  0  0  0  0  0  0  0  0  0
    8.1399    6.8846  -11.3237 H   0  0  0  0  0  0  0  0  0  0  0  0
    9.8340    8.4336  -12.2101 H   0  0  0  0  0  0  0  0  0  0  0  0
   11.5184    9.4590  -10.7255 H   0  0  0  0  0  0  0  0  0  0  0  0
  1  6  2  0
  2  1  1  0
  3  4  1  0
  3  2  2  0
  4  5  2  0
  5  6  1  0
  1  7  1  0
  2  8  1  0
  5  9  1  0
 10 11  1  0
 11 12  2  0
 11 13  1  0
 13 14  2  0
 14 15  1  0
 15 16  2  0
 16 17  1  0
 17 18  2  0
 18 19  1  0
 19 20  2  0
 19 21  2  0
 19 10  1  0
 18 13  1  0
 14 22  1  0
 15 23  1  0
 16 24  1  0
 17 25  1  0
  3 10  1  0
M  END
>  <Score>  (1) 
-8.19816

$$$$

     RDKit          3D

 23 25  0  0  0  0  0  0  0  0999 V2000
   11.8116    6.9282   -2.9671 C   0  0  0  0  0  0  0  0  0  0  0  0
   11.4354    6.8873   -4.3290 C   0  0  0  0  0  0  0  0  0  0  0  0
   11.3596    8.0846   -5.0293 C   0  0  0  0  0  0  0  0  0  0  0  0
   11.6547    9.2424   -4.3586 N   0  0  0  0  0  0  0  0  0  0  0  0
   12.0116    9.2542   -3.0570 C   0  0  0  0  0  0  0  0  0  0  0  0
   12.0892    8.0993   -2.3651 N   0  0  0  0  0  0  0  0  0  0  0  0
   11.8595    5.9829   -2.4578 H   0  0  0  0  0  0  0  0  0  0  0  0
   11.2116    5.9534   -4.8180 H   0  0  0  0  0  0  0  0  0  0  0  0
   12.2423   10.1741   -2.5379 H   0  0  0  0  0  0  0  0  0  0  0  0
   10.9860    8.1696   -6.4262 C   0  0  0  0  0  0  0  0  0  0  0  0
   11.5338    7.2849   -7.3546 C   0  0  0  0  0  0  0  0  0  0  0  0
   11.1971    7.3403   -8.6967 C   0  0  0  0  0  0  0  0  0  0  0  0
   10.3028    8.2836   -9.1438 C   0  0  0  0  0  0  0  0  0  0  0  0
    9.8115    8.5508  -10.3717 N   0  0  0  0  0  0  0  0  0  0  0  0
    8.9631    9.5827  -10.2580 N   0  0  0  0  0  0  0  0  0  0  0  0
    8.9052    9.9769   -8.9820 C   0  0  0  0  0  0  0  0  0  0  0  0
    9.7447    9.1682   -8.2624 C   0  0  0  0  0  0  0  0  0  0  0  0
   10.1059    9.0853   -6.9149 C   0  0  0  0  0  0  0  0  0  0  0  0
   12.2395    6.5466   -6.9787 H   0  0  0  0  0  0  0  0  0  0  0  0
   11.6553    6.6238   -9.3816 H   0  0  0  0  0  0  0  0  0  0  0  0
   10.0142    8.0798  -11.2776 H   0  0  0  0  0  0  0  0  0  0  0  0
    8.3078   10.7785   -8.6093 H   0  0  0  0  0  0  0  0  0  0  0  0
    9.6362    9.8110   -6.2469 H   0  0  0  0  0  0  0  0  0  0  0  0
  1  6  2  0
  2  1  1  0
  3  4  1  0
  3  2  2  0
  4  5  2  0
  5  6  1  0
  1  7  1  0
  2  8  1  0
  5  9  1  0
 10 11  2  0
 11 12  1  0
 12 13  2  0
 13 14  1  0
 14 15  1  0
 15 16  2  0
 16 17  1  0
 17 18  2  0
 18 10  1  0
 17 13  1  0
 11 19  1  0
 12 20  1  0
 14 21  1  0
 16 22  1  0
 18 23  1  0
  3 10  1  0
M  END
>  <Score>  (1) 
-8.14152

$$$$

     RDKit          3D

 20 21  0  0  0  0  0  0  0  0999 V2000
   11.8118    6.9280   -2.9660 C   0  0  0  0  0  0  0  0  0  0  0  0
   11.4357    6.8882   -4.3283 C   0  0  0  0  0  0  0  0  0  0  0  0
   11.3591    8.0869   -5.0320 C   0  0  0  0  0  0  0  0  0  0  0  0
   11.6554    9.2400   -4.3551 N   0  0  0  0  0  0  0  0  0  0  0  0
   12.0105    9.2528   -3.0603 C   0  0  0  0  0  0  0  0  0  0  0  0
   12.0894    8.1001   -2.3644 N   0  0  0  0  0  0  0  0  0  0  0  0
   11.8643    5.9984   -2.4455 H   0  0  0  0  0  0  0  0  0  0  0  0
   11.2158    5.9433   -4.7991 H   0  0  0  0  0  0  0  0  0  0  0  0
   12.2333   10.1942   -2.5780 H   0  0  0  0  0  0  0  0  0  0  0  0
   10.9799    8.1405   -6.4382 C   0  0  0  0  0  0  0  0  0  0  0  0
   10.1411    7.2487   -7.0430 C   0  0  0  0  0  0  0  0  0  0  0  0
    9.8015    7.3358   -8.3997 C   0  0  0  0  0  0  0  0  0  0  0  0
    8.9649    6.4269   -8.9541 F   0  0  0  0  0  0  0  0  0  0  0  0
   10.3247    8.3537   -9.1676 C   0  0  0  0  0  0  0  0  0  0  0  0
    9.9927    8.4352  -10.4845 F   0  0  0  0  0  0  0  0  0  0  0  0
   11.1745    9.2656   -8.5760 C   0  0  0  0  0  0  0  0  0  0  0  0
   11.4920    9.1518   -7.2276 C   0  0  0  0  0  0  0  0  0  0  0  0
   12.3274   10.0471   -6.6431 F   0  0  0  0  0  0  0  0  0  0  0  0
    9.7176    6.4401   -6.4594 H   0  0  0  0  0  0  0  0  0  0  0  0
   11.5989   10.0784   -9.1669 H   0  0  0  0  0  0  0  0  0  0  0  0
  1  6  2  0
  2  1  1  0
  3  4  1  0
  3  2  2  0
  4  5  2  0
  5  6  1  0
  1  7  1  0
  2  8  1  0
  5  9  1  0
 10 11  2  0
 11 12  1  0
 12 13  1  0
 12 14  2  0
 14 15  1  0
 14 16  1  0
 16 17  2  0
 17 18  1  0
 17 10  1  0
 11 19  1  0
 16 20  1  0
  3 10  1  0
M  END
>  <Score>  (1) 
-8.14135

$$$$

     RDKit          3D

 32 33  0  0  0  0  0  0  0  0999 V2000
   11.8116    6.9302   -2.9675 C   0  0  0  0  0  0  0  0  0  0  0  0
   11.4350    6.8808   -4.3282 C   0  0  0  0  0  0  0  0  0  0  0  0
   11.3604    8.0882   -5.0277 C   0  0  0  0  0  0  0  0  0  0  0  0
   11.6544    9.2445   -4.3602 N   0  0  0  0  0  0  0  0  0  0  0  0
   12.0117    9.2534   -3.0564 C   0  0  0  0  0  0  0  0  0  0  0  0
   12.0889    8.0989   -2.3660 N   0  0  0  0  0  0  0  0  0  0  0  0
   11.8704    5.9937   -2.4215 H   0  0  0  0  0  0  0  0  0  0  0  0
   11.2140    5.9585   -4.8107 H   0  0  0  0  0  0  0  0  0  0  0  0
   12.2409   10.1687   -2.5410 H   0  0  0  0  0  0  0  0  0  0  0  0
   10.9968    8.0479   -6.3436 O   0  0  0  0  0  0  0  0  0  0  0  0
   11.9325    8.2270   -7.3920 C   0  0  2  0  0  0  0  0  0  0  0  0
   11.5378    9.3619   -8.0896 O   0  0  0  0  0  0  0  0  0  0  0  0
   12.3597    9.6588   -9.1556 C   0  0  2  0  0  0  0  0  0  0  0  0
   11.7892   10.8864   -9.8435 C   0  0  0  0  0  0  0  0  0  0  0  0
   12.5688   11.2570  -10.9427 O   0  0  0  0  0  0  0  0  0  0  0  0
   12.4257    8.5551  -10.1848 C   0  0  2  0  0  0  0  0  0  0  0  0
   11.2845    8.5916  -10.9618 O   0  0  0  0  0  0  0  0  0  0  0  0
   12.5967    7.1986   -9.5745 C   0  0  2  0  0  0  0  0  0  0  0  0
   12.0875    6.2598  -10.4862 O   0  0  0  0  0  0  0  0  0  0  0  0
   11.8702    7.0220   -8.2743 C   0  0  2  0  0  0  0  0  0  0  0  0
   10.5374    6.6504   -8.4696 O   0  0  0  0  0  0  0  0  0  0  0  0
   12.9294    8.3912   -6.9453 H   0  0  0  0  0  0  0  0  0  0  0  0
   13.4012    9.9047   -8.8671 H   0  0  0  0  0  0  0  0  0  0  0  0
   11.7984   11.7732   -9.1508 H   0  0  0  0  0  0  0  0  0  0  0  0
   10.7349   10.7560  -10.1385 H   0  0  0  0  0  0  0  0  0  0  0  0
   13.4735   11.4761  -10.6714 H   0  0  0  0  0  0  0  0  0  0  0  0
   13.3095    8.7404  -10.8390 H   0  0  0  0  0  0  0  0  0  0  0  0
   11.4699    8.5643  -11.9330 H   0  0  0  0  0  0  0  0  0  0  0  0
   13.6718    6.9591   -9.4470 H   0  0  0  0  0  0  0  0  0  0  0  0
   11.1225    6.4673  -10.6275 H   0  0  0  0  0  0  0  0  0  0  0  0
   12.3720    6.1721   -7.7325 H   0  0  0  0  0  0  0  0  0  0  0  0
   10.1280    6.4537   -7.6016 H   0  0  0  0  0  0  0  0  0  0  0  0
  1  6  2  0
  2  1  1  0
  3  4  1  0
  3  2  2  0
  4  5  2  0
  5  6  1  0
  1  7  1  0
  2  8  1  0
  5  9  1  0
 10 11  1  0
 11 12  1  0
 12 13  1  0
 13 14  1  0
 14 15  1  0
 13 16  1  0
 16 17  1  0
 16 18  1  0
 18 19  1  0
 18 20  1  0
 20 21  1  0
 20 11  1  0
 11 22  1  1
 13 23  1  1
 14 24  1  0
 14 25  1  0
 15 26  1  0
 16 27  1  6
 17 28  1  0
 18 29  1  1
 19 30  1  0
 20 31  1  1
 21 32  1  0
  3 10  1  0
M  END
>  <Score>  (1) 
-8.1182

$$$$

     RDKit          3D

 26 27  0  0  0  0  0  0  0  0999 V2000
   12.3027    8.1227   -2.3010 C   0  0  0  0  0  0  0  0  0  0  0  0
   12.0214    6.8831   -2.9129 C   0  0  0  0  0  0  0  0  0  0  0  0
   11.5245    6.8957   -4.2244 C   0  0  0  0  0  0  0  0  0  0  0  0
   11.3432    8.1140   -4.8299 N   0  0  0  0  0  0  0  0  0  0  0  0
   11.6231    9.2739   -4.2134 C   0  0  0  0  0  0  0  0  0  0  0  0
   12.1001    9.2816   -2.9564 N   0  0  0  0  0  0  0  0  0  0  0  0
   12.6847    8.1275   -1.2943 H   0  0  0  0  0  0  0  0  0  0  0  0
   12.1778    5.9569   -2.4039 H   0  0  0  0  0  0  0  0  0  0  0  0
   11.3071    5.9751   -4.7011 H   0  0  0  0  0  0  0  0  0  0  0  0
   12.3131   13.8901   -8.4113 H   0  0  0  0  0  0  0  0  0  0  0  0
   11.2350   14.0871   -8.2314 C   0  0  0  0  0  0  0  0  0  0  0  0
   11.0095   14.3422   -6.7558 C   0  0  0  0  0  0  0  0  0  0  0  0
   11.1556   12.9958   -6.0839 C   0  0  0  0  0  0  0  0  0  0  0  0
   10.0563   12.1902   -5.9246 C   0  0  0  0  0  0  0  0  0  0  0  0
   10.1900   10.9721   -5.3165 C   0  0  0  0  0  0  0  0  0  0  0  0
   11.4257   10.5631   -4.8686 C   0  0  0  0  0  0  0  0  0  0  0  0
   12.5240   11.3781   -5.0326 C   0  0  0  0  0  0  0  0  0  0  0  0
   12.4055   12.6123   -5.6452 C   0  0  0  0  0  0  0  0  0  0  0  0
   10.8510   14.9004   -8.8540 H   0  0  0  0  0  0  0  0  0  0  0  0
   10.7219   13.1062   -8.4494 H   0  0  0  0  0  0  0  0  0  0  0  0
   11.7312   15.0404   -6.3254 H   0  0  0  0  0  0  0  0  0  0  0  0
    9.9454   14.6915   -6.6601 H   0  0  0  0  0  0  0  0  0  0  0  0
    9.0664   12.5073   -6.2783 H   0  0  0  0  0  0  0  0  0  0  0  0
    9.3317   10.2973   -5.1702 H   0  0  0  0  0  0  0  0  0  0  0  0
   13.5169   11.0938   -4.6938 H   0  0  0  0  0  0  0  0  0  0  0  0
   13.2392   13.2791   -5.7927 H   0  0  0  0  0  0  0  0  0  0  0  0
  2  1  2  0
  3  2  1  0
  4  3  2  0
  4  5  1  0
  5  6  2  0
  6  1  1  0
  1  7  1  0
  2  8  1  0
  3  9  1  0
 10 11  1  0
 11 12  1  0
 12 13  1  0
 13 14  2  0
 14 15  1  0
 15 16  2  0
 16 17  1  0
 17 18  2  0
 18 13  1  0
 11 19  1  0
 11 20  1  0
 12 21  1  0
 12 22  1  0
 14 23  1  0
 15 24  1  0
 17 25  1  0
 18 26  1  0
  5 16  1  0
M  END
>  <Score>  (1) 
-7.70577

$$$$

     RDKit          3D

 27 29  0  0  0  0  0  0  0  0999 V2000
   11.8117    6.9298   -2.9670 C   0  0  0  0  0  0  0  0  0  0  0  0
   11.4352    6.8798   -4.3271 C   0  0  0  0  0  0  0  0  0  0  0  0
   11.3603    8.0904   -5.0288 C   0  0  0  0  0  0  0  0  0  0  0  0
   11.6543    9.2439   -4.3606 N   0  0  0  0  0  0  0  0  0  0  0  0
   12.0117    9.2528   -3.0561 C   0  0  0  0  0  0  0  0  0  0  0  0
   12.0888    8.0993   -2.3664 N   0  0  0  0  0  0  0  0  0  0  0  0
   11.8541    5.9698   -2.4728 H   0  0  0  0  0  0  0  0  0  0  0  0
   11.2148    5.9499   -4.8049 H   0  0  0  0  0  0  0  0  0  0  0  0
   12.2456   10.1634   -2.5221 H   0  0  0  0  0  0  0  0  0  0  0  0
   10.9904    8.1057   -6.3877 N   0  0  0  0  0  0  0  0  0  0  0  0
   11.9620    8.3178   -7.3829 C   0  0  0  0  0  0  0  0  0  0  0  0
   11.6419    8.3405   -8.7291 C   0  0  0  0  0  0  0  0  0  0  0  0
   12.5888    8.5478   -9.7116 C   0  0  0  0  0  0  0  0  0  0  0  0
   12.2821    8.5724  -11.0522 C   0  0  0  0  0  0  0  0  0  0  0  0
   13.2219    8.7789  -12.0406 C   0  0  0  0  0  0  0  0  0  0  0  0
   14.5438    8.9735  -11.6957 C   0  0  0  0  0  0  0  0  0  0  0  0
   15.3405    9.1403  -12.3822 H   0  0  0  0  0  0  0  0  0  0  0  0
   14.8743    8.9518  -10.3365 C   0  0  0  0  0  0  0  0  0  0  0  0
   13.9096    8.7420   -9.3629 C   0  0  0  0  0  0  0  0  0  0  0  0
   14.2063    8.7155   -8.0158 C   0  0  0  0  0  0  0  0  0  0  0  0
   13.2647    8.5112   -7.0732 N   0  0  0  0  0  0  0  0  0  0  0  0
   10.0123    7.9623   -6.6531 H   0  0  0  0  0  0  0  0  0  0  0  0
   10.6056    8.1891   -9.0214 H   0  0  0  0  0  0  0  0  0  0  0  0
   11.2587    8.4245  -11.3687 H   0  0  0  0  0  0  0  0  0  0  0  0
   12.9902    8.7999  -13.0973 H   0  0  0  0  0  0  0  0  0  0  0  0
   15.9056    9.1008  -10.0171 H   0  0  0  0  0  0  0  0  0  0  0  0
   15.2583    8.8705   -7.7449 H   0  0  0  0  0  0  0  0  0  0  0  0
  1  6  2  0
  2  1  1  0
  3  4  1  0
  3  2  2  0
  4  5  2  0
  5  6  1  0
  1  7  1  0
  2  8  1  0
  5  9  1  0
 10 11  1  0
 11 12  2  0
 12 13  1  0
 13 14  2  0
 14 15  1  0
 15 16  2  0
 16 17  1  0
 16 18  1  0
 18 19  2  0
 19 20  1  0
 20 21  2  0
 21 11  1  0
 19 13  1  0
 10 22  1  0
 12 23  1  0
 14 24  1  0
 15 25  1  0
 18 26  1  0
 20 27  1  0
  3 10  1  0
M  END
>  <Score>  (1) 
-8.11054

$$$$

     RDKit          3D

 23 25  0  0  0  0  0  0  0  0999 V2000
   11.8121    6.9312   -2.9661 C   0  0  0  0  0  0  0  0  0  0  0  0
   11.4353    6.8812   -4.3273 C   0  0  0  0  0  0  0  0  0  0  0  0
   11.3591    8.0859   -5.0316 C   0  0  0  0  0  0  0  0  0  0  0  0
   11.6561    9.2469   -4.3551 N   0  0  0  0  0  0  0  0  0  0  0  0
   12.0108    9.2546   -3.0600 C   0  0  0  0  0  0  0  0  0  0  0  0
   12.0886    8.0961   -2.3661 N   0  0  0  0  0  0  0  0  0  0  0  0
   11.8855    6.0267   -2.3780 H   0  0  0  0  0  0  0  0  0  0  0  0
   11.2178    5.9506   -4.7941 H   0  0  0  0  0  0  0  0  0  0  0  0
   12.2283   10.2036   -2.5995 H   0  0  0  0  0  0  0  0  0  0  0  0
   10.9823    8.1215   -6.4227 C   0  0  0  0  0  0  0  0  0  0  0  0
   11.8294    8.6200   -7.3127 N   0  0  0  0  0  0  0  0  0  0  0  0
   11.5126    8.6666   -8.5983 N   0  0  0  0  0  0  0  0  0  0  0  0
   12.1848    9.1186   -9.6968 C   0  0  0  0  0  0  0  0  0  0  0  0
   11.4013    8.9383  -10.8224 C   0  0  0  0  0  0  0  0  0  0  0  0
   10.2353    8.3657  -10.3847 C   0  0  0  0  0  0  0  0  0  0  0  0
   10.3151    8.2011   -9.0000 C   0  0  0  0  0  0  0  0  0  0  0  0
    9.4176    7.6765   -8.0810 C   0  0  0  0  0  0  0  0  0  0  0  0
    8.2916    7.2325   -8.4146 O   0  0  0  0  0  0  0  0  0  0  0  0
    9.7864    7.6526   -6.7955 N   0  0  0  0  0  0  0  0  0  0  0  0
   13.1674    9.5537   -9.7365 H   0  0  0  0  0  0  0  0  0  0  0  0
   11.6161    9.1815  -11.8587 H   0  0  0  0  0  0  0  0  0  0  0  0
    9.3712    8.0688  -10.9456 H   0  0  0  0  0  0  0  0  0  0  0  0
    9.1658    7.2738   -6.0480 H   0  0  0  0  0  0  0  0  0  0  0  0
  1  6  2  0
  2  1  1  0
  3  4  1  0
  3  2  2  0
  4  5  2  0
  5  6  1  0
  1  7  1  0
  2  8  1  0
  5  9  1  0
 10 11  2  0
 11 12  1  0
 12 13  1  0
 13 14  2  0
 14 15  1  0
 15 16  2  0
 16 17  1  0
 17 18  2  0
 17 19  1  0
 19 10  1  0
 16 12  1  0
 13 20  1  0
 14 21  1  0
 15 22  1  0
 19 23  1  0
  3 10  1  0
M  END
>  <Score>  (1) 
-8.10555

$$$$

     RDKit          3D

 26 27  0  0  0  0  0  0  0  0999 V2000
   11.8125    6.9281   -2.9637 C   0  0  0  0  0  0  0  0  0  0  0  0
   11.4347    6.8890   -4.3319 C   0  0  0  0  0  0  0  0  0  0  0  0
   11.3608    8.0904   -5.0268 C   0  0  0  0  0  0  0  0  0  0  0  0
   11.6524    9.2345   -4.3644 N   0  0  0  0  0  0  0  0  0  0  0  0
   12.0127    9.2525   -3.0524 C   0  0  0  0  0  0  0  0  0  0  0  0
   12.0889    8.1014   -2.3668 N   0  0  0  0  0  0  0  0  0  0  0  0
   11.8776    6.0168   -2.4034 H   0  0  0  0  0  0  0  0  0  0  0  0
   11.2293    5.9327   -4.7457 H   0  0  0  0  0  0  0  0  0  0  0  0
   12.2454   10.1669   -2.5238 H   0  0  0  0  0  0  0  0  0  0  0  0
   10.9830    8.1446   -6.4284 C   0  0  0  0  0  0  0  0  0  0  0  0
   11.2669    7.0908   -7.2830 C   0  0  0  0  0  0  0  0  0  0  0  0
   10.9272    7.0930   -8.6307 C   0  0  0  0  0  0  0  0  0  0  0  0
   11.2660    5.9181   -9.4953 C   0  0  0  0  0  0  0  0  0  0  0  0
   10.2781    8.1724   -9.1815 C   0  0  0  0  0  0  0  0  0  0  0  0
    9.9878    9.2255   -8.3535 C   0  0  0  0  0  0  0  0  0  0  0  0
   10.3330    9.2176   -6.9947 C   0  0  0  0  0  0  0  0  0  0  0  0
   10.0024   10.3768   -6.1274 C   0  0  0  0  0  0  0  0  0  0  0  0
   11.7754    6.2245   -6.8909 H   0  0  0  0  0  0  0  0  0  0  0  0
   10.4412    5.1973   -9.5031 H   0  0  0  0  0  0  0  0  0  0  0  0
   11.5837    6.2501  -10.5072 H   0  0  0  0  0  0  0  0  0  0  0  0
   12.1524    5.4244   -8.9991 H   0  0  0  0  0  0  0  0  0  0  0  0
   10.0141    8.1730  -10.2310 H   0  0  0  0  0  0  0  0  0  0  0  0
    9.4869   10.0741   -8.7492 H   0  0  0  0  0  0  0  0  0  0  0  0
    9.4832   11.1250   -6.7913 H   0  0  0  0  0  0  0  0  0  0  0  0
    9.2793   10.0867   -5.3509 H   0  0  0  0  0  0  0  0  0  0  0  0
   10.9228   10.8646   -5.7615 H   0  0  0  0  0  0  0  0  0  0  0  0
  1  6  2  0
  2  1  1  0
  3  4  1  0
  3  2  2  0
  4  5  2  0
  5  6  1  0
  1  7  1  0
  2  8  1  0
  5  9  1  0
 10 11  2  0
 11 12  1  0
 12 13  1  0
 12 14  2  0
 14 15  1  0
 15 16  2  0
 16 17  1  0
 16 10  1  0
 11 18  1  0
 13 19  1  0
 13 20  1  0
 13 21  1  0
 14 22  1  0
 15 23  1  0
 17 24  1  0
 17 25  1  0
 17 26  1  0
  3 10  1  0
M  END
>  <Score>  (1) 
-8.10317

$$$$

     RDKit          3D

 31 32  0  0  0  0  0  0  0  0999 V2000
   11.8118    6.9301   -2.9669 C   0  0  0  0  0  0  0  0  0  0  0  0
   11.4352    6.8794   -4.3268 C   0  0  0  0  0  0  0  0  0  0  0  0
   11.3602    8.0907   -5.0292 C   0  0  0  0  0  0  0  0  0  0  0  0
   11.6544    9.2441   -4.3601 N   0  0  0  0  0  0  0  0  0  0  0  0
   12.0116    9.2527   -3.0566 C   0  0  0  0  0  0  0  0  0  0  0  0
   12.0888    8.0990   -2.3664 N   0  0  0  0  0  0  0  0  0  0  0  0
   11.8770    6.0095   -2.4032 H   0  0  0  0  0  0  0  0  0  0  0  0
   11.2171    5.9535   -4.7975 H   0  0  0  0  0  0  0  0  0  0  0  0
   12.2461   10.1598   -2.5187 H   0  0  0  0  0  0  0  0  0  0  0  0
   10.9696    8.1133   -6.4662 C   0  0  1  0  0  0  0  0  0  0  0  0
   11.6669    7.1076   -7.1010 O   0  0  0  0  0  0  0  0  0  0  0  0
   11.4526    7.0233   -8.4580 C   0  0  1  0  0  0  0  0  0  0  0  0
   11.7247    5.5919   -8.8770 C   0  0  0  0  0  0  0  0  0  0  0  0
   11.5326    5.4090  -10.2430 O   0  0  0  0  0  0  0  0  0  0  0  0
   10.0622    7.3643   -8.8884 C   0  0  2  0  0  0  0  0  0  0  0  0
    9.9612    8.7071   -9.2112 O   0  0  0  0  0  0  0  0  0  0  0  0
    9.1222    7.0769   -7.7378 C   0  0  1  0  0  0  0  0  0  0  0  0
    9.1150    5.7486   -7.3672 O   0  0  0  0  0  0  0  0  0  0  0  0
    9.4841    8.0220   -6.6387 C   0  0  2  0  0  0  0  0  0  0  0  0
    9.0316    9.2998   -7.0460 O   0  0  0  0  0  0  0  0  0  0  0  0
   11.3808    9.0847   -6.8721 H   0  0  0  0  0  0  0  0  0  0  0  0
   12.1573    7.6606   -9.0473 H   0  0  0  0  0  0  0  0  0  0  0  0
   12.7791    5.2943   -8.6488 H   0  0  0  0  0  0  0  0  0  0  0  0
   11.0567    4.8757   -8.3479 H   0  0  0  0  0  0  0  0  0  0  0  0
   12.2743    5.8441  -10.7340 H   0  0  0  0  0  0  0  0  0  0  0  0
    9.7071    6.7409   -9.7557 H   0  0  0  0  0  0  0  0  0  0  0  0
   10.3995    8.8543  -10.1003 H   0  0  0  0  0  0  0  0  0  0  0  0
    8.0647    7.3216   -8.0493 H   0  0  0  0  0  0  0  0  0  0  0  0
    9.6229    5.5535   -6.5467 H   0  0  0  0  0  0  0  0  0  0  0  0
    8.9466    7.8212   -5.6887 H   0  0  0  0  0  0  0  0  0  0  0  0
    9.7496    9.9514   -7.0693 H   0  0  0  0  0  0  0  0  0  0  0  0
  1  6  2  0
  2  1  1  0
  3  4  1  0
  3  2  2  0
  4  5  2  0
  5  6  1  0
  1  7  1  0
  2  8  1  0
  5  9  1  0
 10 11  1  0
 11 12  1  0
 12 13  1  0
 13 14  1  0
 12 15  1  0
 15 16  1  0
 15 17  1  0
 17 18  1  0
 17 19  1  0
 19 20  1  0
 19 10  1  0
 10 21  1  6
 12 22  1  6
 13 23  1  0
 13 24  1  0
 14 25  1  0
 15 26  1  6
 16 27  1  0
 17 28  1  6
 18 29  1  0
 19 30  1  1
 20 31  1  0
  3 10  1  0
M  END
>  <Score>  (1) 
-8.10125

$$$$

     RDKit          3D

 23 25  0  0  0  0  0  0  0  0999 V2000
   11.8122    6.9308   -2.9658 C   0  0  0  0  0  0  0  0  0  0  0  0
   11.4350    6.8803   -4.3281 C   0  0  0  0  0  0  0  0  0  0  0  0
   11.3600    8.0890   -5.0292 C   0  0  0  0  0  0  0  0  0  0  0  0
   11.6548    9.2447   -4.3591 N   0  0  0  0  0  0  0  0  0  0  0  0
   12.0114    9.2540   -3.0576 C   0  0  0  0  0  0  0  0  0  0  0  0
   12.0886    8.0973   -2.3664 N   0  0  0  0  0  0  0  0  0  0  0  0
   11.8747    6.0031   -2.4094 H   0  0  0  0  0  0  0  0  0  0  0  0
   11.2138    5.9317   -4.8020 H   0  0  0  0  0  0  0  0  0  0  0  0
   12.2445   10.1613   -2.5253 H   0  0  0  0  0  0  0  0  0  0  0  0
   10.9819    8.1118   -6.4207 C   0  0  0  0  0  0  0  0  0  0  0  0
   11.1476    9.1633   -7.2785 C   0  0  0  0  0  0  0  0  0  0  0  0
   10.6486    8.7485   -8.4998 C   0  0  0  0  0  0  0  0  0  0  0  0
   10.5450    9.3780   -9.7429 C   0  0  0  0  0  0  0  0  0  0  0  0
    9.9837    8.6630  -10.7734 C   0  0  0  0  0  0  0  0  0  0  0  0
    9.5304    7.3746  -10.6222 C   0  0  0  0  0  0  0  0  0  0  0  0
    9.6416    6.7712   -9.3884 C   0  0  0  0  0  0  0  0  0  0  0  0
   10.1995    7.4523   -8.3233 C   0  0  0  0  0  0  0  0  0  0  0  0
   10.4287    7.1486   -7.0790 O   0  0  0  0  0  0  0  0  0  0  0  0
   11.5847   10.1452   -7.0638 H   0  0  0  0  0  0  0  0  0  0  0  0
   10.9024   10.3884   -9.8541 H   0  0  0  0  0  0  0  0  0  0  0  0
    9.9055    9.1490  -11.7263 H   0  0  0  0  0  0  0  0  0  0  0  0
    9.0912    6.8261  -11.4440 H   0  0  0  0  0  0  0  0  0  0  0  0
    9.2958    5.7486   -9.2183 H   0  0  0  0  0  0  0  0  0  0  0  0
  1  6  2  0
  2  1  1  0
  3  4  1  0
  3  2  2  0
  4  5  2  0
  5  6  1  0
  1  7  1  0
  2  8  1  0
  5  9  1  0
 10 11  2  0
 11 12  1  0
 12 13  2  0
 13 14  1  0
 14 15  2  0
 15 16  1  0
 16 17  2  0
 17 18  1  0
 18 10  1  0
 17 12  1  0
 11 19  1  0
 13 20  1  0
 14 21  1  0
 15 22  1  0
 16 23  1  0
  3 10  1  0
M  END
>  <Score>  (1) 
-8.08462

$$$$

     RDKit          3D

 25 26  0  0  0  0  0  0  0  0999 V2000
   11.8109    6.9299   -2.9700 C   0  0  0  0  0  0  0  0  0  0  0  0
   11.4362    6.8854   -4.3255 C   0  0  0  0  0  0  0  0  0  0  0  0
   11.3595    8.0871   -5.0305 C   0  0  0  0  0  0  0  0  0  0  0  0
   11.6554    9.2423   -4.3558 N   0  0  0  0  0  0  0  0  0  0  0  0
   12.0104    9.2504   -3.0600 C   0  0  0  0  0  0  0  0  0  0  0  0
   12.0896    8.1009   -2.3642 N   0  0  0  0  0  0  0  0  0  0  0  0
   11.8881    6.0367   -2.3721 H   0  0  0  0  0  0  0  0  0  0  0  0
   11.2219    5.9538   -4.7802 H   0  0  0  0  0  0  0  0  0  0  0  0
   12.2383   10.1733   -2.5524 H   0  0  0  0  0  0  0  0  0  0  0  0
   10.9797    8.1347   -6.4370 C   0  0  0  0  0  0  0  0  0  0  0  0
   11.2201    9.2834   -7.1487 C   0  0  0  0  0  0  0  0  0  0  0  0
   10.9002    9.4327   -8.4819 C   0  0  0  0  0  0  0  0  0  0  0  0
   10.3134    8.3954   -9.1449 C   0  0  0  0  0  0  0  0  0  0  0  0
    9.8904    8.5475  -10.8462 S   0  0  0  0  0  6  0  0  0  0  0  0
    8.2971    9.1572  -10.9582 N   0  0  0  0  0  0  0  0  0  0  0  0
    9.9607    7.1739  -11.4522 O   0  0  0  0  0  0  0  0  0  0  0  0
   10.8112    9.5045  -11.5253 O   0  0  0  0  0  0  0  0  0  0  0  0
   10.0606    7.2301   -8.4546 C   0  0  0  0  0  0  0  0  0  0  0  0
   10.3894    7.0884   -7.1001 C   0  0  0  0  0  0  0  0  0  0  0  0
   11.6904   10.1250   -6.6308 H   0  0  0  0  0  0  0  0  0  0  0  0
   11.1206   10.3584   -8.9613 H   0  0  0  0  0  0  0  0  0  0  0  0
    8.2765   10.1423  -10.6341 H   0  0  0  0  0  0  0  0  0  0  0  0
    7.6414    8.6287  -10.3322 H   0  0  0  0  0  0  0  0  0  0  0  0
    9.6033    6.3991   -8.9404 H   0  0  0  0  0  0  0  0  0  0  0  0
   10.1810    6.1672   -6.5845 H   0  0  0  0  0  0  0  0  0  0  0  0
  1  6  2  0
  2  1  1  0
  3  4  1  0
  3  2  2  0
  4  5  2  0
  5  6  1  0
  1  7  1  0
  2  8  1  0
  5  9  1  0
 10 11  2  0
 11 12  1  0
 12 13  2  0
 13 14  1  0
 14 15  1  0
 14 16  2  0
 14 17  2  0
 13 18  1  0
 18 19  2  0
 19 10  1  0
 11 20  1  0
 12 21  1  0
 15 22  1  0
 15 23  1  0
 18 24  1  0
 19 25  1  0
  3 10  1  0
M  END
>  <Score>  (1) 
-8.08244

$$$$

     RDKit          3D

 31 32  0  0  0  0  0  0  0  0999 V2000
   11.8118    6.9302   -2.9668 C   0  0  0  0  0  0  0  0  0  0  0  0
   11.4352    6.8793   -4.3267 C   0  0  0  0  0  0  0  0  0  0  0  0
   11.3601    8.0906   -5.0294 C   0  0  0  0  0  0  0  0  0  0  0  0
   11.6545    9.2441   -4.3598 N   0  0  0  0  0  0  0  0  0  0  0  0
   12.0115    9.2534   -3.0568 C   0  0  0  0  0  0  0  0  0  0  0  0
   12.0887    8.0984   -2.3664 N   0  0  0  0  0  0  0  0  0  0  0  0
   11.8782    6.0050   -2.3971 H   0  0  0  0  0  0  0  0  0  0  0  0
   11.2134    5.9352   -4.8050 H   0  0  0  0  0  0  0  0  0  0  0  0
   12.2453   10.1598   -2.5217 H   0  0  0  0  0  0  0  0  0  0  0  0
   10.9683    8.1034   -6.4676 C   0  0  2  0  0  0  0  0  0  0  0  0
    9.9038    7.2890   -6.6222 O   0  0  0  0  0  0  0  0  0  0  0  0
    9.7451    6.5796   -7.7462 C   0  0  2  0  0  0  0  0  0  0  0  0
    8.8486    5.3777   -7.4000 C   0  0  0  0  0  0  0  0  0  0  0  0
    8.6220    4.5775   -8.4972 O   0  0  0  0  0  0  0  0  0  0  0  0
   10.9625    6.0067   -8.3836 C   0  0  1  0  0  0  0  0  0  0  0  0
   11.2524    6.7419   -9.5347 O   0  0  0  0  0  0  0  0  0  0  0  0
   12.1251    6.2189   -7.4244 C   0  0  1  0  0  0  0  0  0  0  0  0
   13.3102    5.7037   -7.9127 O   0  0  0  0  0  0  0  0  0  0  0  0
   12.1857    7.7401   -7.2748 C   0  0  2  0  0  0  0  0  0  0  0  0
   13.3694    8.1630   -6.7282 O   0  0  0  0  0  0  0  0  0  0  0  0
   10.7525    9.1866   -6.7028 H   0  0  0  0  0  0  0  0  0  0  0  0
    9.1565    7.1481   -8.5154 H   0  0  0  0  0  0  0  0  0  0  0  0
    9.4578    4.7768   -6.6681 H   0  0  0  0  0  0  0  0  0  0  0  0
    7.9118    5.7021   -6.9184 H   0  0  0  0  0  0  0  0  0  0  0  0
    8.3814    3.6699   -8.1537 H   0  0  0  0  0  0  0  0  0  0  0  0
   10.8842    4.9349   -8.6340 H   0  0  0  0  0  0  0  0  0  0  0  0
   11.1735    6.1939  -10.3608 H   0  0  0  0  0  0  0  0  0  0  0  0
   11.8155    5.7887   -6.4570 H   0  0  0  0  0  0  0  0  0  0  0  0
   13.6304    4.9785   -7.3131 H   0  0  0  0  0  0  0  0  0  0  0  0
   12.0817    8.1829   -8.2884 H   0  0  0  0  0  0  0  0  0  0  0  0
   14.1194    7.6509   -7.1068 H   0  0  0  0  0  0  0  0  0  0  0  0
  1  6  2  0
  2  1  1  0
  3  4  1  0
  3  2  2  0
  4  5  2  0
  5  6  1  0
  1  7  1  0
  2  8  1  0
  5  9  1  0
 10 11  1  0
 11 12  1  0
 12 13  1  0
 13 14  1  0
 12 15  1  0
 15 16  1  0
 15 17  1  0
 17 18  1  0
 17 19  1  0
 19 20  1  0
 19 10  1  0
 10 21  1  6
 12 22  1  6
 13 23  1  0
 13 24  1  0
 14 25  1  0
 15 26  1  6
 16 27  1  0
 17 28  1  1
 18 29  1  0
 19 30  1  6
 20 31  1  0
  3 10  1  0
M  END
>  <Score>  (1) 
-8.04929

$$$$

     RDKit          3D

 20 21  0  0  0  0  0  0  0  0999 V2000
   11.8133    6.9350   -2.9631 C   0  0  0  0  0  0  0  0  0  0  0  0
   11.4338    6.8824   -4.3331 C   0  0  0  0  0  0  0  0  0  0  0  0
   11.3606    8.0884   -5.0268 C   0  0  0  0  0  0  0  0  0  0  0  0
   11.6551    9.2420   -4.3570 N   0  0  0  0  0  0  0  0  0  0  0  0
   12.0101    9.2543   -3.0623 C   0  0  0  0  0  0  0  0  0  0  0  0
   12.0890    8.0939   -2.3637 N   0  0  0  0  0  0  0  0  0  0  0  0
   11.8817    6.0219   -2.3902 H   0  0  0  0  0  0  0  0  0  0  0  0
   11.2174    5.9454   -4.7939 H   0  0  0  0  0  0  0  0  0  0  0  0
   12.2460   10.1492   -2.5155 H   0  0  0  0  0  0  0  0  0  0  0  0
   10.9805    8.1306   -6.4326 C   0  0  0  0  0  0  0  0  0  0  0  0
   11.1635    9.2115   -7.2584 C   0  0  0  0  0  0  0  0  0  0  0  0
   10.7746    9.1838   -8.6004 C   0  0  0  0  0  0  0  0  0  0  0  0
   10.1889    8.0575   -9.1413 C   0  0  0  0  0  0  0  0  0  0  0  0
    9.6972    8.0267  -10.8438 Cl  0  0  0  0  0  0  0  0  0  0  0  0
   10.0064    6.9794   -8.3175 C   0  0  0  0  0  0  0  0  0  0  0  0
    9.2690    5.5353   -8.9630 Cl  0  0  0  0  0  0  0  0  0  0  0  0
   10.3916    7.0133   -6.9971 C   0  0  0  0  0  0  0  0  0  0  0  0
   11.6135   10.0927   -6.8644 H   0  0  0  0  0  0  0  0  0  0  0  0
   10.9217   10.0388   -9.2458 H   0  0  0  0  0  0  0  0  0  0  0  0
   10.2308    6.1330   -6.3663 H   0  0  0  0  0  0  0  0  0  0  0  0
  1  6  2  0
  2  1  1  0
  3  4  1  0
  3  2  2  0
  4  5  2  0
  5  6  1  0
  1  7  1  0
  2  8  1  0
  5  9  1  0
 10 11  2  0
 11 12  1  0
 12 13  2  0
 13 14  1  0
 13 15  1  0
 15 16  1  0
 15 17  2  0
 17 10  1  0
 11 18  1  0
 12 19  1  0
 17 20  1  0
  3 10  1  0
M  END
>  <Score>  (1) 
-8.04887

$$$$

     RDKit          3D

 26 28  0  0  0  0  0  0  0  0999 V2000
   11.8118    6.9297   -2.9669 C   0  0  0  0  0  0  0  0  0  0  0  0
   11.4352    6.8797   -4.3269 C   0  0  0  0  0  0  0  0  0  0  0  0
   11.3606    8.0923   -5.0285 C   0  0  0  0  0  0  0  0  0  0  0  0
   11.6537    9.2420   -4.3623 N   0  0  0  0  0  0  0  0  0  0  0  0
   12.0120    9.2528   -3.0550 C   0  0  0  0  0  0  0  0  0  0  0  0
   12.0888    8.0996   -2.3665 N   0  0  0  0  0  0  0  0  0  0  0  0
   11.8749    5.9956   -2.4056 H   0  0  0  0  0  0  0  0  0  0  0  0
   11.2119    5.9645   -4.8208 H   0  0  0  0  0  0  0  0  0  0  0  0
   12.2449   10.1579   -2.5225 H   0  0  0  0  0  0  0  0  0  0  0  0
   10.9884    8.1019   -6.3935 N   0  0  0  0  0  0  0  0  0  0  0  0
   10.8730    9.2691   -7.2274 C   0  0  0  0  0  0  0  0  0  0  0  0
   10.6085    8.7661   -8.5893 C   0  0  0  0  0  0  0  0  0  0  0  0
   10.4810    9.4361   -9.7838 C   0  0  0  0  0  0  0  0  0  0  0  0
   10.2275    8.7540  -10.9725 C   0  0  0  0  0  0  0  0  0  0  0  0
   10.1014    7.3788  -10.9525 C   0  0  0  0  0  0  0  0  0  0  0  0
   10.2370    6.7402   -9.7268 C   0  0  0  0  0  0  0  0  0  0  0  0
   10.4849    7.3930   -8.5564 C   0  0  0  0  0  0  0  0  0  0  0  0
   10.6620    6.9330   -7.1746 C   0  0  0  0  0  0  0  0  0  0  0  0
   11.8556    9.7854   -7.2272 H   0  0  0  0  0  0  0  0  0  0  0  0
   10.0510    9.9498   -6.9061 H   0  0  0  0  0  0  0  0  0  0  0  0
   10.5689   10.5093   -9.8645 H   0  0  0  0  0  0  0  0  0  0  0  0
   10.1244    9.2591  -11.9157 H   0  0  0  0  0  0  0  0  0  0  0  0
    9.9039    6.8412  -11.8747 H   0  0  0  0  0  0  0  0  0  0  0  0
   10.1334    5.6497   -9.7338 H   0  0  0  0  0  0  0  0  0  0  0  0
    9.7906    6.3779   -6.7703 H   0  0  0  0  0  0  0  0  0  0  0  0
   11.5480    6.2373   -7.1133 H   0  0  0  0  0  0  0  0  0  0  0  0
  1  6  2  0
  2  1  1  0
  3  4  1  0
  3  2  2  0
  4  5  2  0
  5  6  1  0
  1  7  1  0
  2  8  1  0
  5  9  1  0
 10 11  1  0
 11 12  1  0
 12 13  2  0
 13 14  1  0
 14 15  2  0
 15 16  1  0
 16 17  2  0
 17 18  1  0
 18 10  1  0
 17 12  1  0
 11 19  1  0
 11 20  1  0
 13 21  1  0
 14 22  1  0
 15 23  1  0
 16 24  1  0
 18 25  1  0
 18 26  1  0
  3 10  1  0
M  END
>  <Score>  (1) 
-8.03473

$$$$

     RDKit          3D

 32 33  0  0  0  0  0  0  0  0999 V2000
   11.8119    6.9311   -2.9670 C   0  0  0  0  0  0  0  0  0  0  0  0
   11.4353    6.8788   -4.3264 C   0  0  0  0  0  0  0  0  0  0  0  0
   11.3606    8.0925   -5.0283 C   0  0  0  0  0  0  0  0  0  0  0  0
   11.6537    9.2424   -4.3624 N   0  0  0  0  0  0  0  0  0  0  0  0
   12.0120    9.2536   -3.0553 C   0  0  0  0  0  0  0  0  0  0  0  0
   12.0886    8.0976   -2.3666 N   0  0  0  0  0  0  0  0  0  0  0  0
   11.8791    6.0314   -2.4030 H   0  0  0  0  0  0  0  0  0  0  0  0
   11.2122    5.9535   -4.8159 H   0  0  0  0  0  0  0  0  0  0  0  0
   12.2341   10.2020   -2.5779 H   0  0  0  0  0  0  0  0  0  0  0  0
   10.9968    8.0489   -6.3441 O   0  0  0  0  0  0  0  0  0  0  0  0
   11.8727    8.5361   -7.3446 C   0  0  2  0  0  0  0  0  0  0  0  0
   11.2149    9.5217   -8.0352 O   0  0  0  0  0  0  0  0  0  0  0  0
   11.0021    9.1578   -9.3400 C   0  0  1  0  0  0  0  0  0  0  0  0
   10.0802   10.0843  -10.0840 C   0  0  0  0  0  0  0  0  0  0  0  0
   10.5276   11.3774  -10.1496 O   0  0  0  0  0  0  0  0  0  0  0  0
   12.3575    9.0386  -10.0105 C   0  0  2  0  0  0  0  0  0  0  0  0
   12.2890    9.0592  -11.3795 O   0  0  0  0  0  0  0  0  0  0  0  0
   12.9659    7.7516   -9.4671 C   0  0  1  0  0  0  0  0  0  0  0  0
   14.3419    7.8588   -9.3239 O   0  0  0  0  0  0  0  0  0  0  0  0
   12.2829    7.3597   -8.1892 C   0  0  1  0  0  0  0  0  0  0  0  0
   13.2374    6.6429   -7.4296 O   0  0  0  0  0  0  0  0  0  0  0  0
   12.8161    8.9176   -6.8628 H   0  0  0  0  0  0  0  0  0  0  0  0
   10.5112    8.1520   -9.3406 H   0  0  0  0  0  0  0  0  0  0  0  0
    9.8903    9.6225  -11.0818 H   0  0  0  0  0  0  0  0  0  0  0  0
    9.1095   10.0759   -9.5470 H   0  0  0  0  0  0  0  0  0  0  0  0
   11.4949   11.4823  -10.2819 H   0  0  0  0  0  0  0  0  0  0  0  0
   13.0361    9.8741   -9.6857 H   0  0  0  0  0  0  0  0  0  0  0  0
   12.2710    8.1386  -11.7061 H   0  0  0  0  0  0  0  0  0  0  0  0
   12.7779    6.9752  -10.2275 H   0  0  0  0  0  0  0  0  0  0  0  0
   14.6016    8.6260   -8.7598 H   0  0  0  0  0  0  0  0  0  0  0  0
   11.4533    6.6339   -8.3566 H   0  0  0  0  0  0  0  0  0  0  0  0
   13.9947    7.2265   -7.1766 H   0  0  0  0  0  0  0  0  0  0  0  0
  1  6  2  0
  2  1  1  0
  3  4  1  0
  3  2  2  0
  4  5  2  0
  5  6  1  0
  1  7  1  0
  2  8  1  0
  5  9  1  0
 10 11  1  0
 11 12  1  0
 12 13  1  0
 13 14  1  0
 14 15  1  0
 13 16  1  0
 16 17  1  0
 16 18  1  0
 18 19  1  0
 18 20  1  0
 20 21  1  0
 20 11  1  0
 11 22  1  1
 13 23  1  1
 14 24  1  0
 14 25  1  0
 15 26  1  0
 16 27  1  1
 17 28  1  0
 18 29  1  6
 19 30  1  0
 20 31  1  6
 21 32  1  0
  3 10  1  0
M  END
>  <Score>  (1) 
-8.02674

$$$$

     RDKit          3D

 22 24  0  0  0  0  0  0  0  0999 V2000
   12.3024    8.1237   -2.3021 C   0  0  0  0  0  0  0  0  0  0  0  0
   12.0217    6.8835   -2.9124 C   0  0  0  0  0  0  0  0  0  0  0  0
   11.5243    6.8968   -4.2250 C   0  0  0  0  0  0  0  0  0  0  0  0
   11.3429    8.1128   -4.8304 N   0  0  0  0  0  0  0  0  0  0  0  0
   11.6221    9.2736   -4.2159 C   0  0  0  0  0  0  0  0  0  0  0  0
   12.1016    9.2805   -2.9523 N   0  0  0  0  0  0  0  0  0  0  0  0
   12.6825    8.0528   -1.2924 H   0  0  0  0  0  0  0  0  0  0  0  0
   12.1872    5.9723   -2.3808 H   0  0  0  0  0  0  0  0  0  0  0  0
   11.3035    5.9719   -4.7105 H   0  0  0  0  0  0  0  0  0  0  0  0
   11.4162   10.5612   -4.8936 C   0  0  0  0  0  0  0  0  0  0  0  0
   12.2723   11.0056   -5.8734 C   0  0  0  0  0  0  0  0  0  0  0  0
   12.0823   12.2181   -6.5145 C   0  0  0  0  0  0  0  0  0  0  0  0
   12.6982   12.9169   -7.4677 N   0  0  0  0  0  0  0  0  0  0  0  0
   12.0519   14.0578   -7.6950 N   0  0  0  0  0  0  0  0  0  0  0  0
   10.9692   14.1367   -6.8758 C   0  0  0  0  0  0  0  0  0  0  0  0
   10.2643   14.9598   -6.8479 H   0  0  0  0  0  0  0  0  0  0  0  0
   10.9938   12.9745   -6.1343 C   0  0  0  0  0  0  0  0  0  0  0  0
   10.1553   12.4985   -5.1480 C   0  0  0  0  0  0  0  0  0  0  0  0
   10.3625   11.3143   -4.5391 N   0  0  0  0  0  0  0  0  0  0  0  0
   13.1206   10.4150   -6.1689 H   0  0  0  0  0  0  0  0  0  0  0  0
   13.5744   12.5777   -7.9504 H   0  0  0  0  0  0  0  0  0  0  0  0
    9.3055   13.1313   -4.8788 H   0  0  0  0  0  0  0  0  0  0  0  0
  2  1  2  0
  3  2  1  0
  4  3  2  0
  4  5  1  0
  5  6  2  0
  6  1  1  0
  1  7  1  0
  2  8  1  0
  3  9  1  0
 10 11  2  0
 11 12  1  0
 12 13  1  0
 13 14  1  0
 14 15  2  0
 15 16  1  0
 15 17  1  0
 17 18  1  0
 18 19  2  0
 19 10  1  0
 17 12  2  0
 11 20  1  0
 13 21  1  0
 18 22  1  0
  5 10  1  0
M  END
>  <Score>  (1) 
-7.70221

$$$$

     RDKit          3D

 32 33  0  0  0  0  0  0  0  0999 V2000
   11.8116    6.9301   -2.9675 C   0  0  0  0  0  0  0  0  0  0  0  0
   11.4355    6.8779   -4.3254 C   0  0  0  0  0  0  0  0  0  0  0  0
   11.3604    8.0934   -5.0293 C   0  0  0  0  0  0  0  0  0  0  0  0
   11.6538    9.2426   -4.3619 N   0  0  0  0  0  0  0  0  0  0  0  0
   12.0119    9.2529   -3.0554 C   0  0  0  0  0  0  0  0  0  0  0  0
   12.0888    8.0990   -2.3665 N   0  0  0  0  0  0  0  0  0  0  0  0
   11.8627    5.9792   -2.4446 H   0  0  0  0  0  0  0  0  0  0  0  0
   11.2118    5.9509   -4.8164 H   0  0  0  0  0  0  0  0  0  0  0  0
   12.2457   10.1599   -2.5203 H   0  0  0  0  0  0  0  0  0  0  0  0
   10.9953    8.0637   -6.3549 O   0  0  0  0  0  0  0  0  0  0  0  0
   11.7314    7.3649   -7.3117 C   0  0  2  0  0  0  0  0  0  0  0  0
   12.0095    8.1852   -8.3671 O   0  0  0  0  0  0  0  0  0  0  0  0
   12.6303    7.6126   -9.4371 C   0  0  1  0  0  0  0  0  0  0  0  0
   14.0853    7.2856   -9.1891 C   0  0  0  0  0  0  0  0  0  0  0  0
   14.7773    8.4794   -8.8805 O   0  0  0  0  0  0  0  0  0  0  0  0
   11.9651    6.3686   -9.9796 C   0  0  2  0  0  0  0  0  0  0  0  0
   10.7829    6.7299  -10.6243 O   0  0  0  0  0  0  0  0  0  0  0  0
   11.7027    5.4579   -8.8002 C   0  0  2  0  0  0  0  0  0  0  0  0
   11.1040    4.2659   -9.1784 O   0  0  0  0  0  0  0  0  0  0  0  0
   10.8202    6.2497   -7.8433 C   0  0  2  0  0  0  0  0  0  0  0  0
    9.8164    6.9065   -8.5764 O   0  0  0  0  0  0  0  0  0  0  0  0
   12.5951    6.8763   -6.8504 H   0  0  0  0  0  0  0  0  0  0  0  0
   12.6361    8.3898  -10.2581 H   0  0  0  0  0  0  0  0  0  0  0  0
   14.5627    6.8939  -10.1093 H   0  0  0  0  0  0  0  0  0  0  0  0
   14.2574    6.5722   -8.3818 H   0  0  0  0  0  0  0  0  0  0  0  0
   14.5391    9.1341   -9.5942 H   0  0  0  0  0  0  0  0  0  0  0  0
   12.6799    5.8891  -10.6699 H   0  0  0  0  0  0  0  0  0  0  0  0
   10.1863    5.9557  -10.7097 H   0  0  0  0  0  0  0  0  0  0  0  0
   12.6686    5.3041   -8.2810 H   0  0  0  0  0  0  0  0  0  0  0  0
   11.6549    3.5317   -8.7860 H   0  0  0  0  0  0  0  0  0  0  0  0
   10.4209    5.6359   -7.0363 H   0  0  0  0  0  0  0  0  0  0  0  0
    9.6379    7.8061   -8.2265 H   0  0  0  0  0  0  0  0  0  0  0  0
  1  6  2  0
  2  1  1  0
  3  4  1  0
  3  2  2  0
  4  5  2  0
  5  6  1  0
  1  7  1  0
  2  8  1  0
  5  9  1  0
 10 11  1  0
 11 12  1  0
 12 13  1  0
 13 14  1  0
 14 15  1  0
 13 16  1  0
 16 17  1  0
 16 18  1  0
 18 19  1  0
 18 20  1  0
 20 21  1  0
 20 11  1  0
 11 22  1  1
 13 23  1  6
 14 24  1  0
 14 25  1  0
 15 26  1  0
 16 27  1  6
 17 28  1  0
 18 29  1  1
 19 30  1  0
 20 31  1  1
 21 32  1  0
  3 10  1  0
M  END
>  <Score>  (1) 
-8.02628

$$$$

     RDKit          3D

 23 25  0  0  0  0  0  0  0  0999 V2000
   11.8117    6.9280   -2.9663 C   0  0  0  0  0  0  0  0  0  0  0  0
   11.4355    6.8879   -4.3287 C   0  0  0  0  0  0  0  0  0  0  0  0
   11.3599    8.0867   -5.0291 C   0  0  0  0  0  0  0  0  0  0  0  0
   11.6546    9.2409   -4.3584 N   0  0  0  0  0  0  0  0  0  0  0  0
   12.0112    9.2517   -3.0577 C   0  0  0  0  0  0  0  0  0  0  0  0
   12.0891    8.1009   -2.3658 N   0  0  0  0  0  0  0  0  0  0  0  0
   11.8679    5.9902   -2.4297 H   0  0  0  0  0  0  0  0  0  0  0  0
   11.2190    5.9381   -4.7852 H   0  0  0  0  0  0  0  0  0  0  0  0
   12.2474   10.1552   -2.5125 H   0  0  0  0  0  0  0  0  0  0  0  0
   10.9799    8.1379   -6.4375 C   0  0  0  0  0  0  0  0  0  0  0  0
   11.7762    8.6335   -7.4098 C   0  0  0  0  0  0  0  0  0  0  0  0
   11.3647    8.6573   -8.7291 C   0  0  0  0  0  0  0  0  0  0  0  0
   10.1283    8.1779   -9.1083 C   0  0  0  0  0  0  0  0  0  0  0  0
    9.3254    7.6759   -8.1132 C   0  0  0  0  0  0  0  0  0  0  0  0
    9.7408    7.6546   -6.7995 C   0  0  0  0  0  0  0  0  0  0  0  0
    8.1444    7.2611   -8.7551 O   0  0  0  0  0  0  0  0  0  0  0  0
    8.4325    7.1716  -10.1501 C   0  0  0  0  0  0  0  0  0  0  0  0
    9.5013    8.0973  -10.3576 O   0  0  0  0  0  0  0  0  0  0  0  0
   12.7568    9.0218   -7.1619 H   0  0  0  0  0  0  0  0  0  0  0  0
   12.0341    9.0653   -9.4903 H   0  0  0  0  0  0  0  0  0  0  0  0
    9.0655    7.2465   -6.0536 H   0  0  0  0  0  0  0  0  0  0  0  0
    7.5856    7.5199  -10.7511 H   0  0  0  0  0  0  0  0  0  0  0  0
    8.8052    6.1798  -10.4284 H   0  0  0  0  0  0  0  0  0  0  0  0
  1  6  2  0
  2  1  1  0
  3  4  1  0
  3  2  2  0
  4  5  2  0
  5  6  1  0
  1  7  1  0
  2  8  1  0
  5  9  1  0
 10 11  2  0
 11 12  1  0
 12 13  2  0
 13 14  1  0
 14 15  2  0
 14 16  1  0
 16 17  1  0
 17 18  1  0
 15 10  1  0
 18 13  1  0
 11 19  1  0
 12 20  1  0
 15 21  1  0
 17 22  1  0
 17 23  1  0
  3 10  1  0
M  END
>  <Score>  (1) 
-8.02005

$$$$

     RDKit          3D

 22 24  0  0  0  0  0  0  0  0999 V2000
   11.8108    6.9284   -2.9700 C   0  0  0  0  0  0  0  0  0  0  0  0
   11.4370    6.8768   -4.3193 C   0  0  0  0  0  0  0  0  0  0  0  0
   11.3623    8.1015   -5.0254 C   0  0  0  0  0  0  0  0  0  0  0  0
   11.6532    9.2416   -4.3637 N   0  0  0  0  0  0  0  0  0  0  0  0
   12.0099    9.2498   -3.0617 C   0  0  0  0  0  0  0  0  0  0  0  0
   12.0888    8.0979   -2.3659 N   0  0  0  0  0  0  0  0  0  0  0  0
   11.8719    6.0094   -2.4216 H   0  0  0  0  0  0  0  0  0  0  0  0
   11.2139    5.9594   -4.8116 H   0  0  0  0  0  0  0  0  0  0  0  0
   12.2411   10.1526   -2.5347 H   0  0  0  0  0  0  0  0  0  0  0  0
   10.9797    8.1061   -6.4268 C   0  0  0  0  0  0  0  0  0  0  0  0
   10.2891    7.4489   -7.1803 N   0  0  0  0  0  0  0  0  0  0  0  0
   10.0908    7.6550   -8.4502 C   0  0  0  0  0  0  0  0  0  0  0  0
    9.2982    6.9075   -9.3337 C   0  0  0  0  0  0  0  0  0  0  0  0
    9.2066    7.2709  -10.6359 C   0  0  0  0  0  0  0  0  0  0  0  0
    9.8516    8.3557  -11.1893 C   0  0  0  0  0  0  0  0  0  0  0  0
   10.6401    9.1039  -10.3229 C   0  0  0  0  0  0  0  0  0  0  0  0
   10.7337    8.7447   -9.0241 C   0  0  0  0  0  0  0  0  0  0  0  0
   11.6004    9.3911   -7.6024 S   0  0  0  0  0  0  0  0  0  0  0  0
    8.7454    6.0339   -9.0095 H   0  0  0  0  0  0  0  0  0  0  0  0
    8.5863    6.6857  -11.3269 H   0  0  0  0  0  0  0  0  0  0  0  0
    9.7648    8.6214  -12.2134 H   0  0  0  0  0  0  0  0  0  0  0  0
   11.1921    9.9795  -10.6554 H   0  0  0  0  0  0  0  0  0  0  0  0
  1  6  2  0
  2  1  1  0
  3  4  1  0
  3  2  2  0
  4  5  2  0
  5  6  1  0
  1  7  1  0
  2  8  1  0
  5  9  1  0
 10 11  2  0
 11 12  1  0
 12 13  2  0
 13 14  1  0
 14 15  2  0
 15 16  1  0
 16 17  2  0
 17 18  1  0
 18 10  1  0
 17 12  1  0
 13 19  1  0
 14 20  1  0
 15 21  1  0
 16 22  1  0
  3 10  1  0
M  END
>  <Score>  (1) 
-8.00747

$$$$

     RDKit          3D

 21 22  0  0  0  0  0  0  0  0999 V2000
   11.8127    6.9304   -2.9637 C   0  0  0  0  0  0  0  0  0  0  0  0
   11.4349    6.8862   -4.3304 C   0  0  0  0  0  0  0  0  0  0  0  0
   11.3602    8.0898   -5.0288 C   0  0  0  0  0  0  0  0  0  0  0  0
   11.6534    9.2379   -4.3617 N   0  0  0  0  0  0  0  0  0  0  0  0
   12.0120    9.2547   -3.0557 C   0  0  0  0  0  0  0  0  0  0  0  0
   12.0888    8.0970   -2.3656 N   0  0  0  0  0  0  0  0  0  0  0  0
   11.8727    5.9989   -2.4149 H   0  0  0  0  0  0  0  0  0  0  0  0
   11.2216    5.9545   -4.7817 H   0  0  0  0  0  0  0  0  0  0  0  0
   12.2374   10.1914   -2.5620 H   0  0  0  0  0  0  0  0  0  0  0  0
   10.9799    8.1360   -6.4368 C   0  0  0  0  0  0  0  0  0  0  0  0
   11.1689    9.2161   -7.2379 C   0  0  0  0  0  0  0  0  0  0  0  0
   10.8020    9.2504   -8.5828 C   0  0  0  0  0  0  0  0  0  0  0  0
   10.2175    8.1219   -9.1156 C   0  0  0  0  0  0  0  0  0  0  0  0
    9.8273    8.1273  -10.5033 C   0  0  0  0  0  0  0  0  0  0  0  0
    9.5299    8.1391  -11.6313 N   0  0  0  0  0  0  0  0  0  0  0  0
   10.0186    7.0171   -8.3162 C   0  0  0  0  0  0  0  0  0  0  0  0
    9.2795    5.5783   -8.9739 Cl  0  0  0  0  0  0  0  0  0  0  0  0
   10.3921    7.0134   -6.9898 C   0  0  0  0  0  0  0  0  0  0  0  0
   11.6269   10.1203   -6.8470 H   0  0  0  0  0  0  0  0  0  0  0  0
   10.9802   10.1479   -9.1728 H   0  0  0  0  0  0  0  0  0  0  0  0
   10.2332    6.1329   -6.3539 H   0  0  0  0  0  0  0  0  0  0  0  0
  1  6  2  0
  2  1  1  0
  3  4  1  0
  3  2  2  0
  4  5  2  0
  5  6  1  0
  1  7  1  0
  2  8  1  0
  5  9  1  0
 10 11  2  0
 11 12  1  0
 12 13  2  0
 13 14  1  0
 14 15  3  0
 13 16  1  0
 16 17  1  0
 16 18  2  0
 18 10  1  0
 11 19  1  0
 12 20  1  0
 18 21  1  0
  3 10  1  0
M  END
>  <Score>  (1) 
-8.00461

$$$$

     RDKit          3D

 25 26  0  0  0  0  0  0  0  0999 V2000
   11.8122    6.9326   -2.9662 C   0  0  0  0  0  0  0  0  0  0  0  0
   11.4338    6.8883   -4.3353 C   0  0  0  0  0  0  0  0  0  0  0  0
   11.3618    8.0866   -5.0220 C   0  0  0  0  0  0  0  0  0  0  0  0
   11.6523    9.2353   -4.3647 N   0  0  0  0  0  0  0  0  0  0  0  0
   12.0126    9.2546   -3.0533 C   0  0  0  0  0  0  0  0  0  0  0  0
   12.0893    8.0986   -2.3645 N   0  0  0  0  0  0  0  0  0  0  0  0
   11.8593    5.9815   -2.4578 H   0  0  0  0  0  0  0  0  0  0  0  0
   11.2265    5.9246   -4.7533 H   0  0  0  0  0  0  0  0  0  0  0  0
   12.2279   10.2148   -2.6050 H   0  0  0  0  0  0  0  0  0  0  0  0
    9.1114    5.7921   -9.9576 H   0  0  0  0  0  0  0  0  0  0  0  0
    9.4073    5.8156   -8.9225 C   0  0  0  0  0  0  0  0  0  0  0  0
    9.2203    4.8134   -8.2046 O   0  0  0  0  0  0  0  0  0  0  0  0
   10.0148    6.9931   -8.3655 C   0  0  0  0  0  0  0  0  0  0  0  0
   10.2468    8.1446   -9.1278 C   0  0  0  0  0  0  0  0  0  0  0  0
   10.8317    9.2365   -8.5339 C   0  0  0  0  0  0  0  0  0  0  0  0
   11.2011    9.2356   -7.1990 C   0  0  0  0  0  0  0  0  0  0  0  0
   11.8212   10.4530   -6.6529 C   0  0  0  0  0  0  0  0  0  0  0  0
   10.9819    8.1042   -6.4184 C   0  0  0  0  0  0  0  0  0  0  0  0
   10.3946    7.0287   -7.0437 C   0  0  0  0  0  0  0  0  0  0  0  0
    9.9444    8.1071  -10.1677 H   0  0  0  0  0  0  0  0  0  0  0  0
   10.9899   10.1063   -9.1717 H   0  0  0  0  0  0  0  0  0  0  0  0
   12.8456   10.2144   -6.3357 H   0  0  0  0  0  0  0  0  0  0  0  0
   11.9228   11.2220   -7.4758 H   0  0  0  0  0  0  0  0  0  0  0  0
   11.2476   10.9292   -5.8292 H   0  0  0  0  0  0  0  0  0  0  0  0
   10.1963    6.1123   -6.4861 H   0  0  0  0  0  0  0  0  0  0  0  0
  1  6  2  0
  2  1  1  0
  3  4  1  0
  3  2  2  0
  4  5  2  0
  5  6  1  0
  1  7  1  0
  2  8  1  0
  5  9  1  0
 10 11  1  0
 11 12  2  0
 11 13  1  0
 13 14  2  0
 14 15  1  0
 15 16  2  0
 16 17  1  0
 16 18  1  0
 18 19  2  0
 19 13  1  0
 14 20  1  0
 15 21  1  0
 17 22  1  0
 17 23  1  0
 17 24  1  0
 19 25  1  0
  3 18  1  0
M  END
>  <Score>  (1) 
-8.0037

$$$$

     RDKit          3D

 31 32  0  0  0  0  0  0  0  0999 V2000
   11.8118    6.9299   -2.9669 C   0  0  0  0  0  0  0  0  0  0  0  0
   11.4353    6.8801   -4.3269 C   0  0  0  0  0  0  0  0  0  0  0  0
   11.3602    8.0909   -5.0293 C   0  0  0  0  0  0  0  0  0  0  0  0
   11.6543    9.2430   -4.3604 N   0  0  0  0  0  0  0  0  0  0  0  0
   12.0117    9.2533   -3.0563 C   0  0  0  0  0  0  0  0  0  0  0  0
   12.0888    8.0989   -2.3663 N   0  0  0  0  0  0  0  0  0  0  0  0
   11.8756    6.0169   -2.4108 H   0  0  0  0  0  0  0  0  0  0  0  0
   11.2139    5.9567   -4.8106 H   0  0  0  0  0  0  0  0  0  0  0  0
   12.2220   10.2063   -2.6233 H   0  0  0  0  0  0  0  0  0  0  0  0
   10.9786    8.1444   -6.4447 C   0  0  2  0  0  0  0  0  0  0  0  0
   10.9638    9.4487   -6.9590 O   0  0  0  0  0  0  0  0  0  0  0  0
   11.0395    9.3217   -8.3366 C   0  0  2  0  0  0  0  0  0  0  0  0
   11.5165   10.5751   -9.0157 C   0  0  0  0  0  0  0  0  0  0  0  0
   11.5668   10.3738  -10.3943 O   0  0  0  0  0  0  0  0  0  0  0  0
    9.7644    8.7862   -8.8815 C   0  0  2  0  0  0  0  0  0  0  0  0
    8.7096    9.6623   -8.8406 O   0  0  0  0  0  0  0  0  0  0  0  0
    9.4563    7.4684   -8.2194 C   0  0  2  0  0  0  0  0  0  0  0  0
    8.1332    7.1122   -8.5656 O   0  0  0  0  0  0  0  0  0  0  0  0
    9.6541    7.4835   -6.7355 C   0  0  2  0  0  0  0  0  0  0  0  0
    8.6095    8.0913   -6.0492 O   0  0  0  0  0  0  0  0  0  0  0  0
   11.7438    7.5974   -7.0411 H   0  0  0  0  0  0  0  0  0  0  0  0
   11.8330    8.5421   -8.5286 H   0  0  0  0  0  0  0  0  0  0  0  0
   10.8764   11.4496   -8.8187 H   0  0  0  0  0  0  0  0  0  0  0  0
   12.5498   10.8252   -8.7019 H   0  0  0  0  0  0  0  0  0  0  0  0
   12.1773    9.6163  -10.6031 H   0  0  0  0  0  0  0  0  0  0  0  0
    9.9434    8.5480   -9.9712 H   0  0  0  0  0  0  0  0  0  0  0  0
    7.9572    9.2300   -9.3557 H   0  0  0  0  0  0  0  0  0  0  0  0
   10.1470    6.7115   -8.6447 H   0  0  0  0  0  0  0  0  0  0  0  0
    7.9624    6.2187   -8.1784 H   0  0  0  0  0  0  0  0  0  0  0  0
    9.7370    6.4309   -6.3829 H   0  0  0  0  0  0  0  0  0  0  0  0
    8.5370    7.6898   -5.1352 H   0  0  0  0  0  0  0  0  0  0  0  0
  1  6  2  0
  2  1  1  0
  3  4  1  0
  3  2  2  0
  4  5  2  0
  5  6  1  0
  1  7  1  0
  2  8  1  0
  5  9  1  0
 10 11  1  0
 11 12  1  0
 12 13  1  0
 13 14  1  0
 12 15  1  0
 15 16  1  0
 15 17  1  0
 17 18  1  0
 17 19  1  0
 19 20  1  0
 19 10  1  0
 10 21  1  6
 12 22  1  1
 13 23  1  0
 13 24  1  0
 14 25  1  0
 15 26  1  6
 16 27  1  0
 17 28  1  6
 18 29  1  0
 19 30  1  1
 20 31  1  0
  3 10  1  0
M  END
>  <Score>  (1) 
-8.00273

$$$$

     RDKit          3D

 26 28  0  0  0  0  0  0  0  0999 V2000
   11.8114    6.9279   -2.9677 C   0  0  0  0  0  0  0  0  0  0  0  0
   11.4355    6.8827   -4.3269 C   0  0  0  0  0  0  0  0  0  0  0  0
   11.3609    8.0942   -5.0279 C   0  0  0  0  0  0  0  0  0  0  0  0
   11.6521    9.2369   -4.3660 N   0  0  0  0  0  0  0  0  0  0  0  0
   12.0129    9.2520   -3.0515 C   0  0  0  0  0  0  0  0  0  0  0  0
   12.0892    8.1022   -2.3660 N   0  0  0  0  0  0  0  0  0  0  0  0
   11.8541    5.9817   -2.4770 H   0  0  0  0  0  0  0  0  0  0  0  0
   11.2145    5.9358   -4.8011 H   0  0  0  0  0  0  0  0  0  0  0  0
   12.2429   10.1692   -2.5341 H   0  0  0  0  0  0  0  0  0  0  0  0
   10.9767    8.0775   -6.4279 C   0  0  0  0  0  0  0  0  0  0  0  0
   11.2017    7.0947   -7.2991 N   0  0  0  0  0  0  0  0  0  0  0  0
   10.7134    7.4070   -8.5125 C   0  0  0  0  0  0  0  0  0  0  0  0
   10.6918    6.7458   -9.7173 C   0  0  0  0  0  0  0  0  0  0  0  0
   10.0979    7.3529  -10.8049 C   0  0  0  0  0  0  0  0  0  0  0  0
    9.5233    8.6084  -10.7175 C   0  0  0  0  0  0  0  0  0  0  0  0
    9.5477    9.2649   -9.5110 C   0  0  0  0  0  0  0  0  0  0  0  0
   10.1447    8.6605   -8.4078 C   0  0  0  0  0  0  0  0  0  0  0  0
   10.3255    9.0333   -7.1255 N   0  0  0  0  0  0  0  0  0  0  0  0
    9.8840   10.2808   -6.5782 C   0  0  0  0  0  0  0  0  0  0  0  0
   11.1322    5.7635   -9.8177 H   0  0  0  0  0  0  0  0  0  0  0  0
   10.0907    6.8084  -11.7591 H   0  0  0  0  0  0  0  0  0  0  0  0
    9.0533    9.0817  -11.5911 H   0  0  0  0  0  0  0  0  0  0  0  0
    9.1140   10.2457   -9.3891 H   0  0  0  0  0  0  0  0  0  0  0  0
    9.4635   10.2140   -5.5616 H   0  0  0  0  0  0  0  0  0  0  0  0
   10.7153   11.0286   -6.6559 H   0  0  0  0  0  0  0  0  0  0  0  0
    9.0666   10.6792   -7.2143 H   0  0  0  0  0  0  0  0  0  0  0  0
  1  6  2  0
  2  1  1  0
  3  4  1  0
  3  2  2  0
  4  5  2  0
  5  6  1  0
  1  7  1  0
  2  8  1  0
  5  9  1  0
 10 11  2  0
 11 12  1  0
 12 13  2  0
 13 14  1  0
 14 15  2  0
 15 16  1  0
 16 17  2  0
 17 18  1  0
 18 19  1  0
 18 10  1  0
 17 12  1  0
 13 20  1  0
 14 21  1  0
 15 22  1  0
 16 23  1  0
 19 24  1  0
 19 25  1  0
 19 26  1  0
  3 10  1  0
M  END
>  <Score>  (1) 
-7.99948

$$$$

     RDKit          3D

 31 32  0  0  0  0  0  0  0  0999 V2000
   11.8120    6.9301   -2.9663 C   0  0  0  0  0  0  0  0  0  0  0  0
   11.4352    6.8800   -4.3269 C   0  0  0  0  0  0  0  0  0  0  0  0
   11.3600    8.0901   -5.0299 C   0  0  0  0  0  0  0  0  0  0  0  0
   11.6548    9.2440   -4.3586 N   0  0  0  0  0  0  0  0  0  0  0  0
   12.0113    9.2533   -3.0576 C   0  0  0  0  0  0  0  0  0  0  0  0
   12.0887    8.0985   -2.3667 N   0  0  0  0  0  0  0  0  0  0  0  0
   11.8540    5.9728   -2.4742 H   0  0  0  0  0  0  0  0  0  0  0  0
   11.2111    5.9721   -4.8255 H   0  0  0  0  0  0  0  0  0  0  0  0
   12.2378   10.1849   -2.5582 H   0  0  0  0  0  0  0  0  0  0  0  0
   10.9673    8.1069   -6.4747 C   0  0  2  0  0  0  0  0  0  0  0  0
    9.9099    7.2946   -6.6433 O   0  0  0  0  0  0  0  0  0  0  0  0
    9.6964    6.7043   -7.8435 C   0  0  2  0  0  0  0  0  0  0  0  0
    8.9055    5.4306   -7.6151 C   0  0  0  0  0  0  0  0  0  0  0  0
    8.6266    4.7418   -8.7680 O   0  0  0  0  0  0  0  0  0  0  0  0
   10.9101    6.3499   -8.6404 C   0  0  2  0  0  0  0  0  0  0  0  0
   10.8563    5.0716   -9.1875 O   0  0  0  0  0  0  0  0  0  0  0  0
   12.1855    6.4661   -7.7958 C   0  0  1  0  0  0  0  0  0  0  0  0
   13.2779    6.2641   -8.6400 O   0  0  0  0  0  0  0  0  0  0  0  0
   12.1716    7.8953   -7.2999 C   0  0  2  0  0  0  0  0  0  0  0  0
   13.3221    8.2075   -6.5897 O   0  0  0  0  0  0  0  0  0  0  0  0
   10.6170    9.1674   -6.6596 H   0  0  0  0  0  0  0  0  0  0  0  0
    9.0505    7.3658   -8.4699 H   0  0  0  0  0  0  0  0  0  0  0  0
    9.4878    4.7984   -6.8837 H   0  0  0  0  0  0  0  0  0  0  0  0
    7.9464    5.6613   -7.0652 H   0  0  0  0  0  0  0  0  0  0  0  0
    7.6549    4.5603   -8.8427 H   0  0  0  0  0  0  0  0  0  0  0  0
   11.0568    7.0599   -9.4794 H   0  0  0  0  0  0  0  0  0  0  0  0
   10.5010    5.1443  -10.1018 H   0  0  0  0  0  0  0  0  0  0  0  0
   12.1775    5.7174   -7.0058 H   0  0  0  0  0  0  0  0  0  0  0  0
   13.5002    7.1295   -9.0650 H   0  0  0  0  0  0  0  0  0  0  0  0
   12.1293    8.5446   -8.2115 H   0  0  0  0  0  0  0  0  0  0  0  0
   13.9854    8.5745   -7.2294 H   0  0  0  0  0  0  0  0  0  0  0  0
  1  6  2  0
  2  1  1  0
  3  4  1  0
  3  2  2  0
  4  5  2  0
  5  6  1  0
  1  7  1  0
  2  8  1  0
  5  9  1  0
 10 11  1  0
 11 12  1  0
 12 13  1  0
 13 14  1  0
 12 15  1  0
 15 16  1  0
 15 17  1  0
 17 18  1  0
 17 19  1  0
 19 20  1  0
 19 10  1  0
 10 21  1  6
 12 22  1  6
 13 23  1  0
 13 24  1  0
 14 25  1  0
 15 26  1  6
 16 27  1  0
 17 28  1  1
 18 29  1  0
 19 30  1  6
 20 31  1  0
  3 10  1  0
M  END
>  <Score>  (1) 
-7.99361

$$$$

     RDKit          3D

 31 33  0  0  0  0  0  0  0  0999 V2000
   11.8110    6.9290   -2.9696 C   0  0  0  0  0  0  0  0  0  0  0  0
   11.4352    6.8829   -4.3282 C   0  0  0  0  0  0  0  0  0  0  0  0
   11.3607    8.0872   -5.0261 C   0  0  0  0  0  0  0  0  0  0  0  0
   11.6537    9.2432   -4.3625 N   0  0  0  0  0  0  0  0  0  0  0  0
   12.0122    9.2528   -3.0542 C   0  0  0  0  0  0  0  0  0  0  0  0
   12.0892    8.1009   -2.3655 N   0  0  0  0  0  0  0  0  0  0  0  0
   11.8668    5.9915   -2.4343 H   0  0  0  0  0  0  0  0  0  0  0  0
   11.2230    5.9401   -4.7714 H   0  0  0  0  0  0  0  0  0  0  0  0
   12.2267   10.2119   -2.6083 H   0  0  0  0  0  0  0  0  0  0  0  0
   10.9883    8.0965   -6.3920 N   0  0  0  0  0  0  0  0  0  0  0  0
   11.6725    8.8625   -7.3698 C   0  0  0  0  0  0  0  0  0  0  0  0
   12.7371    9.6649   -7.1573 N   0  0  0  0  0  0  0  0  0  0  0  0
   13.1393   10.2337   -8.2602 N   0  0  0  0  0  0  0  0  0  0  0  0
   12.3362    9.8159   -9.2556 C   0  0  0  0  0  0  0  0  0  0  0  0
   11.4048    8.9516   -8.7189 C   0  0  0  0  0  0  0  0  0  0  0  0
   10.5175    8.4921   -9.8272 C   0  0  0  0  0  0  0  0  0  0  0  0
   10.6771    9.5600  -10.8267 N   0  0  0  0  0  0  0  0  0  0  0  0
   10.0614   10.3689  -10.5293 H   0  0  0  0  0  0  0  0  0  0  0  0
   12.0566    9.9148  -10.6903 C   0  0  0  0  0  0  0  0  0  0  0  0
   12.3242   11.3286  -11.1672 C   0  0  0  0  0  0  0  0  0  0  0  0
   12.8973    8.9926  -11.5318 C   0  0  0  0  0  0  0  0  0  0  0  0
   10.1804    7.5209   -6.7019 H   0  0  0  0  0  0  0  0  0  0  0  0
   13.9599   10.9058   -8.3349 H   0  0  0  0  0  0  0  0  0  0  0  0
   10.9528    7.5617  -10.2275 H   0  0  0  0  0  0  0  0  0  0  0  0
    9.4736    8.3941   -9.5156 H   0  0  0  0  0  0  0  0  0  0  0  0
   11.6177   12.0626  -10.7298 H   0  0  0  0  0  0  0  0  0  0  0  0
   12.3571   11.3782  -12.2731 H   0  0  0  0  0  0  0  0  0  0  0  0
   13.3319   11.6082  -10.8045 H   0  0  0  0  0  0  0  0  0  0  0  0
   13.8868    8.7831  -11.1107 H   0  0  0  0  0  0  0  0  0  0  0  0
   12.4049    8.0070  -11.7039 H   0  0  0  0  0  0  0  0  0  0  0  0
   13.0600    9.4459  -12.5533 H   0  0  0  0  0  0  0  0  0  0  0  0
  1  6  2  0
  2  1  1  0
  3  4  1  0
  3  2  2  0
  4  5  2  0
  5  6  1  0
  1  7  1  0
  2  8  1  0
  5  9  1  0
 10 11  1  0
 11 12  2  0
 12 13  1  0
 13 14  1  0
 14 15  2  0
 15 16  1  0
 16 17  1  0
 17 18  1  0
 17 19  1  0
 19 20  1  0
 19 21  1  0
 15 11  1  0
 19 14  1  0
 10 22  1  0
 13 23  1  0
 16 24  1  0
 16 25  1  0
 20 26  1  0
 20 27  1  0
 20 28  1  0
 21 29  1  0
 21 30  1  0
 21 31  1  0
  3 10  1  0
M  END
>  <Score>  (1) 
-7.99306

$$$$

     RDKit          3D

 25 27  0  0  0  0  0  0  0  0999 V2000
   11.8120    6.9305   -2.9662 C   0  0  0  0  0  0  0  0  0  0  0  0
   11.4355    6.8815   -4.3266 C   0  0  0  0  0  0  0  0  0  0  0  0
   11.3593    8.0865   -5.0311 C   0  0  0  0  0  0  0  0  0  0  0  0
   11.6561    9.2473   -4.3552 N   0  0  0  0  0  0  0  0  0  0  0  0
   12.0105    9.2532   -3.0604 C   0  0  0  0  0  0  0  0  0  0  0  0
   12.0886    8.0970   -2.3665 N   0  0  0  0  0  0  0  0  0  0  0  0
   11.8783    6.0229   -2.4033 H   0  0  0  0  0  0  0  0  0  0  0  0
   11.2131    5.9410   -4.8080 H   0  0  0  0  0  0  0  0  0  0  0  0
   12.2432   10.1695   -2.5328 H   0  0  0  0  0  0  0  0  0  0  0  0
   10.9887    8.1166   -6.3977 N   0  0  0  0  0  0  0  0  0  0  0  0
   10.9288    9.3657   -7.0583 C   0  0  0  0  0  0  0  0  0  0  0  0
   11.2185   10.5177   -6.4055 N   0  0  0  0  0  0  0  0  0  0  0  0
   11.1644   11.7050   -7.0232 C   0  0  0  0  0  0  0  0  0  0  0  0
   11.3950   12.6329   -6.5077 H   0  0  0  0  0  0  0  0  0  0  0  0
   10.8215   11.8162   -8.3172 N   0  0  0  0  0  0  0  0  0  0  0  0
   10.5219   10.7348   -9.0308 C   0  0  0  0  0  0  0  0  0  0  0  0
   10.1739   10.8882  -10.3582 C   0  0  0  0  0  0  0  0  0  0  0  0
    9.8797    9.7678  -11.0385 N   0  0  0  0  0  0  0  0  0  0  0  0
    9.9119    8.5549  -10.4921 C   0  0  0  0  0  0  0  0  0  0  0  0
   10.2648    8.4063   -9.1484 C   0  0  0  0  0  0  0  0  0  0  0  0
   10.5762    9.4967   -8.3944 C   0  0  0  0  0  0  0  0  0  0  0  0
   10.7766    7.2255   -6.8586 H   0  0  0  0  0  0  0  0  0  0  0  0
   10.1289   11.8433  -10.8605 H   0  0  0  0  0  0  0  0  0  0  0  0
    9.6771    7.6375  -11.0266 H   0  0  0  0  0  0  0  0  0  0  0  0
   10.2886    7.4242   -8.7140 H   0  0  0  0  0  0  0  0  0  0  0  0
  1  6  2  0
  2  1  1  0
  3  4  1  0
  3  2  2  0
  4  5  2  0
  5  6  1  0
  1  7  1  0
  2  8  1  0
  5  9  1  0
 10 11  1  0
 11 12  2  0
 12 13  1  0
 13 14  1  0
 13 15  2  0
 15 16  1  0
 16 17  2  0
 17 18  1  0
 18 19  2  0
 19 20  1  0
 20 21  2  0
 21 11  1  0
 21 16  1  0
 10 22  1  0
 17 23  1  0
 19 24  1  0
 20 25  1  0
  3 10  1  0
M  END
>  <Score>  (1) 
-7.99274

$$$$

     RDKit          3D

 27 28  0  0  0  0  0  0  0  0999 V2000
   12.3025    8.1249   -2.3017 C   0  0  0  0  0  0  0  0  0  0  0  0
   12.0210    6.8826   -2.9141 C   0  0  0  0  0  0  0  0  0  0  0  0
   11.5246    6.8973   -4.2242 C   0  0  0  0  0  0  0  0  0  0  0  0
   11.3424    8.1092   -4.8315 N   0  0  0  0  0  0  0  0  0  0  0  0
   11.6232    9.2764   -4.2131 C   0  0  0  0  0  0  0  0  0  0  0  0
   12.1012    9.2806   -2.9533 N   0  0  0  0  0  0  0  0  0  0  0  0
   12.6824    8.1093   -1.2985 H   0  0  0  0  0  0  0  0  0  0  0  0
   12.1752    5.9595   -2.4109 H   0  0  0  0  0  0  0  0  0  0  0  0
   11.2940    5.9759   -4.7360 H   0  0  0  0  0  0  0  0  0  0  0  0
   11.4221   10.5860   -4.8806 C   0  0  2  0  0  0  0  0  0  0  0  0
   10.4416   10.4375   -6.0432 C   0  0  0  0  0  0  0  0  0  0  0  0
   10.1006   11.8561   -6.4918 C   0  0  0  0  0  0  0  0  0  0  0  0
   11.3655   12.5911   -6.8389 C   0  0  1  0  0  0  0  0  0  0  0  0
   11.5868   13.5635   -5.8380 O   0  0  0  0  0  0  0  0  0  0  0  0
   12.5754   11.6820   -6.8068 C   0  0  0  0  0  0  0  0  0  0  0  0
   12.7093   11.1705   -5.3917 C   0  0  0  0  0  0  0  0  0  0  0  0
   10.9189   11.2877   -4.1649 H   0  0  0  0  0  0  0  0  0  0  0  0
    9.5370    9.9196   -5.6956 H   0  0  0  0  0  0  0  0  0  0  0  0
   10.9081    9.8857   -6.8663 H   0  0  0  0  0  0  0  0  0  0  0  0
    9.3915   11.8302   -7.3284 H   0  0  0  0  0  0  0  0  0  0  0  0
    9.5648   12.3234   -5.6255 H   0  0  0  0  0  0  0  0  0  0  0  0
   11.2697   13.1170   -7.8126 H   0  0  0  0  0  0  0  0  0  0  0  0
   12.5537   13.7892   -5.8635 H   0  0  0  0  0  0  0  0  0  0  0  0
   12.5430   10.8917   -7.5590 H   0  0  0  0  0  0  0  0  0  0  0  0
   13.4617   12.3266   -6.9982 H   0  0  0  0  0  0  0  0  0  0  0  0
   13.0020   12.0331   -4.7628 H   0  0  0  0  0  0  0  0  0  0  0  0
   13.5076   10.3783   -5.3796 H   0  0  0  0  0  0  0  0  0  0  0  0
  2  1  2  0
  3  2  1  0
  4  3  2  0
  4  5  1  0
  5  6  2  0
  6  1  1  0
  1  7  1  0
  2  8  1  0
  3  9  1  0
 10 11  1  0
 11 12  1  0
 12 13  1  0
 13 14  1  0
 13 15  1  0
 15 16  1  0
 16 10  1  0
 10 17  1  1
 11 18  1  0
 11 19  1  0
 12 20  1  0
 12 21  1  0
 13 22  1  6
 14 23  1  0
 15 24  1  0
 15 25  1  0
 16 26  1  0
 16 27  1  0
  5 10  1  0
M  END
>  <Score>  (1) 
-7.6983

$$$$

     RDKit          3D

 26 27  0  0  0  0  0  0  0  0999 V2000
   11.8101    6.9249   -2.9714 C   0  0  0  0  0  0  0  0  0  0  0  0
   11.4364    6.8876   -4.3255 C   0  0  0  0  0  0  0  0  0  0  0  0
   11.3602    8.0872   -5.0281 C   0  0  0  0  0  0  0  0  0  0  0  0
   11.6543    9.2406   -4.3595 N   0  0  0  0  0  0  0  0  0  0  0  0
   12.0112    9.2534   -3.0580 C   0  0  0  0  0  0  0  0  0  0  0  0
   12.0899    8.1023   -2.3634 N   0  0  0  0  0  0  0  0  0  0  0  0
   11.8840    6.0386   -2.3877 H   0  0  0  0  0  0  0  0  0  0  0  0
   11.2177    5.9430   -4.7919 H   0  0  0  0  0  0  0  0  0  0  0  0
   12.2240   10.2217   -2.6214 H   0  0  0  0  0  0  0  0  0  0  0  0
   10.9818    8.1427   -6.4322 C   0  0  0  0  0  0  0  0  0  0  0  0
    9.9008    7.3943   -6.8565 C   0  0  0  0  0  0  0  0  0  0  0  0
    9.5028    7.4119   -8.1715 C   0  0  0  0  0  0  0  0  0  0  0  0
   10.1455    8.1632   -9.1309 C   0  0  0  0  0  0  0  0  0  0  0  0
    9.5591    8.1095  -10.7547 S   0  0  0  0  0  6  0  0  0  0  0  0
   10.3001    6.8476  -11.7328 C   0  0  0  0  0  0  0  0  0  0  0  0
    9.7745    9.4246  -11.4716 O   0  0  0  0  0  0  0  0  0  0  0  0
    8.0617    7.9008  -10.6992 O   0  0  0  0  0  0  0  0  0  0  0  0
   11.2198    8.9084   -8.7154 C   0  0  0  0  0  0  0  0  0  0  0  0
   11.6295    8.8938   -7.3752 C   0  0  0  0  0  0  0  0  0  0  0  0
    9.3374    6.7704   -6.1525 H   0  0  0  0  0  0  0  0  0  0  0  0
    8.6419    6.8087   -8.4809 H   0  0  0  0  0  0  0  0  0  0  0  0
   11.0346    7.2861  -12.4699 H   0  0  0  0  0  0  0  0  0  0  0  0
   10.8471    6.0911  -11.1430 H   0  0  0  0  0  0  0  0  0  0  0  0
    9.5094    6.3859  -12.3607 H   0  0  0  0  0  0  0  0  0  0  0  0
   11.7418    9.5034   -9.4347 H   0  0  0  0  0  0  0  0  0  0  0  0
   12.4866    9.4978   -7.0809 H   0  0  0  0  0  0  0  0  0  0  0  0
  1  6  2  0
  2  1  1  0
  3  4  1  0
  3  2  2  0
  4  5  2  0
  5  6  1  0
  1  7  1  0
  2  8  1  0
  5  9  1  0
 10 11  2  0
 11 12  1  0
 12 13  2  0
 13 14  1  0
 14 15  1  0
 14 16  2  0
 14 17  2  0
 13 18  1  0
 18 19  2  0
 19 10  1  0
 11 20  1  0
 12 21  1  0
 15 22  1  0
 15 23  1  0
 15 24  1  0
 18 25  1  0
 19 26  1  0
  3 10  1  0
M  END
>  <Score>  (1) 
-7.98199

$$$$

     RDKit          3D

 31 32  0  0  0  0  0  0  0  0999 V2000
   11.8110    6.9286   -2.9691 C   0  0  0  0  0  0  0  0  0  0  0  0
   11.4357    6.8787   -4.3248 C   0  0  0  0  0  0  0  0  0  0  0  0
   11.3602    8.0918   -5.0297 C   0  0  0  0  0  0  0  0  0  0  0  0
   11.6542    9.2435   -4.3609 N   0  0  0  0  0  0  0  0  0  0  0  0
   12.0119    9.2524   -3.0553 C   0  0  0  0  0  0  0  0  0  0  0  0
   12.0890    8.1010   -2.3662 N   0  0  0  0  0  0  0  0  0  0  0  0
   11.8718    5.9951   -2.4170 H   0  0  0  0  0  0  0  0  0  0  0  0
   11.2150    5.9326   -4.7982 H   0  0  0  0  0  0  0  0  0  0  0  0
   12.2411   10.1749   -2.5426 H   0  0  0  0  0  0  0  0  0  0  0  0
   10.9783    8.1197   -6.4368 C   0  0  2  0  0  0  0  0  0  0  0  0
   11.9974    7.6846   -7.2713 O   0  0  0  0  0  0  0  0  0  0  0  0
   11.6115    7.5206   -8.5767 C   0  0  1  0  0  0  0  0  0  0  0  0
   10.8840    6.1984   -8.7621 C   0  0  0  0  0  0  0  0  0  0  0  0
   10.4960    6.0398  -10.0882 O   0  0  0  0  0  0  0  0  0  0  0  0
   10.8719    8.6766   -9.1671 C   0  0  1  0  0  0  0  0  0  0  0  0
   10.3272    8.2814  -10.3811 O   0  0  0  0  0  0  0  0  0  0  0  0
    9.8339    9.2677   -8.2362 C   0  0  2  0  0  0  0  0  0  0  0  0
    9.3838   10.4646   -8.7716 O   0  0  0  0  0  0  0  0  0  0  0  0
   10.5782    9.5051   -6.9143 C   0  0  1  0  0  0  0  0  0  0  0  0
    9.7963   10.1765   -6.0051 O   0  0  0  0  0  0  0  0  0  0  0  0
   10.0905    7.4723   -6.5981 H   0  0  0  0  0  0  0  0  0  0  0  0
   12.5628    7.4112   -9.1783 H   0  0  0  0  0  0  0  0  0  0  0  0
   11.6462    5.3917   -8.5638 H   0  0  0  0  0  0  0  0  0  0  0  0
   10.0751    6.0413   -8.0503 H   0  0  0  0  0  0  0  0  0  0  0  0
   11.2447    5.7491  -10.6681 H   0  0  0  0  0  0  0  0  0  0  0  0
   11.6306    9.4950   -9.3362 H   0  0  0  0  0  0  0  0  0  0  0  0
   10.9428    8.5011  -11.1497 H   0  0  0  0  0  0  0  0  0  0  0  0
    9.0246    8.5506   -8.0157 H   0  0  0  0  0  0  0  0  0  0  0  0
    8.7967   10.9615   -8.1583 H   0  0  0  0  0  0  0  0  0  0  0  0
   11.4993   10.0609   -7.1951 H   0  0  0  0  0  0  0  0  0  0  0  0
   10.2404   11.0535   -5.8269 H   0  0  0  0  0  0  0  0  0  0  0  0
  1  6  2  0
  2  1  1  0
  3  4  1  0
  3  2  2  0
  4  5  2  0
  5  6  1  0
  1  7  1  0
  2  8  1  0
  5  9  1  0
 10 11  1  0
 11 12  1  0
 12 13  1  0
 13 14  1  0
 12 15  1  0
 15 16  1  0
 15 17  1  0
 17 18  1  0
 17 19  1  0
 19 20  1  0
 19 10  1  0
 10 21  1  1
 12 22  1  6
 13 23  1  0
 13 24  1  0
 14 25  1  0
 15 26  1  6
 16 27  1  0
 17 28  1  1
 18 29  1  0
 19 30  1  6
 20 31  1  0
  3 10  1  0
M  END
>  <Score>  (1) 
-7.97112

$$$$

     RDKit          3D

 22 23  0  0  0  0  0  0  0  0999 V2000
   11.8128    6.9304   -2.9634 C   0  0  0  0  0  0  0  0  0  0  0  0
   11.4346    6.8879   -4.3320 C   0  0  0  0  0  0  0  0  0  0  0  0
   11.3605    8.0882   -5.0271 C   0  0  0  0  0  0  0  0  0  0  0  0
   11.6539    9.2380   -4.3600 N   0  0  0  0  0  0  0  0  0  0  0  0
   12.0112    9.2558   -3.0589 C   0  0  0  0  0  0  0  0  0  0  0  0
   12.0890    8.0957   -2.3645 N   0  0  0  0  0  0  0  0  0  0  0  0
   11.8755    6.0003   -2.4055 H   0  0  0  0  0  0  0  0  0  0  0  0
   11.2140    5.9787   -4.8181 H   0  0  0  0  0  0  0  0  0  0  0  0
   12.2355   10.1968   -2.5707 H   0  0  0  0  0  0  0  0  0  0  0  0
   11.0592    5.9333  -10.4566 H   0  0  0  0  0  0  0  0  0  0  0  0
   11.3027    5.9527   -9.4161 C   0  0  0  0  0  0  0  0  0  0  0  0
   11.8864    4.9803   -8.9018 O   0  0  0  0  0  0  0  0  0  0  0  0
   10.9603    7.0957   -8.6046 C   0  0  0  0  0  0  0  0  0  0  0  0
   11.2782    7.1072   -7.2725 C   0  0  0  0  0  0  0  0  0  0  0  0
   10.9805    8.1642   -6.4445 C   0  0  0  0  0  0  0  0  0  0  0  0
   10.3414    9.2337   -6.9980 C   0  0  0  0  0  0  0  0  0  0  0  0
   10.0065    9.2447   -8.3565 C   0  0  0  0  0  0  0  0  0  0  0  0
   10.3162    8.1750   -9.1598 C   0  0  0  0  0  0  0  0  0  0  0  0
   10.0197    8.1243  -10.4796 F   0  0  0  0  0  0  0  0  0  0  0  0
   11.7823    6.2498   -6.8632 H   0  0  0  0  0  0  0  0  0  0  0  0
   10.0882   10.0865   -6.3833 H   0  0  0  0  0  0  0  0  0  0  0  0
    9.5038   10.0853   -8.7929 H   0  0  0  0  0  0  0  0  0  0  0  0
  1  6  2  0
  2  1  1  0
  3  4  1  0
  3  2  2  0
  4  5  2  0
  5  6  1  0
  1  7  1  0
  2  8  1  0
  5  9  1  0
 10 11  1  0
 11 12  2  0
 11 13  1  0
 13 14  2  0
 14 15  1  0
 15 16  2  0
 16 17  1  0
 17 18  2  0
 18 19  1  0
 18 13  1  0
 14 20  1  0
 16 21  1  0
 17 22  1  0
  3 15  1  0
M  END
>  <Score>  (1) 
-7.94918

$$$$

     RDKit          3D

 25 27  0  0  0  0  0  0  0  0999 V2000
   11.8115    6.9288   -2.9675 C   0  0  0  0  0  0  0  0  0  0  0  0
   11.4352    6.8787   -4.3265 C   0  0  0  0  0  0  0  0  0  0  0  0
   11.3615    8.0961   -5.0263 C   0  0  0  0  0  0  0  0  0  0  0  0
   11.6522    9.2393   -4.3666 N   0  0  0  0  0  0  0  0  0  0  0  0
   12.0126    9.2518   -3.0523 C   0  0  0  0  0  0  0  0  0  0  0  0
   12.0889    8.1013   -2.3668 N   0  0  0  0  0  0  0  0  0  0  0  0
   11.8662    5.9811   -2.4327 H   0  0  0  0  0  0  0  0  0  0  0  0
   11.2191    5.9410   -4.7861 H   0  0  0  0  0  0  0  0  0  0  0  0
   12.2374   10.1865   -2.5603 H   0  0  0  0  0  0  0  0  0  0  0  0
   15.8355    9.0247   -9.7787 H   0  0  0  0  0  0  0  0  0  0  0  0
   15.3011    8.8995   -8.8451 C   0  0  0  0  0  0  0  0  0  0  0  0
   15.9927    8.9733   -7.7974 O   0  0  0  0  0  0  0  0  0  0  0  0
   13.8631    8.6586   -8.7923 C   0  0  0  0  0  0  0  0  0  0  0  0
   13.1317    8.5827   -9.9590 C   0  0  0  0  0  0  0  0  0  0  0  0
   11.7565    8.3506   -9.8642 C   0  0  0  0  0  0  0  0  0  0  0  0
   11.1246    8.1985   -8.6528 C   0  0  0  0  0  0  0  0  0  0  0  0
    9.8520    7.9721   -8.2696 N   0  0  0  0  0  0  0  0  0  0  0  0
    9.7661    7.9070   -6.9682 N   0  0  0  0  0  0  0  0  0  0  0  0
   10.9767    8.0871   -6.4310 C   0  0  0  0  0  0  0  0  0  0  0  0
   11.8577    8.2742   -7.4749 C   0  0  0  0  0  0  0  0  0  0  0  0
   13.2300    8.5065   -7.5899 C   0  0  0  0  0  0  0  0  0  0  0  0
   13.5880    8.6966  -10.9341 H   0  0  0  0  0  0  0  0  0  0  0  0
   11.1327    8.2819  -10.7540 H   0  0  0  0  0  0  0  0  0  0  0  0
    9.0467    7.8645   -8.9361 H   0  0  0  0  0  0  0  0  0  0  0  0
   13.8060    8.5664   -6.6750 H   0  0  0  0  0  0  0  0  0  0  0  0
  1  6  2  0
  2  1  1  0
  3  4  1  0
  3  2  2  0
  4  5  2  0
  5  6  1  0
  1  7  1  0
  2  8  1  0
  5  9  1  0
 10 11  1  0
 11 12  2  0
 11 13  1  0
 13 14  2  0
 14 15  1  0
 15 16  2  0
 16 17  1  0
 17 18  1  0
 18 19  2  0
 19 20  1  0
 20 21  2  0
 21 13  1  0
 20 16  1  0
 14 22  1  0
 15 23  1  0
 17 24  1  0
 21 25  1  0
  3 19  1  0
M  END
>  <Score>  (1) 
-7.94573

$$$$

     RDKit          3D

 20 21  0  0  0  0  0  0  0  0999 V2000
   11.8129    6.9300   -2.9628 C   0  0  0  0  0  0  0  0  0  0  0  0
   11.4340    6.8848   -4.3331 C   0  0  0  0  0  0  0  0  0  0  0  0
   11.3615    8.0903   -5.0244 C   0  0  0  0  0  0  0  0  0  0  0  0
   11.6533    9.2397   -4.3627 N   0  0  0  0  0  0  0  0  0  0  0  0
   12.0114    9.2534   -3.0575 C   0  0  0  0  0  0  0  0  0  0  0  0
   12.0889    8.0977   -2.3655 N   0  0  0  0  0  0  0  0  0  0  0  0
   11.8799    6.0108   -2.3928 H   0  0  0  0  0  0  0  0  0  0  0  0
   11.2153    5.9582   -4.8060 H   0  0  0  0  0  0  0  0  0  0  0  0
   12.2364   10.1891   -2.5649 H   0  0  0  0  0  0  0  0  0  0  0  0
   10.9812    8.1569   -6.4393 C   0  0  0  0  0  0  0  0  0  0  0  0
   11.6993    8.9521   -7.3175 C   0  0  0  0  0  0  0  0  0  0  0  0
   11.3714    9.0392   -8.6521 C   0  0  0  0  0  0  0  0  0  0  0  0
   10.3073    8.3257   -9.1419 C   0  0  0  0  0  0  0  0  0  0  0  0
    9.9458    8.3824  -10.4621 F   0  0  0  0  0  0  0  0  0  0  0  0
    9.5747    7.5296   -8.3043 C   0  0  0  0  0  0  0  0  0  0  0  0
    8.2133    6.6220   -8.9525 Cl  0  0  0  0  0  0  0  0  0  0  0  0
    9.9222    7.4576   -6.9691 C   0  0  0  0  0  0  0  0  0  0  0  0
   12.5338    9.5228   -6.9762 H   0  0  0  0  0  0  0  0  0  0  0  0
   11.9225    9.6559   -9.3510 H   0  0  0  0  0  0  0  0  0  0  0  0
    9.3217    6.8213   -6.3450 H   0  0  0  0  0  0  0  0  0  0  0  0
  1  6  2  0
  2  1  1  0
  3  4  1  0
  3  2  2  0
  4  5  2  0
  5  6  1  0
  1  7  1  0
  2  8  1  0
  5  9  1  0
 10 11  2  0
 11 12  1  0
 12 13  2  0
 13 14  1  0
 13 15  1  0
 15 16  1  0
 15 17  2  0
 17 10  1  0
 11 18  1  0
 12 19  1  0
 17 20  1  0
  3 10  1  0
M  END
>  <Score>  (1) 
-7.9366

$$$$

     RDKit          3D

 31 32  0  0  0  0  0  0  0  0999 V2000
   11.8113    6.9294   -2.9683 C   0  0  0  0  0  0  0  0  0  0  0  0
   11.4356    6.8782   -4.3250 C   0  0  0  0  0  0  0  0  0  0  0  0
   11.3603    8.0926   -5.0296 C   0  0  0  0  0  0  0  0  0  0  0  0
   11.6540    9.2432   -4.3616 N   0  0  0  0  0  0  0  0  0  0  0  0
   12.0120    9.2522   -3.0550 C   0  0  0  0  0  0  0  0  0  0  0  0
   12.0889    8.1003   -2.3666 N   0  0  0  0  0  0  0  0  0  0  0  0
   11.8826    6.0347   -2.3914 H   0  0  0  0  0  0  0  0  0  0  0  0
   11.2132    5.9496   -4.8105 H   0  0  0  0  0  0  0  0  0  0  0  0
   12.2338   10.2008   -2.5783 H   0  0  0  0  0  0  0  0  0  0  0  0
   10.9679    8.1028   -6.4689 C   0  0  1  0  0  0  0  0  0  0  0  0
    9.7157    7.5628   -6.5696 O   0  0  0  0  0  0  0  0  0  0  0  0
    9.2870    7.6069   -7.8710 C   0  0  1  0  0  0  0  0  0  0  0  0
    8.1415    6.6843   -8.1717 C   0  0  0  0  0  0  0  0  0  0  0  0
    7.8320    6.8560   -9.5384 O   0  0  0  0  0  0  0  0  0  0  0  0
    8.9484    9.0574   -8.1507 C   0  0  1  0  0  0  0  0  0  0  0  0
    8.3332    9.5885   -6.9938 O   0  0  0  0  0  0  0  0  0  0  0  0
   10.3053    9.7565   -8.2487 C   0  0  2  0  0  0  0  0  0  0  0  0
   10.9409    9.4176   -9.4425 O   0  0  0  0  0  0  0  0  0  0  0  0
   11.1253    9.4684   -7.0466 C   0  0  1  0  0  0  0  0  0  0  0  0
   10.9082   10.4532   -6.0807 O   0  0  0  0  0  0  0  0  0  0  0  0
   11.6762    7.4111   -7.0000 H   0  0  0  0  0  0  0  0  0  0  0  0
   10.1377    7.2890   -8.5240 H   0  0  0  0  0  0  0  0  0  0  0  0
    7.2510    6.8669   -7.5711 H   0  0  0  0  0  0  0  0  0  0  0  0
    8.5126    5.6433   -8.0864 H   0  0  0  0  0  0  0  0  0  0  0  0
    8.6594    6.8915  -10.0723 H   0  0  0  0  0  0  0  0  0  0  0  0
    8.3416    9.1988   -9.0472 H   0  0  0  0  0  0  0  0  0  0  0  0
    8.4408   10.5741   -6.9881 H   0  0  0  0  0  0  0  0  0  0  0  0
   10.0859   10.8475   -8.3077 H   0  0  0  0  0  0  0  0  0  0  0  0
   10.4216    8.7655   -9.9719 H   0  0  0  0  0  0  0  0  0  0  0  0
   12.2095    9.5745   -7.3479 H   0  0  0  0  0  0  0  0  0  0  0  0
   11.7389   10.8979   -5.7883 H   0  0  0  0  0  0  0  0  0  0  0  0
  1  6  2  0
  2  1  1  0
  3  4  1  0
  3  2  2  0
  4  5  2  0
  5  6  1  0
  1  7  1  0
  2  8  1  0
  5  9  1  0
 10 11  1  0
 11 12  1  0
 12 13  1  0
 13 14  1  0
 12 15  1  0
 15 16  1  0
 15 17  1  0
 17 18  1  0
 17 19  1  0
 19 20  1  0
 19 10  1  0
 10 21  1  6
 12 22  1  6
 13 23  1  0
 13 24  1  0
 14 25  1  0
 15 26  1  6
 16 27  1  0
 17 28  1  6
 18 29  1  0
 19 30  1  6
 20 31  1  0
  3 10  1  0
M  END
>  <Score>  (1) 
-7.91342

$$$$

     RDKit          3D

 23 25  0  0  0  0  0  0  0  0999 V2000
   11.8112    6.9294   -2.9689 C   0  0  0  0  0  0  0  0  0  0  0  0
   11.4358    6.8780   -4.3241 C   0  0  0  0  0  0  0  0  0  0  0  0
   11.3598    8.0915   -5.0309 C   0  0  0  0  0  0  0  0  0  0  0  0
   11.6548    9.2445   -4.3591 N   0  0  0  0  0  0  0  0  0  0  0  0
   12.0115    9.2527   -3.0567 C   0  0  0  0  0  0  0  0  0  0  0  0
   12.0889    8.0999   -2.3663 N   0  0  0  0  0  0  0  0  0  0  0  0
   11.8577    5.9920   -2.4676 H   0  0  0  0  0  0  0  0  0  0  0  0
   11.2141    5.9555   -4.8094 H   0  0  0  0  0  0  0  0  0  0  0  0
   12.2439   10.1631   -2.5279 H   0  0  0  0  0  0  0  0  0  0  0  0
   10.9898    8.1010   -6.3882 N   0  0  0  0  0  0  0  0  0  0  0  0
   11.6422    8.9166   -7.2346 C   0  0  0  0  0  0  0  0  0  0  0  0
   12.5677    9.6598   -6.8258 O   0  0  0  0  0  0  0  0  0  0  0  0
   11.3221    8.9700   -8.5849 C   0  0  0  0  0  0  0  0  0  0  0  0
   11.7496    9.6397   -9.6663 N   0  0  0  0  0  0  0  0  0  0  0  0
   11.0347    9.2634  -10.7515 C   0  0  0  0  0  0  0  0  0  0  0  0
   11.1625    9.6433  -11.7744 H   0  0  0  0  0  0  0  0  0  0  0  0
   10.1349    8.3396  -10.3660 N   0  0  0  0  0  0  0  0  0  0  0  0
   10.3044    8.1506   -9.0262 C   0  0  0  0  0  0  0  0  0  0  0  0
    9.6538    7.3365   -8.1782 N   0  0  0  0  0  0  0  0  0  0  0  0
    8.8872    6.7187   -8.5082 H   0  0  0  0  0  0  0  0  0  0  0  0
   10.0157    7.3301   -6.8623 C   0  0  0  0  0  0  0  0  0  0  0  0
    9.3675    6.5451   -6.1196 O   0  0  0  0  0  0  0  0  0  0  0  0
    9.4282    7.8392  -10.9391 H   0  0  0  0  0  0  0  0  0  0  0  0
  1  6  2  0
  2  1  1  0
  3  4  1  0
  3  2  2  0
  4  5  2  0
  5  6  1  0
  1  7  1  0
  2  8  1  0
  5  9  1  0
 10 11  1  0
 11 12  2  0
 11 13  1  0
 13 14  1  0
 14 15  2  0
 15 16  1  0
 15 17  1  0
 17 18  1  0
 18 19  1  0
 19 20  1  0
 19 21  1  0
 21 22  2  0
 21 10  1  0
 18 13  2  0
 17 23  1  0
  3 10  1  0
M  END
>  <Score>  (1) 
-7.90458

$$$$

     RDKit          3D

 22 23  0  0  0  0  0  0  0  0999 V2000
   11.8123    6.9303   -2.9651 C   0  0  0  0  0  0  0  0  0  0  0  0
   11.4342    6.8839   -4.3320 C   0  0  0  0  0  0  0  0  0  0  0  0
   11.3589    8.0852   -5.0320 C   0  0  0  0  0  0  0  0  0  0  0  0
   11.6563    9.2427   -4.3530 N   0  0  0  0  0  0  0  0  0  0  0  0
   12.0108    9.2499   -3.0584 C   0  0  0  0  0  0  0  0  0  0  0  0
   12.0895    8.1040   -2.3654 N   0  0  0  0  0  0  0  0  0  0  0  0
   11.8693    6.0113   -2.4317 H   0  0  0  0  0  0  0  0  0  0  0  0
   11.2184    5.9400   -4.7881 H   0  0  0  0  0  0  0  0  0  0  0  0
   12.2432   10.1649   -2.5326 H   0  0  0  0  0  0  0  0  0  0  0  0
   11.1721    5.1261   -9.1568 H   0  0  0  0  0  0  0  0  0  0  0  0
   11.1174    6.1191   -9.5900 C   0  0  0  0  0  0  0  0  0  0  0  0
   11.2909    6.2836  -10.8118 O   0  0  0  0  0  0  0  0  0  0  0  0
   10.8349    7.2142   -8.6684 C   0  0  0  0  0  0  0  0  0  0  0  0
   11.2256    7.1203   -7.3266 C   0  0  0  0  0  0  0  0  0  0  0  0
   10.9803    8.1225   -6.4311 C   0  0  0  0  0  0  0  0  0  0  0  0
   10.3208    9.2569   -6.8978 C   0  0  0  0  0  0  0  0  0  0  0  0
    9.9343    9.3533   -8.2184 C   0  0  0  0  0  0  0  0  0  0  0  0
   10.1832    8.3391   -9.1226 C   0  0  0  0  0  0  0  0  0  0  0  0
    9.6722    8.5089  -10.7898 Cl  0  0  0  0  0  0  0  0  0  0  0  0
   11.7284    6.2374   -7.0035 H   0  0  0  0  0  0  0  0  0  0  0  0
   10.1192   10.0636   -6.1945 H   0  0  0  0  0  0  0  0  0  0  0  0
    9.4181   10.2334   -8.5989 H   0  0  0  0  0  0  0  0  0  0  0  0
  1  6  2  0
  2  1  1  0
  3  4  1  0
  3  2  2  0
  4  5  2  0
  5  6  1  0
  1  7  1  0
  2  8  1  0
  5  9  1  0
 10 11  1  0
 11 12  2  0
 11 13  1  0
 13 14  2  0
 14 15  1  0
 15 16  2  0
 16 17  1  0
 17 18  2  0
 18 19  1  0
 18 13  1  0
 14 20  1  0
 16 21  1  0
 17 22  1  0
  3 15  1  0
M  END
>  <Score>  (1) 
-7.8941

$$$$

     RDKit          3D

 31 32  0  0  0  0  0  0  0  0999 V2000
   11.8119    6.9302   -2.9664 C   0  0  0  0  0  0  0  0  0  0  0  0
   11.4351    6.8795   -4.3274 C   0  0  0  0  0  0  0  0  0  0  0  0
   11.3604    8.0908   -5.0287 C   0  0  0  0  0  0  0  0  0  0  0  0
   11.6543    9.2437   -4.3606 N   0  0  0  0  0  0  0  0  0  0  0  0
   12.0116    9.2532   -3.0565 C   0  0  0  0  0  0  0  0  0  0  0  0
   12.0887    8.0985   -2.3664 N   0  0  0  0  0  0  0  0  0  0  0  0
   11.8729    5.9923   -2.4119 H   0  0  0  0  0  0  0  0  0  0  0  0
   11.2122    5.9523   -4.8153 H   0  0  0  0  0  0  0  0  0  0  0  0
   12.2453   10.1637   -2.5234 H   0  0  0  0  0  0  0  0  0  0  0  0
   10.9718    8.0304   -6.4293 C   0  0  2  0  0  0  0  0  0  0  0  0
    9.6906    7.4539   -6.4975 O   0  0  0  0  0  0  0  0  0  0  0  0
    9.7315    6.2234   -5.8701 C   0  0  1  0  0  0  0  0  0  0  0  0
    8.3023    5.7966   -5.6139 C   0  0  0  0  0  0  0  0  0  0  0  0
    7.5896    5.6925   -6.8062 O   0  0  0  0  0  0  0  0  0  0  0  0
   10.4513    5.2546   -6.7756 C   0  0  1  0  0  0  0  0  0  0  0  0
    9.5445    4.4174   -7.4020 O   0  0  0  0  0  0  0  0  0  0  0  0
   11.2592    5.9557   -7.8175 C   0  0  2  0  0  0  0  0  0  0  0  0
   12.2293    5.1433   -8.3668 O   0  0  0  0  0  0  0  0  0  0  0  0
   11.8832    7.2439   -7.3022 C   0  0  2  0  0  0  0  0  0  0  0  0
   13.1371    7.0106   -6.7341 O   0  0  0  0  0  0  0  0  0  0  0  0
   10.8532    9.0928   -6.7920 H   0  0  0  0  0  0  0  0  0  0  0  0
   10.2499    6.2202   -4.9048 H   0  0  0  0  0  0  0  0  0  0  0  0
    8.2824    4.8620   -5.0405 H   0  0  0  0  0  0  0  0  0  0  0  0
    7.8307    6.5855   -4.9908 H   0  0  0  0  0  0  0  0  0  0  0  0
    6.6238    5.8329   -6.6917 H   0  0  0  0  0  0  0  0  0  0  0  0
   11.1571    4.5987   -6.1870 H   0  0  0  0  0  0  0  0  0  0  0  0
   10.0152    3.7758   -7.9767 H   0  0  0  0  0  0  0  0  0  0  0  0
   10.5580    6.2244   -8.6579 H   0  0  0  0  0  0  0  0  0  0  0  0
   12.9558    4.9485   -7.7381 H   0  0  0  0  0  0  0  0  0  0  0  0
   12.0803    7.8613   -8.2277 H   0  0  0  0  0  0  0  0  0  0  0  0
   13.8287    7.6566   -7.0854 H   0  0  0  0  0  0  0  0  0  0  0  0
  1  6  2  0
  2  1  1  0
  3  4  1  0
  3  2  2  0
  4  5  2  0
  5  6  1  0
  1  7  1  0
  2  8  1  0
  5  9  1  0
 10 11  1  0
 11 12  1  0
 12 13  1  0
 13 14  1  0
 12 15  1  0
 15 16  1  0
 15 17  1  0
 17 18  1  0
 17 19  1  0
 19 20  1  0
 19 10  1  0
 10 21  1  6
 12 22  1  1
 13 23  1  0
 13 24  1  0
 14 25  1  0
 15 26  1  1
 16 27  1  0
 17 28  1  6
 18 29  1  0
 19 30  1  6
 20 31  1  0
  3 10  1  0
M  END
>  <Score>  (1) 
-7.879

$$$$

     RDKit          3D

 22 23  0  0  0  0  0  0  0  0999 V2000
   11.8127    6.9301   -2.9637 C   0  0  0  0  0  0  0  0  0  0  0  0
   11.4349    6.8860   -4.3302 C   0  0  0  0  0  0  0  0  0  0  0  0
   11.3601    8.0892   -5.0292 C   0  0  0  0  0  0  0  0  0  0  0  0
   11.6549    9.2395   -4.3570 N   0  0  0  0  0  0  0  0  0  0  0  0
   12.0104    9.2553   -3.0616 C   0  0  0  0  0  0  0  0  0  0  0  0
   12.0890    8.0959   -2.3644 N   0  0  0  0  0  0  0  0  0  0  0  0
   11.8763    6.0101   -2.4060 H   0  0  0  0  0  0  0  0  0  0  0  0
   11.2251    5.9470   -4.7661 H   0  0  0  0  0  0  0  0  0  0  0  0
   12.2270   10.2060   -2.6050 H   0  0  0  0  0  0  0  0  0  0  0  0
   10.1874    8.6402  -11.2615 H   0  0  0  0  0  0  0  0  0  0  0  0
    9.6835    8.0586  -10.5019 C   0  0  0  0  0  0  0  0  0  0  0  0
    8.7033    7.3739  -10.8996 O   0  0  0  0  0  0  0  0  0  0  0  0
   10.1130    8.0685   -9.1086 C   0  0  0  0  0  0  0  0  0  0  0  0
   11.1910    8.8354   -8.7291 C   0  0  0  0  0  0  0  0  0  0  0  0
   11.6145    8.8538   -7.3922 C   0  0  0  0  0  0  0  0  0  0  0  0
   10.9810    8.1204   -6.4270 C   0  0  0  0  0  0  0  0  0  0  0  0
    9.8964    7.3536   -6.8284 C   0  0  0  0  0  0  0  0  0  0  0  0
    9.4693    7.3285   -8.1499 C   0  0  0  0  0  0  0  0  0  0  0  0
    8.4018    6.5690   -8.5254 F   0  0  0  0  0  0  0  0  0  0  0  0
   11.7366    9.4384   -9.4399 H   0  0  0  0  0  0  0  0  0  0  0  0
   12.4531    9.4549   -7.1159 H   0  0  0  0  0  0  0  0  0  0  0  0
    9.3667    6.7537   -6.0780 H   0  0  0  0  0  0  0  0  0  0  0  0
  1  6  2  0
  2  1  1  0
  3  4  1  0
  3  2  2  0
  4  5  2  0
  5  6  1  0
  1  7  1  0
  2  8  1  0
  5  9  1  0
 10 11  1  0
 11 12  2  0
 11 13  1  0
 13 14  2  0
 14 15  1  0
 15 16  2  0
 16 17  1  0
 17 18  2  0
 18 19  1  0
 18 13  1  0
 14 20  1  0
 15 21  1  0
 17 22  1  0
  3 16  1  0
M  END
>  <Score>  (1) 
-7.8458

$$$$

     RDKit          3D

 20 21  0  0  0  0  0  0  0  0999 V2000
   12.3027    8.1220   -2.3009 C   0  0  0  0  0  0  0  0  0  0  0  0
   12.0207    6.8847   -2.9150 C   0  0  0  0  0  0  0  0  0  0  0  0
   11.5251    6.8959   -4.2228 C   0  0  0  0  0  0  0  0  0  0  0  0
   11.3428    8.1125   -4.8307 N   0  0  0  0  0  0  0  0  0  0  0  0
   11.6233    9.2743   -4.2128 C   0  0  0  0  0  0  0  0  0  0  0  0
   12.1003    9.2816   -2.9558 N   0  0  0  0  0  0  0  0  0  0  0  0
   12.6833    8.0821   -1.2933 H   0  0  0  0  0  0  0  0  0  0  0  0
   12.1882    5.9627   -2.3769 H   0  0  0  0  0  0  0  0  0  0  0  0
   11.2946    5.9719   -4.7339 H   0  0  0  0  0  0  0  0  0  0  0  0
   11.4234   10.5606   -4.8744 C   0  0  0  0  0  0  0  0  0  0  0  0
   11.1099   11.7024   -4.1629 C   0  0  0  0  0  0  0  0  0  0  0  0
   10.9195   12.9219   -4.7829 C   0  0  0  0  0  0  0  0  0  0  0  0
   11.0335   13.0612   -6.1491 C   0  0  0  0  0  0  0  0  0  0  0  0
   10.8466   14.2636   -6.7681 F   0  0  0  0  0  0  0  0  0  0  0  0
   11.3461   11.9274   -6.8676 C   0  0  0  0  0  0  0  0  0  0  0  0
   11.4622   12.0427   -8.2063 F   0  0  0  0  0  0  0  0  0  0  0  0
   11.5346   10.7129   -6.2403 C   0  0  0  0  0  0  0  0  0  0  0  0
   11.0153   11.6127   -3.0810 H   0  0  0  0  0  0  0  0  0  0  0  0
   10.6738   13.8103   -4.2126 H   0  0  0  0  0  0  0  0  0  0  0  0
   11.7820    9.8145   -6.8065 H   0  0  0  0  0  0  0  0  0  0  0  0
  2  1  2  0
  3  2  1  0
  4  3  2  0
  4  5  1  0
  5  6  2  0
  6  1  1  0
  1  7  1  0
  2  8  1  0
  3  9  1  0
 10 11  2  0
 11 12  1  0
 12 13  2  0
 13 14  1  0
 13 15  1  0
 15 16  1  0
 15 17  2  0
 17 10  1  0
 11 18  1  0
 12 19  1  0
 17 20  1  0
  5 10  1  0
M  END
>  <Score>  (1) 
-7.69755

$$$$

     RDKit          3D

 29 31  0  0  0  0  0  0  0  0999 V2000
   11.8101    6.9273   -2.9722 C   0  0  0  0  0  0  0  0  0  0  0  0
   11.4367    6.8844   -4.3232 C   0  0  0  0  0  0  0  0  0  0  0  0
   11.3629    8.0916   -5.0198 C   0  0  0  0  0  0  0  0  0  0  0  0
   11.6546    9.2419   -4.3589 N   0  0  0  0  0  0  0  0  0  0  0  0
   12.0092    9.2548   -3.0659 C   0  0  0  0  0  0  0  0  0  0  0  0
   12.0886    8.0960   -2.3660 N   0  0  0  0  0  0  0  0  0  0  0  0
   11.8545    5.9706   -2.4716 H   0  0  0  0  0  0  0  0  0  0  0  0
   11.2117    5.9795   -4.8264 H   0  0  0  0  0  0  0  0  0  0  0  0
   12.2237   10.2203   -2.6223 H   0  0  0  0  0  0  0  0  0  0  0  0
   10.9923    8.1527   -6.3973 N   0  0  0  0  0  0  0  0  0  0  0  0
   11.7877    7.4653   -7.3331 C   0  0  0  0  0  0  0  0  0  0  0  0
   12.8872    6.7617   -6.9018 N   0  0  0  0  0  0  0  0  0  0  0  0
   13.7069    6.0791   -7.6870 C   0  0  0  0  0  0  0  0  0  0  0  0
   14.5553    5.5492   -7.2635 H   0  0  0  0  0  0  0  0  0  0  0  0
   13.5019    6.0280   -9.0409 C   0  0  0  0  0  0  0  0  0  0  0  0
   12.4008    6.7238   -9.5345 C   0  0  0  0  0  0  0  0  0  0  0  0
   12.1319    6.7223  -10.8536 N   0  0  0  0  0  0  0  0  0  0  0  0
   11.0855    7.3745  -11.3857 C   0  0  0  0  0  0  0  0  0  0  0  0
   10.2624    8.0643  -10.5671 N   0  0  0  0  0  0  0  0  0  0  0  0
    9.1161    8.7902  -11.0696 C   0  0  0  0  0  0  0  0  0  0  0  0
   10.5073    8.0840   -9.2376 C   0  0  0  0  0  0  0  0  0  0  0  0
    9.7154    8.7344   -8.5428 O   0  0  0  0  0  0  0  0  0  0  0  0
   11.5779    7.4169   -8.6928 C   0  0  0  0  0  0  0  0  0  0  0  0
   10.1729    8.6925   -6.6110 H   0  0  0  0  0  0  0  0  0  0  0  0
   14.1413    5.4850   -9.7268 H   0  0  0  0  0  0  0  0  0  0  0  0
   10.8615    7.3797  -12.4390 H   0  0  0  0  0  0  0  0  0  0  0  0
    8.1519    8.3773  -10.7132 H   0  0  0  0  0  0  0  0  0  0  0  0
    9.2027    9.8315  -10.6659 H   0  0  0  0  0  0  0  0  0  0  0  0
    9.1195    8.7991  -12.1781 H   0  0  0  0  0  0  0  0  0  0  0  0
  1  6  2  0
  2  1  1  0
  3  4  1  0
  3  2  2  0
  4  5  2  0
  5  6  1  0
  1  7  1  0
  2  8  1  0
  5  9  1  0
 10 11  1  0
 11 12  2  0
 12 13  1  0
 13 14  1  0
 13 15  2  0
 15 16  1  0
 16 17  1  0
 17 18  2  0
 18 19  1  0
 19 20  1  0
 19 21  1  0
 21 22  2  0
 21 23  1  0
 23 11  1  0
 23 16  2  0
 10 24  1  0
 15 25  1  0
 18 26  1  0
 20 27  1  0
 20 28  1  0
 20 29  1  0
  3 10  1  0
M  END
>  <Score>  (1) 
-7.84261

$$$$

     RDKit          3D

 23 24  0  0  0  0  0  0  0  0999 V2000
   11.8131    6.9312   -2.9625 C   0  0  0  0  0  0  0  0  0  0  0  0
   11.4346    6.8858   -4.3314 C   0  0  0  0  0  0  0  0  0  0  0  0
   11.3606    8.0903   -5.0276 C   0  0  0  0  0  0  0  0  0  0  0  0
   11.6540    9.2385   -4.3597 N   0  0  0  0  0  0  0  0  0  0  0  0
   12.0109    9.2558   -3.0600 C   0  0  0  0  0  0  0  0  0  0  0  0
   12.0888    8.0944   -2.3648 N   0  0  0  0  0  0  0  0  0  0  0  0
   11.8522    5.9648   -2.4782 H   0  0  0  0  0  0  0  0  0  0  0  0
   11.2145    5.9475   -4.8053 H   0  0  0  0  0  0  0  0  0  0  0  0
   12.2385   10.1629   -2.5477 H   0  0  0  0  0  0  0  0  0  0  0  0
   12.0037    5.2261   -8.8829 H   0  0  0  0  0  0  0  0  0  0  0  0
   11.3177    5.8888   -9.4304 C   0  0  0  0  0  0  0  0  0  0  0  0
   10.9603    7.0806   -8.5942 C   0  0  0  0  0  0  0  0  0  0  0  0
   10.3214    8.1610   -9.1161 C   0  0  0  0  0  0  0  0  0  0  0  0
    9.9903    9.2592   -8.3525 C   0  0  0  0  0  0  0  0  0  0  0  0
   10.3371    9.2279   -7.0031 C   0  0  0  0  0  0  0  0  0  0  0  0
   10.9840    8.1574   -6.4294 C   0  0  0  0  0  0  0  0  0  0  0  0
   11.2796    7.1015   -7.2559 C   0  0  0  0  0  0  0  0  0  0  0  0
   11.7008    6.1856  -10.4125 H   0  0  0  0  0  0  0  0  0  0  0  0
   10.3847    5.3148   -9.5974 H   0  0  0  0  0  0  0  0  0  0  0  0
   10.0543    8.1731  -10.1788 H   0  0  0  0  0  0  0  0  0  0  0  0
    9.4784   10.1264   -8.7680 H   0  0  0  0  0  0  0  0  0  0  0  0
   10.0823   10.0844   -6.3935 H   0  0  0  0  0  0  0  0  0  0  0  0
   11.7927    6.2225   -6.8583 H   0  0  0  0  0  0  0  0  0  0  0  0
  1  6  2  0
  2  1  1  0
  3  4  1  0
  3  2  2  0
  4  5  2  0
  5  6  1  0
  1  7  1  0
  2  8  1  0
  5  9  1  0
 10 11  1  0
 11 12  1  0
 12 13  2  0
 13 14  1  0
 14 15  2  0
 15 16  1  0
 16 17  2  0
 17 12  1  0
 11 18  1  0
 11 19  1  0
 13 20  1  0
 14 21  1  0
 15 22  1  0
 17 23  1  0
  3 16  1  0
M  END
>  <Score>  (1) 
-7.84211

$$$$

     RDKit          3D

 20 21  0  0  0  0  0  0  0  0999 V2000
   11.8128    6.9336   -2.9645 C   0  0  0  0  0  0  0  0  0  0  0  0
   11.4352    6.8845   -4.3286 C   0  0  0  0  0  0  0  0  0  0  0  0
   11.3604    8.0878   -5.0277 C   0  0  0  0  0  0  0  0  0  0  0  0
   11.6552    9.2433   -4.3571 N   0  0  0  0  0  0  0  0  0  0  0  0
   12.0103    9.2515   -3.0607 C   0  0  0  0  0  0  0  0  0  0  0  0
   12.0881    8.0954   -2.3676 N   0  0  0  0  0  0  0  0  0  0  0  0
   11.8765    6.0273   -2.4113 H   0  0  0  0  0  0  0  0  0  0  0  0
   11.2192    5.9511   -4.7894 H   0  0  0  0  0  0  0  0  0  0  0  0
   12.2444   10.1609   -2.5255 H   0  0  0  0  0  0  0  0  0  0  0  0
   10.9796    8.1284   -6.4350 C   0  0  0  0  0  0  0  0  0  0  0  0
   10.6188    9.3394   -6.9895 C   0  0  0  0  0  0  0  0  0  0  0  0
   10.2478    9.4330   -8.3247 C   0  0  0  0  0  0  0  0  0  0  0  0
   10.2291    8.3309   -9.1282 C   0  0  0  0  0  0  0  0  0  0  0  0
    9.7576    8.4745  -10.8091 Cl  0  0  0  0  0  0  0  0  0  0  0  0
   10.5872    7.1103   -8.5903 C   0  0  0  0  0  0  0  0  0  0  0  0
   10.5651    6.0250   -9.3952 F   0  0  0  0  0  0  0  0  0  0  0  0
   10.9537    7.0362   -7.2592 C   0  0  0  0  0  0  0  0  0  0  0  0
   10.6165   10.2408   -6.3984 H   0  0  0  0  0  0  0  0  0  0  0  0
    9.9716   10.3799   -8.7357 H   0  0  0  0  0  0  0  0  0  0  0  0
   11.2235    6.0783   -6.8793 H   0  0  0  0  0  0  0  0  0  0  0  0
  1  6  2  0
  2  1  1  0
  3  4  1  0
  3  2  2  0
  4  5  2  0
  5  6  1  0
  1  7  1  0
  2  8  1  0
  5  9  1  0
 10 11  2  0
 11 12  1  0
 12 13  2  0
 13 14  1  0
 13 15  1  0
 15 16  1  0
 15 17  2  0
 17 10  1  0
 11 18  1  0
 12 19  1  0
 17 20  1  0
  3 10  1  0
M  END
>  <Score>  (1) 
-7.83939

$$$$

     RDKit          3D

 20 21  0  0  0  0  0  0  0  0999 V2000
   11.8127    6.9297   -2.9636 C   0  0  0  0  0  0  0  0  0  0  0  0
   11.4340    6.8850   -4.3332 C   0  0  0  0  0  0  0  0  0  0  0  0
   11.3606    8.0856   -5.0261 C   0  0  0  0  0  0  0  0  0  0  0  0
   11.6541    9.2437   -4.3611 N   0  0  0  0  0  0  0  0  0  0  0  0
   12.0118    9.2520   -3.0556 C   0  0  0  0  0  0  0  0  0  0  0  0
   12.0889    8.1000   -2.3664 N   0  0  0  0  0  0  0  0  0  0  0  0
   11.8810    6.0234   -2.3935 H   0  0  0  0  0  0  0  0  0  0  0  0
   11.2150    5.9656   -4.8096 H   0  0  0  0  0  0  0  0  0  0  0  0
   12.2460   10.1615   -2.5199 H   0  0  0  0  0  0  0  0  0  0  0  0
   10.9853    8.1746   -6.4305 C   0  0  0  0  0  0  0  0  0  0  0  0
   10.3891    7.1320   -7.0985 C   0  0  0  0  0  0  0  0  0  0  0  0
   10.0255    7.2079   -8.4453 C   0  0  0  0  0  0  0  0  0  0  0  0
    9.4398    6.1783   -9.0943 F   0  0  0  0  0  0  0  0  0  0  0  0
   10.2687    8.3696   -9.1455 C   0  0  0  0  0  0  0  0  0  0  0  0
   10.8662    9.4335   -8.5013 C   0  0  0  0  0  0  0  0  0  0  0  0
   11.2119    9.3244   -7.1718 C   0  0  0  0  0  0  0  0  0  0  0  0
   11.7967   10.3886   -6.5716 F   0  0  0  0  0  0  0  0  0  0  0  0
   10.1749    6.1998   -6.6018 H   0  0  0  0  0  0  0  0  0  0  0  0
    9.9876    8.4452  -10.2091 H   0  0  0  0  0  0  0  0  0  0  0  0
   11.0546   10.3473   -9.0616 H   0  0  0  0  0  0  0  0  0  0  0  0
  1  6  2  0
  2  1  1  0
  3  4  1  0
  3  2  2  0
  4  5  2  0
  5  6  1  0
  1  7  1  0
  2  8  1  0
  5  9  1  0
 10 11  2  0
 11 12  1  0
 12 13  1  0
 12 14  2  0
 14 15  1  0
 15 16  2  0
 16 17  1  0
 16 10  1  0
 11 18  1  0
 14 19  1  0
 15 20  1  0
  3 10  1  0
M  END
>  <Score>  (1) 
-7.83547

$$$$

     RDKit          3D

 26 28  0  0  0  0  0  0  0  0999 V2000
   11.8115    6.9286   -2.9675 C   0  0  0  0  0  0  0  0  0  0  0  0
   11.4355    6.8814   -4.3265 C   0  0  0  0  0  0  0  0  0  0  0  0
   11.3608    8.0944   -5.0283 C   0  0  0  0  0  0  0  0  0  0  0  0
   11.6525    9.2379   -4.3649 N   0  0  0  0  0  0  0  0  0  0  0  0
   12.0126    9.2525   -3.0528 C   0  0  0  0  0  0  0  0  0  0  0  0
   12.0891    8.1010   -2.3661 N   0  0  0  0  0  0  0  0  0  0  0  0
   11.8658    5.9856   -2.4355 H   0  0  0  0  0  0  0  0  0  0  0  0
   11.2128    5.9477   -4.8116 H   0  0  0  0  0  0  0  0  0  0  0  0
   12.2318   10.2128   -2.5902 H   0  0  0  0  0  0  0  0  0  0  0  0
   10.9877    8.1132   -6.3942 N   0  0  0  0  0  0  0  0  0  0  0  0
   11.1532    9.1912   -7.3650 C   0  0  0  0  0  0  0  0  0  0  0  0
   11.1861    8.5148   -8.6952 C   0  0  0  0  0  0  0  0  0  0  0  0
   10.4515    7.2548   -8.4806 C   0  0  0  0  0  0  0  0  0  0  0  0
    9.9025    6.3439   -9.3916 C   0  0  0  0  0  0  0  0  0  0  0  0
    9.2700    5.2484   -8.8684 C   0  0  0  0  0  0  0  0  0  0  0  0
    9.1581    5.0178   -7.5149 C   0  0  0  0  0  0  0  0  0  0  0  0
    9.7019    5.9207   -6.6335 C   0  0  0  0  0  0  0  0  0  0  0  0
   10.3611    7.0605   -7.1183 C   0  0  0  0  0  0  0  0  0  0  0  0
   12.1141    9.7324   -7.1992 H   0  0  0  0  0  0  0  0  0  0  0  0
   10.3148    9.9045   -7.3509 H   0  0  0  0  0  0  0  0  0  0  0  0
   12.2042    8.3746   -9.1020 H   0  0  0  0  0  0  0  0  0  0  0  0
   10.5941    9.1004   -9.4519 H   0  0  0  0  0  0  0  0  0  0  0  0
   10.0186    6.5730  -10.4375 H   0  0  0  0  0  0  0  0  0  0  0  0
    8.8289    4.5152   -9.5579 H   0  0  0  0  0  0  0  0  0  0  0  0
    8.6478    4.1356   -7.1543 H   0  0  0  0  0  0  0  0  0  0  0  0
    9.6270    5.7636   -5.5708 H   0  0  0  0  0  0  0  0  0  0  0  0
  1  6  2  0
  2  1  1  0
  3  4  1  0
  3  2  2  0
  4  5  2  0
  5  6  1  0
  1  7  1  0
  2  8  1  0
  5  9  1  0
 10 11  1  0
 11 12  1  0
 12 13  1  0
 13 14  2  0
 14 15  1  0
 15 16  2  0
 16 17  1  0
 17 18  2  0
 18 10  1  0
 18 13  1  0
 11 19  1  0
 11 20  1  0
 12 21  1  0
 12 22  1  0
 14 23  1  0
 15 24  1  0
 16 25  1  0
 17 26  1  0
  3 10  1  0
M  END
>  <Score>  (1) 
-7.83314

$$$$

     RDKit          3D

 32 33  0  0  0  0  0  0  0  0999 V2000
   11.8112    6.9287   -2.9685 C   0  0  0  0  0  0  0  0  0  0  0  0
   11.4355    6.8795   -4.3258 C   0  0  0  0  0  0  0  0  0  0  0  0
   11.3601    8.0904   -5.0293 C   0  0  0  0  0  0  0  0  0  0  0  0
   11.6543    9.2442   -4.3607 N   0  0  0  0  0  0  0  0  0  0  0  0
   12.0118    9.2521   -3.0554 C   0  0  0  0  0  0  0  0  0  0  0  0
   12.0890    8.1010   -2.3664 N   0  0  0  0  0  0  0  0  0  0  0  0
   11.8699    5.9948   -2.4240 H   0  0  0  0  0  0  0  0  0  0  0  0
   11.2215    5.9368   -4.7759 H   0  0  0  0  0  0  0  0  0  0  0  0
   12.2443   10.1640   -2.5268 H   0  0  0  0  0  0  0  0  0  0  0  0
   10.9966    8.0525   -6.3462 O   0  0  0  0  0  0  0  0  0  0  0  0
   11.7138    8.8152   -7.2932 C   0  0  2  0  0  0  0  0  0  0  0  0
   10.8625    9.7448   -7.8435 O   0  0  0  0  0  0  0  0  0  0  0  0
   10.2246    9.3029   -8.9984 C   0  0  1  0  0  0  0  0  0  0  0  0
    9.1239   10.2950   -9.3031 C   0  0  0  0  0  0  0  0  0  0  0  0
    8.4033    9.9821  -10.4285 O   0  0  0  0  0  0  0  0  0  0  0  0
   11.1787    9.1437  -10.1539 C   0  0  1  0  0  0  0  0  0  0  0  0
   11.1801   10.2560  -10.9770 O   0  0  0  0  0  0  0  0  0  0  0  0
   12.5511    8.8509   -9.5761 C   0  0  2  0  0  0  0  0  0  0  0  0
   13.4061    8.2734  -10.4788 O   0  0  0  0  0  0  0  0  0  0  0  0
   12.3070    7.9392   -8.3653 C   0  0  1  0  0  0  0  0  0  0  0  0
   13.4690    7.3116   -7.9912 O   0  0  0  0  0  0  0  0  0  0  0  0
   12.5444    9.3892   -6.7952 H   0  0  0  0  0  0  0  0  0  0  0  0
    9.7462    8.3148   -8.8167 H   0  0  0  0  0  0  0  0  0  0  0  0
    9.5767   11.3030   -9.4455 H   0  0  0  0  0  0  0  0  0  0  0  0
    8.4929   10.3571   -8.3871 H   0  0  0  0  0  0  0  0  0  0  0  0
    8.0877   10.8291  -10.8455 H   0  0  0  0  0  0  0  0  0  0  0  0
   10.8998    8.2731  -10.7969 H   0  0  0  0  0  0  0  0  0  0  0  0
   10.6517   10.1295  -11.7977 H   0  0  0  0  0  0  0  0  0  0  0  0
   12.9413    9.8203   -9.1998 H   0  0  0  0  0  0  0  0  0  0  0  0
   13.0636    8.1867  -11.3924 H   0  0  0  0  0  0  0  0  0  0  0  0
   11.5317    7.1841   -8.6622 H   0  0  0  0  0  0  0  0  0  0  0  0
   13.4694    6.3905   -8.3991 H   0  0  0  0  0  0  0  0  0  0  0  0
  1  6  2  0
  2  1  1  0
  3  4  1  0
  3  2  2  0
  4  5  2  0
  5  6  1  0
  1  7  1  0
  2  8  1  0
  5  9  1  0
 10 11  1  0
 11 12  1  0
 12 13  1  0
 13 14  1  0
 14 15  1  0
 13 16  1  0
 16 17  1  0
 16 18  1  0
 18 19  1  0
 18 20  1  0
 20 21  1  0
 20 11  1  0
 11 22  1  1
 13 23  1  1
 14 24  1  0
 14 25  1  0
 15 26  1  0
 16 27  1  6
 17 28  1  0
 18 29  1  1
 19 30  1  0
 20 31  1  6
 21 32  1  0
  3 10  1  0
M  END
>  <Score>  (1) 
-7.82374

$$$$

     RDKit          3D

 31 32  0  0  0  0  0  0  0  0999 V2000
   11.8114    6.9293   -2.9682 C   0  0  0  0  0  0  0  0  0  0  0  0
   11.4356    6.8789   -4.3254 C   0  0  0  0  0  0  0  0  0  0  0  0
   11.3603    8.0919   -5.0294 C   0  0  0  0  0  0  0  0  0  0  0  0
   11.6540    9.2432   -4.3613 N   0  0  0  0  0  0  0  0  0  0  0  0
   12.0119    9.2526   -3.0553 C   0  0  0  0  0  0  0  0  0  0  0  0
   12.0889    8.1000   -2.3663 N   0  0  0  0  0  0  0  0  0  0  0  0
   11.8537    5.9792   -2.4778 H   0  0  0  0  0  0  0  0  0  0  0  0
   11.2149    5.9332   -4.7986 H   0  0  0  0  0  0  0  0  0  0  0  0
   12.2358   10.1924   -2.5680 H   0  0  0  0  0  0  0  0  0  0  0  0
   10.9677    8.0996   -6.4686 C   0  0  1  0  0  0  0  0  0  0  0  0
    9.6495    8.2160   -6.6501 O   0  0  0  0  0  0  0  0  0  0  0  0
    9.1061    9.3017   -7.2114 C   0  0  2  0  0  0  0  0  0  0  0  0
    7.8013    8.8527   -7.8953 C   0  0  0  0  0  0  0  0  0  0  0  0
    7.1583    9.9017   -8.5082 O   0  0  0  0  0  0  0  0  0  0  0  0
    9.9003   10.0325   -8.2318 C   0  0  2  0  0  0  0  0  0  0  0  0
    9.1945   10.2395   -9.4182 O   0  0  0  0  0  0  0  0  0  0  0  0
   11.2331    9.3495   -8.5513 C   0  0  2  0  0  0  0  0  0  0  0  0
   11.0493    8.1841   -9.2612 O   0  0  0  0  0  0  0  0  0  0  0  0
   11.8452    9.0960   -7.1707 C   0  0  2  0  0  0  0  0  0  0  0  0
   13.1341    8.6015   -7.3804 O   0  0  0  0  0  0  0  0  0  0  0  0
   11.2834    7.0889   -6.8694 H   0  0  0  0  0  0  0  0  0  0  0  0
    8.7566   10.0585   -6.4477 H   0  0  0  0  0  0  0  0  0  0  0  0
    8.0754    8.0361   -8.5943 H   0  0  0  0  0  0  0  0  0  0  0  0
    7.1420    8.4617   -7.0923 H   0  0  0  0  0  0  0  0  0  0  0  0
    6.1933    9.6347   -8.5967 H   0  0  0  0  0  0  0  0  0  0  0  0
   10.1929   11.0578   -7.8665 H   0  0  0  0  0  0  0  0  0  0  0  0
    9.1426   11.1923   -9.6768 H   0  0  0  0  0  0  0  0  0  0  0  0
   11.8520   10.0969   -9.0749 H   0  0  0  0  0  0  0  0  0  0  0  0
   11.5530    8.2057  -10.1157 H   0  0  0  0  0  0  0  0  0  0  0  0
   11.9295   10.0615   -6.6748 H   0  0  0  0  0  0  0  0  0  0  0  0
   13.5387    8.2780   -6.5427 H   0  0  0  0  0  0  0  0  0  0  0  0
  1  6  2  0
  2  1  1  0
  3  4  1  0
  3  2  2  0
  4  5  2  0
  5  6  1  0
  1  7  1  0
  2  8  1  0
  5  9  1  0
 10 11  1  0
 11 12  1  0
 12 13  1  0
 13 14  1  0
 12 15  1  0
 15 16  1  0
 15 17  1  0
 17 18  1  0
 17 19  1  0
 19 20  1  0
 19 10  1  0
 10 21  1  6
 12 22  1  1
 13 23  1  0
 13 24  1  0
 14 25  1  0
 15 26  1  1
 16 27  1  0
 17 28  1  6
 18 29  1  0
 19 30  1  1
 20 31  1  0
  3 10  1  0
M  END
>  <Score>  (1) 
-7.80895

$$$$

     RDKit          3D

 31 32  0  0  0  0  0  0  0  0999 V2000
   11.8115    6.9298   -2.9678 C   0  0  0  0  0  0  0  0  0  0  0  0
   11.4355    6.8784   -4.3254 C   0  0  0  0  0  0  0  0  0  0  0  0
   11.3603    8.0925   -5.0296 C   0  0  0  0  0  0  0  0  0  0  0  0
   11.6540    9.2431   -4.3614 N   0  0  0  0  0  0  0  0  0  0  0  0
   12.0119    9.2526   -3.0553 C   0  0  0  0  0  0  0  0  0  0  0  0
   12.0888    8.0996   -2.3666 N   0  0  0  0  0  0  0  0  0  0  0  0
   11.8842    6.0237   -2.3820 H   0  0  0  0  0  0  0  0  0  0  0  0
   11.2130    5.9470   -4.8106 H   0  0  0  0  0  0  0  0  0  0  0  0
   12.2435   10.1815   -2.5359 H   0  0  0  0  0  0  0  0  0  0  0  0
   10.9796    8.1374   -6.4381 C   0  0  2  0  0  0  0  0  0  0  0  0
   11.3358    7.0051   -7.1460 O   0  0  0  0  0  0  0  0  0  0  0  0
   10.7722    6.9328   -8.3827 C   0  0  1  0  0  0  0  0  0  0  0  0
    9.3362    6.4005   -8.2796 C   0  0  0  0  0  0  0  0  0  0  0  0
    8.7323    6.3129   -9.5113 O   0  0  0  0  0  0  0  0  0  0  0  0
   10.8388    8.1640   -9.2087 C   0  0  1  0  0  0  0  0  0  0  0  0
    9.7227    8.1601  -10.0729 O   0  0  0  0  0  0  0  0  0  0  0  0
   10.8139    9.4459   -8.4585 C   0  0  1  0  0  0  0  0  0  0  0  0
    9.4890    9.7016   -8.0552 O   0  0  0  0  0  0  0  0  0  0  0  0
   11.6273    9.3118   -7.1844 C   0  0  2  0  0  0  0  0  0  0  0  0
   12.9288    8.9998   -7.5702 O   0  0  0  0  0  0  0  0  0  0  0  0
    9.8810    8.2826   -6.5371 H   0  0  0  0  0  0  0  0  0  0  0  0
   11.3223    6.1223   -8.9487 H   0  0  0  0  0  0  0  0  0  0  0  0
    9.4374    5.3473   -7.8922 H   0  0  0  0  0  0  0  0  0  0  0  0
    8.7173    6.9989   -7.6134 H   0  0  0  0  0  0  0  0  0  0  0  0
    8.9356    5.4900  -10.0136 H   0  0  0  0  0  0  0  0  0  0  0  0
   11.7430    8.1546   -9.8822 H   0  0  0  0  0  0  0  0  0  0  0  0
    9.9658    8.0539  -11.0054 H   0  0  0  0  0  0  0  0  0  0  0  0
   11.1963   10.2560   -9.1088 H   0  0  0  0  0  0  0  0  0  0  0  0
    9.4519   10.4682   -7.4261 H   0  0  0  0  0  0  0  0  0  0  0  0
   11.6038   10.2294   -6.5761 H   0  0  0  0  0  0  0  0  0  0  0  0
   13.1786    9.6714   -8.2700 H   0  0  0  0  0  0  0  0  0  0  0  0
  1  6  2  0
  2  1  1  0
  3  4  1  0
  3  2  2  0
  4  5  2  0
  5  6  1  0
  1  7  1  0
  2  8  1  0
  5  9  1  0
 10 11  1  0
 11 12  1  0
 12 13  1  0
 13 14  1  0
 12 15  1  0
 15 16  1  0
 15 17  1  0
 17 18  1  0
 17 19  1  0
 19 20  1  0
 19 10  1  0
 10 21  1  1
 12 22  1  6
 13 23  1  0
 13 24  1  0
 14 25  1  0
 15 26  1  6
 16 27  1  0
 17 28  1  6
 18 29  1  0
 19 30  1  1
 20 31  1  0
  3 10  1  0
M  END
>  <Score>  (1) 
-7.80881

$$$$

     RDKit          3D

 25 26  0  0  0  0  0  0  0  0999 V2000
   11.8110    6.9294   -2.9695 C   0  0  0  0  0  0  0  0  0  0  0  0
   11.4364    6.8796   -4.3227 C   0  0  0  0  0  0  0  0  0  0  0  0
   11.3592    8.0910   -5.0329 C   0  0  0  0  0  0  0  0  0  0  0  0
   11.6553    9.2434   -4.3567 N   0  0  0  0  0  0  0  0  0  0  0  0
   12.0111    9.2542   -3.0588 C   0  0  0  0  0  0  0  0  0  0  0  0
   12.0890    8.0984   -2.3654 N   0  0  0  0  0  0  0  0  0  0  0  0
   11.8560    5.9732   -2.4670 H   0  0  0  0  0  0  0  0  0  0  0  0
   11.2113    5.9476   -4.8170 H   0  0  0  0  0  0  0  0  0  0  0  0
   12.2357   10.2041   -2.5725 H   0  0  0  0  0  0  0  0  0  0  0  0
   10.9875    8.1287   -6.4061 N   0  0  0  0  0  0  0  0  0  0  0  0
   10.9344    9.3937   -7.0472 C   0  0  0  0  0  0  0  0  0  0  0  0
   10.5519    9.4169   -8.4553 C   0  0  0  0  0  0  0  0  0  0  0  0
   10.2376    8.3145   -9.2151 C   0  0  0  0  0  0  0  0  0  0  0  0
    9.8806    8.4418  -10.5663 C   0  0  0  0  0  0  0  0  0  0  0  0
    9.8272    9.6657  -11.1946 C   0  0  0  0  0  0  0  0  0  0  0  0
    9.3789    9.7809  -12.8755 Cl  0  0  0  0  0  0  0  0  0  0  0  0
   10.1420   10.7678  -10.4326 C   0  0  0  0  0  0  0  0  0  0  0  0
   10.4922   10.6537   -9.1112 C   0  0  0  0  0  0  0  0  0  0  0  0
   10.8873   12.0851   -8.1718 Cl  0  0  0  0  0  0  0  0  0  0  0  0
   10.7756    7.2450   -6.8687 H   0  0  0  0  0  0  0  0  0  0  0  0
   10.1560   10.0038   -6.4932 H   0  0  0  0  0  0  0  0  0  0  0  0
   11.9218    9.9305   -6.8931 H   0  0  0  0  0  0  0  0  0  0  0  0
   10.2655    7.3369   -8.7671 H   0  0  0  0  0  0  0  0  0  0  0  0
    9.6410    7.5639  -11.1323 H   0  0  0  0  0  0  0  0  0  0  0  0
   10.0989   11.7375  -10.9335 H   0  0  0  0  0  0  0  0  0  0  0  0
  1  6  2  0
  2  1  1  0
  3  4  1  0
  3  2  2  0
  4  5  2  0
  5  6  1  0
  1  7  1  0
  2  8  1  0
  5  9  1  0
 10 11  1  0
 11 12  1  0
 12 13  2  0
 13 14  1  0
 14 15  2  0
 15 16  1  0
 15 17  1  0
 17 18  2  0
 18 19  1  0
 18 12  1  0
 10 20  1  0
 11 21  1  0
 11 22  1  0
 13 23  1  0
 14 24  1  0
 17 25  1  0
  3 10  1  0
M  END
>  <Score>  (1) 
-7.79584

$$$$

     RDKit          3D

 26 27  0  0  0  0  0  0  0  0999 V2000
   11.8111    6.9271   -2.9684 C   0  0  0  0  0  0  0  0  0  0  0  0
   11.4356    6.8872   -4.3280 C   0  0  0  0  0  0  0  0  0  0  0  0
   11.3601    8.0864   -5.0282 C   0  0  0  0  0  0  0  0  0  0  0  0
   11.6541    9.2412   -4.3603 N   0  0  0  0  0  0  0  0  0  0  0  0
   12.0116    9.2536   -3.0566 C   0  0  0  0  0  0  0  0  0  0  0  0
   12.0894    8.1005   -2.3646 N   0  0  0  0  0  0  0  0  0  0  0  0
   11.8644    5.9795   -2.4387 H   0  0  0  0  0  0  0  0  0  0  0  0
   11.2236    5.9470   -4.7719 H   0  0  0  0  0  0  0  0  0  0  0  0
   12.2404   10.1813   -2.5472 H   0  0  0  0  0  0  0  0  0  0  0  0
    8.7877    6.7151  -11.6177 H   0  0  0  0  0  0  0  0  0  0  0  0
    9.8248    6.8156  -11.1852 C   0  0  0  0  0  0  0  0  0  0  0  0
   10.0722    8.1984  -10.6497 C   0  0  0  0  0  0  0  0  0  0  0  0
   10.3832    8.1716   -9.1796 C   0  0  0  0  0  0  0  0  0  0  0  0
    9.3969    8.2680   -8.2407 C   0  0  0  0  0  0  0  0  0  0  0  0
    9.6954    8.2422   -6.8732 C   0  0  0  0  0  0  0  0  0  0  0  0
   10.9784    8.1201   -6.4366 C   0  0  0  0  0  0  0  0  0  0  0  0
   11.9720    8.0230   -7.3933 C   0  0  0  0  0  0  0  0  0  0  0  0
   11.6851    8.0477   -8.7585 C   0  0  0  0  0  0  0  0  0  0  0  0
   10.5109    6.5411  -12.0158 H   0  0  0  0  0  0  0  0  0  0  0  0
    9.9249    6.0834  -10.3567 H   0  0  0  0  0  0  0  0  0  0  0  0
    9.1737    8.8020  -10.8534 H   0  0  0  0  0  0  0  0  0  0  0  0
   10.9409    8.6127  -11.1703 H   0  0  0  0  0  0  0  0  0  0  0  0
    8.3771    8.3649   -8.5962 H   0  0  0  0  0  0  0  0  0  0  0  0
    8.8865    8.3211   -6.1773 H   0  0  0  0  0  0  0  0  0  0  0  0
   13.0015    7.9250   -7.0662 H   0  0  0  0  0  0  0  0  0  0  0  0
   12.4731    7.9707   -9.5036 H   0  0  0  0  0  0  0  0  0  0  0  0
  1  6  2  0
  2  1  1  0
  3  4  1  0
  3  2  2  0
  4  5  2  0
  5  6  1  0
  1  7  1  0
  2  8  1  0
  5  9  1  0
 10 11  1  0
 11 12  1  0
 12 13  1  0
 13 14  2  0
 14 15  1  0
 15 16  2  0
 16 17  1  0
 17 18  2  0
 18 13  1  0
 11 19  1  0
 11 20  1  0
 12 21  1  0
 12 22  1  0
 14 23  1  0
 15 24  1  0
 17 25  1  0
 18 26  1  0
  3 16  1  0
M  END
>  <Score>  (1) 
-7.79138

$$$$

     RDKit          3D

 23 25  0  0  0  0  0  0  0  0999 V2000
   12.3025    8.1226   -2.3015 C   0  0  0  0  0  0  0  0  0  0  0  0
   12.0219    6.8836   -2.9118 C   0  0  0  0  0  0  0  0  0  0  0  0
   11.5238    6.8986   -4.2267 C   0  0  0  0  0  0  0  0  0  0  0  0
   11.3426    8.1074   -4.8307 N   0  0  0  0  0  0  0  0  0  0  0  0
   11.6238    9.2774   -4.2118 C   0  0  0  0  0  0  0  0  0  0  0  0
   12.1004    9.2814   -2.9555 N   0  0  0  0  0  0  0  0  0  0  0  0
   12.6843    8.0630   -1.2888 H   0  0  0  0  0  0  0  0  0  0  0  0
   12.1788    5.9537   -2.4009 H   0  0  0  0  0  0  0  0  0  0  0  0
   11.2900    5.9736   -4.7462 H   0  0  0  0  0  0  0  0  0  0  0  0
   11.4059   10.5399   -4.9183 C   0  0  0  0  0  0  0  0  0  0  0  0
   11.4889   10.7317   -6.2320 N   0  0  0  0  0  0  0  0  0  0  0  0
   11.2230   12.0163   -6.4917 C   0  0  0  0  0  0  0  0  0  0  0  0
   11.1904   12.6783   -7.7101 C   0  0  0  0  0  0  0  0  0  0  0  0
   10.8879   14.0244   -7.7345 C   0  0  0  0  0  0  0  0  0  0  0  0
   10.8723   14.5051   -8.7036 H   0  0  0  0  0  0  0  0  0  0  0  0
   10.6268   14.6742   -6.5503 C   0  0  0  0  0  0  0  0  0  0  0  0
   10.6607   14.0033   -5.3239 C   0  0  0  0  0  0  0  0  0  0  0  0
   10.9620   12.6634   -5.3017 C   0  0  0  0  0  0  0  0  0  0  0  0
   11.0874   11.7074   -4.3558 N   0  0  0  0  0  0  0  0  0  0  0  0
   11.4022   12.1309   -8.6234 H   0  0  0  0  0  0  0  0  0  0  0  0
   10.3934   15.7287   -6.6050 H   0  0  0  0  0  0  0  0  0  0  0  0
   10.4549   14.5176   -4.3954 H   0  0  0  0  0  0  0  0  0  0  0  0
   10.9431   11.9069   -3.3253 H   0  0  0  0  0  0  0  0  0  0  0  0
  2  1  2  0
  3  2  1  0
  4  3  2  0
  4  5  1  0
  5  6  2  0
  6  1  1  0
  1  7  1  0
  2  8  1  0
  3  9  1  0
 10 11  2  0
 11 12  1  0
 12 13  2  0
 13 14  1  0
 14 15  1  0
 14 16  2  0
 16 17  1  0
 17 18  2  0
 18 19  1  0
 19 10  1  0
 18 12  1  0
 13 20  1  0
 16 21  1  0
 17 22  1  0
 19 23  1  0
  5 10  1  0
M  END
>  <Score>  (1) 
-7.69261

$$$$

     RDKit          3D

 30 32  0  0  0  0  0  0  0  0999 V2000
   11.8118    6.9341   -2.9682 C   0  0  0  0  0  0  0  0  0  0  0  0
   11.4357    6.8847   -4.3268 C   0  0  0  0  0  0  0  0  0  0  0  0
   11.3610    8.0920   -5.0266 C   0  0  0  0  0  0  0  0  0  0  0  0
   11.6528    9.2341   -4.3626 N   0  0  0  0  0  0  0  0  0  0  0  0
   12.0124    9.2572   -3.0550 C   0  0  0  0  0  0  0  0  0  0  0  0
   12.0882    8.0938   -2.3668 N   0  0  0  0  0  0  0  0  0  0  0  0
   11.8847    6.0293   -2.3820 H   0  0  0  0  0  0  0  0  0  0  0  0
   11.2160    5.9459   -4.7990 H   0  0  0  0  0  0  0  0  0  0  0  0
   12.2334   10.1971   -2.5785 H   0  0  0  0  0  0  0  0  0  0  0  0
   10.9853    8.0803   -6.3973 N   0  0  0  0  0  0  0  0  0  0  0  0
   11.1731    9.1732   -7.2523 C   0  0  0  0  0  0  0  0  0  0  0  0
   11.7044   10.4084   -7.0411 C   0  0  0  0  0  0  0  0  0  0  0  0
   11.6835   11.1611   -8.1852 N   0  0  0  0  0  0  0  0  0  0  0  0
   12.1558   12.4836   -8.3156 C   0  0  0  0  0  0  0  0  0  0  0  0
   12.0889   13.1716   -9.5373 N   0  0  0  0  0  0  0  0  0  0  0  0
   12.6627   13.1142   -7.3380 O   0  0  0  0  0  0  0  0  0  0  0  0
   11.1362   10.4119   -9.1438 C   0  0  0  0  0  0  0  0  0  0  0  0
   10.8859   10.6939  -10.4681 C   0  0  0  0  0  0  0  0  0  0  0  0
   10.2956    9.7379  -11.2924 C   0  0  0  0  0  0  0  0  0  0  0  0
    9.9771    8.5229  -10.7468 C   0  0  0  0  0  0  0  0  0  0  0  0
   10.2270    8.2312   -9.4108 C   0  0  0  0  0  0  0  0  0  0  0  0
   10.8095    9.1779   -8.6017 C   0  0  0  0  0  0  0  0  0  0  0  0
   10.5469    7.2086   -6.7804 H   0  0  0  0  0  0  0  0  0  0  0  0
   12.1042   10.8021   -6.1233 H   0  0  0  0  0  0  0  0  0  0  0  0
   12.8801   13.1021  -10.2057 H   0  0  0  0  0  0  0  0  0  0  0  0
   11.2787   13.7568   -9.8160 H   0  0  0  0  0  0  0  0  0  0  0  0
   11.1163   11.6368  -10.9535 H   0  0  0  0  0  0  0  0  0  0  0  0
   10.1086    9.9793  -12.3252 H   0  0  0  0  0  0  0  0  0  0  0  0
    9.5212    7.7735  -11.3681 H   0  0  0  0  0  0  0  0  0  0  0  0
    9.9769    7.2734   -8.9769 H   0  0  0  0  0  0  0  0  0  0  0  0
  1  6  2  0
  2  1  1  0
  3  4  1  0
  3  2  2  0
  4  5  2  0
  5  6  1  0
  1  7  1  0
  2  8  1  0
  5  9  1  0
 10 11  1  0
 11 12  2  0
 12 13  1  0
 13 14  1  0
 14 15  1  0
 14 16  2  0
 13 17  1  0
 17 18  2  0
 18 19  1  0
 19 20  2  0
 20 21  1  0
 21 22  2  0
 22 11  1  0
 22 17  1  0
 10 23  1  0
 12 24  1  0
 15 25  1  0
 15 26  1  0
 18 27  1  0
 19 28  1  0
 20 29  1  0
 21 30  1  0
  3 10  1  0
M  END
>  <Score>  (1) 
-7.79051

$$$$

     RDKit          3D

 31 32  0  0  0  0  0  0  0  0999 V2000
   11.8117    6.9293   -2.9671 C   0  0  0  0  0  0  0  0  0  0  0  0
   11.4351    6.8801   -4.3275 C   0  0  0  0  0  0  0  0  0  0  0  0
   11.3607    8.0912   -5.0277 C   0  0  0  0  0  0  0  0  0  0  0  0
   11.6534    9.2428   -4.3634 N   0  0  0  0  0  0  0  0  0  0  0  0
   12.0123    9.2519   -3.0536 C   0  0  0  0  0  0  0  0  0  0  0  0
   12.0889    8.1007   -2.3667 N   0  0  0  0  0  0  0  0  0  0  0  0
   11.8772    6.0054   -2.4011 H   0  0  0  0  0  0  0  0  0  0  0  0
   11.2167    5.9322   -4.7916 H   0  0  0  0  0  0  0  0  0  0  0  0
   12.2369   10.2025   -2.5677 H   0  0  0  0  0  0  0  0  0  0  0  0
   10.9679    8.0816   -6.4614 C   0  0  2  0  0  0  0  0  0  0  0  0
   10.1260    7.0411   -6.7540 O   0  0  0  0  0  0  0  0  0  0  0  0
   10.5712    6.1318   -7.6681 C   0  0  1  0  0  0  0  0  0  0  0  0
    9.3863    5.2322   -7.9912 C   0  0  0  0  0  0  0  0  0  0  0  0
    8.9129    4.5760   -6.8681 O   0  0  0  0  0  0  0  0  0  0  0  0
   11.0457    6.7166   -8.9672 C   0  0  1  0  0  0  0  0  0  0  0  0
   10.0331    6.7842   -9.9239 O   0  0  0  0  0  0  0  0  0  0  0  0
   11.5921    8.1132   -8.7971 C   0  0  1  0  0  0  0  0  0  0  0  0
   10.4881    8.9877   -8.8184 O   0  0  0  0  0  0  0  0  0  0  0  0
   12.1565    8.1837   -7.3791 C   0  0  1  0  0  0  0  0  0  0  0  0
   12.7130    9.4524   -7.2362 O   0  0  0  0  0  0  0  0  0  0  0  0
   10.3746    9.0237   -6.6207 H   0  0  0  0  0  0  0  0  0  0  0  0
   11.3735    5.4877   -7.2632 H   0  0  0  0  0  0  0  0  0  0  0  0
    9.7208    4.5401   -8.7866 H   0  0  0  0  0  0  0  0  0  0  0  0
    8.5940    5.8739   -8.4322 H   0  0  0  0  0  0  0  0  0  0  0  0
    9.4540    3.7427   -6.7450 H   0  0  0  0  0  0  0  0  0  0  0  0
   11.8438    6.0664   -9.4087 H   0  0  0  0  0  0  0  0  0  0  0  0
   10.0102    7.6598  -10.3840 H   0  0  0  0  0  0  0  0  0  0  0  0
   12.3095    8.4044   -9.5578 H   0  0  0  0  0  0  0  0  0  0  0  0
    9.6609    8.5296   -8.5204 H   0  0  0  0  0  0  0  0  0  0  0  0
   12.9193    7.4224   -7.1934 H   0  0  0  0  0  0  0  0  0  0  0  0
   12.0476   10.1636   -7.3586 H   0  0  0  0  0  0  0  0  0  0  0  0
  1  6  2  0
  2  1  1  0
  3  4  1  0
  3  2  2  0
  4  5  2  0
  5  6  1  0
  1  7  1  0
  2  8  1  0
  5  9  1  0
 10 11  1  0
 11 12  1  0
 12 13  1  0
 13 14  1  0
 12 15  1  0
 15 16  1  0
 15 17  1  0
 17 18  1  0
 17 19  1  0
 19 20  1  0
 19 10  1  0
 10 21  1  1
 12 22  1  1
 13 23  1  0
 13 24  1  0
 14 25  1  0
 15 26  1  6
 16 27  1  0
 17 28  1  6
 18 29  1  0
 19 30  1  1
 20 31  1  0
  3 10  1  0
M  END
>  <Score>  (1) 
-7.78336

$$$$

     RDKit          3D

 22 24  0  0  0  0  0  0  0  0999 V2000
   11.8125    6.9315   -2.9647 C   0  0  0  0  0  0  0  0  0  0  0  0
   11.4347    6.8806   -4.3290 C   0  0  0  0  0  0  0  0  0  0  0  0
   11.3600    8.0883   -5.0291 C   0  0  0  0  0  0  0  0  0  0  0  0
   11.6550    9.2450   -4.3584 N   0  0  0  0  0  0  0  0  0  0  0  0
   12.0112    9.2543   -3.0583 C   0  0  0  0  0  0  0  0  0  0  0  0
   12.0885    8.0962   -2.3664 N   0  0  0  0  0  0  0  0  0  0  0  0
   11.8606    5.9801   -2.4526 H   0  0  0  0  0  0  0  0  0  0  0  0
   11.2152    5.9387   -4.7995 H   0  0  0  0  0  0  0  0  0  0  0  0
   12.2437   10.1591   -2.5273 H   0  0  0  0  0  0  0  0  0  0  0  0
   10.9823    8.1200   -6.4222 C   0  0  0  0  0  0  0  0  0  0  0  0
   11.7438    7.7656   -7.4486 N   0  0  0  0  0  0  0  0  0  0  0  0
   11.0246    7.9416   -8.5758 C   0  0  0  0  0  0  0  0  0  0  0  0
   11.2236    7.7673   -9.9228 C   0  0  0  0  0  0  0  0  0  0  0  0
   10.2475    8.0503  -10.8674 C   0  0  0  0  0  0  0  0  0  0  0  0
    9.0257    8.5270  -10.4322 C   0  0  0  0  0  0  0  0  0  0  0  0
    8.7850    8.7162   -9.0892 C   0  0  0  0  0  0  0  0  0  0  0  0
    9.7829    8.4221   -8.1863 C   0  0  0  0  0  0  0  0  0  0  0  0
    9.8330    8.5022   -6.8874 O   0  0  0  0  0  0  0  0  0  0  0  0
   12.1895    7.3912  -10.2565 H   0  0  0  0  0  0  0  0  0  0  0  0
   10.4339    7.9027  -11.9229 H   0  0  0  0  0  0  0  0  0  0  0  0
    8.2131    8.7697  -11.1264 H   0  0  0  0  0  0  0  0  0  0  0  0
    7.8530    9.0824   -8.7238 H   0  0  0  0  0  0  0  0  0  0  0  0
  1  6  2  0
  2  1  1  0
  3  4  1  0
  3  2  2  0
  4  5  2  0
  5  6  1  0
  1  7  1  0
  2  8  1  0
  5  9  1  0
 10 11  2  0
 11 12  1  0
 12 13  2  0
 13 14  1  0
 14 15  2  0
 15 16  1  0
 16 17  2  0
 17 18  1  0
 18 10  1  0
 17 12  1  0
 13 19  1  0
 14 20  1  0
 15 21  1  0
 16 22  1  0
  3 10  1  0
M  END
>  <Score>  (1) 
-7.7828

$$$$

     RDKit          3D

 32 33  0  0  0  0  0  0  0  0999 V2000
   11.8128    6.9313   -2.9637 C   0  0  0  0  0  0  0  0  0  0  0  0
   11.4343    6.8821   -4.3312 C   0  0  0  0  0  0  0  0  0  0  0  0
   11.3605    8.0879   -5.0272 C   0  0  0  0  0  0  0  0  0  0  0  0
   11.6542    9.2439   -4.3610 N   0  0  0  0  0  0  0  0  0  0  0  0
   12.0117    9.2539   -3.0563 C   0  0  0  0  0  0  0  0  0  0  0  0
   12.0885    8.0968   -2.3666 N   0  0  0  0  0  0  0  0  0  0  0  0
   11.8804    6.0101   -2.3908 H   0  0  0  0  0  0  0  0  0  0  0  0
   11.2138    5.9368   -4.8042 H   0  0  0  0  0  0  0  0  0  0  0  0
   12.2305   10.1932   -2.5879 H   0  0  0  0  0  0  0  0  0  0  0  0
   10.9961    8.0485   -6.3467 O   0  0  0  0  0  0  0  0  0  0  0  0
   11.8111    8.5159   -7.4043 C   0  0  1  0  0  0  0  0  0  0  0  0
   12.1239    7.4866   -8.2150 O   0  0  0  0  0  0  0  0  0  0  0  0
   11.4796    7.3638   -9.3992 C   0  0  2  0  0  0  0  0  0  0  0  0
   12.3361    7.8263  -10.5873 C   0  0  0  0  0  0  0  0  0  0  0  0
   13.5063    7.0775  -10.6786 O   0  0  0  0  0  0  0  0  0  0  0  0
   10.1327    7.9723   -9.5128 C   0  0  1  0  0  0  0  0  0  0  0  0
    9.1380    7.0049   -9.2422 O   0  0  0  0  0  0  0  0  0  0  0  0
    9.8820    9.1975   -8.7144 C   0  0  1  0  0  0  0  0  0  0  0  0
    8.9476    8.8912   -7.7087 O   0  0  0  0  0  0  0  0  0  0  0  0
   11.1189    9.6775   -8.0388 C   0  0  1  0  0  0  0  0  0  0  0  0
   10.7073   10.5284   -6.9849 O   0  0  0  0  0  0  0  0  0  0  0  0
   12.7496    8.8936   -6.9229 H   0  0  0  0  0  0  0  0  0  0  0  0
   11.3514    6.2535   -9.5894 H   0  0  0  0  0  0  0  0  0  0  0  0
   11.7467    7.7850  -11.5255 H   0  0  0  0  0  0  0  0  0  0  0  0
   12.5890    8.8884  -10.4248 H   0  0  0  0  0  0  0  0  0  0  0  0
   13.6374    6.5318   -9.8768 H   0  0  0  0  0  0  0  0  0  0  0  0
    9.9531    8.2413  -10.5960 H   0  0  0  0  0  0  0  0  0  0  0  0
    8.3159    7.2545   -9.7274 H   0  0  0  0  0  0  0  0  0  0  0  0
    9.4237   10.0174   -9.3141 H   0  0  0  0  0  0  0  0  0  0  0  0
    8.0823    8.7744   -8.1867 H   0  0  0  0  0  0  0  0  0  0  0  0
   11.7779   10.3045   -8.6686 H   0  0  0  0  0  0  0  0  0  0  0  0
   10.4226   11.4079   -7.3401 H   0  0  0  0  0  0  0  0  0  0  0  0
  1  6  2  0
  2  1  1  0
  3  4  1  0
  3  2  2  0
  4  5  2  0
  5  6  1  0
  1  7  1  0
  2  8  1  0
  5  9  1  0
 10 11  1  0
 11 12  1  0
 12 13  1  0
 13 14  1  0
 14 15  1  0
 13 16  1  0
 16 17  1  0
 16 18  1  0
 18 19  1  0
 18 20  1  0
 20 21  1  0
 20 11  1  0
 11 22  1  1
 13 23  1  6
 14 24  1  0
 14 25  1  0
 15 26  1  0
 16 27  1  6
 17 28  1  0
 18 29  1  6
 19 30  1  0
 20 31  1  6
 21 32  1  0
  3 10  1  0
M  END
>  <Score>  (1) 
-7.77711

$$$$

     RDKit          3D

 22 24  0  0  0  0  0  0  0  0999 V2000
   11.8120    6.9295   -2.9661 C   0  0  0  0  0  0  0  0  0  0  0  0
   11.4348    6.8800   -4.3287 C   0  0  0  0  0  0  0  0  0  0  0  0
   11.3613    8.0933   -5.0263 C   0  0  0  0  0  0  0  0  0  0  0  0
   11.6525    9.2406   -4.3660 N   0  0  0  0  0  0  0  0  0  0  0  0
   12.0127    9.2518   -3.0522 C   0  0  0  0  0  0  0  0  0  0  0  0
   12.0888    8.1007   -2.3668 N   0  0  0  0  0  0  0  0  0  0  0  0
   11.8647    5.9784   -2.4371 H   0  0  0  0  0  0  0  0  0  0  0  0
   11.2131    5.9579   -4.8138 H   0  0  0  0  0  0  0  0  0  0  0  0
   12.2340   10.1985   -2.5769 H   0  0  0  0  0  0  0  0  0  0  0  0
   10.9779    8.0983   -6.4307 C   0  0  0  0  0  0  0  0  0  0  0  0
    9.7450    7.5962   -6.7798 C   0  0  0  0  0  0  0  0  0  0  0  0
    9.3833    7.6005   -8.1008 C   0  0  0  0  0  0  0  0  0  0  0  0
    8.2753    7.1956   -8.7882 N   0  0  0  0  0  0  0  0  0  0  0  0
    8.4196    7.4188  -10.0689 N   0  0  0  0  0  0  0  0  0  0  0  0
    9.6249    7.9748  -10.2506 C   0  0  0  0  0  0  0  0  0  0  0  0
   10.0423    8.2774  -11.1973 H   0  0  0  0  0  0  0  0  0  0  0  0
   10.2619    8.1053   -9.0332 C   0  0  0  0  0  0  0  0  0  0  0  0
   11.4929    8.6046   -8.6687 C   0  0  0  0  0  0  0  0  0  0  0  0
   11.8151    8.5849   -7.3641 N   0  0  0  0  0  0  0  0  0  0  0  0
    9.0916    7.2128   -6.0219 H   0  0  0  0  0  0  0  0  0  0  0  0
    7.4331    6.7660   -8.3310 H   0  0  0  0  0  0  0  0  0  0  0  0
   12.1240    8.9823   -9.4594 H   0  0  0  0  0  0  0  0  0  0  0  0
  1  6  2  0
  2  1  1  0
  3  4  1  0
  3  2  2  0
  4  5  2  0
  5  6  1  0
  1  7  1  0
  2  8  1  0
  5  9  1  0
 10 11  2  0
 11 12  1  0
 12 13  1  0
 13 14  1  0
 14 15  2  0
 15 16  1  0
 15 17  1  0
 17 18  1  0
 18 19  2  0
 19 10  1  0
 17 12  2  0
 11 20  1  0
 13 21  1  0
 18 22  1  0
  3 10  1  0
M  END
>  <Score>  (1) 
-7.76355

$$$$

     RDKit          3D

 21 22  0  0  0  0  0  0  0  0999 V2000
   11.8133    6.9333   -2.9624 C   0  0  0  0  0  0  0  0  0  0  0  0
   11.4346    6.8847   -4.3308 C   0  0  0  0  0  0  0  0  0  0  0  0
   11.3590    8.0874   -5.0324 C   0  0  0  0  0  0  0  0  0  0  0  0
   11.6555    9.2410   -4.3551 N   0  0  0  0  0  0  0  0  0  0  0  0
   12.0108    9.2541   -3.0598 C   0  0  0  0  0  0  0  0  0  0  0  0
   12.0887    8.0955   -2.3654 N   0  0  0  0  0  0  0  0  0  0  0  0
   11.8542    5.9733   -2.4736 H   0  0  0  0  0  0  0  0  0  0  0  0
   11.2178    5.9446   -4.7921 H   0  0  0  0  0  0  0  0  0  0  0  0
   12.2392   10.1851   -2.5531 H   0  0  0  0  0  0  0  0  0  0  0  0
   10.9793    8.1341   -6.4382 C   0  0  0  0  0  0  0  0  0  0  0  0
   11.4232    9.0866   -7.3186 C   0  0  0  0  0  0  0  0  0  0  0  0
   11.0037    9.0515   -8.6546 C   0  0  0  0  0  0  0  0  0  0  0  0
   10.1474    8.0831   -9.1339 C   0  0  0  0  0  0  0  0  0  0  0  0
    9.7148    7.1366   -8.2306 C   0  0  0  0  0  0  0  0  0  0  0  0
    8.8146    6.1027   -8.6953 C   0  0  0  0  0  0  0  0  0  0  0  0
    8.1081    5.2752   -9.0484 N   0  0  0  0  0  0  0  0  0  0  0  0
   10.1304    7.1747   -6.9152 C   0  0  0  0  0  0  0  0  0  0  0  0
   12.0904    9.8571   -6.9849 H   0  0  0  0  0  0  0  0  0  0  0  0
   11.3905    9.8351   -9.3053 H   0  0  0  0  0  0  0  0  0  0  0  0
    9.8444    8.0897  -10.1795 H   0  0  0  0  0  0  0  0  0  0  0  0
    9.7664    6.4056   -6.2233 H   0  0  0  0  0  0  0  0  0  0  0  0
  1  6  2  0
  2  1  1  0
  3  4  1  0
  3  2  2  0
  4  5  2  0
  5  6  1  0
  1  7  1  0
  2  8  1  0
  5  9  1  0
 10 11  2  0
 11 12  1  0
 12 13  2  0
 13 14  1  0
 14 15  1  0
 15 16  3  0
 14 17  2  0
 17 10  1  0
 11 18  1  0
 12 19  1  0
 13 20  1  0
 17 21  1  0
  3 10  1  0
M  END
>  <Score>  (1) 
-7.76349

$$$$

     RDKit          3D

 23 25  0  0  0  0  0  0  0  0999 V2000
   11.8120    6.9310   -2.9667 C   0  0  0  0  0  0  0  0  0  0  0  0
   11.4352    6.8830   -4.3282 C   0  0  0  0  0  0  0  0  0  0  0  0
   11.3603    8.0869   -5.0275 C   0  0  0  0  0  0  0  0  0  0  0  0
   11.6544    9.2440   -4.3601 N   0  0  0  0  0  0  0  0  0  0  0  0
   12.0117    9.2547   -3.0568 C   0  0  0  0  0  0  0  0  0  0  0  0
   12.0885    8.0963   -2.3666 N   0  0  0  0  0  0  0  0  0  0  0  0
   11.8535    5.9671   -2.4741 H   0  0  0  0  0  0  0  0  0  0  0  0
   11.2154    5.9437   -4.8004 H   0  0  0  0  0  0  0  0  0  0  0  0
   12.2444   10.1689   -2.5283 H   0  0  0  0  0  0  0  0  0  0  0  0
   10.9801    8.1088   -6.4265 C   0  0  0  0  0  0  0  0  0  0  0  0
   10.9510    7.0466   -7.2320 N   0  0  0  0  0  0  0  0  0  0  0  0
   10.5551    7.4397   -8.4452 C   0  0  0  0  0  0  0  0  0  0  0  0
   10.3725    6.7112   -9.6025 C   0  0  0  0  0  0  0  0  0  0  0  0
    9.9519    7.3976  -10.7158 C   0  0  0  0  0  0  0  0  0  0  0  0
    9.7242    8.7586  -10.6682 C   0  0  0  0  0  0  0  0  0  0  0  0
    9.9200    9.4457   -9.4890 C   0  0  0  0  0  0  0  0  0  0  0  0
   10.3420    8.7915   -8.3499 C   0  0  0  0  0  0  0  0  0  0  0  0
   10.6049    9.2092   -7.0984 N   0  0  0  0  0  0  0  0  0  0  0  0
   10.5527    5.6388   -9.6367 H   0  0  0  0  0  0  0  0  0  0  0  0
    9.8078    6.8145  -11.6336 H   0  0  0  0  0  0  0  0  0  0  0  0
    9.3933    9.2774  -11.5577 H   0  0  0  0  0  0  0  0  0  0  0  0
    9.7521   10.5160   -9.4103 H   0  0  0  0  0  0  0  0  0  0  0  0
   10.5309   10.1876   -6.7313 H   0  0  0  0  0  0  0  0  0  0  0  0
  1  6  2  0
  2  1  1  0
  3  4  1  0
  3  2  2  0
  4  5  2  0
  5  6  1  0
  1  7  1  0
  2  8  1  0
  5  9  1  0
 10 11  2  0
 11 12  1  0
 12 13  2  0
 13 14  1  0
 14 15  2  0
 15 16  1  0
 16 17  2  0
 17 18  1  0
 18 10  1  0
 17 12  1  0
 13 19  1  0
 14 20  1  0
 15 21  1  0
 16 22  1  0
 18 23  1  0
  3 10  1  0
M  END
>  <Score>  (1) 
-7.75806

$$$$

     RDKit          3D

 22 23  0  0  0  0  0  0  0  0999 V2000
   11.8120    6.9271   -2.9651 C   0  0  0  0  0  0  0  0  0  0  0  0
   11.4346    6.8853   -4.3312 C   0  0  0  0  0  0  0  0  0  0  0  0
   11.3605    8.0878   -5.0271 C   0  0  0  0  0  0  0  0  0  0  0  0
   11.6553    9.2430   -4.3568 N   0  0  0  0  0  0  0  0  0  0  0  0
   12.0101    9.2497   -3.0609 C   0  0  0  0  0  0  0  0  0  0  0  0
   12.0896    8.1030   -2.3649 N   0  0  0  0  0  0  0  0  0  0  0  0
   11.8794    6.0075   -2.3936 H   0  0  0  0  0  0  0  0  0  0  0  0
   11.2251    5.9442   -4.7654 H   0  0  0  0  0  0  0  0  0  0  0  0
   12.2418   10.1659   -2.5368 H   0  0  0  0  0  0  0  0  0  0  0  0
   10.9790    8.1157   -6.4327 C   0  0  0  0  0  0  0  0  0  0  0  0
   11.1610    9.1919   -7.2631 C   0  0  0  0  0  0  0  0  0  0  0  0
   10.7874    9.1825   -8.5889 C   0  0  0  0  0  0  0  0  0  0  0  0
   10.2053    8.0530   -9.1187 C   0  0  0  0  0  0  0  0  0  0  0  0
   10.0043    6.9430   -8.3101 C   0  0  0  0  0  0  0  0  0  0  0  0
    9.4127    5.7577   -8.7972 N   0  0  0  0  0  4  0  0  0  0  0  0
    9.2522    4.7961   -8.0474 O   0  0  0  0  0  0  0  0  0  0  0  0
    9.0175    5.6737  -10.0974 O   0  0  0  0  0  1  0  0  0  0  0  0
   10.3905    6.9907   -6.9916 C   0  0  0  0  0  0  0  0  0  0  0  0
   11.6106   10.0818   -6.8780 H   0  0  0  0  0  0  0  0  0  0  0  0
   10.9346   10.0367   -9.2380 H   0  0  0  0  0  0  0  0  0  0  0  0
    9.8870    7.9652  -10.1387 H   0  0  0  0  0  0  0  0  0  0  0  0
   10.2345    6.1315   -6.3672 H   0  0  0  0  0  0  0  0  0  0  0  0
  1  6  2  0
  2  1  1  0
  3  4  1  0
  3  2  2  0
  4  5  2  0
  5  6  1  0
  1  7  1  0
  2  8  1  0
  5  9  1  0
 10 11  2  0
 11 12  1  0
 12 13  2  0
 13 14  1  0
 14 15  1  0
 15 16  2  0
 15 17  1  0
 14 18  2  0
 18 10  1  0
 11 19  1  0
 12 20  1  0
 13 21  1  0
 18 22  1  0
  3 10  1  0
M  CHG  2  15   1  17  -1
M  END
>  <Score>  (1) 
-7.7574

$$$$

     RDKit          3D

 32 33  0  0  0  0  0  0  0  0999 V2000
   11.8123    6.9309   -2.9653 C   0  0  0  0  0  0  0  0  0  0  0  0
   11.4348    6.8799   -4.3285 C   0  0  0  0  0  0  0  0  0  0  0  0
   11.3605    8.0910   -5.0281 C   0  0  0  0  0  0  0  0  0  0  0  0
   11.6539    9.2431   -4.3617 N   0  0  0  0  0  0  0  0  0  0  0  0
   12.0119    9.2533   -3.0557 C   0  0  0  0  0  0  0  0  0  0  0  0
   12.0886    8.0979   -2.3667 N   0  0  0  0  0  0  0  0  0  0  0  0
   11.8635    5.9758   -2.4404 H   0  0  0  0  0  0  0  0  0  0  0  0
   11.2133    5.9375   -4.8058 H   0  0  0  0  0  0  0  0  0  0  0  0
   12.2360   10.2039   -2.5713 H   0  0  0  0  0  0  0  0  0  0  0  0
   10.9954    8.0592   -6.3530 O   0  0  0  0  0  0  0  0  0  0  0  0
   11.7464    7.3494   -7.3081 C   0  0  1  0  0  0  0  0  0  0  0  0
   10.9913    6.3669   -7.8896 O   0  0  0  0  0  0  0  0  0  0  0  0
   11.1375    6.3224   -9.2579 C   0  0  2  0  0  0  0  0  0  0  0  0
   10.4079    5.1479   -9.8547 C   0  0  0  0  0  0  0  0  0  0  0  0
    9.0565    5.2811   -9.5401 O   0  0  0  0  0  0  0  0  0  0  0  0
   12.6082    6.3124   -9.5804 C   0  0  1  0  0  0  0  0  0  0  0  0
   12.8447    5.8460  -10.8737 O   0  0  0  0  0  0  0  0  0  0  0  0
   13.1252    7.7200   -9.3765 C   0  0  2  0  0  0  0  0  0  0  0  0
   14.4911    7.6510   -9.0253 O   0  0  0  0  0  0  0  0  0  0  0  0
   12.3274    8.3446   -8.2711 C   0  0  1  0  0  0  0  0  0  0  0  0
   11.3741    9.2580   -8.7412 O   0  0  0  0  0  0  0  0  0  0  0  0
   12.6201    6.8676   -6.7861 H   0  0  0  0  0  0  0  0  0  0  0  0
   10.6509    7.2409   -9.6744 H   0  0  0  0  0  0  0  0  0  0  0  0
   10.4763    5.2750  -10.9748 H   0  0  0  0  0  0  0  0  0  0  0  0
   10.8294    4.1811   -9.5809 H   0  0  0  0  0  0  0  0  0  0  0  0
    8.7534    6.1412   -9.9489 H   0  0  0  0  0  0  0  0  0  0  0  0
   13.1544    5.6409   -8.8814 H   0  0  0  0  0  0  0  0  0  0  0  0
   13.8006    5.9877  -11.0849 H   0  0  0  0  0  0  0  0  0  0  0  0
   13.0758    8.2970  -10.3219 H   0  0  0  0  0  0  0  0  0  0  0  0
   14.8212    6.7441   -9.2169 H   0  0  0  0  0  0  0  0  0  0  0  0
   13.0529    8.9714   -7.6734 H   0  0  0  0  0  0  0  0  0  0  0  0
   10.5502    9.2443   -8.1879 H   0  0  0  0  0  0  0  0  0  0  0  0
  1  6  2  0
  2  1  1  0
  3  4  1  0
  3  2  2  0
  4  5  2  0
  5  6  1  0
  1  7  1  0
  2  8  1  0
  5  9  1  0
 10 11  1  0
 11 12  1  0
 12 13  1  0
 13 14  1  0
 14 15  1  0
 13 16  1  0
 16 17  1  0
 16 18  1  0
 18 19  1  0
 18 20  1  0
 20 21  1  0
 20 11  1  0
 11 22  1  1
 13 23  1  6
 14 24  1  0
 14 25  1  0
 15 26  1  0
 16 27  1  1
 17 28  1  0
 18 29  1  6
 19 30  1  0
 20 31  1  1
 21 32  1  0
  3 10  1  0
M  END
>  <Score>  (1) 
-7.74152

$$$$

     RDKit          3D

 24 26  0  0  0  0  0  0  0  0999 V2000
   11.8122    6.9299   -2.9654 C   0  0  0  0  0  0  0  0  0  0  0  0
   11.4348    6.8841   -4.3302 C   0  0  0  0  0  0  0  0  0  0  0  0
   11.3602    8.0865   -5.0278 C   0  0  0  0  0  0  0  0  0  0  0  0
   11.6544    9.2435   -4.3601 N   0  0  0  0  0  0  0  0  0  0  0  0
   12.0117    9.2540   -3.0566 C   0  0  0  0  0  0  0  0  0  0  0  0
   12.0888    8.0980   -2.3659 N   0  0  0  0  0  0  0  0  0  0  0  0
   11.8641    5.9763   -2.4386 H   0  0  0  0  0  0  0  0  0  0  0  0
   11.2125    5.9390   -4.8095 H   0  0  0  0  0  0  0  0  0  0  0  0
   12.2454   10.1552   -2.5196 H   0  0  0  0  0  0  0  0  0  0  0  0
   10.9907    8.0953   -6.3829 N   0  0  0  0  0  0  0  0  0  0  0  0
   10.9962    6.9087   -7.1347 C   0  0  0  0  0  0  0  0  0  0  0  0
   10.7453    6.5368   -8.3005 N   0  0  0  0  0  0  0  0  0  0  0  0
   10.8424    5.3131   -8.7398 C   0  0  0  0  0  0  0  0  0  0  0  0
   10.5673    4.8668  -10.0429 C   0  0  0  0  0  0  0  0  0  0  0  0
   10.7202    3.5408  -10.3427 C   0  0  0  0  0  0  0  0  0  0  0  0
   11.1321    2.5693   -9.4581 C   0  0  0  0  0  0  0  0  0  0  0  0
   11.4036    3.0188   -8.1659 C   0  0  0  0  0  0  0  0  0  0  0  0
   11.2502    4.3587   -7.8587 C   0  0  0  0  0  0  0  0  0  0  0  0
   11.4878    5.2828   -6.3824 S   0  0  0  0  0  0  0  0  0  0  0  0
   10.7062    8.9651   -6.8650 H   0  0  0  0  0  0  0  0  0  0  0  0
   10.2373    5.5235  -10.8309 H   0  0  0  0  0  0  0  0  0  0  0  0
   10.5095    3.1695  -11.3605 H   0  0  0  0  0  0  0  0  0  0  0  0
   11.2492    1.5411   -9.6959 H   0  0  0  0  0  0  0  0  0  0  0  0
   11.7349    2.3457   -7.3834 H   0  0  0  0  0  0  0  0  0  0  0  0
  1  6  2  0
  2  1  1  0
  3  4  1  0
  3  2  2  0
  4  5  2  0
  5  6  1  0
  1  7  1  0
  2  8  1  0
  5  9  1  0
 10 11  1  0
 11 12  2  0
 12 13  1  0
 13 14  2  0
 14 15  1  0
 15 16  2  0
 16 17  1  0
 17 18  2  0
 18 19  1  0
 19 11  1  0
 18 13  1  0
 10 20  1  0
 14 21  1  0
 15 22  1  0
 16 23  1  0
 17 24  1  0
  3 10  1  0
M  END
>  <Score>  (1) 
-7.73661

$$$$

     RDKit          3D

 22 24  0  0  0  0  0  0  0  0999 V2000
   12.3027    8.1247   -2.3013 C   0  0  0  0  0  0  0  0  0  0  0  0
   12.0210    6.8823   -2.9139 C   0  0  0  0  0  0  0  0  0  0  0  0
   11.5246    6.8971   -4.2244 C   0  0  0  0  0  0  0  0  0  0  0  0
   11.3427    8.1102   -4.8309 N   0  0  0  0  0  0  0  0  0  0  0  0
   11.6233    9.2760   -4.2128 C   0  0  0  0  0  0  0  0  0  0  0  0
   12.1007    9.2805   -2.9547 N   0  0  0  0  0  0  0  0  0  0  0  0
   12.6834    8.1607   -1.3013 H   0  0  0  0  0  0  0  0  0  0  0  0
   12.1846    5.9664   -2.3868 H   0  0  0  0  0  0  0  0  0  0  0  0
   11.3062    5.9758   -4.7038 H   0  0  0  0  0  0  0  0  0  0  0  0
   11.4099   10.5438   -4.9080 C   0  0  0  0  0  0  0  0  0  0  0  0
   12.4031   11.1185   -5.6630 C   0  0  0  0  0  0  0  0  0  0  0  0
   12.2102   12.3089   -6.3187 C   0  0  0  0  0  0  0  0  0  0  0  0
   13.0095   13.0940   -7.1252 C   0  0  0  0  0  0  0  0  0  0  0  0
   14.0399   12.8902   -7.4155 H   0  0  0  0  0  0  0  0  0  0  0  0
   12.2966   14.1635   -7.4965 N   0  0  0  0  0  0  0  0  0  0  0  0
   11.0979   14.0777   -6.9597 N   0  0  0  0  0  0  0  0  0  0  0  0
   10.9964   12.9690   -6.2356 C   0  0  0  0  0  0  0  0  0  0  0  0
   10.0113   12.3675   -5.4672 C   0  0  0  0  0  0  0  0  0  0  0  0
   10.2405   11.2007   -4.8408 N   0  0  0  0  0  0  0  0  0  0  0  0
   13.3617   10.6374   -5.7535 H   0  0  0  0  0  0  0  0  0  0  0  0
   10.3042   14.7746   -7.0687 H   0  0  0  0  0  0  0  0  0  0  0  0
    9.0618   12.8877   -5.4045 H   0  0  0  0  0  0  0  0  0  0  0  0
  2  1  2  0
  3  2  1  0
  4  3  2  0
  4  5  1  0
  5  6  2  0
  6  1  1  0
  1  7  1  0
  2  8  1  0
  3  9  1  0
 10 11  2  0
 11 12  1  0
 12 13  1  0
 13 14  1  0
 13 15  2  0
 15 16  1  0
 16 17  1  0
 17 18  1  0
 18 19  2  0
 19 10  1  0
 17 12  2  0
 11 20  1  0
 16 21  1  0
 18 22  1  0
  5 10  1  0
M  END
>  <Score>  (1) 
-7.68949

$$$$

     RDKit          3D

 31 32  0  0  0  0  0  0  0  0999 V2000
   11.8122    6.9306   -2.9655 C   0  0  0  0  0  0  0  0  0  0  0  0
   11.4348    6.8804   -4.3285 C   0  0  0  0  0  0  0  0  0  0  0  0
   11.3601    8.0888   -5.0291 C   0  0  0  0  0  0  0  0  0  0  0  0
   11.6548    9.2449   -4.3590 N   0  0  0  0  0  0  0  0  0  0  0  0
   12.0114    9.2535   -3.0574 C   0  0  0  0  0  0  0  0  0  0  0  0
   12.0887    8.0978   -2.3664 N   0  0  0  0  0  0  0  0  0  0  0  0
   11.8541    5.9749   -2.4748 H   0  0  0  0  0  0  0  0  0  0  0  0
   11.2131    5.9504   -4.8113 H   0  0  0  0  0  0  0  0  0  0  0  0
   12.2320   10.1990   -2.5846 H   0  0  0  0  0  0  0  0  0  0  0  0
   10.9713    8.0796   -6.4479 C   0  0  2  0  0  0  0  0  0  0  0  0
    9.6269    7.8599   -6.5448 O   0  0  0  0  0  0  0  0  0  0  0  0
    9.2868    6.7104   -7.2576 C   0  0  1  0  0  0  0  0  0  0  0  0
    7.7700    6.6346   -7.2014 C   0  0  0  0  0  0  0  0  0  0  0  0
    7.2672    5.5456   -7.8643 O   0  0  0  0  0  0  0  0  0  0  0  0
    9.7790    6.8977   -8.6737 C   0  0  2  0  0  0  0  0  0  0  0  0
    9.4065    5.8570   -9.5108 O   0  0  0  0  0  0  0  0  0  0  0  0
   11.2909    6.9131   -8.6213 C   0  0  2  0  0  0  0  0  0  0  0  0
   11.8298    5.6926   -9.0852 O   0  0  0  0  0  0  0  0  0  0  0  0
   11.8206    7.1317   -7.2421 C   0  0  1  0  0  0  0  0  0  0  0  0
   13.1160    7.6818   -7.3240 O   0  0  0  0  0  0  0  0  0  0  0  0
   11.1737    9.1113   -6.8502 H   0  0  0  0  0  0  0  0  0  0  0  0
    9.7467    5.7971   -6.8577 H   0  0  0  0  0  0  0  0  0  0  0  0
    7.5008    6.5670   -6.1209 H   0  0  0  0  0  0  0  0  0  0  0  0
    7.3927    7.6069   -7.5657 H   0  0  0  0  0  0  0  0  0  0  0  0
    6.3338    5.3969   -7.5162 H   0  0  0  0  0  0  0  0  0  0  0  0
    9.4016    7.8371   -9.1298 H   0  0  0  0  0  0  0  0  0  0  0  0
    9.2216    5.0119   -9.0357 H   0  0  0  0  0  0  0  0  0  0  0  0
   11.6738    7.6852   -9.3290 H   0  0  0  0  0  0  0  0  0  0  0  0
   12.8084    5.8297   -9.1458 H   0  0  0  0  0  0  0  0  0  0  0  0
   11.9444    6.1804   -6.6664 H   0  0  0  0  0  0  0  0  0  0  0  0
   13.3570    7.9103   -8.2509 H   0  0  0  0  0  0  0  0  0  0  0  0
  1  6  2  0
  2  1  1  0
  3  4  1  0
  3  2  2  0
  4  5  2  0
  5  6  1  0
  1  7  1  0
  2  8  1  0
  5  9  1  0
 10 11  1  0
 11 12  1  0
 12 13  1  0
 13 14  1  0
 12 15  1  0
 15 16  1  0
 15 17  1  0
 17 18  1  0
 17 19  1  0
 19 20  1  0
 19 10  1  0
 10 21  1  6
 12 22  1  1
 13 23  1  0
 13 24  1  0
 14 25  1  0
 15 26  1  6
 16 27  1  0
 17 28  1  6
 18 29  1  0
 19 30  1  1
 20 31  1  0
  3 10  1  0
M  END
>  <Score>  (1) 
-7.73294

$$$$

     RDKit          3D

 31 32  0  0  0  0  0  0  0  0999 V2000
   11.8117    6.9298   -2.9673 C   0  0  0  0  0  0  0  0  0  0  0  0
   11.4353    6.8792   -4.3263 C   0  0  0  0  0  0  0  0  0  0  0  0
   11.3603    8.0916   -5.0293 C   0  0  0  0  0  0  0  0  0  0  0  0
   11.6542    9.2432   -4.3609 N   0  0  0  0  0  0  0  0  0  0  0  0
   12.0118    9.2530   -3.0559 C   0  0  0  0  0  0  0  0  0  0  0  0
   12.0888    8.0993   -2.3664 N   0  0  0  0  0  0  0  0  0  0  0  0
   11.8591    5.9691   -2.4542 H   0  0  0  0  0  0  0  0  0  0  0  0
   11.2112    5.9672   -4.8242 H   0  0  0  0  0  0  0  0  0  0  0  0
   12.2400   10.1716   -2.5453 H   0  0  0  0  0  0  0  0  0  0  0  0
   10.9791    8.1621   -6.4488 C   0  0  2  0  0  0  0  0  0  0  0  0
   10.7344    6.8609   -6.8849 O   0  0  0  0  0  0  0  0  0  0  0  0
   10.0369    6.8686   -8.0748 C   0  0  2  0  0  0  0  0  0  0  0  0
    9.9759    5.4460   -8.6228 C   0  0  0  0  0  0  0  0  0  0  0  0
    9.2719    5.4297   -9.8320 O   0  0  0  0  0  0  0  0  0  0  0  0
   10.6132    7.8170   -9.1016 C   0  0  2  0  0  0  0  0  0  0  0  0
   10.7121    7.1485  -10.3427 O   0  0  0  0  0  0  0  0  0  0  0  0
   12.0194    8.2163   -8.7200 C   0  0  1  0  0  0  0  0  0  0  0  0
   12.4533    9.2339   -9.5760 O   0  0  0  0  0  0  0  0  0  0  0  0
   12.1092    8.7052   -7.2929 C   0  0  1  0  0  0  0  0  0  0  0  0
   12.0324   10.0894   -7.2962 O   0  0  0  0  0  0  0  0  0  0  0  0
   10.0713    8.7983   -6.5246 H   0  0  0  0  0  0  0  0  0  0  0  0
    8.9906    7.1878   -7.8455 H   0  0  0  0  0  0  0  0  0  0  0  0
   10.9693    5.0171   -8.7544 H   0  0  0  0  0  0  0  0  0  0  0  0
    9.4050    4.8108   -7.9156 H   0  0  0  0  0  0  0  0  0  0  0  0
    8.3245    5.3016   -9.6455 H   0  0  0  0  0  0  0  0  0  0  0  0
    9.9753    8.7217   -9.2346 H   0  0  0  0  0  0  0  0  0  0  0  0
    9.9953    7.4910  -10.9338 H   0  0  0  0  0  0  0  0  0  0  0  0
   12.6838    7.3473   -8.8782 H   0  0  0  0  0  0  0  0  0  0  0  0
   11.8085    9.9951   -9.4877 H   0  0  0  0  0  0  0  0  0  0  0  0
   13.0846    8.3421   -6.8738 H   0  0  0  0  0  0  0  0  0  0  0  0
   12.8649   10.4793   -7.6568 H   0  0  0  0  0  0  0  0  0  0  0  0
  1  6  2  0
  2  1  1  0
  3  4  1  0
  3  2  2  0
  4  5  2  0
  5  6  1  0
  1  7  1  0
  2  8  1  0
  5  9  1  0
 10 11  1  0
 11 12  1  0
 12 13  1  0
 13 14  1  0
 12 15  1  0
 15 16  1  0
 15 17  1  0
 17 18  1  0
 17 19  1  0
 19 20  1  0
 19 10  1  0
 10 21  1  1
 12 22  1  1
 13 23  1  0
 13 24  1  0
 14 25  1  0
 15 26  1  6
 16 27  1  0
 17 28  1  1
 18 29  1  0
 19 30  1  1
 20 31  1  0
  3 10  1  0
M  END
>  <Score>  (1) 
-7.73008

$$$$

     RDKit          3D

 26 28  0  0  0  0  0  0  0  0999 V2000
   11.8131    6.9365   -2.9651 C   0  0  0  0  0  0  0  0  0  0  0  0
   11.4320    6.8866   -4.3385 C   0  0  0  0  0  0  0  0  0  0  0  0
   11.3610    8.0777   -5.0242 C   0  0  0  0  0  0  0  0  0  0  0  0
   11.6560    9.2421   -4.3532 N   0  0  0  0  0  0  0  0  0  0  0  0
   12.0111    9.2569   -3.0586 C   0  0  0  0  0  0  0  0  0  0  0  0
   12.0888    8.0962   -2.3664 N   0  0  0  0  0  0  0  0  0  0  0  0
   11.8568    5.9768   -2.4685 H   0  0  0  0  0  0  0  0  0  0  0  0
   11.1825    5.9187   -4.7486 H   0  0  0  0  0  0  0  0  0  0  0  0
   12.2428   10.1637   -2.5285 H   0  0  0  0  0  0  0  0  0  0  0  0
   10.8874    8.1890   -6.3827 C   0  0  0  0  0  0  0  0  0  0  0  0
   11.1008    9.4073   -7.0675 C   0  0  0  0  0  0  0  0  0  0  0  0
   10.7066    9.6115   -8.3465 C   0  0  0  0  0  0  0  0  0  0  0  0
   10.0751    8.5791   -8.9872 C   0  0  0  0  0  0  0  0  0  0  0  0
    9.8576    7.3786   -8.3415 C   0  0  0  0  0  0  0  0  0  0  0  0
    9.2463    6.3359   -9.0207 C   0  0  0  0  0  0  0  0  0  0  0  0
    9.0360    5.1067   -8.4337 C   0  0  0  0  0  0  0  0  0  0  0  0
    9.4466    4.9082   -7.1338 C   0  0  0  0  0  0  0  0  0  0  0  0
   10.0579    5.9197   -6.4222 C   0  0  0  0  0  0  0  0  0  0  0  0
   10.2544    7.1428   -7.0281 C   0  0  0  0  0  0  0  0  0  0  0  0
   11.6029   10.1970   -6.5270 H   0  0  0  0  0  0  0  0  0  0  0  0
   10.8620   10.5458   -8.8928 H   0  0  0  0  0  0  0  0  0  0  0  0
    9.7498    8.7222  -10.0097 H   0  0  0  0  0  0  0  0  0  0  0  0
    8.9338    6.5185  -10.0425 H   0  0  0  0  0  0  0  0  0  0  0  0
    8.5461    4.3078   -9.0104 H   0  0  0  0  0  0  0  0  0  0  0  0
    9.2949    3.9572   -6.6546 H   0  0  0  0  0  0  0  0  0  0  0  0
   10.4215    5.7424   -5.4174 H   0  0  0  0  0  0  0  0  0  0  0  0
  1  6  2  0
  2  1  1  0
  3  4  1  0
  3  2  2  0
  4  5  2  0
  5  6  1  0
  1  7  1  0
  2  8  1  0
  5  9  1  0
 10 11  2  0
 11 12  1  0
 12 13  2  0
 13 14  1  0
 14 15  2  0
 15 16  1  0
 16 17  2  0
 17 18  1  0
 18 19  2  0
 19 10  1  0
 19 14  1  0
 11 20  1  0
 12 21  1  0
 13 22  1  0
 15 23  1  0
 16 24  1  0
 17 25  1  0
 18 26  1  0
  3 10  1  0
M  END
>  <Score>  (1) 
-7.72819

$$$$

     RDKit          3D

 31 32  0  0  0  0  0  0  0  0999 V2000
   11.8113    6.9302   -2.9686 C   0  0  0  0  0  0  0  0  0  0  0  0
   11.4358    6.8775   -4.3242 C   0  0  0  0  0  0  0  0  0  0  0  0
   11.3604    8.0936   -5.0297 C   0  0  0  0  0  0  0  0  0  0  0  0
   11.6538    9.2429   -4.3619 N   0  0  0  0  0  0  0  0  0  0  0  0
   12.0120    9.2527   -3.0551 C   0  0  0  0  0  0  0  0  0  0  0  0
   12.0888    8.0992   -2.3665 N   0  0  0  0  0  0  0  0  0  0  0  0
   11.8742    6.0125   -2.4144 H   0  0  0  0  0  0  0  0  0  0  0  0
   11.2134    5.9629   -4.8146 H   0  0  0  0  0  0  0  0  0  0  0  0
   12.2319   10.1824   -2.5785 H   0  0  0  0  0  0  0  0  0  0  0  0
   10.9694    8.1158   -6.4681 C   0  0  2  0  0  0  0  0  0  0  0  0
   10.4163    6.8892   -6.7628 O   0  0  0  0  0  0  0  0  0  0  0  0
   10.0206    6.8038   -8.1051 C   0  0  2  0  0  0  0  0  0  0  0  0
    9.2086    5.5460   -8.2461 C   0  0  0  0  0  0  0  0  0  0  0  0
    9.8934    4.4069   -7.9183 O   0  0  0  0  0  0  0  0  0  0  0  0
   11.2424    6.8424   -8.9483 C   0  0  1  0  0  0  0  0  0  0  0  0
   11.0230    6.7350  -10.2968 O   0  0  0  0  0  0  0  0  0  0  0  0
   11.8777    8.2201   -8.7304 C   0  0  2  0  0  0  0  0  0  0  0  0
   12.9424    8.4357   -9.5687 O   0  0  0  0  0  0  0  0  0  0  0  0
   12.1826    8.4543   -7.2767 C   0  0  1  0  0  0  0  0  0  0  0  0
   12.4360    9.8174   -7.1129 O   0  0  0  0  0  0  0  0  0  0  0  0
   10.1943    8.8928   -6.5906 H   0  0  0  0  0  0  0  0  0  0  0  0
    9.4246    7.7154   -8.3029 H   0  0  0  0  0  0  0  0  0  0  0  0
    8.2793    5.5864   -7.6431 H   0  0  0  0  0  0  0  0  0  0  0  0
    8.8683    5.5072   -9.3183 H   0  0  0  0  0  0  0  0  0  0  0  0
   10.1551    3.9153   -8.7377 H   0  0  0  0  0  0  0  0  0  0  0  0
   12.0266    6.1113   -8.5960 H   0  0  0  0  0  0  0  0  0  0  0  0
   10.6303    5.8992  -10.6013 H   0  0  0  0  0  0  0  0  0  0  0  0
   11.0757    8.9523   -9.0176 H   0  0  0  0  0  0  0  0  0  0  0  0
   13.6281    7.7426   -9.5599 H   0  0  0  0  0  0  0  0  0  0  0  0
   13.0550    7.8743   -6.9621 H   0  0  0  0  0  0  0  0  0  0  0  0
   11.6546   10.3425   -7.3962 H   0  0  0  0  0  0  0  0  0  0  0  0
  1  6  2  0
  2  1  1  0
  3  4  1  0
  3  2  2  0
  4  5  2  0
  5  6  1  0
  1  7  1  0
  2  8  1  0
  5  9  1  0
 10 11  1  0
 11 12  1  0
 12 13  1  0
 13 14  1  0
 12 15  1  0
 15 16  1  0
 15 17  1  0
 17 18  1  0
 17 19  1  0
 19 20  1  0
 19 10  1  0
 10 21  1  1
 12 22  1  6
 13 23  1  0
 13 24  1  0
 14 25  1  0
 15 26  1  1
 16 27  1  0
 17 28  1  6
 18 29  1  0
 19 30  1  1
 20 31  1  0
  3 10  1  0
M  END
>  <Score>  (1) 
-7.72653

$$$$

     RDKit          3D

 20 21  0  0  0  0  0  0  0  0999 V2000
   11.8125    6.9301   -2.9642 C   0  0  0  0  0  0  0  0  0  0  0  0
   11.4349    6.8860   -4.3303 C   0  0  0  0  0  0  0  0  0  0  0  0
   11.3599    8.0882   -5.0293 C   0  0  0  0  0  0  0  0  0  0  0  0
   11.6540    9.2398   -4.3602 N   0  0  0  0  0  0  0  0  0  0  0  0
   12.0117    9.2543   -3.0564 C   0  0  0  0  0  0  0  0  0  0  0  0
   12.0889    8.0976   -2.3656 N   0  0  0  0  0  0  0  0  0  0  0  0
   11.8850    6.0352   -2.3830 H   0  0  0  0  0  0  0  0  0  0  0  0
   11.2214    5.9508   -4.7810 H   0  0  0  0  0  0  0  0  0  0  0  0
   12.2340   10.1976   -2.5764 H   0  0  0  0  0  0  0  0  0  0  0  0
   10.9830    8.1333   -6.4243 C   0  0  0  0  0  0  0  0  0  0  0  0
   11.7785    8.6274   -7.4080 C   0  0  0  0  0  0  0  0  0  0  0  0
   11.3362    8.6340   -8.7366 C   0  0  0  0  0  0  0  0  0  0  0  0
   12.1074    9.1206   -9.7414 F   0  0  0  0  0  0  0  0  0  0  0  0
   10.0931    8.1416   -9.0645 C   0  0  0  0  0  0  0  0  0  0  0  0
    9.2784    7.6386   -8.0769 C   0  0  0  0  0  0  0  0  0  0  0  0
    8.0405    7.1436   -8.3720 F   0  0  0  0  0  0  0  0  0  0  0  0
    9.7332    7.6447   -6.7965 C   0  0  0  0  0  0  0  0  0  0  0  0
   12.7534    9.0198   -7.1930 H   0  0  0  0  0  0  0  0  0  0  0  0
    9.7066    8.1245  -10.0724 H   0  0  0  0  0  0  0  0  0  0  0  0
    9.0876    7.2466   -6.0171 H   0  0  0  0  0  0  0  0  0  0  0  0
  1  6  2  0
  2  1  1  0
  3  4  1  0
  3  2  2  0
  4  5  2  0
  5  6  1  0
  1  7  1  0
  2  8  1  0
  5  9  1  0
 10 11  2  0
 11 12  1  0
 12 13  1  0
 12 14  2  0
 14 15  1  0
 15 16  1  0
 15 17  2  0
 17 10  1  0
 11 18  1  0
 14 19  1  0
 17 20  1  0
  3 10  1  0
M  END
>  <Score>  (1) 
-7.71572

$$$$

     RDKit          3D

 23 24  0  0  0  0  0  0  0  0999 V2000
   11.8114    6.9266   -2.9672 C   0  0  0  0  0  0  0  0  0  0  0  0
   11.4354    6.8869   -4.3288 C   0  0  0  0  0  0  0  0  0  0  0  0
   11.3590    8.0853   -5.0317 C   0  0  0  0  0  0  0  0  0  0  0  0
   11.6557    9.2424   -4.3549 N   0  0  0  0  0  0  0  0  0  0  0  0
   12.0109    9.2500   -3.0581 C   0  0  0  0  0  0  0  0  0  0  0  0
   12.0897    8.1048   -2.3652 N   0  0  0  0  0  0  0  0  0  0  0  0
   11.8667    5.9959   -2.4359 H   0  0  0  0  0  0  0  0  0  0  0  0
   11.2205    5.9551   -4.7858 H   0  0  0  0  0  0  0  0  0  0  0  0
   12.2260   10.2088   -2.6095 H   0  0  0  0  0  0  0  0  0  0  0  0
    9.5034    9.6801  -11.0833 H   0  0  0  0  0  0  0  0  0  0  0  0
    9.6236    8.3539  -10.7733 S   0  0  0  0  0  6  0  0  0  0  0  0
    8.3218    7.6296  -10.9492 O   0  0  0  0  0  0  0  0  0  0  0  0
   10.6687    7.7105  -11.6431 O   0  0  0  0  0  0  0  0  0  0  0  0
   10.1595    8.2725   -9.0986 C   0  0  0  0  0  0  0  0  0  0  0  0
    9.2309    8.3496   -8.0778 C   0  0  0  0  0  0  0  0  0  0  0  0
    9.6580    8.2851   -6.7617 C   0  0  0  0  0  0  0  0  0  0  0  0
   10.9832    8.1459   -6.4280 C   0  0  0  0  0  0  0  0  0  0  0  0
   11.8881    8.0714   -7.4566 C   0  0  0  0  0  0  0  0  0  0  0  0
   11.4850    8.1337   -8.7845 C   0  0  0  0  0  0  0  0  0  0  0  0
    8.1782    8.4596   -8.3127 H   0  0  0  0  0  0  0  0  0  0  0  0
    8.9309    8.3455   -5.9668 H   0  0  0  0  0  0  0  0  0  0  0  0
   12.9223    7.9636   -7.2507 H   0  0  0  0  0  0  0  0  0  0  0  0
   12.1949    8.0753   -9.6027 H   0  0  0  0  0  0  0  0  0  0  0  0
  1  6  2  0
  2  1  1  0
  3  4  1  0
  3  2  2  0
  4  5  2  0
  5  6  1  0
  1  7  1  0
  2  8  1  0
  5  9  1  0
 10 11  1  0
 11 12  2  0
 11 13  2  0
 11 14  1  0
 14 15  2  0
 15 16  1  0
 16 17  2  0
 17 18  1  0
 18 19  2  0
 19 14  1  0
 15 20  1  0
 16 21  1  0
 18 22  1  0
 19 23  1  0
  3 17  1  0
M  END
>  <Score>  (1) 
-7.70987

$$$$

     RDKit          3D

 29 31  0  0  0  0  0  0  0  0999 V2000
   11.8119    6.9284   -2.9661 C   0  0  0  0  0  0  0  0  0  0  0  0
   11.4346    6.8846   -4.3308 C   0  0  0  0  0  0  0  0  0  0  0  0
   11.3605    8.0867   -5.0265 C   0  0  0  0  0  0  0  0  0  0  0  0
   11.6537    9.2428   -4.3624 N   0  0  0  0  0  0  0  0  0  0  0  0
   12.0122    9.2522   -3.0540 C   0  0  0  0  0  0  0  0  0  0  0  0
   12.0891    8.1013   -2.3661 N   0  0  0  0  0  0  0  0  0  0  0  0
   11.8605    5.9933   -2.4578 H   0  0  0  0  0  0  0  0  0  0  0  0
   11.2110    5.9687   -4.8254 H   0  0  0  0  0  0  0  0  0  0  0  0
   12.2275   10.1933   -2.5989 H   0  0  0  0  0  0  0  0  0  0  0  0
   10.9964    8.1442   -6.3791 N   0  0  0  0  0  0  0  0  0  0  0  0
    9.6729    7.9889   -6.9557 C   0  0  2  0  0  0  0  0  0  0  0  0
   10.0213    6.9177   -8.0020 C   0  0  0  0  0  0  0  0  0  0  0  0
   11.1931    7.5943   -8.6769 C   0  0  0  0  0  0  0  0  0  0  0  0
   11.8378    8.3716   -7.5446 C   0  0  1  0  0  0  0  0  0  0  0  0
   11.6257    9.8456   -7.8723 C   0  0  0  0  0  0  0  0  0  0  0  0
   10.2123   10.1129   -8.2060 C   0  0  0  0  0  0  0  0  0  0  0  0
    9.9785   11.1689   -7.8754 H   0  0  0  0  0  0  0  0  0  0  0  0
    9.1905    9.2218   -7.6465 C   0  0  0  0  0  0  0  0  0  0  0  0
    8.9273    7.6194   -6.2445 H   0  0  0  0  0  0  0  0  0  0  0  0
    9.1833    6.7118   -8.6659 H   0  0  0  0  0  0  0  0  0  0  0  0
   10.3831    6.0341   -7.4379 H   0  0  0  0  0  0  0  0  0  0  0  0
   10.7740    8.2435   -9.4671 H   0  0  0  0  0  0  0  0  0  0  0  0
   11.8960    6.8620   -9.1201 H   0  0  0  0  0  0  0  0  0  0  0  0
   12.8839    8.1273   -7.3856 H   0  0  0  0  0  0  0  0  0  0  0  0
   12.3392   10.1001   -8.6795 H   0  0  0  0  0  0  0  0  0  0  0  0
   11.9432   10.4094   -6.9704 H   0  0  0  0  0  0  0  0  0  0  0  0
   10.1327   10.1750   -9.3318 H   0  0  0  0  0  0  0  0  0  0  0  0
    8.4966    8.8872   -8.4674 H   0  0  0  0  0  0  0  0  0  0  0  0
    8.5059    9.7530   -6.9215 H   0  0  0  0  0  0  0  0  0  0  0  0
  1  6  2  0
  2  1  1  0
  3  4  1  0
  3  2  2  0
  4  5  2  0
  5  6  1  0
  1  7  1  0
  2  8  1  0
  5  9  1  0
 10 11  1  0
 11 12  1  0
 12 13  1  0
 13 14  1  0
 14 15  1  0
 15 16  1  0
 16 17  1  0
 16 18  1  0
 14 10  1  0
 18 11  1  0
 11 19  1  1
 12 20  1  0
 12 21  1  0
 13 22  1  0
 13 23  1  0
 14 24  1  1
 15 25  1  0
 15 26  1  0
 16 27  1  0
 18 28  1  0
 18 29  1  0
  3 10  1  0
M  END
>  <Score>  (1) 
-7.70632

$$$$

     RDKit          3D

 22 24  0  0  0  0  0  0  0  0999 V2000
   11.8128    6.9305   -2.9635 C   0  0  0  0  0  0  0  0  0  0  0  0
   11.4341    6.8840   -4.3326 C   0  0  0  0  0  0  0  0  0  0  0  0
   11.3606    8.0866   -5.0264 C   0  0  0  0  0  0  0  0  0  0  0  0
   11.6542    9.2430   -4.3605 N   0  0  0  0  0  0  0  0  0  0  0  0
   12.0118    9.2537   -3.0560 C   0  0  0  0  0  0  0  0  0  0  0  0
   12.0886    8.0983   -2.3669 N   0  0  0  0  0  0  0  0  0  0  0  0
   11.8717    6.0134   -2.4238 H   0  0  0  0  0  0  0  0  0  0  0  0
   11.2133    5.9503   -4.8104 H   0  0  0  0  0  0  0  0  0  0  0  0
   12.2384   10.1915   -2.5583 H   0  0  0  0  0  0  0  0  0  0  0  0
   10.9795    8.0692   -6.4145 C   0  0  0  0  0  0  0  0  0  0  0  0
   10.9895    6.8933   -7.1304 C   0  0  0  0  0  0  0  0  0  0  0  0
   10.6164    6.9380   -8.4494 C   0  0  0  0  0  0  0  0  0  0  0  0
   10.5236    5.9501   -9.4168 C   0  0  0  0  0  0  0  0  0  0  0  0
   10.7401    4.8976   -9.3076 H   0  0  0  0  0  0  0  0  0  0  0  0
   10.1044    6.5708  -10.5342 N   0  0  0  0  0  0  0  0  0  0  0  0
    9.9366    7.8684  -10.3104 N   0  0  0  0  0  0  0  0  0  0  0  0
   10.2449    8.1311   -9.0287 C   0  0  0  0  0  0  0  0  0  0  0  0
   10.2430    9.3120   -8.2806 C   0  0  0  0  0  0  0  0  0  0  0  0
   10.6129    9.2114   -7.0084 N   0  0  0  0  0  0  0  0  0  0  0  0
   11.2817    5.9353   -6.6877 H   0  0  0  0  0  0  0  0  0  0  0  0
    9.6236    8.6054  -10.9701 H   0  0  0  0  0  0  0  0  0  0  0  0
    9.9462   10.2437   -8.7569 H   0  0  0  0  0  0  0  0  0  0  0  0
  1  6  2  0
  2  1  1  0
  3  4  1  0
  3  2  2  0
  4  5  2  0
  5  6  1  0
  1  7  1  0
  2  8  1  0
  5  9  1  0
 10 11  2  0
 11 12  1  0
 12 13  1  0
 13 14  1  0
 13 15  2  0
 15 16  1  0
 16 17  1  0
 17 18  1  0
 18 19  2  0
 19 10  1  0
 17 12  2  0
 11 20  1  0
 16 21  1  0
 18 22  1  0
  3 10  1  0
M  END
>  <Score>  (1) 
-7.70524

$$$$

     RDKit          3D

 27 29  0  0  0  0  0  0  0  0999 V2000
   11.8123    6.9293   -2.9650 C   0  0  0  0  0  0  0  0  0  0  0  0
   11.4351    6.8863   -4.3297 C   0  0  0  0  0  0  0  0  0  0  0  0
   11.3604    8.0907   -5.0285 C   0  0  0  0  0  0  0  0  0  0  0  0
   11.6529    9.2369   -4.3631 N   0  0  0  0  0  0  0  0  0  0  0  0
   12.0123    9.2540   -3.0543 C   0  0  0  0  0  0  0  0  0  0  0  0
   12.0890    8.0989   -2.3654 N   0  0  0  0  0  0  0  0  0  0  0  0
   11.8793    6.0034   -2.3925 H   0  0  0  0  0  0  0  0  0  0  0  0
   11.2242    5.9349   -4.7652 H   0  0  0  0  0  0  0  0  0  0  0  0
   12.2455   10.1614   -2.5217 H   0  0  0  0  0  0  0  0  0  0  0  0
   10.9748    8.0321   -6.4265 C   0  0  2  0  0  0  0  0  0  0  0  0
   12.0837    7.7148   -7.3976 C   0  0  0  0  0  0  0  0  0  0  0  0
   11.6785    8.4551   -8.6596 C   0  0  2  0  0  0  0  0  0  0  0  0
   12.3003    9.8403   -8.5361 C   0  0  0  0  0  0  0  0  0  0  0  0
   11.6157   10.2974   -7.2349 C   0  0  0  0  0  0  0  0  0  0  0  0
   10.4799    9.3651   -6.9868 C   0  0  1  0  0  0  0  0  0  0  0  0
   10.2117    8.8606   -8.4205 C   0  0  0  0  0  0  0  0  0  0  0  0
   10.1301    7.3291   -6.5589 H   0  0  0  0  0  0  0  0  0  0  0  0
   12.1537    6.6454   -7.6534 H   0  0  0  0  0  0  0  0  0  0  0  0
   13.0629    8.0952   -7.0282 H   0  0  0  0  0  0  0  0  0  0  0  0
   11.8514    7.9501   -9.5779 H   0  0  0  0  0  0  0  0  0  0  0  0
   13.3838    9.7642   -8.4319 H   0  0  0  0  0  0  0  0  0  0  0  0
   11.9895   10.4789   -9.3887 H   0  0  0  0  0  0  0  0  0  0  0  0
   11.3075   11.3479   -7.3591 H   0  0  0  0  0  0  0  0  0  0  0  0
   12.4021   10.2236   -6.4592 H   0  0  0  0  0  0  0  0  0  0  0  0
    9.6133    9.7565   -6.5049 H   0  0  0  0  0  0  0  0  0  0  0  0
    9.5900    7.9682   -8.4184 H   0  0  0  0  0  0  0  0  0  0  0  0
    9.9079    9.6680   -9.0810 H   0  0  0  0  0  0  0  0  0  0  0  0
  1  6  2  0
  2  1  1  0
  3  4  1  0
  3  2  2  0
  4  5  2  0
  5  6  1  0
  1  7  1  0
  2  8  1  0
  5  9  1  0
 10 11  1  0
 11 12  1  0
 12 13  1  0
 13 14  1  0
 14 15  1  0
 15 16  1  0
 15 10  1  0
 16 12  1  0
 10 17  1  1
 11 18  1  0
 11 19  1  0
 12 20  1  6
 13 21  1  0
 13 22  1  0
 14 23  1  0
 14 24  1  0
 15 25  1  1
 16 26  1  0
 16 27  1  0
  3 10  1  0
M  END
>  <Score>  (1) 
-7.6867

$$$$

     RDKit          3D

 28 30  0  0  0  0  0  0  0  0999 V2000
   11.8105    6.9322   -2.9722 C   0  0  0  0  0  0  0  0  0  0  0  0
   11.4364    6.8869   -4.3251 C   0  0  0  0  0  0  0  0  0  0  0  0
   11.3604    8.0929   -5.0291 C   0  0  0  0  0  0  0  0  0  0  0  0
   11.6531    9.2308   -4.3605 N   0  0  0  0  0  0  0  0  0  0  0  0
   12.0117    9.2537   -3.0563 C   0  0  0  0  0  0  0  0  0  0  0  0
   12.0898    8.0995   -2.3628 N   0  0  0  0  0  0  0  0  0  0  0  0
   11.8774    6.0188   -2.4050 H   0  0  0  0  0  0  0  0  0  0  0  0
   11.2174    5.9713   -4.8028 H   0  0  0  0  0  0  0  0  0  0  0  0
   12.2286   10.2097   -2.6006 H   0  0  0  0  0  0  0  0  0  0  0  0
   10.9880    8.0736   -6.3850 N   0  0  0  0  0  0  0  0  0  0  0  0
   10.3882    7.0100   -7.0979 C   0  0  0  0  0  0  0  0  0  0  0  0
   10.1054    7.2223   -8.4506 C   0  0  0  0  0  0  0  0  0  0  0  0
    9.5252    6.2388   -9.2041 C   0  0  0  0  0  0  0  0  0  0  0  0
    9.1966    5.0181   -8.6857 C   0  0  0  0  0  0  0  0  0  0  0  0
    9.4640    4.7873   -7.3642 C   0  0  0  0  0  0  0  0  0  0  0  0
   10.0587    5.7921   -6.5864 C   0  0  0  0  0  0  0  0  0  0  0  0
    9.1419    3.5577   -6.8091 O   0  0  0  0  0  0  0  0  0  0  0  0
    8.3111    2.6252   -7.4755 C   0  0  0  0  0  0  0  0  0  0  0  0
    8.5111    2.6758   -8.9864 C   0  0  0  0  0  0  0  0  0  0  0  0
    8.6061    4.0020   -9.4319 O   0  0  0  0  0  0  0  0  0  0  0  0
   11.1986    8.9925   -6.9121 H   0  0  0  0  0  0  0  0  0  0  0  0
   10.3459    8.1846   -8.9278 H   0  0  0  0  0  0  0  0  0  0  0  0
    9.3060    6.4109  -10.2632 H   0  0  0  0  0  0  0  0  0  0  0  0
   10.2398    5.5478   -5.5663 H   0  0  0  0  0  0  0  0  0  0  0  0
    7.2410    2.8743   -7.2962 H   0  0  0  0  0  0  0  0  0  0  0  0
    8.5716    1.6277   -7.0740 H   0  0  0  0  0  0  0  0  0  0  0  0
    9.4165    2.0795   -9.1991 H   0  0  0  0  0  0  0  0  0  0  0  0
    7.6558    2.1516   -9.4598 H   0  0  0  0  0  0  0  0  0  0  0  0
  1  6  2  0
  2  1  1  0
  3  4  1  0
  3  2  2  0
  4  5  2  0
  5  6  1  0
  1  7  1  0
  2  8  1  0
  5  9  1  0
 10 11  1  0
 11 12  2  0
 12 13  1  0
 13 14  2  0
 14 15  1  0
 15 16  2  0
 15 17  1  0
 17 18  1  0
 18 19  1  0
 19 20  1  0
 16 11  1  0
 20 14  1  0
 10 21  1  0
 12 22  1  0
 13 23  1  0
 16 24  1  0
 18 25  1  0
 18 26  1  0
 19 27  1  0
 19 28  1  0
  3 10  1  0
M  END
>  <Score>  (1) 
-7.67349

$$$$

     RDKit          3D

 23 25  0  0  0  0  0  0  0  0999 V2000
   12.3026    8.1212   -2.3012 C   0  0  0  0  0  0  0  0  0  0  0  0
   12.0210    6.8846   -2.9143 C   0  0  0  0  0  0  0  0  0  0  0  0
   11.5251    6.8960   -4.2228 C   0  0  0  0  0  0  0  0  0  0  0  0
   11.3424    8.1107   -4.8317 N   0  0  0  0  0  0  0  0  0  0  0  0
   11.6234    9.2763   -4.2126 C   0  0  0  0  0  0  0  0  0  0  0  0
   12.1005    9.2822   -2.9554 N   0  0  0  0  0  0  0  0  0  0  0  0
   12.6825    8.0668   -1.2940 H   0  0  0  0  0  0  0  0  0  0  0  0
   12.1797    5.9488   -2.3981 H   0  0  0  0  0  0  0  0  0  0  0  0
   11.2895    5.9943   -4.7496 H   0  0  0  0  0  0  0  0  0  0  0  0
   11.4019   10.5311   -4.9280 C   0  0  0  0  0  0  0  0  0  0  0  0
   10.1569   10.8711   -5.3788 C   0  0  0  0  0  0  0  0  0  0  0  0
    9.9906   12.0636   -6.0490 C   0  0  0  0  0  0  0  0  0  0  0  0
   11.0429   12.9162   -6.2742 C   0  0  0  0  0  0  0  0  0  0  0  0
   12.2816   12.5616   -5.8170 C   0  0  0  0  0  0  0  0  0  0  0  0
   12.4625   11.3781   -5.1484 C   0  0  0  0  0  0  0  0  0  0  0  0
   13.1306   13.6171   -6.1943 O   0  0  0  0  0  0  0  0  0  0  0  0
   12.3170   14.7634   -6.4620 C   0  0  0  0  0  0  0  0  0  0  0  0
   11.1173   14.1493   -6.9138 O   0  0  0  0  0  0  0  0  0  0  0  0
    9.3187   10.1999   -5.2035 H   0  0  0  0  0  0  0  0  0  0  0  0
    8.9709   12.2948   -6.3929 H   0  0  0  0  0  0  0  0  0  0  0  0
   13.4450   11.1179   -4.7971 H   0  0  0  0  0  0  0  0  0  0  0  0
   12.1280   15.2816   -5.5098 H   0  0  0  0  0  0  0  0  0  0  0  0
   12.7802   15.4062   -7.2349 H   0  0  0  0  0  0  0  0  0  0  0  0
  2  1  2  0
  3  2  1  0
  4  3  2  0
  4  5  1  0
  5  6  2  0
  6  1  1  0
  1  7  1  0
  2  8  1  0
  3  9  1  0
 10 11  2  0
 11 12  1  0
 12 13  2  0
 13 14  1  0
 14 15  2  0
 14 16  1  0
 16 17  1  0
 17 18  1  0
 15 10  1  0
 18 13  1  0
 11 19  1  0
 12 20  1  0
 15 21  1  0
 17 22  1  0
 17 23  1  0
  5 10  1  0
M  END
>  <Score>  (1) 
-7.68658

$$$$

     RDKit          3D

 31 32  0  0  0  0  0  0  0  0999 V2000
   11.8119    6.9302   -2.9664 C   0  0  0  0  0  0  0  0  0  0  0  0
   11.4351    6.8799   -4.3274 C   0  0  0  0  0  0  0  0  0  0  0  0
   11.3603    8.0909   -5.0289 C   0  0  0  0  0  0  0  0  0  0  0  0
   11.6541    9.2431   -4.3609 N   0  0  0  0  0  0  0  0  0  0  0  0
   12.0118    9.2531   -3.0559 C   0  0  0  0  0  0  0  0  0  0  0  0
   12.0888    8.0988   -2.3665 N   0  0  0  0  0  0  0  0  0  0  0  0
   11.8541    5.9696   -2.4729 H   0  0  0  0  0  0  0  0  0  0  0  0
   11.2176    5.9461   -4.7923 H   0  0  0  0  0  0  0  0  0  0  0  0
   12.2371   10.1755   -2.5573 H   0  0  0  0  0  0  0  0  0  0  0  0
   10.9772    8.1366   -6.4487 C   0  0  1  0  0  0  0  0  0  0  0  0
   10.6578    9.4583   -6.7537 O   0  0  0  0  0  0  0  0  0  0  0  0
   10.2810    9.6151   -8.0774 C   0  0  2  0  0  0  0  0  0  0  0  0
    8.8458   10.1079   -8.1980 C   0  0  0  0  0  0  0  0  0  0  0  0
    8.7264   11.3298   -7.5612 O   0  0  0  0  0  0  0  0  0  0  0  0
   10.3906    8.3605   -8.8892 C   0  0  1  0  0  0  0  0  0  0  0  0
   10.1639    8.7175  -10.2305 O   0  0  0  0  0  0  0  0  0  0  0  0
   11.7322    7.6908   -8.7888 C   0  0  2  0  0  0  0  0  0  0  0  0
   11.6088    6.4245   -9.3658 O   0  0  0  0  0  0  0  0  0  0  0  0
   12.0911    7.6111   -7.3175 C   0  0  1  0  0  0  0  0  0  0  0  0
   13.2811    8.2759   -7.1069 O   0  0  0  0  0  0  0  0  0  0  0  0
   10.0801    7.5032   -6.5954 H   0  0  0  0  0  0  0  0  0  0  0  0
   10.9536   10.3779   -8.5346 H   0  0  0  0  0  0  0  0  0  0  0  0
    8.6321   10.2364   -9.2791 H   0  0  0  0  0  0  0  0  0  0  0  0
    8.1565    9.3363   -7.7950 H   0  0  0  0  0  0  0  0  0  0  0  0
    8.0199   11.8951   -7.9211 H   0  0  0  0  0  0  0  0  0  0  0  0
    9.6013    7.6509   -8.5901 H   0  0  0  0  0  0  0  0  0  0  0  0
   10.4004    9.6696  -10.3776 H   0  0  0  0  0  0  0  0  0  0  0  0
   12.4678    8.2693   -9.3482 H   0  0  0  0  0  0  0  0  0  0  0  0
   12.3645    6.2561  -10.0070 H   0  0  0  0  0  0  0  0  0  0  0  0
   12.2313    6.5429   -7.0868 H   0  0  0  0  0  0  0  0  0  0  0  0
   14.0632    7.6933   -7.3444 H   0  0  0  0  0  0  0  0  0  0  0  0
  1  6  2  0
  2  1  1  0
  3  4  1  0
  3  2  2  0
  4  5  2  0
  5  6  1  0
  1  7  1  0
  2  8  1  0
  5  9  1  0
 10 11  1  0
 11 12  1  0
 12 13  1  0
 13 14  1  0
 12 15  1  0
 15 16  1  0
 15 17  1  0
 17 18  1  0
 17 19  1  0
 19 20  1  0
 19 10  1  0
 10 21  1  1
 12 22  1  6
 13 23  1  0
 13 24  1  0
 14 25  1  0
 15 26  1  1
 16 27  1  0
 17 28  1  6
 18 29  1  0
 19 30  1  1
 20 31  1  0
  3 10  1  0
M  END
>  <Score>  (1) 
-7.6731

$$$$

     RDKit          3D

 23 24  0  0  0  0  0  0  0  0999 V2000
   11.8136    6.9346   -2.9619 C   0  0  0  0  0  0  0  0  0  0  0  0
   11.4339    6.8830   -4.3331 C   0  0  0  0  0  0  0  0  0  0  0  0
   11.3594    8.0857   -5.0302 C   0  0  0  0  0  0  0  0  0  0  0  0
   11.6559    9.2442   -4.3549 N   0  0  0  0  0  0  0  0  0  0  0  0
   12.0105    9.2511   -3.0597 C   0  0  0  0  0  0  0  0  0  0  0  0
   12.0886    8.0973   -2.3663 N   0  0  0  0  0  0  0  0  0  0  0  0
   11.8679    5.9880   -2.4288 H   0  0  0  0  0  0  0  0  0  0  0  0
   11.2184    5.9395   -4.7880 H   0  0  0  0  0  0  0  0  0  0  0  0
   12.2407   10.1730   -2.5434 H   0  0  0  0  0  0  0  0  0  0  0  0
   10.3524    8.8297  -11.1444 H   0  0  0  0  0  0  0  0  0  0  0  0
    9.8955    7.9755  -10.6062 C   0  0  0  0  0  0  0  0  0  0  0  0
   10.2720    8.0205   -9.1608 C   0  0  0  0  0  0  0  0  0  0  0  0
   10.2493    9.2078   -8.4591 C   0  0  0  0  0  0  0  0  0  0  0  0
   10.6011    9.2536   -7.1064 C   0  0  0  0  0  0  0  0  0  0  0  0
   10.9794    8.1226   -6.4339 C   0  0  0  0  0  0  0  0  0  0  0  0
   10.9960    6.9436   -7.1530 C   0  0  0  0  0  0  0  0  0  0  0  0
   10.6524    6.8814   -8.4854 C   0  0  0  0  0  0  0  0  0  0  0  0
   10.2877    7.0422  -11.0490 H   0  0  0  0  0  0  0  0  0  0  0  0
    8.7979    8.0558  -10.6545 H   0  0  0  0  0  0  0  0  0  0  0  0
    9.9545   10.1055   -8.9727 H   0  0  0  0  0  0  0  0  0  0  0  0
   10.5744   10.1928   -6.5845 H   0  0  0  0  0  0  0  0  0  0  0  0
   11.2941    6.0312   -6.6368 H   0  0  0  0  0  0  0  0  0  0  0  0
   10.6609    5.9625   -9.0628 H   0  0  0  0  0  0  0  0  0  0  0  0
  1  6  2  0
  2  1  1  0
  3  4  1  0
  3  2  2  0
  4  5  2  0
  5  6  1  0
  1  7  1  0
  2  8  1  0
  5  9  1  0
 10 11  1  0
 11 12  1  0
 12 13  2  0
 13 14  1  0
 14 15  2  0
 15 16  1  0
 16 17  2  0
 17 12  1  0
 11 18  1  0
 11 19  1  0
 13 20  1  0
 14 21  1  0
 16 22  1  0
 17 23  1  0
  3 15  1  0
M  END
>  <Score>  (1) 
-7.67285

$$$$

     RDKit          3D

 23 24  0  0  0  0  0  0  0  0999 V2000
   11.8129    6.9337   -2.9641 C   0  0  0  0  0  0  0  0  0  0  0  0
   11.4351    6.8858   -4.3296 C   0  0  0  0  0  0  0  0  0  0  0  0
   11.3594    8.0876   -5.0312 C   0  0  0  0  0  0  0  0  0  0  0  0
   11.6553    9.2405   -4.3558 N   0  0  0  0  0  0  0  0  0  0  0  0
   12.0105    9.2526   -3.0603 C   0  0  0  0  0  0  0  0  0  0  0  0
   12.0888    8.0959   -2.3651 N   0  0  0  0  0  0  0  0  0  0  0  0
   11.8868    6.0321   -2.3751 H   0  0  0  0  0  0  0  0  0  0  0  0
   11.2220    5.9480   -4.7778 H   0  0  0  0  0  0  0  0  0  0  0  0
   12.2454   10.1593   -2.5214 H   0  0  0  0  0  0  0  0  0  0  0  0
   10.2351   10.6128  -10.6502 H   0  0  0  0  0  0  0  0  0  0  0  0
   11.0521   10.6264   -9.5638 S   0  0  0  0  0  6  0  0  0  0  0  0
   10.8258   11.8489   -8.7394 O   0  0  0  0  0  0  0  0  0  0  0  0
   12.5182   10.5900   -9.9645 O   0  0  0  0  0  0  0  0  0  0  0  0
   10.7871    9.2061   -8.5707 C   0  0  0  0  0  0  0  0  0  0  0  0
   10.1996    8.0992   -9.1416 C   0  0  0  0  0  0  0  0  0  0  0  0
   10.0152    7.0115   -8.3158 C   0  0  0  0  0  0  0  0  0  0  0  0
   10.3940    7.0219   -6.9924 C   0  0  0  0  0  0  0  0  0  0  0  0
   10.9810    8.1355   -6.4324 C   0  0  0  0  0  0  0  0  0  0  0  0
   11.1753    9.2329   -7.2368 C   0  0  0  0  0  0  0  0  0  0  0  0
    9.9105    8.1171  -10.1868 H   0  0  0  0  0  0  0  0  0  0  0  0
    9.5528    6.1251   -8.7443 H   0  0  0  0  0  0  0  0  0  0  0  0
   10.2211    6.1277   -6.3885 H   0  0  0  0  0  0  0  0  0  0  0  0
   11.6345   10.1290   -6.8320 H   0  0  0  0  0  0  0  0  0  0  0  0
  1  6  2  0
  2  1  1  0
  3  4  1  0
  3  2  2  0
  4  5  2  0
  5  6  1  0
  1  7  1  0
  2  8  1  0
  5  9  1  0
 10 11  1  0
 11 12  2  0
 11 13  2  0
 11 14  1  0
 14 15  2  0
 15 16  1  0
 16 17  2  0
 17 18  1  0
 18 19  2  0
 19 14  1  0
 15 20  1  0
 16 21  1  0
 17 22  1  0
 19 23  1  0
  3 18  1  0
M  END
>  <Score>  (1) 
-7.67249

$$$$

     RDKit          3D

 31 32  0  0  0  0  0  0  0  0999 V2000
   11.8105    6.9275   -2.9708 C   0  0  0  0  0  0  0  0  0  0  0  0
   11.4361    6.8799   -4.3239 C   0  0  0  0  0  0  0  0  0  0  0  0
   11.3600    8.0900   -5.0297 C   0  0  0  0  0  0  0  0  0  0  0  0
   11.6543    9.2444   -4.3608 N   0  0  0  0  0  0  0  0  0  0  0  0
   12.0119    9.2519   -3.0549 C   0  0  0  0  0  0  0  0  0  0  0  0
   12.0892    8.1022   -2.3660 N   0  0  0  0  0  0  0  0  0  0  0  0
   11.8696    5.9940   -2.4248 H   0  0  0  0  0  0  0  0  0  0  0  0
   11.2090    5.9760   -4.8354 H   0  0  0  0  0  0  0  0  0  0  0  0
   12.2252   10.2157   -2.6153 H   0  0  0  0  0  0  0  0  0  0  0  0
   10.9720    8.1261   -6.4622 C   0  0  1  0  0  0  0  0  0  0  0  0
   11.3797    6.9448   -7.0523 O   0  0  0  0  0  0  0  0  0  0  0  0
   10.3979    6.3597   -7.8419 C   0  0  2  0  0  0  0  0  0  0  0  0
   11.0420    5.3143   -8.7328 C   0  0  0  0  0  0  0  0  0  0  0  0
   11.6627    4.3245   -7.9758 O   0  0  0  0  0  0  0  0  0  0  0  0
    9.7510    7.3802   -8.7688 C   0  0  1  0  0  0  0  0  0  0  0  0
    8.8221    6.6926   -9.5465 O   0  0  0  0  0  0  0  0  0  0  0  0
    9.0779    8.4824   -7.9831 C   0  0  2  0  0  0  0  0  0  0  0  0
    9.4212    9.7325   -8.4843 O   0  0  0  0  0  0  0  0  0  0  0  0
    9.4925    8.3566   -6.5378 C   0  0  2  0  0  0  0  0  0  0  0  0
    9.2022    9.5292   -5.8434 O   0  0  0  0  0  0  0  0  0  0  0  0
   11.5587    8.9499   -6.9362 H   0  0  0  0  0  0  0  0  0  0  0  0
    9.6656    5.8879   -7.1689 H   0  0  0  0  0  0  0  0  0  0  0  0
   10.2635    4.8900   -9.3955 H   0  0  0  0  0  0  0  0  0  0  0  0
   11.8231    5.7997   -9.3582 H   0  0  0  0  0  0  0  0  0  0  0  0
   12.1699    3.7576   -8.6263 H   0  0  0  0  0  0  0  0  0  0  0  0
   10.5692    7.7698   -9.4143 H   0  0  0  0  0  0  0  0  0  0  0  0
    8.6660    7.2587  -10.3569 H   0  0  0  0  0  0  0  0  0  0  0  0
    7.9661    8.4045   -8.0765 H   0  0  0  0  0  0  0  0  0  0  0  0
   10.3517    9.9604   -8.2430 H   0  0  0  0  0  0  0  0  0  0  0  0
    8.9841    7.4935   -6.0998 H   0  0  0  0  0  0  0  0  0  0  0  0
    8.4469    9.9838   -6.3285 H   0  0  0  0  0  0  0  0  0  0  0  0
  1  6  2  0
  2  1  1  0
  3  4  1  0
  3  2  2  0
  4  5  2  0
  5  6  1  0
  1  7  1  0
  2  8  1  0
  5  9  1  0
 10 11  1  0
 11 12  1  0
 12 13  1  0
 13 14  1  0
 12 15  1  0
 15 16  1  0
 15 17  1  0
 17 18  1  0
 17 19  1  0
 19 20  1  0
 19 10  1  0
 10 21  1  6
 12 22  1  1
 13 23  1  0
 13 24  1  0
 14 25  1  0
 15 26  1  6
 16 27  1  0
 17 28  1  1
 18 29  1  0
 19 30  1  1
 20 31  1  0
  3 10  1  0
M  END
>  <Score>  (1) 
-7.66992

$$$$

     RDKit          3D

 22 23  0  0  0  0  0  0  0  0999 V2000
   11.8098    6.9290   -2.9737 C   0  0  0  0  0  0  0  0  0  0  0  0
   11.4374    6.8878   -4.3216 C   0  0  0  0  0  0  0  0  0  0  0  0
   11.3593    8.0932   -5.0335 C   0  0  0  0  0  0  0  0  0  0  0  0
   11.6535    9.2296   -4.3586 N   0  0  0  0  0  0  0  0  0  0  0  0
   12.0120    9.2564   -3.0564 C   0  0  0  0  0  0  0  0  0  0  0  0
   12.0900    8.0999   -2.3622 N   0  0  0  0  0  0  0  0  0  0  0  0
   11.8715    5.9858   -2.4150 H   0  0  0  0  0  0  0  0  0  0  0  0
   11.2150    5.9879   -4.8176 H   0  0  0  0  0  0  0  0  0  0  0  0
   12.2350   10.2037   -2.5749 H   0  0  0  0  0  0  0  0  0  0  0  0
   10.9883    8.0498   -6.3755 N   0  0  0  0  0  0  0  0  0  0  0  0
   11.7211    8.4850   -7.5061 C   0  0  0  0  0  0  0  0  0  0  0  0
   12.9780    9.0463   -7.4420 C   0  0  0  0  0  0  0  0  0  0  0  0
   13.6794    9.4675   -8.5747 C   0  0  0  0  0  0  0  0  0  0  0  0
   13.0798    9.3103   -9.8020 C   0  0  0  0  0  0  0  0  0  0  0  0
   13.7541    9.7176  -10.9173 F   0  0  0  0  0  0  0  0  0  0  0  0
   11.8270    8.7504   -9.8618 C   0  0  0  0  0  0  0  0  0  0  0  0
   11.1228    8.3306   -8.7587 C   0  0  0  0  0  0  0  0  0  0  0  0
    9.8682    7.7769   -8.8931 F   0  0  0  0  0  0  0  0  0  0  0  0
   10.0222    7.6335   -6.5881 H   0  0  0  0  0  0  0  0  0  0  0  0
   13.4853    9.1892   -6.5110 H   0  0  0  0  0  0  0  0  0  0  0  0
   14.6610    9.9071   -8.5382 H   0  0  0  0  0  0  0  0  0  0  0  0
   11.3451    8.6217  -10.8230 H   0  0  0  0  0  0  0  0  0  0  0  0
  1  6  2  0
  2  1  1  0
  3  4  1  0
  3  2  2  0
  4  5  2  0
  5  6  1  0
  1  7  1  0
  2  8  1  0
  5  9  1  0
 10 11  1  0
 11 12  2  0
 12 13  1  0
 13 14  2  0
 14 15  1  0
 14 16  1  0
 16 17  2  0
 17 18  1  0
 17 11  1  0
 10 19  1  0
 12 20  1  0
 13 21  1  0
 16 22  1  0
  3 10  1  0
M  END
>  <Score>  (1) 
-7.66104

$$$$

     RDKit          3D

 22 23  0  0  0  0  0  0  0  0999 V2000
   11.8121    6.9294   -2.9656 C   0  0  0  0  0  0  0  0  0  0  0  0
   11.4354    6.8869   -4.3289 C   0  0  0  0  0  0  0  0  0  0  0  0
   11.3596    8.0874   -5.0304 C   0  0  0  0  0  0  0  0  0  0  0  0
   11.6544    9.2397   -4.3586 N   0  0  0  0  0  0  0  0  0  0  0  0
   12.0115    9.2550   -3.0576 C   0  0  0  0  0  0  0  0  0  0  0  0
   12.0890    8.0976   -2.3649 N   0  0  0  0  0  0  0  0  0  0  0  0
   11.8725    5.9945   -2.4144 H   0  0  0  0  0  0  0  0  0  0  0  0
   11.2243    5.9480   -4.7696 H   0  0  0  0  0  0  0  0  0  0  0  0
   12.2406   10.1869   -2.5484 H   0  0  0  0  0  0  0  0  0  0  0  0
   10.9823    8.1230   -6.4233 C   0  0  0  0  0  0  0  0  0  0  0  0
   11.4709    7.2792   -7.3571 C   0  0  0  0  0  0  0  0  0  0  0  0
   11.0869    7.3413   -8.6863 C   0  0  0  0  0  0  0  0  0  0  0  0
   10.1751    8.2815   -9.1212 C   0  0  0  0  0  0  0  0  0  0  0  0
    9.7743    8.3545  -10.4806 N   0  0  0  0  0  4  0  0  0  0  0  0
    8.9517    9.2106  -10.8460 O   0  0  0  0  0  0  0  0  0  0  0  0
   10.2838    7.4932  -11.3904 O   0  0  0  0  0  1  0  0  0  0  0  0
    9.6800    9.1416   -8.1575 C   0  0  0  0  0  0  0  0  0  0  0  0
   10.0583    9.0851   -6.8322 C   0  0  0  0  0  0  0  0  0  0  0  0
   12.1882    6.5114   -7.1117 H   0  0  0  0  0  0  0  0  0  0  0  0
   11.4903    6.6516   -9.4329 H   0  0  0  0  0  0  0  0  0  0  0  0
    8.9513    9.8998   -8.4825 H   0  0  0  0  0  0  0  0  0  0  0  0
    9.6492    9.7768   -6.1016 H   0  0  0  0  0  0  0  0  0  0  0  0
  1  6  2  0
  2  1  1  0
  3  4  1  0
  3  2  2  0
  4  5  2  0
  5  6  1  0
  1  7  1  0
  2  8  1  0
  5  9  1  0
 10 11  2  0
 11 12  1  0
 12 13  2  0
 13 14  1  0
 14 15  2  0
 14 16  1  0
 13 17  1  0
 17 18  2  0
 18 10  1  0
 11 19  1  0
 12 20  1  0
 17 21  1  0
 18 22  1  0
  3 10  1  0
M  CHG  2  14   1  16  -1
M  END
>  <Score>  (1) 
-7.65082

$$$$

     RDKit          3D

 28 30  0  0  0  0  0  0  0  0999 V2000
   11.8124    6.9309   -2.9649 C   0  0  0  0  0  0  0  0  0  0  0  0
   11.4349    6.8815   -4.3289 C   0  0  0  0  0  0  0  0  0  0  0  0
   11.3602    8.0899   -5.0290 C   0  0  0  0  0  0  0  0  0  0  0  0
   11.6543    9.2424   -4.3600 N   0  0  0  0  0  0  0  0  0  0  0  0
   12.0116    9.2544   -3.0570 C   0  0  0  0  0  0  0  0  0  0  0  0
   12.0886    8.0970   -2.3662 N   0  0  0  0  0  0  0  0  0  0  0  0
   11.8707    5.9866   -2.4178 H   0  0  0  0  0  0  0  0  0  0  0  0
   11.2139    5.9372   -4.8039 H   0  0  0  0  0  0  0  0  0  0  0  0
   12.2390   10.1870   -2.5544 H   0  0  0  0  0  0  0  0  0  0  0  0
   10.9794    8.0921   -6.4230 C   0  0  0  0  0  0  0  0  0  0  0  0
   10.3180    9.1045   -7.0808 C   0  0  0  0  0  0  0  0  0  0  0  0
   10.1545    8.7102   -8.3705 N   0  0  0  0  0  0  0  0  0  0  0  0
    9.5068    9.5077   -9.3539 C   0  0  0  0  0  0  0  0  0  0  0  0
    8.9783   10.7891   -9.0531 N   0  0  0  0  0  0  0  0  0  0  0  0
    9.3745    9.1076  -10.5391 O   0  0  0  0  0  0  0  0  0  0  0  0
   10.6847    7.4913   -8.5559 C   0  0  0  0  0  0  0  0  0  0  0  0
   10.7703    6.6758   -9.6679 C   0  0  0  0  0  0  0  0  0  0  0  0
   11.3965    5.4410   -9.5279 C   0  0  0  0  0  0  0  0  0  0  0  0
   11.9180    5.0276   -8.3366 C   0  0  0  0  0  0  0  0  0  0  0  0
   11.8334    5.8471   -7.2143 C   0  0  0  0  0  0  0  0  0  0  0  0
   11.2143    7.0805   -7.3301 C   0  0  0  0  0  0  0  0  0  0  0  0
    9.9743   10.0561   -6.6784 H   0  0  0  0  0  0  0  0  0  0  0  0
    8.4451   10.9235   -8.1712 H   0  0  0  0  0  0  0  0  0  0  0  0
    9.1450   11.5529   -9.7311 H   0  0  0  0  0  0  0  0  0  0  0  0
   10.3592    6.9938  -10.6210 H   0  0  0  0  0  0  0  0  0  0  0  0
   11.4434    4.8342  -10.4170 H   0  0  0  0  0  0  0  0  0  0  0  0
   12.4071    4.0658   -8.2228 H   0  0  0  0  0  0  0  0  0  0  0  0
   12.2498    5.5104   -6.2742 H   0  0  0  0  0  0  0  0  0  0  0  0
  1  6  2  0
  2  1  1  0
  3  4  1  0
  3  2  2  0
  4  5  2  0
  5  6  1  0
  1  7  1  0
  2  8  1  0
  5  9  1  0
 10 11  2  0
 11 12  1  0
 12 13  1  0
 13 14  1  0
 13 15  2  0
 12 16  1  0
 16 17  2  0
 17 18  1  0
 18 19  2  0
 19 20  1  0
 20 21  2  0
 21 10  1  0
 21 16  1  0
 11 22  1  0
 14 23  1  0
 14 24  1  0
 17 25  1  0
 18 26  1  0
 19 27  1  0
 20 28  1  0
  3 10  1  0
M  END
>  <Score>  (1) 
-7.64749

$$$$

     RDKit          3D

 27 29  0  0  0  0  0  0  0  0999 V2000
   11.8118    6.9338   -2.9684 C   0  0  0  0  0  0  0  0  0  0  0  0
   11.4354    6.8813   -4.3268 C   0  0  0  0  0  0  0  0  0  0  0  0
   11.3604    8.0870   -5.0273 C   0  0  0  0  0  0  0  0  0  0  0  0
   11.6541    9.2446   -4.3613 N   0  0  0  0  0  0  0  0  0  0  0  0
   12.0119    9.2557   -3.0563 C   0  0  0  0  0  0  0  0  0  0  0  0
   12.0884    8.0935   -2.3658 N   0  0  0  0  0  0  0  0  0  0  0  0
   11.8822    6.0244   -2.3886 H   0  0  0  0  0  0  0  0  0  0  0  0
   11.2127    5.9623   -4.8168 H   0  0  0  0  0  0  0  0  0  0  0  0
   12.2448   10.1649   -2.5257 H   0  0  0  0  0  0  0  0  0  0  0  0
   10.9928    8.1381   -6.3931 N   0  0  0  0  0  0  0  0  0  0  0  0
   10.3030    9.2914   -6.9183 C   0  0  0  0  0  0  0  0  0  0  0  0
   11.2721    7.0930   -7.2984 C   0  0  0  0  0  0  0  0  0  0  0  0
   10.7566    5.8769   -7.0715 N   0  0  0  0  0  0  0  0  0  0  0  0
   10.9902    4.8266   -7.9115 C   0  0  0  0  0  0  0  0  0  0  0  0
   11.7508    5.0351   -8.9765 N   0  0  0  0  0  0  0  0  0  0  0  0
   12.2915    6.2180   -9.2573 C   0  0  0  0  0  0  0  0  0  0  0  0
   13.0782    6.6595  -10.2546 N   0  0  0  0  0  0  0  0  0  0  0  0
   13.3443    7.9572  -10.0631 C   0  0  0  0  0  0  0  0  0  0  0  0
   12.7143    8.3660   -8.9133 C   0  0  0  0  0  0  0  0  0  0  0  0
   12.0542    7.2910   -8.4012 C   0  0  0  0  0  0  0  0  0  0  0  0
   10.3927    9.3542   -8.0290 H   0  0  0  0  0  0  0  0  0  0  0  0
   10.6370   10.2423   -6.4552 H   0  0  0  0  0  0  0  0  0  0  0  0
    9.1917    9.1832   -6.7387 H   0  0  0  0  0  0  0  0  0  0  0  0
   10.5441    3.8764   -7.6681 H   0  0  0  0  0  0  0  0  0  0  0  0
   13.3990    6.0394  -11.0293 H   0  0  0  0  0  0  0  0  0  0  0  0
   13.9706    8.5213  -10.7584 H   0  0  0  0  0  0  0  0  0  0  0  0
   12.7427    9.3566   -8.4999 H   0  0  0  0  0  0  0  0  0  0  0  0
  1  6  2  0
  2  1  1  0
  3  4  1  0
  3  2  2  0
  4  5  2  0
  5  6  1  0
  1  7  1  0
  2  8  1  0
  5  9  1  0
 10 11  1  0
 10 12  1  0
 12 13  2  0
 13 14  1  0
 14 15  2  0
 15 16  1  0
 16 17  1  0
 17 18  1  0
 18 19  2  0
 19 20  1  0
 20 12  1  0
 20 16  2  0
 11 21  1  0
 11 22  1  0
 11 23  1  0
 14 24  1  0
 17 25  1  0
 18 26  1  0
 19 27  1  0
  3 10  1  0
M  END
>  <Score>  (1) 
-7.63751

$$$$

     RDKit          3D

 22 24  0  0  0  0  0  0  0  0999 V2000
   11.8109    6.9293   -2.9697 C   0  0  0  0  0  0  0  0  0  0  0  0
   11.4349    6.8822   -4.3290 C   0  0  0  0  0  0  0  0  0  0  0  0
   11.3614    8.0887   -5.0242 C   0  0  0  0  0  0  0  0  0  0  0  0
   11.6528    9.2416   -4.3653 N   0  0  0  0  0  0  0  0  0  0  0  0
   12.0128    9.2521   -3.0518 C   0  0  0  0  0  0  0  0  0  0  0  0
   12.0892    8.1020   -2.3660 N   0  0  0  0  0  0  0  0  0  0  0  0
   11.8573    5.9825   -2.4658 H   0  0  0  0  0  0  0  0  0  0  0  0
   11.2124    5.9503   -4.8138 H   0  0  0  0  0  0  0  0  0  0  0  0
   12.2455   10.1618   -2.5216 H   0  0  0  0  0  0  0  0  0  0  0  0
   10.9800    8.0726   -6.4139 C   0  0  0  0  0  0  0  0  0  0  0  0
   10.8862    9.2242   -7.1639 C   0  0  0  0  0  0  0  0  0  0  0  0
   10.5218    9.1830   -8.4826 C   0  0  0  0  0  0  0  0  0  0  0  0
   10.2476    8.0074   -9.0705 N   0  0  0  0  0  0  0  0  0  0  0  0
    9.8792    7.7108  -10.3134 N   0  0  0  0  0  0  0  0  0  0  0  0
    9.7142    6.3881  -10.4501 C   0  0  0  0  0  0  0  0  0  0  0  0
   10.0044    5.8587   -9.2013 C   0  0  0  0  0  0  0  0  0  0  0  0
    9.9683    4.8069   -8.9620 H   0  0  0  0  0  0  0  0  0  0  0  0
   10.3369    6.8628   -8.3393 C   0  0  0  0  0  0  0  0  0  0  0  0
   10.7009    6.9187   -7.0273 N   0  0  0  0  0  0  0  0  0  0  0  0
   11.1159   10.1638   -6.6553 H   0  0  0  0  0  0  0  0  0  0  0  0
   10.4629   10.1106   -9.0254 H   0  0  0  0  0  0  0  0  0  0  0  0
    9.4189    5.8484  -11.3397 H   0  0  0  0  0  0  0  0  0  0  0  0
  1  6  2  0
  2  1  1  0
  3  4  1  0
  3  2  2  0
  4  5  2  0
  5  6  1  0
  1  7  1  0
  2  8  1  0
  5  9  1  0
 10 11  1  0
 11 12  2  0
 12 13  1  0
 13 14  1  0
 14 15  2  0
 15 16  1  0
 16 17  1  0
 16 18  2  0
 18 19  1  0
 19 10  2  0
 18 13  1  0
 11 20  1  0
 12 21  1  0
 15 22  1  0
  3 10  1  0
M  END
>  <Score>  (1) 
-7.62676

$$$$

     RDKit          3D

 32 33  0  0  0  0  0  0  0  0999 V2000
   11.8122    6.9301   -2.9653 C   0  0  0  0  0  0  0  0  0  0  0  0
   11.4346    6.8805   -4.3295 C   0  0  0  0  0  0  0  0  0  0  0  0
   11.3611    8.0917   -5.0263 C   0  0  0  0  0  0  0  0  0  0  0  0
   11.6531    9.2418   -4.3641 N   0  0  0  0  0  0  0  0  0  0  0  0
   12.0122    9.2527   -3.0541 C   0  0  0  0  0  0  0  0  0  0  0  0
   12.0887    8.0992   -2.3666 N   0  0  0  0  0  0  0  0  0  0  0  0
   11.8818    6.0105   -2.3857 H   0  0  0  0  0  0  0  0  0  0  0  0
   11.2147    5.9452   -4.8035 H   0  0  0  0  0  0  0  0  0  0  0  0
   12.2266   10.2060   -2.6067 H   0  0  0  0  0  0  0  0  0  0  0  0
   10.9933    8.0710   -6.3646 O   0  0  0  0  0  0  0  0  0  0  0  0
   10.4055    6.9132   -6.8996 C   0  0  1  0  0  0  0  0  0  0  0  0
    9.1219    7.1871   -7.3585 O   0  0  0  0  0  0  0  0  0  0  0  0
    8.5887    5.9848   -7.8187 C   0  0  1  0  0  0  0  0  0  0  0  0
    7.0896    6.0458   -7.9781 C   0  0  0  0  0  0  0  0  0  0  0  0
    6.5534    6.3360   -6.7239 O   0  0  0  0  0  0  0  0  0  0  0  0
    9.2896    5.6566   -9.1137 C   0  0  2  0  0  0  0  0  0  0  0  0
    8.6432    4.7189   -9.8755 O   0  0  0  0  0  0  0  0  0  0  0  0
   10.7087    5.2228   -8.7325 C   0  0  1  0  0  0  0  0  0  0  0  0
   11.4799    4.9852   -9.8517 O   0  0  0  0  0  0  0  0  0  0  0  0
   11.3177    6.4158   -8.0052 C   0  0  1  0  0  0  0  0  0  0  0  0
   11.4839    7.4577   -8.8993 O   0  0  0  0  0  0  0  0  0  0  0  0
   10.3117    6.1232   -6.1225 H   0  0  0  0  0  0  0  0  0  0  0  0
    8.8343    5.2097   -7.0745 H   0  0  0  0  0  0  0  0  0  0  0  0
    6.8094    6.8737   -8.6591 H   0  0  0  0  0  0  0  0  0  0  0  0
    6.7610    5.0601   -8.3471 H   0  0  0  0  0  0  0  0  0  0  0  0
    6.9079    5.7343   -6.0234 H   0  0  0  0  0  0  0  0  0  0  0  0
    9.4092    6.5982   -9.6792 H   0  0  0  0  0  0  0  0  0  0  0  0
    8.7852    3.7883   -9.5721 H   0  0  0  0  0  0  0  0  0  0  0  0
   10.6756    4.3557   -8.0425 H   0  0  0  0  0  0  0  0  0  0  0  0
   11.4223    5.7868  -10.4244 H   0  0  0  0  0  0  0  0  0  0  0  0
   12.2757    6.1296   -7.5075 H   0  0  0  0  0  0  0  0  0  0  0  0
   12.3872    7.5203   -9.2817 H   0  0  0  0  0  0  0  0  0  0  0  0
  1  6  2  0
  2  1  1  0
  3  4  1  0
  3  2  2  0
  4  5  2  0
  5  6  1  0
  1  7  1  0
  2  8  1  0
  5  9  1  0
 10 11  1  0
 11 12  1  0
 12 13  1  0
 13 14  1  0
 14 15  1  0
 13 16  1  0
 16 17  1  0
 16 18  1  0
 18 19  1  0
 18 20  1  0
 20 21  1  0
 20 11  1  0
 11 22  1  1
 13 23  1  1
 14 24  1  0
 14 25  1  0
 15 26  1  0
 16 27  1  6
 17 28  1  0
 18 29  1  1
 19 30  1  0
 20 31  1  1
 21 32  1  0
  3 10  1  0
M  END
>  <Score>  (1) 
-7.61998

$$$$

     RDKit          3D

 22 23  0  0  0  0  0  0  0  0999 V2000
   12.3037    8.1229   -2.2984 C   0  0  0  0  0  0  0  0  0  0  0  0
   12.0211    6.8852   -2.9139 C   0  0  0  0  0  0  0  0  0  0  0  0
   11.5243    6.9019   -4.2257 C   0  0  0  0  0  0  0  0  0  0  0  0
   11.3437    8.1015   -4.8272 N   0  0  0  0  0  0  0  0  0  0  0  0
   11.6271    9.2872   -4.2041 C   0  0  0  0  0  0  0  0  0  0  0  0
   12.0950    9.2723   -2.9688 N   0  0  0  0  0  0  0  0  0  0  0  0
   12.6808    8.0625   -1.2979 H   0  0  0  0  0  0  0  0  0  0  0  0
   12.1807    5.9609   -2.3966 H   0  0  0  0  0  0  0  0  0  0  0  0
   11.3146    5.9634   -4.6804 H   0  0  0  0  0  0  0  0  0  0  0  0
   11.3885   10.4546   -4.9551 N   0  0  0  0  0  0  0  0  0  0  0  0
   11.1763   10.5331   -6.3497 C   0  0  0  0  0  0  0  0  0  0  0  0
   11.1659    9.4727   -7.2240 C   0  0  0  0  0  0  0  0  0  0  0  0
   10.9469    9.6342   -8.6021 C   0  0  0  0  0  0  0  0  0  0  0  0
   10.7304   10.8769   -9.1452 C   0  0  0  0  0  0  0  0  0  0  0  0
   10.5189   11.0229  -10.4839 F   0  0  0  0  0  0  0  0  0  0  0  0
   10.7378   11.9472   -8.2838 C   0  0  0  0  0  0  0  0  0  0  0  0
   10.9531   11.7818   -6.9339 C   0  0  0  0  0  0  0  0  0  0  0  0
   10.9521   12.8665   -6.1189 F   0  0  0  0  0  0  0  0  0  0  0  0
   11.3611   11.3962   -4.4292 H   0  0  0  0  0  0  0  0  0  0  0  0
   11.3310    8.4730   -6.8493 H   0  0  0  0  0  0  0  0  0  0  0  0
   10.9469    8.7702   -9.2564 H   0  0  0  0  0  0  0  0  0  0  0  0
   10.5689   12.9446   -8.6858 H   0  0  0  0  0  0  0  0  0  0  0  0
  2  1  2  0
  3  2  1  0
  4  3  2  0
  4  5  1  0
  5  6  2  0
  6  1  1  0
  1  7  1  0
  2  8  1  0
  3  9  1  0
 10 11  1  0
 11 12  2  0
 12 13  1  0
 13 14  2  0
 14 15  1  0
 14 16  1  0
 16 17  2  0
 17 18  1  0
 17 11  1  0
 10 19  1  0
 12 20  1  0
 13 21  1  0
 16 22  1  0
  5 10  1  0
M  END
>  <Score>  (1) 
-7.68053

$$$$

     RDKit          3D

 27 29  0  0  0  0  0  0  0  0999 V2000
   12.3027    8.1237   -2.3013 C   0  0  0  0  0  0  0  0  0  0  0  0
   12.0213    6.8827   -2.9133 C   0  0  0  0  0  0  0  0  0  0  0  0
   11.5241    6.8996   -4.2258 C   0  0  0  0  0  0  0  0  0  0  0  0
   11.3422    8.1057   -4.8315 N   0  0  0  0  0  0  0  0  0  0  0  0
   11.6240    9.2778   -4.2113 C   0  0  0  0  0  0  0  0  0  0  0  0
   12.1007    9.2815   -2.9548 N   0  0  0  0  0  0  0  0  0  0  0  0
   12.6888    8.1085   -1.2817 H   0  0  0  0  0  0  0  0  0  0  0  0
   12.1748    5.9552   -2.4114 H   0  0  0  0  0  0  0  0  0  0  0  0
   11.2831    6.0163   -4.7688 H   0  0  0  0  0  0  0  0  0  0  0  0
   11.4119   10.5427   -4.9028 C   0  0  0  0  0  0  0  0  0  0  0  0
   11.4056   10.4145   -6.4134 C   0  0  0  0  0  0  0  0  0  0  0  0
   11.5992   11.8315   -6.8081 C   0  0  0  0  0  0  0  0  0  0  0  0
   11.2193   12.5352   -7.9222 C   0  0  0  0  0  0  0  0  0  0  0  0
   11.5199   13.8871   -8.0752 C   0  0  0  0  0  0  0  0  0  0  0  0
   12.2151   14.5296   -7.0827 C   0  0  0  0  0  0  0  0  0  0  0  0
   12.6017   13.8128   -5.9488 C   0  0  0  0  0  0  0  0  0  0  0  0
   12.2985   12.4798   -5.8110 C   0  0  0  0  0  0  0  0  0  0  0  0
   12.5878   11.5135   -4.7295 C   0  0  0  0  0  0  0  0  0  0  0  0
   10.5211   11.0654   -4.5384 H   0  0  0  0  0  0  0  0  0  0  0  0
   12.2727    9.7940   -6.7105 H   0  0  0  0  0  0  0  0  0  0  0  0
   10.4672    9.9839   -6.7969 H   0  0  0  0  0  0  0  0  0  0  0  0
   10.6719   12.0817   -8.7319 H   0  0  0  0  0  0  0  0  0  0  0  0
   11.2271   14.4460   -8.9428 H   0  0  0  0  0  0  0  0  0  0  0  0
   12.4693   15.5791   -7.1613 H   0  0  0  0  0  0  0  0  0  0  0  0
   13.1482   14.3577   -5.1903 H   0  0  0  0  0  0  0  0  0  0  0  0
   12.6086   11.9560   -3.7277 H   0  0  0  0  0  0  0  0  0  0  0  0
   13.5567   10.9731   -4.9102 H   0  0  0  0  0  0  0  0  0  0  0  0
  2  1  2  0
  3  2  1  0
  4  3  2  0
  4  5  1  0
  5  6  2  0
  6  1  1  0
  1  7  1  0
  2  8  1  0
  3  9  1  0
 10 11  1  0
 11 12  1  0
 12 13  2  0
 13 14  1  0
 14 15  2  0
 15 16  1  0
 16 17  2  0
 17 18  1  0
 18 10  1  0
 17 12  1  0
 10 19  1  0
 11 20  1  0
 11 21  1  0
 13 22  1  0
 14 23  1  0
 15 24  1  0
 16 25  1  0
 18 26  1  0
 18 27  1  0
  5 10  1  0
M  END
>  <Score>  (1) 
-8.51571

$$$$

     RDKit          3D

 28 29  0  0  0  0  0  0  0  0999 V2000
   11.8126    6.9295   -2.9636 C   0  0  0  0  0  0  0  0  0  0  0  0
   11.4340    6.8850   -4.3331 C   0  0  0  0  0  0  0  0  0  0  0  0
   11.3609    8.0894   -5.0262 C   0  0  0  0  0  0  0  0  0  0  0  0
   11.6540    9.2399   -4.3603 N   0  0  0  0  0  0  0  0  0  0  0  0
   12.0112    9.2500   -3.0571 C   0  0  0  0  0  0  0  0  0  0  0  0
   12.0893    8.1022   -2.3657 N   0  0  0  0  0  0  0  0  0  0  0  0
   11.8838    6.0255   -2.3837 H   0  0  0  0  0  0  0  0  0  0  0  0
   11.2175    5.9406   -4.7917 H   0  0  0  0  0  0  0  0  0  0  0  0
   12.2317   10.1864   -2.5810 H   0  0  0  0  0  0  0  0  0  0  0  0
   10.9819    8.1307   -6.4274 C   0  0  0  0  0  0  0  0  0  0  0  0
   11.4117    9.0677   -7.3222 C   0  0  0  0  0  0  0  0  0  0  0  0
   11.0358    9.0817   -8.6434 C   0  0  0  0  0  0  0  0  0  0  0  0
   11.4908   10.0451   -9.5184 O   0  0  0  0  0  0  0  0  0  0  0  0
   11.1477   10.1154  -10.8697 C   0  0  0  0  0  0  0  0  0  0  0  0
   10.1821    8.0997   -9.0859 C   0  0  0  0  0  0  0  0  0  0  0  0
    9.7058    7.1124   -8.2233 C   0  0  0  0  0  0  0  0  0  0  0  0
    8.8484    6.1292   -8.6751 O   0  0  0  0  0  0  0  0  0  0  0  0
    8.3606    5.1254   -7.8105 C   0  0  0  0  0  0  0  0  0  0  0  0
   10.1156    7.1496   -6.9152 C   0  0  0  0  0  0  0  0  0  0  0  0
   12.0792    9.8443   -6.9985 H   0  0  0  0  0  0  0  0  0  0  0  0
   11.8854   10.7709  -11.3784 H   0  0  0  0  0  0  0  0  0  0  0  0
   11.2103    9.0767  -11.2827 H   0  0  0  0  0  0  0  0  0  0  0  0
   10.1136   10.5270  -11.0024 H   0  0  0  0  0  0  0  0  0  0  0  0
    9.8563    8.0664  -10.1167 H   0  0  0  0  0  0  0  0  0  0  0  0
    9.1169    4.3811   -7.5296 H   0  0  0  0  0  0  0  0  0  0  0  0
    7.9892    5.5914   -6.8520 H   0  0  0  0  0  0  0  0  0  0  0  0
    7.4620    4.6396   -8.2526 H   0  0  0  0  0  0  0  0  0  0  0  0
    9.7614    6.3958   -6.2243 H   0  0  0  0  0  0  0  0  0  0  0  0
  1  6  2  0
  2  1  1  0
  3  4  1  0
  3  2  2  0
  4  5  2  0
  5  6  1  0
  1  7  1  0
  2  8  1  0
  5  9  1  0
 10 11  2  0
 11 12  1  0
 12 13  1  0
 13 14  1  0
 12 15  2  0
 15 16  1  0
 16 17  1  0
 17 18  1  0
 16 19  2  0
 19 10  1  0
 11 20  1  0
 14 21  1  0
 14 22  1  0
 14 23  1  0
 15 24  1  0
 18 25  1  0
 18 26  1  0
 18 27  1  0
 19 28  1  0
  3 10  1  0
M  END
>  <Score>  (1) 
-7.61527

$$$$

     RDKit          3D

 26 27  0  0  0  0  0  0  0  0999 V2000
   11.8127    6.9296   -2.9636 C   0  0  0  0  0  0  0  0  0  0  0  0
   11.4343    6.8865   -4.3327 C   0  0  0  0  0  0  0  0  0  0  0  0
   11.3605    8.0870   -5.0268 C   0  0  0  0  0  0  0  0  0  0  0  0
   11.6536    9.2405   -4.3618 N   0  0  0  0  0  0  0  0  0  0  0  0
   12.0120    9.2529   -3.0551 C   0  0  0  0  0  0  0  0  0  0  0  0
   12.0890    8.0995   -2.3660 N   0  0  0  0  0  0  0  0  0  0  0  0
   11.8603    5.9765   -2.4524 H   0  0  0  0  0  0  0  0  0  0  0  0
   11.2238    5.9518   -4.7728 H   0  0  0  0  0  0  0  0  0  0  0  0
   12.2243   10.2103   -2.6165 H   0  0  0  0  0  0  0  0  0  0  0  0
   10.9841    8.1468   -6.4251 C   0  0  0  0  0  0  0  0  0  0  0  0
   10.3942    7.0605   -7.0269 C   0  0  0  0  0  0  0  0  0  0  0  0
   10.0125    7.0592   -8.3613 C   0  0  0  0  0  0  0  0  0  0  0  0
    9.3736    5.8572   -8.9787 C   0  0  0  0  0  0  0  0  0  0  0  0
   10.2437    8.2071   -9.0983 C   0  0  0  0  0  0  0  0  0  0  0  0
   10.8315    9.3145   -8.5321 C   0  0  0  0  0  0  0  0  0  0  0  0
   11.0657   10.5374   -9.3595 C   0  0  0  0  0  0  0  0  0  0  0  0
   11.1899    9.2593   -7.2035 C   0  0  0  0  0  0  0  0  0  0  0  0
   10.1902    6.1307   -6.4886 H   0  0  0  0  0  0  0  0  0  0  0  0
    9.4393    5.0287   -8.2387 H   0  0  0  0  0  0  0  0  0  0  0  0
    9.8914    5.6196   -9.9268 H   0  0  0  0  0  0  0  0  0  0  0  0
    8.3036    6.1194   -9.1170 H   0  0  0  0  0  0  0  0  0  0  0  0
    9.9424    8.2087  -10.1553 H   0  0  0  0  0  0  0  0  0  0  0  0
   10.1435   10.8880   -9.8555 H   0  0  0  0  0  0  0  0  0  0  0  0
   11.8526   10.3198  -10.1125 H   0  0  0  0  0  0  0  0  0  0  0  0
   11.4594   11.3497   -8.7155 H   0  0  0  0  0  0  0  0  0  0  0  0
   11.6419   10.1267   -6.7891 H   0  0  0  0  0  0  0  0  0  0  0  0
  1  6  2  0
  2  1  1  0
  3  4  1  0
  3  2  2  0
  4  5  2  0
  5  6  1  0
  1  7  1  0
  2  8  1  0
  5  9  1  0
 10 11  2  0
 11 12  1  0
 12 13  1  0
 12 14  2  0
 14 15  1  0
 15 16  1  0
 15 17  2  0
 17 10  1  0
 11 18  1  0
 13 19  1  0
 13 20  1  0
 13 21  1  0
 14 22  1  0
 16 23  1  0
 16 24  1  0
 16 25  1  0
 17 26  1  0
  3 10  1  0
M  END
>  <Score>  (1) 
-7.6094

$$$$

     RDKit          3D

 28 29  0  0  0  0  0  0  0  0999 V2000
   11.8115    6.9280   -2.9672 C   0  0  0  0  0  0  0  0  0  0  0  0
   11.4350    6.8813   -4.3282 C   0  0  0  0  0  0  0  0  0  0  0  0
   11.3607    8.0909   -5.0276 C   0  0  0  0  0  0  0  0  0  0  0  0
   11.6536    9.2420   -4.3627 N   0  0  0  0  0  0  0  0  0  0  0  0
   12.0121    9.2506   -3.0538 C   0  0  0  0  0  0  0  0  0  0  0  0
   12.0892    8.1032   -2.3665 N   0  0  0  0  0  0  0  0  0  0  0  0
   11.8733    6.0066   -2.4156 H   0  0  0  0  0  0  0  0  0  0  0  0
   11.2122    5.9410   -4.8114 H   0  0  0  0  0  0  0  0  0  0  0  0
   12.2392   10.1771   -2.5503 H   0  0  0  0  0  0  0  0  0  0  0  0
   10.9881    8.0878   -6.3897 N   0  0  0  0  0  0  0  0  0  0  0  0
    9.6710    8.5172   -6.7932 C   0  0  0  0  0  0  0  0  0  0  0  0
    9.4810    8.4385   -8.2602 C   0  0  0  0  0  0  0  0  0  0  0  0
    9.7736    9.4877   -9.1075 C   0  0  0  0  0  0  0  0  0  0  0  0
    9.5834    9.3815  -10.4852 C   0  0  0  0  0  0  0  0  0  0  0  0
    9.0976    8.2274  -11.0450 C   0  0  0  0  0  0  0  0  0  0  0  0
    8.9101    8.1567  -12.5166 C   0  0  0  0  0  0  0  0  0  0  0  0
    8.8022    7.1734  -10.2075 C   0  0  0  0  0  0  0  0  0  0  0  0
    8.9927    7.2809   -8.8320 C   0  0  0  0  0  0  0  0  0  0  0  0
   11.6579    7.7768   -7.1135 H   0  0  0  0  0  0  0  0  0  0  0  0
    8.9393    7.8705   -6.2454 H   0  0  0  0  0  0  0  0  0  0  0  0
    9.4698    9.5551   -6.4107 H   0  0  0  0  0  0  0  0  0  0  0  0
   10.1620   10.4221   -8.6983 H   0  0  0  0  0  0  0  0  0  0  0  0
    9.8188   10.2132  -11.1245 H   0  0  0  0  0  0  0  0  0  0  0  0
    8.3122    7.2952  -12.8336 H   0  0  0  0  0  0  0  0  0  0  0  0
    8.4276    9.0612  -12.9226 H   0  0  0  0  0  0  0  0  0  0  0  0
    9.9250    8.0935  -12.9729 H   0  0  0  0  0  0  0  0  0  0  0  0
    8.4234    6.2746  -10.6485 H   0  0  0  0  0  0  0  0  0  0  0  0
    8.7614    6.4582   -8.1850 H   0  0  0  0  0  0  0  0  0  0  0  0
  1  6  2  0
  2  1  1  0
  3  4  1  0
  3  2  2  0
  4  5  2  0
  5  6  1  0
  1  7  1  0
  2  8  1  0
  5  9  1  0
 10 11  1  0
 11 12  1  0
 12 13  2  0
 13 14  1  0
 14 15  2  0
 15 16  1  0
 15 17  1  0
 17 18  2  0
 18 12  1  0
 10 19  1  0
 11 20  1  0
 11 21  1  0
 13 22  1  0
 14 23  1  0
 16 24  1  0
 16 25  1  0
 16 26  1  0
 17 27  1  0
 18 28  1  0
  3 10  1  0
M  END
>  <Score>  (1) 
-7.60415

$$$$

     RDKit          3D

 24 26  0  0  0  0  0  0  0  0999 V2000
   11.8124    6.9322   -2.9654 C   0  0  0  0  0  0  0  0  0  0  0  0
   11.4354    6.8836   -4.3277 C   0  0  0  0  0  0  0  0  0  0  0  0
   11.3609    8.0942   -5.0279 C   0  0  0  0  0  0  0  0  0  0  0  0
   11.6522    9.2356   -4.3653 N   0  0  0  0  0  0  0  0  0  0  0  0
   12.0124    9.2554   -3.0543 C   0  0  0  0  0  0  0  0  0  0  0  0
   12.0886    8.0949   -2.3655 N   0  0  0  0  0  0  0  0  0  0  0  0
   11.8552    5.9814   -2.4730 H   0  0  0  0  0  0  0  0  0  0  0  0
   11.2189    5.9439   -4.7880 H   0  0  0  0  0  0  0  0  0  0  0  0
   12.2404   10.1735   -2.5447 H   0  0  0  0  0  0  0  0  0  0  0  0
   10.9766    8.0552   -6.4202 C   0  0  0  0  0  0  0  0  0  0  0  0
   10.0685    8.9357   -6.9061 N   0  0  0  0  0  0  0  0  0  0  0  0
    9.6780    8.9404   -8.1930 C   0  0  0  0  0  0  0  0  0  0  0  0
   10.2255    8.0245   -9.0104 N   0  0  0  0  0  0  0  0  0  0  0  0
   11.1164    7.1347   -8.6093 N   0  0  0  0  0  0  0  0  0  0  0  0
   11.7479    6.1660   -9.2991 C   0  0  0  0  0  0  0  0  0  0  0  0
   11.5658    5.8717  -10.7549 C   0  0  0  0  0  0  0  0  0  0  0  0
   12.5475    5.5496   -8.4135 N   0  0  0  0  0  0  0  0  0  0  0  0
   12.4100    6.1334   -7.1877 C   0  0  0  0  0  0  0  0  0  0  0  0
   12.9085    5.8728   -6.2790 H   0  0  0  0  0  0  0  0  0  0  0  0
   11.4949    7.1451   -7.3186 C   0  0  0  0  0  0  0  0  0  0  0  0
    8.9662    9.6200   -8.6040 H   0  0  0  0  0  0  0  0  0  0  0  0
   11.6190    6.8284  -11.3507 H   0  0  0  0  0  0  0  0  0  0  0  0
   10.5431    5.4510  -10.9400 H   0  0  0  0  0  0  0  0  0  0  0  0
   12.3667    5.2326  -11.1334 H   0  0  0  0  0  0  0  0  0  0  0  0
  1  6  2  0
  2  1  1  0
  3  4  1  0
  3  2  2  0
  4  5  2  0
  5  6  1  0
  1  7  1  0
  2  8  1  0
  5  9  1  0
 10 11  2  0
 11 12  1  0
 12 13  2  0
 13 14  1  0
 14 15  1  0
 15 16  1  0
 15 17  2  0
 17 18  1  0
 18 19  1  0
 18 20  2  0
 20 10  1  0
 20 14  1  0
 12 21  1  0
 16 22  1  0
 16 23  1  0
 16 24  1  0
  3 10  1  0
M  END
>  <Score>  (1) 
-7.60194

$$$$

     RDKit          3D

 26 27  0  0  0  0  0  0  0  0999 V2000
   11.8131    6.9364   -2.9643 C   0  0  0  0  0  0  0  0  0  0  0  0
   11.4344    6.8881   -4.3329 C   0  0  0  0  0  0  0  0  0  0  0  0
   11.3604    8.0899   -5.0283 C   0  0  0  0  0  0  0  0  0  0  0  0
   11.6527    9.2315   -4.3619 N   0  0  0  0  0  0  0  0  0  0  0  0
   12.0121    9.2570   -3.0559 C   0  0  0  0  0  0  0  0  0  0  0  0
   12.0892    8.0930   -2.3626 N   0  0  0  0  0  0  0  0  0  0  0  0
   11.8720    6.0056   -2.4200 H   0  0  0  0  0  0  0  0  0  0  0  0
   11.2273    5.9428   -4.7568 H   0  0  0  0  0  0  0  0  0  0  0  0
   12.2432   10.1646   -2.5313 H   0  0  0  0  0  0  0  0  0  0  0  0
   10.9800    8.1353   -6.4361 C   0  0  0  0  0  0  0  0  0  0  0  0
   11.2623    7.0840   -7.2826 C   0  0  0  0  0  0  0  0  0  0  0  0
   10.9087    7.1099   -8.6212 C   0  0  0  0  0  0  0  0  0  0  0  0
   10.2584    8.2021   -9.1420 C   0  0  0  0  0  0  0  0  0  0  0  0
    9.9577    9.2711   -8.3351 C   0  0  0  0  0  0  0  0  0  0  0  0
    9.2558   10.4632   -8.8733 C   0  0  0  0  0  0  0  0  0  0  0  0
   10.3286    9.2077   -6.9982 C   0  0  0  0  0  0  0  0  0  0  0  0
    9.9801   10.3899   -6.1682 C   0  0  0  0  0  0  0  0  0  0  0  0
   11.7685    6.2046   -6.9313 H   0  0  0  0  0  0  0  0  0  0  0  0
   11.1311    6.2794   -9.2927 H   0  0  0  0  0  0  0  0  0  0  0  0
    9.9895    8.2056  -10.1906 H   0  0  0  0  0  0  0  0  0  0  0  0
    9.0204   10.2809   -9.9416 H   0  0  0  0  0  0  0  0  0  0  0  0
    8.2746   10.6256   -8.3704 H   0  0  0  0  0  0  0  0  0  0  0  0
    9.8627   11.3819   -8.8304 H   0  0  0  0  0  0  0  0  0  0  0  0
    9.2823   10.0716   -5.3805 H   0  0  0  0  0  0  0  0  0  0  0  0
    9.4659   11.1812   -6.7769 H   0  0  0  0  0  0  0  0  0  0  0  0
   10.9312   10.8317   -5.8095 H   0  0  0  0  0  0  0  0  0  0  0  0
  1  6  2  0
  2  1  1  0
  3  4  1  0
  3  2  2  0
  4  5  2  0
  5  6  1  0
  1  7  1  0
  2  8  1  0
  5  9  1  0
 10 11  2  0
 11 12  1  0
 12 13  2  0
 13 14  1  0
 14 15  1  0
 14 16  2  0
 16 17  1  0
 16 10  1  0
 11 18  1  0
 12 19  1  0
 13 20  1  0
 15 21  1  0
 15 22  1  0
 15 23  1  0
 17 24  1  0
 17 25  1  0
 17 26  1  0
  3 10  1  0
M  END
>  <Score>  (1) 
-7.60062

$$$$

     RDKit          3D

 27 29  0  0  0  0  0  0  0  0999 V2000
   11.8107    6.9286   -2.9703 C   0  0  0  0  0  0  0  0  0  0  0  0
   11.4369    6.8770   -4.3197 C   0  0  0  0  0  0  0  0  0  0  0  0
   11.3594    8.0972   -5.0344 C   0  0  0  0  0  0  0  0  0  0  0  0
   11.6544    9.2399   -4.3589 N   0  0  0  0  0  0  0  0  0  0  0  0
   12.0115    9.2532   -3.0570 C   0  0  0  0  0  0  0  0  0  0  0  0
   12.0891    8.1001   -2.3657 N   0  0  0  0  0  0  0  0  0  0  0  0
   11.8631    5.9713   -2.4405 H   0  0  0  0  0  0  0  0  0  0  0  0
   11.2118    5.9411   -4.8126 H   0  0  0  0  0  0  0  0  0  0  0  0
   12.2454   10.1586   -2.5211 H   0  0  0  0  0  0  0  0  0  0  0  0
   10.9766    8.0767   -6.4263 C   0  0  1  0  0  0  0  0  0  0  0  0
    9.9483    9.1375   -6.8100 C   0  0  0  0  0  0  0  0  0  0  0  0
   10.2940    9.5020   -8.2501 C   0  0  1  0  0  0  0  0  0  0  0  0
   11.3572   10.5562   -8.2183 C   0  0  0  0  0  0  0  0  0  0  0  0
   12.4595    9.8294   -7.4488 C   0  0  0  0  0  0  0  0  0  0  0  0
   12.0600    8.3644   -7.4183 C   0  0  2  0  0  0  0  0  0  0  0  0
   11.1743    8.3141   -8.6824 C   0  0  0  0  0  0  0  0  0  0  0  0
   10.5262    7.1100   -6.6981 H   0  0  0  0  0  0  0  0  0  0  0  0
   10.0838   10.0315   -6.1433 H   0  0  0  0  0  0  0  0  0  0  0  0
    8.9314    8.7411   -6.7894 H   0  0  0  0  0  0  0  0  0  0  0  0
    9.4559    9.6723   -8.8870 H   0  0  0  0  0  0  0  0  0  0  0  0
   11.0553   11.4903   -7.7299 H   0  0  0  0  0  0  0  0  0  0  0  0
   11.6967   10.7123   -9.2707 H   0  0  0  0  0  0  0  0  0  0  0  0
   13.4441    9.9701   -7.9125 H   0  0  0  0  0  0  0  0  0  0  0  0
   12.4905   10.2936   -6.4541 H   0  0  0  0  0  0  0  0  0  0  0  0
   12.8777    7.6716   -7.4523 H   0  0  0  0  0  0  0  0  0  0  0  0
   11.7398    8.5385   -9.5829 H   0  0  0  0  0  0  0  0  0  0  0  0
   10.5808    7.3996   -8.7008 H   0  0  0  0  0  0  0  0  0  0  0  0
  1  6  2  0
  2  1  1  0
  3  4  1  0
  3  2  2  0
  4  5  2  0
  5  6  1  0
  1  7  1  0
  2  8  1  0
  5  9  1  0
 10 11  1  0
 11 12  1  0
 12 13  1  0
 13 14  1  0
 14 15  1  0
 15 16  1  0
 15 10  1  0
 16 12  1  0
 10 17  1  6
 11 18  1  0
 11 19  1  0
 12 20  1  6
 13 21  1  0
 13 22  1  0
 14 23  1  0
 14 24  1  0
 15 25  1  6
 16 26  1  0
 16 27  1  0
  3 10  1  0
M  END
>  <Score>  (1) 
-7.59626

$$$$

     RDKit          3D

 21 23  0  0  0  0  0  0  0  0999 V2000
   11.8105    6.9278   -2.9707 C   0  0  0  0  0  0  0  0  0  0  0  0
   11.4361    6.8767   -4.3225 C   0  0  0  0  0  0  0  0  0  0  0  0
   11.3607    8.0964   -5.0293 C   0  0  0  0  0  0  0  0  0  0  0  0
   11.6529    9.2409   -4.3648 N   0  0  0  0  0  0  0  0  0  0  0  0
   12.0126    9.2508   -3.0521 C   0  0  0  0  0  0  0  0  0  0  0  0
   12.0892    8.1033   -2.3666 N   0  0  0  0  0  0  0  0  0  0  0  0
   11.8561    5.9873   -2.4715 H   0  0  0  0  0  0  0  0  0  0  0  0
   11.2114    5.9445   -4.8153 H   0  0  0  0  0  0  0  0  0  0  0  0
   12.2448   10.1676   -2.5264 H   0  0  0  0  0  0  0  0  0  0  0  0
   10.9813    8.1073   -6.4213 C   0  0  0  0  0  0  0  0  0  0  0  0
   11.2049    9.2249   -7.1678 C   0  0  0  0  0  0  0  0  0  0  0  0
   10.8273    9.1976   -8.5002 C   0  0  0  0  0  0  0  0  0  0  0  0
   10.2475    8.0452   -8.9974 C   0  0  0  0  0  0  0  0  0  0  0  0
    9.7906    7.7423  -10.2334 N   0  0  0  0  0  0  0  0  0  0  0  0
    9.3076    6.4946  -10.2467 N   0  0  0  0  0  0  0  0  0  0  0  0
    9.4682    6.0180   -8.9998 C   0  0  0  0  0  0  0  0  0  0  0  0
    9.1666    5.0228   -8.7070 H   0  0  0  0  0  0  0  0  0  0  0  0
   10.0418    6.9599   -8.2310 N   0  0  0  0  0  0  0  0  0  0  0  0
   10.4158    7.0255   -6.9654 N   0  0  0  0  0  0  0  0  0  0  0  0
   11.6675   10.1112   -6.7244 H   0  0  0  0  0  0  0  0  0  0  0  0
   10.9860   10.0647   -9.1326 H   0  0  0  0  0  0  0  0  0  0  0  0
  1  6  2  0
  2  1  1  0
  3  4  1  0
  3  2  2  0
  4  5  2  0
  5  6  1  0
  1  7  1  0
  2  8  1  0
  5  9  1  0
 10 11  1  0
 11 12  2  0
 12 13  1  0
 13 14  2  0
 14 15  1  0
 15 16  2  0
 16 17  1  0
 16 18  1  0
 18 19  1  0
 19 10  2  0
 18 13  1  0
 11 20  1  0
 12 21  1  0
  3 10  1  0
M  END
>  <Score>  (1) 
-7.58745

$$$$

     RDKit          3D

 26 27  0  0  0  0  0  0  0  0999 V2000
   11.8114    6.9293   -2.9681 C   0  0  0  0  0  0  0  0  0  0  0  0
   11.4355    6.8789   -4.3255 C   0  0  0  0  0  0  0  0  0  0  0  0
   11.3602    8.0920   -5.0296 C   0  0  0  0  0  0  0  0  0  0  0  0
   11.6540    9.2430   -4.3614 N   0  0  0  0  0  0  0  0  0  0  0  0
   12.0119    9.2523   -3.0550 C   0  0  0  0  0  0  0  0  0  0  0  0
   12.0889    8.1004   -2.3665 N   0  0  0  0  0  0  0  0  0  0  0  0
   11.8630    5.9894   -2.4472 H   0  0  0  0  0  0  0  0  0  0  0  0
   11.2116    5.9555   -4.8187 H   0  0  0  0  0  0  0  0  0  0  0  0
   12.2286   10.2135   -2.6017 H   0  0  0  0  0  0  0  0  0  0  0  0
    9.8719    6.6657   -8.2758 H   0  0  0  0  0  0  0  0  0  0  0  0
   10.4839    7.1843   -9.0596 C   0  0  0  0  0  0  0  0  0  0  0  0
   11.7387    7.7757   -8.5027 C   0  0  2  0  0  0  0  0  0  0  0  0
   11.9115    7.3737   -7.1612 O   0  0  0  0  0  0  0  0  0  0  0  0
   10.9743    8.1335   -6.4562 C   0  0  2  0  0  0  0  0  0  0  0  0
   11.0382    9.5227   -7.0378 C   0  0  2  0  0  0  0  0  0  0  0  0
    9.7781   10.0754   -7.2242 O   0  0  0  0  0  0  0  0  0  0  0  0
   11.7080    9.2667   -8.3751 C   0  0  2  0  0  0  0  0  0  0  0  0
   11.0964    9.9153   -9.4203 O   0  0  0  0  0  0  0  0  0  0  0  0
    9.8194    7.9085   -9.5493 H   0  0  0  0  0  0  0  0  0  0  0  0
   10.7884    6.3633   -9.7625 H   0  0  0  0  0  0  0  0  0  0  0  0
   12.6559    7.4948   -9.0784 H   0  0  0  0  0  0  0  0  0  0  0  0
    9.9519    7.7543   -6.5522 H   0  0  0  0  0  0  0  0  0  0  0  0
   11.6515   10.2071   -6.3927 H   0  0  0  0  0  0  0  0  0  0  0  0
    9.7376   11.0199   -6.9201 H   0  0  0  0  0  0  0  0  0  0  0  0
   12.7611    9.6335   -8.2700 H   0  0  0  0  0  0  0  0  0  0  0  0
   11.6847   10.6602   -9.7572 H   0  0  0  0  0  0  0  0  0  0  0  0
  1  6  2  0
  2  1  1  0
  3  4  1  0
  3  2  2  0
  4  5  2  0
  5  6  1  0
  1  7  1  0
  2  8  1  0
  5  9  1  0
 10 11  1  0
 11 12  1  0
 12 13  1  0
 13 14  1  0
 14 15  1  0
 15 16  1  0
 15 17  1  0
 17 18  1  0
 17 12  1  0
 11 19  1  0
 11 20  1  0
 12 21  1  6
 14 22  1  1
 15 23  1  1
 16 24  1  0
 17 25  1  1
 18 26  1  0
  3 14  1  0
M  END
>  <Score>  (1) 
-7.56721

$$$$

     RDKit          3D

 28 29  0  0  0  0  0  0  0  0999 V2000
   11.8119    6.9289   -2.9663 C   0  0  0  0  0  0  0  0  0  0  0  0
   11.4350    6.8849   -4.3297 C   0  0  0  0  0  0  0  0  0  0  0  0
   11.3603    8.0868   -5.0276 C   0  0  0  0  0  0  0  0  0  0  0  0
   11.6539    9.2425   -4.3613 N   0  0  0  0  0  0  0  0  0  0  0  0
   12.0120    9.2533   -3.0553 C   0  0  0  0  0  0  0  0  0  0  0  0
   12.0890    8.0995   -2.3658 N   0  0  0  0  0  0  0  0  0  0  0  0
   11.8810    6.0125   -2.3894 H   0  0  0  0  0  0  0  0  0  0  0  0
   11.2224    5.9285   -4.7694 H   0  0  0  0  0  0  0  0  0  0  0  0
   12.2211   10.2196   -2.6314 H   0  0  0  0  0  0  0  0  0  0  0  0
   10.9734    8.0470   -6.4289 C   0  0  2  0  0  0  0  0  0  0  0  0
    9.5524    7.5013   -6.6054 C   0  0  0  0  0  0  0  0  0  0  0  0
    9.3180    7.5394   -8.1220 C   0  0  0  0  0  0  0  0  0  0  0  0
    9.9787    6.2696   -8.6510 C   0  0  1  0  0  0  0  0  0  0  0  0
   10.2798    6.4433  -10.0385 N   0  0  0  0  0  0  0  0  0  0  0  0
   11.1929    5.9553   -7.8052 C   0  0  0  0  0  0  0  0  0  0  0  0
   11.8683    7.2028   -7.2933 C   0  0  0  0  0  0  0  0  0  0  0  0
   10.9545    9.0626   -6.8559 H   0  0  0  0  0  0  0  0  0  0  0  0
    8.8076    8.1183   -6.0883 H   0  0  0  0  0  0  0  0  0  0  0  0
    9.4819    6.4590   -6.2693 H   0  0  0  0  0  0  0  0  0  0  0  0
    8.2611    7.5991   -8.3764 H   0  0  0  0  0  0  0  0  0  0  0  0
    9.8736    8.3859   -8.5575 H   0  0  0  0  0  0  0  0  0  0  0  0
    9.2403    5.4543   -8.4772 H   0  0  0  0  0  0  0  0  0  0  0  0
    9.7986    5.7647  -10.6619 H   0  0  0  0  0  0  0  0  0  0  0  0
   10.1163    7.4155  -10.3952 H   0  0  0  0  0  0  0  0  0  0  0  0
   10.9601    5.2503   -6.9871 H   0  0  0  0  0  0  0  0  0  0  0  0
   11.9241    5.4441   -8.4663 H   0  0  0  0  0  0  0  0  0  0  0  0
   12.7366    6.8938   -6.6937 H   0  0  0  0  0  0  0  0  0  0  0  0
   12.2352    7.7606   -8.1804 H   0  0  0  0  0  0  0  0  0  0  0  0
  1  6  2  0
  2  1  1  0
  3  4  1  0
  3  2  2  0
  4  5  2  0
  5  6  1  0
  1  7  1  0
  2  8  1  0
  5  9  1  0
 10 11  1  0
 11 12  1  0
 12 13  1  0
 13 14  1  0
 13 15  1  0
 15 16  1  0
 16 10  1  0
 10 17  1  6
 11 18  1  0
 11 19  1  0
 12 20  1  0
 12 21  1  0
 13 22  1  6
 14 23  1  0
 14 24  1  0
 15 25  1  0
 15 26  1  0
 16 27  1  0
 16 28  1  0
  3 10  1  0
M  END
>  <Score>  (1) 
-7.56437

$$$$

     RDKit          3D

 22 23  0  0  0  0  0  0  0  0999 V2000
   11.8133    6.9337   -2.9625 C   0  0  0  0  0  0  0  0  0  0  0  0
   11.4336    6.8833   -4.3341 C   0  0  0  0  0  0  0  0  0  0  0  0
   11.3608    8.0900   -5.0267 C   0  0  0  0  0  0  0  0  0  0  0  0
   11.6544    9.2385   -4.3582 N   0  0  0  0  0  0  0  0  0  0  0  0
   12.0109    9.2529   -3.0590 C   0  0  0  0  0  0  0  0  0  0  0  0
   12.0889    8.0977   -2.3654 N   0  0  0  0  0  0  0  0  0  0  0  0
   11.8645    5.9799   -2.4384 H   0  0  0  0  0  0  0  0  0  0  0  0
   11.2176    5.9414   -4.7916 H   0  0  0  0  0  0  0  0  0  0  0  0
   12.2460   10.1590   -2.5190 H   0  0  0  0  0  0  0  0  0  0  0  0
   11.0329    8.4159  -11.2985 H   0  0  0  0  0  0  0  0  0  0  0  0
   10.2368    8.2466  -10.6065 C   0  0  0  0  0  0  0  0  0  0  0  0
    9.0735    8.0848  -11.0177 O   0  0  0  0  0  0  0  0  0  0  0  0
   10.5046    8.2039   -9.1877 C   0  0  0  0  0  0  0  0  0  0  0  0
    9.5141    7.9903   -8.2799 C   0  0  0  0  0  0  0  0  0  0  0  0
    9.7214    7.9402   -6.8997 C   0  0  0  0  0  0  0  0  0  0  0  0
   10.9794    8.1136   -6.4306 C   0  0  0  0  0  0  0  0  0  0  0  0
   11.9865    8.3314   -7.3636 C   0  0  0  0  0  0  0  0  0  0  0  0
   13.3013    8.5155   -6.9221 O   0  0  0  0  0  0  0  0  0  0  0  0
   13.8288    7.6958   -6.6623 H   0  0  0  0  0  0  0  0  0  0  0  0
   11.7607    8.3751   -8.6894 N   0  0  0  0  0  0  0  0  0  0  0  0
    8.4991    7.8490   -8.6368 H   0  0  0  0  0  0  0  0  0  0  0  0
    8.9167    7.7705   -6.2250 H   0  0  0  0  0  0  0  0  0  0  0  0
  1  6  2  0
  2  1  1  0
  3  4  1  0
  3  2  2  0
  4  5  2  0
  5  6  1  0
  1  7  1  0
  2  8  1  0
  5  9  1  0
 10 11  1  0
 11 12  2  0
 11 13  1  0
 13 14  2  0
 14 15  1  0
 15 16  2  0
 16 17  1  0
 17 18  1  0
 18 19  1  0
 17 20  2  0
 20 13  1  0
 14 21  1  0
 15 22  1  0
  3 16  1  0
M  END
>  <Score>  (1) 
-7.56037

$$$$

     RDKit          3D

 22 23  0  0  0  0  0  0  0  0999 V2000
   12.3012    8.1266   -2.3054 C   0  0  0  0  0  0  0  0  0  0  0  0
   12.0207    6.8789   -2.9144 C   0  0  0  0  0  0  0  0  0  0  0  0
   11.5242    6.8997   -4.2257 C   0  0  0  0  0  0  0  0  0  0  0  0
   11.3482    8.1133   -4.8165 N   0  0  0  0  0  0  0  0  0  0  0  0
   11.6188    9.2759   -4.2249 C   0  0  0  0  0  0  0  0  0  0  0  0
   12.1019    9.2766   -2.9511 N   0  0  0  0  0  0  0  0  0  0  0  0
   12.6863    8.1397   -1.2916 H   0  0  0  0  0  0  0  0  0  0  0  0
   12.1868    5.9580   -2.3801 H   0  0  0  0  0  0  0  0  0  0  0  0
   11.3135    5.9670   -4.6835 H   0  0  0  0  0  0  0  0  0  0  0  0
   11.4155   10.4944   -4.8882 N   0  0  0  0  0  0  0  0  0  0  0  0
   11.2086   10.7073   -6.2692 C   0  0  0  0  0  0  0  0  0  0  0  0
   11.0272   12.0244   -6.7047 C   0  0  0  0  0  0  0  0  0  0  0  0
   10.8175   12.3668   -8.0167 C   0  0  0  0  0  0  0  0  0  0  0  0
   10.7849   11.3651   -8.9447 C   0  0  0  0  0  0  0  0  0  0  0  0
   10.9569   10.0499   -8.5772 C   0  0  0  0  0  0  0  0  0  0  0  0
   10.9080    8.8061   -9.7906 Cl  0  0  0  0  0  0  0  0  0  0  0  0
   11.1646    9.7581   -7.2445 C   0  0  0  0  0  0  0  0  0  0  0  0
   11.4213   11.3669   -4.2463 H   0  0  0  0  0  0  0  0  0  0  0  0
   11.0496   12.8347   -5.9841 H   0  0  0  0  0  0  0  0  0  0  0  0
   10.6816   13.4216   -8.2973 H   0  0  0  0  0  0  0  0  0  0  0  0
   10.6160   11.6545   -9.9921 H   0  0  0  0  0  0  0  0  0  0  0  0
   11.2938    8.7276   -6.9978 H   0  0  0  0  0  0  0  0  0  0  0  0
  2  1  2  0
  3  2  1  0
  4  3  2  0
  4  5  1  0
  5  6  2  0
  6  1  1  0
  1  7  1  0
  2  8  1  0
  3  9  1  0
 10 11  1  0
 11 12  2  0
 12 13  1  0
 13 14  2  0
 14 15  1  0
 15 16  1  0
 15 17  2  0
 17 11  1  0
 10 18  1  0
 12 19  1  0
 13 20  1  0
 14 21  1  0
 17 22  1  0
  5 10  1  0
M  END
>  <Score>  (1) 
-7.66495

$$$$

     RDKit          3D

 22 23  0  0  0  0  0  0  0  0999 V2000
   11.8115    6.9275   -2.9672 C   0  0  0  0  0  0  0  0  0  0  0  0
   11.4357    6.8869   -4.3278 C   0  0  0  0  0  0  0  0  0  0  0  0
   11.3589    8.0859   -5.0323 C   0  0  0  0  0  0  0  0  0  0  0  0
   11.6557    9.2415   -4.3546 N   0  0  0  0  0  0  0  0  0  0  0  0
   12.0108    9.2525   -3.0593 C   0  0  0  0  0  0  0  0  0  0  0  0
   12.0895    8.1017   -2.3648 N   0  0  0  0  0  0  0  0  0  0  0  0
   11.8800    6.0211   -2.3962 H   0  0  0  0  0  0  0  0  0  0  0  0
   11.2153    5.9459   -4.8015 H   0  0  0  0  0  0  0  0  0  0  0  0
   12.2375   10.1787   -2.5568 H   0  0  0  0  0  0  0  0  0  0  0  0
   11.6659    5.2498   -9.2096 H   0  0  0  0  0  0  0  0  0  0  0  0
   11.1617    6.1243   -9.5771 C   0  0  0  0  0  0  0  0  0  0  0  0
   10.8479    6.1541  -10.7889 O   0  0  0  0  0  0  0  0  0  0  0  0
   10.8730    7.2137   -8.6627 C   0  0  0  0  0  0  0  0  0  0  0  0
   10.2285    8.3607   -9.0772 C   0  0  0  0  0  0  0  0  0  0  0  0
    9.9546    9.3975   -8.2036 C   0  0  0  0  0  0  0  0  0  0  0  0
   10.3377    9.2731   -6.8929 C   0  0  0  0  0  0  0  0  0  0  0  0
   10.9839    8.1495   -6.4270 C   0  0  0  0  0  0  0  0  0  0  0  0
   11.2343    7.1547   -7.3150 C   0  0  0  0  0  0  0  0  0  0  0  0
    9.9440    8.4149  -10.1239 H   0  0  0  0  0  0  0  0  0  0  0  0
    9.4414   10.2768   -8.5985 H   0  0  0  0  0  0  0  0  0  0  0  0
   10.1137   10.0928   -6.2323 H   0  0  0  0  0  0  0  0  0  0  0  0
   11.7362    6.2473   -7.0197 H   0  0  0  0  0  0  0  0  0  0  0  0
  1  6  2  0
  2  1  1  0
  3  4  1  0
  3  2  2  0
  4  5  2  0
  5  6  1  0
  1  7  1  0
  2  8  1  0
  5  9  1  0
 10 11  1  0
 11 12  2  0
 11 13  1  0
 13 14  2  0
 14 15  1  0
 15 16  2  0
 16 17  1  0
 17 18  2  0
 18 13  1  0
 14 19  1  0
 15 20  1  0
 16 21  1  0
 18 22  1  0
  3 17  1  0
M  END
>  <Score>  (1) 
-7.56032

$$$$

     RDKit          3D

 31 32  0  0  0  0  0  0  0  0999 V2000
   11.8109    6.9285   -2.9697 C   0  0  0  0  0  0  0  0  0  0  0  0
   11.4358    6.8782   -4.3241 C   0  0  0  0  0  0  0  0  0  0  0  0
   11.3606    8.0937   -5.0288 C   0  0  0  0  0  0  0  0  0  0  0  0
   11.6533    9.2422   -4.3637 N   0  0  0  0  0  0  0  0  0  0  0  0
   12.0123    9.2516   -3.0533 C   0  0  0  0  0  0  0  0  0  0  0  0
   12.0890    8.1018   -2.3664 N   0  0  0  0  0  0  0  0  0  0  0  0
   11.8561    5.9829   -2.4703 H   0  0  0  0  0  0  0  0  0  0  0  0
   11.2102    5.9647   -4.8270 H   0  0  0  0  0  0  0  0  0  0  0  0
   12.2353   10.1961   -2.5711 H   0  0  0  0  0  0  0  0  0  0  0  0
   10.9703    8.1178   -6.4654 C   0  0  1  0  0  0  0  0  0  0  0  0
   11.6466    7.1319   -7.1174 O   0  0  0  0  0  0  0  0  0  0  0  0
   11.1247    6.7114   -8.3015 C   0  0  1  0  0  0  0  0  0  0  0  0
   10.6766    5.2655   -8.1318 C   0  0  0  0  0  0  0  0  0  0  0  0
   11.8071    4.5004   -7.7791 O   0  0  0  0  0  0  0  0  0  0  0  0
   10.0800    7.5738   -8.9028 C   0  0  1  0  0  0  0  0  0  0  0  0
    9.4260    6.8317   -9.9028 O   0  0  0  0  0  0  0  0  0  0  0  0
    9.0628    8.1077   -7.9652 C   0  0  2  0  0  0  0  0  0  0  0  0
    8.8401    9.4795   -8.2291 O   0  0  0  0  0  0  0  0  0  0  0  0
    9.4741    8.0101   -6.5257 C   0  0  2  0  0  0  0  0  0  0  0  0
    8.9410    9.0568   -5.7638 O   0  0  0  0  0  0  0  0  0  0  0  0
   11.2737    9.0939   -6.8870 H   0  0  0  0  0  0  0  0  0  0  0  0
   11.9799    6.6612   -9.0402 H   0  0  0  0  0  0  0  0  0  0  0  0
   10.2418    4.8512   -9.0414 H   0  0  0  0  0  0  0  0  0  0  0  0
    9.9846    5.1809   -7.2714 H   0  0  0  0  0  0  0  0  0  0  0  0
   12.3301    4.3368   -8.6127 H   0  0  0  0  0  0  0  0  0  0  0  0
   10.5776    8.4156   -9.4430 H   0  0  0  0  0  0  0  0  0  0  0  0
    8.6754    7.3557  -10.2952 H   0  0  0  0  0  0  0  0  0  0  0  0
    8.0726    7.6238   -8.1172 H   0  0  0  0  0  0  0  0  0  0  0  0
    9.5512   10.0178   -7.7658 H   0  0  0  0  0  0  0  0  0  0  0  0
    9.1118    7.0696   -6.0756 H   0  0  0  0  0  0  0  0  0  0  0  0
    7.9552    9.0082   -5.8644 H   0  0  0  0  0  0  0  0  0  0  0  0
  1  6  2  0
  2  1  1  0
  3  4  1  0
  3  2  2  0
  4  5  2  0
  5  6  1  0
  1  7  1  0
  2  8  1  0
  5  9  1  0
 10 11  1  0
 11 12  1  0
 12 13  1  0
 13 14  1  0
 12 15  1  0
 15 16  1  0
 15 17  1  0
 17 18  1  0
 17 19  1  0
 19 20  1  0
 19 10  1  0
 10 21  1  6
 12 22  1  6
 13 23  1  0
 13 24  1  0
 14 25  1  0
 15 26  1  6
 16 27  1  0
 17 28  1  1
 18 29  1  0
 19 30  1  1
 20 31  1  0
  3 10  1  0
M  END
>  <Score>  (1) 
-7.55411

$$$$

     RDKit          3D

 25 26  0  0  0  0  0  0  0  0999 V2000
   11.8117    6.9291   -2.9668 C   0  0  0  0  0  0  0  0  0  0  0  0
   11.4359    6.8882   -4.3274 C   0  0  0  0  0  0  0  0  0  0  0  0
   11.3594    8.0881   -5.0314 C   0  0  0  0  0  0  0  0  0  0  0  0
   11.6544    9.2373   -4.3577 N   0  0  0  0  0  0  0  0  0  0  0  0
   12.0114    9.2557   -3.0582 C   0  0  0  0  0  0  0  0  0  0  0  0
   12.0892    8.0975   -2.3644 N   0  0  0  0  0  0  0  0  0  0  0  0
   11.8651    5.9861   -2.4383 H   0  0  0  0  0  0  0  0  0  0  0  0
   11.2173    5.9423   -4.7932 H   0  0  0  0  0  0  0  0  0  0  0  0
   12.2256   10.2037   -2.6093 H   0  0  0  0  0  0  0  0  0  0  0  0
   10.9774    8.1341   -6.4453 C   0  0  0  0  0  0  0  0  0  0  0  0
   10.3892    6.9981   -6.9806 C   0  0  0  0  0  0  0  0  0  0  0  0
   10.0188    7.0263   -8.3294 C   0  0  0  0  0  0  0  0  0  0  0  0
   10.2314    8.1454   -9.1000 C   0  0  0  0  0  0  0  0  0  0  0  0
    9.8480    8.1198  -10.4216 O   0  0  0  0  0  0  0  0  0  0  0  0
   10.8112    9.2772   -8.5886 C   0  0  0  0  0  0  0  0  0  0  0  0
   11.0297   10.4103   -9.3573 O   0  0  0  0  0  0  0  0  0  0  0  0
   11.6126   11.5834   -8.8915 C   0  0  0  0  0  0  0  0  0  0  0  0
   11.1716    9.2212   -7.2376 C   0  0  0  0  0  0  0  0  0  0  0  0
   10.2246    6.1224   -6.3712 H   0  0  0  0  0  0  0  0  0  0  0  0
    9.5629    6.1176   -8.7057 H   0  0  0  0  0  0  0  0  0  0  0  0
    9.9640    8.8914  -11.0609 H   0  0  0  0  0  0  0  0  0  0  0  0
   12.4854   11.3478   -8.2305 H   0  0  0  0  0  0  0  0  0  0  0  0
   10.9073   12.2862   -8.4029 H   0  0  0  0  0  0  0  0  0  0  0  0
   12.0696   12.1019   -9.7807 H   0  0  0  0  0  0  0  0  0  0  0  0
   11.6253   10.1154   -6.8494 H   0  0  0  0  0  0  0  0  0  0  0  0
  1  6  2  0
  2  1  1  0
  3  4  1  0
  3  2  2  0
  4  5  2  0
  5  6  1  0
  1  7  1  0
  2  8  1  0
  5  9  1  0
 10 11  2  0
 11 12  1  0
 12 13  2  0
 13 14  1  0
 13 15  1  0
 15 16  1  0
 16 17  1  0
 15 18  2  0
 18 10  1  0
 11 19  1  0
 12 20  1  0
 14 21  1  0
 17 22  1  0
 17 23  1  0
 17 24  1  0
 18 25  1  0
  3 10  1  0
M  END
>  <Score>  (1) 
-7.55128

$$$$

     RDKit          3D

 20 21  0  0  0  0  0  0  0  0999 V2000
   11.8126    6.9313   -2.9642 C   0  0  0  0  0  0  0  0  0  0  0  0
   11.4346    6.8853   -4.3311 C   0  0  0  0  0  0  0  0  0  0  0  0
   11.3601    8.0869   -5.0283 C   0  0  0  0  0  0  0  0  0  0  0  0
   11.6544    9.2411   -4.3591 N   0  0  0  0  0  0  0  0  0  0  0  0
   12.0115    9.2553   -3.0578 C   0  0  0  0  0  0  0  0  0  0  0  0
   12.0888    8.0961   -2.3654 N   0  0  0  0  0  0  0  0  0  0  0  0
   11.8585    5.9789   -2.4601 H   0  0  0  0  0  0  0  0  0  0  0  0
   11.2195    5.9560   -4.7897 H   0  0  0  0  0  0  0  0  0  0  0  0
   12.2325   10.2060   -2.5848 H   0  0  0  0  0  0  0  0  0  0  0  0
   10.9828    8.1514   -6.4315 C   0  0  0  0  0  0  0  0  0  0  0  0
    9.7401    8.5893   -6.8286 C   0  0  0  0  0  0  0  0  0  0  0  0
    9.4351    8.6299   -8.1782 C   0  0  0  0  0  0  0  0  0  0  0  0
   10.3469    8.2420   -9.1343 C   0  0  0  0  0  0  0  0  0  0  0  0
    9.9296    8.2969  -10.9936 Br  0  0  0  0  0  0  0  0  0  0  0  0
   11.5956    7.8014   -8.7483 C   0  0  0  0  0  0  0  0  0  0  0  0
   11.8827    7.7667   -7.4088 C   0  0  0  0  0  0  0  0  0  0  0  0
    8.9871    8.9042   -6.1404 H   0  0  0  0  0  0  0  0  0  0  0  0
    8.4716    8.9671   -8.5295 H   0  0  0  0  0  0  0  0  0  0  0  0
   12.3132    7.4962   -9.4981 H   0  0  0  0  0  0  0  0  0  0  0  0
   12.8743    7.4162   -7.1141 H   0  0  0  0  0  0  0  0  0  0  0  0
  1  6  2  0
  2  1  1  0
  3  4  1  0
  3  2  2  0
  4  5  2  0
  5  6  1  0
  1  7  1  0
  2  8  1  0
  5  9  1  0
 10 11  2  0
 11 12  1  0
 12 13  2  0
 13 14  1  0
 13 15  1  0
 15 16  2  0
 16 10  1  0
 11 17  1  0
 12 18  1  0
 15 19  1  0
 16 20  1  0
  3 10  1  0
M  END
>  <Score>  (1) 
-7.5482

$$$$

     RDKit          3D

 24 25  0  0  0  0  0  0  0  0999 V2000
   11.8136    6.9351   -2.9621 C   0  0  0  0  0  0  0  0  0  0  0  0
   11.4342    6.8856   -4.3329 C   0  0  0  0  0  0  0  0  0  0  0  0
   11.3591    8.0864   -5.0318 C   0  0  0  0  0  0  0  0  0  0  0  0
   11.6557    9.2392   -4.3539 N   0  0  0  0  0  0  0  0  0  0  0  0
   12.0108    9.2537   -3.0598 C   0  0  0  0  0  0  0  0  0  0  0  0
   12.0887    8.0961   -2.3656 N   0  0  0  0  0  0  0  0  0  0  0  0
   11.8539    5.9759   -2.4758 H   0  0  0  0  0  0  0  0  0  0  0  0
   11.2178    5.9558   -4.7960 H   0  0  0  0  0  0  0  0  0  0  0  0
   12.2455   10.1611   -2.5213 H   0  0  0  0  0  0  0  0  0  0  0  0
    8.6053    8.9454  -11.0327 H   0  0  0  0  0  0  0  0  0  0  0  0
    9.8240    8.3933  -10.8338 S   0  0  0  0  0  6  0  0  0  0  0  0
    9.7832    6.9682  -11.3542 O   0  0  0  0  0  0  0  0  0  0  0  0
   10.9186    9.1380  -11.5593 O   0  0  0  0  0  0  0  0  0  0  0  0
   10.2725    8.3127   -9.1511 C   0  0  0  0  0  0  0  0  0  0  0  0
   10.0389    7.1649   -8.4209 C   0  0  0  0  0  0  0  0  0  0  0  0
   10.3868    7.0730   -7.0761 C   0  0  0  0  0  0  0  0  0  0  0  0
   10.9788    8.1429   -6.4432 C   0  0  0  0  0  0  0  0  0  0  0  0
   11.2281    9.3125   -7.1471 C   0  0  0  0  0  0  0  0  0  0  0  0
   11.8491   10.4489   -6.5026 C   0  0  0  0  0  0  0  0  0  0  0  0
   12.3680   11.3562   -5.9843 N   0  0  0  0  0  0  0  0  0  0  0  0
   10.8656    9.3590   -8.4822 C   0  0  0  0  0  0  0  0  0  0  0  0
    9.5754    6.3152   -8.9005 H   0  0  0  0  0  0  0  0  0  0  0  0
   10.1743    6.1550   -6.5818 H   0  0  0  0  0  0  0  0  0  0  0  0
   11.0716   10.2881   -9.0140 H   0  0  0  0  0  0  0  0  0  0  0  0
  1  6  2  0
  2  1  1  0
  3  4  1  0
  3  2  2  0
  4  5  2  0
  5  6  1  0
  1  7  1  0
  2  8  1  0
  5  9  1  0
 10 11  1  0
 11 12  2  0
 11 13  2  0
 11 14  1  0
 14 15  2  0
 15 16  1  0
 16 17  2  0
 17 18  1  0
 18 19  1  0
 19 20  3  0
 18 21  2  0
 21 14  1  0
 15 22  1  0
 16 23  1  0
 21 24  1  0
  3 17  1  0
M  END
>  <Score>  (1) 
-7.54661

$$$$

     RDKit          3D

 23 25  0  0  0  0  0  0  0  0999 V2000
   11.8120    6.9286   -2.9655 C   0  0  0  0  0  0  0  0  0  0  0  0
   11.4345    6.8826   -4.3304 C   0  0  0  0  0  0  0  0  0  0  0  0
   11.3609    8.0901   -5.0264 C   0  0  0  0  0  0  0  0  0  0  0  0
   11.6534    9.2405   -4.3628 N   0  0  0  0  0  0  0  0  0  0  0  0
   12.0124    9.2521   -3.0534 C   0  0  0  0  0  0  0  0  0  0  0  0
   12.0888    8.1019   -2.3675 N   0  0  0  0  0  0  0  0  0  0  0  0
   11.8540    5.9720   -2.4741 H   0  0  0  0  0  0  0  0  0  0  0  0
   11.2126    5.9380   -4.8089 H   0  0  0  0  0  0  0  0  0  0  0  0
   12.2395   10.1870   -2.5525 H   0  0  0  0  0  0  0  0  0  0  0  0
   10.9773    8.0957   -6.4321 C   0  0  0  0  0  0  0  0  0  0  0  0
   11.5951    8.8115   -7.4317 C   0  0  0  0  0  0  0  0  0  0  0  0
   10.9915    8.5907   -8.6108 N   0  0  0  0  0  0  0  0  0  0  0  0
   11.2377    9.0620   -9.8463 C   0  0  0  0  0  0  0  0  0  0  0  0
   10.4717    8.6928  -10.9409 C   0  0  0  0  0  0  0  0  0  0  0  0
    9.4386    7.8164  -10.7132 C   0  0  0  0  0  0  0  0  0  0  0  0
    8.8113    7.4951  -11.5236 H   0  0  0  0  0  0  0  0  0  0  0  0
    9.2092    7.3456   -9.4186 C   0  0  0  0  0  0  0  0  0  0  0  0
    9.9832    7.7259   -8.3451 C   0  0  0  0  0  0  0  0  0  0  0  0
    9.9737    7.4244   -7.0215 N   0  0  0  0  0  0  0  0  0  0  0  0
   12.4552    9.4646   -7.2771 H   0  0  0  0  0  0  0  0  0  0  0  0
   12.0664    9.7559   -9.9881 H   0  0  0  0  0  0  0  0  0  0  0  0
   10.7062    9.0965  -11.9145 H   0  0  0  0  0  0  0  0  0  0  0  0
    8.3839    6.6508   -9.2602 H   0  0  0  0  0  0  0  0  0  0  0  0
  1  6  2  0
  2  1  1  0
  3  4  1  0
  3  2  2  0
  4  5  2  0
  5  6  1  0
  1  7  1  0
  2  8  1  0
  5  9  1  0
 10 11  2  0
 11 12  1  0
 12 13  1  0
 13 14  2  0
 14 15  1  0
 15 16  1  0
 15 17  2  0
 17 18  1  0
 18 19  2  0
 19 10  1  0
 18 12  1  0
 11 20  1  0
 13 21  1  0
 14 22  1  0
 17 23  1  0
  3 10  1  0
M  END
>  <Score>  (1) 
-7.54439

$$$$

     RDKit          3D

 20 21  0  0  0  0  0  0  0  0999 V2000
   11.8129    6.9315   -2.9633 C   0  0  0  0  0  0  0  0  0  0  0  0
   11.4340    6.8837   -4.3326 C   0  0  0  0  0  0  0  0  0  0  0  0
   11.3619    8.0908   -5.0230 C   0  0  0  0  0  0  0  0  0  0  0  0
   11.6528    9.2400   -4.3645 N   0  0  0  0  0  0  0  0  0  0  0  0
   12.0116    9.2544   -3.0571 C   0  0  0  0  0  0  0  0  0  0  0  0
   12.0887    8.0955   -2.3654 N   0  0  0  0  0  0  0  0  0  0  0  0
   11.8851    6.0304   -2.3807 H   0  0  0  0  0  0  0  0  0  0  0  0
   11.2150    5.9587   -4.8071 H   0  0  0  0  0  0  0  0  0  0  0  0
   12.2430   10.1746   -2.5354 H   0  0  0  0  0  0  0  0  0  0  0  0
   10.9836    8.1573   -6.4304 C   0  0  0  0  0  0  0  0  0  0  0  0
    9.7744    7.7145   -6.9196 C   0  0  0  0  0  0  0  0  0  0  0  0
    9.4444    7.7924   -8.2696 C   0  0  0  0  0  0  0  0  0  0  0  0
   10.3398    8.3271   -9.1725 C   0  0  0  0  0  0  0  0  0  0  0  0
   11.5553    8.7753   -8.6997 C   0  0  0  0  0  0  0  0  0  0  0  0
   12.6885    9.4520   -9.8429 Cl  0  0  0  0  0  0  0  0  0  0  0  0
   11.8596    8.6873   -7.3563 C   0  0  0  0  0  0  0  0  0  0  0  0
   13.0748    9.1376   -6.8967 F   0  0  0  0  0  0  0  0  0  0  0  0
    9.0537    7.2956   -6.2630 H   0  0  0  0  0  0  0  0  0  0  0  0
    8.4828    7.4334   -8.6164 H   0  0  0  0  0  0  0  0  0  0  0  0
   10.0538    8.3732  -10.2112 H   0  0  0  0  0  0  0  0  0  0  0  0
  1  6  2  0
  2  1  1  0
  3  4  1  0
  3  2  2  0
  4  5  2  0
  5  6  1  0
  1  7  1  0
  2  8  1  0
  5  9  1  0
 10 11  2  0
 11 12  1  0
 12 13  2  0
 13 14  1  0
 14 15  1  0
 14 16  2  0
 16 17  1  0
 16 10  1  0
 11 18  1  0
 12 19  1  0
 13 20  1  0
  3 10  1  0
M  END
>  <Score>  (1) 
-7.54436

$$$$

     RDKit          3D

 32 34  0  0  0  0  0  0  0  0999 V2000
   11.8103    6.9266   -2.9710 C   0  0  0  0  0  0  0  0  0  0  0  0
   11.4360    6.8779   -4.3236 C   0  0  0  0  0  0  0  0  0  0  0  0
   11.3601    8.0921   -5.0301 C   0  0  0  0  0  0  0  0  0  0  0  0
   11.6545    9.2445   -4.3600 N   0  0  0  0  0  0  0  0  0  0  0  0
   12.0116    9.2490   -3.0550 C   0  0  0  0  0  0  0  0  0  0  0  0
   12.0895    8.1058   -2.3663 N   0  0  0  0  0  0  0  0  0  0  0  0
   11.8796    6.0296   -2.4007 H   0  0  0  0  0  0  0  0  0  0  0  0
   11.2119    5.9524   -4.8164 H   0  0  0  0  0  0  0  0  0  0  0  0
   12.2255   10.2091   -2.6117 H   0  0  0  0  0  0  0  0  0  0  0  0
   10.9765    8.1263   -6.4457 C   0  0  1  0  0  0  0  0  0  0  0  0
   10.0822    6.9706   -6.8198 C   0  0  0  0  0  0  0  0  0  0  0  0
   10.6604    6.0379   -6.6580 H   0  0  0  0  0  0  0  0  0  0  0  0
    9.6997    7.0939   -8.2680 C   0  0  0  0  0  0  0  0  0  0  0  0
    9.3088    8.4935   -8.6498 C   0  0  1  0  0  0  0  0  0  0  0  0
    8.1322    8.8864   -7.7698 C   0  0  0  0  0  0  0  0  0  0  0  0
    8.8422    9.4482   -6.5552 C   0  0  0  0  0  0  0  0  0  0  0  0
   10.3117    9.4230   -6.8531 C   0  0  2  0  0  0  0  0  0  0  0  0
   10.3222    9.4556   -8.3131 N   0  0  0  0  0  0  0  0  0  0  0  0
    9.9647   10.7587   -8.7821 C   0  0  0  0  0  0  0  0  0  0  0  0
   11.8950    8.0365   -7.0616 H   0  0  0  0  0  0  0  0  0  0  0  0
    9.1662    6.9355   -6.1905 H   0  0  0  0  0  0  0  0  0  0  0  0
    8.7826    6.4497   -8.4078 H   0  0  0  0  0  0  0  0  0  0  0  0
   10.4806    6.6589   -8.9030 H   0  0  0  0  0  0  0  0  0  0  0  0
    9.0454    8.4811   -9.7243 H   0  0  0  0  0  0  0  0  0  0  0  0
    7.5205    7.9879   -7.5174 H   0  0  0  0  0  0  0  0  0  0  0  0
    7.5297    9.6324   -8.3016 H   0  0  0  0  0  0  0  0  0  0  0  0
    8.5077   10.4989   -6.4210 H   0  0  0  0  0  0  0  0  0  0  0  0
    8.5430    8.8843   -5.6705 H   0  0  0  0  0  0  0  0  0  0  0  0
   10.8321   10.2970   -6.4309 H   0  0  0  0  0  0  0  0  0  0  0  0
    9.9892   11.4865   -7.9503 H   0  0  0  0  0  0  0  0  0  0  0  0
   10.7398   11.0927   -9.5290 H   0  0  0  0  0  0  0  0  0  0  0  0
    8.9708   10.7781   -9.2858 H   0  0  0  0  0  0  0  0  0  0  0  0
  1  6  2  0
  2  1  1  0
  3  4  1  0
  3  2  2  0
  4  5  2  0
  5  6  1  0
  1  7  1  0
  2  8  1  0
  5  9  1  0
 10 11  1  0
 11 12  1  0
 11 13  1  0
 13 14  1  0
 14 15  1  0
 15 16  1  0
 16 17  1  0
 17 18  1  0
 18 19  1  0
 17 10  1  0
 18 14  1  0
 10 20  1  6
 11 21  1  0
 13 22  1  0
 13 23  1  0
 14 24  1  6
 15 25  1  0
 15 26  1  0
 16 27  1  0
 16 28  1  0
 17 29  1  1
 19 30  1  0
 19 31  1  0
 19 32  1  0
  3 10  1  0
M  END
>  <Score>  (1) 
-7.53952

$$$$

     RDKit          3D

 27 28  0  0  0  0  0  0  0  0999 V2000
   11.8117    6.9307   -2.9675 C   0  0  0  0  0  0  0  0  0  0  0  0
   11.4355    6.8786   -4.3256 C   0  0  0  0  0  0  0  0  0  0  0  0
   11.3601    8.0911   -5.0298 C   0  0  0  0  0  0  0  0  0  0  0  0
   11.6545    9.2443   -4.3598 N   0  0  0  0  0  0  0  0  0  0  0  0
   12.0115    9.2533   -3.0570 C   0  0  0  0  0  0  0  0  0  0  0  0
   12.0887    8.0980   -2.3663 N   0  0  0  0  0  0  0  0  0  0  0  0
   11.8763    6.0092   -2.4057 H   0  0  0  0  0  0  0  0  0  0  0  0
   11.2178    5.9480   -4.7932 H   0  0  0  0  0  0  0  0  0  0  0  0
   12.2454   10.1623   -2.5223 H   0  0  0  0  0  0  0  0  0  0  0  0
   10.9843    8.1442   -6.4236 C   0  0  1  0  0  0  0  0  0  0  0  0
   10.3925    6.9595   -6.9019 O   0  0  0  0  0  0  0  0  0  0  0  0
   10.2125    7.3154   -8.2413 C   0  0  1  0  0  0  0  0  0  0  0  0
    9.3825    6.3024   -8.9880 C   0  0  0  0  0  0  0  0  0  0  0  0
    8.1249    6.1421   -8.4614 O   0  0  0  0  0  0  0  0  0  0  0  0
    9.5370    8.6681   -8.1747 C   0  0  2  0  0  0  0  0  0  0  0  0
   10.1128    9.4943   -9.1265 O   0  0  0  0  0  0  0  0  0  0  0  0
    9.9661    9.1649   -6.7901 C   0  0  2  0  0  0  0  0  0  0  0  0
   10.5658   10.4200   -6.8936 O   0  0  0  0  0  0  0  0  0  0  0  0
   11.8801    8.3035   -7.0548 H   0  0  0  0  0  0  0  0  0  0  0  0
   11.2273    7.3875   -8.6800 H   0  0  0  0  0  0  0  0  0  0  0  0
    9.3053    6.6693  -10.0377 H   0  0  0  0  0  0  0  0  0  0  0  0
    9.9631    5.3600   -9.0419 H   0  0  0  0  0  0  0  0  0  0  0  0
    7.4674    6.0053   -9.2120 H   0  0  0  0  0  0  0  0  0  0  0  0
    8.4510    8.6122   -8.2696 H   0  0  0  0  0  0  0  0  0  0  0  0
   11.0935    9.4728   -9.0291 H   0  0  0  0  0  0  0  0  0  0  0  0
    9.0759    9.1699   -6.1433 H   0  0  0  0  0  0  0  0  0  0  0  0
   11.5135   10.3585   -6.6068 H   0  0  0  0  0  0  0  0  0  0  0  0
  1  6  2  0
  2  1  1  0
  3  4  1  0
  3  2  2  0
  4  5  2  0
  5  6  1  0
  1  7  1  0
  2  8  1  0
  5  9  1  0
 10 11  1  0
 11 12  1  0
 12 13  1  0
 13 14  1  0
 12 15  1  0
 15 16  1  0
 15 17  1  0
 17 18  1  0
 17 10  1  0
 10 19  1  6
 12 20  1  6
 13 21  1  0
 13 22  1  0
 14 23  1  0
 15 24  1  1
 16 25  1  0
 17 26  1  1
 18 27  1  0
  3 10  1  0
M  END
>  <Score>  (1) 
-7.53925

$$$$

     RDKit          3D

 25 26  0  0  0  0  0  0  0  0999 V2000
   11.8119    6.9302   -2.9668 C   0  0  0  0  0  0  0  0  0  0  0  0
   11.4350    6.8805   -4.3279 C   0  0  0  0  0  0  0  0  0  0  0  0
   11.3600    8.0881   -5.0289 C   0  0  0  0  0  0  0  0  0  0  0  0
   11.6550    9.2453   -4.3586 N   0  0  0  0  0  0  0  0  0  0  0  0
   12.0113    9.2537   -3.0577 C   0  0  0  0  0  0  0  0  0  0  0  0
   12.0888    8.0982   -2.3661 N   0  0  0  0  0  0  0  0  0  0  0  0
   11.8808    6.0139   -2.3909 H   0  0  0  0  0  0  0  0  0  0  0  0
   11.2119    5.9624   -4.8200 H   0  0  0  0  0  0  0  0  0  0  0  0
   12.2442   10.1591   -2.5256 H   0  0  0  0  0  0  0  0  0  0  0  0
   10.9761    8.1444   -6.4535 C   0  0  0  0  0  0  0  0  0  0  0  0
   12.1134    7.6754   -7.3023 C   0  0  0  0  0  0  0  0  0  0  0  0
   13.3177    7.2641   -6.7687 C   0  0  0  0  0  0  0  0  0  0  0  0
   14.3099    6.8511   -7.5752 N   0  0  0  0  0  0  0  0  0  0  0  0
   14.1826    6.8172   -8.9291 C   0  0  0  0  0  0  0  0  0  0  0  0
   15.2569    6.3725   -9.7582 N   0  0  0  0  0  0  0  0  0  0  0  0
   13.0040    7.2206   -9.4343 N   0  0  0  0  0  0  0  0  0  0  0  0
   11.9760    7.6441   -8.6749 C   0  0  0  0  0  0  0  0  0  0  0  0
   10.7630    8.0526   -9.3067 N   0  0  0  0  0  0  0  0  0  0  0  0
   10.6892    9.1903   -6.7231 H   0  0  0  0  0  0  0  0  0  0  0  0
   10.0806    7.4932   -6.6312 H   0  0  0  0  0  0  0  0  0  0  0  0
   13.4105    7.2944   -5.6892 H   0  0  0  0  0  0  0  0  0  0  0  0
   15.8699    5.6286   -9.4125 H   0  0  0  0  0  0  0  0  0  0  0  0
   15.4539    6.7666  -10.7046 H   0  0  0  0  0  0  0  0  0  0  0  0
   10.2170    7.4575   -9.9491 H   0  0  0  0  0  0  0  0  0  0  0  0
   10.4331    9.0221   -9.0843 H   0  0  0  0  0  0  0  0  0  0  0  0
  1  6  2  0
  2  1  1  0
  3  4  1  0
  3  2  2  0
  4  5  2  0
  5  6  1  0
  1  7  1  0
  2  8  1  0
  5  9  1  0
 10 11  1  0
 11 12  2  0
 12 13  1  0
 13 14  2  0
 14 15  1  0
 14 16  1  0
 16 17  2  0
 17 18  1  0
 17 11  1  0
 10 19  1  0
 10 20  1  0
 12 21  1  0
 15 22  1  0
 15 23  1  0
 18 24  1  0
 18 25  1  0
  3 10  1  0
M  END
>  <Score>  (1) 
-7.53003

$$$$

     RDKit          3D

 28 29  0  0  0  0  0  0  0  0999 V2000
   12.3023    8.1234   -2.3023 C   0  0  0  0  0  0  0  0  0  0  0  0
   12.0206    6.8826   -2.9151 C   0  0  0  0  0  0  0  0  0  0  0  0
   11.5257    6.8964   -4.2213 C   0  0  0  0  0  0  0  0  0  0  0  0
   11.3423    8.1118   -4.8321 N   0  0  0  0  0  0  0  0  0  0  0  0
   11.6230    9.2754   -4.2137 C   0  0  0  0  0  0  0  0  0  0  0  0
   12.1012    9.2814   -2.9536 N   0  0  0  0  0  0  0  0  0  0  0  0
   12.6847    8.1355   -1.2952 H   0  0  0  0  0  0  0  0  0  0  0  0
   12.1896    5.9621   -2.3731 H   0  0  0  0  0  0  0  0  0  0  0  0
   11.3095    5.9732   -4.6946 H   0  0  0  0  0  0  0  0  0  0  0  0
   11.4084   10.5098   -4.9086 N   0  0  0  0  0  0  0  0  0  0  0  0
   12.3989   11.5466   -4.8722 C   0  0  0  0  0  0  0  0  0  0  0  0
   12.6085   12.2194   -6.2031 C   0  0  0  0  0  0  0  0  0  0  0  0
   11.2577   12.5761   -6.7674 C   0  0  0  0  0  0  0  0  0  0  0  0
   11.3332   13.4073   -8.0059 C   0  0  0  0  0  0  0  0  0  0  0  0
   11.4556   12.7608   -8.8965 H   0  0  0  0  0  0  0  0  0  0  0  0
   10.5350   11.2555   -7.0327 C   0  0  0  0  0  0  0  0  0  0  0  0
   10.1786   10.7058   -5.6520 C   0  0  0  0  0  0  0  0  0  0  0  0
   13.4024   11.1351   -4.5567 H   0  0  0  0  0  0  0  0  0  0  0  0
   12.1674   12.3417   -4.1312 H   0  0  0  0  0  0  0  0  0  0  0  0
   13.1375   11.5279   -6.8640 H   0  0  0  0  0  0  0  0  0  0  0  0
   13.2164   13.1268   -6.0348 H   0  0  0  0  0  0  0  0  0  0  0  0
   10.6556   13.0836   -5.9707 H   0  0  0  0  0  0  0  0  0  0  0  0
   12.1074   14.1831   -7.9055 H   0  0  0  0  0  0  0  0  0  0  0  0
   10.3536   13.9505   -8.1174 H   0  0  0  0  0  0  0  0  0  0  0  0
    9.6340   11.3976   -7.6424 H   0  0  0  0  0  0  0  0  0  0  0  0
   11.2538   10.5286   -7.4983 H   0  0  0  0  0  0  0  0  0  0  0  0
    9.6761    9.7145   -5.7811 H   0  0  0  0  0  0  0  0  0  0  0  0
    9.5204   11.4373   -5.1279 H   0  0  0  0  0  0  0  0  0  0  0  0
  2  1  2  0
  3  2  1  0
  4  3  2  0
  4  5  1  0
  5  6  2  0
  6  1  1  0
  1  7  1  0
  2  8  1  0
  3  9  1  0
 10 11  1  0
 11 12  1  0
 12 13  1  0
 13 14  1  0
 14 15  1  0
 13 16  1  0
 16 17  1  0
 17 10  1  0
 11 18  1  0
 11 19  1  0
 12 20  1  0
 12 21  1  0
 13 22  1  0
 14 23  1  0
 14 24  1  0
 16 25  1  0
 16 26  1  0
 17 27  1  0
 17 28  1  0
  5 10  1  0
M  END
>  <Score>  (1) 
-7.66307

$$$$

     RDKit          3D

 24 25  0  0  0  0  0  0  0  0999 V2000
   11.8110    6.9325   -2.9708 C   0  0  0  0  0  0  0  0  0  0  0  0
   11.4363    6.8868   -4.3254 C   0  0  0  0  0  0  0  0  0  0  0  0
   11.3597    8.0953   -5.0327 C   0  0  0  0  0  0  0  0  0  0  0  0
   11.6542    9.2262   -4.3548 N   0  0  0  0  0  0  0  0  0  0  0  0
   12.0110    9.2552   -3.0594 C   0  0  0  0  0  0  0  0  0  0  0  0
   12.0898    8.1000   -2.3629 N   0  0  0  0  0  0  0  0  0  0  0  0
   11.8600    5.9725   -2.4520 H   0  0  0  0  0  0  0  0  0  0  0  0
   11.2230    5.9264   -4.7666 H   0  0  0  0  0  0  0  0  0  0  0  0
   12.2459   10.1629   -2.5206 H   0  0  0  0  0  0  0  0  0  0  0  0
   10.9848    8.0457   -6.3870 N   0  0  0  0  0  0  0  0  0  0  0  0
   10.8462    9.1347   -7.2786 C   0  0  0  0  0  0  0  0  0  0  0  0
   11.0545   10.4505   -6.9812 C   0  0  0  0  0  0  0  0  0  0  0  0
   10.8895   11.4620   -7.9419 C   0  0  0  0  0  0  0  0  0  0  0  0
   10.5118   11.1548   -9.2152 C   0  0  0  0  0  0  0  0  0  0  0  0
   10.2930    9.8326   -9.5489 C   0  0  0  0  0  0  0  0  0  0  0  0
   10.4606    8.8663   -8.5944 C   0  0  0  0  0  0  0  0  0  0  0  0
   10.2295    7.5198   -8.9643 N   0  0  0  0  0  0  0  0  0  0  0  0
   10.7889    7.0514   -6.7528 H   0  0  0  0  0  0  0  0  0  0  0  0
   11.3538   10.7251   -5.9834 H   0  0  0  0  0  0  0  0  0  0  0  0
   11.0725   12.4863   -7.6341 H   0  0  0  0  0  0  0  0  0  0  0  0
   10.3978   11.9707   -9.9204 H   0  0  0  0  0  0  0  0  0  0  0  0
    9.9947    9.6185  -10.5647 H   0  0  0  0  0  0  0  0  0  0  0  0
    9.3929    7.0268   -8.5934 H   0  0  0  0  0  0  0  0  0  0  0  0
   10.8770    7.0412   -9.5871 H   0  0  0  0  0  0  0  0  0  0  0  0
  1  6  2  0
  2  1  1  0
  3  4  1  0
  3  2  2  0
  4  5  2  0
  5  6  1  0
  1  7  1  0
  2  8  1  0
  5  9  1  0
 10 11  1  0
 11 12  2  0
 12 13  1  0
 13 14  2  0
 14 15  1  0
 15 16  2  0
 16 17  1  0
 16 11  1  0
 10 18  1  0
 12 19  1  0
 13 20  1  0
 14 21  1  0
 15 22  1  0
 17 23  1  0
 17 24  1  0
  3 10  1  0
M  END
>  <Score>  (1) 
-7.52492

$$$$

     RDKit          3D

 27 28  0  0  0  0  0  0  0  0999 V2000
   11.8117    6.9299   -2.9672 C   0  0  0  0  0  0  0  0  0  0  0  0
   11.4353    6.8794   -4.3266 C   0  0  0  0  0  0  0  0  0  0  0  0
   11.3601    8.0903   -5.0294 C   0  0  0  0  0  0  0  0  0  0  0  0
   11.6545    9.2443   -4.3599 N   0  0  0  0  0  0  0  0  0  0  0  0
   12.0116    9.2529   -3.0566 C   0  0  0  0  0  0  0  0  0  0  0  0
   12.0888    8.0992   -2.3663 N   0  0  0  0  0  0  0  0  0  0  0  0
   11.8578    5.9802   -2.4630 H   0  0  0  0  0  0  0  0  0  0  0  0
   11.2126    5.9611   -4.8165 H   0  0  0  0  0  0  0  0  0  0  0  0
   12.2415   10.1749   -2.5408 H   0  0  0  0  0  0  0  0  0  0  0  0
   10.9683    8.1184   -6.4730 C   0  0  1  0  0  0  0  0  0  0  0  0
   11.9649    7.6917   -7.3041 O   0  0  0  0  0  0  0  0  0  0  0  0
   11.6056    6.5122   -7.8949 C   0  0  2  0  0  0  0  0  0  0  0  0
   11.1791    6.7610   -9.3463 C   0  0  0  0  0  0  0  0  0  0  0  0
   12.2451    7.3209  -10.0420 O   0  0  0  0  0  0  0  0  0  0  0  0
   10.4670    5.9322   -7.1100 C   0  0  2  0  0  0  0  0  0  0  0  0
    9.6290    5.1246   -7.8272 O   0  0  0  0  0  0  0  0  0  0  0  0
    9.7832    7.2145   -6.6272 C   0  0  2  0  0  0  0  0  0  0  0  0
    8.8532    7.6735   -7.5288 O   0  0  0  0  0  0  0  0  0  0  0  0
   10.6950    9.1699   -6.7060 H   0  0  0  0  0  0  0  0  0  0  0  0
   12.4399    5.7810   -7.8794 H   0  0  0  0  0  0  0  0  0  0  0  0
   10.9283    5.8020   -9.8443 H   0  0  0  0  0  0  0  0  0  0  0  0
   10.2838    7.3890   -9.3705 H   0  0  0  0  0  0  0  0  0  0  0  0
   12.1205    8.2727  -10.2382 H   0  0  0  0  0  0  0  0  0  0  0  0
   10.8776    5.4594   -6.1837 H   0  0  0  0  0  0  0  0  0  0  0  0
    9.9628    4.1795   -7.7168 H   0  0  0  0  0  0  0  0  0  0  0  0
    9.2932    6.9913   -5.6646 H   0  0  0  0  0  0  0  0  0  0  0  0
    8.8011    8.6591   -7.5847 H   0  0  0  0  0  0  0  0  0  0  0  0
  1  6  2  0
  2  1  1  0
  3  4  1  0
  3  2  2  0
  4  5  2  0
  5  6  1  0
  1  7  1  0
  2  8  1  0
  5  9  1  0
 10 11  1  0
 11 12  1  0
 12 13  1  0
 13 14  1  0
 12 15  1  0
 15 16  1  0
 15 17  1  0
 17 18  1  0
 17 10  1  0
 10 19  1  6
 12 20  1  6
 13 21  1  0
 13 22  1  0
 14 23  1  0
 15 24  1  1
 16 25  1  0
 17 26  1  1
 18 27  1  0
  3 10  1  0
M  END
>  <Score>  (1) 
-7.50825

$$$$

     RDKit          3D

 20 21  0  0  0  0  0  0  0  0999 V2000
   11.8126    6.9308   -2.9641 C   0  0  0  0  0  0  0  0  0  0  0  0
   11.4352    6.8863   -4.3293 C   0  0  0  0  0  0  0  0  0  0  0  0
   11.3591    8.0865   -5.0316 C   0  0  0  0  0  0  0  0  0  0  0  0
   11.6553    9.2412   -4.3558 N   0  0  0  0  0  0  0  0  0  0  0  0
   12.0109    9.2560   -3.0601 C   0  0  0  0  0  0  0  0  0  0  0  0
   12.0888    8.0952   -2.3650 N   0  0  0  0  0  0  0  0  0  0  0  0
   11.8831    6.0334   -2.3894 H   0  0  0  0  0  0  0  0  0  0  0  0
   11.2195    5.9382   -4.7837 H   0  0  0  0  0  0  0  0  0  0  0  0
   12.2341   10.1719   -2.5670 H   0  0  0  0  0  0  0  0  0  0  0  0
   10.9807    8.1237   -6.4294 C   0  0  0  0  0  0  0  0  0  0  0  0
   10.9977    6.9391   -7.1509 C   0  0  0  0  0  0  0  0  0  0  0  0
   10.6521    6.8817   -8.4881 C   0  0  0  0  0  0  0  0  0  0  0  0
   10.2770    8.0334   -9.1348 C   0  0  0  0  0  0  0  0  0  0  0  0
    9.8382    7.9660  -10.8292 Cl  0  0  0  0  0  0  0  0  0  0  0  0
   10.2544    9.2298   -8.4268 C   0  0  0  0  0  0  0  0  0  0  0  0
   10.6064    9.2458   -7.0929 C   0  0  0  0  0  0  0  0  0  0  0  0
   11.2859    5.9965   -6.6920 H   0  0  0  0  0  0  0  0  0  0  0  0
   10.6617    5.9628   -9.0614 H   0  0  0  0  0  0  0  0  0  0  0  0
    9.9529   10.1066   -8.9788 H   0  0  0  0  0  0  0  0  0  0  0  0
   10.5726   10.1975   -6.5888 H   0  0  0  0  0  0  0  0  0  0  0  0
  1  6  2  0
  2  1  1  0
  3  4  1  0
  3  2  2  0
  4  5  2  0
  5  6  1  0
  1  7  1  0
  2  8  1  0
  5  9  1  0
 10 11  2  0
 11 12  1  0
 12 13  2  0
 13 14  1  0
 13 15  1  0
 15 16  2  0
 16 10  1  0
 11 17  1  0
 12 18  1  0
 15 19  1  0
 16 20  1  0
  3 10  1  0
M  END
>  <Score>  (1) 
-7.50179

$$$$

     RDKit          3D

 22 23  0  0  0  0  0  0  0  0999 V2000
   11.8125    6.9293   -2.9639 C   0  0  0  0  0  0  0  0  0  0  0  0
   11.4341    6.8857   -4.3331 C   0  0  0  0  0  0  0  0  0  0  0  0
   11.3614    8.0899   -5.0244 C   0  0  0  0  0  0  0  0  0  0  0  0
   11.6534    9.2389   -4.3621 N   0  0  0  0  0  0  0  0  0  0  0  0
   12.0113    9.2522   -3.0575 C   0  0  0  0  0  0  0  0  0  0  0  0
   12.0893    8.1000   -2.3650 N   0  0  0  0  0  0  0  0  0  0  0  0
   11.8779    6.0087   -2.3996 H   0  0  0  0  0  0  0  0  0  0  0  0
   11.2211    5.9479   -4.7812 H   0  0  0  0  0  0  0  0  0  0  0  0
   12.2435   10.1655   -2.5305 H   0  0  0  0  0  0  0  0  0  0  0  0
    8.8030    7.4663  -10.8037 H   0  0  0  0  0  0  0  0  0  0  0  0
    9.6397    8.0523  -10.4828 C   0  0  0  0  0  0  0  0  0  0  0  0
   10.2616    8.7525  -11.3313 O   0  0  0  0  0  0  0  0  0  0  0  0
   10.1077    8.0881   -9.1040 C   0  0  0  0  0  0  0  0  0  0  0  0
    9.4598    7.3399   -8.1432 C   0  0  0  0  0  0  0  0  0  0  0  0
    9.8910    7.3675   -6.8510 C   0  0  0  0  0  0  0  0  0  0  0  0
   10.9817    8.1303   -6.4280 C   0  0  0  0  0  0  0  0  0  0  0  0
   11.6276    8.8754   -7.3824 C   0  0  0  0  0  0  0  0  0  0  0  0
   11.1830    8.8432   -8.6995 C   0  0  0  0  0  0  0  0  0  0  0  0
    8.6172    6.7398   -8.4255 H   0  0  0  0  0  0  0  0  0  0  0  0
    9.3792    6.7785   -6.1005 H   0  0  0  0  0  0  0  0  0  0  0  0
   12.4785    9.4832   -7.1053 H   0  0  0  0  0  0  0  0  0  0  0  0
   11.7262    9.4464   -9.4062 H   0  0  0  0  0  0  0  0  0  0  0  0
  1  6  2  0
  2  1  1  0
  3  4  1  0
  3  2  2  0
  4  5  2  0
  5  6  1  0
  1  7  1  0
  2  8  1  0
  5  9  1  0
 10 11  1  0
 11 12  2  0
 11 13  1  0
 13 14  2  0
 14 15  1  0
 15 16  2  0
 16 17  1  0
 17 18  2  0
 18 13  1  0
 14 19  1  0
 15 20  1  0
 17 21  1  0
 18 22  1  0
  3 16  1  0
M  END
>  <Score>  (1) 
-7.50166

$$$$

     RDKit          3D

 31 32  0  0  0  0  0  0  0  0999 V2000
   11.8122    6.9309   -2.9658 C   0  0  0  0  0  0  0  0  0  0  0  0
   11.4350    6.8797   -4.3278 C   0  0  0  0  0  0  0  0  0  0  0  0
   11.3602    8.0902   -5.0291 C   0  0  0  0  0  0  0  0  0  0  0  0
   11.6545    9.2441   -4.3598 N   0  0  0  0  0  0  0  0  0  0  0  0
   12.0115    9.2539   -3.0572 C   0  0  0  0  0  0  0  0  0  0  0  0
   12.0886    8.0973   -2.3664 N   0  0  0  0  0  0  0  0  0  0  0  0
   11.8674    6.0085   -2.4377 H   0  0  0  0  0  0  0  0  0  0  0  0
   11.2147    5.9446   -4.8034 H   0  0  0  0  0  0  0  0  0  0  0  0
   12.2419   10.1864   -2.5434 H   0  0  0  0  0  0  0  0  0  0  0  0
   10.9717    8.0901   -6.4502 C   0  0  1  0  0  0  0  0  0  0  0  0
   11.0728    6.7849   -6.9244 O   0  0  0  0  0  0  0  0  0  0  0  0
   10.7073    6.7653   -8.2453 C   0  0  1  0  0  0  0  0  0  0  0  0
   11.1070    5.5133   -8.9737 C   0  0  0  0  0  0  0  0  0  0  0  0
   10.5689    4.3634   -8.4525 O   0  0  0  0  0  0  0  0  0  0  0  0
    9.2165    7.0209   -8.3215 C   0  0  1  0  0  0  0  0  0  0  0  0
    8.5866    6.3422   -7.2552 O   0  0  0  0  0  0  0  0  0  0  0  0
    9.0665    8.5120   -7.9964 C   0  0  1  0  0  0  0  0  0  0  0  0
    7.7692    8.9323   -8.1000 O   0  0  0  0  0  0  0  0  0  0  0  0
    9.5991    8.6628   -6.5783 C   0  0  1  0  0  0  0  0  0  0  0  0
    8.7066    8.0032   -5.7383 O   0  0  0  0  0  0  0  0  0  0  0  0
   11.6852    8.6973   -7.0296 H   0  0  0  0  0  0  0  0  0  0  0  0
   11.2415    7.6117   -8.7560 H   0  0  0  0  0  0  0  0  0  0  0  0
   10.7194    5.6275  -10.0274 H   0  0  0  0  0  0  0  0  0  0  0  0
   12.2108    5.4911   -9.0804 H   0  0  0  0  0  0  0  0  0  0  0  0
   11.2958    3.6689   -8.3773 H   0  0  0  0  0  0  0  0  0  0  0  0
    8.7731    6.7633   -9.2818 H   0  0  0  0  0  0  0  0  0  0  0  0
    8.8659    5.4134   -7.1947 H   0  0  0  0  0  0  0  0  0  0  0  0
    9.7518    9.0630   -8.6733 H   0  0  0  0  0  0  0  0  0  0  0  0
    7.7534    9.8625   -8.4876 H   0  0  0  0  0  0  0  0  0  0  0  0
    9.6569    9.7453   -6.3825 H   0  0  0  0  0  0  0  0  0  0  0  0
    8.2023    8.6208   -5.1671 H   0  0  0  0  0  0  0  0  0  0  0  0
  1  6  2  0
  2  1  1  0
  3  4  1  0
  3  2  2  0
  4  5  2  0
  5  6  1  0
  1  7  1  0
  2  8  1  0
  5  9  1  0
 10 11  1  0
 11 12  1  0
 12 13  1  0
 13 14  1  0
 12 15  1  0
 15 16  1  0
 15 17  1  0
 17 18  1  0
 17 19  1  0
 19 20  1  0
 19 10  1  0
 10 21  1  6
 12 22  1  6
 13 23  1  0
 13 24  1  0
 14 25  1  0
 15 26  1  6
 16 27  1  0
 17 28  1  6
 18 29  1  0
 19 30  1  1
 20 31  1  0
  3 10  1  0
M  END
>  <Score>  (1) 
-7.49863

$$$$

     RDKit          3D

 25 27  0  0  0  0  0  0  0  0999 V2000
   11.8125    6.9311   -2.9648 C   0  0  0  0  0  0  0  0  0  0  0  0
   11.4348    6.8815   -4.3292 C   0  0  0  0  0  0  0  0  0  0  0  0
   11.3604    8.0898   -5.0283 C   0  0  0  0  0  0  0  0  0  0  0  0
   11.6541    9.2426   -4.3609 N   0  0  0  0  0  0  0  0  0  0  0  0
   12.0117    9.2543   -3.0567 C   0  0  0  0  0  0  0  0  0  0  0  0
   12.0886    8.0967   -2.3662 N   0  0  0  0  0  0  0  0  0  0  0  0
   11.8811    6.0152   -2.3901 H   0  0  0  0  0  0  0  0  0  0  0  0
   11.2135    5.9481   -4.8092 H   0  0  0  0  0  0  0  0  0  0  0  0
   12.2429   10.1625   -2.5314 H   0  0  0  0  0  0  0  0  0  0  0  0
   10.9942    8.1388   -6.3855 N   0  0  0  0  0  0  0  0  0  0  0  0
   11.7816    8.6486   -7.4769 C   0  0  0  0  0  0  0  0  0  0  0  0
   11.4289    7.8072   -8.6303 C   0  0  0  0  0  0  0  0  0  0  0  0
   12.0784    7.5440   -9.8294 C   0  0  0  0  0  0  0  0  0  0  0  0
   11.4973    6.7002  -10.7415 C   0  0  0  0  0  0  0  0  0  0  0  0
   10.3148    6.1436  -10.4637 N   0  0  0  0  0  0  0  0  0  0  0  0
    9.6765    6.3899   -9.3084 C   0  0  0  0  0  0  0  0  0  0  0  0
   10.2106    7.2292   -8.3523 C   0  0  0  0  0  0  0  0  0  0  0  0
    9.7541    7.6926   -6.9918 C   0  0  0  0  0  0  0  0  0  0  0  0
   12.8721    8.6051   -7.2800 H   0  0  0  0  0  0  0  0  0  0  0  0
   11.4540    9.7033   -7.6443 H   0  0  0  0  0  0  0  0  0  0  0  0
   13.0356    7.9840  -10.0736 H   0  0  0  0  0  0  0  0  0  0  0  0
   12.0315    6.5081  -11.6827 H   0  0  0  0  0  0  0  0  0  0  0  0
    8.7103    5.9449   -9.0635 H   0  0  0  0  0  0  0  0  0  0  0  0
    9.0351    8.5238   -7.0664 H   0  0  0  0  0  0  0  0  0  0  0  0
    9.3320    6.8081   -6.4374 H   0  0  0  0  0  0  0  0  0  0  0  0
  1  6  2  0
  2  1  1  0
  3  4  1  0
  3  2  2  0
  4  5  2  0
  5  6  1  0
  1  7  1  0
  2  8  1  0
  5  9  1  0
 10 11  1  0
 11 12  1  0
 12 13  2  0
 13 14  1  0
 14 15  2  0
 15 16  1  0
 16 17  2  0
 17 18  1  0
 18 10  1  0
 17 12  1  0
 11 19  1  0
 11 20  1  0
 13 21  1  0
 14 22  1  0
 16 23  1  0
 18 24  1  0
 18 25  1  0
  3 10  1  0
M  END
>  <Score>  (1) 
-7.49449

$$$$

     RDKit          3D

 23 25  0  0  0  0  0  0  0  0999 V2000
   11.8117    6.9300   -2.9670 C   0  0  0  0  0  0  0  0  0  0  0  0
   11.4353    6.8794   -4.3266 C   0  0  0  0  0  0  0  0  0  0  0  0
   11.3602    8.0911   -5.0294 C   0  0  0  0  0  0  0  0  0  0  0  0
   11.6543    9.2435   -4.3606 N   0  0  0  0  0  0  0  0  0  0  0  0
   12.0117    9.2529   -3.0561 C   0  0  0  0  0  0  0  0  0  0  0  0
   12.0888    8.0991   -2.3664 N   0  0  0  0  0  0  0  0  0  0  0  0
   11.8790    6.0088   -2.3954 H   0  0  0  0  0  0  0  0  0  0  0  0
   11.2154    5.9447   -4.8011 H   0  0  0  0  0  0  0  0  0  0  0  0
   12.2257   10.2043   -2.6094 H   0  0  0  0  0  0  0  0  0  0  0  0
   10.9888    8.0962   -6.3899 N   0  0  0  0  0  0  0  0  0  0  0  0
    9.9841    7.4430   -6.9086 N   0  0  0  0  0  0  0  0  0  0  0  0
    9.9115    7.6705   -8.2491 C   0  0  0  0  0  0  0  0  0  0  0  0
    9.2061    7.2860   -8.9643 H   0  0  0  0  0  0  0  0  0  0  0  0
   10.9492    8.5179   -8.5322 C   0  0  0  0  0  0  0  0  0  0  0  0
   11.3422    9.0714   -9.7420 C   0  0  0  0  0  0  0  0  0  0  0  0
   10.6384    8.7882  -10.9326 N   0  0  0  0  0  0  0  0  0  0  0  0
   12.4155    9.8816   -9.7215 N   0  0  0  0  0  0  0  0  0  0  0  0
   13.0822   10.1428   -8.5601 C   0  0  0  0  0  0  0  0  0  0  0  0
   12.6923    9.6005   -7.3920 N   0  0  0  0  0  0  0  0  0  0  0  0
   11.6216    8.7808   -7.3588 C   0  0  0  0  0  0  0  0  0  0  0  0
   10.3628    9.5660  -11.5524 H   0  0  0  0  0  0  0  0  0  0  0  0
   10.3954    7.8180  -11.1926 H   0  0  0  0  0  0  0  0  0  0  0  0
   13.9415   10.8095   -8.6286 H   0  0  0  0  0  0  0  0  0  0  0  0
  1  6  2  0
  2  1  1  0
  3  4  1  0
  3  2  2  0
  4  5  2  0
  5  6  1  0
  1  7  1  0
  2  8  1  0
  5  9  1  0
 10 11  1  0
 11 12  2  0
 12 13  1  0
 12 14  1  0
 14 15  2  0
 15 16  1  0
 15 17  1  0
 17 18  2  0
 18 19  1  0
 19 20  2  0
 20 10  1  0
 20 14  1  0
 16 21  1  0
 16 22  1  0
 18 23  1  0
  3 10  1  0
M  END
>  <Score>  (1) 
-7.4907

$$$$

     RDKit          3D

 25 26  0  0  0  0  0  0  0  0999 V2000
   11.8124    6.9309   -2.9648 C   0  0  0  0  0  0  0  0  0  0  0  0
   11.4346    6.8810   -4.3295 C   0  0  0  0  0  0  0  0  0  0  0  0
   11.3603    8.0886   -5.0282 C   0  0  0  0  0  0  0  0  0  0  0  0
   11.6544    9.2444   -4.3602 N   0  0  0  0  0  0  0  0  0  0  0  0
   12.0116    9.2536   -3.0567 C   0  0  0  0  0  0  0  0  0  0  0  0
   12.0886    8.0975   -2.3666 N   0  0  0  0  0  0  0  0  0  0  0  0
   11.8619    5.9934   -2.4527 H   0  0  0  0  0  0  0  0  0  0  0  0
   11.2143    5.9564   -4.8090 H   0  0  0  0  0  0  0  0  0  0  0  0
   12.2232   10.2208   -2.6241 H   0  0  0  0  0  0  0  0  0  0  0  0
   12.2514    7.1174  -10.4918 H   0  0  0  0  0  0  0  0  0  0  0  0
   12.4742    6.9508   -9.4441 C   0  0  0  0  0  0  0  0  0  0  0  0
   13.4374    6.3353   -9.0325 O   0  0  0  0  0  0  0  0  0  0  0  0
   11.5248    7.5220   -8.4563 C   0  0  1  0  0  0  0  0  0  0  0  0
   11.9031    7.2512   -7.1493 O   0  0  0  0  0  0  0  0  0  0  0  0
   10.9713    8.0386   -6.4336 C   0  0  2  0  0  0  0  0  0  0  0  0
   10.9471    9.3635   -7.1222 C   0  0  2  0  0  0  0  0  0  0  0  0
    9.6170    9.7508   -7.3052 O   0  0  0  0  0  0  0  0  0  0  0  0
   11.5676    9.0420   -8.4767 C   0  0  2  0  0  0  0  0  0  0  0  0
   10.7941    9.4690   -9.5279 O   0  0  0  0  0  0  0  0  0  0  0  0
   10.4953    7.1461   -8.6119 H   0  0  0  0  0  0  0  0  0  0  0  0
    9.9905    7.5205   -6.5740 H   0  0  0  0  0  0  0  0  0  0  0  0
   11.5180   10.1270   -6.5722 H   0  0  0  0  0  0  0  0  0  0  0  0
    8.9854    9.1144   -6.8818 H   0  0  0  0  0  0  0  0  0  0  0  0
   12.6179    9.3425   -8.5152 H   0  0  0  0  0  0  0  0  0  0  0  0
    9.9309    9.8397   -9.2811 H   0  0  0  0  0  0  0  0  0  0  0  0
  1  6  2  0
  2  1  1  0
  3  4  1  0
  3  2  2  0
  4  5  2  0
  5  6  1  0
  1  7  1  0
  2  8  1  0
  5  9  1  0
 10 11  1  0
 11 12  2  0
 11 13  1  0
 13 14  1  0
 14 15  1  0
 15 16  1  0
 16 17  1  0
 16 18  1  0
 18 19  1  0
 18 13  1  0
 13 20  1  6
 15 21  1  1
 16 22  1  1
 17 23  1  0
 18 24  1  1
 19 25  1  0
  3 15  1  0
M  END
>  <Score>  (1) 
-7.48233

$$$$

     RDKit          3D

 25 26  0  0  0  0  0  0  0  0999 V2000
   11.8113    6.9312   -2.9691 C   0  0  0  0  0  0  0  0  0  0  0  0
   11.4365    6.8912   -4.3264 C   0  0  0  0  0  0  0  0  0  0  0  0
   11.3590    8.0876   -5.0326 C   0  0  0  0  0  0  0  0  0  0  0  0
   11.6547    9.2316   -4.3548 N   0  0  0  0  0  0  0  0  0  0  0  0
   12.0114    9.2583   -3.0591 C   0  0  0  0  0  0  0  0  0  0  0  0
   12.0891    8.0961   -2.3641 N   0  0  0  0  0  0  0  0  0  0  0  0
   11.8654    5.9791   -2.4346 H   0  0  0  0  0  0  0  0  0  0  0  0
   11.2186    5.9820   -4.8025 H   0  0  0  0  0  0  0  0  0  0  0  0
   12.2361   10.1911   -2.5666 H   0  0  0  0  0  0  0  0  0  0  0  0
   10.9858    8.0584   -6.3878 N   0  0  0  0  0  0  0  0  0  0  0  0
   11.6910    8.4892   -7.5089 C   0  0  0  0  0  0  0  0  0  0  0  0
   12.9322    9.0399   -7.4367 C   0  0  0  0  0  0  0  0  0  0  0  0
   13.6171    9.4650   -8.5871 C   0  0  0  0  0  0  0  0  0  0  0  0
   14.6040    9.9009   -8.5111 H   0  0  0  0  0  0  0  0  0  0  0  0
   13.0471    9.3334   -9.8109 C   0  0  0  0  0  0  0  0  0  0  0  0
   11.7953    8.7807   -9.9113 C   0  0  0  0  0  0  0  0  0  0  0  0
   11.1359    8.3683   -8.7734 C   0  0  0  0  0  0  0  0  0  0  0  0
    9.7643    7.7694   -8.9505 C   0  0  0  0  0  0  0  0  0  0  0  0
   10.0032    7.6353   -6.5602 H   0  0  0  0  0  0  0  0  0  0  0  0
   13.4708    9.1888   -6.5202 H   0  0  0  0  0  0  0  0  0  0  0  0
   13.5887    9.6681  -10.7070 H   0  0  0  0  0  0  0  0  0  0  0  0
   11.3452    8.6782  -10.8929 H   0  0  0  0  0  0  0  0  0  0  0  0
    9.7244    6.7979   -8.3978 H   0  0  0  0  0  0  0  0  0  0  0  0
    9.5748    7.5409   -9.9967 H   0  0  0  0  0  0  0  0  0  0  0  0
    9.0185    8.4716   -8.5561 H   0  0  0  0  0  0  0  0  0  0  0  0
  1  6  2  0
  2  1  1  0
  3  4  1  0
  3  2  2  0
  4  5  2  0
  5  6  1  0
  1  7  1  0
  2  8  1  0
  5  9  1  0
 10 11  1  0
 11 12  2  0
 12 13  1  0
 13 14  1  0
 13 15  2  0
 15 16  1  0
 16 17  2  0
 17 18  1  0
 17 11  1  0
 10 19  1  0
 12 20  1  0
 15 21  1  0
 16 22  1  0
 18 23  1  0
 18 24  1  0
 18 25  1  0
  3 10  1  0
M  END
>  <Score>  (1) 
-7.48086

$$$$

     RDKit          3D

 23 25  0  0  0  0  0  0  0  0999 V2000
   11.8130    6.9315   -2.9631 C   0  0  0  0  0  0  0  0  0  0  0  0
   11.4341    6.8819   -4.3319 C   0  0  0  0  0  0  0  0  0  0  0  0
   11.3608    8.0887   -5.0264 C   0  0  0  0  0  0  0  0  0  0  0  0
   11.6538    9.2432   -4.3621 N   0  0  0  0  0  0  0  0  0  0  0  0
   12.0119    9.2537   -3.0557 C   0  0  0  0  0  0  0  0  0  0  0  0
   12.0885    8.0969   -2.3667 N   0  0  0  0  0  0  0  0  0  0  0  0
   11.8764    5.9991   -2.4017 H   0  0  0  0  0  0  0  0  0  0  0  0
   11.2134    5.9514   -4.8105 H   0  0  0  0  0  0  0  0  0  0  0  0
   12.2424   10.1602   -2.5326 H   0  0  0  0  0  0  0  0  0  0  0  0
   10.9930    8.1274   -6.3858 N   0  0  0  0  0  0  0  0  0  0  0  0
   10.9139    9.3359   -7.1022 C   0  0  0  0  0  0  0  0  0  0  0  0
   11.1915   10.5202   -6.5054 N   0  0  0  0  0  0  0  0  0  0  0  0
   11.1122   11.6655   -7.2003 C   0  0  0  0  0  0  0  0  0  0  0  0
   10.7628   11.7247   -8.4995 N   0  0  0  0  0  0  0  0  0  0  0  0
   10.4838   10.5669   -9.1109 C   0  0  0  0  0  0  0  0  0  0  0  0
   10.5535    9.3629   -8.4302 C   0  0  0  0  0  0  0  0  0  0  0  0
   10.2185    8.3689   -9.3041 N   0  0  0  0  0  0  0  0  0  0  0  0
    9.9491    8.9344  -10.4897 C   0  0  0  0  0  0  0  0  0  0  0  0
   10.1133   10.2626  -10.3587 N   0  0  0  0  0  0  0  0  0  0  0  0
    9.9691   10.9656  -11.1348 H   0  0  0  0  0  0  0  0  0  0  0  0
   10.7734    7.2316   -6.8727 H   0  0  0  0  0  0  0  0  0  0  0  0
   11.3342   12.6068   -6.7210 H   0  0  0  0  0  0  0  0  0  0  0  0
    9.6490    8.4679  -11.4225 H   0  0  0  0  0  0  0  0  0  0  0  0
  1  6  2  0
  2  1  1  0
  3  4  1  0
  3  2  2  0
  4  5  2  0
  5  6  1  0
  1  7  1  0
  2  8  1  0
  5  9  1  0
 10 11  1  0
 11 12  2  0
 12 13  1  0
 13 14  2  0
 14 15  1  0
 15 16  2  0
 16 17  1  0
 17 18  2  0
 18 19  1  0
 19 20  1  0
 16 11  1  0
 19 15  1  0
 10 21  1  0
 13 22  1  0
 18 23  1  0
  3 10  1  0
M  END
>  <Score>  (1) 
-7.47961

$$$$

     RDKit          3D

 22 23  0  0  0  0  0  0  0  0999 V2000
   12.3028    8.1249   -2.3011 C   0  0  0  0  0  0  0  0  0  0  0  0
   12.0212    6.8822   -2.9136 C   0  0  0  0  0  0  0  0  0  0  0  0
   11.5243    6.8971   -4.2250 C   0  0  0  0  0  0  0  0  0  0  0  0
   11.3432    8.1101   -4.8295 N   0  0  0  0  0  0  0  0  0  0  0  0
   11.6233    9.2773   -4.2130 C   0  0  0  0  0  0  0  0  0  0  0  0
   12.1003    9.2793   -2.9558 N   0  0  0  0  0  0  0  0  0  0  0  0
   12.6873    8.0834   -1.2831 H   0  0  0  0  0  0  0  0  0  0  0  0
   12.1849    5.9602   -2.3853 H   0  0  0  0  0  0  0  0  0  0  0  0
   11.2984    5.9678   -4.7234 H   0  0  0  0  0  0  0  0  0  0  0  0
   11.4064   10.5380   -4.9170 C   0  0  0  0  0  0  0  0  0  0  0  0
   11.0820   11.6698   -4.2083 C   0  0  0  0  0  0  0  0  0  0  0  0
   10.8729   12.8700   -4.8511 C   0  0  0  0  0  0  0  0  0  0  0  0
   10.9893   12.9399   -6.2179 C   0  0  0  0  0  0  0  0  0  0  0  0
   11.3189   11.7894   -6.9371 C   0  0  0  0  0  0  0  0  0  0  0  0
   11.4451   11.8346   -8.3481 N   0  0  0  0  0  4  0  0  0  0  0  0
   11.7396   10.7886   -8.9493 O   0  0  0  0  0  0  0  0  0  0  0  0
   11.2365   13.0349   -8.9974 O   0  0  0  0  0  1  0  0  0  0  0  0
   11.5268   10.5919   -6.2883 C   0  0  0  0  0  0  0  0  0  0  0  0
   10.9913   11.6156   -3.1428 H   0  0  0  0  0  0  0  0  0  0  0  0
   10.6131   13.7741   -4.2780 H   0  0  0  0  0  0  0  0  0  0  0  0
   10.8373   13.8516   -6.7777 H   0  0  0  0  0  0  0  0  0  0  0  0
   11.7856    9.6809   -6.8344 H   0  0  0  0  0  0  0  0  0  0  0  0
  2  1  2  0
  3  2  1  0
  4  3  2  0
  4  5  1  0
  5  6  2  0
  6  1  1  0
  1  7  1  0
  2  8  1  0
  3  9  1  0
 10 11  2  0
 11 12  1  0
 12 13  2  0
 13 14  1  0
 14 15  1  0
 15 16  2  0
 15 17  1  0
 14 18  2  0
 18 10  1  0
 11 19  1  0
 12 20  1  0
 13 21  1  0
 18 22  1  0
  5 10  1  0
M  CHG  2  15   1  17  -1
M  END
>  <Score>  (1) 
-7.65684

$$$$

     RDKit          3D

 20 21  0  0  0  0  0  0  0  0999 V2000
   11.8135    6.9339   -2.9620 C   0  0  0  0  0  0  0  0  0  0  0  0
   11.4337    6.8831   -4.3336 C   0  0  0  0  0  0  0  0  0  0  0  0
   11.3600    8.0872   -5.0289 C   0  0  0  0  0  0  0  0  0  0  0  0
   11.6557    9.2422   -4.3548 N   0  0  0  0  0  0  0  0  0  0  0  0
   12.0105    9.2503   -3.0595 C   0  0  0  0  0  0  0  0  0  0  0  0
   12.0886    8.0993   -2.3672 N   0  0  0  0  0  0  0  0  0  0  0  0
   11.8688    5.9966   -2.4286 H   0  0  0  0  0  0  0  0  0  0  0  0
   11.2193    5.9508   -4.7887 H   0  0  0  0  0  0  0  0  0  0  0  0
   12.2417   10.1679   -2.5377 H   0  0  0  0  0  0  0  0  0  0  0  0
   10.9801    8.1317   -6.4344 C   0  0  0  0  0  0  0  0  0  0  0  0
   10.9594    7.0261   -7.2492 C   0  0  0  0  0  0  0  0  0  0  0  0
   10.5956    7.0940   -8.5788 C   0  0  0  0  0  0  0  0  0  0  0  0
   10.2320    8.2943   -9.1523 C   0  0  0  0  0  0  0  0  0  0  0  0
   10.2528    9.4040   -8.3346 C   0  0  0  0  0  0  0  0  0  0  0  0
   10.6203    9.3326   -6.9935 C   0  0  0  0  0  0  0  0  0  0  0  0
   10.6368   10.7599   -5.9799 Cl  0  0  0  0  0  0  0  0  0  0  0  0
   11.2300    6.0593   -6.8712 H   0  0  0  0  0  0  0  0  0  0  0  0
   10.5876    6.1909   -9.2108 H   0  0  0  0  0  0  0  0  0  0  0  0
    9.9488    8.3333  -10.1964 H   0  0  0  0  0  0  0  0  0  0  0  0
    9.9728   10.3548   -8.7586 H   0  0  0  0  0  0  0  0  0  0  0  0
  1  6  2  0
  2  1  1  0
  3  4  1  0
  3  2  2  0
  4  5  2  0
  5  6  1  0
  1  7  1  0
  2  8  1  0
  5  9  1  0
 10 11  2  0
 11 12  1  0
 12 13  2  0
 13 14  1  0
 14 15  2  0
 15 16  1  0
 15 10  1  0
 11 17  1  0
 12 18  1  0
 13 19  1  0
 14 20  1  0
  3 10  1  0
M  END
>  <Score>  (1) 
-7.47539

$$$$

     RDKit          3D

 21 22  0  0  0  0  0  0  0  0999 V2000
   11.8129    6.9309   -2.9630 C   0  0  0  0  0  0  0  0  0  0  0  0
   11.4345    6.8849   -4.3315 C   0  0  0  0  0  0  0  0  0  0  0  0
   11.3607    8.0895   -5.0272 C   0  0  0  0  0  0  0  0  0  0  0  0
   11.6542    9.2400   -4.3594 N   0  0  0  0  0  0  0  0  0  0  0  0
   12.0109    9.2553   -3.0599 C   0  0  0  0  0  0  0  0  0  0  0  0
   12.0888    8.0953   -2.3650 N   0  0  0  0  0  0  0  0  0  0  0  0
   11.8862    6.0378   -2.3794 H   0  0  0  0  0  0  0  0  0  0  0  0
   11.2227    5.9495   -4.7757 H   0  0  0  0  0  0  0  0  0  0  0  0
   12.2396   10.1744   -2.5475 H   0  0  0  0  0  0  0  0  0  0  0  0
   10.9801    8.1228   -6.4310 C   0  0  0  0  0  0  0  0  0  0  0  0
   11.4124    9.0598   -7.3272 C   0  0  0  0  0  0  0  0  0  0  0  0
   11.0009    9.0218   -8.6558 C   0  0  0  0  0  0  0  0  0  0  0  0
   10.1504    8.0492   -9.1181 C   0  0  0  0  0  0  0  0  0  0  0  0
    9.7241    8.0165  -10.5118 C   0  0  0  0  0  0  0  0  0  0  0  0
    9.3976    8.0064  -11.6223 N   0  0  0  0  0  0  0  0  0  0  0  0
    9.7130    7.1046   -8.2202 C   0  0  0  0  0  0  0  0  0  0  0  0
   10.1217    7.1456   -6.9087 C   0  0  0  0  0  0  0  0  0  0  0  0
   12.0717    9.8311   -7.0129 H   0  0  0  0  0  0  0  0  0  0  0  0
   11.3579    9.7785   -9.3519 H   0  0  0  0  0  0  0  0  0  0  0  0
    9.0473    6.3388   -8.5710 H   0  0  0  0  0  0  0  0  0  0  0  0
    9.7460    6.3719   -6.2342 H   0  0  0  0  0  0  0  0  0  0  0  0
  1  6  2  0
  2  1  1  0
  3  4  1  0
  3  2  2  0
  4  5  2  0
  5  6  1  0
  1  7  1  0
  2  8  1  0
  5  9  1  0
 10 11  2  0
 11 12  1  0
 12 13  2  0
 13 14  1  0
 14 15  3  0
 13 16  1  0
 16 17  2  0
 17 10  1  0
 11 18  1  0
 12 19  1  0
 16 20  1  0
 17 21  1  0
  3 10  1  0
M  END
>  <Score>  (1) 
-7.4747

$$$$

     RDKit          3D

 22 24  0  0  0  0  0  0  0  0999 V2000
   11.8115    6.9312   -2.9684 C   0  0  0  0  0  0  0  0  0  0  0  0
   11.4346    6.8865   -4.3317 C   0  0  0  0  0  0  0  0  0  0  0  0
   11.3619    8.0913   -5.0233 C   0  0  0  0  0  0  0  0  0  0  0  0
   11.6545    9.2322   -4.3557 N   0  0  0  0  0  0  0  0  0  0  0  0
   12.0104    9.2517   -3.0605 C   0  0  0  0  0  0  0  0  0  0  0  0
   12.0892    8.1031   -2.3664 N   0  0  0  0  0  0  0  0  0  0  0  0
   11.8545    5.9745   -2.4729 H   0  0  0  0  0  0  0  0  0  0  0  0
   11.2190    5.9560   -4.7916 H   0  0  0  0  0  0  0  0  0  0  0  0
   12.2376   10.1657   -2.5521 H   0  0  0  0  0  0  0  0  0  0  0  0
   10.9713    8.1188   -6.4620 C   0  0  0  0  0  0  0  0  0  0  0  0
   11.5138    9.1453   -7.2101 N   0  0  0  0  0  0  0  0  0  0  0  0
   10.8196    8.8476   -8.8731 S   0  0  0  0  0  0  0  0  0  0  0  0
    9.9232    7.4537   -8.4161 C   0  0  0  0  0  0  0  0  0  0  0  0
    9.0908    6.6303   -9.2062 C   0  0  0  0  0  0  0  0  0  0  0  0
    8.4606    5.5500   -8.6261 C   0  0  0  0  0  0  0  0  0  0  0  0
    8.7000    5.3577   -7.2919 C   0  0  0  0  0  0  0  0  0  0  0  0
    9.5041    6.1555   -6.5348 C   0  0  0  0  0  0  0  0  0  0  0  0
   10.1593    7.2694   -7.1139 C   0  0  0  0  0  0  0  0  0  0  0  0
    8.9993    6.9041  -10.2329 H   0  0  0  0  0  0  0  0  0  0  0  0
    7.8346    4.9336   -9.2279 H   0  0  0  0  0  0  0  0  0  0  0  0
    8.2024    4.5042   -6.8326 H   0  0  0  0  0  0  0  0  0  0  0  0
    9.6018    5.8862   -5.4980 H   0  0  0  0  0  0  0  0  0  0  0  0
  1  6  2  0
  2  1  1  0
  3  4  1  0
  3  2  2  0
  4  5  2  0
  5  6  1  0
  1  7  1  0
  2  8  1  0
  5  9  1  0
 10 11  2  0
 11 12  1  0
 12 13  1  0
 13 14  2  0
 14 15  1  0
 15 16  2  0
 16 17  1  0
 17 18  2  0
 18 10  1  0
 18 13  1  0
 14 19  1  0
 15 20  1  0
 16 21  1  0
 17 22  1  0
  3 10  1  0
M  END
>  <Score>  (1) 
-7.47319

$$$$

     RDKit          3D

 23 24  0  0  0  0  0  0  0  0999 V2000
   11.8119    6.9300   -2.9664 C   0  0  0  0  0  0  0  0  0  0  0  0
   11.4351    6.8809   -4.3279 C   0  0  0  0  0  0  0  0  0  0  0  0
   11.3603    8.0900   -5.0288 C   0  0  0  0  0  0  0  0  0  0  0  0
   11.6542    9.2430   -4.3606 N   0  0  0  0  0  0  0  0  0  0  0  0
   12.0117    9.2534   -3.0561 C   0  0  0  0  0  0  0  0  0  0  0  0
   12.0888    8.0987   -2.3663 N   0  0  0  0  0  0  0  0  0  0  0  0
   11.8695    5.9951   -2.4255 H   0  0  0  0  0  0  0  0  0  0  0  0
   11.2145    5.9468   -4.8050 H   0  0  0  0  0  0  0  0  0  0  0  0
   12.2399   10.1813   -2.5491 H   0  0  0  0  0  0  0  0  0  0  0  0
   10.4781    8.7738  -11.1759 H   0  0  0  0  0  0  0  0  0  0  0  0
    9.9221    8.1720  -10.4769 C   0  0  0  0  0  0  0  0  0  0  0  0
    8.9536    7.4911  -10.8855 O   0  0  0  0  0  0  0  0  0  0  0  0
   10.3096    8.1653   -9.0770 C   0  0  0  0  0  0  0  0  0  0  0  0
   11.3647    8.8978   -8.5902 C   0  0  0  0  0  0  0  0  0  0  0  0
   11.6682    8.8475   -7.2947 N   0  0  0  0  0  0  0  0  0  0  0  0
   10.9791    8.1015   -6.4275 C   0  0  0  0  0  0  0  0  0  0  0  0
    9.9197    7.3524   -6.8556 C   0  0  0  0  0  0  0  0  0  0  0  0
    9.5743    7.3779   -8.1902 C   0  0  0  0  0  0  0  0  0  0  0  0
    8.4701    6.6086   -8.6870 N   0  0  0  0  0  0  0  0  0  0  0  0
    7.5560    7.0181   -8.9174 H   0  0  0  0  0  0  0  0  0  0  0  0
   11.9236    9.5009   -9.2848 H   0  0  0  0  0  0  0  0  0  0  0  0
    9.3612    6.7470   -6.1498 H   0  0  0  0  0  0  0  0  0  0  0  0
    8.5891    5.5824   -8.8252 H   0  0  0  0  0  0  0  0  0  0  0  0
  1  6  2  0
  2  1  1  0
  3  4  1  0
  3  2  2  0
  4  5  2  0
  5  6  1  0
  1  7  1  0
  2  8  1  0
  5  9  1  0
 10 11  1  0
 11 12  2  0
 11 13  1  0
 13 14  2  0
 14 15  1  0
 15 16  2  0
 16 17  1  0
 17 18  2  0
 18 19  1  0
 19 20  1  0
 18 13  1  0
 14 21  1  0
 17 22  1  0
 19 23  1  0
  3 16  1  0
M  END
>  <Score>  (1) 
-7.4722

$$$$

     RDKit          3D

 25 26  0  0  0  0  0  0  0  0999 V2000
   11.8125    6.9314   -2.9648 C   0  0  0  0  0  0  0  0  0  0  0  0
   11.4347    6.8810   -4.3291 C   0  0  0  0  0  0  0  0  0  0  0  0
   11.3598    8.0871   -5.0294 C   0  0  0  0  0  0  0  0  0  0  0  0
   11.6553    9.2459   -4.3575 N   0  0  0  0  0  0  0  0  0  0  0  0
   12.0111    9.2543   -3.0588 C   0  0  0  0  0  0  0  0  0  0  0  0
   12.0885    8.0963   -2.3663 N   0  0  0  0  0  0  0  0  0  0  0  0
   11.8654    5.9912   -2.4389 H   0  0  0  0  0  0  0  0  0  0  0  0
   11.2188    5.9445   -4.7885 H   0  0  0  0  0  0  0  0  0  0  0  0
   12.2361   10.1992   -2.5694 H   0  0  0  0  0  0  0  0  0  0  0  0
   13.4260    7.5450   -9.5260 H   0  0  0  0  0  0  0  0  0  0  0  0
   12.3581    7.4844   -9.6222 C   0  0  0  0  0  0  0  0  0  0  0  0
   11.8928    7.2135  -10.7119 O   0  0  0  0  0  0  0  0  0  0  0  0
   11.4730    7.7144   -8.5001 C   0  0  2  0  0  0  0  0  0  0  0  0
   12.0917    8.0152   -7.3061 O   0  0  0  0  0  0  0  0  0  0  0  0
   10.9773    8.1232   -6.4419 C   0  0  1  0  0  0  0  0  0  0  0  0
   10.0112    7.0651   -6.8565 C   0  0  1  0  0  0  0  0  0  0  0  0
    8.8000    7.6240   -7.3070 O   0  0  0  0  0  0  0  0  0  0  0  0
   10.6811    6.4737   -8.0839 C   0  0  1  0  0  0  0  0  0  0  0  0
    9.7533    6.1236   -9.0562 O   0  0  0  0  0  0  0  0  0  0  0  0
   10.6961    8.5032   -8.6837 H   0  0  0  0  0  0  0  0  0  0  0  0
   10.5328    9.1246   -6.6854 H   0  0  0  0  0  0  0  0  0  0  0  0
    9.8109    6.3058   -6.0816 H   0  0  0  0  0  0  0  0  0  0  0  0
    8.7139    8.5056   -6.8451 H   0  0  0  0  0  0  0  0  0  0  0  0
   11.3652    5.6571   -7.8202 H   0  0  0  0  0  0  0  0  0  0  0  0
   10.1516    5.3767   -9.5779 H   0  0  0  0  0  0  0  0  0  0  0  0
  1  6  2  0
  2  1  1  0
  3  4  1  0
  3  2  2  0
  4  5  2  0
  5  6  1  0
  1  7  1  0
  2  8  1  0
  5  9  1  0
 10 11  1  0
 11 12  2  0
 11 13  1  0
 13 14  1  0
 14 15  1  0
 15 16  1  0
 16 17  1  0
 16 18  1  0
 18 19  1  0
 18 13  1  0
 13 20  1  6
 15 21  1  6
 16 22  1  1
 17 23  1  0
 18 24  1  1
 19 25  1  0
  3 15  1  0
M  END
>  <Score>  (1) 
-7.46844

$$$$

     RDKit          3D

 22 23  0  0  0  0  0  0  0  0999 V2000
   11.8118    6.9291   -2.9665 C   0  0  0  0  0  0  0  0  0  0  0  0
   11.4350    6.8816   -4.3285 C   0  0  0  0  0  0  0  0  0  0  0  0
   11.3606    8.0903   -5.0275 C   0  0  0  0  0  0  0  0  0  0  0  0
   11.6535    9.2422   -4.3629 N   0  0  0  0  0  0  0  0  0  0  0  0
   12.0122    9.2523   -3.0542 C   0  0  0  0  0  0  0  0  0  0  0  0
   12.0889    8.1005   -2.3664 N   0  0  0  0  0  0  0  0  0  0  0  0
   11.8585    5.9731   -2.4578 H   0  0  0  0  0  0  0  0  0  0  0  0
   11.2124    5.9382   -4.8097 H   0  0  0  0  0  0  0  0  0  0  0  0
   12.2339   10.1954   -2.5763 H   0  0  0  0  0  0  0  0  0  0  0  0
   10.9780    8.0968   -6.4296 C   0  0  0  0  0  0  0  0  0  0  0  0
   10.9073    9.2446   -7.0938 N   0  0  0  0  0  0  0  0  0  0  0  0
   10.5611    9.3404   -8.3944 C   0  0  0  0  0  0  0  0  0  0  0  0
   10.4884   10.6369   -9.1187 C   0  0  0  0  0  0  0  0  0  0  0  0
   10.2764    8.1910   -9.0296 N   0  0  0  0  0  0  0  0  0  0  0  0
   10.3398    6.9976   -8.3760 C   0  0  0  0  0  0  0  0  0  0  0  0
   10.0394    5.8088   -9.0550 N   0  0  0  0  0  0  0  0  0  0  0  0
   10.6952    6.9654   -7.0644 N   0  0  0  0  0  0  0  0  0  0  0  0
   10.4115   11.4398   -8.3325 H   0  0  0  0  0  0  0  0  0  0  0  0
    9.6436   10.6601   -9.8149 H   0  0  0  0  0  0  0  0  0  0  0  0
   11.4597   10.7863   -9.6624 H   0  0  0  0  0  0  0  0  0  0  0  0
    9.3714    5.1363   -8.6176 H   0  0  0  0  0  0  0  0  0  0  0  0
   10.4752    5.6004   -9.9797 H   0  0  0  0  0  0  0  0  0  0  0  0
  1  6  2  0
  2  1  1  0
  3  4  1  0
  3  2  2  0
  4  5  2  0
  5  6  1  0
  1  7  1  0
  2  8  1  0
  5  9  1  0
 10 11  2  0
 11 12  1  0
 12 13  1  0
 12 14  2  0
 14 15  1  0
 15 16  1  0
 15 17  2  0
 17 10  1  0
 13 18  1  0
 13 19  1  0
 13 20  1  0
 16 21  1  0
 16 22  1  0
  3 10  1  0
M  END
>  <Score>  (1) 
-7.46771

$$$$

     RDKit          3D

 24 26  0  0  0  0  0  0  0  0999 V2000
   11.8118    6.9296   -2.9668 C   0  0  0  0  0  0  0  0  0  0  0  0
   11.4351    6.8797   -4.3274 C   0  0  0  0  0  0  0  0  0  0  0  0
   11.3603    8.0904   -5.0289 C   0  0  0  0  0  0  0  0  0  0  0  0
   11.6544    9.2437   -4.3602 N   0  0  0  0  0  0  0  0  0  0  0  0
   12.0117    9.2527   -3.0559 C   0  0  0  0  0  0  0  0  0  0  0  0
   12.0888    8.1000   -2.3668 N   0  0  0  0  0  0  0  0  0  0  0  0
   11.8798    6.0082   -2.3923 H   0  0  0  0  0  0  0  0  0  0  0  0
   11.2176    5.9496   -4.7946 H   0  0  0  0  0  0  0  0  0  0  0  0
   12.2337   10.2066   -2.5807 H   0  0  0  0  0  0  0  0  0  0  0  0
   10.9943    8.1247   -6.3800 N   0  0  0  0  0  0  0  0  0  0  0  0
   11.1410    9.1492   -7.2371 C   0  0  0  0  0  0  0  0  0  0  0  0
   10.6506    8.7789   -8.4867 C   0  0  0  0  0  0  0  0  0  0  0  0
   10.6284    9.3844   -9.3815 H   0  0  0  0  0  0  0  0  0  0  0  0
   10.1968    7.4916   -8.3703 C   0  0  0  0  0  0  0  0  0  0  0  0
    9.6173    6.6325   -9.2786 C   0  0  0  0  0  0  0  0  0  0  0  0
    9.3654    6.9682  -10.6288 N   0  0  0  0  0  0  0  0  0  0  0  0
    9.2823    5.4112   -8.8276 N   0  0  0  0  0  0  0  0  0  0  0  0
    9.5000    5.0508   -7.5659 C   0  0  0  0  0  0  0  0  0  0  0  0
   10.0636    5.8753   -6.6674 N   0  0  0  0  0  0  0  0  0  0  0  0
   10.4212    7.1179   -7.0665 C   0  0  0  0  0  0  0  0  0  0  0  0
   11.5596   10.1160   -7.0476 H   0  0  0  0  0  0  0  0  0  0  0  0
    9.9556    7.6616  -11.1439 H   0  0  0  0  0  0  0  0  0  0  0  0
    8.5812    6.5382  -11.1657 H   0  0  0  0  0  0  0  0  0  0  0  0
    9.2218    4.0549   -7.2156 H   0  0  0  0  0  0  0  0  0  0  0  0
  1  6  2  0
  2  1  1  0
  3  4  1  0
  3  2  2  0
  4  5  2  0
  5  6  1  0
  1  7  1  0
  2  8  1  0
  5  9  1  0
 10 11  1  0
 11 12  2  0
 12 13  1  0
 12 14  1  0
 14 15  2  0
 15 16  1  0
 15 17  1  0
 17 18  2  0
 18 19  1  0
 19 20  2  0
 20 10  1  0
 20 14  1  0
 11 21  1  0
 16 22  1  0
 16 23  1  0
 18 24  1  0
  3 10  1  0
M  END
>  <Score>  (1) 
-7.46543

$$$$

     RDKit          3D

 27 28  0  0  0  0  0  0  0  0999 V2000
   11.8110    6.9286   -2.9694 C   0  0  0  0  0  0  0  0  0  0  0  0
   11.4358    6.8779   -4.3242 C   0  0  0  0  0  0  0  0  0  0  0  0
   11.3604    8.0933   -5.0296 C   0  0  0  0  0  0  0  0  0  0  0  0
   11.6538    9.2428   -4.3621 N   0  0  0  0  0  0  0  0  0  0  0  0
   12.0121    9.2518   -3.0543 C   0  0  0  0  0  0  0  0  0  0  0  0
   12.0890    8.1016   -2.3665 N   0  0  0  0  0  0  0  0  0  0  0  0
   11.8707    6.0004   -2.4229 H   0  0  0  0  0  0  0  0  0  0  0  0
   11.2125    5.9514   -4.8138 H   0  0  0  0  0  0  0  0  0  0  0  0
   12.2297   10.2208   -2.6003 H   0  0  0  0  0  0  0  0  0  0  0  0
   10.9786    8.1306   -6.4395 C   0  0  2  0  0  0  0  0  0  0  0  0
   11.9627    7.7093   -7.3130 O   0  0  0  0  0  0  0  0  0  0  0  0
   11.3631    7.9291   -8.5523 C   0  0  2  0  0  0  0  0  0  0  0  0
   12.3574    7.8815   -9.6862 C   0  0  0  0  0  0  0  0  0  0  0  0
   12.9965    6.6652   -9.7729 O   0  0  0  0  0  0  0  0  0  0  0  0
   10.8844    9.3632   -8.4354 C   0  0  1  0  0  0  0  0  0  0  0  0
    9.7575    9.5973   -9.1935 O   0  0  0  0  0  0  0  0  0  0  0  0
   10.6235    9.5041   -6.9442 C   0  0  1  0  0  0  0  0  0  0  0  0
    9.3054    9.8146   -6.6640 O   0  0  0  0  0  0  0  0  0  0  0  0
   10.0933    7.4850   -6.5917 H   0  0  0  0  0  0  0  0  0  0  0  0
   10.5186    7.2415   -8.6840 H   0  0  0  0  0  0  0  0  0  0  0  0
   13.0494    8.7288   -9.5807 H   0  0  0  0  0  0  0  0  0  0  0  0
   11.7862    8.0487  -10.6210 H   0  0  0  0  0  0  0  0  0  0  0  0
   13.9722    6.7486   -9.5479 H   0  0  0  0  0  0  0  0  0  0  0  0
   11.7182   10.0185   -8.7412 H   0  0  0  0  0  0  0  0  0  0  0  0
    8.9219    9.6560   -8.6846 H   0  0  0  0  0  0  0  0  0  0  0  0
   11.2827   10.2547   -6.4732 H   0  0  0  0  0  0  0  0  0  0  0  0
    8.8445    8.9438   -6.4485 H   0  0  0  0  0  0  0  0  0  0  0  0
  1  6  2  0
  2  1  1  0
  3  4  1  0
  3  2  2  0
  4  5  2  0
  5  6  1  0
  1  7  1  0
  2  8  1  0
  5  9  1  0
 10 11  1  0
 11 12  1  0
 12 13  1  0
 13 14  1  0
 12 15  1  0
 15 16  1  0
 15 17  1  0
 17 18  1  0
 17 10  1  0
 10 19  1  1
 12 20  1  6
 13 21  1  0
 13 22  1  0
 14 23  1  0
 15 24  1  6
 16 25  1  0
 17 26  1  1
 18 27  1  0
  3 10  1  0
M  END
>  <Score>  (1) 
-7.45845

$$$$

     RDKit          3D

 25 26  0  0  0  0  0  0  0  0999 V2000
   11.8119    6.9304   -2.9665 C   0  0  0  0  0  0  0  0  0  0  0  0
   11.4351    6.8798   -4.3272 C   0  0  0  0  0  0  0  0  0  0  0  0
   11.3601    8.0899   -5.0292 C   0  0  0  0  0  0  0  0  0  0  0  0
   11.6546    9.2443   -4.3597 N   0  0  0  0  0  0  0  0  0  0  0  0
   12.0115    9.2535   -3.0569 C   0  0  0  0  0  0  0  0  0  0  0  0
   12.0887    8.0981   -2.3664 N   0  0  0  0  0  0  0  0  0  0  0  0
   11.8824    6.0343   -2.3923 H   0  0  0  0  0  0  0  0  0  0  0  0
   11.2116    5.9630   -4.8212 H   0  0  0  0  0  0  0  0  0  0  0  0
   12.2356   10.1882   -2.5672 H   0  0  0  0  0  0  0  0  0  0  0  0
   10.6104    5.9099  -10.1847 H   0  0  0  0  0  0  0  0  0  0  0  0
   11.2050    6.3501   -9.4209 C   0  0  0  0  0  0  0  0  0  0  0  0
   12.3664    6.6613   -9.6223 O   0  0  0  0  0  0  0  0  0  0  0  0
   10.6609    6.6133   -8.0647 C   0  0  1  0  0  0  0  0  0  0  0  0
   11.5804    7.1832   -7.2253 O   0  0  0  0  0  0  0  0  0  0  0  0
   10.9777    8.1203   -6.4392 C   0  0  1  0  0  0  0  0  0  0  0  0
    9.4740    8.0016   -6.6424 C   0  0  1  0  0  0  0  0  0  0  0  0
    8.8124    9.1910   -6.4508 O   0  0  0  0  0  0  0  0  0  0  0  0
    9.4803    7.5767   -8.1192 C   0  0  1  0  0  0  0  0  0  0  0  0
    9.8787    8.6735   -8.8447 O   0  0  0  0  0  0  0  0  0  0  0  0
   10.2729    5.6676   -7.5896 H   0  0  0  0  0  0  0  0  0  0  0  0
   11.2491    9.1314   -6.8559 H   0  0  0  0  0  0  0  0  0  0  0  0
    9.1150    7.1765   -6.0001 H   0  0  0  0  0  0  0  0  0  0  0  0
    8.2681    9.0966   -5.6064 H   0  0  0  0  0  0  0  0  0  0  0  0
    8.5537    7.1112   -8.4257 H   0  0  0  0  0  0  0  0  0  0  0  0
    9.2261    9.0275   -9.4671 H   0  0  0  0  0  0  0  0  0  0  0  0
  1  6  2  0
  2  1  1  0
  3  4  1  0
  3  2  2  0
  4  5  2  0
  5  6  1  0
  1  7  1  0
  2  8  1  0
  5  9  1  0
 10 11  1  0
 11 12  2  0
 11 13  1  0
 13 14  1  0
 14 15  1  0
 15 16  1  0
 16 17  1  0
 16 18  1  0
 18 19  1  0
 18 13  1  0
 13 20  1  1
 15 21  1  6
 16 22  1  1
 17 23  1  0
 18 24  1  6
 19 25  1  0
  3 15  1  0
M  END
>  <Score>  (1) 
-7.4434

$$$$

     RDKit          3D

 32 33  0  0  0  0  0  0  0  0999 V2000
   11.8111    6.9286   -2.9691 C   0  0  0  0  0  0  0  0  0  0  0  0
   11.4357    6.8792   -4.3250 C   0  0  0  0  0  0  0  0  0  0  0  0
   11.3604    8.0918   -5.0289 C   0  0  0  0  0  0  0  0  0  0  0  0
   11.6539    9.2432   -4.3616 N   0  0  0  0  0  0  0  0  0  0  0  0
   12.0119    9.2523   -3.0552 C   0  0  0  0  0  0  0  0  0  0  0  0
   12.0890    8.1009   -2.3661 N   0  0  0  0  0  0  0  0  0  0  0  0
   11.8744    6.0104   -2.4129 H   0  0  0  0  0  0  0  0  0  0  0  0
   11.2101    5.9721   -4.8301 H   0  0  0  0  0  0  0  0  0  0  0  0
   12.2371   10.1956   -2.5646 H   0  0  0  0  0  0  0  0  0  0  0  0
   11.0126    8.1899   -6.3360 O   0  0  0  0  0  0  0  0  0  0  0  0
    9.9659    7.5546   -6.9921 C   0  0  2  0  0  0  0  0  0  0  0  0
   10.5070    6.7588   -8.0175 O   0  0  0  0  0  0  0  0  0  0  0  0
    9.6815    6.7372   -9.1412 C   0  0  2  0  0  0  0  0  0  0  0  0
   10.0839    5.5257   -9.9553 C   0  0  0  0  0  0  0  0  0  0  0  0
    9.3330    5.3881  -11.1088 O   0  0  0  0  0  0  0  0  0  0  0  0
    9.9624    8.0277   -9.9013 C   0  0  1  0  0  0  0  0  0  0  0  0
    9.1907    8.1465  -11.0325 O   0  0  0  0  0  0  0  0  0  0  0  0
    9.7347    9.1580   -8.9076 C   0  0  1  0  0  0  0  0  0  0  0  0
    8.8676   10.1195   -9.4222 O   0  0  0  0  0  0  0  0  0  0  0  0
    9.0988    8.6433   -7.6274 C   0  0  2  0  0  0  0  0  0  0  0  0
    9.0819    9.7375   -6.7411 O   0  0  0  0  0  0  0  0  0  0  0  0
    9.3471    6.8954   -6.3809 H   0  0  0  0  0  0  0  0  0  0  0  0
    8.6130    6.6676   -8.8923 H   0  0  0  0  0  0  0  0  0  0  0  0
    9.8846    4.6394   -9.3180 H   0  0  0  0  0  0  0  0  0  0  0  0
   11.1430    5.5581  -10.2256 H   0  0  0  0  0  0  0  0  0  0  0  0
    8.4017    5.0861  -10.9303 H   0  0  0  0  0  0  0  0  0  0  0  0
   11.0440    7.9854  -10.1759 H   0  0  0  0  0  0  0  0  0  0  0  0
    9.6686    7.6608  -11.7652 H   0  0  0  0  0  0  0  0  0  0  0  0
   10.6933    9.6600   -8.6309 H   0  0  0  0  0  0  0  0  0  0  0  0
    8.5797   10.6844   -8.6628 H   0  0  0  0  0  0  0  0  0  0  0  0
    8.0627    8.3275   -7.7598 H   0  0  0  0  0  0  0  0  0  0  0  0
    9.2223    9.4331   -5.8094 H   0  0  0  0  0  0  0  0  0  0  0  0
  1  6  2  0
  2  1  1  0
  3  4  1  0
  3  2  2  0
  4  5  2  0
  5  6  1  0
  1  7  1  0
  2  8  1  0
  5  9  1  0
 10 11  1  0
 11 12  1  0
 12 13  1  0
 13 14  1  0
 14 15  1  0
 13 16  1  0
 16 17  1  0
 16 18  1  0
 18 19  1  0
 18 20  1  0
 20 21  1  0
 20 11  1  0
 11 22  1  1
 13 23  1  1
 14 24  1  0
 14 25  1  0
 15 26  1  0
 16 27  1  6
 17 28  1  0
 18 29  1  1
 19 30  1  0
 20 31  1  6
 21 32  1  0
  3 10  1  0
M  END
>  <Score>  (1) 
-7.44088

$$$$

     RDKit          3D

 20 21  0  0  0  0  0  0  0  0999 V2000
   12.3033    8.1234   -2.2996 C   0  0  0  0  0  0  0  0  0  0  0  0
   12.0203    6.8835   -2.9159 C   0  0  0  0  0  0  0  0  0  0  0  0
   11.5251    6.9007   -4.2234 C   0  0  0  0  0  0  0  0  0  0  0  0
   11.3419    8.1057   -4.8324 N   0  0  0  0  0  0  0  0  0  0  0  0
   11.6250    9.2767   -4.2084 C   0  0  0  0  0  0  0  0  0  0  0  0
   12.0994    9.2810   -2.9582 N   0  0  0  0  0  0  0  0  0  0  0  0
   12.6890    8.1192   -1.2822 H   0  0  0  0  0  0  0  0  0  0  0  0
   12.1872    5.9689   -2.3804 H   0  0  0  0  0  0  0  0  0  0  0  0
   11.3120    5.9595   -4.6866 H   0  0  0  0  0  0  0  0  0  0  0  0
   11.4054   10.5312   -4.9186 C   0  0  0  0  0  0  0  0  0  0  0  0
   12.0717   10.7886   -6.0977 C   0  0  0  0  0  0  0  0  0  0  0  0
   11.9025   11.9508   -6.8055 C   0  0  0  0  0  0  0  0  0  0  0  0
   12.5855   12.1247   -7.9402 F   0  0  0  0  0  0  0  0  0  0  0  0
   11.0240   12.9061   -6.3129 C   0  0  0  0  0  0  0  0  0  0  0  0
   10.3415   12.6788   -5.1348 C   0  0  0  0  0  0  0  0  0  0  0  0
    9.4997   13.6507   -4.7095 F   0  0  0  0  0  0  0  0  0  0  0  0
   10.5305   11.4867   -4.4317 C   0  0  0  0  0  0  0  0  0  0  0  0
   12.7552   10.0437   -6.4796 H   0  0  0  0  0  0  0  0  0  0  0  0
   10.8875   13.8325   -6.8746 H   0  0  0  0  0  0  0  0  0  0  0  0
    9.9812   11.3388   -3.5123 H   0  0  0  0  0  0  0  0  0  0  0  0
  2  1  2  0
  3  2  1  0
  4  3  2  0
  4  5  1  0
  5  6  2  0
  6  1  1  0
  1  7  1  0
  2  8  1  0
  3  9  1  0
 10 11  2  0
 11 12  1  0
 12 13  1  0
 12 14  2  0
 14 15  1  0
 15 16  1  0
 15 17  2  0
 17 10  1  0
 11 18  1  0
 14 19  1  0
 17 20  1  0
  5 10  1  0
M  END
>  <Score>  (1) 
-7.65389

$$$$

     RDKit          3D

 25 26  0  0  0  0  0  0  0  0999 V2000
   11.8116    6.9299   -2.9674 C   0  0  0  0  0  0  0  0  0  0  0  0
   11.4354    6.8790   -4.3261 C   0  0  0  0  0  0  0  0  0  0  0  0
   11.3602    8.0912   -5.0295 C   0  0  0  0  0  0  0  0  0  0  0  0
   11.6543    9.2439   -4.3606 N   0  0  0  0  0  0  0  0  0  0  0  0
   12.0117    9.2529   -3.0559 C   0  0  0  0  0  0  0  0  0  0  0  0
   12.0888    8.0992   -2.3665 N   0  0  0  0  0  0  0  0  0  0  0  0
   11.8636    5.9923   -2.4461 H   0  0  0  0  0  0  0  0  0  0  0  0
   11.2129    5.9489   -4.8115 H   0  0  0  0  0  0  0  0  0  0  0  0
   12.2309   10.2070   -2.5913 H   0  0  0  0  0  0  0  0  0  0  0  0
   10.4312   12.3337   -7.5325 H   0  0  0  0  0  0  0  0  0  0  0  0
   10.9967   11.4313   -7.7264 C   0  0  0  0  0  0  0  0  0  0  0  0
   11.7568   11.4481   -8.6774 O   0  0  0  0  0  0  0  0  0  0  0  0
   10.7894   10.2768   -6.8214 C   0  0  2  0  0  0  0  0  0  0  0  0
   11.5500    9.1833   -7.1496 O   0  0  0  0  0  0  0  0  0  0  0  0
   10.9729    8.1292   -6.4600 C   0  0  2  0  0  0  0  0  0  0  0  0
    9.4672    8.3619   -6.5233 C   0  0  2  0  0  0  0  0  0  0  0  0
    8.8225    7.4401   -7.3134 O   0  0  0  0  0  0  0  0  0  0  0  0
    9.3776    9.7718   -7.0274 C   0  0  2  0  0  0  0  0  0  0  0  0
    9.1210    9.8214   -8.4044 O   0  0  0  0  0  0  0  0  0  0  0  0
   10.9813   10.5918   -5.7779 H   0  0  0  0  0  0  0  0  0  0  0  0
   11.2027    7.1391   -6.9265 H   0  0  0  0  0  0  0  0  0  0  0  0
    9.0085    8.3439   -5.5084 H   0  0  0  0  0  0  0  0  0  0  0  0
    7.8619    7.5305   -7.1726 H   0  0  0  0  0  0  0  0  0  0  0  0
    8.6807   10.4107   -6.4851 H   0  0  0  0  0  0  0  0  0  0  0  0
    9.5075    9.0410   -8.8543 H   0  0  0  0  0  0  0  0  0  0  0  0
  1  6  2  0
  2  1  1  0
  3  4  1  0
  3  2  2  0
  4  5  2  0
  5  6  1  0
  1  7  1  0
  2  8  1  0
  5  9  1  0
 10 11  1  0
 11 12  2  0
 11 13  1  0
 13 14  1  0
 14 15  1  0
 15 16  1  0
 16 17  1  0
 16 18  1  0
 18 19  1  0
 18 13  1  0
 13 20  1  1
 15 21  1  6
 16 22  1  1
 17 23  1  0
 18 24  1  1
 19 25  1  0
  3 15  1  0
M  END
>  <Score>  (1) 
-7.44073

$$$$

     RDKit          3D

 24 26  0  0  0  0  0  0  0  0999 V2000
   11.8113    6.9364   -2.9710 C   0  0  0  0  0  0  0  0  0  0  0  0
   11.4364    6.8876   -4.3254 C   0  0  0  0  0  0  0  0  0  0  0  0
   11.3575    8.0833   -5.0364 C   0  0  0  0  0  0  0  0  0  0  0  0
   11.6561    9.2378   -4.3517 N   0  0  0  0  0  0  0  0  0  0  0  0
   12.0113    9.2536   -3.0576 C   0  0  0  0  0  0  0  0  0  0  0  0
   12.0893    8.0972   -2.3639 N   0  0  0  0  0  0  0  0  0  0  0  0
   11.8600    5.9897   -2.4585 H   0  0  0  0  0  0  0  0  0  0  0  0
   11.2317    5.9308   -4.7363 H   0  0  0  0  0  0  0  0  0  0  0  0
   12.2372   10.1964   -2.5645 H   0  0  0  0  0  0  0  0  0  0  0  0
   10.9799    8.1051   -6.4259 C   0  0  0  0  0  0  0  0  0  0  0  0
   11.1966    9.2224   -7.1914 C   0  0  0  0  0  0  0  0  0  0  0  0
   10.8426    9.2685   -8.5296 C   0  0  0  0  0  0  0  0  0  0  0  0
   10.2588    8.1569   -9.0937 C   0  0  0  0  0  0  0  0  0  0  0  0
   10.0278    7.0211   -8.3541 C   0  0  0  0  0  0  0  0  0  0  0  0
    9.4794    5.8388   -8.6929 N   0  0  0  0  0  0  0  0  0  0  0  0
    9.4746    5.0467   -7.6143 C   0  0  0  0  0  0  0  0  0  0  0  0
   10.0418    5.7608   -6.5599 C   0  0  0  0  0  0  0  0  0  0  0  0
   10.3933    7.0020   -7.0117 C   0  0  0  0  0  0  0  0  0  0  0  0
   11.6570   10.1393   -6.8025 H   0  0  0  0  0  0  0  0  0  0  0  0
   11.0355   10.1763   -9.0908 H   0  0  0  0  0  0  0  0  0  0  0  0
    9.9821    8.1908  -10.1369 H   0  0  0  0  0  0  0  0  0  0  0  0
    9.1190    5.5808   -9.6332 H   0  0  0  0  0  0  0  0  0  0  0  0
    9.1153    4.0398   -7.5148 H   0  0  0  0  0  0  0  0  0  0  0  0
   10.1639    5.3586   -5.5642 H   0  0  0  0  0  0  0  0  0  0  0  0
  1  6  2  0
  2  1  1  0
  3  4  1  0
  3  2  2  0
  4  5  2  0
  5  6  1  0
  1  7  1  0
  2  8  1  0
  5  9  1  0
 10 11  2  0
 11 12  1  0
 12 13  2  0
 13 14  1  0
 14 15  1  0
 15 16  1  0
 16 17  2  0
 17 18  1  0
 18 10  1  0
 18 14  2  0
 11 19  1  0
 12 20  1  0
 13 21  1  0
 15 22  1  0
 16 23  1  0
 17 24  1  0
  3 10  1  0
M  END
>  <Score>  (1) 
-7.44052

$$$$

     RDKit          3D

 28 29  0  0  0  0  0  0  0  0999 V2000
   11.8123    6.9298   -2.9649 C   0  0  0  0  0  0  0  0  0  0  0  0
   11.4349    6.8866   -4.3305 C   0  0  0  0  0  0  0  0  0  0  0  0
   11.3597    8.0854   -5.0292 C   0  0  0  0  0  0  0  0  0  0  0  0
   11.6547    9.2421   -4.3584 N   0  0  0  0  0  0  0  0  0  0  0  0
   12.0114    9.2546   -3.0578 C   0  0  0  0  0  0  0  0  0  0  0  0
   12.0889    8.0975   -2.3653 N   0  0  0  0  0  0  0  0  0  0  0  0
   11.8855    6.0408   -2.3830 H   0  0  0  0  0  0  0  0  0  0  0  0
   11.2196    5.9481   -4.7868 H   0  0  0  0  0  0  0  0  0  0  0  0
   12.2456   10.1526   -2.5180 H   0  0  0  0  0  0  0  0  0  0  0  0
   10.9808    8.1412   -6.4351 C   0  0  0  0  0  0  0  0  0  0  0  0
    9.6765    8.2768   -6.8436 C   0  0  0  0  0  0  0  0  0  0  0  0
    9.3129    8.3301   -8.1771 C   0  0  0  0  0  0  0  0  0  0  0  0
   10.2938    8.2443   -9.1415 C   0  0  0  0  0  0  0  0  0  0  0  0
    9.9172    8.2989  -10.4800 O   0  0  0  0  0  0  0  0  0  0  0  0
    8.5527    8.4395  -10.8052 C   0  0  0  0  0  0  0  0  0  0  0  0
   11.6285    8.1062   -8.7773 C   0  0  0  0  0  0  0  0  0  0  0  0
   12.5847    8.0233   -9.7772 O   0  0  0  0  0  0  0  0  0  0  0  0
   13.9651    7.8819   -9.5053 C   0  0  0  0  0  0  0  0  0  0  0  0
   11.9234    8.0597   -7.4365 C   0  0  0  0  0  0  0  0  0  0  0  0
    8.8681    8.3487   -6.1379 H   0  0  0  0  0  0  0  0  0  0  0  0
    8.2683    8.4384   -8.4821 H   0  0  0  0  0  0  0  0  0  0  0  0
    8.3886    8.5113  -11.8949 H   0  0  0  0  0  0  0  0  0  0  0  0
    8.1712    9.3794  -10.3173 H   0  0  0  0  0  0  0  0  0  0  0  0
    8.0042    7.5803  -10.3419 H   0  0  0  0  0  0  0  0  0  0  0  0
   14.1872    6.7968   -9.4599 H   0  0  0  0  0  0  0  0  0  0  0  0
   14.2816    8.4293   -8.5908 H   0  0  0  0  0  0  0  0  0  0  0  0
   14.5798    8.2842  -10.3564 H   0  0  0  0  0  0  0  0  0  0  0  0
   12.9570    7.9522   -7.1162 H   0  0  0  0  0  0  0  0  0  0  0  0
  1  6  2  0
  2  1  1  0
  3  4  1  0
  3  2  2  0
  4  5  2  0
  5  6  1  0
  1  7  1  0
  2  8  1  0
  5  9  1  0
 10 11  2  0
 11 12  1  0
 12 13  2  0
 13 14  1  0
 14 15  1  0
 13 16  1  0
 16 17  1  0
 17 18  1  0
 16 19  2  0
 19 10  1  0
 11 20  1  0
 12 21  1  0
 15 22  1  0
 15 23  1  0
 15 24  1  0
 18 25  1  0
 18 26  1  0
 18 27  1  0
 19 28  1  0
  3 10  1  0
M  END
>  <Score>  (1) 
-7.43928

$$$$

     RDKit          3D

 29 31  0  0  0  0  0  0  0  0999 V2000
   11.8111    6.9264   -2.9683 C   0  0  0  0  0  0  0  0  0  0  0  0
   11.4364    6.8860   -4.3246 C   0  0  0  0  0  0  0  0  0  0  0  0
   11.3590    8.0910   -5.0339 C   0  0  0  0  0  0  0  0  0  0  0  0
   11.6546    9.2375   -4.3571 N   0  0  0  0  0  0  0  0  0  0  0  0
   12.0114    9.2524   -3.0570 C   0  0  0  0  0  0  0  0  0  0  0  0
   12.0895    8.1028   -2.3651 N   0  0  0  0  0  0  0  0  0  0  0  0
   11.8659    5.9831   -2.4345 H   0  0  0  0  0  0  0  0  0  0  0  0
   11.2121    5.9708   -4.8128 H   0  0  0  0  0  0  0  0  0  0  0  0
   12.2368   10.1995   -2.5666 H   0  0  0  0  0  0  0  0  0  0  0  0
   11.0007    8.0427   -6.3978 N   0  0  0  0  0  0  0  0  0  0  0  0
   11.7340    8.8025   -7.3670 C   0  0  0  0  0  0  0  0  0  0  0  0
   11.0144    9.1188   -8.6343 C   0  0  0  0  0  0  0  0  0  0  0  0
    9.5301    8.8876   -8.5779 C   0  0  0  0  0  0  0  0  0  0  0  0
    9.1676    7.6424   -7.8847 C   0  0  0  0  0  0  0  0  0  0  0  0
    8.0992    6.8529   -8.2842 C   0  0  0  0  0  0  0  0  0  0  0  0
    7.7879    5.6884   -7.6202 C   0  0  0  0  0  0  0  0  0  0  0  0
    8.5325    5.2782   -6.5398 C   0  0  0  0  0  0  0  0  0  0  0  0
    9.6054    6.0598   -6.1295 C   0  0  0  0  0  0  0  0  0  0  0  0
    9.9012    7.2168   -6.8021 C   0  0  0  0  0  0  0  0  0  0  0  0
   12.0253    9.7668   -6.8526 H   0  0  0  0  0  0  0  0  0  0  0  0
   12.6863    8.2762   -7.5778 H   0  0  0  0  0  0  0  0  0  0  0  0
   11.4076    8.4838   -9.4702 H   0  0  0  0  0  0  0  0  0  0  0  0
   11.2111   10.1745   -8.9105 H   0  0  0  0  0  0  0  0  0  0  0  0
    9.0402    9.7251   -8.0386 H   0  0  0  0  0  0  0  0  0  0  0  0
    9.0793    8.8663   -9.5907 H   0  0  0  0  0  0  0  0  0  0  0  0
    7.5032    7.1716   -9.1409 H   0  0  0  0  0  0  0  0  0  0  0  0
    6.9604    5.0801   -7.9320 H   0  0  0  0  0  0  0  0  0  0  0  0
    8.3385    4.3760   -5.9788 H   0  0  0  0  0  0  0  0  0  0  0  0
   10.2044    5.7653   -5.2965 H   0  0  0  0  0  0  0  0  0  0  0  0
  1  6  2  0
  2  1  1  0
  3  4  1  0
  3  2  2  0
  4  5  2  0
  5  6  1  0
  1  7  1  0
  2  8  1  0
  5  9  1  0
 10 11  1  0
 11 12  1  0
 12 13  1  0
 13 14  1  0
 14 15  2  0
 15 16  1  0
 16 17  2  0
 17 18  1  0
 18 19  2  0
 19 10  1  0
 19 14  1  0
 11 20  1  0
 11 21  1  0
 12 22  1  0
 12 23  1  0
 13 24  1  0
 13 25  1  0
 15 26  1  0
 16 27  1  0
 17 28  1  0
 18 29  1  0
  3 10  1  0
M  END
>  <Score>  (1) 
-7.43425

$$$$

     RDKit          3D

 31 32  0  0  0  0  0  0  0  0999 V2000
   11.8119    6.9297   -2.9662 C   0  0  0  0  0  0  0  0  0  0  0  0
   11.4348    6.8827   -4.3294 C   0  0  0  0  0  0  0  0  0  0  0  0
   11.3603    8.0872   -5.0274 C   0  0  0  0  0  0  0  0  0  0  0  0
   11.6543    9.2443   -4.3609 N   0  0  0  0  0  0  0  0  0  0  0  0
   12.0118    9.2534   -3.0560 C   0  0  0  0  0  0  0  0  0  0  0  0
   12.0888    8.0988   -2.3661 N   0  0  0  0  0  0  0  0  0  0  0  0
   11.8720    5.9971   -2.4169 H   0  0  0  0  0  0  0  0  0  0  0  0
   11.2108    5.9725   -4.8275 H   0  0  0  0  0  0  0  0  0  0  0  0
   12.2228   10.2237   -2.6267 H   0  0  0  0  0  0  0  0  0  0  0  0
   10.9700    8.1063   -6.4623 C   0  0  1  0  0  0  0  0  0  0  0  0
   11.3862    6.9171   -7.0204 O   0  0  0  0  0  0  0  0  0  0  0  0
   10.6391    6.4766   -8.0782 C   0  0  2  0  0  0  0  0  0  0  0  0
   11.4334    5.5958   -9.0076 C   0  0  0  0  0  0  0  0  0  0  0  0
   10.6487    5.1621  -10.0734 O   0  0  0  0  0  0  0  0  0  0  0  0
   10.0824    7.6900   -8.7896 C   0  0  1  0  0  0  0  0  0  0  0  0
    9.6423    7.3907  -10.0715 O   0  0  0  0  0  0  0  0  0  0  0  0
    8.9208    8.1640   -7.9065 C   0  0  1  0  0  0  0  0  0  0  0  0
    8.0262    7.0727   -7.8625 O   0  0  0  0  0  0  0  0  0  0  0  0
    9.4821    8.3180   -6.5192 C   0  0  1  0  0  0  0  0  0  0  0  0
    8.7925    7.5689   -5.5685 O   0  0  0  0  0  0  0  0  0  0  0  0
   11.4432    8.9953   -6.9274 H   0  0  0  0  0  0  0  0  0  0  0  0
    9.8092    5.8433   -7.6758 H   0  0  0  0  0  0  0  0  0  0  0  0
   11.9034    4.7450   -8.4778 H   0  0  0  0  0  0  0  0  0  0  0  0
   12.2302    6.2519   -9.4542 H   0  0  0  0  0  0  0  0  0  0  0  0
    9.9011    4.5980   -9.7022 H   0  0  0  0  0  0  0  0  0  0  0  0
   10.8151    8.5202   -8.8091 H   0  0  0  0  0  0  0  0  0  0  0  0
   10.4424    7.4254  -10.6599 H   0  0  0  0  0  0  0  0  0  0  0  0
    8.4411    9.0579   -8.2993 H   0  0  0  0  0  0  0  0  0  0  0  0
    7.7165    6.8358   -8.7709 H   0  0  0  0  0  0  0  0  0  0  0  0
    9.3076    9.3963   -6.2313 H   0  0  0  0  0  0  0  0  0  0  0  0
    9.0438    6.6285   -5.5409 H   0  0  0  0  0  0  0  0  0  0  0  0
  1  6  2  0
  2  1  1  0
  3  4  1  0
  3  2  2  0
  4  5  2  0
  5  6  1  0
  1  7  1  0
  2  8  1  0
  5  9  1  0
 10 11  1  0
 11 12  1  0
 12 13  1  0
 13 14  1  0
 12 15  1  0
 15 16  1  0
 15 17  1  0
 17 18  1  0
 17 19  1  0
 19 20  1  0
 19 10  1  0
 10 21  1  6
 12 22  1  1
 13 23  1  0
 13 24  1  0
 14 25  1  0
 15 26  1  6
 16 27  1  0
 17 28  1  6
 18 29  1  0
 19 30  1  1
 20 31  1  0
  3 10  1  0
M  END
>  <Score>  (1) 
-7.43257

$$$$

     RDKit          3D

 32 33  0  0  0  0  0  0  0  0999 V2000
   11.8125    6.9311   -2.9647 C   0  0  0  0  0  0  0  0  0  0  0  0
   11.4347    6.8817   -4.3297 C   0  0  0  0  0  0  0  0  0  0  0  0
   11.3598    8.0864   -5.0293 C   0  0  0  0  0  0  0  0  0  0  0  0
   11.6555    9.2461   -4.3570 N   0  0  0  0  0  0  0  0  0  0  0  0
   12.0110    9.2541   -3.0592 C   0  0  0  0  0  0  0  0  0  0  0  0
   12.0886    8.0967   -2.3661 N   0  0  0  0  0  0  0  0  0  0  0  0
   11.8723    6.0046   -2.4184 H   0  0  0  0  0  0  0  0  0  0  0  0
   11.2150    5.9404   -4.8010 H   0  0  0  0  0  0  0  0  0  0  0  0
   12.2402   10.1931   -2.5522 H   0  0  0  0  0  0  0  0  0  0  0  0
   11.0000    8.0924   -6.3476 O   0  0  0  0  0  0  0  0  0  0  0  0
   11.9116    8.6156   -7.3057 C   0  0  1  0  0  0  0  0  0  0  0  0
   12.2079    7.6162   -8.1960 O   0  0  0  0  0  0  0  0  0  0  0  0
   11.7359    7.9079   -9.4557 C   0  0  2  0  0  0  0  0  0  0  0  0
   11.8052    6.7341  -10.3988 C   0  0  0  0  0  0  0  0  0  0  0  0
   13.0780    6.2517  -10.5929 O   0  0  0  0  0  0  0  0  0  0  0  0
   12.4831    9.1067   -9.9814 C   0  0  1  0  0  0  0  0  0  0  0  0
   12.3150    9.3086  -11.3367 O   0  0  0  0  0  0  0  0  0  0  0  0
   11.9867   10.3077   -9.1622 C   0  0  1  0  0  0  0  0  0  0  0  0
   11.0611   10.9739   -9.9437 O   0  0  0  0  0  0  0  0  0  0  0  0
   11.2704    9.8245   -7.9217 C   0  0  2  0  0  0  0  0  0  0  0  0
   11.3841   10.8691   -6.9758 O   0  0  0  0  0  0  0  0  0  0  0  0
   12.8584    8.9713   -6.8044 H   0  0  0  0  0  0  0  0  0  0  0  0
   10.6657    8.1816   -9.3597 H   0  0  0  0  0  0  0  0  0  0  0  0
   11.1389    5.9351  -10.0344 H   0  0  0  0  0  0  0  0  0  0  0  0
   11.3808    7.0688  -11.3744 H   0  0  0  0  0  0  0  0  0  0  0  0
   13.7451    6.9710  -10.6924 H   0  0  0  0  0  0  0  0  0  0  0  0
   13.5711    8.9836   -9.7033 H   0  0  0  0  0  0  0  0  0  0  0  0
   13.1595    9.7533  -11.6638 H   0  0  0  0  0  0  0  0  0  0  0  0
   12.8388   10.9438   -8.8600 H   0  0  0  0  0  0  0  0  0  0  0  0
   10.7976   10.4849  -10.7482 H   0  0  0  0  0  0  0  0  0  0  0  0
   10.1766    9.6990   -8.0815 H   0  0  0  0  0  0  0  0  0  0  0  0
   10.6669   11.5407   -7.1037 H   0  0  0  0  0  0  0  0  0  0  0  0
  1  6  2  0
  2  1  1  0
  3  4  1  0
  3  2  2  0
  4  5  2  0
  5  6  1  0
  1  7  1  0
  2  8  1  0
  5  9  1  0
 10 11  1  0
 11 12  1  0
 12 13  1  0
 13 14  1  0
 14 15  1  0
 13 16  1  0
 16 17  1  0
 16 18  1  0
 18 19  1  0
 18 20  1  0
 20 21  1  0
 20 11  1  0
 11 22  1  1
 13 23  1  1
 14 24  1  0
 14 25  1  0
 15 26  1  0
 16 27  1  6
 17 28  1  0
 18 29  1  1
 19 30  1  0
 20 31  1  6
 21 32  1  0
  3 10  1  0
M  END
>  <Score>  (1) 
-7.42074

$$$$

     RDKit          3D

 32 33  0  0  0  0  0  0  0  0999 V2000
   11.8112    6.9286   -2.9685 C   0  0  0  0  0  0  0  0  0  0  0  0
   11.4354    6.8789   -4.3258 C   0  0  0  0  0  0  0  0  0  0  0  0
   11.3604    8.0918   -5.0290 C   0  0  0  0  0  0  0  0  0  0  0  0
   11.6541    9.2435   -4.3611 N   0  0  0  0  0  0  0  0  0  0  0  0
   12.0118    9.2514   -3.0552 C   0  0  0  0  0  0  0  0  0  0  0  0
   12.0891    8.1018   -2.3663 N   0  0  0  0  0  0  0  0  0  0  0  0
   11.8778    6.0168   -2.4027 H   0  0  0  0  0  0  0  0  0  0  0  0
   11.2171    5.9523   -4.7973 H   0  0  0  0  0  0  0  0  0  0  0  0
   12.2354   10.1908   -2.5688 H   0  0  0  0  0  0  0  0  0  0  0  0
   10.9965    8.0471   -6.3447 O   0  0  0  0  0  0  0  0  0  0  0  0
   11.7506    7.3277   -7.3002 C   0  0  2  0  0  0  0  0  0  0  0  0
   12.1883    8.2364   -8.2483 O   0  0  0  0  0  0  0  0  0  0  0  0
   12.8061    7.6786   -9.3304 C   0  0  1  0  0  0  0  0  0  0  0  0
   14.2311    7.2543   -9.0600 C   0  0  0  0  0  0  0  0  0  0  0  0
   14.8094    6.6933  -10.1976 O   0  0  0  0  0  0  0  0  0  0  0  0
   12.0054    6.5655   -9.9759 C   0  0  2  0  0  0  0  0  0  0  0  0
   11.9407    6.6951  -11.3587 O   0  0  0  0  0  0  0  0  0  0  0  0
   10.6232    6.6376   -9.3426 C   0  0  1  0  0  0  0  0  0  0  0  0
    9.7216    5.7865   -9.9518 O   0  0  0  0  0  0  0  0  0  0  0  0
   10.8446    6.2673   -7.8754 C   0  0  2  0  0  0  0  0  0  0  0  0
    9.6649    6.1143   -7.1881 O   0  0  0  0  0  0  0  0  0  0  0  0
   12.6063    6.8670   -6.7711 H   0  0  0  0  0  0  0  0  0  0  0  0
   12.8771    8.4862  -10.1183 H   0  0  0  0  0  0  0  0  0  0  0  0
   14.8341    8.1325   -8.7943 H   0  0  0  0  0  0  0  0  0  0  0  0
   14.2661    6.4660   -8.2744 H   0  0  0  0  0  0  0  0  0  0  0  0
   14.9173    5.7160  -10.1281 H   0  0  0  0  0  0  0  0  0  0  0  0
   12.4949    5.6071   -9.6725 H   0  0  0  0  0  0  0  0  0  0  0  0
   11.1090    7.1389  -11.6583 H   0  0  0  0  0  0  0  0  0  0  0  0
   10.2778    7.7041   -9.3330 H   0  0  0  0  0  0  0  0  0  0  0  0
    9.4727    6.2014  -10.8177 H   0  0  0  0  0  0  0  0  0  0  0  0
   11.4077    5.3121   -7.8924 H   0  0  0  0  0  0  0  0  0  0  0  0
    9.4409    6.9699   -6.7567 H   0  0  0  0  0  0  0  0  0  0  0  0
  1  6  2  0
  2  1  1  0
  3  4  1  0
  3  2  2  0
  4  5  2  0
  5  6  1  0
  1  7  1  0
  2  8  1  0
  5  9  1  0
 10 11  1  0
 11 12  1  0
 12 13  1  0
 13 14  1  0
 14 15  1  0
 13 16  1  0
 16 17  1  0
 16 18  1  0
 18 19  1  0
 18 20  1  0
 20 21  1  0
 20 11  1  0
 11 22  1  1
 13 23  1  6
 14 24  1  0
 14 25  1  0
 15 26  1  0
 16 27  1  6
 17 28  1  0
 18 29  1  1
 19 30  1  0
 20 31  1  6
 21 32  1  0
  3 10  1  0
M  END
>  <Score>  (1) 
-7.41912

$$$$

     RDKit          3D

 27 28  0  0  0  0  0  0  0  0999 V2000
   11.8122    6.9305   -2.9656 C   0  0  0  0  0  0  0  0  0  0  0  0
   11.4348    6.8808   -4.3288 C   0  0  0  0  0  0  0  0  0  0  0  0
   11.3602    8.0886   -5.0285 C   0  0  0  0  0  0  0  0  0  0  0  0
   11.6545    9.2446   -4.3600 N   0  0  0  0  0  0  0  0  0  0  0  0
   12.0116    9.2534   -3.0566 C   0  0  0  0  0  0  0  0  0  0  0  0
   12.0887    8.0981   -2.3665 N   0  0  0  0  0  0  0  0  0  0  0  0
   11.8633    5.9823   -2.4438 H   0  0  0  0  0  0  0  0  0  0  0  0
   11.2135    5.9610   -4.8137 H   0  0  0  0  0  0  0  0  0  0  0  0
   12.2318   10.2085   -2.5884 H   0  0  0  0  0  0  0  0  0  0  0  0
   10.9685    8.0961   -6.4641 C   0  0  2  0  0  0  0  0  0  0  0  0
   11.0181    6.6953   -6.9693 C   0  0  0  0  0  0  0  0  0  0  0  0
   11.0602    6.5455   -8.4443 C   0  0  0  0  0  0  0  0  0  0  0  0
   11.2013    7.8611   -9.1495 C   0  0  2  0  0  0  0  0  0  0  0  0
   11.4879    7.7336  -10.4885 O   0  0  0  0  0  0  0  0  0  0  0  0
   12.3993    8.5471   -8.4774 C   0  0  0  0  0  0  0  0  0  0  0  0
   11.8719    9.0587   -7.1698 C   0  0  0  0  0  0  0  0  0  0  0  0
    9.9257    8.4644   -6.5264 H   0  0  0  0  0  0  0  0  0  0  0  0
   11.8387    6.1213   -6.4542 H   0  0  0  0  0  0  0  0  0  0  0  0
   10.0749    6.1830   -6.6121 H   0  0  0  0  0  0  0  0  0  0  0  0
   11.9856    5.9492   -8.6978 H   0  0  0  0  0  0  0  0  0  0  0  0
   10.2212    5.9509   -8.8647 H   0  0  0  0  0  0  0  0  0  0  0  0
   10.2993    8.4919   -8.9513 H   0  0  0  0  0  0  0  0  0  0  0  0
   11.9064    8.5806  -10.7913 H   0  0  0  0  0  0  0  0  0  0  0  0
   13.1831    7.7747   -8.2283 H   0  0  0  0  0  0  0  0  0  0  0  0
   12.7952    9.3570   -9.0873 H   0  0  0  0  0  0  0  0  0  0  0  0
   11.3399   10.0197   -7.3867 H   0  0  0  0  0  0  0  0  0  0  0  0
   12.7588    9.3633   -6.5509 H   0  0  0  0  0  0  0  0  0  0  0  0
  1  6  2  0
  2  1  1  0
  3  4  1  0
  3  2  2  0
  4  5  2  0
  5  6  1  0
  1  7  1  0
  2  8  1  0
  5  9  1  0
 10 11  1  0
 11 12  1  0
 12 13  1  0
 13 14  1  0
 13 15  1  0
 15 16  1  0
 16 10  1  0
 10 17  1  1
 11 18  1  0
 11 19  1  0
 12 20  1  0
 12 21  1  0
 13 22  1  6
 14 23  1  0
 15 24  1  0
 15 25  1  0
 16 26  1  0
 16 27  1  0
  3 10  1  0
M  END
>  <Score>  (1) 
-7.41005

$$$$

     RDKit          3D

 31 32  0  0  0  0  0  0  0  0999 V2000
   11.8120    6.9304   -2.9661 C   0  0  0  0  0  0  0  0  0  0  0  0
   11.4350    6.8804   -4.3280 C   0  0  0  0  0  0  0  0  0  0  0  0
   11.3598    8.0880   -5.0296 C   0  0  0  0  0  0  0  0  0  0  0  0
   11.6553    9.2457   -4.3577 N   0  0  0  0  0  0  0  0  0  0  0  0
   12.0111    9.2537   -3.0585 C   0  0  0  0  0  0  0  0  0  0  0  0
   12.0887    8.0978   -2.3661 N   0  0  0  0  0  0  0  0  0  0  0  0
   11.8539    5.9725   -2.4744 H   0  0  0  0  0  0  0  0  0  0  0  0
   11.2122    5.9511   -4.8148 H   0  0  0  0  0  0  0  0  0  0  0  0
   12.2240   10.2178   -2.6204 H   0  0  0  0  0  0  0  0  0  0  0  0
   10.9731    8.1103   -6.4527 C   0  0  2  0  0  0  0  0  0  0  0  0
   11.3098    9.3569   -6.9648 O   0  0  0  0  0  0  0  0  0  0  0  0
   10.1680   10.1809   -7.0890 C   0  0  1  0  0  0  0  0  0  0  0  0
   10.6556   11.6012   -7.3330 C   0  0  0  0  0  0  0  0  0  0  0  0
   11.4175   11.5987   -8.5238 O   0  0  0  0  0  0  0  0  0  0  0  0
    9.3968    9.6484   -8.2671 C   0  0  2  0  0  0  0  0  0  0  0  0
    8.3270   10.4636   -8.6125 O   0  0  0  0  0  0  0  0  0  0  0  0
    8.9615    8.2427   -7.9294 C   0  0  1  0  0  0  0  0  0  0  0  0
    9.4326    7.3893   -8.9461 O   0  0  0  0  0  0  0  0  0  0  0  0
    9.5388    7.7486   -6.6355 C   0  0  2  0  0  0  0  0  0  0  0  0
    8.7488    8.1100   -5.5330 O   0  0  0  0  0  0  0  0  0  0  0  0
   11.5906    7.3386   -6.9809 H   0  0  0  0  0  0  0  0  0  0  0  0
    9.5782   10.2078   -6.1580 H   0  0  0  0  0  0  0  0  0  0  0  0
   11.3728   11.8787   -6.5338 H   0  0  0  0  0  0  0  0  0  0  0  0
    9.8044   12.2916   -7.3888 H   0  0  0  0  0  0  0  0  0  0  0  0
   11.7267   12.5386   -8.6410 H   0  0  0  0  0  0  0  0  0  0  0  0
   10.0975    9.6559   -9.1380 H   0  0  0  0  0  0  0  0  0  0  0  0
    7.9222   10.0795   -9.4308 H   0  0  0  0  0  0  0  0  0  0  0  0
    7.8616    8.2322   -7.9065 H   0  0  0  0  0  0  0  0  0  0  0  0
    8.9272    6.5565   -8.9979 H   0  0  0  0  0  0  0  0  0  0  0  0
    9.4755    6.6207   -6.6730 H   0  0  0  0  0  0  0  0  0  0  0  0
    7.9710    7.5293   -5.4878 H   0  0  0  0  0  0  0  0  0  0  0  0
  1  6  2  0
  2  1  1  0
  3  4  1  0
  3  2  2  0
  4  5  2  0
  5  6  1  0
  1  7  1  0
  2  8  1  0
  5  9  1  0
 10 11  1  0
 11 12  1  0
 12 13  1  0
 13 14  1  0
 12 15  1  0
 15 16  1  0
 15 17  1  0
 17 18  1  0
 17 19  1  0
 19 20  1  0
 19 10  1  0
 10 21  1  6
 12 22  1  1
 13 23  1  0
 13 24  1  0
 14 25  1  0
 15 26  1  6
 16 27  1  0
 17 28  1  1
 18 29  1  0
 19 30  1  6
 20 31  1  0
  3 10  1  0
M  END
>  <Score>  (1) 
-7.40022

$$$$

     RDKit          3D

 25 26  0  0  0  0  0  0  0  0999 V2000
   11.8107    6.9258   -2.9694 C   0  0  0  0  0  0  0  0  0  0  0  0
   11.4358    6.8864   -4.3273 C   0  0  0  0  0  0  0  0  0  0  0  0
   11.3608    8.0890   -5.0263 C   0  0  0  0  0  0  0  0  0  0  0  0
   11.6537    9.2402   -4.3614 N   0  0  0  0  0  0  0  0  0  0  0  0
   12.0113    9.2530   -3.0577 C   0  0  0  0  0  0  0  0  0  0  0  0
   12.0897    8.1015   -2.3640 N   0  0  0  0  0  0  0  0  0  0  0  0
   11.8750    6.0053   -2.4089 H   0  0  0  0  0  0  0  0  0  0  0  0
   11.2242    5.9444   -4.7687 H   0  0  0  0  0  0  0  0  0  0  0  0
   12.2402   10.1793   -2.5473 H   0  0  0  0  0  0  0  0  0  0  0  0
   10.9803    8.1271   -6.4321 C   0  0  0  0  0  0  0  0  0  0  0  0
   10.3238    9.2540   -6.9058 C   0  0  0  0  0  0  0  0  0  0  0  0
    9.9264    9.3772   -8.2203 C   0  0  0  0  0  0  0  0  0  0  0  0
   10.2052    8.3164   -9.0899 C   0  0  0  0  0  0  0  0  0  0  0  0
   10.8545    7.1863   -8.6503 C   0  0  0  0  0  0  0  0  0  0  0  0
   11.1957    5.8723   -9.7437 S   0  0  0  0  0  6  0  0  0  0  0  0
   12.7395    6.1239  -10.4691 N   0  0  0  0  0  0  0  0  0  0  0  0
   10.1208    5.7098  -10.7749 O   0  0  0  0  0  0  0  0  0  0  0  0
   11.2764    4.5940   -8.9498 O   0  0  0  0  0  0  0  0  0  0  0  0
   11.2350    7.1070   -7.3204 C   0  0  0  0  0  0  0  0  0  0  0  0
   10.1105   10.0813   -6.2115 H   0  0  0  0  0  0  0  0  0  0  0  0
    9.4127   10.2471   -8.6127 H   0  0  0  0  0  0  0  0  0  0  0  0
    9.9209    8.3540  -10.1236 H   0  0  0  0  0  0  0  0  0  0  0  0
   13.3863    6.6492   -9.8543 H   0  0  0  0  0  0  0  0  0  0  0  0
   13.1295    5.2929  -10.9204 H   0  0  0  0  0  0  0  0  0  0  0  0
   11.7445    6.2137   -6.9872 H   0  0  0  0  0  0  0  0  0  0  0  0
  1  6  2  0
  2  1  1  0
  3  4  1  0
  3  2  2  0
  4  5  2  0
  5  6  1  0
  1  7  1  0
  2  8  1  0
  5  9  1  0
 10 11  2  0
 11 12  1  0
 12 13  2  0
 13 14  1  0
 14 15  1  0
 15 16  1  0
 15 17  2  0
 15 18  2  0
 14 19  2  0
 19 10  1  0
 11 20  1  0
 12 21  1  0
 13 22  1  0
 16 23  1  0
 16 24  1  0
 19 25  1  0
  3 10  1  0
M  END
>  <Score>  (1) 
-7.39661

$$$$

     RDKit          3D

 22 23  0  0  0  0  0  0  0  0999 V2000
   12.3003    8.1240   -2.3074 C   0  0  0  0  0  0  0  0  0  0  0  0
   12.0220    6.8837   -2.9116 C   0  0  0  0  0  0  0  0  0  0  0  0
   11.5240    6.8943   -4.2257 C   0  0  0  0  0  0  0  0  0  0  0  0
   11.3482    8.1170   -4.8169 N   0  0  0  0  0  0  0  0  0  0  0  0
   11.6191    9.2778   -4.2241 C   0  0  0  0  0  0  0  0  0  0  0  0
   12.1014    9.2743   -2.9522 N   0  0  0  0  0  0  0  0  0  0  0  0
   12.6848    8.0987   -1.2911 H   0  0  0  0  0  0  0  0  0  0  0  0
   12.1757    5.9564   -2.4093 H   0  0  0  0  0  0  0  0  0  0  0  0
   11.2921    5.9739   -4.7407 H   0  0  0  0  0  0  0  0  0  0  0  0
   11.4024   10.4830   -4.9215 N   0  0  0  0  0  0  0  0  0  0  0  0
   11.4727   10.7250   -6.2914 C   0  0  0  0  0  0  0  0  0  0  0  0
   11.7720    9.8316   -7.2734 C   0  0  0  0  0  0  0  0  0  0  0  0
   11.8127   10.1923   -8.6234 C   0  0  0  0  0  0  0  0  0  0  0  0
   11.5471   11.4843   -9.0128 C   0  0  0  0  0  0  0  0  0  0  0  0
   11.5715   11.8897  -10.2986 F   0  0  0  0  0  0  0  0  0  0  0  0
   11.2464   12.3936   -8.0558 C   0  0  0  0  0  0  0  0  0  0  0  0
   10.8962   14.0705   -8.5017 Cl  0  0  0  0  0  0  0  0  0  0  0  0
   11.2110   12.0271   -6.7486 C   0  0  0  0  0  0  0  0  0  0  0  0
   11.1515   11.3073   -4.2891 H   0  0  0  0  0  0  0  0  0  0  0  0
   11.9877    8.8121   -7.0329 H   0  0  0  0  0  0  0  0  0  0  0  0
   12.0510    9.4800   -9.4025 H   0  0  0  0  0  0  0  0  0  0  0  0
   10.9656   12.7896   -6.0190 H   0  0  0  0  0  0  0  0  0  0  0  0
  2  1  2  0
  3  2  1  0
  4  3  2  0
  4  5  1  0
  5  6  2  0
  6  1  1  0
  1  7  1  0
  2  8  1  0
  3  9  1  0
 10 11  1  0
 11 12  2  0
 12 13  1  0
 13 14  2  0
 14 15  1  0
 14 16  1  0
 16 17  1  0
 16 18  2  0
 18 11  1  0
 10 19  1  0
 12 20  1  0
 13 21  1  0
 18 22  1  0
  5 10  1  0
M  END
>  <Score>  (1) 
-7.64466

$$$$

     RDKit          3D

 22 23  0  0  0  0  0  0  0  0999 V2000
   11.8130    6.9307   -2.9628 C   0  0  0  0  0  0  0  0  0  0  0  0
   11.4343    6.8863   -4.3324 C   0  0  0  0  0  0  0  0  0  0  0  0
   11.3605    8.0888   -5.0273 C   0  0  0  0  0  0  0  0  0  0  0  0
   11.6535    9.2388   -4.3617 N   0  0  0  0  0  0  0  0  0  0  0  0
   12.0118    9.2538   -3.0560 C   0  0  0  0  0  0  0  0  0  0  0  0
   12.0889    8.0976   -2.3657 N   0  0  0  0  0  0  0  0  0  0  0  0
   11.8583    5.9701   -2.4576 H   0  0  0  0  0  0  0  0  0  0  0  0
   11.2180    5.9570   -4.7958 H   0  0  0  0  0  0  0  0  0  0  0  0
   12.2461   10.1641   -2.5204 H   0  0  0  0  0  0  0  0  0  0  0  0
   10.9813    8.1503   -6.4365 C   0  0  0  0  0  0  0  0  0  0  0  0
   11.8784    8.0762   -7.4490 C   0  0  0  0  0  0  0  0  0  0  0  0
   11.5281    8.1339   -8.8025 C   0  0  0  0  0  0  0  0  0  0  0  0
   10.1913    8.2738   -9.0922 C   0  0  0  0  0  0  0  0  0  0  0  0
    9.7337    8.3422  -10.4413 N   0  0  0  0  0  0  0  0  0  0  0  0
    9.2606    8.3512   -8.0799 C   0  0  0  0  0  0  0  0  0  0  0  0
    9.6452    8.2907   -6.7585 C   0  0  0  0  0  0  0  0  0  0  0  0
   12.9337    7.9665   -7.2614 H   0  0  0  0  0  0  0  0  0  0  0  0
   12.2603    8.0728   -9.5938 H   0  0  0  0  0  0  0  0  0  0  0  0
    9.9443    9.1689  -11.0240 H   0  0  0  0  0  0  0  0  0  0  0  0
    9.1770    7.5654  -10.8767 H   0  0  0  0  0  0  0  0  0  0  0  0
    8.2043    8.4614   -8.2843 H   0  0  0  0  0  0  0  0  0  0  0  0
    8.9210    8.3506   -5.9461 H   0  0  0  0  0  0  0  0  0  0  0  0
  1  6  2  0
  2  1  1  0
  3  4  1  0
  3  2  2  0
  4  5  2  0
  5  6  1  0
  1  7  1  0
  2  8  1  0
  5  9  1  0
 10 11  2  0
 11 12  1  0
 12 13  2  0
 13 14  1  0
 13 15  1  0
 15 16  2  0
 16 10  1  0
 11 17  1  0
 12 18  1  0
 14 19  1  0
 14 20  1  0
 15 21  1  0
 16 22  1  0
  3 10  1  0
M  END
>  <Score>  (1) 
-7.3938

$$$$

     RDKit          3D

 32 34  0  0  0  0  0  0  0  0999 V2000
   11.8123    6.9304   -2.9650 C   0  0  0  0  0  0  0  0  0  0  0  0
   11.4345    6.8813   -4.3301 C   0  0  0  0  0  0  0  0  0  0  0  0
   11.3611    8.0908   -5.0261 C   0  0  0  0  0  0  0  0  0  0  0  0
   11.6531    9.2419   -4.3644 N   0  0  0  0  0  0  0  0  0  0  0  0
   12.0123    9.2526   -3.0537 C   0  0  0  0  0  0  0  0  0  0  0  0
   12.0887    8.0990   -2.3667 N   0  0  0  0  0  0  0  0  0  0  0  0
   11.8589    5.9723   -2.4562 H   0  0  0  0  0  0  0  0  0  0  0  0
   11.2118    5.9655   -4.8214 H   0  0  0  0  0  0  0  0  0  0  0  0
   12.2428   10.1733   -2.5355 H   0  0  0  0  0  0  0  0  0  0  0  0
   10.9947    8.0453   -6.3505 O   0  0  0  0  0  0  0  0  0  0  0  0
   10.4068    6.8667   -6.8695 C   0  0  0  0  0  0  0  0  0  0  0  0
   10.0768    6.9916   -8.3033 C   0  0  0  0  0  0  0  0  0  0  0  0
   10.3289    8.1524   -9.0321 C   0  0  0  0  0  0  0  0  0  0  0  0
    9.9921    8.1950  -10.3714 C   0  0  0  0  0  0  0  0  0  0  0  0
   10.2532    9.4333  -11.1785 C   0  0  0  0  0  0  0  0  0  0  0  0
    9.4296    7.1036  -10.9207 N   0  0  0  0  0  0  0  0  0  0  0  0
    9.1744    5.9742  -10.2494 C   0  0  0  0  0  0  0  0  0  0  0  0
    8.5928    4.8629  -10.8430 C   0  0  0  0  0  0  0  0  0  0  0  0
    8.3366    3.7055  -10.1345 C   0  0  0  0  0  0  0  0  0  0  0  0
    8.6593    3.6235   -8.7911 C   0  0  0  0  0  0  0  0  0  0  0  0
    9.2374    4.7300   -8.2044 C   0  0  0  0  0  0  0  0  0  0  0  0
    9.4972    5.8993   -8.9163 C   0  0  0  0  0  0  0  0  0  0  0  0
    9.4821    6.6683   -6.3093 H   0  0  0  0  0  0  0  0  0  0  0  0
   11.1609    6.0521   -6.7770 H   0  0  0  0  0  0  0  0  0  0  0  0
   10.7850    9.0029   -8.5361 H   0  0  0  0  0  0  0  0  0  0  0  0
   11.2540    9.3610  -11.6613 H   0  0  0  0  0  0  0  0  0  0  0  0
    9.5203    9.4457  -12.0230 H   0  0  0  0  0  0  0  0  0  0  0  0
   10.0966   10.3481  -10.6081 H   0  0  0  0  0  0  0  0  0  0  0  0
    8.3414    4.9277  -11.8908 H   0  0  0  0  0  0  0  0  0  0  0  0
    7.8842    2.8281  -10.5768 H   0  0  0  0  0  0  0  0  0  0  0  0
    8.4759    2.7377   -8.2009 H   0  0  0  0  0  0  0  0  0  0  0  0
    9.4950    4.6856   -7.1627 H   0  0  0  0  0  0  0  0  0  0  0  0
  1  6  2  0
  2  1  1  0
  3  4  1  0
  3  2  2  0
  4  5  2  0
  5  6  1  0
  1  7  1  0
  2  8  1  0
  5  9  1  0
 10 11  1  0
 11 12  1  0
 12 13  2  0
 13 14  1  0
 14 15  1  0
 14 16  2  0
 16 17  1  0
 17 18  2  0
 18 19  1  0
 19 20  2  0
 20 21  1  0
 21 22  2  0
 22 12  1  0
 22 17  1  0
 11 23  1  0
 11 24  1  0
 13 25  1  0
 15 26  1  0
 15 27  1  0
 15 28  1  0
 18 29  1  0
 19 30  1  0
 20 31  1  0
 21 32  1  0
  3 10  1  0
M  END
>  <Score>  (1) 
-7.39238

$$$$

     RDKit          3D

 26 27  0  0  0  0  0  0  0  0999 V2000
   11.8123    6.9306   -2.9653 C   0  0  0  0  0  0  0  0  0  0  0  0
   11.4348    6.8815   -4.3290 C   0  0  0  0  0  0  0  0  0  0  0  0
   11.3600    8.0882   -5.0290 C   0  0  0  0  0  0  0  0  0  0  0  0
   11.6548    9.2443   -4.3591 N   0  0  0  0  0  0  0  0  0  0  0  0
   12.0114    9.2536   -3.0573 C   0  0  0  0  0  0  0  0  0  0  0  0
   12.0887    8.0978   -2.3663 N   0  0  0  0  0  0  0  0  0  0  0  0
   11.8787    6.0235   -2.4020 H   0  0  0  0  0  0  0  0  0  0  0  0
   11.2125    5.9619   -4.8177 H   0  0  0  0  0  0  0  0  0  0  0  0
   12.2441   10.1681   -2.5290 H   0  0  0  0  0  0  0  0  0  0  0  0
    8.7726    8.8769   -7.9469 H   0  0  0  0  0  0  0  0  0  0  0  0
    8.8974    7.9247   -8.4652 C   0  0  0  0  0  0  0  0  0  0  0  0
   10.2534    7.2935   -8.2861 C   0  0  2  0  0  0  0  0  0  0  0  0
   10.3995    7.0024   -6.9318 O   0  0  0  0  0  0  0  0  0  0  0  0
   10.9862    8.1453   -6.4171 C   0  0  2  0  0  0  0  0  0  0  0  0
   12.1765    8.2894   -7.3727 C   0  0  1  0  0  0  0  0  0  0  0  0
   12.9887    7.1788   -7.2486 O   0  0  0  0  0  0  0  0  0  0  0  0
   11.3828    8.1856   -8.6844 C   0  0  1  0  0  0  0  0  0  0  0  0
   12.1500    7.7189   -9.7171 O   0  0  0  0  0  0  0  0  0  0  0  0
    8.6433    8.0490   -9.5244 H   0  0  0  0  0  0  0  0  0  0  0  0
    8.1586    7.2022   -8.0098 H   0  0  0  0  0  0  0  0  0  0  0  0
   10.2843    6.3936   -8.9211 H   0  0  0  0  0  0  0  0  0  0  0  0
   10.3296    8.9961   -6.6227 H   0  0  0  0  0  0  0  0  0  0  0  0
   12.6826    9.2463   -7.2690 H   0  0  0  0  0  0  0  0  0  0  0  0
   13.6166    7.0669   -7.9855 H   0  0  0  0  0  0  0  0  0  0  0  0
   11.0206    9.2377   -8.8718 H   0  0  0  0  0  0  0  0  0  0  0  0
   12.1059    6.7325   -9.7894 H   0  0  0  0  0  0  0  0  0  0  0  0
  1  6  2  0
  2  1  1  0
  3  4  1  0
  3  2  2  0
  4  5  2  0
  5  6  1  0
  1  7  1  0
  2  8  1  0
  5  9  1  0
 10 11  1  0
 11 12  1  0
 12 13  1  0
 13 14  1  0
 14 15  1  0
 15 16  1  0
 15 17  1  0
 17 18  1  0
 17 12  1  0
 11 19  1  0
 11 20  1  0
 12 21  1  6
 14 22  1  1
 15 23  1  6
 16 24  1  0
 17 25  1  6
 18 26  1  0
  3 14  1  0
M  END
>  <Score>  (1) 
-7.38772

$$$$

     RDKit          3D

 20 21  0  0  0  0  0  0  0  0999 V2000
   11.8127    6.9307   -2.9637 C   0  0  0  0  0  0  0  0  0  0  0  0
   11.4343    6.8849   -4.3321 C   0  0  0  0  0  0  0  0  0  0  0  0
   11.3609    8.0882   -5.0257 C   0  0  0  0  0  0  0  0  0  0  0  0
   11.6549    9.2424   -4.3578 N   0  0  0  0  0  0  0  0  0  0  0  0
   12.0100    9.2521   -3.0619 C   0  0  0  0  0  0  0  0  0  0  0  0
   12.0891    8.0976   -2.3647 N   0  0  0  0  0  0  0  0  0  0  0  0
   11.8759    6.0229   -2.4119 H   0  0  0  0  0  0  0  0  0  0  0  0
   11.2246    5.9427   -4.7667 H   0  0  0  0  0  0  0  0  0  0  0  0
   12.2426   10.1654   -2.5335 H   0  0  0  0  0  0  0  0  0  0  0  0
   10.9793    8.1235   -6.4346 C   0  0  0  0  0  0  0  0  0  0  0  0
   11.6321    8.8707   -7.3857 C   0  0  0  0  0  0  0  0  0  0  0  0
   11.2281    8.8710   -8.7230 C   0  0  0  0  0  0  0  0  0  0  0  0
   10.1509    8.1094   -9.1162 C   0  0  0  0  0  0  0  0  0  0  0  0
    9.7159    8.0763  -10.4169 F   0  0  0  0  0  0  0  0  0  0  0  0
    9.4779    7.3500   -8.1812 C   0  0  0  0  0  0  0  0  0  0  0  0
    9.9038    7.3732   -6.8689 C   0  0  0  0  0  0  0  0  0  0  0  0
   12.4710    9.4689   -7.1006 H   0  0  0  0  0  0  0  0  0  0  0  0
   11.7312    9.4529   -9.4808 H   0  0  0  0  0  0  0  0  0  0  0  0
    8.6370    6.7529   -8.4779 H   0  0  0  0  0  0  0  0  0  0  0  0
    9.3904    6.7807   -6.1008 H   0  0  0  0  0  0  0  0  0  0  0  0
  1  6  2  0
  2  1  1  0
  3  4  1  0
  3  2  2  0
  4  5  2  0
  5  6  1  0
  1  7  1  0
  2  8  1  0
  5  9  1  0
 10 11  2  0
 11 12  1  0
 12 13  2  0
 13 14  1  0
 13 15  1  0
 15 16  2  0
 16 10  1  0
 11 17  1  0
 12 18  1  0
 15 19  1  0
 16 20  1  0
  3 10  1  0
M  END
>  <Score>  (1) 
-7.38549

$$$$

     RDKit          3D

 34 35  0  0  0  0  0  0  0  0999 V2000
   11.8109    6.9283   -2.9695 C   0  0  0  0  0  0  0  0  0  0  0  0
   11.4358    6.8796   -4.3248 C   0  0  0  0  0  0  0  0  0  0  0  0
   11.3602    8.0908   -5.0293 C   0  0  0  0  0  0  0  0  0  0  0  0
   11.6541    9.2438   -4.3612 N   0  0  0  0  0  0  0  0  0  0  0  0
   12.0120    9.2522   -3.0549 C   0  0  0  0  0  0  0  0  0  0  0  0
   12.0891    8.1014   -2.3662 N   0  0  0  0  0  0  0  0  0  0  0  0
   11.8670    5.9846   -2.4310 H   0  0  0  0  0  0  0  0  0  0  0  0
   11.2110    5.9436   -4.8165 H   0  0  0  0  0  0  0  0  0  0  0  0
   12.2444   10.1596   -2.5249 H   0  0  0  0  0  0  0  0  0  0  0  0
    8.4038    4.8256  -11.3930 H   0  0  0  0  0  0  0  0  0  0  0  0
    8.8067    3.9449  -10.8452 C   0  0  0  0  0  0  0  0  0  0  0  0
    8.6204    4.1085   -9.3725 C   0  0  0  0  0  0  0  0  0  0  0  0
    9.0818    5.4491   -8.8619 C   0  0  1  0  0  0  0  0  0  0  0  0
    8.8776    5.5655   -7.3969 C   0  0  0  0  0  0  0  0  0  0  0  0
   10.1013    5.8289   -6.5976 C   0  0  0  0  0  0  0  0  0  0  0  0
   11.0057    6.8770   -7.1357 C   0  0  2  0  0  0  0  0  0  0  0  0
   10.9922    8.1068   -6.3813 N   0  0  0  0  0  0  0  0  0  0  0  0
   10.8047    7.1369   -8.6243 C   0  0  0  0  0  0  0  0  0  0  0  0
   10.4953    5.7641   -9.2325 C   0  0  0  0  0  0  0  0  0  0  0  0
    9.8751    3.7560  -11.0855 H   0  0  0  0  0  0  0  0  0  0  0  0
    8.2521    3.0386  -11.1653 H   0  0  0  0  0  0  0  0  0  0  0  0
    9.1837    3.3184   -8.8467 H   0  0  0  0  0  0  0  0  0  0  0  0
    7.5394    4.0085   -9.1415 H   0  0  0  0  0  0  0  0  0  0  0  0
    8.4321    6.2194   -9.3720 H   0  0  0  0  0  0  0  0  0  0  0  0
    8.1037    6.3403   -7.1436 H   0  0  0  0  0  0  0  0  0  0  0  0
    8.4284    4.6032   -7.0114 H   0  0  0  0  0  0  0  0  0  0  0  0
   10.6338    4.8597   -6.3974 H   0  0  0  0  0  0  0  0  0  0  0  0
    9.7662    6.1666   -5.5732 H   0  0  0  0  0  0  0  0  0  0  0  0
   12.0610    6.4805   -7.0545 H   0  0  0  0  0  0  0  0  0  0  0  0
   10.7147    8.9909   -6.8299 H   0  0  0  0  0  0  0  0  0  0  0  0
    9.9187    7.7980   -8.7155 H   0  0  0  0  0  0  0  0  0  0  0  0
   11.6884    7.5989   -9.0756 H   0  0  0  0  0  0  0  0  0  0  0  0
   10.6949    5.7582  -10.3077 H   0  0  0  0  0  0  0  0  0  0  0  0
   11.1538    5.0174   -8.7194 H   0  0  0  0  0  0  0  0  0  0  0  0
  1  6  2  0
  2  1  1  0
  3  4  1  0
  3  2  2  0
  4  5  2  0
  5  6  1  0
  1  7  1  0
  2  8  1  0
  5  9  1  0
 10 11  1  0
 11 12  1  0
 12 13  1  0
 13 14  1  0
 14 15  1  0
 15 16  1  0
 16 17  1  0
 16 18  1  0
 18 19  1  0
 19 13  1  0
 11 20  1  0
 11 21  1  0
 12 22  1  0
 12 23  1  0
 13 24  1  6
 14 25  1  0
 14 26  1  0
 15 27  1  0
 15 28  1  0
 16 29  1  6
 17 30  1  0
 18 31  1  0
 18 32  1  0
 19 33  1  0
 19 34  1  0
  3 17  1  0
M  END
>  <Score>  (1) 
-7.37487

$$$$

     RDKit          3D

 22 23  0  0  0  0  0  0  0  0999 V2000
   11.8119    6.9355   -2.9683 C   0  0  0  0  0  0  0  0  0  0  0  0
   11.4356    6.8783   -4.3248 C   0  0  0  0  0  0  0  0  0  0  0  0
   11.3611    8.1014   -5.0297 C   0  0  0  0  0  0  0  0  0  0  0  0
   11.6524    9.2286   -4.3622 N   0  0  0  0  0  0  0  0  0  0  0  0
   12.0124    9.2565   -3.0550 C   0  0  0  0  0  0  0  0  0  0  0  0
   12.0886    8.0958   -2.3661 N   0  0  0  0  0  0  0  0  0  0  0  0
   11.8814    6.0154   -2.3890 H   0  0  0  0  0  0  0  0  0  0  0  0
   11.2177    5.9401   -4.7910 H   0  0  0  0  0  0  0  0  0  0  0  0
   12.2255   10.2153   -2.6139 H   0  0  0  0  0  0  0  0  0  0  0  0
   10.9874    8.0609   -6.3827 N   0  0  0  0  0  0  0  0  0  0  0  0
   11.1218    9.0792   -7.3481 C   0  0  0  0  0  0  0  0  0  0  0  0
   11.6543   10.3074   -7.1137 C   0  0  0  0  0  0  0  0  0  0  0  0
   11.7719   11.2950   -8.0980 C   0  0  0  0  0  0  0  0  0  0  0  0
   11.3297   11.0216   -9.3730 C   0  0  0  0  0  0  0  0  0  0  0  0
   10.7918    9.7962   -9.6321 C   0  0  0  0  0  0  0  0  0  0  0  0
   10.6792    8.8279   -8.6562 C   0  0  0  0  0  0  0  0  0  0  0  0
   10.1314    7.6218   -8.9803 F   0  0  0  0  0  0  0  0  0  0  0  0
   10.5436    7.1318   -6.7154 H   0  0  0  0  0  0  0  0  0  0  0  0
   12.0204   10.5990   -6.1528 H   0  0  0  0  0  0  0  0  0  0  0  0
   12.2012   12.2639   -7.8786 H   0  0  0  0  0  0  0  0  0  0  0  0
   11.4304   11.8052  -10.1262 H   0  0  0  0  0  0  0  0  0  0  0  0
   10.4421    9.5913  -10.6558 H   0  0  0  0  0  0  0  0  0  0  0  0
  1  6  2  0
  2  1  1  0
  3  4  1  0
  3  2  2  0
  4  5  2  0
  5  6  1  0
  1  7  1  0
  2  8  1  0
  5  9  1  0
 10 11  1  0
 11 12  2  0
 12 13  1  0
 13 14  2  0
 14 15  1  0
 15 16  2  0
 16 17  1  0
 16 11  1  0
 10 18  1  0
 12 19  1  0
 13 20  1  0
 14 21  1  0
 15 22  1  0
  3 10  1  0
M  END
>  <Score>  (1) 
-7.36524

$$$$

     RDKit          3D

 26 27  0  0  0  0  0  0  0  0999 V2000
   11.8110    6.9285   -2.9693 C   0  0  0  0  0  0  0  0  0  0  0  0
   11.4357    6.8783   -4.3245 C   0  0  0  0  0  0  0  0  0  0  0  0
   11.3604    8.0928   -5.0293 C   0  0  0  0  0  0  0  0  0  0  0  0
   11.6537    9.2429   -4.3623 N   0  0  0  0  0  0  0  0  0  0  0  0
   12.0121    9.2517   -3.0541 C   0  0  0  0  0  0  0  0  0  0  0  0
   12.0890    8.1018   -2.3665 N   0  0  0  0  0  0  0  0  0  0  0  0
   11.8762    6.0152   -2.4079 H   0  0  0  0  0  0  0  0  0  0  0  0
   11.2128    5.9397   -4.8087 H   0  0  0  0  0  0  0  0  0  0  0  0
   12.2420   10.1649   -2.5357 H   0  0  0  0  0  0  0  0  0  0  0  0
   10.4228    5.1726   -9.3488 H   0  0  0  0  0  0  0  0  0  0  0  0
   11.3726    5.6825   -9.0682 C   0  0  0  0  0  0  0  0  0  0  0  0
   11.0635    6.9372   -8.2966 C   0  0  1  0  0  0  0  0  0  0  0  0
   11.0607    6.7439   -6.9274 O   0  0  0  0  0  0  0  0  0  0  0  0
   10.9708    8.0390   -6.4357 C   0  0  2  0  0  0  0  0  0  0  0  0
   11.7956    8.9246   -7.3092 C   0  0  1  0  0  0  0  0  0  0  0  0
   12.8813    9.4886   -6.6960 O   0  0  0  0  0  0  0  0  0  0  0  0
   12.1938    7.9667   -8.4417 C   0  0  2  0  0  0  0  0  0  0  0  0
   12.1135    8.5726   -9.6728 O   0  0  0  0  0  0  0  0  0  0  0  0
   11.8843    5.9491   -9.9959 H   0  0  0  0  0  0  0  0  0  0  0  0
   11.9552    4.9953   -8.4269 H   0  0  0  0  0  0  0  0  0  0  0  0
   10.1335    7.4297   -8.6081 H   0  0  0  0  0  0  0  0  0  0  0  0
    9.8885    8.3272   -6.5078 H   0  0  0  0  0  0  0  0  0  0  0  0
   11.1359    9.6860   -7.8095 H   0  0  0  0  0  0  0  0  0  0  0  0
   12.6601   10.4081   -6.3940 H   0  0  0  0  0  0  0  0  0  0  0  0
   13.1691    7.5221   -8.2143 H   0  0  0  0  0  0  0  0  0  0  0  0
   11.9858    9.5432   -9.6372 H   0  0  0  0  0  0  0  0  0  0  0  0
  1  6  2  0
  2  1  1  0
  3  4  1  0
  3  2  2  0
  4  5  2  0
  5  6  1  0
  1  7  1  0
  2  8  1  0
  5  9  1  0
 10 11  1  0
 11 12  1  0
 12 13  1  0
 13 14  1  0
 14 15  1  0
 15 16  1  0
 15 17  1  0
 17 18  1  0
 17 12  1  0
 11 19  1  0
 11 20  1  0
 12 21  1  6
 14 22  1  1
 15 23  1  6
 16 24  1  0
 17 25  1  1
 18 26  1  0
  3 14  1  0
M  END
>  <Score>  (1) 
-7.36381

$$$$

     RDKit          3D

 22 23  0  0  0  0  0  0  0  0999 V2000
   11.8129    6.9315   -2.9636 C   0  0  0  0  0  0  0  0  0  0  0  0
   11.4348    6.8848   -4.3303 C   0  0  0  0  0  0  0  0  0  0  0  0
   11.3594    8.0854   -5.0303 C   0  0  0  0  0  0  0  0  0  0  0  0
   11.6556    9.2440   -4.3559 N   0  0  0  0  0  0  0  0  0  0  0  0
   12.0108    9.2555   -3.0604 C   0  0  0  0  0  0  0  0  0  0  0  0
   12.0886    8.0947   -2.3655 N   0  0  0  0  0  0  0  0  0  0  0  0
   11.8618    5.9783   -2.4478 H   0  0  0  0  0  0  0  0  0  0  0  0
   11.2254    5.9407   -4.7627 H   0  0  0  0  0  0  0  0  0  0  0  0
   12.2459   10.1539   -2.5176 H   0  0  0  0  0  0  0  0  0  0  0  0
   10.9819    8.1113   -6.4204 C   0  0  0  0  0  0  0  0  0  0  0  0
   10.1544    7.2149   -7.0066 C   0  0  0  0  0  0  0  0  0  0  0  0
    9.8586    7.3204   -8.3157 N   0  0  0  0  0  0  0  0  0  0  0  0
   10.3541    8.2907   -9.0841 C   0  0  0  0  0  0  0  0  0  0  0  0
    9.9800    8.3186  -10.4671 N   0  0  0  0  0  0  0  0  0  0  0  0
   11.1742    9.1934   -8.5402 N   0  0  0  0  0  0  0  0  0  0  0  0
   11.4970    9.1259   -7.2349 C   0  0  0  0  0  0  0  0  0  0  0  0
   12.3680   10.1144   -6.7341 N   0  0  0  0  0  0  0  0  0  0  0  0
    9.7265    6.4149   -6.4411 H   0  0  0  0  0  0  0  0  0  0  0  0
   10.6917    8.5203  -11.2039 H   0  0  0  0  0  0  0  0  0  0  0  0
    8.9940    8.1382  -10.7569 H   0  0  0  0  0  0  0  0  0  0  0  0
   13.3352    9.8289   -6.4796 H   0  0  0  0  0  0  0  0  0  0  0  0
   12.1093   11.1103   -6.6018 H   0  0  0  0  0  0  0  0  0  0  0  0
  1  6  2  0
  2  1  1  0
  3  4  1  0
  3  2  2  0
  4  5  2  0
  5  6  1  0
  1  7  1  0
  2  8  1  0
  5  9  1  0
 10 11  2  0
 11 12  1  0
 12 13  2  0
 13 14  1  0
 13 15  1  0
 15 16  2  0
 16 17  1  0
 16 10  1  0
 11 18  1  0
 14 19  1  0
 14 20  1  0
 17 21  1  0
 17 22  1  0
  3 10  1  0
M  END
>  <Score>  (1) 
-7.35878

$$$$

     RDKit          3D

 31 32  0  0  0  0  0  0  0  0999 V2000
   11.8122    6.9307   -2.9655 C   0  0  0  0  0  0  0  0  0  0  0  0
   11.4349    6.8804   -4.3285 C   0  0  0  0  0  0  0  0  0  0  0  0
   11.3604    8.0898   -5.0284 C   0  0  0  0  0  0  0  0  0  0  0  0
   11.6542    9.2438   -4.3610 N   0  0  0  0  0  0  0  0  0  0  0  0
   12.0118    9.2534   -3.0560 C   0  0  0  0  0  0  0  0  0  0  0  0
   12.0886    8.0979   -2.3667 N   0  0  0  0  0  0  0  0  0  0  0  0
   11.8821    6.0196   -2.3882 H   0  0  0  0  0  0  0  0  0  0  0  0
   11.2136    5.9477   -4.8087 H   0  0  0  0  0  0  0  0  0  0  0  0
   12.2409   10.1774   -2.5441 H   0  0  0  0  0  0  0  0  0  0  0  0
   10.9761    8.1213   -6.4455 C   0  0  1  0  0  0  0  0  0  0  0  0
    9.8484    8.8560   -6.7068 O   0  0  0  0  0  0  0  0  0  0  0  0
    9.3406    8.5271   -7.9297 C   0  0  2  0  0  0  0  0  0  0  0  0
    8.4561    7.2864   -7.7566 C   0  0  0  0  0  0  0  0  0  0  0  0
    7.9130    6.9197   -9.0087 O   0  0  0  0  0  0  0  0  0  0  0  0
   10.2821    8.4195   -9.0593 C   0  0  2  0  0  0  0  0  0  0  0  0
    9.9312    7.2648   -9.8000 O   0  0  0  0  0  0  0  0  0  0  0  0
   11.7245    8.3047   -8.7324 C   0  0  1  0  0  0  0  0  0  0  0  0
   12.5172    9.0253   -9.6475 O   0  0  0  0  0  0  0  0  0  0  0  0
   12.0755    8.7220   -7.3238 C   0  0  1  0  0  0  0  0  0  0  0  0
   11.9898   10.1094   -7.2563 O   0  0  0  0  0  0  0  0  0  0  0  0
   10.8351    7.0855   -6.8099 H   0  0  0  0  0  0  0  0  0  0  0  0
    8.5970    9.3410   -8.1881 H   0  0  0  0  0  0  0  0  0  0  0  0
    9.0059    6.4166   -7.3995 H   0  0  0  0  0  0  0  0  0  0  0  0
    7.6164    7.5414   -7.0759 H   0  0  0  0  0  0  0  0  0  0  0  0
    7.0924    6.3879   -8.8240 H   0  0  0  0  0  0  0  0  0  0  0  0
   10.1701    9.2706   -9.7950 H   0  0  0  0  0  0  0  0  0  0  0  0
    9.4926    7.4798  -10.6370 H   0  0  0  0  0  0  0  0  0  0  0  0
   12.0876    7.2389   -8.8310 H   0  0  0  0  0  0  0  0  0  0  0  0
   12.4197   10.0008   -9.5108 H   0  0  0  0  0  0  0  0  0  0  0  0
   13.0692    8.3661   -7.0530 H   0  0  0  0  0  0  0  0  0  0  0  0
   12.8296   10.5070   -7.5364 H   0  0  0  0  0  0  0  0  0  0  0  0
  1  6  2  0
  2  1  1  0
  3  4  1  0
  3  2  2  0
  4  5  2  0
  5  6  1  0
  1  7  1  0
  2  8  1  0
  5  9  1  0
 10 11  1  0
 11 12  1  0
 12 13  1  0
 13 14  1  0
 12 15  1  0
 15 16  1  0
 15 17  1  0
 17 18  1  0
 17 19  1  0
 19 20  1  0
 19 10  1  0
 10 21  1  6
 12 22  1  6
 13 23  1  0
 13 24  1  0
 14 25  1  0
 15 26  1  6
 16 27  1  0
 17 28  1  1
 18 29  1  0
 19 30  1  1
 20 31  1  0
  3 10  1  0
M  END
>  <Score>  (1) 
-7.35198

$$$$

     RDKit          3D

 32 33  0  0  0  0  0  0  0  0999 V2000
   11.8128    6.9306   -2.9634 C   0  0  0  0  0  0  0  0  0  0  0  0
   11.4342    6.8868   -4.3330 C   0  0  0  0  0  0  0  0  0  0  0  0
   11.3607    8.0860   -5.0259 C   0  0  0  0  0  0  0  0  0  0  0  0
   11.6540    9.2414   -4.3607 N   0  0  0  0  0  0  0  0  0  0  0  0
   12.0115    9.2551   -3.0577 C   0  0  0  0  0  0  0  0  0  0  0  0
   12.0888    8.0962   -2.3653 N   0  0  0  0  0  0  0  0  0  0  0  0
   11.8815    6.0166   -2.3891 H   0  0  0  0  0  0  0  0  0  0  0  0
   11.2166    5.9644   -4.8036 H   0  0  0  0  0  0  0  0  0  0  0  0
   12.2222   10.2082   -2.6234 H   0  0  0  0  0  0  0  0  0  0  0  0
   10.9854    8.1750   -6.4301 C   0  0  0  0  0  0  0  0  0  0  0  0
   11.7991    8.6975   -7.4054 C   0  0  0  0  0  0  0  0  0  0  0  0
   11.4128    8.7715   -8.7510 C   0  0  0  0  0  0  0  0  0  0  0  0
   12.3140    9.3190   -9.6569 O   0  0  0  0  0  0  0  0  0  0  0  0
   13.5705    9.7772   -9.2054 C   0  0  0  0  0  0  0  0  0  0  0  0
   10.1740    8.3102   -9.1429 C   0  0  0  0  0  0  0  0  0  0  0  0
    9.8019    8.3875  -10.4730 O   0  0  0  0  0  0  0  0  0  0  0  0
    9.1245    9.5447  -10.9856 C   0  0  0  0  0  0  0  0  0  0  0  0
    9.3495    7.7851   -8.1785 C   0  0  0  0  0  0  0  0  0  0  0  0
    8.1024    7.3194   -8.5656 O   0  0  0  0  0  0  0  0  0  0  0  0
    7.2027    6.7684   -7.6374 C   0  0  0  0  0  0  0  0  0  0  0  0
    9.7467    7.7213   -6.8635 C   0  0  0  0  0  0  0  0  0  0  0  0
   12.7857    9.0666   -7.1026 H   0  0  0  0  0  0  0  0  0  0  0  0
   14.1075    8.9547   -8.6517 H   0  0  0  0  0  0  0  0  0  0  0  0
   13.4782   10.6537   -8.5356 H   0  0  0  0  0  0  0  0  0  0  0  0
   14.2310   10.0363  -10.0575 H   0  0  0  0  0  0  0  0  0  0  0  0
    9.1319    9.5058  -12.0908 H   0  0  0  0  0  0  0  0  0  0  0  0
    9.6645   10.4654  -10.6143 H   0  0  0  0  0  0  0  0  0  0  0  0
    8.0736    9.5776  -10.6494 H   0  0  0  0  0  0  0  0  0  0  0  0
    7.0729    7.4412   -6.7413 H   0  0  0  0  0  0  0  0  0  0  0  0
    7.5893    5.7817   -7.3110 H   0  0  0  0  0  0  0  0  0  0  0  0
    6.2163    6.6352   -8.1527 H   0  0  0  0  0  0  0  0  0  0  0  0
    9.0840    7.3001   -6.0941 H   0  0  0  0  0  0  0  0  0  0  0  0
  1  6  2  0
  2  1  1  0
  3  4  1  0
  3  2  2  0
  4  5  2  0
  5  6  1  0
  1  7  1  0
  2  8  1  0
  5  9  1  0
 10 11  2  0
 11 12  1  0
 12 13  1  0
 13 14  1  0
 12 15  2  0
 15 16  1  0
 16 17  1  0
 15 18  1  0
 18 19  1  0
 19 20  1  0
 18 21  2  0
 21 10  1  0
 11 22  1  0
 14 23  1  0
 14 24  1  0
 14 25  1  0
 17 26  1  0
 17 27  1  0
 17 28  1  0
 20 29  1  0
 20 30  1  0
 20 31  1  0
 21 32  1  0
  3 10  1  0
M  END
>  <Score>  (1) 
-7.35197

$$$$

     RDKit          3D

 30 31  0  0  0  0  0  0  0  0999 V2000
   12.3028    8.1218   -2.3006 C   0  0  0  0  0  0  0  0  0  0  0  0
   12.0215    6.8833   -2.9128 C   0  0  0  0  0  0  0  0  0  0  0  0
   11.5243    6.8968   -4.2249 C   0  0  0  0  0  0  0  0  0  0  0  0
   11.3427    8.1106   -4.8309 N   0  0  0  0  0  0  0  0  0  0  0  0
   11.6242    9.2760   -4.2105 C   0  0  0  0  0  0  0  0  0  0  0  0
   12.0995    9.2825   -2.9582 N   0  0  0  0  0  0  0  0  0  0  0  0
   12.6803    8.1595   -1.3092 H   0  0  0  0  0  0  0  0  0  0  0  0
   12.1775    5.9615   -2.4049 H   0  0  0  0  0  0  0  0  0  0  0  0
   11.2955    5.9800   -4.7325 H   0  0  0  0  0  0  0  0  0  0  0  0
   11.3948   10.4738   -4.9408 N   0  0  0  0  0  0  0  0  0  0  0  0
   10.1752   10.6049   -5.6696 C   0  0  0  0  0  0  0  0  0  0  0  0
   10.4067   11.1467   -7.0769 C   0  0  0  0  0  0  0  0  0  0  0  0
   10.9383   12.5351   -7.0768 C   0  0  0  0  0  0  0  0  0  0  0  0
   12.3239   12.6773   -6.8711 N   0  0  0  0  0  0  0  0  0  0  0  0
   13.0450   13.4581   -7.8073 C   0  0  0  0  0  0  0  0  0  0  0  0
   13.0111   11.6007   -6.2772 C   0  0  0  0  0  0  0  0  0  0  0  0
   12.4885   11.4514   -4.8409 C   0  0  0  0  0  0  0  0  0  0  0  0
    9.7016    9.6080   -5.7697 H   0  0  0  0  0  0  0  0  0  0  0  0
    9.4246   11.2575   -5.1618 H   0  0  0  0  0  0  0  0  0  0  0  0
    9.3962   11.1662   -7.5586 H   0  0  0  0  0  0  0  0  0  0  0  0
   11.0147   10.4377   -7.6398 H   0  0  0  0  0  0  0  0  0  0  0  0
   10.6581   13.0103   -8.0610 H   0  0  0  0  0  0  0  0  0  0  0  0
   10.3932   13.1407   -6.3110 H   0  0  0  0  0  0  0  0  0  0  0  0
   13.5842   12.8805   -8.5860 H   0  0  0  0  0  0  0  0  0  0  0  0
   12.3608   14.1966   -8.2704 H   0  0  0  0  0  0  0  0  0  0  0  0
   13.7996   14.0719   -7.2340 H   0  0  0  0  0  0  0  0  0  0  0  0
   14.0916   11.8138   -6.2573 H   0  0  0  0  0  0  0  0  0  0  0  0
   12.8999   10.6180   -6.8167 H   0  0  0  0  0  0  0  0  0  0  0  0
   13.2610   11.1039   -4.1541 H   0  0  0  0  0  0  0  0  0  0  0  0
   12.0719   12.4290   -4.4982 H   0  0  0  0  0  0  0  0  0  0  0  0
  2  1  2  0
  3  2  1  0
  4  3  2  0
  4  5  1  0
  5  6  2  0
  6  1  1  0
  1  7  1  0
  2  8  1  0
  3  9  1  0
 10 11  1  0
 11 12  1  0
 12 13  1  0
 13 14  1  0
 14 15  1  0
 14 16  1  0
 16 17  1  0
 17 10  1  0
 11 18  1  0
 11 19  1  0
 12 20  1  0
 12 21  1  0
 13 22  1  0
 13 23  1  0
 15 24  1  0
 15 25  1  0
 15 26  1  0
 16 27  1  0
 16 28  1  0
 17 29  1  0
 17 30  1  0
  5 10  1  0
M  END
>  <Score>  (1) 
-7.64351

$$$$

     RDKit          3D

 21 22  0  0  0  0  0  0  0  0999 V2000
   11.8126    6.9296   -2.9637 C   0  0  0  0  0  0  0  0  0  0  0  0
   11.4343    6.8852   -4.3321 C   0  0  0  0  0  0  0  0  0  0  0  0
   11.3600    8.0858   -5.0282 C   0  0  0  0  0  0  0  0  0  0  0  0
   11.6552    9.2435   -4.3572 N   0  0  0  0  0  0  0  0  0  0  0  0
   12.0109    9.2525   -3.0590 C   0  0  0  0  0  0  0  0  0  0  0  0
   12.0890    8.0994   -2.3657 N   0  0  0  0  0  0  0  0  0  0  0  0
   11.8862    6.0379   -2.3796 H   0  0  0  0  0  0  0  0  0  0  0  0
   11.2235    5.9447   -4.7713 H   0  0  0  0  0  0  0  0  0  0  0  0
   12.2449   10.1624   -2.5239 H   0  0  0  0  0  0  0  0  0  0  0  0
   10.9791    8.1196   -6.4339 C   0  0  0  0  0  0  0  0  0  0  0  0
    9.6944    8.2421   -6.8438 C   0  0  0  0  0  0  0  0  0  0  0  0
    9.3490    8.2727   -8.1997 C   0  0  0  0  0  0  0  0  0  0  0  0
   10.3302    8.1766   -9.1564 C   0  0  0  0  0  0  0  0  0  0  0  0
    9.9648    8.2090  -10.5078 O   0  0  0  0  0  0  0  0  0  0  0  0
   11.6526    8.0504   -8.7688 C   0  0  0  0  0  0  0  0  0  0  0  0
   12.4363    7.9737   -9.5102 H   0  0  0  0  0  0  0  0  0  0  0  0
   11.9571    8.0238   -7.4335 C   0  0  0  0  0  0  0  0  0  0  0  0
    8.8810    8.3216   -6.1593 H   0  0  0  0  0  0  0  0  0  0  0  0
    8.3161    8.3713   -8.5063 H   0  0  0  0  0  0  0  0  0  0  0  0
    9.7586    7.3211  -10.9496 H   0  0  0  0  0  0  0  0  0  0  0  0
   13.0051    7.9238   -7.1319 H   0  0  0  0  0  0  0  0  0  0  0  0
  1  6  2  0
  2  1  1  0
  3  4  1  0
  3  2  2  0
  4  5  2  0
  5  6  1  0
  1  7  1  0
  2  8  1  0
  5  9  1  0
 10 11  2  0
 11 12  1  0
 12 13  2  0
 13 14  1  0
 13 15  1  0
 15 16  1  0
 15 17  2  0
 17 10  1  0
 11 18  1  0
 12 19  1  0
 14 20  1  0
 17 21  1  0
  3 10  1  0
M  END
>  <Score>  (1) 
-7.34999

$$$$

     RDKit          3D

 30 31  0  0  0  0  0  0  0  0999 V2000
   11.8125    6.9306   -2.9647 C   0  0  0  0  0  0  0  0  0  0  0  0
   11.4346    6.8833   -4.3306 C   0  0  0  0  0  0  0  0  0  0  0  0
   11.3603    8.0871   -5.0275 C   0  0  0  0  0  0  0  0  0  0  0  0
   11.6543    9.2436   -4.3605 N   0  0  0  0  0  0  0  0  0  0  0  0
   12.0117    9.2540   -3.0565 C   0  0  0  0  0  0  0  0  0  0  0  0
   12.0887    8.0974   -2.3662 N   0  0  0  0  0  0  0  0  0  0  0  0
   11.8787    6.0104   -2.3972 H   0  0  0  0  0  0  0  0  0  0  0  0
   11.2172    5.9403   -4.7929 H   0  0  0  0  0  0  0  0  0  0  0  0
   12.2351   10.1813   -2.5665 H   0  0  0  0  0  0  0  0  0  0  0  0
   10.9871    8.1088   -6.3998 N   0  0  0  0  0  0  0  0  0  0  0  0
   10.9005    9.3467   -7.1561 C   0  0  1  0  0  0  0  0  0  0  0  0
   12.1858   10.0794   -7.2170 C   0  0  0  0  0  0  0  0  0  0  0  0
   12.9633    9.9443   -8.4656 C   0  0  0  0  0  0  0  0  0  0  0  0
   12.1254    9.9738   -9.7263 C   0  0  0  0  0  0  0  0  0  0  0  0
   11.1833    8.7703   -9.5866 C   0  0  0  0  0  0  0  0  0  0  0  0
   10.2417    9.0977   -8.4815 C   0  0  1  0  0  0  0  0  0  0  0  0
    9.2675    8.0228   -8.3694 N   0  0  0  0  0  0  0  0  0  0  0  0
   10.7733    7.1992   -6.8583 H   0  0  0  0  0  0  0  0  0  0  0  0
   10.1797    9.9932   -6.5702 H   0  0  0  0  0  0  0  0  0  0  0  0
   12.0623   11.1802   -6.9977 H   0  0  0  0  0  0  0  0  0  0  0  0
   12.8376    9.7135   -6.3699 H   0  0  0  0  0  0  0  0  0  0  0  0
   13.5311    8.9763   -8.5006 H   0  0  0  0  0  0  0  0  0  0  0  0
   13.7425   10.7360   -8.4893 H   0  0  0  0  0  0  0  0  0  0  0  0
   12.7695    9.8828  -10.6003 H   0  0  0  0  0  0  0  0  0  0  0  0
   11.5385   10.9202   -9.6999 H   0  0  0  0  0  0  0  0  0  0  0  0
   10.6203    8.5811  -10.4972 H   0  0  0  0  0  0  0  0  0  0  0  0
   11.7985    7.8827   -9.3053 H   0  0  0  0  0  0  0  0  0  0  0  0
    9.6643   10.0108   -8.7851 H   0  0  0  0  0  0  0  0  0  0  0  0
    8.9169    7.9597   -7.3849 H   0  0  0  0  0  0  0  0  0  0  0  0
    9.6932    7.0941   -8.5994 H   0  0  0  0  0  0  0  0  0  0  0  0
  1  6  2  0
  2  1  1  0
  3  4  1  0
  3  2  2  0
  4  5  2  0
  5  6  1  0
  1  7  1  0
  2  8  1  0
  5  9  1  0
 10 11  1  0
 11 12  1  0
 12 13  1  0
 13 14  1  0
 14 15  1  0
 15 16  1  0
 16 17  1  0
 16 11  1  0
 10 18  1  0
 11 19  1  1
 12 20  1  0
 12 21  1  0
 13 22  1  0
 13 23  1  0
 14 24  1  0
 14 25  1  0
 15 26  1  0
 15 27  1  0
 16 28  1  6
 17 29  1  0
 17 30  1  0
  3 10  1  0
M  END
>  <Score>  (1) 
-7.3483

$$$$

     RDKit          3D

 24 25  0  0  0  0  0  0  0  0999 V2000
   11.8132    6.9325   -2.9628 C   0  0  0  0  0  0  0  0  0  0  0  0
   11.4348    6.8859   -4.3307 C   0  0  0  0  0  0  0  0  0  0  0  0
   11.3601    8.0890   -5.0291 C   0  0  0  0  0  0  0  0  0  0  0  0
   11.6540    9.2389   -4.3600 N   0  0  0  0  0  0  0  0  0  0  0  0
   12.0115    9.2564   -3.0582 C   0  0  0  0  0  0  0  0  0  0  0  0
   12.0885    8.0934   -2.3653 N   0  0  0  0  0  0  0  0  0  0  0  0
   11.8836    6.0219   -2.3833 H   0  0  0  0  0  0  0  0  0  0  0  0
   11.2164    5.9666   -4.8050 H   0  0  0  0  0  0  0  0  0  0  0  0
   12.2460   10.1552   -2.5175 H   0  0  0  0  0  0  0  0  0  0  0  0
   10.9816    8.1509   -6.4357 C   0  0  0  0  0  0  0  0  0  0  0  0
   10.6714    7.0588   -7.1848 C   0  0  0  0  0  0  0  0  0  0  0  0
   10.3137    7.1717   -8.5337 C   0  0  0  0  0  0  0  0  0  0  0  0
   10.2677    8.3941   -9.1343 C   0  0  0  0  0  0  0  0  0  0  0  0
    9.8258    8.6513  -10.8422 S   0  0  0  0  0  0  0  0  0  0  0  0
    9.4458    7.1211  -11.6923 C   0  0  0  0  0  0  0  0  0  0  0  0
   10.5799    9.5123   -8.3873 C   0  0  0  0  0  0  0  0  0  0  0  0
   10.9295    9.3789   -7.0608 C   0  0  0  0  0  0  0  0  0  0  0  0
   10.6929    6.0774   -6.7590 H   0  0  0  0  0  0  0  0  0  0  0  0
   10.0672    6.3021   -9.1282 H   0  0  0  0  0  0  0  0  0  0  0  0
    8.5205    7.2546  -12.2949 H   0  0  0  0  0  0  0  0  0  0  0  0
    9.2584    6.2720  -11.0137 H   0  0  0  0  0  0  0  0  0  0  0  0
   10.2336    6.8205  -12.4299 H   0  0  0  0  0  0  0  0  0  0  0  0
   10.5507   10.5118   -8.8473 H   0  0  0  0  0  0  0  0  0  0  0  0
   11.1642   10.2782   -6.5197 H   0  0  0  0  0  0  0  0  0  0  0  0
  1  6  2  0
  2  1  1  0
  3  4  1  0
  3  2  2  0
  4  5  2  0
  5  6  1  0
  1  7  1  0
  2  8  1  0
  5  9  1  0
 10 11  2  0
 11 12  1  0
 12 13  2  0
 13 14  1  0
 14 15  1  0
 13 16  1  0
 16 17  2  0
 17 10  1  0
 11 18  1  0
 12 19  1  0
 15 20  1  0
 15 21  1  0
 15 22  1  0
 16 23  1  0
 17 24  1  0
  3 10  1  0
M  END
>  <Score>  (1) 
-7.34322

$$$$

     RDKit          3D

 26 27  0  0  0  0  0  0  0  0999 V2000
   11.8123    6.9364   -2.9674 C   0  0  0  0  0  0  0  0  0  0  0  0
   11.4351    6.8810   -4.3278 C   0  0  0  0  0  0  0  0  0  0  0  0
   11.3592    8.0880   -5.0319 C   0  0  0  0  0  0  0  0  0  0  0  0
   11.6554    9.2413   -4.3556 N   0  0  0  0  0  0  0  0  0  0  0  0
   12.0110    9.2566   -3.0598 C   0  0  0  0  0  0  0  0  0  0  0  0
   12.0890    8.0928   -2.3635 N   0  0  0  0  0  0  0  0  0  0  0  0
   11.8719    6.0147   -2.4235 H   0  0  0  0  0  0  0  0  0  0  0  0
   11.2165    5.9387   -4.7948 H   0  0  0  0  0  0  0  0  0  0  0  0
   12.2430   10.1732   -2.5348 H   0  0  0  0  0  0  0  0  0  0  0  0
   10.9797    8.1239   -6.4334 C   0  0  0  0  0  0  0  0  0  0  0  0
   11.2251    9.2826   -7.1469 C   0  0  0  0  0  0  0  0  0  0  0  0
   10.9096    9.4344   -8.4793 C   0  0  0  0  0  0  0  0  0  0  0  0
   10.3175    8.3573   -9.1129 C   0  0  0  0  0  0  0  0  0  0  0  0
   10.0643    7.1969   -8.4249 C   0  0  0  0  0  0  0  0  0  0  0  0
    9.3141    5.8835   -9.2978 S   0  0  0  0  0  6  0  0  0  0  0  0
    7.5486    5.9532   -9.2138 C   0  0  0  0  0  0  0  0  0  0  0  0
    9.7541    4.5805   -8.6931 O   0  0  0  0  0  0  0  0  0  0  0  0
    9.7090    5.9697  -10.7417 O   0  0  0  0  0  0  0  0  0  0  0  0
   10.3983    7.0933   -7.0926 C   0  0  0  0  0  0  0  0  0  0  0  0
   11.6848   10.1135   -6.6475 H   0  0  0  0  0  0  0  0  0  0  0  0
   11.1103   10.3560   -9.0271 H   0  0  0  0  0  0  0  0  0  0  0  0
   10.0711    8.4869  -10.1685 H   0  0  0  0  0  0  0  0  0  0  0  0
    7.1381    5.4418   -8.3321 H   0  0  0  0  0  0  0  0  0  0  0  0
    7.1510    6.9766   -9.2902 H   0  0  0  0  0  0  0  0  0  0  0  0
    7.1647    5.3941  -10.1079 H   0  0  0  0  0  0  0  0  0  0  0  0
   10.1841    6.1790   -6.6028 H   0  0  0  0  0  0  0  0  0  0  0  0
  1  6  2  0
  2  1  1  0
  3  4  1  0
  3  2  2  0
  4  5  2  0
  5  6  1  0
  1  7  1  0
  2  8  1  0
  5  9  1  0
 10 11  2  0
 11 12  1  0
 12 13  2  0
 13 14  1  0
 14 15  1  0
 15 16  1  0
 15 17  2  0
 15 18  2  0
 14 19  2  0
 19 10  1  0
 11 20  1  0
 12 21  1  0
 13 22  1  0
 16 23  1  0
 16 24  1  0
 16 25  1  0
 19 26  1  0
  3 10  1  0
M  END
>  <Score>  (1) 
-7.33456

$$$$

     RDKit          3D

 29 30  0  0  0  0  0  0  0  0999 V2000
   11.8127    6.9309   -2.9639 C   0  0  0  0  0  0  0  0  0  0  0  0
   11.4343    6.8823   -4.3311 C   0  0  0  0  0  0  0  0  0  0  0  0
   11.3606    8.0884   -5.0270 C   0  0  0  0  0  0  0  0  0  0  0  0
   11.6540    9.2433   -4.3615 N   0  0  0  0  0  0  0  0  0  0  0  0
   12.0118    9.2536   -3.0558 C   0  0  0  0  0  0  0  0  0  0  0  0
   12.0886    8.0976   -2.3666 N   0  0  0  0  0  0  0  0  0  0  0  0
   11.8814    6.0228   -2.3917 H   0  0  0  0  0  0  0  0  0  0  0  0
   11.2128    5.9534   -4.8137 H   0  0  0  0  0  0  0  0  0  0  0  0
   12.2458   10.1516   -2.5171 H   0  0  0  0  0  0  0  0  0  0  0  0
   10.9910    8.1385   -6.3972 N   0  0  0  0  0  0  0  0  0  0  0  0
   11.2314    9.3311   -7.1669 C   0  0  0  0  0  0  0  0  0  0  0  0
   10.7841    9.1572   -8.5795 C   0  0  0  0  0  0  0  0  0  0  0  0
   10.2523   10.2348   -9.2841 C   0  0  0  0  0  0  0  0  0  0  0  0
    9.8458   10.0683  -10.5865 C   0  0  0  0  0  0  0  0  0  0  0  0
    9.9353    8.8670  -11.2547 C   0  0  0  0  0  0  0  0  0  0  0  0
    9.5153    8.7339  -12.5700 O   0  0  0  0  0  0  0  0  0  0  0  0
    8.9833    9.8729  -13.2279 C   0  0  0  0  0  0  0  0  0  0  0  0
   10.4620    7.8074  -10.5511 C   0  0  0  0  0  0  0  0  0  0  0  0
   10.8784    7.9507   -9.2378 C   0  0  0  0  0  0  0  0  0  0  0  0
   10.5440    7.3289   -6.8657 H   0  0  0  0  0  0  0  0  0  0  0  0
   12.3219    9.5291   -7.2012 H   0  0  0  0  0  0  0  0  0  0  0  0
   10.6721   10.1794   -6.6924 H   0  0  0  0  0  0  0  0  0  0  0  0
   10.1850   11.1743   -8.7539 H   0  0  0  0  0  0  0  0  0  0  0  0
    9.4320   10.9167  -11.1269 H   0  0  0  0  0  0  0  0  0  0  0  0
    8.0527   10.1668  -12.6938 H   0  0  0  0  0  0  0  0  0  0  0  0
    8.7989    9.6498  -14.3036 H   0  0  0  0  0  0  0  0  0  0  0  0
    9.7401   10.6923  -13.1331 H   0  0  0  0  0  0  0  0  0  0  0  0
   10.5702    6.8242  -10.9969 H   0  0  0  0  0  0  0  0  0  0  0  0
   11.2899    7.0853   -8.7257 H   0  0  0  0  0  0  0  0  0  0  0  0
  1  6  2  0
  2  1  1  0
  3  4  1  0
  3  2  2  0
  4  5  2  0
  5  6  1  0
  1  7  1  0
  2  8  1  0
  5  9  1  0
 10 11  1  0
 11 12  1  0
 12 13  2  0
 13 14  1  0
 14 15  2  0
 15 16  1  0
 16 17  1  0
 15 18  1  0
 18 19  2  0
 19 12  1  0
 10 20  1  0
 11 21  1  0
 11 22  1  0
 13 23  1  0
 14 24  1  0
 17 25  1  0
 17 26  1  0
 17 27  1  0
 18 28  1  0
 19 29  1  0
  3 10  1  0
M  END
>  <Score>  (1) 
-7.33184

$$$$

     RDKit          3D

 24 25  0  0  0  0  0  0  0  0999 V2000
   11.8119    6.9274   -2.9654 C   0  0  0  0  0  0  0  0  0  0  0  0
   11.4350    6.8863   -4.3301 C   0  0  0  0  0  0  0  0  0  0  0  0
   11.3609    8.0921   -5.0272 C   0  0  0  0  0  0  0  0  0  0  0  0
   11.6533    9.2366   -4.3615 N   0  0  0  0  0  0  0  0  0  0  0  0
   12.0113    9.2519   -3.0572 C   0  0  0  0  0  0  0  0  0  0  0  0
   12.0895    8.1017   -2.3646 N   0  0  0  0  0  0  0  0  0  0  0  0
   11.8744    5.9965   -2.4078 H   0  0  0  0  0  0  0  0  0  0  0  0
   11.2191    5.9550   -4.7909 H   0  0  0  0  0  0  0  0  0  0  0  0
   12.2414   10.1664   -2.5384 H   0  0  0  0  0  0  0  0  0  0  0  0
   10.9824    8.1470   -6.4316 C   0  0  0  0  0  0  0  0  0  0  0  0
   11.4299    9.1073   -7.3093 C   0  0  0  0  0  0  0  0  0  0  0  0
   11.0096    9.0706   -8.6270 C   0  0  0  0  0  0  0  0  0  0  0  0
   10.1518    8.1022   -9.1044 C   0  0  0  0  0  0  0  0  0  0  0  0
    9.7005    7.1391   -8.2327 C   0  0  0  0  0  0  0  0  0  0  0  0
    8.7729    6.0593   -8.6685 C   0  0  0  0  0  0  0  0  0  0  0  0
    9.4675    4.9394   -9.1209 O   0  0  0  0  0  0  0  0  0  0  0  0
   10.1294    7.1918   -6.9259 C   0  0  0  0  0  0  0  0  0  0  0  0
   12.1052    9.8845   -6.9702 H   0  0  0  0  0  0  0  0  0  0  0  0
   11.3597    9.8316   -9.3378 H   0  0  0  0  0  0  0  0  0  0  0  0
    9.8288    8.0880  -10.1518 H   0  0  0  0  0  0  0  0  0  0  0  0
    8.0473    6.4183   -9.4258 H   0  0  0  0  0  0  0  0  0  0  0  0
    8.1703    5.7779   -7.7771 H   0  0  0  0  0  0  0  0  0  0  0  0
    9.5753    4.3319   -8.3576 H   0  0  0  0  0  0  0  0  0  0  0  0
    9.7489    6.4059   -6.2555 H   0  0  0  0  0  0  0  0  0  0  0  0
  1  6  2  0
  2  1  1  0
  3  4  1  0
  3  2  2  0
  4  5  2  0
  5  6  1  0
  1  7  1  0
  2  8  1  0
  5  9  1  0
 10 11  2  0
 11 12  1  0
 12 13  2  0
 13 14  1  0
 14 15  1  0
 15 16  1  0
 14 17  2  0
 17 10  1  0
 11 18  1  0
 12 19  1  0
 13 20  1  0
 15 21  1  0
 15 22  1  0
 16 23  1  0
 17 24  1  0
  3 10  1  0
M  END
>  <Score>  (1) 
-7.33132

$$$$

     RDKit          3D

 23 25  0  0  0  0  0  0  0  0999 V2000
   11.8112    6.9290   -2.9688 C   0  0  0  0  0  0  0  0  0  0  0  0
   11.4357    6.8785   -4.3248 C   0  0  0  0  0  0  0  0  0  0  0  0
   11.3602    8.0921   -5.0296 C   0  0  0  0  0  0  0  0  0  0  0  0
   11.6541    9.2435   -4.3613 N   0  0  0  0  0  0  0  0  0  0  0  0
   12.0119    9.2522   -3.0550 C   0  0  0  0  0  0  0  0  0  0  0  0
   12.0890    8.1008   -2.3664 N   0  0  0  0  0  0  0  0  0  0  0  0
   11.8701    6.0079   -2.4277 H   0  0  0  0  0  0  0  0  0  0  0  0
   11.2103    5.9713   -4.8289 H   0  0  0  0  0  0  0  0  0  0  0  0
   12.2457   10.1610   -2.5208 H   0  0  0  0  0  0  0  0  0  0  0  0
   10.9905    8.1009   -6.3854 N   0  0  0  0  0  0  0  0  0  0  0  0
   11.7544    8.5813   -7.3823 C   0  0  0  0  0  0  0  0  0  0  0  0
   11.0899    8.4289   -8.5387 N   0  0  0  0  0  0  0  0  0  0  0  0
    9.9069    7.8513   -8.2618 C   0  0  0  0  0  0  0  0  0  0  0  0
    8.8445    7.4691   -9.0543 C   0  0  0  0  0  0  0  0  0  0  0  0
    8.8958    7.6788  -10.4741 N   0  0  0  0  0  0  0  0  0  0  0  0
    7.7633    6.8970   -8.4642 N   0  0  0  0  0  0  0  0  0  0  0  0
    7.7097    6.6985   -7.1387 C   0  0  0  0  0  0  0  0  0  0  0  0
    8.7523    7.0731   -6.3578 N   0  0  0  0  0  0  0  0  0  0  0  0
    9.8394    7.6418   -6.9003 C   0  0  0  0  0  0  0  0  0  0  0  0
   12.7264    9.0113   -7.2700 H   0  0  0  0  0  0  0  0  0  0  0  0
    8.3926    7.0782  -11.1402 H   0  0  0  0  0  0  0  0  0  0  0  0
    9.4876    8.4960  -10.7983 H   0  0  0  0  0  0  0  0  0  0  0  0
    6.8266    6.2340   -6.6787 H   0  0  0  0  0  0  0  0  0  0  0  0
  1  6  2  0
  2  1  1  0
  3  4  1  0
  3  2  2  0
  4  5  2  0
  5  6  1  0
  1  7  1  0
  2  8  1  0
  5  9  1  0
 10 11  1  0
 11 12  2  0
 12 13  1  0
 13 14  2  0
 14 15  1  0
 14 16  1  0
 16 17  2  0
 17 18  1  0
 18 19  2  0
 19 10  1  0
 19 13  1  0
 11 20  1  0
 15 21  1  0
 15 22  1  0
 17 23  1  0
  3 10  1  0
M  END
>  <Score>  (1) 
-7.32488

$$$$

     RDKit          3D

 26 27  0  0  0  0  0  0  0  0999 V2000
   11.8120    6.9304   -2.9663 C   0  0  0  0  0  0  0  0  0  0  0  0
   11.4351    6.8798   -4.3275 C   0  0  0  0  0  0  0  0  0  0  0  0
   11.3601    8.0898   -5.0293 C   0  0  0  0  0  0  0  0  0  0  0  0
   11.6546    9.2445   -4.3596 N   0  0  0  0  0  0  0  0  0  0  0  0
   12.0115    9.2533   -3.0569 C   0  0  0  0  0  0  0  0  0  0  0  0
   12.0887    8.0982   -2.3664 N   0  0  0  0  0  0  0  0  0  0  0  0
   11.8751    6.0154   -2.4121 H   0  0  0  0  0  0  0  0  0  0  0  0
   11.2148    5.9407   -4.8017 H   0  0  0  0  0  0  0  0  0  0  0  0
   12.2349   10.2048   -2.5756 H   0  0  0  0  0  0  0  0  0  0  0  0
   10.8331    5.6495   -8.9768 H   0  0  0  0  0  0  0  0  0  0  0  0
   10.4606    6.6611   -9.2171 C   0  0  0  0  0  0  0  0  0  0  0  0
    9.6981    7.1947   -8.0253 C   0  0  1  0  0  0  0  0  0  0  0  0
   10.4059    6.9512   -6.8784 O   0  0  0  0  0  0  0  0  0  0  0  0
   10.9772    8.1193   -6.4407 C   0  0  1  0  0  0  0  0  0  0  0  0
    9.8492    9.1256   -6.7048 C   0  0  1  0  0  0  0  0  0  0  0  0
   10.3137   10.4258   -6.7158 O   0  0  0  0  0  0  0  0  0  0  0  0
    9.4601    8.6837   -8.1212 C   0  0  1  0  0  0  0  0  0  0  0  0
   10.4175    9.2065   -8.9842 O   0  0  0  0  0  0  0  0  0  0  0  0
    9.8425    6.6535  -10.1383 H   0  0  0  0  0  0  0  0  0  0  0  0
   11.3193    7.3255   -9.3914 H   0  0  0  0  0  0  0  0  0  0  0  0
    8.6956    6.6878   -8.0259 H   0  0  0  0  0  0  0  0  0  0  0  0
   11.8380    8.4555   -7.0434 H   0  0  0  0  0  0  0  0  0  0  0  0
    8.9823    8.9529   -6.0610 H   0  0  0  0  0  0  0  0  0  0  0  0
   10.5697   10.6601   -5.7954 H   0  0  0  0  0  0  0  0  0  0  0  0
    8.4356    8.9561   -8.3693 H   0  0  0  0  0  0  0  0  0  0  0  0
   10.1482   10.0166   -9.4452 H   0  0  0  0  0  0  0  0  0  0  0  0
  1  6  2  0
  2  1  1  0
  3  4  1  0
  3  2  2  0
  4  5  2  0
  5  6  1  0
  1  7  1  0
  2  8  1  0
  5  9  1  0
 10 11  1  0
 11 12  1  0
 12 13  1  0
 13 14  1  0
 14 15  1  0
 15 16  1  0
 15 17  1  0
 17 18  1  0
 17 12  1  0
 11 19  1  0
 11 20  1  0
 12 21  1  1
 14 22  1  6
 15 23  1  1
 16 24  1  0
 17 25  1  6
 18 26  1  0
  3 14  1  0
M  END
>  <Score>  (1) 
-7.32352

$$$$

     RDKit          3D

 31 32  0  0  0  0  0  0  0  0999 V2000
   11.8111    6.9278   -2.9686 C   0  0  0  0  0  0  0  0  0  0  0  0
   11.4352    6.8841   -4.3285 C   0  0  0  0  0  0  0  0  0  0  0  0
   11.3602    8.0851   -5.0273 C   0  0  0  0  0  0  0  0  0  0  0  0
   11.6544    9.2452   -4.3608 N   0  0  0  0  0  0  0  0  0  0  0  0
   12.0119    9.2523   -3.0551 C   0  0  0  0  0  0  0  0  0  0  0  0
   12.0892    8.1014   -2.3658 N   0  0  0  0  0  0  0  0  0  0  0  0
   11.8568    5.9841   -2.4679 H   0  0  0  0  0  0  0  0  0  0  0  0
   11.2099    5.9746   -4.8316 H   0  0  0  0  0  0  0  0  0  0  0  0
   12.2232   10.2170   -2.6228 H   0  0  0  0  0  0  0  0  0  0  0  0
   10.9885    8.1235   -6.4008 N   0  0  0  0  0  0  0  0  0  0  0  0
    9.6197    8.2571   -6.8374 C   0  0  0  0  0  0  0  0  0  0  0  0
    9.5721    8.2642   -8.3315 C   0  0  0  0  0  0  0  0  0  0  0  0
   10.0478    9.6291   -8.8024 C   0  0  0  0  0  0  0  0  0  0  0  0
    8.8988   10.5077   -9.1787 C   0  0  0  0  0  0  0  0  0  0  0  0
    8.1045   11.0062   -8.0182 C   0  0  0  0  0  0  0  0  0  0  0  0
    7.7688    9.9440   -7.0070 C   0  0  0  0  0  0  0  0  0  0  0  0
    8.9360    9.4558   -6.2239 C   0  0  0  0  0  0  0  0  0  0  0  0
   11.7540    8.0504   -7.1013 H   0  0  0  0  0  0  0  0  0  0  0  0
    9.0986    7.3124   -6.5032 H   0  0  0  0  0  0  0  0  0  0  0  0
    8.5854    8.0248   -8.7590 H   0  0  0  0  0  0  0  0  0  0  0  0
   10.2627    7.4568   -8.6859 H   0  0  0  0  0  0  0  0  0  0  0  0
   10.6903   10.1261   -8.0663 H   0  0  0  0  0  0  0  0  0  0  0  0
   10.6609    9.4655   -9.7122 H   0  0  0  0  0  0  0  0  0  0  0  0
    9.3290   11.4069   -9.6991 H   0  0  0  0  0  0  0  0  0  0  0  0
    8.2383   10.0236   -9.9163 H   0  0  0  0  0  0  0  0  0  0  0  0
    8.5525   11.9113   -7.5279 H   0  0  0  0  0  0  0  0  0  0  0  0
    7.1171   11.3672   -8.4293 H   0  0  0  0  0  0  0  0  0  0  0  0
    7.2186    9.1427   -7.5080 H   0  0  0  0  0  0  0  0  0  0  0  0
    7.0441   10.4195   -6.2847 H   0  0  0  0  0  0  0  0  0  0  0  0
    8.5690    9.1459   -5.2188 H   0  0  0  0  0  0  0  0  0  0  0  0
    9.6697   10.2639   -6.0612 H   0  0  0  0  0  0  0  0  0  0  0  0
  1  6  2  0
  2  1  1  0
  3  4  1  0
  3  2  2  0
  4  5  2  0
  5  6  1  0
  1  7  1  0
  2  8  1  0
  5  9  1  0
 10 11  1  0
 11 12  1  0
 12 13  1  0
 13 14  1  0
 14 15  1  0
 15 16  1  0
 16 17  1  0
 17 11  1  0
 10 18  1  0
 11 19  1  0
 12 20  1  0
 12 21  1  0
 13 22  1  0
 13 23  1  0
 14 24  1  0
 14 25  1  0
 15 26  1  0
 15 27  1  0
 16 28  1  0
 16 29  1  0
 17 30  1  0
 17 31  1  0
  3 10  1  0
M  END
>  <Score>  (1) 
-7.32314

$$$$

     RDKit          3D

 24 26  0  0  0  0  0  0  0  0999 V2000
   11.8116    6.9290   -2.9671 C   0  0  0  0  0  0  0  0  0  0  0  0
   11.4353    6.8812   -4.3271 C   0  0  0  0  0  0  0  0  0  0  0  0
   11.3605    8.0922   -5.0286 C   0  0  0  0  0  0  0  0  0  0  0  0
   11.6533    9.2406   -4.3630 N   0  0  0  0  0  0  0  0  0  0  0  0
   12.0122    9.2527   -3.0542 C   0  0  0  0  0  0  0  0  0  0  0  0
   12.0890    8.1003   -2.3661 N   0  0  0  0  0  0  0  0  0  0  0  0
   11.8790    6.0141   -2.3974 H   0  0  0  0  0  0  0  0  0  0  0  0
   11.2121    5.9602   -4.8185 H   0  0  0  0  0  0  0  0  0  0  0  0
   12.2454   10.1560   -2.5202 H   0  0  0  0  0  0  0  0  0  0  0  0
    6.2073    6.2988   -8.6349 H   0  0  0  0  0  0  0  0  0  0  0  0
    7.0633    6.6010   -8.0675 C   0  0  0  0  0  0  0  0  0  0  0  0
    7.0684    6.4403   -6.8311 O   0  0  0  0  0  0  0  0  0  0  0  0
    8.2067    7.1910   -8.7249 C   0  0  0  0  0  0  0  0  0  0  0  0
    8.4129    7.4585  -10.0647 C   0  0  0  0  0  0  0  0  0  0  0  0
    9.6189    8.0082  -10.2071 N   0  0  0  0  0  0  0  0  0  0  0  0
   10.2265    8.1205   -9.0301 N   0  0  0  0  0  0  0  0  0  0  0  0
   11.4423    8.6155   -8.7245 C   0  0  0  0  0  0  0  0  0  0  0  0
   11.8336    8.6118   -7.3893 C   0  0  0  0  0  0  0  0  0  0  0  0
   10.9775    8.1091   -6.4360 C   0  0  0  0  0  0  0  0  0  0  0  0
    9.7858    7.6362   -6.8293 N   0  0  0  0  0  0  0  0  0  0  0  0
    9.3816    7.6268   -8.1072 C   0  0  0  0  0  0  0  0  0  0  0  0
    7.6653    7.2298  -10.8269 H   0  0  0  0  0  0  0  0  0  0  0  0
   12.1051    9.0084   -9.4909 H   0  0  0  0  0  0  0  0  0  0  0  0
   12.8236    9.0128   -7.1251 H   0  0  0  0  0  0  0  0  0  0  0  0
  1  6  2  0
  2  1  1  0
  3  4  1  0
  3  2  2  0
  4  5  2  0
  5  6  1  0
  1  7  1  0
  2  8  1  0
  5  9  1  0
 10 11  1  0
 11 12  2  0
 11 13  1  0
 13 14  1  0
 14 15  2  0
 15 16  1  0
 16 17  1  0
 17 18  2  0
 18 19  1  0
 19 20  2  0
 20 21  1  0
 21 13  2  0
 21 16  1  0
 14 22  1  0
 17 23  1  0
 18 24  1  0
  3 19  1  0
M  END
>  <Score>  (1) 
-7.32191

$$$$

     RDKit          3D

 23 25  0  0  0  0  0  0  0  0999 V2000
   12.3025    8.1254   -2.3020 C   0  0  0  0  0  0  0  0  0  0  0  0
   12.0204    6.8810   -2.9153 C   0  0  0  0  0  0  0  0  0  0  0  0
   11.5254    6.8983   -4.2224 C   0  0  0  0  0  0  0  0  0  0  0  0
   11.3435    8.1094   -4.8285 N   0  0  0  0  0  0  0  0  0  0  0  0
   11.6228    9.2792   -4.2145 C   0  0  0  0  0  0  0  0  0  0  0  0
   12.1004    9.2778   -2.9554 N   0  0  0  0  0  0  0  0  0  0  0  0
   12.6792    8.0635   -1.3023 H   0  0  0  0  0  0  0  0  0  0  0  0
   12.1888    5.9585   -2.3749 H   0  0  0  0  0  0  0  0  0  0  0  0
   11.3060    5.9697   -4.7036 H   0  0  0  0  0  0  0  0  0  0  0  0
   11.4013   10.5252   -4.9288 C   0  0  0  0  0  0  0  0  0  0  0  0
   10.2011   10.9702   -5.4275 C   0  0  0  0  0  0  0  0  0  0  0  0
   10.3586   12.1418   -6.0197 N   0  0  0  0  0  0  0  0  0  0  0  0
   11.6796   12.4652   -5.9054 C   0  0  0  0  0  0  0  0  0  0  0  0
   12.2968   13.5919   -6.3737 C   0  0  0  0  0  0  0  0  0  0  0  0
   13.6485   13.7301   -6.1539 C   0  0  0  0  0  0  0  0  0  0  0  0
   14.1989   14.6018   -6.5003 H   0  0  0  0  0  0  0  0  0  0  0  0
   14.2808   12.7128   -5.4726 C   0  0  0  0  0  0  0  0  0  0  0  0
   13.6191   11.5970   -5.0198 C   0  0  0  0  0  0  0  0  0  0  0  0
   12.3054   11.4862   -5.2461 N   0  0  0  0  0  0  0  0  0  0  0  0
    9.2236   10.4720   -5.3736 H   0  0  0  0  0  0  0  0  0  0  0  0
   11.7562   14.3812   -6.9131 H   0  0  0  0  0  0  0  0  0  0  0  0
   15.3598   12.8036   -5.2867 H   0  0  0  0  0  0  0  0  0  0  0  0
   14.1319   10.8016   -4.4831 H   0  0  0  0  0  0  0  0  0  0  0  0
  2  1  2  0
  3  2  1  0
  4  3  2  0
  4  5  1  0
  5  6  2  0
  6  1  1  0
  1  7  1  0
  2  8  1  0
  3  9  1  0
 10 11  2  0
 11 12  1  0
 12 13  2  0
 13 14  1  0
 14 15  2  0
 15 16  1  0
 15 17  1  0
 17 18  2  0
 18 19  1  0
 19 10  1  0
 19 13  1  0
 11 20  1  0
 14 21  1  0
 17 22  1  0
 18 23  1  0
  5 10  1  0
M  END
>  <Score>  (1) 
-7.64162

$$$$

     RDKit          3D

 22 23  0  0  0  0  0  0  0  0999 V2000
   11.8108    6.9263   -2.9690 C   0  0  0  0  0  0  0  0  0  0  0  0
   11.4357    6.8863   -4.3276 C   0  0  0  0  0  0  0  0  0  0  0  0
   11.3604    8.0879   -5.0274 C   0  0  0  0  0  0  0  0  0  0  0  0
   11.6537    9.2407   -4.3615 N   0  0  0  0  0  0  0  0  0  0  0  0
   12.0118    9.2525   -3.0557 C   0  0  0  0  0  0  0  0  0  0  0  0
   12.0896    8.1022   -2.3647 N   0  0  0  0  0  0  0  0  0  0  0  0
   11.8801    6.0151   -2.3937 H   0  0  0  0  0  0  0  0  0  0  0  0
   11.2241    5.9494   -4.7709 H   0  0  0  0  0  0  0  0  0  0  0  0
   12.2428   10.1674   -2.5335 H   0  0  0  0  0  0  0  0  0  0  0  0
   10.9801    8.1274   -6.4331 C   0  0  0  0  0  0  0  0  0  0  0  0
   11.4756    9.1217   -7.2504 C   0  0  0  0  0  0  0  0  0  0  0  0
   11.1440    9.2026   -8.5938 C   0  0  0  0  0  0  0  0  0  0  0  0
   10.3154    8.2696   -9.0753 N   0  0  0  0  0  0  0  0  0  0  0  0
    9.7972    7.2800   -8.3479 C   0  0  0  0  0  0  0  0  0  0  0  0
    8.8966    6.3198   -9.0080 C   0  0  0  0  0  0  0  0  0  0  0  0
   10.1352    7.2106   -7.0117 C   0  0  0  0  0  0  0  0  0  0  0  0
   12.1419    9.8663   -6.8489 H   0  0  0  0  0  0  0  0  0  0  0  0
   11.5169    9.9688   -9.2538 H   0  0  0  0  0  0  0  0  0  0  0  0
    7.8801    6.7964   -9.0885 H   0  0  0  0  0  0  0  0  0  0  0  0
    8.8543    5.3377   -8.5238 H   0  0  0  0  0  0  0  0  0  0  0  0
    9.2104    6.1473  -10.0638 H   0  0  0  0  0  0  0  0  0  0  0  0
    9.7133    6.4141   -6.4425 H   0  0  0  0  0  0  0  0  0  0  0  0
  1  6  2  0
  2  1  1  0
  3  4  1  0
  3  2  2  0
  4  5  2  0
  5  6  1  0
  1  7  1  0
  2  8  1  0
  5  9  1  0
 10 11  2  0
 11 12  1  0
 12 13  2  0
 13 14  1  0
 14 15  1  0
 14 16  2  0
 16 10  1  0
 11 17  1  0
 12 18  1  0
 15 19  1  0
 15 20  1  0
 15 21  1  0
 16 22  1  0
  3 10  1  0
M  END
>  <Score>  (1) 
-7.32059

$$$$

     RDKit          3D

 29 30  0  0  0  0  0  0  0  0999 V2000
   11.8124    6.9309   -2.9650 C   0  0  0  0  0  0  0  0  0  0  0  0
   11.4347    6.8808   -4.3293 C   0  0  0  0  0  0  0  0  0  0  0  0
   11.3603    8.0890   -5.0282 C   0  0  0  0  0  0  0  0  0  0  0  0
   11.6544    9.2442   -4.3603 N   0  0  0  0  0  0  0  0  0  0  0  0
   12.0116    9.2537   -3.0568 C   0  0  0  0  0  0  0  0  0  0  0  0
   12.0886    8.0975   -2.3665 N   0  0  0  0  0  0  0  0  0  0  0  0
   11.8532    5.9691   -2.4759 H   0  0  0  0  0  0  0  0  0  0  0  0
   11.2139    5.9540   -4.8096 H   0  0  0  0  0  0  0  0  0  0  0  0
   12.2426   10.1738   -2.5367 H   0  0  0  0  0  0  0  0  0  0  0  0
   10.9929    8.1039   -6.3778 N   0  0  0  0  0  0  0  0  0  0  0  0
    9.7241    7.6004   -6.8015 C   0  0  0  0  0  0  0  0  0  0  0  0
    9.5182    7.6997   -8.2530 C   0  0  0  0  0  0  0  0  0  0  0  0
    8.9487    8.8067   -8.8441 C   0  0  0  0  0  0  0  0  0  0  0  0
    8.7861    8.8307  -10.2145 C   0  0  0  0  0  0  0  0  0  0  0  0
    9.1901    7.7515  -11.0039 C   0  0  0  0  0  0  0  0  0  0  0  0
    9.7507    6.6663  -10.4043 C   0  0  0  0  0  0  0  0  0  0  0  0
   10.1660    5.5677  -11.1718 O   0  0  0  0  0  0  0  0  0  0  0  0
   10.7448    4.4443  -10.5649 C   0  0  0  0  0  0  0  0  0  0  0  0
    9.9113    6.6436   -9.0464 C   0  0  0  0  0  0  0  0  0  0  0  0
   11.6502    8.4870   -7.0913 H   0  0  0  0  0  0  0  0  0  0  0  0
    9.6315    6.5465   -6.4521 H   0  0  0  0  0  0  0  0  0  0  0  0
    8.9274    8.1609   -6.2307 H   0  0  0  0  0  0  0  0  0  0  0  0
    8.6250    9.6640   -8.2410 H   0  0  0  0  0  0  0  0  0  0  0  0
    8.3488    9.6702  -10.7103 H   0  0  0  0  0  0  0  0  0  0  0  0
    9.0604    7.7744  -12.0816 H   0  0  0  0  0  0  0  0  0  0  0  0
   10.0467    3.8766   -9.9177 H   0  0  0  0  0  0  0  0  0  0  0  0
   11.6029    4.7307   -9.9038 H   0  0  0  0  0  0  0  0  0  0  0  0
   11.1404    3.7987  -11.4009 H   0  0  0  0  0  0  0  0  0  0  0  0
   10.3697    5.7415   -8.6173 H   0  0  0  0  0  0  0  0  0  0  0  0
  1  6  2  0
  2  1  1  0
  3  4  1  0
  3  2  2  0
  4  5  2  0
  5  6  1  0
  1  7  1  0
  2  8  1  0
  5  9  1  0
 10 11  1  0
 11 12  1  0
 12 13  2  0
 13 14  1  0
 14 15  2  0
 15 16  1  0
 16 17  1  0
 17 18  1  0
 16 19  2  0
 19 12  1  0
 10 20  1  0
 11 21  1  0
 11 22  1  0
 13 23  1  0
 14 24  1  0
 15 25  1  0
 18 26  1  0
 18 27  1  0
 18 28  1  0
 19 29  1  0
  3 10  1  0
M  END
>  <Score>  (1) 
-7.31848

$$$$

     RDKit          3D

 26 27  0  0  0  0  0  0  0  0999 V2000
   11.8115    6.9296   -2.9679 C   0  0  0  0  0  0  0  0  0  0  0  0
   11.4355    6.8787   -4.3257 C   0  0  0  0  0  0  0  0  0  0  0  0
   11.3602    8.0917   -5.0294 C   0  0  0  0  0  0  0  0  0  0  0  0
   11.6542    9.2435   -4.3610 N   0  0  0  0  0  0  0  0  0  0  0  0
   12.0118    9.2526   -3.0556 C   0  0  0  0  0  0  0  0  0  0  0  0
   12.0889    8.0998   -2.3664 N   0  0  0  0  0  0  0  0  0  0  0  0
   11.8536    5.9765   -2.4773 H   0  0  0  0  0  0  0  0  0  0  0  0
   11.2109    5.9734   -4.8276 H   0  0  0  0  0  0  0  0  0  0  0  0
   12.2448   10.1578   -2.5231 H   0  0  0  0  0  0  0  0  0  0  0  0
    9.8922    7.9358   -9.9704 H   0  0  0  0  0  0  0  0  0  0  0  0
   10.5371    7.4329   -9.1984 C   0  0  0  0  0  0  0  0  0  0  0  0
    9.6823    7.2013   -7.9964 C   0  0  1  0  0  0  0  0  0  0  0  0
   10.4004    6.8891   -6.8552 O   0  0  0  0  0  0  0  0  0  0  0  0
   10.9723    8.0887   -6.4477 C   0  0  1  0  0  0  0  0  0  0  0  0
    9.9742    9.1815   -6.7730 C   0  0  1  0  0  0  0  0  0  0  0  0
   10.5807   10.1473   -7.5709 O   0  0  0  0  0  0  0  0  0  0  0  0
    8.9203    8.4339   -7.5605 C   0  0  2  0  0  0  0  0  0  0  0  0
    7.9485    7.9876   -6.6386 O   0  0  0  0  0  0  0  0  0  0  0  0
   10.8771    6.4491   -9.5725 H   0  0  0  0  0  0  0  0  0  0  0  0
   11.4009    8.0736   -9.0440 H   0  0  0  0  0  0  0  0  0  0  0  0
    8.9291    6.4345   -8.2526 H   0  0  0  0  0  0  0  0  0  0  0  0
   11.8894    8.2215   -7.0669 H   0  0  0  0  0  0  0  0  0  0  0  0
    9.5498    9.6497   -5.8709 H   0  0  0  0  0  0  0  0  0  0  0  0
   10.1625   10.2126   -8.4676 H   0  0  0  0  0  0  0  0  0  0  0  0
    8.4931    9.0054   -8.3804 H   0  0  0  0  0  0  0  0  0  0  0  0
    7.5827    7.1188   -6.9452 H   0  0  0  0  0  0  0  0  0  0  0  0
  1  6  2  0
  2  1  1  0
  3  4  1  0
  3  2  2  0
  4  5  2  0
  5  6  1  0
  1  7  1  0
  2  8  1  0
  5  9  1  0
 10 11  1  0
 11 12  1  0
 12 13  1  0
 13 14  1  0
 14 15  1  0
 15 16  1  0
 15 17  1  0
 17 18  1  0
 17 12  1  0
 11 19  1  0
 11 20  1  0
 12 21  1  6
 14 22  1  6
 15 23  1  1
 16 24  1  0
 17 25  1  6
 18 26  1  0
  3 14  1  0
M  END
>  <Score>  (1) 
-7.30094

$$$$

     RDKit          3D

 24 25  0  0  0  0  0  0  0  0999 V2000
   11.8136    6.9331   -2.9614 C   0  0  0  0  0  0  0  0  0  0  0  0
   11.4351    6.8842   -4.3291 C   0  0  0  0  0  0  0  0  0  0  0  0
   11.3593    8.0903   -5.0325 C   0  0  0  0  0  0  0  0  0  0  0  0
   11.6555    9.2400   -4.3547 N   0  0  0  0  0  0  0  0  0  0  0  0
   12.0105    9.2517   -3.0600 C   0  0  0  0  0  0  0  0  0  0  0  0
   12.0880    8.0967   -2.3684 N   0  0  0  0  0  0  0  0  0  0  0  0
   11.8658    5.9754   -2.4320 H   0  0  0  0  0  0  0  0  0  0  0  0
   11.2168    5.9517   -4.7982 H   0  0  0  0  0  0  0  0  0  0  0  0
   12.2426   10.1663   -2.5338 H   0  0  0  0  0  0  0  0  0  0  0  0
   10.9794    8.1375   -6.4393 C   0  0  0  0  0  0  0  0  0  0  0  0
    9.6407    8.2714   -6.7364 C   0  0  0  0  0  0  0  0  0  0  0  0
    9.2399    8.3200   -8.0526 C   0  0  0  0  0  0  0  0  0  0  0  0
   10.1678    8.2359   -9.0972 C   0  0  0  0  0  0  0  0  0  0  0  0
    9.7247    8.2886  -10.4003 O   0  0  0  0  0  0  0  0  0  0  0  0
   10.6743    8.2023  -11.4412 C   0  0  0  0  0  0  0  0  0  0  0  0
   11.5021    8.1024   -8.8127 C   0  0  0  0  0  0  0  0  0  0  0  0
   11.8810    8.0559   -7.4733 C   0  0  0  0  0  0  0  0  0  0  0  0
    8.8952    8.3392   -5.9299 H   0  0  0  0  0  0  0  0  0  0  0  0
    8.1931    8.4245   -8.2582 H   0  0  0  0  0  0  0  0  0  0  0  0
   10.1287    8.1738  -12.4151 H   0  0  0  0  0  0  0  0  0  0  0  0
   11.2802    9.1519  -11.3822 H   0  0  0  0  0  0  0  0  0  0  0  0
   11.3470    7.3165  -11.3325 H   0  0  0  0  0  0  0  0  0  0  0  0
   12.2212    8.0372   -9.6170 H   0  0  0  0  0  0  0  0  0  0  0  0
   12.9287    7.9513   -7.2772 H   0  0  0  0  0  0  0  0  0  0  0  0
  1  6  2  0
  2  1  1  0
  3  4  1  0
  3  2  2  0
  4  5  2  0
  5  6  1  0
  1  7  1  0
  2  8  1  0
  5  9  1  0
 10 11  2  0
 11 12  1  0
 12 13  2  0
 13 14  1  0
 14 15  1  0
 13 16  1  0
 16 17  2  0
 17 10  1  0
 11 18  1  0
 12 19  1  0
 15 20  1  0
 15 21  1  0
 15 22  1  0
 16 23  1  0
 17 24  1  0
  3 10  1  0
M  END
>  <Score>  (1) 
-7.29112

$$$$

     RDKit          3D

 23 25  0  0  0  0  0  0  0  0999 V2000
   11.8110    6.9291   -2.9695 C   0  0  0  0  0  0  0  0  0  0  0  0
   11.4362    6.8800   -4.3234 C   0  0  0  0  0  0  0  0  0  0  0  0
   11.3607    8.0960   -5.0295 C   0  0  0  0  0  0  0  0  0  0  0  0
   11.6525    9.2377   -4.3650 N   0  0  0  0  0  0  0  0  0  0  0  0
   12.0126    9.2527   -3.0527 C   0  0  0  0  0  0  0  0  0  0  0  0
   12.0891    8.1004   -2.3659 N   0  0  0  0  0  0  0  0  0  0  0  0
   11.8709    5.9987   -2.4214 H   0  0  0  0  0  0  0  0  0  0  0  0
   11.2120    5.9572   -4.8177 H   0  0  0  0  0  0  0  0  0  0  0  0
   12.2233   10.2230   -2.6245 H   0  0  0  0  0  0  0  0  0  0  0  0
   10.9767    8.0584   -6.4210 C   0  0  0  0  0  0  0  0  0  0  0  0
   11.1171    9.0676   -7.3479 C   0  0  0  0  0  0  0  0  0  0  0  0
   10.6401    8.6393   -8.5255 N   0  0  0  0  0  0  0  0  0  0  0  0
   10.2057    7.3905   -8.3601 C   0  0  0  0  0  0  0  0  0  0  0  0
    9.6348    6.5320   -9.2715 C   0  0  0  0  0  0  0  0  0  0  0  0
    9.2422    5.2600   -8.9155 C   0  0  0  0  0  0  0  0  0  0  0  0
    8.7908    4.5704   -9.6203 H   0  0  0  0  0  0  0  0  0  0  0  0
    9.4509    4.8959   -7.6046 C   0  0  0  0  0  0  0  0  0  0  0  0
   10.0250    5.7789   -6.7167 C   0  0  0  0  0  0  0  0  0  0  0  0
   10.4101    7.0325   -7.0746 N   0  0  0  0  0  0  0  0  0  0  0  0
   11.5393   10.0696   -7.2030 H   0  0  0  0  0  0  0  0  0  0  0  0
    9.4785    6.8481  -10.3154 H   0  0  0  0  0  0  0  0  0  0  0  0
    9.1763    3.9242   -7.2373 H   0  0  0  0  0  0  0  0  0  0  0  0
   10.2020    5.5178   -5.6741 H   0  0  0  0  0  0  0  0  0  0  0  0
  1  6  2  0
  2  1  1  0
  3  4  1  0
  3  2  2  0
  4  5  2  0
  5  6  1  0
  1  7  1  0
  2  8  1  0
  5  9  1  0
 10 11  2  0
 11 12  1  0
 12 13  2  0
 13 14  1  0
 14 15  2  0
 15 16  1  0
 15 17  1  0
 17 18  2  0
 18 19  1  0
 19 10  1  0
 19 13  1  0
 11 20  1  0
 14 21  1  0
 17 22  1  0
 18 23  1  0
  3 10  1  0
M  END
>  <Score>  (1) 
-7.2896

$$$$

     RDKit          3D

 22 23  0  0  0  0  0  0  0  0999 V2000
   11.8104    6.9288   -2.9715 C   0  0  0  0  0  0  0  0  0  0  0  0
   11.4379    6.8883   -4.3202 C   0  0  0  0  0  0  0  0  0  0  0  0
   11.3585    8.0915   -5.0356 C   0  0  0  0  0  0  0  0  0  0  0  0
   11.6553    9.2329   -4.3531 N   0  0  0  0  0  0  0  0  0  0  0  0
   12.0111    9.2534   -3.0586 C   0  0  0  0  0  0  0  0  0  0  0  0
   12.0888    8.1012   -2.3669 N   0  0  0  0  0  0  0  0  0  0  0  0
   11.8763    5.9959   -2.4008 H   0  0  0  0  0  0  0  0  0  0  0  0
   11.2102    5.9721   -4.8297 H   0  0  0  0  0  0  0  0  0  0  0  0
   12.2393   10.1916   -2.5550 H   0  0  0  0  0  0  0  0  0  0  0  0
   10.9853    8.0415   -6.3837 N   0  0  0  0  0  0  0  0  0  0  0  0
   10.8389    9.0972   -7.2927 C   0  0  0  0  0  0  0  0  0  0  0  0
   11.0541   10.4132   -6.9707 C   0  0  0  0  0  0  0  0  0  0  0  0
   10.8968   11.4392   -7.9094 C   0  0  0  0  0  0  0  0  0  0  0  0
   10.5138   11.1041   -9.1926 C   0  0  0  0  0  0  0  0  0  0  0  0
   10.2888    9.8089   -9.5577 C   0  0  0  0  0  0  0  0  0  0  0  0
   10.4518    8.8246   -8.6129 C   0  0  0  0  0  0  0  0  0  0  0  0
   10.1473    7.1698   -9.1419 Cl  0  0  0  0  0  0  0  0  0  0  0  0
   10.7811    7.0732   -6.7883 H   0  0  0  0  0  0  0  0  0  0  0  0
   11.3535   10.7454   -5.9927 H   0  0  0  0  0  0  0  0  0  0  0  0
   11.0728   12.4766   -7.6321 H   0  0  0  0  0  0  0  0  0  0  0  0
   10.3780   11.8683   -9.9596 H   0  0  0  0  0  0  0  0  0  0  0  0
    9.9869    9.5677  -10.5770 H   0  0  0  0  0  0  0  0  0  0  0  0
  1  6  2  0
  2  1  1  0
  3  4  1  0
  3  2  2  0
  4  5  2  0
  5  6  1  0
  1  7  1  0
  2  8  1  0
  5  9  1  0
 10 11  1  0
 11 12  2  0
 12 13  1  0
 13 14  2  0
 14 15  1  0
 15 16  2  0
 16 17  1  0
 16 11  1  0
 10 18  1  0
 12 19  1  0
 13 20  1  0
 14 21  1  0
 15 22  1  0
  3 10  1  0
M  END
>  <Score>  (1) 
-7.28833

$$$$

     RDKit          3D

 22 23  0  0  0  0  0  0  0  0999 V2000
   11.8113    6.9324   -2.9696 C   0  0  0  0  0  0  0  0  0  0  0  0
   11.4358    6.8769   -4.3239 C   0  0  0  0  0  0  0  0  0  0  0  0
   11.3615    8.0964   -5.0263 C   0  0  0  0  0  0  0  0  0  0  0  0
   11.6524    9.2405   -4.3663 N   0  0  0  0  0  0  0  0  0  0  0  0
   12.0123    9.2518   -3.0537 C   0  0  0  0  0  0  0  0  0  0  0  0
   12.0887    8.0980   -2.3662 N   0  0  0  0  0  0  0  0  0  0  0  0
   11.8768    6.0142   -2.4053 H   0  0  0  0  0  0  0  0  0  0  0  0
   11.2111    5.9624   -4.8230 H   0  0  0  0  0  0  0  0  0  0  0  0
   12.2454   10.1601   -2.5217 H   0  0  0  0  0  0  0  0  0  0  0  0
   10.9786    8.1036   -6.4299 C   0  0  0  0  0  0  0  0  0  0  0  0
   11.4865    9.0969   -7.2342 C   0  0  0  0  0  0  0  0  0  0  0  0
   11.1613    9.1656   -8.5922 C   0  0  0  0  0  0  0  0  0  0  0  0
   10.3139    8.2180   -9.1369 C   0  0  0  0  0  0  0  0  0  0  0  0
    9.8247    7.2372   -8.2984 C   0  0  0  0  0  0  0  0  0  0  0  0
    8.8997    6.1605   -8.7806 C   0  0  0  0  0  0  0  0  0  0  0  0
   10.1616    7.1972   -6.9745 N   0  0  0  0  0  0  0  0  0  0  0  0
   12.1548    9.8711   -6.8758 H   0  0  0  0  0  0  0  0  0  0  0  0
   11.5631    9.9484   -9.2204 H   0  0  0  0  0  0  0  0  0  0  0  0
   10.0249    8.2187  -10.1836 H   0  0  0  0  0  0  0  0  0  0  0  0
    7.8891    6.3369   -8.3335 H   0  0  0  0  0  0  0  0  0  0  0  0
    8.8841    6.1039   -9.8701 H   0  0  0  0  0  0  0  0  0  0  0  0
    9.2231    5.1655   -8.3552 H   0  0  0  0  0  0  0  0  0  0  0  0
  1  6  2  0
  2  1  1  0
  3  4  1  0
  3  2  2  0
  4  5  2  0
  5  6  1  0
  1  7  1  0
  2  8  1  0
  5  9  1  0
 10 11  2  0
 11 12  1  0
 12 13  2  0
 13 14  1  0
 14 15  1  0
 14 16  2  0
 16 10  1  0
 11 17  1  0
 12 18  1  0
 13 19  1  0
 15 20  1  0
 15 21  1  0
 15 22  1  0
  3 10  1  0
M  END
>  <Score>  (1) 
-7.28037

$$$$

     RDKit          3D

 32 33  0  0  0  0  0  0  0  0999 V2000
   11.8117    6.9300   -2.9672 C   0  0  0  0  0  0  0  0  0  0  0  0
   11.4353    6.8790   -4.3263 C   0  0  0  0  0  0  0  0  0  0  0  0
   11.3601    8.0911   -5.0296 C   0  0  0  0  0  0  0  0  0  0  0  0
   11.6544    9.2440   -4.3602 N   0  0  0  0  0  0  0  0  0  0  0  0
   12.0116    9.2529   -3.0564 C   0  0  0  0  0  0  0  0  0  0  0  0
   12.0888    8.0990   -2.3664 N   0  0  0  0  0  0  0  0  0  0  0  0
   11.8711    5.9961   -2.4199 H   0  0  0  0  0  0  0  0  0  0  0  0
   11.2129    5.9575   -4.8146 H   0  0  0  0  0  0  0  0  0  0  0  0
   12.2453   10.1631   -2.5230 H   0  0  0  0  0  0  0  0  0  0  0  0
   10.9968    8.0582   -6.3474 O   0  0  0  0  0  0  0  0  0  0  0  0
   10.3188    9.0896   -6.9911 C   0  0  1  0  0  0  0  0  0  0  0  0
   10.9896    9.6443   -8.0470 O   0  0  0  0  0  0  0  0  0  0  0  0
   11.0548    8.9338   -9.1908 C   0  0  2  0  0  0  0  0  0  0  0  0
   11.1488    9.9419  -10.3464 C   0  0  0  0  0  0  0  0  0  0  0  0
   12.2832   10.7256  -10.1994 O   0  0  0  0  0  0  0  0  0  0  0  0
    9.9702    7.9929   -9.5045 C   0  0  1  0  0  0  0  0  0  0  0  0
   10.4904    6.9062  -10.2439 O   0  0  0  0  0  0  0  0  0  0  0  0
    9.2363    7.4211   -8.3398 C   0  0  2  0  0  0  0  0  0  0  0  0
    8.0638    6.8373   -8.8081 O   0  0  0  0  0  0  0  0  0  0  0  0
    8.9388    8.5755   -7.3907 C   0  0  2  0  0  0  0  0  0  0  0  0
    8.2333    9.5761   -8.0791 O   0  0  0  0  0  0  0  0  0  0  0  0
   10.1460    9.9035   -6.2400 H   0  0  0  0  0  0  0  0  0  0  0  0
   12.0348    8.3760   -9.2111 H   0  0  0  0  0  0  0  0  0  0  0  0
   11.1495    9.3791  -11.2846 H   0  0  0  0  0  0  0  0  0  0  0  0
   10.2225   10.5771  -10.3023 H   0  0  0  0  0  0  0  0  0  0  0  0
   12.6721   10.5497   -9.3237 H   0  0  0  0  0  0  0  0  0  0  0  0
    9.2059    8.4574  -10.1884 H   0  0  0  0  0  0  0  0  0  0  0  0
    9.8012    6.1898  -10.2632 H   0  0  0  0  0  0  0  0  0  0  0  0
    9.8471    6.6780   -7.8078 H   0  0  0  0  0  0  0  0  0  0  0  0
    7.6258    7.4741   -9.4396 H   0  0  0  0  0  0  0  0  0  0  0  0
    8.4128    8.2200   -6.5011 H   0  0  0  0  0  0  0  0  0  0  0  0
    7.4967    9.9143   -7.5157 H   0  0  0  0  0  0  0  0  0  0  0  0
  1  6  2  0
  2  1  1  0
  3  4  1  0
  3  2  2  0
  4  5  2  0
  5  6  1  0
  1  7  1  0
  2  8  1  0
  5  9  1  0
 10 11  1  0
 11 12  1  0
 12 13  1  0
 13 14  1  0
 14 15  1  0
 13 16  1  0
 16 17  1  0
 16 18  1  0
 18 19  1  0
 18 20  1  0
 20 21  1  0
 20 11  1  0
 11 22  1  1
 13 23  1  1
 14 24  1  0
 14 25  1  0
 15 26  1  0
 16 27  1  6
 17 28  1  0
 18 29  1  1
 19 30  1  0
 20 31  1  1
 21 32  1  0
  3 10  1  0
M  END
>  <Score>  (1) 
-7.27808

$$$$

     RDKit          3D

 25 26  0  0  0  0  0  0  0  0999 V2000
   11.8117    6.9296   -2.9670 C   0  0  0  0  0  0  0  0  0  0  0  0
   11.4351    6.8790   -4.3270 C   0  0  0  0  0  0  0  0  0  0  0  0
   11.3608    8.0931   -5.0279 C   0  0  0  0  0  0  0  0  0  0  0  0
   11.6532    9.2418   -4.3637 N   0  0  0  0  0  0  0  0  0  0  0  0
   12.0123    9.2523   -3.0538 C   0  0  0  0  0  0  0  0  0  0  0  0
   12.0888    8.1002   -2.3666 N   0  0  0  0  0  0  0  0  0  0  0  0
   11.8551    5.9748   -2.4706 H   0  0  0  0  0  0  0  0  0  0  0  0
   11.2152    5.9343   -4.7979 H   0  0  0  0  0  0  0  0  0  0  0  0
   12.2314   10.2152   -2.5923 H   0  0  0  0  0  0  0  0  0  0  0  0
   12.5960    8.4104   -9.8689 H   0  0  0  0  0  0  0  0  0  0  0  0
   12.0683    7.4859   -9.6657 C   0  0  0  0  0  0  0  0  0  0  0  0
   11.8037    6.7788  -10.6235 O   0  0  0  0  0  0  0  0  0  0  0  0
   11.6594    7.0415   -8.3232 C   0  0  1  0  0  0  0  0  0  0  0  0
   12.0025    7.9035   -7.3215 O   0  0  0  0  0  0  0  0  0  0  0  0
   10.9698    8.0390   -6.4393 C   0  0  1  0  0  0  0  0  0  0  0  0
    9.9836    6.9036   -6.7153 C   0  0  1  0  0  0  0  0  0  0  0  0
    8.6999    7.2506   -6.3687 O   0  0  0  0  0  0  0  0  0  0  0  0
   10.1612    6.7953   -8.2348 C   0  0  2  0  0  0  0  0  0  0  0  0
    9.8043    5.5539   -8.7037 O   0  0  0  0  0  0  0  0  0  0  0  0
   12.1319    6.0452   -8.0772 H   0  0  0  0  0  0  0  0  0  0  0  0
   10.4117    8.9794   -6.7160 H   0  0  0  0  0  0  0  0  0  0  0  0
   10.3288    5.9531   -6.2478 H   0  0  0  0  0  0  0  0  0  0  0  0
    8.6712    8.0603   -5.7955 H   0  0  0  0  0  0  0  0  0  0  0  0
    9.5917    7.6281   -8.7048 H   0  0  0  0  0  0  0  0  0  0  0  0
    9.2851    5.6999   -9.5536 H   0  0  0  0  0  0  0  0  0  0  0  0
  1  6  2  0
  2  1  1  0
  3  4  1  0
  3  2  2  0
  4  5  2  0
  5  6  1  0
  1  7  1  0
  2  8  1  0
  5  9  1  0
 10 11  1  0
 11 12  2  0
 11 13  1  0
 13 14  1  0
 14 15  1  0
 15 16  1  0
 16 17  1  0
 16 18  1  0
 18 19  1  0
 18 13  1  0
 13 20  1  1
 15 21  1  6
 16 22  1  1
 17 23  1  0
 18 24  1  6
 19 25  1  0
  3 15  1  0
M  END
>  <Score>  (1) 
-7.26766

$$$$

     RDKit          3D

 30 31  0  0  0  0  0  0  0  0999 V2000
   11.8115    6.9286   -2.9673 C   0  0  0  0  0  0  0  0  0  0  0  0
   11.4354    6.8816   -4.3270 C   0  0  0  0  0  0  0  0  0  0  0  0
   11.3607    8.0931   -5.0283 C   0  0  0  0  0  0  0  0  0  0  0  0
   11.6528    9.2393   -4.3645 N   0  0  0  0  0  0  0  0  0  0  0  0
   12.0126    9.2521   -3.0527 C   0  0  0  0  0  0  0  0  0  0  0  0
   12.0890    8.1013   -2.3663 N   0  0  0  0  0  0  0  0  0  0  0  0
   11.8776    6.0127   -2.4021 H   0  0  0  0  0  0  0  0  0  0  0  0
   11.2153    5.9543   -4.8046 H   0  0  0  0  0  0  0  0  0  0  0  0
   12.2228   10.2094   -2.6217 H   0  0  0  0  0  0  0  0  0  0  0  0
   10.9864    8.0894   -6.3944 N   0  0  0  0  0  0  0  0  0  0  0  0
   10.2871    9.2496   -6.9315 C   0  0  1  0  0  0  0  0  0  0  0  0
   11.1226   10.4622   -6.7942 C   0  0  0  0  0  0  0  0  0  0  0  0
   10.9160   11.5353   -7.7941 C   0  0  0  0  0  0  0  0  0  0  0  0
   10.5178   11.1007   -9.1544 C   0  0  0  0  0  0  0  0  0  0  0  0
    9.3912   10.0882   -9.1278 C   0  0  0  0  0  0  0  0  0  0  0  0
    9.8638    8.9163   -8.3320 C   0  0  2  0  0  0  0  0  0  0  0  0
    8.8699    7.8662   -8.2939 N   0  0  0  0  0  0  0  0  0  0  0  0
   11.2173    7.2619   -6.9846 H   0  0  0  0  0  0  0  0  0  0  0  0
    9.3432    9.3565   -6.3226 H   0  0  0  0  0  0  0  0  0  0  0  0
   12.1937   10.1538   -6.7732 H   0  0  0  0  0  0  0  0  0  0  0  0
   10.9182   10.9150   -5.7787 H   0  0  0  0  0  0  0  0  0  0  0  0
   11.8910   12.0983   -7.8927 H   0  0  0  0  0  0  0  0  0  0  0  0
   10.2018   12.3170   -7.4019 H   0  0  0  0  0  0  0  0  0  0  0  0
   10.2115   11.9635   -9.7508 H   0  0  0  0  0  0  0  0  0  0  0  0
   11.3919   10.6303   -9.6457 H   0  0  0  0  0  0  0  0  0  0  0  0
    8.4630   10.5167   -8.7274 H   0  0  0  0  0  0  0  0  0  0  0  0
    9.2328    9.7590  -10.1658 H   0  0  0  0  0  0  0  0  0  0  0  0
   10.7711    8.5025   -8.8548 H   0  0  0  0  0  0  0  0  0  0  0  0
    9.2918    7.0142   -7.8656 H   0  0  0  0  0  0  0  0  0  0  0  0
    8.5182    7.6691   -9.2720 H   0  0  0  0  0  0  0  0  0  0  0  0
  1  6  2  0
  2  1  1  0
  3  4  1  0
  3  2  2  0
  4  5  2  0
  5  6  1  0
  1  7  1  0
  2  8  1  0
  5  9  1  0
 10 11  1  0
 11 12  1  0
 12 13  1  0
 13 14  1  0
 14 15  1  0
 15 16  1  0
 16 17  1  0
 16 11  1  0
 10 18  1  0
 11 19  1  1
 12 20  1  0
 12 21  1  0
 13 22  1  0
 13 23  1  0
 14 24  1  0
 14 25  1  0
 15 26  1  0
 15 27  1  0
 16 28  1  6
 17 29  1  0
 17 30  1  0
  3 10  1  0
M  END
>  <Score>  (1) 
-7.26029

$$$$

     RDKit          3D

 22 23  0  0  0  0  0  0  0  0999 V2000
   12.3022    8.1270   -2.3026 C   0  0  0  0  0  0  0  0  0  0  0  0
   12.0223    6.8804   -2.9105 C   0  0  0  0  0  0  0  0  0  0  0  0
   11.5238    6.8993   -4.2266 C   0  0  0  0  0  0  0  0  0  0  0  0
   11.3439    8.1140   -4.8278 N   0  0  0  0  0  0  0  0  0  0  0  0
   11.6219    9.2733   -4.2164 C   0  0  0  0  0  0  0  0  0  0  0  0
   12.1008    9.2770   -2.9541 N   0  0  0  0  0  0  0  0  0  0  0  0
   12.6902    8.0850   -1.2758 H   0  0  0  0  0  0  0  0  0  0  0  0
   12.1819    5.9580   -2.3937 H   0  0  0  0  0  0  0  0  0  0  0  0
   11.3047    5.9636   -4.7099 H   0  0  0  0  0  0  0  0  0  0  0  0
   11.4269   10.5607   -4.8601 C   0  0  0  0  0  0  0  0  0  0  0  0
   10.2574   10.9422   -5.2264 O   0  0  0  0  0  0  0  0  0  0  0  0
   12.5770   11.4161   -5.0859 C   0  0  0  0  0  0  0  0  0  0  0  0
   13.7459   11.2852   -4.3861 C   0  0  0  0  0  0  0  0  0  0  0  0
   14.8531   12.1145   -4.6186 C   0  0  0  0  0  0  0  0  0  0  0  0
   14.7221   13.0882   -5.5967 C   0  0  0  0  0  0  0  0  0  0  0  0
   15.5419   13.7637   -5.8267 H   0  0  0  0  0  0  0  0  0  0  0  0
   13.5580   13.2446   -6.3175 C   0  0  0  0  0  0  0  0  0  0  0  0
   12.5006   12.4008   -6.0473 C   0  0  0  0  0  0  0  0  0  0  0  0
   13.8723   10.5272   -3.6026 H   0  0  0  0  0  0  0  0  0  0  0  0
   15.7687   12.0151   -4.0739 H   0  0  0  0  0  0  0  0  0  0  0  0
   13.4496   14.0144   -7.0929 H   0  0  0  0  0  0  0  0  0  0  0  0
   11.5851   12.5520   -6.6400 H   0  0  0  0  0  0  0  0  0  0  0  0
  2  1  2  0
  3  2  1  0
  4  3  2  0
  4  5  1  0
  5  6  2  0
  6  1  1  0
  1  7  1  0
  2  8  1  0
  3  9  1  0
 10 11  2  0
 10 12  1  0
 12 13  2  0
 13 14  1  0
 14 15  2  0
 15 16  1  0
 15 17  1  0
 17 18  2  0
 18 12  1  0
 13 19  1  0
 14 20  1  0
 17 21  1  0
 18 22  1  0
  5 10  1  0
M  END
>  <Score>  (1) 
-7.63977

$$$$

     RDKit          3D

 22 23  0  0  0  0  0  0  0  0999 V2000
   11.8125    6.9302   -2.9643 C   0  0  0  0  0  0  0  0  0  0  0  0
   11.4352    6.8869   -4.3297 C   0  0  0  0  0  0  0  0  0  0  0  0
   11.3595    8.0878   -5.0306 C   0  0  0  0  0  0  0  0  0  0  0  0
   11.6544    9.2392   -4.3585 N   0  0  0  0  0  0  0  0  0  0  0  0
   12.0114    9.2552   -3.0578 C   0  0  0  0  0  0  0  0  0  0  0  0
   12.0889    8.0967   -2.3651 N   0  0  0  0  0  0  0  0  0  0  0  0
   11.8656    5.9983   -2.4408 H   0  0  0  0  0  0  0  0  0  0  0  0
   11.2181    5.9619   -4.7972 H   0  0  0  0  0  0  0  0  0  0  0  0
   12.2278   10.1891   -2.5960 H   0  0  0  0  0  0  0  0  0  0  0  0
   10.9824    8.1413   -6.4293 C   0  0  0  0  0  0  0  0  0  0  0  0
    9.7204    7.9832   -6.8991 C   0  0  0  0  0  0  0  0  0  0  0  0
    9.4877    8.0575   -8.2766 C   0  0  0  0  0  0  0  0  0  0  0  0
   10.5118    8.2879   -9.1706 C   0  0  0  0  0  0  0  0  0  0  0  0
   10.2746    8.3695  -10.6481 C   0  0  0  0  0  0  0  0  0  0  0  0
   11.7429    8.4399   -8.6865 N   0  0  0  0  0  0  0  0  0  0  0  0
   11.9770    8.3709   -7.3705 C   0  0  0  0  0  0  0  0  0  0  0  0
    8.9105    7.8021   -6.2061 H   0  0  0  0  0  0  0  0  0  0  0  0
    8.4975    7.9328   -8.6368 H   0  0  0  0  0  0  0  0  0  0  0  0
   10.8989    7.6544  -11.2092 H   0  0  0  0  0  0  0  0  0  0  0  0
   10.5589    9.4082  -10.9890 H   0  0  0  0  0  0  0  0  0  0  0  0
    9.2203    8.2072  -10.8915 H   0  0  0  0  0  0  0  0  0  0  0  0
   13.0117    8.5036   -7.0239 H   0  0  0  0  0  0  0  0  0  0  0  0
  1  6  2  0
  2  1  1  0
  3  4  1  0
  3  2  2  0
  4  5  2  0
  5  6  1  0
  1  7  1  0
  2  8  1  0
  5  9  1  0
 10 11  2  0
 11 12  1  0
 12 13  2  0
 13 14  1  0
 13 15  1  0
 15 16  2  0
 16 10  1  0
 11 17  1  0
 12 18  1  0
 14 19  1  0
 14 20  1  0
 14 21  1  0
 16 22  1  0
  3 10  1  0
M  END
>  <Score>  (1) 
-7.25101

$$$$

     RDKit          3D

 28 29  0  0  0  0  0  0  0  0999 V2000
   11.8110    6.9285   -2.9692 C   0  0  0  0  0  0  0  0  0  0  0  0
   11.4361    6.8803   -4.3240 C   0  0  0  0  0  0  0  0  0  0  0  0
   11.3599    8.0923   -5.0307 C   0  0  0  0  0  0  0  0  0  0  0  0
   11.6540    9.2414   -4.3607 N   0  0  0  0  0  0  0  0  0  0  0  0
   12.0119    9.2529   -3.0555 C   0  0  0  0  0  0  0  0  0  0  0  0
   12.0891    8.1005   -2.3658 N   0  0  0  0  0  0  0  0  0  0  0  0
   11.8530    5.9721   -2.4776 H   0  0  0  0  0  0  0  0  0  0  0  0
   11.2097    5.9822   -4.8349 H   0  0  0  0  0  0  0  0  0  0  0  0
   12.2393   10.1827   -2.5518 H   0  0  0  0  0  0  0  0  0  0  0  0
   10.9856    8.1205   -6.4105 N   0  0  0  0  0  0  0  0  0  0  0  0
   11.0062    6.8984   -7.1476 C   0  0  0  0  0  0  0  0  0  0  0  0
   11.2243    7.0410   -8.6150 C   0  0  0  0  0  0  0  0  0  0  0  0
   10.9605    8.4163   -9.1504 C   0  0  0  0  0  0  0  0  0  0  0  0
   10.4711    8.4402  -10.5583 C   0  0  0  0  0  0  0  0  0  0  0  0
    9.6703    7.7242  -10.7649 H   0  0  0  0  0  0  0  0  0  0  0  0
    9.8856    9.0736   -8.2744 C   0  0  0  0  0  0  0  0  0  0  0  0
   10.6052    9.3999   -6.9792 C   0  0  0  0  0  0  0  0  0  0  0  0
   10.0667    6.3289   -6.9763 H   0  0  0  0  0  0  0  0  0  0  0  0
   11.8176    6.2520   -6.7150 H   0  0  0  0  0  0  0  0  0  0  0  0
   10.5781    6.3353   -9.1925 H   0  0  0  0  0  0  0  0  0  0  0  0
   12.2734    6.7779   -8.8712 H   0  0  0  0  0  0  0  0  0  0  0  0
   11.8684    9.0480   -9.0706 H   0  0  0  0  0  0  0  0  0  0  0  0
   11.3542    8.2708  -11.2261 H   0  0  0  0  0  0  0  0  0  0  0  0
   10.1281    9.4717  -10.7840 H   0  0  0  0  0  0  0  0  0  0  0  0
    9.4719    9.9728   -8.7591 H   0  0  0  0  0  0  0  0  0  0  0  0
    9.1270    8.3179   -8.0584 H   0  0  0  0  0  0  0  0  0  0  0  0
    9.8819    9.9491   -6.3502 H   0  0  0  0  0  0  0  0  0  0  0  0
   11.5342    9.9938   -7.1734 H   0  0  0  0  0  0  0  0  0  0  0  0
  1  6  2  0
  2  1  1  0
  3  4  1  0
  3  2  2  0
  4  5  2  0
  5  6  1  0
  1  7  1  0
  2  8  1  0
  5  9  1  0
 10 11  1  0
 11 12  1  0
 12 13  1  0
 13 14  1  0
 14 15  1  0
 13 16  1  0
 16 17  1  0
 17 10  1  0
 11 18  1  0
 11 19  1  0
 12 20  1  0
 12 21  1  0
 13 22  1  0
 14 23  1  0
 14 24  1  0
 16 25  1  0
 16 26  1  0
 17 27  1  0
 17 28  1  0
  3 10  1  0
M  END
>  <Score>  (1) 
-7.24214

$$$$

     RDKit          3D

 23 24  0  0  0  0  0  0  0  0999 V2000
   11.8110    6.9291   -2.9693 C   0  0  0  0  0  0  0  0  0  0  0  0
   11.4359    6.8780   -4.3238 C   0  0  0  0  0  0  0  0  0  0  0  0
   11.3607    8.0952   -5.0290 C   0  0  0  0  0  0  0  0  0  0  0  0
   11.6532    9.2405   -4.3635 N   0  0  0  0  0  0  0  0  0  0  0  0
   12.0123    9.2534   -3.0542 C   0  0  0  0  0  0  0  0  0  0  0  0
   12.0889    8.0998   -2.3663 N   0  0  0  0  0  0  0  0  0  0  0  0
   11.8660    5.9891   -2.4371 H   0  0  0  0  0  0  0  0  0  0  0  0
   11.2120    5.9666   -4.8206 H   0  0  0  0  0  0  0  0  0  0  0  0
   12.2247   10.2121   -2.6161 H   0  0  0  0  0  0  0  0  0  0  0  0
   10.9942    8.0690   -6.3607 O   0  0  0  0  0  0  0  0  0  0  0  0
   10.5900    6.9081   -7.0082 C   0  0  0  0  0  0  0  0  0  0  0  0
   11.4900    6.0789   -7.6523 C   0  0  0  0  0  0  0  0  0  0  0  0
   11.0899    4.9244   -8.2966 C   0  0  0  0  0  0  0  0  0  0  0  0
    9.7696    4.5510   -8.3229 C   0  0  0  0  0  0  0  0  0  0  0  0
    8.8519    5.3678   -7.6837 C   0  0  0  0  0  0  0  0  0  0  0  0
    7.4755    5.0039   -7.6952 N   0  0  0  0  0  0  0  0  0  0  0  0
    6.7646    5.6600   -7.2809 H   0  0  0  0  0  0  0  0  0  0  0  0
    9.2623    6.5103   -7.0483 C   0  0  0  0  0  0  0  0  0  0  0  0
   12.5429    6.3843   -7.6271 H   0  0  0  0  0  0  0  0  0  0  0  0
   11.8197    4.2987   -8.7907 H   0  0  0  0  0  0  0  0  0  0  0  0
    9.4105    3.6645   -8.8098 H   0  0  0  0  0  0  0  0  0  0  0  0
    7.1330    4.1168   -8.0948 H   0  0  0  0  0  0  0  0  0  0  0  0
    8.5369    7.1604   -6.5402 H   0  0  0  0  0  0  0  0  0  0  0  0
  1  6  2  0
  2  1  1  0
  3  4  1  0
  3  2  2  0
  4  5  2  0
  5  6  1  0
  1  7  1  0
  2  8  1  0
  5  9  1  0
 10 11  1  0
 11 12  2  0
 12 13  1  0
 13 14  2  0
 14 15  1  0
 15 16  1  0
 16 17  1  0
 15 18  2  0
 18 11  1  0
 12 19  1  0
 13 20  1  0
 14 21  1  0
 16 22  1  0
 18 23  1  0
  3 10  1  0
M  END
>  <Score>  (1) 
-7.2415

$$$$

     RDKit          3D

 31 32  0  0  0  0  0  0  0  0999 V2000
   11.8118    6.9303   -2.9668 C   0  0  0  0  0  0  0  0  0  0  0  0
   11.4352    6.8790   -4.3268 C   0  0  0  0  0  0  0  0  0  0  0  0
   11.3605    8.0918   -5.0286 C   0  0  0  0  0  0  0  0  0  0  0  0
   11.6539    9.2432   -4.3616 N   0  0  0  0  0  0  0  0  0  0  0  0
   12.0118    9.2530   -3.0556 C   0  0  0  0  0  0  0  0  0  0  0  0
   12.0887    8.0987   -2.3665 N   0  0  0  0  0  0  0  0  0  0  0  0
   11.8845    6.0189   -2.3790 H   0  0  0  0  0  0  0  0  0  0  0  0
   11.2148    5.9521   -4.8058 H   0  0  0  0  0  0  0  0  0  0  0  0
   12.2410   10.1878   -2.5477 H   0  0  0  0  0  0  0  0  0  0  0  0
   10.9736    8.1319   -6.4584 C   0  0  2  0  0  0  0  0  0  0  0  0
    9.6256    7.9309   -6.6215 O   0  0  0  0  0  0  0  0  0  0  0  0
    9.2607    6.8243   -7.3242 C   0  0  1  0  0  0  0  0  0  0  0  0
    7.7502    6.9443   -7.5854 C   0  0  0  0  0  0  0  0  0  0  0  0
    7.1133    7.0021   -6.3549 O   0  0  0  0  0  0  0  0  0  0  0  0
    9.9082    6.6807   -8.6694 C   0  0  2  0  0  0  0  0  0  0  0  0
   10.1099    5.3002   -8.8979 O   0  0  0  0  0  0  0  0  0  0  0  0
   11.2862    7.3159   -8.7254 C   0  0  1  0  0  0  0  0  0  0  0  0
   11.1990    8.6758   -9.0544 O   0  0  0  0  0  0  0  0  0  0  0  0
   11.8259    7.2004   -7.2936 C   0  0  1  0  0  0  0  0  0  0  0  0
   13.1449    7.6194   -7.2321 O   0  0  0  0  0  0  0  0  0  0  0  0
   11.1940    9.1636   -6.8342 H   0  0  0  0  0  0  0  0  0  0  0  0
    9.3598    5.8761   -6.7192 H   0  0  0  0  0  0  0  0  0  0  0  0
    7.3861    6.1441   -8.2419 H   0  0  0  0  0  0  0  0  0  0  0  0
    7.6173    7.9403   -8.0679 H   0  0  0  0  0  0  0  0  0  0  0  0
    6.3644    6.3791   -6.2923 H   0  0  0  0  0  0  0  0  0  0  0  0
    9.2752    7.0417   -9.5032 H   0  0  0  0  0  0  0  0  0  0  0  0
   10.9865    5.1422   -9.3582 H   0  0  0  0  0  0  0  0  0  0  0  0
   11.9199    6.7490   -9.4259 H   0  0  0  0  0  0  0  0  0  0  0  0
   10.2464    8.9827   -9.0648 H   0  0  0  0  0  0  0  0  0  0  0  0
   11.7563    6.1550   -7.0019 H   0  0  0  0  0  0  0  0  0  0  0  0
   13.2122    8.6079   -7.2907 H   0  0  0  0  0  0  0  0  0  0  0  0
  1  6  2  0
  2  1  1  0
  3  4  1  0
  3  2  2  0
  4  5  2  0
  5  6  1  0
  1  7  1  0
  2  8  1  0
  5  9  1  0
 10 11  1  0
 11 12  1  0
 12 13  1  0
 13 14  1  0
 12 15  1  0
 15 16  1  0
 15 17  1  0
 17 18  1  0
 17 19  1  0
 19 20  1  0
 19 10  1  0
 10 21  1  6
 12 22  1  1
 13 23  1  0
 13 24  1  0
 14 25  1  0
 15 26  1  6
 16 27  1  0
 17 28  1  6
 18 29  1  0
 19 30  1  1
 20 31  1  0
  3 10  1  0
M  END
>  <Score>  (1) 
-7.232

$$$$

     RDKit          3D

 21 22  0  0  0  0  0  0  0  0999 V2000
   11.8111    6.9300   -2.9693 C   0  0  0  0  0  0  0  0  0  0  0  0
   11.4357    6.8780   -4.3244 C   0  0  0  0  0  0  0  0  0  0  0  0
   11.3607    8.0938   -5.0287 C   0  0  0  0  0  0  0  0  0  0  0  0
   11.6540    9.2406   -4.3605 N   0  0  0  0  0  0  0  0  0  0  0  0
   12.0120    9.2530   -3.0551 C   0  0  0  0  0  0  0  0  0  0  0  0
   12.0885    8.1006   -2.3680 N   0  0  0  0  0  0  0  0  0  0  0  0
   11.8693    5.9957   -2.4259 H   0  0  0  0  0  0  0  0  0  0  0  0
   11.2145    5.9449   -4.8033 H   0  0  0  0  0  0  0  0  0  0  0  0
   12.2233   10.2233   -2.6245 H   0  0  0  0  0  0  0  0  0  0  0  0
   10.9944    8.0803   -6.3642 O   0  0  0  0  0  0  0  0  0  0  0  0
   10.8046    9.2999   -7.0458 C   0  0  0  0  0  0  0  0  0  0  0  0
   10.9744   10.5169   -6.4189 C   0  0  0  0  0  0  0  0  0  0  0  0
   10.7700   11.6665   -7.1546 C   0  0  0  0  0  0  0  0  0  0  0  0
   10.4001   11.6146   -8.5016 C   0  0  0  0  0  0  0  0  0  0  0  0
   10.2307   10.4019   -9.1277 C   0  0  0  0  0  0  0  0  0  0  0  0
    9.7712   10.3578  -10.7991 Cl  0  0  0  0  0  0  0  0  0  0  0  0
   10.4377    9.2496   -8.3818 C   0  0  0  0  0  0  0  0  0  0  0  0
   11.2609   10.5506   -5.3756 H   0  0  0  0  0  0  0  0  0  0  0  0
   10.8877   12.6282   -6.7189 H   0  0  0  0  0  0  0  0  0  0  0  0
   10.2422   12.5193   -9.0704 H   0  0  0  0  0  0  0  0  0  0  0  0
   10.2964    8.2958   -8.9032 H   0  0  0  0  0  0  0  0  0  0  0  0
  1  6  2  0
  2  1  1  0
  3  4  1  0
  3  2  2  0
  4  5  2  0
  5  6  1  0
  1  7  1  0
  2  8  1  0
  5  9  1  0
 10 11  1  0
 11 12  2  0
 12 13  1  0
 13 14  2  0
 14 15  1  0
 15 16  1  0
 15 17  2  0
 17 11  1  0
 12 18  1  0
 13 19  1  0
 14 20  1  0
 17 21  1  0
  3 10  1  0
M  END
>  <Score>  (1) 
-7.2296

$$$$

     RDKit          3D

 20 21  0  0  0  0  0  0  0  0999 V2000
   11.8133    6.9326   -2.9622 C   0  0  0  0  0  0  0  0  0  0  0  0
   11.4342    6.8843   -4.3321 C   0  0  0  0  0  0  0  0  0  0  0  0
   11.3602    8.0894   -5.0286 C   0  0  0  0  0  0  0  0  0  0  0  0
   11.6547    9.2394   -4.3575 N   0  0  0  0  0  0  0  0  0  0  0  0
   12.0108    9.2560   -3.0605 C   0  0  0  0  0  0  0  0  0  0  0  0
   12.0887    8.0943   -2.3650 N   0  0  0  0  0  0  0  0  0  0  0  0
   11.8839    6.0287   -2.3848 H   0  0  0  0  0  0  0  0  0  0  0  0
   11.2162    5.9567   -4.8021 H   0  0  0  0  0  0  0  0  0  0  0  0
   12.2397   10.1954   -2.5547 H   0  0  0  0  0  0  0  0  0  0  0  0
   10.9822    8.1481   -6.4327 C   0  0  0  0  0  0  0  0  0  0  0  0
   10.1374    7.2500   -7.0356 C   0  0  0  0  0  0  0  0  0  0  0  0
    9.8013    7.3445   -8.3884 C   0  0  0  0  0  0  0  0  0  0  0  0
   10.3164    8.3556   -9.1618 C   0  0  0  0  0  0  0  0  0  0  0  0
   11.1642    9.2617   -8.5678 C   0  0  0  0  0  0  0  0  0  0  0  0
   11.8238   10.5498   -9.5419 Cl  0  0  0  0  0  0  0  0  0  0  0  0
   11.4866    9.1547   -7.2304 C   0  0  0  0  0  0  0  0  0  0  0  0
   12.5725   10.3268   -6.4986 Cl  0  0  0  0  0  0  0  0  0  0  0  0
    9.7137    6.4476   -6.4719 H   0  0  0  0  0  0  0  0  0  0  0  0
    9.1303    6.6068   -8.8074 H   0  0  0  0  0  0  0  0  0  0  0  0
   10.0279    8.3880  -10.2023 H   0  0  0  0  0  0  0  0  0  0  0  0
  1  6  2  0
  2  1  1  0
  3  4  1  0
  3  2  2  0
  4  5  2  0
  5  6  1  0
  1  7  1  0
  2  8  1  0
  5  9  1  0
 10 11  2  0
 11 12  1  0
 12 13  2  0
 13 14  1  0
 14 15  1  0
 14 16  2  0
 16 17  1  0
 16 10  1  0
 11 18  1  0
 12 19  1  0
 13 20  1  0
  3 10  1  0
M  END
>  <Score>  (1) 
-7.22834

$$$$

     RDKit          3D

 30 31  0  0  0  0  0  0  0  0999 V2000
   11.8128    6.9334   -2.9645 C   0  0  0  0  0  0  0  0  0  0  0  0
   11.4347    6.8800   -4.3290 C   0  0  0  0  0  0  0  0  0  0  0  0
   11.3606    8.0904   -5.0277 C   0  0  0  0  0  0  0  0  0  0  0  0
   11.6542    9.2432   -4.3608 N   0  0  0  0  0  0  0  0  0  0  0  0
   12.0114    9.2553   -3.0579 C   0  0  0  0  0  0  0  0  0  0  0  0
   12.0883    8.0936   -2.3661 N   0  0  0  0  0  0  0  0  0  0  0  0
   11.8681    6.0138   -2.4370 H   0  0  0  0  0  0  0  0  0  0  0  0
   11.2214    5.9400   -4.7773 H   0  0  0  0  0  0  0  0  0  0  0  0
   12.2315   10.1818   -2.5800 H   0  0  0  0  0  0  0  0  0  0  0  0
   10.9924    8.1097   -6.3813 N   0  0  0  0  0  0  0  0  0  0  0  0
   11.9075    8.6416   -7.3609 C   0  0  0  0  0  0  0  0  0  0  0  0
   11.6978    8.0744   -8.7414 C   0  0  1  0  0  0  0  0  0  0  0  0
   12.3877    6.7399   -8.9180 C   0  0  0  0  0  0  0  0  0  0  0  0
   10.3554    8.0158   -9.1628 N   0  0  0  0  0  0  0  0  0  0  0  0
    9.3400    7.9937   -8.1939 C   0  0  1  0  0  0  0  0  0  0  0  0
    8.1791    7.0863   -8.6246 C   0  0  0  0  0  0  0  0  0  0  0  0
    9.7260    7.6126   -6.8157 C   0  0  0  0  0  0  0  0  0  0  0  0
   12.9325    8.4379   -6.9878 H   0  0  0  0  0  0  0  0  0  0  0  0
   11.7865    9.7450   -7.3563 H   0  0  0  0  0  0  0  0  0  0  0  0
   12.2322    8.7846   -9.4423 H   0  0  0  0  0  0  0  0  0  0  0  0
   13.0836    6.7244   -9.7789 H   0  0  0  0  0  0  0  0  0  0  0  0
   12.9975    6.4705   -8.0207 H   0  0  0  0  0  0  0  0  0  0  0  0
   11.6260    5.9360   -9.1312 H   0  0  0  0  0  0  0  0  0  0  0  0
   10.2411    7.2369   -9.8498 H   0  0  0  0  0  0  0  0  0  0  0  0
    8.8793    9.0242   -8.1442 H   0  0  0  0  0  0  0  0  0  0  0  0
    7.9799    7.2606   -9.6997 H   0  0  0  0  0  0  0  0  0  0  0  0
    8.4513    6.0336   -8.4105 H   0  0  0  0  0  0  0  0  0  0  0  0
    7.2860    7.3161   -8.0071 H   0  0  0  0  0  0  0  0  0  0  0  0
    9.7235    6.5030   -6.6874 H   0  0  0  0  0  0  0  0  0  0  0  0
    8.9503    7.9865   -6.0839 H   0  0  0  0  0  0  0  0  0  0  0  0
  1  6  2  0
  2  1  1  0
  3  4  1  0
  3  2  2  0
  4  5  2  0
  5  6  1  0
  1  7  1  0
  2  8  1  0
  5  9  1  0
 10 11  1  0
 11 12  1  0
 12 13  1  0
 12 14  1  0
 14 15  1  0
 15 16  1  0
 15 17  1  0
 17 10  1  0
 11 18  1  0
 11 19  1  0
 12 20  1  6
 13 21  1  0
 13 22  1  0
 13 23  1  0
 14 24  1  0
 15 25  1  1
 16 26  1  0
 16 27  1  0
 16 28  1  0
 17 29  1  0
 17 30  1  0
  3 10  1  0
M  END
>  <Score>  (1) 
-7.22516

$$$$

     RDKit          3D

 27 28  0  0  0  0  0  0  0  0999 V2000
   11.8125    6.9306   -2.9646 C   0  0  0  0  0  0  0  0  0  0  0  0
   11.4344    6.8808   -4.3302 C   0  0  0  0  0  0  0  0  0  0  0  0
   11.3610    8.0910   -5.0264 C   0  0  0  0  0  0  0  0  0  0  0  0
   11.6533    9.2420   -4.3637 N   0  0  0  0  0  0  0  0  0  0  0  0
   12.0122    9.2531   -3.0544 C   0  0  0  0  0  0  0  0  0  0  0  0
   12.0887    8.0985   -2.3667 N   0  0  0  0  0  0  0  0  0  0  0  0
   11.8585    5.9834   -2.4618 H   0  0  0  0  0  0  0  0  0  0  0  0
   11.2135    5.9351   -4.8042 H   0  0  0  0  0  0  0  0  0  0  0  0
   12.2430   10.1565   -2.5290 H   0  0  0  0  0  0  0  0  0  0  0  0
   10.9699    8.0307   -6.4358 C   0  0  1  0  0  0  0  0  0  0  0  0
   10.7484    6.7169   -6.7821 O   0  0  0  0  0  0  0  0  0  0  0  0
    9.7325    6.7252   -7.7281 C   0  0  1  0  0  0  0  0  0  0  0  0
    9.1177    5.3732   -7.9331 C   0  0  0  0  0  0  0  0  0  0  0  0
    8.1139    5.5215   -8.9063 O   0  0  0  0  0  0  0  0  0  0  0  0
    8.7582    7.7150   -7.1225 C   0  0  1  0  0  0  0  0  0  0  0  0
    8.1986    7.2574   -5.9489 O   0  0  0  0  0  0  0  0  0  0  0  0
    9.7443    8.8224   -6.7621 C   0  0  2  0  0  0  0  0  0  0  0  0
    9.9765    9.5295   -7.9461 O   0  0  0  0  0  0  0  0  0  0  0  0
   11.8524    8.3974   -7.0350 H   0  0  0  0  0  0  0  0  0  0  0  0
   10.1123    7.1769   -8.6553 H   0  0  0  0  0  0  0  0  0  0  0  0
    9.8988    4.6861   -8.3001 H   0  0  0  0  0  0  0  0  0  0  0  0
    8.6356    5.0196   -7.0195 H   0  0  0  0  0  0  0  0  0  0  0  0
    8.5095    5.8476   -9.7524 H   0  0  0  0  0  0  0  0  0  0  0  0
    8.0123    8.0563   -7.8561 H   0  0  0  0  0  0  0  0  0  0  0  0
    8.7117    6.5755   -5.4905 H   0  0  0  0  0  0  0  0  0  0  0  0
    9.3809    9.4619   -5.9529 H   0  0  0  0  0  0  0  0  0  0  0  0
   10.9279    9.6063   -8.1568 H   0  0  0  0  0  0  0  0  0  0  0  0
  1  6  2  0
  2  1  1  0
  3  4  1  0
  3  2  2  0
  4  5  2  0
  5  6  1  0
  1  7  1  0
  2  8  1  0
  5  9  1  0
 10 11  1  0
 11 12  1  0
 12 13  1  0
 13 14  1  0
 12 15  1  0
 15 16  1  0
 15 17  1  0
 17 18  1  0
 17 10  1  0
 10 19  1  6
 12 20  1  6
 13 21  1  0
 13 22  1  0
 14 23  1  0
 15 24  1  6
 16 25  1  0
 17 26  1  1
 18 27  1  0
  3 10  1  0
M  END
>  <Score>  (1) 
-7.21996

$$$$

     RDKit          3D

 25 26  0  0  0  0  0  0  0  0999 V2000
   11.8114    6.9291   -2.9682 C   0  0  0  0  0  0  0  0  0  0  0  0
   11.4355    6.8822   -4.3269 C   0  0  0  0  0  0  0  0  0  0  0  0
   11.3596    8.0854   -5.0296 C   0  0  0  0  0  0  0  0  0  0  0  0
   11.6555    9.2467   -4.3572 N   0  0  0  0  0  0  0  0  0  0  0  0
   12.0112    9.2537   -3.0583 C   0  0  0  0  0  0  0  0  0  0  0  0
   12.0890    8.0987   -2.3657 N   0  0  0  0  0  0  0  0  0  0  0  0
   11.8690    5.9936   -2.4269 H   0  0  0  0  0  0  0  0  0  0  0  0
   11.2107    5.9542   -4.8213 H   0  0  0  0  0  0  0  0  0  0  0  0
   12.2272   10.2209   -2.6095 H   0  0  0  0  0  0  0  0  0  0  0  0
   12.3434    6.7585  -10.3801 H   0  0  0  0  0  0  0  0  0  0  0  0
   12.6243    7.1566   -9.4180 C   0  0  0  0  0  0  0  0  0  0  0  0
   13.7950    7.2744   -9.1566 O   0  0  0  0  0  0  0  0  0  0  0  0
   11.6001    7.5437   -8.4548 C   0  0  2  0  0  0  0  0  0  0  0  0
   12.0820    8.0366   -7.2666 O   0  0  0  0  0  0  0  0  0  0  0  0
   10.9764    8.1381   -6.4503 C   0  0  1  0  0  0  0  0  0  0  0  0
   10.0421    7.0081   -6.7952 C   0  0  1  0  0  0  0  0  0  0  0  0
    8.8354    7.5219   -7.3004 O   0  0  0  0  0  0  0  0  0  0  0  0
   10.7799    6.3436   -7.9620 C   0  0  2  0  0  0  0  0  0  0  0  0
   11.6062    5.3785   -7.3902 O   0  0  0  0  0  0  0  0  0  0  0  0
   10.8512    8.2631   -8.8487 H   0  0  0  0  0  0  0  0  0  0  0  0
   10.5042    9.1264   -6.6451 H   0  0  0  0  0  0  0  0  0  0  0  0
    9.8686    6.3113   -5.9721 H   0  0  0  0  0  0  0  0  0  0  0  0
    8.9112    8.4648   -7.5486 H   0  0  0  0  0  0  0  0  0  0  0  0
   10.1046    5.9611   -8.7233 H   0  0  0  0  0  0  0  0  0  0  0  0
   12.4202    5.2055   -7.9020 H   0  0  0  0  0  0  0  0  0  0  0  0
  1  6  2  0
  2  1  1  0
  3  4  1  0
  3  2  2  0
  4  5  2  0
  5  6  1  0
  1  7  1  0
  2  8  1  0
  5  9  1  0
 10 11  1  0
 11 12  2  0
 11 13  1  0
 13 14  1  0
 14 15  1  0
 15 16  1  0
 16 17  1  0
 16 18  1  0
 18 19  1  0
 18 13  1  0
 13 20  1  6
 15 21  1  1
 16 22  1  1
 17 23  1  0
 18 24  1  6
 19 25  1  0
  3 15  1  0
M  END
>  <Score>  (1) 
-7.21986

$$$$

     RDKit          3D

 29 30  0  0  0  0  0  0  0  0999 V2000
   11.8118    6.9292   -2.9664 C   0  0  0  0  0  0  0  0  0  0  0  0
   11.4351    6.8797   -4.3273 C   0  0  0  0  0  0  0  0  0  0  0  0
   11.3606    8.0927   -5.0283 C   0  0  0  0  0  0  0  0  0  0  0  0
   11.6542    9.2417   -4.3600 N   0  0  0  0  0  0  0  0  0  0  0  0
   12.0113    9.2527   -3.0574 C   0  0  0  0  0  0  0  0  0  0  0  0
   12.0888    8.0998   -2.3666 N   0  0  0  0  0  0  0  0  0  0  0  0
   11.8785    6.0111   -2.3981 H   0  0  0  0  0  0  0  0  0  0  0  0
   11.2127    5.9362   -4.8076 H   0  0  0  0  0  0  0  0  0  0  0  0
   12.2272   10.2242   -2.6108 H   0  0  0  0  0  0  0  0  0  0  0  0
   10.9881    8.1034   -6.3952 N   0  0  0  0  0  0  0  0  0  0  0  0
   11.9303    8.6426   -7.3586 C   0  0  1  0  0  0  0  0  0  0  0  0
   11.3981    8.5856   -8.7463 C   0  0  0  0  0  0  0  0  0  0  0  0
   10.6876    9.7915   -9.2423 C   0  0  0  0  0  0  0  0  0  0  0  0
   11.1595   11.0906   -8.6478 C   0  0  1  0  0  0  0  0  0  0  0  0
   10.3244   11.4213   -7.5832 O   0  0  0  0  0  0  0  0  0  0  0  0
   12.5707   10.8584   -8.1348 C   0  0  0  0  0  0  0  0  0  0  0  0
   12.3483    9.9973   -6.8853 C   0  0  0  0  0  0  0  0  0  0  0  0
   10.0666    7.7319   -6.6702 H   0  0  0  0  0  0  0  0  0  0  0  0
   12.8385    7.9890   -7.2938 H   0  0  0  0  0  0  0  0  0  0  0  0
   12.1889    8.3019   -9.4750 H   0  0  0  0  0  0  0  0  0  0  0  0
   10.6666    7.7293   -8.7799 H   0  0  0  0  0  0  0  0  0  0  0  0
   10.8210    9.8947  -10.3501 H   0  0  0  0  0  0  0  0  0  0  0  0
    9.5880    9.7496   -9.0867 H   0  0  0  0  0  0  0  0  0  0  0  0
   11.2092   11.9017   -9.3969 H   0  0  0  0  0  0  0  0  0  0  0  0
    9.3684   11.2938   -7.8174 H   0  0  0  0  0  0  0  0  0  0  0  0
   13.0886   11.7971   -7.8879 H   0  0  0  0  0  0  0  0  0  0  0  0
   13.0946   10.2412   -8.8828 H   0  0  0  0  0  0  0  0  0  0  0  0
   13.3350    9.9907   -6.3622 H   0  0  0  0  0  0  0  0  0  0  0  0
   11.5692   10.4764   -6.2504 H   0  0  0  0  0  0  0  0  0  0  0  0
  1  6  2  0
  2  1  1  0
  3  4  1  0
  3  2  2  0
  4  5  2  0
  5  6  1  0
  1  7  1  0
  2  8  1  0
  5  9  1  0
 10 11  1  0
 11 12  1  0
 12 13  1  0
 13 14  1  0
 14 15  1  0
 14 16  1  0
 16 17  1  0
 17 11  1  0
 10 18  1  0
 11 19  1  6
 12 20  1  0
 12 21  1  0
 13 22  1  0
 13 23  1  0
 14 24  1  6
 15 25  1  0
 16 26  1  0
 16 27  1  0
 17 28  1  0
 17 29  1  0
  3 10  1  0
M  END
>  <Score>  (1) 
-7.21665

$$$$

     RDKit          3D

 22 23  0  0  0  0  0  0  0  0999 V2000
   12.3040    8.1245   -2.2979 C   0  0  0  0  0  0  0  0  0  0  0  0
   12.0197    6.8795   -2.9171 C   0  0  0  0  0  0  0  0  0  0  0  0
   11.5263    6.9064   -4.2208 C   0  0  0  0  0  0  0  0  0  0  0  0
   11.3434    8.1022   -4.8281 N   0  0  0  0  0  0  0  0  0  0  0  0
   11.6268    9.2850   -4.2047 C   0  0  0  0  0  0  0  0  0  0  0  0
   12.0949    9.2735   -2.9694 N   0  0  0  0  0  0  0  0  0  0  0  0
   12.6835    8.0794   -1.2924 H   0  0  0  0  0  0  0  0  0  0  0  0
   12.1858    5.9540   -2.3822 H   0  0  0  0  0  0  0  0  0  0  0  0
   11.3056    5.9656   -4.7042 H   0  0  0  0  0  0  0  0  0  0  0  0
   11.4053   10.4890   -4.9022 N   0  0  0  0  0  0  0  0  0  0  0  0
   12.3078   11.4856   -5.2478 C   0  0  0  0  0  0  0  0  0  0  0  0
   13.6487   11.4296   -5.0304 C   0  0  0  0  0  0  0  0  0  0  0  0
   14.4953   12.4849   -5.4034 C   0  0  0  0  0  0  0  0  0  0  0  0
   14.0083   13.6192   -6.0037 C   0  0  0  0  0  0  0  0  0  0  0  0
   12.6534   13.6896   -6.2301 C   0  0  0  0  0  0  0  0  0  0  0  0
   11.9599   15.2566   -7.0624 Br  0  0  0  0  0  0  0  0  0  0  0  0
   11.8322   12.6490   -5.8602 C   0  0  0  0  0  0  0  0  0  0  0  0
   10.3794   10.6583   -5.2150 H   0  0  0  0  0  0  0  0  0  0  0  0
   14.0938   10.5701   -4.5684 H   0  0  0  0  0  0  0  0  0  0  0  0
   15.5509   12.4135   -5.2193 H   0  0  0  0  0  0  0  0  0  0  0  0
   14.6819   14.4427   -6.2929 H   0  0  0  0  0  0  0  0  0  0  0  0
   10.7944   12.7564   -6.0583 H   0  0  0  0  0  0  0  0  0  0  0  0
  2  1  2  0
  3  2  1  0
  4  3  2  0
  4  5  1  0
  5  6  2  0
  6  1  1  0
  1  7  1  0
  2  8  1  0
  3  9  1  0
 10 11  1  0
 11 12  2  0
 12 13  1  0
 13 14  2  0
 14 15  1  0
 15 16  1  0
 15 17  2  0
 17 11  1  0
 10 18  1  0
 12 19  1  0
 13 20  1  0
 14 21  1  0
 17 22  1  0
  5 10  1  0
M  END
>  <Score>  (1) 
-7.63802

$$$$

     RDKit          3D

 22 24  0  0  0  0  0  0  0  0999 V2000
   11.8111    6.9294   -2.9692 C   0  0  0  0  0  0  0  0  0  0  0  0
   11.4360    6.8781   -4.3236 C   0  0  0  0  0  0  0  0  0  0  0  0
   11.3597    8.0916   -5.0313 C   0  0  0  0  0  0  0  0  0  0  0  0
   11.6549    9.2444   -4.3587 N   0  0  0  0  0  0  0  0  0  0  0  0
   12.0114    9.2530   -3.0572 C   0  0  0  0  0  0  0  0  0  0  0  0
   12.0889    8.0995   -2.3661 N   0  0  0  0  0  0  0  0  0  0  0  0
   11.8571    5.9764   -2.4641 H   0  0  0  0  0  0  0  0  0  0  0  0
   11.2106    5.9669   -4.8260 H   0  0  0  0  0  0  0  0  0  0  0  0
   12.2243   10.2238   -2.6215 H   0  0  0  0  0  0  0  0  0  0  0  0
   10.9874    8.1127   -6.4012 N   0  0  0  0  0  0  0  0  0  0  0  0
   11.5212    8.7074   -7.4268 N   0  0  0  0  0  0  0  0  0  0  0  0
   10.8472    8.4668   -8.5722 C   0  0  0  0  0  0  0  0  0  0  0  0
    9.7969    7.6470   -8.2301 C   0  0  0  0  0  0  0  0  0  0  0  0
    8.7837    7.0805   -8.9723 C   0  0  0  0  0  0  0  0  0  0  0  0
    7.8439    6.2901   -8.3939 N   0  0  0  0  0  0  0  0  0  0  0  0
    7.9349    6.0776   -7.0675 C   0  0  0  0  0  0  0  0  0  0  0  0
    7.2025    5.4508   -6.5652 H   0  0  0  0  0  0  0  0  0  0  0  0
    8.9382    6.6307   -6.2945 C   0  0  0  0  0  0  0  0  0  0  0  0
    9.9033    7.4384   -6.8694 C   0  0  0  0  0  0  0  0  0  0  0  0
   11.0638    8.8317   -9.5800 H   0  0  0  0  0  0  0  0  0  0  0  0
    8.6928    7.2379  -10.0352 H   0  0  0  0  0  0  0  0  0  0  0  0
    8.9984    6.4509   -5.2293 H   0  0  0  0  0  0  0  0  0  0  0  0
  1  6  2  0
  2  1  1  0
  3  4  1  0
  3  2  2  0
  4  5  2  0
  5  6  1  0
  1  7  1  0
  2  8  1  0
  5  9  1  0
 10 11  1  0
 11 12  2  0
 12 13  1  0
 13 14  2  0
 14 15  1  0
 15 16  2  0
 16 17  1  0
 16 18  1  0
 18 19  2  0
 19 10  1  0
 19 13  1  0
 12 20  1  0
 14 21  1  0
 18 22  1  0
  3 10  1  0
M  END
>  <Score>  (1) 
-7.21284

$$$$

     RDKit          3D

 22 23  0  0  0  0  0  0  0  0999 V2000
   11.8121    6.9350   -2.9671 C   0  0  0  0  0  0  0  0  0  0  0  0
   11.4354    6.8900   -4.3312 C   0  0  0  0  0  0  0  0  0  0  0  0
   11.3609    8.0839   -5.0231 C   0  0  0  0  0  0  0  0  0  0  0  0
   11.6547    9.2405   -4.3582 N   0  0  0  0  0  0  0  0  0  0  0  0
   12.0101    9.2543   -3.0629 C   0  0  0  0  0  0  0  0  0  0  0  0
   12.0888    8.0923   -2.3635 N   0  0  0  0  0  0  0  0  0  0  0  0
   11.8578    5.9843   -2.4629 H   0  0  0  0  0  0  0  0  0  0  0  0
   11.2453    5.9292   -4.7702 H   0  0  0  0  0  0  0  0  0  0  0  0
   12.2335   10.1969   -2.5799 H   0  0  0  0  0  0  0  0  0  0  0  0
   10.9662    8.1471   -6.3733 N   0  0  0  0  0  0  0  0  0  0  0  0
   10.0114    7.3778   -7.0422 C   0  0  0  0  0  0  0  0  0  0  0  0
   10.2341    6.9461   -8.3598 C   0  0  0  0  0  0  0  0  0  0  0  0
    9.3112    6.2201   -9.0756 C   0  0  0  0  0  0  0  0  0  0  0  0
    8.1021    5.8805   -8.5112 C   0  0  0  0  0  0  0  0  0  0  0  0
    7.8678    6.2962   -7.2212 C   0  0  0  0  0  0  0  0  0  0  0  0
    6.3410    5.8744   -6.4914 Cl  0  0  0  0  0  0  0  0  0  0  0  0
    8.8029    7.0375   -6.4839 C   0  0  0  0  0  0  0  0  0  0  0  0
   11.4547    8.8808   -6.9957 H   0  0  0  0  0  0  0  0  0  0  0  0
   11.2023    7.2318   -8.7781 H   0  0  0  0  0  0  0  0  0  0  0  0
    9.5263    5.9094  -10.0870 H   0  0  0  0  0  0  0  0  0  0  0  0
    7.3482    5.3060   -9.0481 H   0  0  0  0  0  0  0  0  0  0  0  0
    8.5281    7.3481   -5.4799 H   0  0  0  0  0  0  0  0  0  0  0  0
  1  6  2  0
  2  1  1  0
  3  4  1  0
  3  2  2  0
  4  5  2  0
  5  6  1  0
  1  7  1  0
  2  8  1  0
  5  9  1  0
 10 11  1  0
 11 12  2  0
 12 13  1  0
 13 14  2  0
 14 15  1  0
 15 16  1  0
 15 17  2  0
 17 11  1  0
 10 18  1  0
 12 19  1  0
 13 20  1  0
 14 21  1  0
 17 22  1  0
  3 10  1  0
M  END
>  <Score>  (1) 
-7.20822

$$$$

     RDKit          3D

 23 24  0  0  0  0  0  0  0  0999 V2000
   11.8111    6.9287   -2.9687 C   0  0  0  0  0  0  0  0  0  0  0  0
   11.4357    6.8786   -4.3247 C   0  0  0  0  0  0  0  0  0  0  0  0
   11.3606    8.0943   -5.0292 C   0  0  0  0  0  0  0  0  0  0  0  0
   11.6533    9.2411   -4.3633 N   0  0  0  0  0  0  0  0  0  0  0  0
   12.0123    9.2519   -3.0537 C   0  0  0  0  0  0  0  0  0  0  0  0
   12.0890    8.1014   -2.3664 N   0  0  0  0  0  0  0  0  0  0  0  0
   11.8665    5.9999   -2.4380 H   0  0  0  0  0  0  0  0  0  0  0  0
   11.2113    5.9676   -4.8240 H   0  0  0  0  0  0  0  0  0  0  0  0
   12.2273   10.2021   -2.6026 H   0  0  0  0  0  0  0  0  0  0  0  0
   10.9844    8.1248   -6.4163 C   0  0  0  0  0  0  0  0  0  0  0  0
   11.8311    8.6238   -7.3265 N   0  0  0  0  0  0  0  0  0  0  0  0
   11.5247    8.6743   -8.6387 C   0  0  0  0  0  0  0  0  0  0  0  0
   10.3063    8.2024   -9.0772 C   0  0  0  0  0  0  0  0  0  0  0  0
   10.0800    8.2544  -10.1496 H   0  0  0  0  0  0  0  0  0  0  0  0
    9.4413    7.6936   -8.1538 C   0  0  0  0  0  0  0  0  0  0  0  0
    8.1794    7.1984   -8.5632 N   0  0  0  0  0  0  0  0  0  0  0  0
    7.7924    7.2223   -9.9400 C   0  0  0  0  0  0  0  0  0  0  0  0
    9.8134    7.6725   -6.8462 N   0  0  0  0  0  0  0  0  0  0  0  0
   12.2083    9.0784   -9.3830 H   0  0  0  0  0  0  0  0  0  0  0  0
    7.5227    6.8106   -7.8494 H   0  0  0  0  0  0  0  0  0  0  0  0
    6.9028    6.5983  -10.1588 H   0  0  0  0  0  0  0  0  0  0  0  0
    8.6236    6.9091  -10.6252 H   0  0  0  0  0  0  0  0  0  0  0  0
    7.5191    8.2677  -10.2578 H   0  0  0  0  0  0  0  0  0  0  0  0
  1  6  2  0
  2  1  1  0
  3  4  1  0
  3  2  2  0
  4  5  2  0
  5  6  1  0
  1  7  1  0
  2  8  1  0
  5  9  1  0
 10 11  2  0
 11 12  1  0
 12 13  2  0
 13 14  1  0
 13 15  1  0
 15 16  1  0
 16 17  1  0
 15 18  2  0
 18 10  1  0
 12 19  1  0
 16 20  1  0
 17 21  1  0
 17 22  1  0
 17 23  1  0
  3 10  1  0
M  END
>  <Score>  (1) 
-7.2069

$$$$

     RDKit          3D

 22 23  0  0  0  0  0  0  0  0999 V2000
   11.8105    6.9284   -2.9712 C   0  0  0  0  0  0  0  0  0  0  0  0
   11.4366    6.8775   -4.3209 C   0  0  0  0  0  0  0  0  0  0  0  0
   11.3596    8.0937   -5.0325 C   0  0  0  0  0  0  0  0  0  0  0  0
   11.6546    9.2428   -4.3592 N   0  0  0  0  0  0  0  0  0  0  0  0
   12.0116    9.2528   -3.0564 C   0  0  0  0  0  0  0  0  0  0  0  0
   12.0891    8.1008   -2.3658 N   0  0  0  0  0  0  0  0  0  0  0  0
   11.8740    6.0090   -2.4140 H   0  0  0  0  0  0  0  0  0  0  0  0
   11.2103    5.9700   -4.8285 H   0  0  0  0  0  0  0  0  0  0  0  0
   12.2324   10.2021   -2.5838 H   0  0  0  0  0  0  0  0  0  0  0  0
   10.9816    8.1220   -6.4257 C   0  0  0  0  0  0  0  0  0  0  0  0
   10.6937    6.9416   -7.0620 C   0  0  0  0  0  0  0  0  0  0  0  0
   10.3263    6.9551   -8.4114 C   0  0  0  0  0  0  0  0  0  0  0  0
   10.2782    8.1883   -9.0234 C   0  0  0  0  0  0  0  0  0  0  0  0
    9.8838    8.1969  -10.4700 C   0  0  0  0  0  0  0  0  0  0  0  0
   10.5704    9.3786   -8.3751 C   0  0  0  0  0  0  0  0  0  0  0  0
   10.9206    9.2963   -7.0644 N   0  0  0  0  0  0  0  0  0  0  0  0
   10.7349    5.9750   -6.5694 H   0  0  0  0  0  0  0  0  0  0  0  0
   10.1004    6.0287   -8.9109 H   0  0  0  0  0  0  0  0  0  0  0  0
    8.7795    8.0297  -10.5214 H   0  0  0  0  0  0  0  0  0  0  0  0
   10.3742    7.3171  -10.9366 H   0  0  0  0  0  0  0  0  0  0  0  0
   10.1878    9.1479  -10.9618 H   0  0  0  0  0  0  0  0  0  0  0  0
   10.5111   10.2908   -8.9148 H   0  0  0  0  0  0  0  0  0  0  0  0
  1  6  2  0
  2  1  1  0
  3  4  1  0
  3  2  2  0
  4  5  2  0
  5  6  1  0
  1  7  1  0
  2  8  1  0
  5  9  1  0
 10 11  2  0
 11 12  1  0
 12 13  2  0
 13 14  1  0
 13 15  1  0
 15 16  2  0
 16 10  1  0
 11 17  1  0
 12 18  1  0
 14 19  1  0
 14 20  1  0
 14 21  1  0
 15 22  1  0
  3 10  1  0
M  END
>  <Score>  (1) 
-7.20599

$$$$

     RDKit          3D

 29 30  0  0  0  0  0  0  0  0999 V2000
   11.8122    6.9295   -2.9651 C   0  0  0  0  0  0  0  0  0  0  0  0
   11.4345    6.8807   -4.3299 C   0  0  0  0  0  0  0  0  0  0  0  0
   11.3612    8.0916   -5.0260 C   0  0  0  0  0  0  0  0  0  0  0  0
   11.6538    9.2425   -4.3618 N   0  0  0  0  0  0  0  0  0  0  0  0
   12.0113    9.2518   -3.0570 C   0  0  0  0  0  0  0  0  0  0  0  0
   12.0890    8.0999   -2.3661 N   0  0  0  0  0  0  0  0  0  0  0  0
   11.8793    6.0115   -2.3954 H   0  0  0  0  0  0  0  0  0  0  0  0
   11.2183    5.9396   -4.7886 H   0  0  0  0  0  0  0  0  0  0  0  0
   12.2242   10.2084   -2.6160 H   0  0  0  0  0  0  0  0  0  0  0  0
   10.9753    8.0930   -6.4378 C   0  0  0  0  0  0  0  0  0  0  0  0
   10.7109    6.6795   -6.9043 C   0  0  0  0  0  0  0  0  0  0  0  0
   10.3198    6.7653   -8.3655 C   0  0  0  0  0  0  0  0  0  0  0  0
    8.8764    7.1901   -8.5210 C   0  0  0  0  0  0  0  0  0  0  0  0
    8.0092    6.0820   -7.9936 C   0  0  0  0  0  0  0  0  0  0  0  0
    8.6256    5.2880   -6.8925 C   0  0  0  0  0  0  0  0  0  0  0  0
    9.6339    6.0442   -6.0734 C   0  0  0  0  0  0  0  0  0  0  0  0
   10.1330    8.7755   -6.6685 H   0  0  0  0  0  0  0  0  0  0  0  0
   11.8499    8.4867   -7.0270 H   0  0  0  0  0  0  0  0  0  0  0  0
   11.6751    6.1393   -6.8513 H   0  0  0  0  0  0  0  0  0  0  0  0
   10.9466    7.5051   -8.9043 H   0  0  0  0  0  0  0  0  0  0  0  0
   10.4388    5.7902   -8.8785 H   0  0  0  0  0  0  0  0  0  0  0  0
    8.6871    7.2989   -9.6103 H   0  0  0  0  0  0  0  0  0  0  0  0
    8.6580    8.1333   -7.9872 H   0  0  0  0  0  0  0  0  0  0  0  0
    7.0081    6.5114   -7.6954 H   0  0  0  0  0  0  0  0  0  0  0  0
    7.7603    5.3890   -8.8452 H   0  0  0  0  0  0  0  0  0  0  0  0
    9.0441    4.3081   -7.2185 H   0  0  0  0  0  0  0  0  0  0  0  0
    7.7912    5.0123   -6.1824 H   0  0  0  0  0  0  0  0  0  0  0  0
   10.1011    5.2962   -5.3793 H   0  0  0  0  0  0  0  0  0  0  0  0
    9.1633    6.8112   -5.4340 H   0  0  0  0  0  0  0  0  0  0  0  0
  1  6  2  0
  2  1  1  0
  3  4  1  0
  3  2  2  0
  4  5  2  0
  5  6  1  0
  1  7  1  0
  2  8  1  0
  5  9  1  0
 10 11  1  0
 11 12  1  0
 12 13  1  0
 13 14  1  0
 14 15  1  0
 15 16  1  0
 16 11  1  0
 10 17  1  0
 10 18  1  0
 11 19  1  0
 12 20  1  0
 12 21  1  0
 13 22  1  0
 13 23  1  0
 14 24  1  0
 14 25  1  0
 15 26  1  0
 15 27  1  0
 16 28  1  0
 16 29  1  0
  3 10  1  0
M  END
>  <Score>  (1) 
-7.2043

$$$$

     RDKit          3D

 32 34  0  0  0  0  0  0  0  0999 V2000
   11.8118    6.9298   -2.9668 C   0  0  0  0  0  0  0  0  0  0  0  0
   11.4352    6.8800   -4.3271 C   0  0  0  0  0  0  0  0  0  0  0  0
   11.3602    8.0903   -5.0291 C   0  0  0  0  0  0  0  0  0  0  0  0
   11.6544    9.2437   -4.3603 N   0  0  0  0  0  0  0  0  0  0  0  0
   12.0117    9.2530   -3.0562 C   0  0  0  0  0  0  0  0  0  0  0  0
   12.0888    8.0992   -2.3663 N   0  0  0  0  0  0  0  0  0  0  0  0
   11.8791    6.0105   -2.3958 H   0  0  0  0  0  0  0  0  0  0  0  0
   11.2130    5.9664   -4.8173 H   0  0  0  0  0  0  0  0  0  0  0  0
   12.2453   10.1641   -2.5234 H   0  0  0  0  0  0  0  0  0  0  0  0
   10.9741    8.1218   -6.4529 C   0  0  2  0  0  0  0  0  0  0  0  0
   10.3635    9.4724   -6.8446 C   0  0  0  0  0  0  0  0  0  0  0  0
    9.3020    9.5107   -6.4811 H   0  0  0  0  0  0  0  0  0  0  0  0
   10.2768    9.4247   -8.3723 C   0  0  0  0  0  0  0  0  0  0  0  0
    9.7103    8.0843   -8.7758 C   0  0  1  0  0  0  0  0  0  0  0  0
   10.7699    7.0378   -8.9835 C   0  0  0  0  0  0  0  0  0  0  0  0
   10.6192    6.1030   -7.7753 C   0  0  0  0  0  0  0  0  0  0  0  0
    9.9455    7.0646   -6.7872 C   0  0  2  0  0  0  0  0  0  0  0  0
    8.8921    7.6115   -7.6468 N   0  0  0  0  0  0  0  0  0  0  0  0
    8.0680    6.5484   -8.1405 C   0  0  0  0  0  0  0  0  0  0  0  0
   11.8962    8.0314   -7.0632 H   0  0  0  0  0  0  0  0  0  0  0  0
   10.9691   10.3156   -6.5142 H   0  0  0  0  0  0  0  0  0  0  0  0
   11.2620    9.6316   -8.8025 H   0  0  0  0  0  0  0  0  0  0  0  0
    9.5142   10.2004   -8.6411 H   0  0  0  0  0  0  0  0  0  0  0  0
    9.0819    8.1743   -9.6955 H   0  0  0  0  0  0  0  0  0  0  0  0
   11.7931    7.4535   -9.0304 H   0  0  0  0  0  0  0  0  0  0  0  0
   10.5935    6.4115   -9.8772 H   0  0  0  0  0  0  0  0  0  0  0  0
   10.0007    5.2352   -7.9973 H   0  0  0  0  0  0  0  0  0  0  0  0
   11.6090    5.8655   -7.3377 H   0  0  0  0  0  0  0  0  0  0  0  0
    9.5550    6.5521   -5.9104 H   0  0  0  0  0  0  0  0  0  0  0  0
    8.4760    6.0738   -9.0632 H   0  0  0  0  0  0  0  0  0  0  0  0
    7.8544    5.8256   -7.3421 H   0  0  0  0  0  0  0  0  0  0  0  0
    7.0869    6.9999   -8.4534 H   0  0  0  0  0  0  0  0  0  0  0  0
  1  6  2  0
  2  1  1  0
  3  4  1  0
  3  2  2  0
  4  5  2  0
  5  6  1  0
  1  7  1  0
  2  8  1  0
  5  9  1  0
 10 11  1  0
 11 12  1  0
 11 13  1  0
 13 14  1  0
 14 15  1  0
 15 16  1  0
 16 17  1  0
 17 18  1  0
 18 19  1  0
 17 10  1  0
 18 14  1  0
 10 20  1  6
 11 21  1  0
 13 22  1  0
 13 23  1  0
 14 24  1  6
 15 25  1  0
 15 26  1  0
 16 27  1  0
 16 28  1  0
 17 29  1  1
 19 30  1  0
 19 31  1  0
 19 32  1  0
  3 10  1  0
M  END
>  <Score>  (1) 
-7.20187

$$$$

     RDKit          3D

 25 27  0  0  0  0  0  0  0  0999 V2000
   11.8113    6.9287   -2.9683 C   0  0  0  0  0  0  0  0  0  0  0  0
   11.4356    6.8793   -4.3255 C   0  0  0  0  0  0  0  0  0  0  0  0
   11.3605    8.0929   -5.0290 C   0  0  0  0  0  0  0  0  0  0  0  0
   11.6535    9.2417   -4.3626 N   0  0  0  0  0  0  0  0  0  0  0  0
   12.0122    9.2521   -3.0542 C   0  0  0  0  0  0  0  0  0  0  0  0
   12.0890    8.1012   -2.3663 N   0  0  0  0  0  0  0  0  0  0  0  0
   11.8609    5.9886   -2.4547 H   0  0  0  0  0  0  0  0  0  0  0  0
   11.2211    5.9389   -4.7779 H   0  0  0  0  0  0  0  0  0  0  0  0
   12.2283   10.2177   -2.6044 H   0  0  0  0  0  0  0  0  0  0  0  0
   10.9882    8.0822   -6.3873 N   0  0  0  0  0  0  0  0  0  0  0  0
    9.8870    7.2957   -6.8444 C   0  0  0  0  0  0  0  0  0  0  0  0
    9.7205    7.2948   -8.3319 C   0  0  0  0  0  0  0  0  0  0  0  0
   11.0360    7.2260   -8.9616 N   0  0  0  0  0  0  0  0  0  0  0  0
   11.5341    6.5109   -9.9963 C   0  0  0  0  0  0  0  0  0  0  0  0
   10.9228    5.8099  -10.5506 H   0  0  0  0  0  0  0  0  0  0  0  0
   12.8061    6.8606  -10.1242 N   0  0  0  0  0  0  0  0  0  0  0  0
   13.1515    7.7656   -9.2231 N   0  0  0  0  0  0  0  0  0  0  0  0
   12.0379    7.9921   -8.4957 C   0  0  0  0  0  0  0  0  0  0  0  0
   11.7317    8.8806   -7.3408 C   0  0  0  0  0  0  0  0  0  0  0  0
   10.0169    6.2644   -6.4640 H   0  0  0  0  0  0  0  0  0  0  0  0
    8.9458    7.6936   -6.4011 H   0  0  0  0  0  0  0  0  0  0  0  0
    9.1946    8.2367   -8.6131 H   0  0  0  0  0  0  0  0  0  0  0  0
    9.1006    6.4153   -8.5985 H   0  0  0  0  0  0  0  0  0  0  0  0
   11.0778    9.7228   -7.7127 H   0  0  0  0  0  0  0  0  0  0  0  0
   12.6334    9.3443   -6.9073 H   0  0  0  0  0  0  0  0  0  0  0  0
  1  6  2  0
  2  1  1  0
  3  4  1  0
  3  2  2  0
  4  5  2  0
  5  6  1  0
  1  7  1  0
  2  8  1  0
  5  9  1  0
 10 11  1  0
 11 12  1  0
 12 13  1  0
 13 14  1  0
 14 15  1  0
 14 16  2  0
 16 17  1  0
 17 18  2  0
 18 19  1  0
 19 10  1  0
 18 13  1  0
 11 20  1  0
 11 21  1  0
 12 22  1  0
 12 23  1  0
 19 24  1  0
 19 25  1  0
  3 10  1  0
M  END
>  <Score>  (1) 
-7.19209

$$$$

     RDKit          3D

 24 25  0  0  0  0  0  0  0  0999 V2000
   11.8120    6.9299   -2.9662 C   0  0  0  0  0  0  0  0  0  0  0  0
   11.4351    6.8813   -4.3281 C   0  0  0  0  0  0  0  0  0  0  0  0
   11.3601    8.0895   -5.0291 C   0  0  0  0  0  0  0  0  0  0  0  0
   11.6544    9.2433   -4.3598 N   0  0  0  0  0  0  0  0  0  0  0  0
   12.0115    9.2532   -3.0568 C   0  0  0  0  0  0  0  0  0  0  0  0
   12.0889    8.0988   -2.3661 N   0  0  0  0  0  0  0  0  0  0  0  0
   11.8762    6.0038   -2.4038 H   0  0  0  0  0  0  0  0  0  0  0  0
   11.2134    5.9588   -4.8132 H   0  0  0  0  0  0  0  0  0  0  0  0
   12.2273   10.2110   -2.6059 H   0  0  0  0  0  0  0  0  0  0  0  0
   10.9963    8.0595   -6.3498 O   0  0  0  0  0  0  0  0  0  0  0  0
   10.4129    6.9091   -6.8841 C   0  0  0  0  0  0  0  0  0  0  0  0
   11.1963    5.9151   -7.4414 C   0  0  0  0  0  0  0  0  0  0  0  0
   10.5956    4.7892   -7.9622 C   0  0  0  0  0  0  0  0  0  0  0  0
    9.2290    4.5957   -7.9576 C   0  0  0  0  0  0  0  0  0  0  0  0
    8.4736    5.6177   -7.3883 C   0  0  0  0  0  0  0  0  0  0  0  0
    6.9934    5.4049   -7.3851 C   0  0  0  0  0  0  0  0  0  0  0  0
    9.0533    6.7452   -6.8653 C   0  0  0  0  0  0  0  0  0  0  0  0
   12.2765    6.0425   -7.4578 H   0  0  0  0  0  0  0  0  0  0  0  0
   11.1923    3.9905   -8.4075 H   0  0  0  0  0  0  0  0  0  0  0  0
    8.7876    3.7036   -8.3728 H   0  0  0  0  0  0  0  0  0  0  0  0
    6.7075    4.5208   -6.7821 H   0  0  0  0  0  0  0  0  0  0  0  0
    6.7025    5.2638   -8.4611 H   0  0  0  0  0  0  0  0  0  0  0  0
    6.5192    6.3463   -7.0018 H   0  0  0  0  0  0  0  0  0  0  0  0
    8.4130    7.5130   -6.4321 H   0  0  0  0  0  0  0  0  0  0  0  0
  1  6  2  0
  2  1  1  0
  3  4  1  0
  3  2  2  0
  4  5  2  0
  5  6  1  0
  1  7  1  0
  2  8  1  0
  5  9  1  0
 10 11  1  0
 11 12  2  0
 12 13  1  0
 13 14  2  0
 14 15  1  0
 15 16  1  0
 15 17  2  0
 17 11  1  0
 12 18  1  0
 13 19  1  0
 14 20  1  0
 16 21  1  0
 16 22  1  0
 16 23  1  0
 17 24  1  0
  3 10  1  0
M  END
>  <Score>  (1) 
-7.18787

$$$$

     RDKit          3D

 21 22  0  0  0  0  0  0  0  0999 V2000
   11.8116    6.9278   -2.9667 C   0  0  0  0  0  0  0  0  0  0  0  0
   11.4349    6.8858   -4.3301 C   0  0  0  0  0  0  0  0  0  0  0  0
   11.3605    8.0875   -5.0269 C   0  0  0  0  0  0  0  0  0  0  0  0
   11.6534    9.2411   -4.3629 N   0  0  0  0  0  0  0  0  0  0  0  0
   12.0123    9.2509   -3.0533 C   0  0  0  0  0  0  0  0  0  0  0  0
   12.0893    8.1028   -2.3659 N   0  0  0  0  0  0  0  0  0  0  0  0
   11.8729    6.0008   -2.4150 H   0  0  0  0  0  0  0  0  0  0  0  0
   11.2227    5.9505   -4.7762 H   0  0  0  0  0  0  0  0  0  0  0  0
   12.2434   10.1673   -2.5313 H   0  0  0  0  0  0  0  0  0  0  0  0
   10.9819    8.1316   -6.4277 C   0  0  0  0  0  0  0  0  0  0  0  0
   10.3397    9.1685   -7.0180 C   0  0  0  0  0  0  0  0  0  0  0  0
   10.0043    9.1684   -8.3328 N   0  0  0  0  0  0  0  0  0  0  0  0
   10.2895    8.1337   -9.1364 C   0  0  0  0  0  0  0  0  0  0  0  0
    9.9345    8.1431  -10.5097 N   0  0  0  0  0  0  0  0  0  0  0  0
   10.9424    7.0543   -8.5831 C   0  0  0  0  0  0  0  0  0  0  0  0
   11.1887    6.1920   -9.2193 H   0  0  0  0  0  0  0  0  0  0  0  0
   11.2876    7.0449   -7.2484 C   0  0  0  0  0  0  0  0  0  0  0  0
   10.0777   10.0389   -6.4287 H   0  0  0  0  0  0  0  0  0  0  0  0
   10.5347    8.6203  -11.2022 H   0  0  0  0  0  0  0  0  0  0  0  0
    9.0483    7.6515  -10.7902 H   0  0  0  0  0  0  0  0  0  0  0  0
   11.8034    6.2077   -6.7824 H   0  0  0  0  0  0  0  0  0  0  0  0
  1  6  2  0
  2  1  1  0
  3  4  1  0
  3  2  2  0
  4  5  2  0
  5  6  1  0
  1  7  1  0
  2  8  1  0
  5  9  1  0
 10 11  2  0
 11 12  1  0
 12 13  2  0
 13 14  1  0
 13 15  1  0
 15 16  1  0
 15 17  2  0
 17 10  1  0
 11 18  1  0
 14 19  1  0
 14 20  1  0
 17 21  1  0
  3 10  1  0
M  END
>  <Score>  (1) 
-7.18684

$$$$

     RDKit          3D

 32 34  0  0  0  0  0  0  0  0999 V2000
   11.8117    6.9294   -2.9669 C   0  0  0  0  0  0  0  0  0  0  0  0
   11.4353    6.8818   -4.3272 C   0  0  0  0  0  0  0  0  0  0  0  0
   11.3598    8.0889   -5.0301 C   0  0  0  0  0  0  0  0  0  0  0  0
   11.6549    9.2436   -4.3582 N   0  0  0  0  0  0  0  0  0  0  0  0
   12.0112    9.2528   -3.0578 C   0  0  0  0  0  0  0  0  0  0  0  0
   12.0890    8.0995   -2.3658 N   0  0  0  0  0  0  0  0  0  0  0  0
   11.8646    5.9922   -2.4423 H   0  0  0  0  0  0  0  0  0  0  0  0
   11.2126    5.9529   -4.8139 H   0  0  0  0  0  0  0  0  0  0  0  0
   12.2456   10.1615   -2.5213 H   0  0  0  0  0  0  0  0  0  0  0  0
   10.9725    8.0873   -6.4465 C   0  0  1  0  0  0  0  0  0  0  0  0
   12.0595    7.6140   -7.3723 C   0  0  1  0  0  0  0  0  0  0  0  0
   12.1447    6.1051   -7.4522 C   0  0  0  0  0  0  0  0  0  0  0  0
   11.3718    5.7235   -8.7095 C   0  0  0  0  0  0  0  0  0  0  0  0
   10.6488    6.9972   -9.0244 C   0  0  1  0  0  0  0  0  0  0  0  0
    9.4439    7.1534   -8.1579 C   0  0  0  0  0  0  0  0  0  0  0  0
    9.7563    7.2264   -6.6908 C   0  0  0  0  0  0  0  0  0  0  0  0
    8.9003    7.7276   -6.1905 H   0  0  0  0  0  0  0  0  0  0  0  0
   11.6270    8.0176   -8.7184 N   0  0  0  0  0  0  0  0  0  0  0  0
   12.7370    8.0021   -9.6427 C   0  0  0  0  0  0  0  0  0  0  0  0
   10.7056    9.1171   -6.7549 H   0  0  0  0  0  0  0  0  0  0  0  0
   13.0537    8.0193   -7.1312 H   0  0  0  0  0  0  0  0  0  0  0  0
   11.7600    5.6052   -6.5628 H   0  0  0  0  0  0  0  0  0  0  0  0
   13.2155    5.8207   -7.6527 H   0  0  0  0  0  0  0  0  0  0  0  0
   12.0587    5.5154   -9.5648 H   0  0  0  0  0  0  0  0  0  0  0  0
   10.6677    4.8881   -8.5182 H   0  0  0  0  0  0  0  0  0  0  0  0
   10.3429    7.0671  -10.0742 H   0  0  0  0  0  0  0  0  0  0  0  0
    8.8827    8.0491   -8.5012 H   0  0  0  0  0  0  0  0  0  0  0  0
    8.7778    6.2793   -8.3136 H   0  0  0  0  0  0  0  0  0  0  0  0
    9.8419    6.2243   -6.2463 H   0  0  0  0  0  0  0  0  0  0  0  0
   13.6839    7.6957   -9.1475 H   0  0  0  0  0  0  0  0  0  0  0  0
   12.9045    9.0363  -10.0070 H   0  0  0  0  0  0  0  0  0  0  0  0
   12.5079    7.3807  -10.5319 H   0  0  0  0  0  0  0  0  0  0  0  0
  1  6  2  0
  2  1  1  0
  3  4  1  0
  3  2  2  0
  4  5  2  0
  5  6  1  0
  1  7  1  0
  2  8  1  0
  5  9  1  0
 10 11  1  0
 11 12  1  0
 12 13  1  0
 13 14  1  0
 14 15  1  0
 15 16  1  0
 16 17  1  0
 14 18  1  0
 18 19  1  0
 16 10  1  0
 18 11  1  0
 10 20  1  6
 11 21  1  1
 12 22  1  0
 12 23  1  0
 13 24  1  0
 13 25  1  0
 14 26  1  6
 15 27  1  0
 15 28  1  0
 16 29  1  0
 19 30  1  0
 19 31  1  0
 19 32  1  0
  3 10  1  0
M  END
>  <Score>  (1) 
-7.18627

$$$$

     RDKit          3D

 20 21  0  0  0  0  0  0  0  0999 V2000
   12.3028    8.1250   -2.3010 C   0  0  0  0  0  0  0  0  0  0  0  0
   12.0215    6.8826   -2.9128 C   0  0  0  0  0  0  0  0  0  0  0  0
   11.5240    6.9003   -4.2261 C   0  0  0  0  0  0  0  0  0  0  0  0
   11.3430    8.1101   -4.8300 N   0  0  0  0  0  0  0  0  0  0  0  0
   11.6226    9.2732   -4.2145 C   0  0  0  0  0  0  0  0  0  0  0  0
   12.1011    9.2797   -2.9537 N   0  0  0  0  0  0  0  0  0  0  0  0
   12.6811    8.0556   -1.2964 H   0  0  0  0  0  0  0  0  0  0  0  0
   12.1736    5.9594   -2.4150 H   0  0  0  0  0  0  0  0  0  0  0  0
   11.2892    5.9741   -4.7484 H   0  0  0  0  0  0  0  0  0  0  0  0
   11.3961   10.5272   -4.9428 C   0  0  0  0  0  0  0  0  0  0  0  0
   10.1441   10.8735   -5.4042 C   0  0  0  0  0  0  0  0  0  0  0  0
    9.9606   12.0733   -6.0937 C   0  0  0  0  0  0  0  0  0  0  0  0
   10.9998   12.9431   -6.3372 C   0  0  0  0  0  0  0  0  0  0  0  0
   12.2502   12.5922   -5.8737 C   0  0  0  0  0  0  0  0  0  0  0  0
   13.2803   13.4403   -6.1073 F   0  0  0  0  0  0  0  0  0  0  0  0
   12.4343   11.3954   -5.1856 C   0  0  0  0  0  0  0  0  0  0  0  0
   13.6675   11.0694   -4.7393 F   0  0  0  0  0  0  0  0  0  0  0  0
    9.3405   10.1857   -5.2077 H   0  0  0  0  0  0  0  0  0  0  0  0
    8.9835   12.3341   -6.4487 H   0  0  0  0  0  0  0  0  0  0  0  0
   10.8394   13.8786   -6.8786 H   0  0  0  0  0  0  0  0  0  0  0  0
  2  1  2  0
  3  2  1  0
  4  3  2  0
  4  5  1  0
  5  6  2  0
  6  1  1  0
  1  7  1  0
  2  8  1  0
  3  9  1  0
 10 11  2  0
 11 12  1  0
 12 13  2  0
 13 14  1  0
 14 15  1  0
 14 16  2  0
 16 17  1  0
 16 10  1  0
 11 18  1  0
 12 19  1  0
 13 20  1  0
  5 10  1  0
M  END
>  <Score>  (1) 
-7.63349

$$$$

     RDKit          3D

 32 34  0  0  0  0  0  0  0  0999 V2000
   12.3019    8.1268   -2.3036 C   0  0  0  0  0  0  0  0  0  0  0  0
   12.0214    6.8820   -2.9129 C   0  0  0  0  0  0  0  0  0  0  0  0
   11.5242    6.9002   -4.2257 C   0  0  0  0  0  0  0  0  0  0  0  0
   11.3427    8.1061   -4.8302 N   0  0  0  0  0  0  0  0  0  0  0  0
   11.6231    9.2779   -4.2135 C   0  0  0  0  0  0  0  0  0  0  0  0
   12.1017    9.2780   -2.9520 N   0  0  0  0  0  0  0  0  0  0  0  0
   12.6822    8.0589   -1.2939 H   0  0  0  0  0  0  0  0  0  0  0  0
   12.1870    5.9770   -2.3816 H   0  0  0  0  0  0  0  0  0  0  0  0
   11.3031    5.9610   -4.7104 H   0  0  0  0  0  0  0  0  0  0  0  0
   11.4011   10.5450   -4.9314 C   0  0  0  0  0  0  0  0  0  0  0  0
   12.6679   11.3310   -5.0735 C   0  0  0  0  0  0  0  0  0  0  0  0
   13.8339   10.8639   -4.5750 N   0  0  0  0  0  0  0  0  0  0  0  0
   14.9768   11.5210   -4.6757 N   0  0  0  0  0  0  0  0  0  0  0  0
   14.9536   12.7084   -5.3086 C   0  0  0  0  0  0  0  0  0  0  0  0
   16.0528   13.3479   -5.4095 O   0  0  0  0  0  0  0  0  0  0  0  0
   13.7977   13.2424   -5.8403 C   0  0  0  0  0  0  0  0  0  0  0  0
   12.6264   12.5340   -5.7185 C   0  0  0  0  0  0  0  0  0  0  0  0
   11.3260   13.0172   -6.2546 C   0  0  0  0  0  0  0  0  0  0  0  0
   11.3875   14.3979   -6.8101 C   0  0  0  0  0  0  0  0  0  0  0  0
   12.4638   15.2202   -6.1643 C   0  0  0  0  0  0  0  0  0  0  0  0
   13.7994   14.5638   -6.5386 C   0  0  0  0  0  0  0  0  0  0  0  0
   10.6969   11.1925   -4.3667 H   0  0  0  0  0  0  0  0  0  0  0  0
   10.9373   10.3907   -5.9337 H   0  0  0  0  0  0  0  0  0  0  0  0
   15.8632   11.1228   -4.2739 H   0  0  0  0  0  0  0  0  0  0  0  0
   10.9892   12.2898   -7.0429 H   0  0  0  0  0  0  0  0  0  0  0  0
   10.5456   12.9780   -5.4520 H   0  0  0  0  0  0  0  0  0  0  0  0
   10.4228   14.9408   -6.6439 H   0  0  0  0  0  0  0  0  0  0  0  0
   11.6071   14.3189   -7.9062 H   0  0  0  0  0  0  0  0  0  0  0  0
   12.4230   16.2711   -6.4440 H   0  0  0  0  0  0  0  0  0  0  0  0
   12.3788   15.0628   -5.0517 H   0  0  0  0  0  0  0  0  0  0  0  0
   14.6570   15.1967   -6.2309 H   0  0  0  0  0  0  0  0  0  0  0  0
   13.8127   14.3941   -7.6385 H   0  0  0  0  0  0  0  0  0  0  0  0
  2  1  2  0
  3  2  1  0
  4  3  2  0
  4  5  1  0
  5  6  2  0
  6  1  1  0
  1  7  1  0
  2  8  1  0
  3  9  1  0
 10 11  1  0
 11 12  2  0
 12 13  1  0
 13 14  1  0
 14 15  2  0
 14 16  1  0
 16 17  2  0
 17 18  1  0
 18 19  1  0
 19 20  1  0
 20 21  1  0
 17 11  1  0
 21 16  1  0
 10 22  1  0
 10 23  1  0
 13 24  1  0
 18 25  1  0
 18 26  1  0
 19 27  1  0
 19 28  1  0
 20 29  1  0
 20 30  1  0
 21 31  1  0
 21 32  1  0
  5 10  1  0
M  END
>  <Score>  (1) 
-8.43501

$$$$

     RDKit          3D

 29 30  0  0  0  0  0  0  0  0999 V2000
   11.8109    6.9290   -2.9697 C   0  0  0  0  0  0  0  0  0  0  0  0
   11.4363    6.8794   -4.3227 C   0  0  0  0  0  0  0  0  0  0  0  0
   11.3592    8.0907   -5.0329 C   0  0  0  0  0  0  0  0  0  0  0  0
   11.6554    9.2440   -4.3567 N   0  0  0  0  0  0  0  0  0  0  0  0
   12.0111    9.2536   -3.0584 C   0  0  0  0  0  0  0  0  0  0  0  0
   12.0890    8.0993   -2.3656 N   0  0  0  0  0  0  0  0  0  0  0  0
   11.8709    5.9900   -2.4183 H   0  0  0  0  0  0  0  0  0  0  0  0
   11.2139    5.9372   -4.8039 H   0  0  0  0  0  0  0  0  0  0  0  0
   12.2283   10.2100   -2.6016 H   0  0  0  0  0  0  0  0  0  0  0  0
   13.5799    8.6401  -11.5805 H   0  0  0  0  0  0  0  0  0  0  0  0
   13.8924    7.9723  -10.8213 C   0  0  0  0  0  0  0  0  0  0  0  0
   15.0763    7.5196  -10.8836 O   0  0  0  0  0  0  0  0  0  0  0  0
   13.0693    7.5701   -9.7636 N   0  0  0  0  0  0  0  0  0  0  0  0
   13.4755    6.6616   -8.7195 C   0  0  0  0  0  0  0  0  0  0  0  0
   13.0535    7.3204   -7.4000 C   0  0  0  0  0  0  0  0  0  0  0  0
   11.5478    7.1720   -7.3248 C   0  0  0  0  0  0  0  0  0  0  0  0
   10.9890    8.1060   -6.3950 N   0  0  0  0  0  0  0  0  0  0  0  0
   10.8973    7.2400   -8.6873 C   0  0  0  0  0  0  0  0  0  0  0  0
   11.6988    8.0782   -9.6687 C   0  0  0  0  0  0  0  0  0  0  0  0
   14.5440    6.4182   -8.7317 H   0  0  0  0  0  0  0  0  0  0  0  0
   12.8749    5.7192   -8.8260 H   0  0  0  0  0  0  0  0  0  0  0  0
   13.3484    8.3888   -7.3893 H   0  0  0  0  0  0  0  0  0  0  0  0
   13.5005    6.8195   -6.5403 H   0  0  0  0  0  0  0  0  0  0  0  0
   11.3796    6.1097   -6.9728 H   0  0  0  0  0  0  0  0  0  0  0  0
   10.3026    8.8074   -6.7151 H   0  0  0  0  0  0  0  0  0  0  0  0
    9.9066    7.7611   -8.6001 H   0  0  0  0  0  0  0  0  0  0  0  0
   10.7945    6.2337   -9.1557 H   0  0  0  0  0  0  0  0  0  0  0  0
   11.6690    9.1512   -9.4413 H   0  0  0  0  0  0  0  0  0  0  0  0
   11.2182    7.9384  -10.6593 H   0  0  0  0  0  0  0  0  0  0  0  0
  1  6  2  0
  2  1  1  0
  3  4  1  0
  3  2  2  0
  4  5  2  0
  5  6  1  0
  1  7  1  0
  2  8  1  0
  5  9  1  0
 10 11  1  0
 11 12  2  0
 11 13  1  0
 13 14  1  0
 14 15  1  0
 15 16  1  0
 16 17  1  0
 16 18  1  0
 18 19  1  0
 19 13  1  0
 14 20  1  0
 14 21  1  0
 15 22  1  0
 15 23  1  0
 16 24  1  0
 17 25  1  0
 18 26  1  0
 18 27  1  0
 19 28  1  0
 19 29  1  0
  3 17  1  0
M  END
>  <Score>  (1) 
-7.18207

$$$$

     RDKit          3D

 25 26  0  0  0  0  0  0  0  0999 V2000
   11.8113    6.9286   -2.9680 C   0  0  0  0  0  0  0  0  0  0  0  0
   11.4353    6.8821   -4.3276 C   0  0  0  0  0  0  0  0  0  0  0  0
   11.3604    8.0882   -5.0276 C   0  0  0  0  0  0  0  0  0  0  0  0
   11.6540    9.2440   -4.3618 N   0  0  0  0  0  0  0  0  0  0  0  0
   12.0120    9.2527   -3.0548 C   0  0  0  0  0  0  0  0  0  0  0  0
   12.0890    8.1004   -2.3661 N   0  0  0  0  0  0  0  0  0  0  0  0
   11.8763    6.0065   -2.4047 H   0  0  0  0  0  0  0  0  0  0  0  0
   11.2100    5.9754   -4.8322 H   0  0  0  0  0  0  0  0  0  0  0  0
   12.2444   10.1714   -2.5293 H   0  0  0  0  0  0  0  0  0  0  0  0
   10.2919   10.5548  -10.0000 H   0  0  0  0  0  0  0  0  0  0  0  0
   10.5608   10.5684   -8.9621 C   0  0  0  0  0  0  0  0  0  0  0  0
   10.7999   11.6273   -8.4312 O   0  0  0  0  0  0  0  0  0  0  0  0
   10.6382    9.3334   -8.1991 C   0  0  1  0  0  0  0  0  0  0  0  0
   11.0037    9.5472   -6.8615 O   0  0  0  0  0  0  0  0  0  0  0  0
   10.9866    8.1982   -6.4334 C   0  0  2  0  0  0  0  0  0  0  0  0
    9.5645    7.8271   -6.7379 C   0  0  1  0  0  0  0  0  0  0  0  0
    8.6665    8.2248   -5.7577 O   0  0  0  0  0  0  0  0  0  0  0  0
    9.3280    8.6110   -8.0376 C   0  0  2  0  0  0  0  0  0  0  0  0
    9.0869    7.6932   -9.0520 O   0  0  0  0  0  0  0  0  0  0  0  0
   11.3750    8.5983   -8.5938 H   0  0  0  0  0  0  0  0  0  0  0  0
   11.6486    7.6597   -7.1265 H   0  0  0  0  0  0  0  0  0  0  0  0
    9.5191    6.7360   -6.9106 H   0  0  0  0  0  0  0  0  0  0  0  0
    7.8052    7.7830   -5.9325 H   0  0  0  0  0  0  0  0  0  0  0  0
    8.4798    9.2956   -7.9491 H   0  0  0  0  0  0  0  0  0  0  0  0
    8.1455    7.6307   -9.3029 H   0  0  0  0  0  0  0  0  0  0  0  0
  1  6  2  0
  2  1  1  0
  3  4  1  0
  3  2  2  0
  4  5  2  0
  5  6  1  0
  1  7  1  0
  2  8  1  0
  5  9  1  0
 10 11  1  0
 11 12  2  0
 11 13  1  0
 13 14  1  0
 14 15  1  0
 15 16  1  0
 16 17  1  0
 16 18  1  0
 18 19  1  0
 18 13  1  0
 13 20  1  6
 15 21  1  6
 16 22  1  6
 17 23  1  0
 18 24  1  1
 19 25  1  0
  3 15  1  0
M  END
>  <Score>  (1) 
-7.18123

$$$$

     RDKit          3D

 27 29  0  0  0  0  0  0  0  0999 V2000
   11.8113    6.9288   -2.9683 C   0  0  0  0  0  0  0  0  0  0  0  0
   11.4357    6.8809   -4.3256 C   0  0  0  0  0  0  0  0  0  0  0  0
   11.3602    8.0914   -5.0296 C   0  0  0  0  0  0  0  0  0  0  0  0
   11.6539    9.2418   -4.3612 N   0  0  0  0  0  0  0  0  0  0  0  0
   12.0119    9.2531   -3.0555 C   0  0  0  0  0  0  0  0  0  0  0  0
   12.0890    8.1000   -2.3659 N   0  0  0  0  0  0  0  0  0  0  0  0
   11.8567    5.9865   -2.4692 H   0  0  0  0  0  0  0  0  0  0  0  0
   11.2136    5.9405   -4.8060 H   0  0  0  0  0  0  0  0  0  0  0  0
   12.2342   10.1853   -2.5715 H   0  0  0  0  0  0  0  0  0  0  0  0
   10.9862    8.1139   -6.4057 N   0  0  0  0  0  0  0  0  0  0  0  0
   11.2366    9.3124   -7.1630 C   0  0  0  0  0  0  0  0  0  0  0  0
   10.6910    9.1337   -8.5541 C   0  0  1  0  0  0  0  0  0  0  0  0
   11.5615    8.1650   -9.3156 C   0  0  0  0  0  0  0  0  0  0  0  0
   10.6312    6.9677   -9.4688 C   0  0  0  0  0  0  0  0  0  0  0  0
    9.6999    7.2049   -8.2894 C   0  0  1  0  0  0  0  0  0  0  0  0
   10.3753    6.9332   -6.9698 C   0  0  0  0  0  0  0  0  0  0  0  0
    9.4317    8.5722   -8.4555 O   0  0  0  0  0  0  0  0  0  0  0  0
   12.3271    9.5261   -7.2715 H   0  0  0  0  0  0  0  0  0  0  0  0
   10.7920   10.2226   -6.6899 H   0  0  0  0  0  0  0  0  0  0  0  0
   10.6089   10.0976   -9.1017 H   0  0  0  0  0  0  0  0  0  0  0  0
   12.4241    7.8141   -8.7138 H   0  0  0  0  0  0  0  0  0  0  0  0
   11.8823    8.5296  -10.2930 H   0  0  0  0  0  0  0  0  0  0  0  0
   10.0250    7.1235  -10.3831 H   0  0  0  0  0  0  0  0  0  0  0  0
   11.1482    6.0121   -9.4269 H   0  0  0  0  0  0  0  0  0  0  0  0
    8.8141    6.5803   -8.3846 H   0  0  0  0  0  0  0  0  0  0  0  0
    9.5511    6.6446   -6.2543 H   0  0  0  0  0  0  0  0  0  0  0  0
   11.1439    6.1411   -7.0261 H   0  0  0  0  0  0  0  0  0  0  0  0
  1  6  2  0
  2  1  1  0
  3  4  1  0
  3  2  2  0
  4  5  2  0
  5  6  1  0
  1  7  1  0
  2  8  1  0
  5  9  1  0
 10 11  1  0
 11 12  1  0
 12 13  1  0
 13 14  1  0
 14 15  1  0
 15 16  1  0
 15 17  1  0
 16 10  1  0
 17 12  1  0
 11 18  1  0
 11 19  1  0
 12 20  1  6
 13 21  1  0
 13 22  1  0
 14 23  1  0
 14 24  1  0
 15 25  1  6
 16 26  1  0
 16 27  1  0
  3 10  1  0
M  END
>  <Score>  (1) 
-7.18005

$$$$

     RDKit          3D

 24 25  0  0  0  0  0  0  0  0999 V2000
   11.8115    6.9297   -2.9677 C   0  0  0  0  0  0  0  0  0  0  0  0
   11.4355    6.8791   -4.3258 C   0  0  0  0  0  0  0  0  0  0  0  0
   11.3602    8.0919   -5.0296 C   0  0  0  0  0  0  0  0  0  0  0  0
   11.6542    9.2429   -4.3607 N   0  0  0  0  0  0  0  0  0  0  0  0
   12.0117    9.2530   -3.0560 C   0  0  0  0  0  0  0  0  0  0  0  0
   12.0889    8.0993   -2.3663 N   0  0  0  0  0  0  0  0  0  0  0  0
   11.8842    6.0224   -2.3814 H   0  0  0  0  0  0  0  0  0  0  0  0
   11.2158    5.9466   -4.8000 H   0  0  0  0  0  0  0  0  0  0  0  0
   12.2357   10.1934   -2.5689 H   0  0  0  0  0  0  0  0  0  0  0  0
   10.9931    8.0989   -6.3754 O   0  0  0  0  0  0  0  0  0  0  0  0
    9.6916    8.5360   -6.6956 C   0  0  0  0  0  0  0  0  0  0  0  0
    9.5184    8.4624   -8.1611 C   0  0  0  0  0  0  0  0  0  0  0  0
    8.3037    8.8493   -8.6902 C   0  0  0  0  0  0  0  0  0  0  0  0
    8.1470    8.7784  -10.0595 C   0  0  0  0  0  0  0  0  0  0  0  0
    9.1918    8.3289  -10.8648 C   0  0  0  0  0  0  0  0  0  0  0  0
   10.4070    7.9442  -10.3112 C   0  0  0  0  0  0  0  0  0  0  0  0
   10.5581    8.0169   -8.9415 C   0  0  0  0  0  0  0  0  0  0  0  0
    9.6300    9.6279   -6.4289 H   0  0  0  0  0  0  0  0  0  0  0  0
    8.9097    7.9532   -6.1698 H   0  0  0  0  0  0  0  0  0  0  0  0
    7.4799    9.2011   -8.0833 H   0  0  0  0  0  0  0  0  0  0  0  0
    7.2352    9.0605  -10.5463 H   0  0  0  0  0  0  0  0  0  0  0  0
    9.0688    8.2746  -11.9262 H   0  0  0  0  0  0  0  0  0  0  0  0
   11.2234    7.5944  -10.9241 H   0  0  0  0  0  0  0  0  0  0  0  0
   11.5165    7.7117   -8.5234 H   0  0  0  0  0  0  0  0  0  0  0  0
  1  6  2  0
  2  1  1  0
  3  4  1  0
  3  2  2  0
  4  5  2  0
  5  6  1  0
  1  7  1  0
  2  8  1  0
  5  9  1  0
 10 11  1  0
 11 12  1  0
 12 13  2  0
 13 14  1  0
 14 15  2  0
 15 16  1  0
 16 17  2  0
 17 12  1  0
 11 18  1  0
 11 19  1  0
 13 20  1  0
 14 21  1  0
 15 22  1  0
 16 23  1  0
 17 24  1  0
  3 10  1  0
M  END
>  <Score>  (1) 
-7.17697

$$$$

     RDKit          3D

 26 27  0  0  0  0  0  0  0  0999 V2000
   11.8117    6.9298   -2.9672 C   0  0  0  0  0  0  0  0  0  0  0  0
   11.4353    6.8792   -4.3265 C   0  0  0  0  0  0  0  0  0  0  0  0
   11.3602    8.0911   -5.0293 C   0  0  0  0  0  0  0  0  0  0  0  0
   11.6543    9.2437   -4.3606 N   0  0  0  0  0  0  0  0  0  0  0  0
   12.0117    9.2529   -3.0560 C   0  0  0  0  0  0  0  0  0  0  0  0
   12.0888    8.0993   -2.3665 N   0  0  0  0  0  0  0  0  0  0  0  0
   11.8615    5.9734   -2.4471 H   0  0  0  0  0  0  0  0  0  0  0  0
   11.2131    5.9537   -4.8125 H   0  0  0  0  0  0  0  0  0  0  0  0
   12.2459   10.1571   -2.5186 H   0  0  0  0  0  0  0  0  0  0  0  0
   11.8059    5.3572   -9.1052 H   0  0  0  0  0  0  0  0  0  0  0  0
   11.8913    6.4065   -9.4555 C   0  0  0  0  0  0  0  0  0  0  0  0
   11.2089    7.2734   -8.4295 C   0  0  1  0  0  0  0  0  0  0  0  0
   11.6284    7.0167   -7.1406 O   0  0  0  0  0  0  0  0  0  0  0  0
   10.9719    8.0309   -6.4289 C   0  0  2  0  0  0  0  0  0  0  0  0
   11.3008    9.2773   -7.2068 C   0  0  2  0  0  0  0  0  0  0  0  0
   10.1699   10.0902   -7.1963 O   0  0  0  0  0  0  0  0  0  0  0  0
   11.5102    8.7343   -8.6092 C   0  0  1  0  0  0  0  0  0  0  0  0
   12.7931    8.9442   -9.0677 O   0  0  0  0  0  0  0  0  0  0  0  0
   11.3267    6.4768  -10.3925 H   0  0  0  0  0  0  0  0  0  0  0  0
   12.9630    6.6616   -9.5761 H   0  0  0  0  0  0  0  0  0  0  0  0
   10.1239    7.1024   -8.4986 H   0  0  0  0  0  0  0  0  0  0  0  0
    9.8837    7.8272   -6.5247 H   0  0  0  0  0  0  0  0  0  0  0  0
   12.1958    9.7905   -6.8262 H   0  0  0  0  0  0  0  0  0  0  0  0
    9.3727    9.5043   -7.2598 H   0  0  0  0  0  0  0  0  0  0  0  0
   10.7648    9.1633   -9.3191 H   0  0  0  0  0  0  0  0  0  0  0  0
   12.8352    9.8835   -9.4303 H   0  0  0  0  0  0  0  0  0  0  0  0
  1  6  2  0
  2  1  1  0
  3  4  1  0
  3  2  2  0
  4  5  2  0
  5  6  1  0
  1  7  1  0
  2  8  1  0
  5  9  1  0
 10 11  1  0
 11 12  1  0
 12 13  1  0
 13 14  1  0
 14 15  1  0
 15 16  1  0
 15 17  1  0
 17 18  1  0
 17 12  1  0
 11 19  1  0
 11 20  1  0
 12 21  1  1
 14 22  1  1
 15 23  1  1
 16 24  1  0
 17 25  1  6
 18 26  1  0
  3 14  1  0
M  END
>  <Score>  (1) 
-7.17157

$$$$

     RDKit          3D

 32 33  0  0  0  0  0  0  0  0999 V2000
   11.8118    6.9299   -2.9670 C   0  0  0  0  0  0  0  0  0  0  0  0
   11.4352    6.8791   -4.3268 C   0  0  0  0  0  0  0  0  0  0  0  0
   11.3605    8.0921   -5.0286 C   0  0  0  0  0  0  0  0  0  0  0  0
   11.6537    9.2428   -4.3624 N   0  0  0  0  0  0  0  0  0  0  0  0
   12.0121    9.2525   -3.0547 C   0  0  0  0  0  0  0  0  0  0  0  0
   12.0888    8.0996   -2.3667 N   0  0  0  0  0  0  0  0  0  0  0  0
   11.8808    6.0108   -2.3895 H   0  0  0  0  0  0  0  0  0  0  0  0
   11.2166    5.9459   -4.7971 H   0  0  0  0  0  0  0  0  0  0  0  0
   12.2457   10.1607   -2.5207 H   0  0  0  0  0  0  0  0  0  0  0  0
   10.9969    8.0327   -6.3380 O   0  0  0  0  0  0  0  0  0  0  0  0
   11.6439    7.3599   -7.3644 C   0  0  1  0  0  0  0  0  0  0  0  0
   10.7362    6.3994   -7.8693 O   0  0  0  0  0  0  0  0  0  0  0  0
   11.5001    5.5553   -8.6716 C   0  0  1  0  0  0  0  0  0  0  0  0
   10.7348    4.2929   -9.0358 C   0  0  0  0  0  0  0  0  0  0  0  0
   10.3783    3.5849   -7.8913 O   0  0  0  0  0  0  0  0  0  0  0  0
   12.0695    6.2219   -9.8717 C   0  0  2  0  0  0  0  0  0  0  0  0
   13.3321    5.6541  -10.1283 O   0  0  0  0  0  0  0  0  0  0  0  0
   12.1323    7.7044   -9.8059 C   0  0  2  0  0  0  0  0  0  0  0  0
   13.3968    8.0951  -10.3053 O   0  0  0  0  0  0  0  0  0  0  0  0
   11.9667    8.3054   -8.4662 C   0  0  2  0  0  0  0  0  0  0  0  0
   13.1098    9.0366   -8.0675 O   0  0  0  0  0  0  0  0  0  0  0  0
   12.5568    6.8189   -7.0533 H   0  0  0  0  0  0  0  0  0  0  0  0
   12.3538    5.2149   -8.0204 H   0  0  0  0  0  0  0  0  0  0  0  0
    9.8641    4.5329   -9.6733 H   0  0  0  0  0  0  0  0  0  0  0  0
   11.4148    3.6473   -9.6184 H   0  0  0  0  0  0  0  0  0  0  0  0
   11.1579    3.0486   -7.6079 H   0  0  0  0  0  0  0  0  0  0  0  0
   11.4391    5.9097  -10.7558 H   0  0  0  0  0  0  0  0  0  0  0  0
   13.7114    5.4288   -9.2539 H   0  0  0  0  0  0  0  0  0  0  0  0
   11.4007    8.1535  -10.5401 H   0  0  0  0  0  0  0  0  0  0  0  0
   13.7189    8.9168   -9.8963 H   0  0  0  0  0  0  0  0  0  0  0  0
   11.1465    9.0781   -8.4993 H   0  0  0  0  0  0  0  0  0  0  0  0
   13.7322    8.3430   -7.6953 H   0  0  0  0  0  0  0  0  0  0  0  0
  1  6  2  0
  2  1  1  0
  3  4  1  0
  3  2  2  0
  4  5  2  0
  5  6  1  0
  1  7  1  0
  2  8  1  0
  5  9  1  0
 10 11  1  0
 11 12  1  0
 12 13  1  0
 13 14  1  0
 14 15  1  0
 13 16  1  0
 16 17  1  0
 16 18  1  0
 18 19  1  0
 18 20  1  0
 20 21  1  0
 20 11  1  0
 11 22  1  1
 13 23  1  1
 14 24  1  0
 14 25  1  0
 15 26  1  0
 16 27  1  6
 17 28  1  0
 18 29  1  6
 19 30  1  0
 20 31  1  6
 21 32  1  0
  3 10  1  0
M  END
>  <Score>  (1) 
-7.16794

$$$$

     RDKit          3D

 27 28  0  0  0  0  0  0  0  0999 V2000
   11.8117    6.9298   -2.9673 C   0  0  0  0  0  0  0  0  0  0  0  0
   11.4353    6.8793   -4.3265 C   0  0  0  0  0  0  0  0  0  0  0  0
   11.3601    8.0906   -5.0294 C   0  0  0  0  0  0  0  0  0  0  0  0
   11.6544    9.2441   -4.3602 N   0  0  0  0  0  0  0  0  0  0  0  0
   12.0117    9.2528   -3.0562 C   0  0  0  0  0  0  0  0  0  0  0  0
   12.0888    8.0994   -2.3665 N   0  0  0  0  0  0  0  0  0  0  0  0
   11.8788    6.0128   -2.3978 H   0  0  0  0  0  0  0  0  0  0  0  0
   11.2149    5.9397   -4.8008 H   0  0  0  0  0  0  0  0  0  0  0  0
   12.2360   10.2007   -2.5701 H   0  0  0  0  0  0  0  0  0  0  0  0
   10.9694    8.0807   -6.4557 C   0  0  1  0  0  0  0  0  0  0  0  0
   10.1256    7.0177   -6.6936 O   0  0  0  0  0  0  0  0  0  0  0  0
    9.2027    7.4148   -7.6549 C   0  0  2  0  0  0  0  0  0  0  0  0
    9.8774    7.4722   -8.9965 C   0  0  0  0  0  0  0  0  0  0  0  0
   10.3591    6.1866   -9.2755 O   0  0  0  0  0  0  0  0  0  0  0  0
    8.8594    8.8133   -7.1910 C   0  0  1  0  0  0  0  0  0  0  0  0
    8.0416    8.7937   -6.0792 O   0  0  0  0  0  0  0  0  0  0  0  0
   10.2498    9.3429   -6.8240 C   0  0  1  0  0  0  0  0  0  0  0  0
   10.1389   10.2521   -5.8067 O   0  0  0  0  0  0  0  0  0  0  0  0
   11.9155    7.9556   -7.0511 H   0  0  0  0  0  0  0  0  0  0  0  0
    8.3243    6.7588   -7.6402 H   0  0  0  0  0  0  0  0  0  0  0  0
   10.7023    8.2019   -8.9463 H   0  0  0  0  0  0  0  0  0  0  0  0
    9.1734    7.8105   -9.7761 H   0  0  0  0  0  0  0  0  0  0  0  0
   11.3267    6.2640   -9.4592 H   0  0  0  0  0  0  0  0  0  0  0  0
    8.4494    9.4188   -8.0111 H   0  0  0  0  0  0  0  0  0  0  0  0
    7.3680    9.5163   -6.0701 H   0  0  0  0  0  0  0  0  0  0  0  0
   10.7174    9.8236   -7.7081 H   0  0  0  0  0  0  0  0  0  0  0  0
    9.3302   10.0459   -5.2779 H   0  0  0  0  0  0  0  0  0  0  0  0
  1  6  2  0
  2  1  1  0
  3  4  1  0
  3  2  2  0
  4  5  2  0
  5  6  1  0
  1  7  1  0
  2  8  1  0
  5  9  1  0
 10 11  1  0
 11 12  1  0
 12 13  1  0
 13 14  1  0
 12 15  1  0
 15 16  1  0
 15 17  1  0
 17 18  1  0
 17 10  1  0
 10 19  1  6
 12 20  1  6
 13 21  1  0
 13 22  1  0
 14 23  1  0
 15 24  1  6
 16 25  1  0
 17 26  1  6
 18 27  1  0
  3 10  1  0
M  END
>  <Score>  (1) 
-7.16514

$$$$

     RDKit          3D

 22 24  0  0  0  0  0  0  0  0999 V2000
   11.8123    6.9310   -2.9655 C   0  0  0  0  0  0  0  0  0  0  0  0
   11.4349    6.8805   -4.3283 C   0  0  0  0  0  0  0  0  0  0  0  0
   11.3600    8.0894   -5.0295 C   0  0  0  0  0  0  0  0  0  0  0  0
   11.6546    9.2440   -4.3594 N   0  0  0  0  0  0  0  0  0  0  0  0
   12.0115    9.2529   -3.0568 C   0  0  0  0  0  0  0  0  0  0  0  0
   12.0887    8.0982   -2.3666 N   0  0  0  0  0  0  0  0  0  0  0  0
   11.8757    6.0062   -2.4067 H   0  0  0  0  0  0  0  0  0  0  0  0
   11.2143    5.9463   -4.8054 H   0  0  0  0  0  0  0  0  0  0  0  0
   12.2285   10.2072   -2.5999 H   0  0  0  0  0  0  0  0  0  0  0  0
   10.9880    8.0996   -6.3943 N   0  0  0  0  0  0  0  0  0  0  0  0
   11.2806    9.0892   -7.2563 C   0  0  0  0  0  0  0  0  0  0  0  0
   10.7732    8.7933   -8.5166 C   0  0  0  0  0  0  0  0  0  0  0  0
   10.8450    9.3904   -9.4156 H   0  0  0  0  0  0  0  0  0  0  0  0
   10.1570    7.5688   -8.3691 C   0  0  0  0  0  0  0  0  0  0  0  0
    9.4714    6.7376   -9.2355 C   0  0  0  0  0  0  0  0  0  0  0  0
    8.9536    5.5756   -8.8534 N   0  0  0  0  0  0  0  0  0  0  0  0
    9.1017    5.1944   -7.5780 C   0  0  0  0  0  0  0  0  0  0  0  0
    9.7551    5.9737   -6.7275 N   0  0  0  0  0  0  0  0  0  0  0  0
   10.3041    7.1665   -7.0567 C   0  0  0  0  0  0  0  0  0  0  0  0
   11.8267   10.0181   -7.0838 H   0  0  0  0  0  0  0  0  0  0  0  0
    9.3844    7.1055  -10.2638 H   0  0  0  0  0  0  0  0  0  0  0  0
    8.6869    4.2633   -7.2712 H   0  0  0  0  0  0  0  0  0  0  0  0
  1  6  2  0
  2  1  1  0
  3  4  1  0
  3  2  2  0
  4  5  2  0
  5  6  1  0
  1  7  1  0
  2  8  1  0
  5  9  1  0
 10 11  1  0
 11 12  2  0
 12 13  1  0
 12 14  1  0
 14 15  2  0
 15 16  1  0
 16 17  2  0
 17 18  1  0
 18 19  2  0
 19 10  1  0
 19 14  1  0
 11 20  1  0
 15 21  1  0
 17 22  1  0
  3 10  1  0
M  END
>  <Score>  (1) 
-7.16461

$$$$

     RDKit          3D

 22 23  0  0  0  0  0  0  0  0999 V2000
   11.8124    6.9309   -2.9649 C   0  0  0  0  0  0  0  0  0  0  0  0
   11.4352    6.8823   -4.3279 C   0  0  0  0  0  0  0  0  0  0  0  0
   11.3604    8.0909   -5.0284 C   0  0  0  0  0  0  0  0  0  0  0  0
   11.6538    9.2415   -4.3617 N   0  0  0  0  0  0  0  0  0  0  0  0
   12.0118    9.2544   -3.0563 C   0  0  0  0  0  0  0  0  0  0  0  0
   12.0884    8.0962   -2.3669 N   0  0  0  0  0  0  0  0  0  0  0  0
   11.8747    5.9969   -2.4069 H   0  0  0  0  0  0  0  0  0  0  0  0
   11.2150    5.9581   -4.8070 H   0  0  0  0  0  0  0  0  0  0  0  0
   12.2334   10.2001   -2.5794 H   0  0  0  0  0  0  0  0  0  0  0  0
   10.9835    8.1384   -6.4245 C   0  0  0  0  0  0  0  0  0  0  0  0
   10.3298    9.2537   -6.9189 C   0  0  0  0  0  0  0  0  0  0  0  0
    9.9536    9.3393   -8.2413 C   0  0  0  0  0  0  0  0  0  0  0  0
    9.3606   10.3375   -8.7152 O   0  0  0  0  0  0  0  0  0  0  0  0
   10.2381    8.3054   -9.0486 N   0  0  0  0  0  0  0  0  0  0  0  0
    9.8622    8.3499  -10.4459 C   0  0  0  0  0  0  0  0  0  0  0  0
   10.8801    7.2035   -8.5749 C   0  0  0  0  0  0  0  0  0  0  0  0
   11.1109    6.3680   -9.2241 H   0  0  0  0  0  0  0  0  0  0  0  0
   11.2336    7.1551   -7.2729 N   0  0  0  0  0  0  0  0  0  0  0  0
   10.1062   10.0883   -6.2434 H   0  0  0  0  0  0  0  0  0  0  0  0
    9.5502    9.3733  -10.7249 H   0  0  0  0  0  0  0  0  0  0  0  0
    8.9373    7.7196  -10.5438 H   0  0  0  0  0  0  0  0  0  0  0  0
   10.6137    7.9120  -11.1118 H   0  0  0  0  0  0  0  0  0  0  0  0
  1  6  2  0
  2  1  1  0
  3  4  1  0
  3  2  2  0
  4  5  2  0
  5  6  1  0
  1  7  1  0
  2  8  1  0
  5  9  1  0
 10 11  2  0
 11 12  1  0
 12 13  2  0
 12 14  1  0
 14 15  1  0
 14 16  1  0
 16 17  1  0
 16 18  2  0
 18 10  1  0
 11 19  1  0
 15 20  1  0
 15 21  1  0
 15 22  1  0
  3 10  1  0
M  END
>  <Score>  (1) 
-7.16391

$$$$

     RDKit          3D

 27 28  0  0  0  0  0  0  0  0999 V2000
   11.8122    6.9314   -2.9659 C   0  0  0  0  0  0  0  0  0  0  0  0
   11.4348    6.8811   -4.3288 C   0  0  0  0  0  0  0  0  0  0  0  0
   11.3600    8.0874   -5.0287 C   0  0  0  0  0  0  0  0  0  0  0  0
   11.6551    9.2451   -4.3582 N   0  0  0  0  0  0  0  0  0  0  0  0
   12.0112    9.2545   -3.0584 C   0  0  0  0  0  0  0  0  0  0  0  0
   12.0887    8.0965   -2.3660 N   0  0  0  0  0  0  0  0  0  0  0  0
   11.8812    6.0076   -2.3871 H   0  0  0  0  0  0  0  0  0  0  0  0
   11.2154    5.9290   -4.7954 H   0  0  0  0  0  0  0  0  0  0  0  0
   12.2251   10.2054   -2.6117 H   0  0  0  0  0  0  0  0  0  0  0  0
   10.9701    8.0937   -6.4574 C   0  0  1  0  0  0  0  0  0  0  0  0
    9.8202    8.8421   -6.6717 O   0  0  0  0  0  0  0  0  0  0  0  0
    9.8966    9.3983   -7.9232 C   0  0  2  0  0  0  0  0  0  0  0  0
    9.5746    8.3698   -8.9813 C   0  0  0  0  0  0  0  0  0  0  0  0
    8.2835    7.8972   -8.7649 O   0  0  0  0  0  0  0  0  0  0  0  0
   11.3260    9.8536   -8.0167 C   0  0  1  0  0  0  0  0  0  0  0  0
   11.4809   11.1155   -7.4046 O   0  0  0  0  0  0  0  0  0  0  0  0
   12.0553    8.7848   -7.2397 C   0  0  2  0  0  0  0  0  0  0  0  0
   12.7024    7.9383   -8.1338 O   0  0  0  0  0  0  0  0  0  0  0  0
   10.8552    7.0289   -6.7594 H   0  0  0  0  0  0  0  0  0  0  0  0
    9.2192   10.2687   -7.9790 H   0  0  0  0  0  0  0  0  0  0  0  0
    9.6878    8.8296   -9.9877 H   0  0  0  0  0  0  0  0  0  0  0  0
   10.2820    7.5415   -8.9165 H   0  0  0  0  0  0  0  0  0  0  0  0
    8.2328    6.9311   -9.0027 H   0  0  0  0  0  0  0  0  0  0  0  0
   11.6556    9.9591   -9.0503 H   0  0  0  0  0  0  0  0  0  0  0  0
   12.0522   11.7134   -7.9222 H   0  0  0  0  0  0  0  0  0  0  0  0
   12.7953    9.2637   -6.5712 H   0  0  0  0  0  0  0  0  0  0  0  0
   13.6836    8.0115   -8.0226 H   0  0  0  0  0  0  0  0  0  0  0  0
  1  6  2  0
  2  1  1  0
  3  4  1  0
  3  2  2  0
  4  5  2  0
  5  6  1  0
  1  7  1  0
  2  8  1  0
  5  9  1  0
 10 11  1  0
 11 12  1  0
 12 13  1  0
 13 14  1  0
 12 15  1  0
 15 16  1  0
 15 17  1  0
 17 18  1  0
 17 10  1  0
 10 19  1  6
 12 20  1  1
 13 21  1  0
 13 22  1  0
 14 23  1  0
 15 24  1  6
 16 25  1  0
 17 26  1  1
 18 27  1  0
  3 10  1  0
M  END
>  <Score>  (1) 
-7.15913

$$$$

     RDKit          3D

 28 29  0  0  0  0  0  0  0  0999 V2000
   12.3024    8.1220   -2.3017 C   0  0  0  0  0  0  0  0  0  0  0  0
   12.0221    6.8841   -2.9112 C   0  0  0  0  0  0  0  0  0  0  0  0
   11.5235    6.8994   -4.2275 C   0  0  0  0  0  0  0  0  0  0  0  0
   11.3423    8.1055   -4.8313 N   0  0  0  0  0  0  0  0  0  0  0  0
   11.6241    9.2781   -4.2110 C   0  0  0  0  0  0  0  0  0  0  0  0
   12.1005    9.2819   -2.9554 N   0  0  0  0  0  0  0  0  0  0  0  0
   12.6838    8.0707   -1.2909 H   0  0  0  0  0  0  0  0  0  0  0  0
   12.1871    5.9664   -2.3801 H   0  0  0  0  0  0  0  0  0  0  0  0
   11.3047    5.9724   -4.7074 H   0  0  0  0  0  0  0  0  0  0  0  0
   11.4028   10.5326   -4.9259 C   0  0  0  0  0  0  0  0  0  0  0  0
   10.7925   11.5890   -4.3241 C   0  0  0  0  0  0  0  0  0  0  0  0
   10.5933   12.7640   -5.0164 C   0  0  0  0  0  0  0  0  0  0  0  0
    9.9718   13.8579   -4.4231 O   0  0  0  0  0  0  0  0  0  0  0  0
    9.7572   15.0708   -5.1127 C   0  0  0  0  0  0  0  0  0  0  0  0
   11.0020   12.9123   -6.3357 C   0  0  0  0  0  0  0  0  0  0  0  0
   11.6234   11.8153   -6.9255 C   0  0  0  0  0  0  0  0  0  0  0  0
   12.0493   11.9358   -8.2639 O   0  0  0  0  0  0  0  0  0  0  0  0
   12.6755   10.8325   -8.8604 C   0  0  0  0  0  0  0  0  0  0  0  0
   11.8180   10.6523   -6.2327 C   0  0  0  0  0  0  0  0  0  0  0  0
   10.4648   11.5120   -3.3112 H   0  0  0  0  0  0  0  0  0  0  0  0
    9.2647   14.8030   -6.0839 H   0  0  0  0  0  0  0  0  0  0  0  0
   10.6995   15.5942   -5.3748 H   0  0  0  0  0  0  0  0  0  0  0  0
    9.0662   15.7012   -4.5162 H   0  0  0  0  0  0  0  0  0  0  0  0
   10.8574   13.8226   -6.8996 H   0  0  0  0  0  0  0  0  0  0  0  0
   12.9872   11.1160   -9.8774 H   0  0  0  0  0  0  0  0  0  0  0  0
   11.9935    9.9333   -8.9088 H   0  0  0  0  0  0  0  0  0  0  0  0
   13.5736   10.4874   -8.2792 H   0  0  0  0  0  0  0  0  0  0  0  0
   12.3142    9.8013   -6.7308 H   0  0  0  0  0  0  0  0  0  0  0  0
  2  1  2  0
  3  2  1  0
  4  3  2  0
  4  5  1  0
  5  6  2  0
  6  1  1  0
  1  7  1  0
  2  8  1  0
  3  9  1  0
 10 11  2  0
 11 12  1  0
 12 13  1  0
 13 14  1  0
 12 15  2  0
 15 16  1  0
 16 17  1  0
 17 18  1  0
 16 19  2  0
 19 10  1  0
 11 20  1  0
 14 21  1  0
 14 22  1  0
 14 23  1  0
 15 24  1  0
 18 25  1  0
 18 26  1  0
 18 27  1  0
 19 28  1  0
  5 10  1  0
M  END
>  <Score>  (1) 
-7.62192

$$$$

     RDKit          3D

 22 23  0  0  0  0  0  0  0  0999 V2000
   11.8135    6.9361   -2.9624 C   0  0  0  0  0  0  0  0  0  0  0  0
   11.4335    6.8863   -4.3369 C   0  0  0  0  0  0  0  0  0  0  0  0
   11.3606    8.0860   -5.0249 C   0  0  0  0  0  0  0  0  0  0  0  0
   11.6553    9.2381   -4.3550 N   0  0  0  0  0  0  0  0  0  0  0  0
   12.0104    9.2532   -3.0615 C   0  0  0  0  0  0  0  0  0  0  0  0
   12.0886    8.0964   -2.3654 N   0  0  0  0  0  0  0  0  0  0  0  0
   11.8727    6.0075   -2.4169 H   0  0  0  0  0  0  0  0  0  0  0  0
   11.2494    5.9304   -4.7529 H   0  0  0  0  0  0  0  0  0  0  0  0
   12.2450   10.1582   -2.5240 H   0  0  0  0  0  0  0  0  0  0  0  0
   10.9688    8.1296   -6.3594 N   0  0  0  0  0  0  0  0  0  0  0  0
   10.9538    9.2427   -7.2353 C   0  0  0  0  0  0  0  0  0  0  0  0
   11.9394   10.1960   -7.2680 C   0  0  0  0  0  0  0  0  0  0  0  0
   11.8674   11.3027   -8.1271 C   0  0  0  0  0  0  0  0  0  0  0  0
   10.8052   11.4781   -8.9744 C   0  0  0  0  0  0  0  0  0  0  0  0
   10.6967   12.8580  -10.0575 Cl  0  0  0  0  0  0  0  0  0  0  0  0
    9.8077   10.5261   -8.9525 C   0  0  0  0  0  0  0  0  0  0  0  0
    9.8725    9.4386   -8.1114 C   0  0  0  0  0  0  0  0  0  0  0  0
   10.6344    7.1940   -6.7710 H   0  0  0  0  0  0  0  0  0  0  0  0
   12.8174   10.0960   -6.6400 H   0  0  0  0  0  0  0  0  0  0  0  0
   12.6639   12.0384   -8.1267 H   0  0  0  0  0  0  0  0  0  0  0  0
    8.9598   10.6614   -9.6261 H   0  0  0  0  0  0  0  0  0  0  0  0
    9.0993    8.6788   -8.0786 H   0  0  0  0  0  0  0  0  0  0  0  0
  1  6  2  0
  2  1  1  0
  3  4  1  0
  3  2  2  0
  4  5  2  0
  5  6  1  0
  1  7  1  0
  2  8  1  0
  5  9  1  0
 10 11  1  0
 11 12  2  0
 12 13  1  0
 13 14  2  0
 14 15  1  0
 14 16  1  0
 16 17  2  0
 17 11  1  0
 10 18  1  0
 12 19  1  0
 13 20  1  0
 16 21  1  0
 17 22  1  0
  3 10  1  0
M  END
>  <Score>  (1) 
-7.15199

$$$$

     RDKit          3D

 28 29  0  0  0  0  0  0  0  0999 V2000
   11.8117    6.9305   -2.9673 C   0  0  0  0  0  0  0  0  0  0  0  0
   11.4356    6.8777   -4.3247 C   0  0  0  0  0  0  0  0  0  0  0  0
   11.3600    8.0936   -5.0308 C   0  0  0  0  0  0  0  0  0  0  0  0
   11.6544    9.2427   -4.3599 N   0  0  0  0  0  0  0  0  0  0  0  0
   12.0115    9.2533   -3.0569 C   0  0  0  0  0  0  0  0  0  0  0  0
   12.0887    8.0983   -2.3664 N   0  0  0  0  0  0  0  0  0  0  0  0
   11.8716    6.0055   -2.4216 H   0  0  0  0  0  0  0  0  0  0  0  0
   11.2147    5.9519   -4.8064 H   0  0  0  0  0  0  0  0  0  0  0  0
   12.2254   10.2163   -2.6146 H   0  0  0  0  0  0  0  0  0  0  0  0
   10.9863    8.1033   -6.4013 N   0  0  0  0  0  0  0  0  0  0  0  0
   10.3014    9.2454   -6.9388 C   0  0  0  0  0  0  0  0  0  0  0  0
   10.4525    9.2091   -8.4568 C   0  0  0  0  0  0  0  0  0  0  0  0
    9.8826    7.9358   -9.0351 C   0  0  0  0  0  0  0  0  0  0  0  0
   10.3116    6.7095   -8.3087 C   0  0  1  0  0  0  0  0  0  0  0  0
   10.9816    5.7598   -9.2846 C   0  0  0  0  0  0  0  0  0  0  0  0
   11.3039    6.9712   -7.2090 C   0  0  0  0  0  0  0  0  0  0  0  0
   10.7718   10.1999   -6.6168 H   0  0  0  0  0  0  0  0  0  0  0  0
    9.2052    9.2209   -6.7390 H   0  0  0  0  0  0  0  0  0  0  0  0
    9.9068   10.0875   -8.8569 H   0  0  0  0  0  0  0  0  0  0  0  0
   11.5191    9.3031   -8.7416 H   0  0  0  0  0  0  0  0  0  0  0  0
    8.7792    8.0205   -9.0045 H   0  0  0  0  0  0  0  0  0  0  0  0
   10.2159    7.9040  -10.1042 H   0  0  0  0  0  0  0  0  0  0  0  0
    9.4613    6.1465   -7.8531 H   0  0  0  0  0  0  0  0  0  0  0  0
   10.9864    4.7401   -8.8267 H   0  0  0  0  0  0  0  0  0  0  0  0
   12.0348    6.1052   -9.3821 H   0  0  0  0  0  0  0  0  0  0  0  0
   10.4491    5.7238  -10.2584 H   0  0  0  0  0  0  0  0  0  0  0  0
   11.4445    6.0622   -6.6215 H   0  0  0  0  0  0  0  0  0  0  0  0
   12.2883    7.1767   -7.7196 H   0  0  0  0  0  0  0  0  0  0  0  0
  1  6  2  0
  2  1  1  0
  3  4  1  0
  3  2  2  0
  4  5  2  0
  5  6  1  0
  1  7  1  0
  2  8  1  0
  5  9  1  0
 10 11  1  0
 11 12  1  0
 12 13  1  0
 13 14  1  0
 14 15  1  0
 14 16  1  0
 16 10  1  0
 11 17  1  0
 11 18  1  0
 12 19  1  0
 12 20  1  0
 13 21  1  0
 13 22  1  0
 14 23  1  1
 15 24  1  0
 15 25  1  0
 15 26  1  0
 16 27  1  0
 16 28  1  0
  3 10  1  0
M  END
>  <Score>  (1) 
-7.14837

$$$$

     RDKit          3D

 32 34  0  0  0  0  0  0  0  0999 V2000
   11.8110    6.9295   -2.9697 C   0  0  0  0  0  0  0  0  0  0  0  0
   11.4356    6.8792   -4.3255 C   0  0  0  0  0  0  0  0  0  0  0  0
   11.3603    8.0900   -5.0286 C   0  0  0  0  0  0  0  0  0  0  0  0
   11.6544    9.2442   -4.3605 N   0  0  0  0  0  0  0  0  0  0  0  0
   12.0118    9.2529   -3.0558 C   0  0  0  0  0  0  0  0  0  0  0  0
   12.0890    8.1002   -2.3659 N   0  0  0  0  0  0  0  0  0  0  0  0
   11.8539    5.9731   -2.4748 H   0  0  0  0  0  0  0  0  0  0  0  0
   11.2119    5.9394   -4.8119 H   0  0  0  0  0  0  0  0  0  0  0  0
   12.2377   10.1877   -2.5595 H   0  0  0  0  0  0  0  0  0  0  0  0
   10.9701    8.0761   -6.4512 C   0  0  2  0  0  0  0  0  0  0  0  0
   12.0652    7.4946   -7.2893 C   0  0  1  0  0  0  0  0  0  0  0  0
   11.5821    7.0222   -8.6440 C   0  0  0  0  0  0  0  0  0  0  0  0
   12.0174    8.1016   -9.6129 C   0  0  0  0  0  0  0  0  0  0  0  0
   12.3182    9.2508   -8.6693 C   0  0  1  0  0  0  0  0  0  0  0  0
   10.9931    9.8340   -8.2460 C   0  0  0  0  0  0  0  0  0  0  0  0
   10.6087    9.4803   -6.8490 C   0  0  0  0  0  0  0  0  0  0  0  0
   11.0568   10.2503   -6.1733 H   0  0  0  0  0  0  0  0  0  0  0  0
   12.9981    8.5836   -7.5873 N   0  0  0  0  0  0  0  0  0  0  0  0
   14.1965    7.9772   -8.1126 C   0  0  0  0  0  0  0  0  0  0  0  0
   10.0846    7.3834   -6.5360 H   0  0  0  0  0  0  0  0  0  0  0  0
   12.5935    6.6732   -6.7805 H   0  0  0  0  0  0  0  0  0  0  0  0
   12.0806    6.0873   -8.9639 H   0  0  0  0  0  0  0  0  0  0  0  0
   10.4933    6.9634   -8.6331 H   0  0  0  0  0  0  0  0  0  0  0  0
   11.1529    8.4314  -10.2349 H   0  0  0  0  0  0  0  0  0  0  0  0
   12.8897    7.8108  -10.2106 H   0  0  0  0  0  0  0  0  0  0  0  0
   12.9838   10.0086   -9.1522 H   0  0  0  0  0  0  0  0  0  0  0  0
   10.1694    9.5683   -8.9443 H   0  0  0  0  0  0  0  0  0  0  0  0
   11.1044   10.9480   -8.3243 H   0  0  0  0  0  0  0  0  0  0  0  0
    9.5102    9.5842   -6.7351 H   0  0  0  0  0  0  0  0  0  0  0  0
   14.8553    7.7485   -7.2300 H   0  0  0  0  0  0  0  0  0  0  0  0
   14.0062    6.9968   -8.5969 H   0  0  0  0  0  0  0  0  0  0  0  0
   14.7442    8.6768   -8.7633 H   0  0  0  0  0  0  0  0  0  0  0  0
  1  6  2  0
  2  1  1  0
  3  4  1  0
  3  2  2  0
  4  5  2  0
  5  6  1  0
  1  7  1  0
  2  8  1  0
  5  9  1  0
 10 11  1  0
 11 12  1  0
 12 13  1  0
 13 14  1  0
 14 15  1  0
 15 16  1  0
 16 17  1  0
 14 18  1  0
 18 19  1  0
 16 10  1  0
 18 11  1  0
 10 20  1  1
 11 21  1  1
 12 22  1  0
 12 23  1  0
 13 24  1  0
 13 25  1  0
 14 26  1  6
 15 27  1  0
 15 28  1  0
 16 29  1  0
 19 30  1  0
 19 31  1  0
 19 32  1  0
  3 10  1  0
M  END
>  <Score>  (1) 
-7.14704

$$$$

     RDKit          3D

 26 27  0  0  0  0  0  0  0  0999 V2000
   11.8110    6.9284   -2.9693 C   0  0  0  0  0  0  0  0  0  0  0  0
   11.4357    6.8800   -4.3252 C   0  0  0  0  0  0  0  0  0  0  0  0
   11.3600    8.0897   -5.0296 C   0  0  0  0  0  0  0  0  0  0  0  0
   11.6545    9.2445   -4.3601 N   0  0  0  0  0  0  0  0  0  0  0  0
   12.0118    9.2524   -3.0557 C   0  0  0  0  0  0  0  0  0  0  0  0
   12.0890    8.1010   -2.3661 N   0  0  0  0  0  0  0  0  0  0  0  0
   11.8756    6.0065   -2.4071 H   0  0  0  0  0  0  0  0  0  0  0  0
   11.2099    5.9709   -4.8303 H   0  0  0  0  0  0  0  0  0  0  0  0
   12.2324   10.1719   -2.5732 H   0  0  0  0  0  0  0  0  0  0  0  0
   12.9450    6.6281  -10.0083 H   0  0  0  0  0  0  0  0  0  0  0  0
   12.6450    6.2448   -9.0010 C   0  0  0  0  0  0  0  0  0  0  0  0
   11.7514    7.2750   -8.3798 C   0  0  1  0  0  0  0  0  0  0  0  0
   11.3476    6.9590   -7.1054 O   0  0  0  0  0  0  0  0  0  0  0  0
   10.9705    8.1106   -6.4622 C   0  0  2  0  0  0  0  0  0  0  0  0
   11.5714    9.2738   -7.1878 C   0  0  1  0  0  0  0  0  0  0  0  0
   12.2756   10.1288   -6.3708 O   0  0  0  0  0  0  0  0  0  0  0  0
   12.5069    8.5708   -8.1745 C   0  0  1  0  0  0  0  0  0  0  0  0
   13.7431    8.3862   -7.6043 O   0  0  0  0  0  0  0  0  0  0  0  0
   12.0782    5.3115   -9.1744 H   0  0  0  0  0  0  0  0  0  0  0  0
   13.5247    5.9929   -8.4108 H   0  0  0  0  0  0  0  0  0  0  0  0
   10.8989    7.4563   -9.0601 H   0  0  0  0  0  0  0  0  0  0  0  0
    9.8514    8.1646   -6.5007 H   0  0  0  0  0  0  0  0  0  0  0  0
   10.7945    9.7961   -7.8078 H   0  0  0  0  0  0  0  0  0  0  0  0
   11.6325   10.7038   -5.8916 H   0  0  0  0  0  0  0  0  0  0  0  0
   12.5806    9.1610   -9.1077 H   0  0  0  0  0  0  0  0  0  0  0  0
   13.8723    7.5445   -7.1330 H   0  0  0  0  0  0  0  0  0  0  0  0
  1  6  2  0
  2  1  1  0
  3  4  1  0
  3  2  2  0
  4  5  2  0
  5  6  1  0
  1  7  1  0
  2  8  1  0
  5  9  1  0
 10 11  1  0
 11 12  1  0
 12 13  1  0
 13 14  1  0
 14 15  1  0
 15 16  1  0
 15 17  1  0
 17 18  1  0
 17 12  1  0
 11 19  1  0
 11 20  1  0
 12 21  1  6
 14 22  1  1
 15 23  1  6
 16 24  1  0
 17 25  1  6
 18 26  1  0
  3 14  1  0
M  END
>  <Score>  (1) 
-7.14675

$$$$

     RDKit          3D

 22 23  0  0  0  0  0  0  0  0999 V2000
   11.8135    6.9348   -2.9627 C   0  0  0  0  0  0  0  0  0  0  0  0
   11.4336    6.8876   -4.3342 C   0  0  0  0  0  0  0  0  0  0  0  0
   11.3589    8.0801   -5.0318 C   0  0  0  0  0  0  0  0  0  0  0  0
   11.6561    9.2432   -4.3534 N   0  0  0  0  0  0  0  0  0  0  0  0
   12.0110    9.2544   -3.0584 C   0  0  0  0  0  0  0  0  0  0  0  0
   12.0889    8.0958   -2.3655 N   0  0  0  0  0  0  0  0  0  0  0  0
   11.8561    5.9681   -2.4665 H   0  0  0  0  0  0  0  0  0  0  0  0
   11.1956    5.9654   -4.7972 H   0  0  0  0  0  0  0  0  0  0  0  0
   12.2384   10.1877   -2.5549 H   0  0  0  0  0  0  0  0  0  0  0  0
   11.0270    8.1940   -6.4016 N   0  0  0  0  0  0  0  0  0  0  0  0
   10.5463    7.1222   -7.1980 C   0  0  0  0  0  0  0  0  0  0  0  0
    9.4977    7.3410   -8.0781 C   0  0  0  0  0  0  0  0  0  0  0  0
    9.0605    6.3209   -8.8739 C   0  0  0  0  0  0  0  0  0  0  0  0
    9.6422    5.0749   -8.8194 C   0  0  0  0  0  0  0  0  0  0  0  0
   10.6805    4.8927   -7.9356 C   0  0  0  0  0  0  0  0  0  0  0  0
   11.5264    3.1819   -7.8175 Br  0  0  0  0  0  0  0  0  0  0  0  0
   11.1556    5.9001   -7.1106 C   0  0  0  0  0  0  0  0  0  0  0  0
   11.1229    9.1111   -6.9140 H   0  0  0  0  0  0  0  0  0  0  0  0
    9.0732    8.3238   -8.0893 H   0  0  0  0  0  0  0  0  0  0  0  0
    8.2421    6.4643   -9.5713 H   0  0  0  0  0  0  0  0  0  0  0  0
    9.3014    4.2486   -9.4511 H   0  0  0  0  0  0  0  0  0  0  0  0
   11.9897    5.7002   -6.4557 H   0  0  0  0  0  0  0  0  0  0  0  0
  1  6  2  0
  2  1  1  0
  3  4  1  0
  3  2  2  0
  4  5  2  0
  5  6  1  0
  1  7  1  0
  2  8  1  0
  5  9  1  0
 10 11  1  0
 11 12  2  0
 12 13  1  0
 13 14  2  0
 14 15  1  0
 15 16  1  0
 15 17  2  0
 17 11  1  0
 10 18  1  0
 12 19  1  0
 13 20  1  0
 14 21  1  0
 17 22  1  0
  3 10  1  0
M  END
>  <Score>  (1) 
-7.14362

$$$$

     RDKit          3D

 28 29  0  0  0  0  0  0  0  0999 V2000
   11.8131    6.9330   -2.9631 C   0  0  0  0  0  0  0  0  0  0  0  0
   11.4340    6.8850   -4.3332 C   0  0  0  0  0  0  0  0  0  0  0  0
   11.3606    8.0868   -5.0262 C   0  0  0  0  0  0  0  0  0  0  0  0
   11.6543    9.2410   -4.3595 N   0  0  0  0  0  0  0  0  0  0  0  0
   12.0113    9.2560   -3.0587 C   0  0  0  0  0  0  0  0  0  0  0  0
   12.0886    8.0942   -2.3652 N   0  0  0  0  0  0  0  0  0  0  0  0
   11.8689    6.0022   -2.4303 H   0  0  0  0  0  0  0  0  0  0  0  0
   11.2164    5.9585   -4.8022 H   0  0  0  0  0  0  0  0  0  0  0  0
   12.2239   10.2065   -2.6163 H   0  0  0  0  0  0  0  0  0  0  0  0
   10.9805    8.1534   -6.4407 C   0  0  0  0  0  0  0  0  0  0  0  0
   10.3869    7.1025   -7.0992 C   0  0  0  0  0  0  0  0  0  0  0  0
   10.0331    7.1912   -8.4512 C   0  0  0  0  0  0  0  0  0  0  0  0
    9.2786    5.8227   -9.2439 Cl  0  0  0  0  0  0  0  0  0  0  0  0
   10.2726    8.3457   -9.1661 C   0  0  0  0  0  0  0  0  0  0  0  0
    9.9018    8.3706  -10.4914 O   0  0  0  0  0  0  0  0  0  0  0  0
   10.0814    9.4723  -11.3445 C   0  0  0  0  0  0  0  0  0  0  0  0
   10.8659    9.4058   -8.5208 C   0  0  0  0  0  0  0  0  0  0  0  0
   11.2060    9.2963   -7.1886 C   0  0  0  0  0  0  0  0  0  0  0  0
   11.8032   10.3591   -6.5337 O   0  0  0  0  0  0  0  0  0  0  0  0
   12.1115   11.5914   -7.1127 C   0  0  0  0  0  0  0  0  0  0  0  0
   10.1734    6.1721   -6.5946 H   0  0  0  0  0  0  0  0  0  0  0  0
   10.1772    9.1833  -12.4078 H   0  0  0  0  0  0  0  0  0  0  0  0
   11.0105   10.0556  -11.1103 H   0  0  0  0  0  0  0  0  0  0  0  0
    9.2078   10.1471  -11.2547 H   0  0  0  0  0  0  0  0  0  0  0  0
   11.0519   10.3109   -9.0873 H   0  0  0  0  0  0  0  0  0  0  0  0
   12.0989   12.4087   -6.3325 H   0  0  0  0  0  0  0  0  0  0  0  0
   11.4214   11.9245   -7.8960 H   0  0  0  0  0  0  0  0  0  0  0  0
   13.1648   11.5281   -7.4919 H   0  0  0  0  0  0  0  0  0  0  0  0
  1  6  2  0
  2  1  1  0
  3  4  1  0
  3  2  2  0
  4  5  2  0
  5  6  1  0
  1  7  1  0
  2  8  1  0
  5  9  1  0
 10 11  2  0
 11 12  1  0
 12 13  1  0
 12 14  2  0
 14 15  1  0
 15 16  1  0
 14 17  1  0
 17 18  2  0
 18 19  1  0
 19 20  1  0
 18 10  1  0
 11 21  1  0
 16 22  1  0
 16 23  1  0
 16 24  1  0
 17 25  1  0
 20 26  1  0
 20 27  1  0
 20 28  1  0
  3 10  1  0
M  END
>  <Score>  (1) 
-7.14311

$$$$

     RDKit          3D

 26 27  0  0  0  0  0  0  0  0999 V2000
   11.8126    6.9315   -2.9645 C   0  0  0  0  0  0  0  0  0  0  0  0
   11.4346    6.8801   -4.3292 C   0  0  0  0  0  0  0  0  0  0  0  0
   11.3604    8.0900   -5.0284 C   0  0  0  0  0  0  0  0  0  0  0  0
   11.6545    9.2438   -4.3599 N   0  0  0  0  0  0  0  0  0  0  0  0
   12.0114    9.2541   -3.0575 C   0  0  0  0  0  0  0  0  0  0  0  0
   12.0885    8.0965   -2.3664 N   0  0  0  0  0  0  0  0  0  0  0  0
   11.8659    5.9961   -2.4392 H   0  0  0  0  0  0  0  0  0  0  0  0
   11.2156    5.9563   -4.8043 H   0  0  0  0  0  0  0  0  0  0  0  0
   12.2301   10.2052   -2.5935 H   0  0  0  0  0  0  0  0  0  0  0  0
   11.2055    8.0110   -9.6244 H   0  0  0  0  0  0  0  0  0  0  0  0
   11.5441    6.9960   -9.4048 C   0  0  0  0  0  0  0  0  0  0  0  0
   12.0428    6.8437   -7.9655 C   0  0  2  0  0  0  0  0  0  0  0  0
   11.0280    6.8803   -7.0557 O   0  0  0  0  0  0  0  0  0  0  0  0
   10.9699    8.1103   -6.4642 C   0  0  2  0  0  0  0  0  0  0  0  0
   11.8683    9.0484   -7.2555 C   0  0  1  0  0  0  0  0  0  0  0  0
   12.3791   10.0629   -6.4743 O   0  0  0  0  0  0  0  0  0  0  0  0
   12.9250    8.0692   -7.7136 C   0  0  2  0  0  0  0  0  0  0  0  0
   13.5785    8.4878   -8.8454 O   0  0  0  0  0  0  0  0  0  0  0  0
   10.7792    6.2489   -9.6590 H   0  0  0  0  0  0  0  0  0  0  0  0
   12.4223    6.7974  -10.0618 H   0  0  0  0  0  0  0  0  0  0  0  0
   12.6716    5.9491   -7.9390 H   0  0  0  0  0  0  0  0  0  0  0  0
    9.9175    8.4819   -6.5165 H   0  0  0  0  0  0  0  0  0  0  0  0
   11.3147    9.4027   -8.1305 H   0  0  0  0  0  0  0  0  0  0  0  0
   11.7959   10.8687   -6.6406 H   0  0  0  0  0  0  0  0  0  0  0  0
   13.6495    7.8074   -6.9279 H   0  0  0  0  0  0  0  0  0  0  0  0
   14.2106    7.7757   -9.1097 H   0  0  0  0  0  0  0  0  0  0  0  0
  1  6  2  0
  2  1  1  0
  3  4  1  0
  3  2  2  0
  4  5  2  0
  5  6  1  0
  1  7  1  0
  2  8  1  0
  5  9  1  0
 10 11  1  0
 11 12  1  0
 12 13  1  0
 13 14  1  0
 14 15  1  0
 15 16  1  0
 15 17  1  0
 17 18  1  0
 17 12  1  0
 11 19  1  0
 11 20  1  0
 12 21  1  6
 14 22  1  1
 15 23  1  6
 16 24  1  0
 17 25  1  1
 18 26  1  0
  3 14  1  0
M  END
>  <Score>  (1) 
-7.14288

$$$$

     RDKit          3D

 21 22  0  0  0  0  0  0  0  0999 V2000
   11.8121    6.9317   -2.9664 C   0  0  0  0  0  0  0  0  0  0  0  0
   11.4353    6.8779   -4.3260 C   0  0  0  0  0  0  0  0  0  0  0  0
   11.3612    8.0957   -5.0272 C   0  0  0  0  0  0  0  0  0  0  0  0
   11.6535    9.2409   -4.3623 N   0  0  0  0  0  0  0  0  0  0  0  0
   12.0112    9.2542   -3.0584 C   0  0  0  0  0  0  0  0  0  0  0  0
   12.0886    8.0956   -2.3657 N   0  0  0  0  0  0  0  0  0  0  0  0
   11.8630    5.9908   -2.4476 H   0  0  0  0  0  0  0  0  0  0  0  0
   11.2132    5.9529   -4.8119 H   0  0  0  0  0  0  0  0  0  0  0  0
   12.2288   10.2124   -2.6006 H   0  0  0  0  0  0  0  0  0  0  0  0
    7.4662    6.7069   -7.7578 H   0  0  0  0  0  0  0  0  0  0  0  0
    8.1216    7.0914   -8.5254 C   0  0  0  0  0  0  0  0  0  0  0  0
    7.8028    7.1001   -9.7443 O   0  0  0  0  0  0  0  0  0  0  0  0
    9.4335    7.6187   -8.0907 C   0  0  0  0  0  0  0  0  0  0  0  0
   10.3111    8.1232   -9.0329 C   0  0  0  0  0  0  0  0  0  0  0  0
   11.5508    8.6297   -8.6878 C   0  0  0  0  0  0  0  0  0  0  0  0
   11.8801    8.6102   -7.3434 C   0  0  0  0  0  0  0  0  0  0  0  0
   10.9791    8.0986   -6.4264 C   0  0  0  0  0  0  0  0  0  0  0  0
    9.7819    7.6138   -6.7947 N   0  0  0  0  0  0  0  0  0  0  0  0
    9.9691    8.0984  -10.0633 H   0  0  0  0  0  0  0  0  0  0  0  0
   12.2077    9.0132   -9.4425 H   0  0  0  0  0  0  0  0  0  0  0  0
   12.8409    9.0031   -7.0785 H   0  0  0  0  0  0  0  0  0  0  0  0
  1  6  2  0
  2  1  1  0
  3  4  1  0
  3  2  2  0
  4  5  2  0
  5  6  1  0
  1  7  1  0
  2  8  1  0
  5  9  1  0
 10 11  1  0
 11 12  2  0
 11 13  1  0
 13 14  2  0
 14 15  1  0
 15 16  2  0
 16 17  1  0
 17 18  2  0
 18 13  1  0
 14 19  1  0
 15 20  1  0
 16 21  1  0
  3 17  1  0
M  END
>  <Score>  (1) 
-7.14056

$$$$

     RDKit          3D

 23 24  0  0  0  0  0  0  0  0999 V2000
   11.8113    6.9253   -2.9671 C   0  0  0  0  0  0  0  0  0  0  0  0
   11.4354    6.8829   -4.3273 C   0  0  0  0  0  0  0  0  0  0  0  0
   11.3613    8.0909   -5.0251 C   0  0  0  0  0  0  0  0  0  0  0  0
   11.6547    9.2437   -4.3594 N   0  0  0  0  0  0  0  0  0  0  0  0
   12.0103    9.2522   -3.0608 C   0  0  0  0  0  0  0  0  0  0  0  0
   12.0890    8.1010   -2.3663 N   0  0  0  0  0  0  0  0  0  0  0  0
   11.8888    6.0403   -2.3744 H   0  0  0  0  0  0  0  0  0  0  0  0
   11.2185    5.9538   -4.7904 H   0  0  0  0  0  0  0  0  0  0  0  0
   12.2440   10.1623   -2.5274 H   0  0  0  0  0  0  0  0  0  0  0  0
   12.1512    6.6464   -8.8280 H   0  0  0  0  0  0  0  0  0  0  0  0
   11.2716    7.0107   -9.3463 C   0  0  0  0  0  0  0  0  0  0  0  0
   11.1627    7.0107  -10.5604 O   0  0  0  0  0  0  0  0  0  0  0  0
   10.1529    7.5325   -8.5176 C   0  0  2  0  0  0  0  0  0  0  0  0
   10.3350    9.0468   -8.4440 C   0  0  0  0  0  0  0  0  0  0  0  0
   11.3028    9.1561   -7.3240 C   0  0  0  0  0  0  0  0  0  0  0  0
   12.2351    9.9621   -7.1334 O   0  0  0  0  0  0  0  0  0  0  0  0
   10.9834    8.1121   -6.4162 N   0  0  0  0  0  0  0  0  0  0  0  0
   10.2274    7.0728   -7.0847 C   0  0  0  0  0  0  0  0  0  0  0  0
    9.1772    7.3493   -8.9956 H   0  0  0  0  0  0  0  0  0  0  0  0
   10.7735    9.4354   -9.3874 H   0  0  0  0  0  0  0  0  0  0  0  0
    9.4228    9.5728   -8.1586 H   0  0  0  0  0  0  0  0  0  0  0  0
    9.2028    6.9479   -6.6718 H   0  0  0  0  0  0  0  0  0  0  0  0
   10.7245    6.0898   -7.0792 H   0  0  0  0  0  0  0  0  0  0  0  0
  1  6  2  0
  2  1  1  0
  3  4  1  0
  3  2  2  0
  4  5  2  0
  5  6  1  0
  1  7  1  0
  2  8  1  0
  5  9  1  0
 10 11  1  0
 11 12  2  0
 11 13  1  0
 13 14  1  0
 14 15  1  0
 15 16  2  0
 15 17  1  0
 17 18  1  0
 18 13  1  0
 13 19  1  6
 14 20  1  0
 14 21  1  0
 18 22  1  0
 18 23  1  0
  3 17  1  0
M  END
>  <Score>  (1) 
-7.13949

$$$$

     RDKit          3D

 20 21  0  0  0  0  0  0  0  0999 V2000
   11.8125    6.9303   -2.9645 C   0  0  0  0  0  0  0  0  0  0  0  0
   11.4344    6.8809   -4.3304 C   0  0  0  0  0  0  0  0  0  0  0  0
   11.3614    8.0927   -5.0254 C   0  0  0  0  0  0  0  0  0  0  0  0
   11.6524    9.2403   -4.3664 N   0  0  0  0  0  0  0  0  0  0  0  0
   12.0127    9.2520   -3.0521 C   0  0  0  0  0  0  0  0  0  0  0  0
   12.0887    8.0998   -2.3671 N   0  0  0  0  0  0  0  0  0  0  0  0
   11.8761    6.0063   -2.4053 H   0  0  0  0  0  0  0  0  0  0  0  0
   11.2156    5.9482   -4.8014 H   0  0  0  0  0  0  0  0  0  0  0  0
   12.2273   10.2175   -2.6080 H   0  0  0  0  0  0  0  0  0  0  0  0
   10.9788    8.1064   -6.4304 C   0  0  0  0  0  0  0  0  0  0  0  0
   11.2135    9.2462   -7.1669 C   0  0  0  0  0  0  0  0  0  0  0  0
   10.8424    9.2458   -8.5102 C   0  0  0  0  0  0  0  0  0  0  0  0
   10.2733    8.1544   -9.0519 N   0  0  0  0  0  0  0  0  0  0  0  0
   10.0400    7.0342   -8.3373 C   0  0  0  0  0  0  0  0  0  0  0  0
    9.4395    5.8870   -8.9148 N   0  0  0  0  0  0  0  0  0  0  0  0
   10.4096    7.0611   -7.0365 N   0  0  0  0  0  0  0  0  0  0  0  0
   11.6664   10.1031   -6.7199 H   0  0  0  0  0  0  0  0  0  0  0  0
   11.0095   10.1301   -9.1359 H   0  0  0  0  0  0  0  0  0  0  0  0
    9.5529    5.6336   -9.9120 H   0  0  0  0  0  0  0  0  0  0  0  0
    8.8604    5.2730   -8.3133 H   0  0  0  0  0  0  0  0  0  0  0  0
  1  6  2  0
  2  1  1  0
  3  4  1  0
  3  2  2  0
  4  5  2  0
  5  6  1  0
  1  7  1  0
  2  8  1  0
  5  9  1  0
 10 11  2  0
 11 12  1  0
 12 13  2  0
 13 14  1  0
 14 15  1  0
 14 16  2  0
 16 10  1  0
 11 17  1  0
 12 18  1  0
 15 19  1  0
 15 20  1  0
  3 10  1  0
M  END
>  <Score>  (1) 
-7.1384

$$$$

     RDKit          3D

 22 23  0  0  0  0  0  0  0  0999 V2000
   12.3027    8.1238   -2.3012 C   0  0  0  0  0  0  0  0  0  0  0  0
   12.0212    6.8827   -2.9136 C   0  0  0  0  0  0  0  0  0  0  0  0
   11.5246    6.8964   -4.2242 C   0  0  0  0  0  0  0  0  0  0  0  0
   11.3429    8.1119   -4.8304 N   0  0  0  0  0  0  0  0  0  0  0  0
   11.6231    9.2752   -4.2133 C   0  0  0  0  0  0  0  0  0  0  0  0
   12.1005    9.2811   -2.9552 N   0  0  0  0  0  0  0  0  0  0  0  0
   12.6815    8.0743   -1.2972 H   0  0  0  0  0  0  0  0  0  0  0  0
   12.1843    5.9522   -2.3862 H   0  0  0  0  0  0  0  0  0  0  0  0
   11.3077    5.9705   -4.6991 H   0  0  0  0  0  0  0  0  0  0  0  0
   11.4222   10.5511   -4.8763 C   0  0  0  0  0  0  0  0  0  0  0  0
   11.4093   11.7355   -4.1845 C   0  0  0  0  0  0  0  0  0  0  0  0
   11.2138   12.9177   -4.8688 C   0  0  0  0  0  0  0  0  0  0  0  0
   11.0288   12.9533   -6.2392 C   0  0  0  0  0  0  0  0  0  0  0  0
   11.0403   11.7663   -6.9444 C   0  0  0  0  0  0  0  0  0  0  0  0
   10.8506   11.7943   -8.3547 N   0  0  0  0  0  0  0  0  0  0  0  0
   11.2369   10.5860   -6.2493 C   0  0  0  0  0  0  0  0  0  0  0  0
   11.5523   11.7302   -3.1106 H   0  0  0  0  0  0  0  0  0  0  0  0
   11.1994   13.8663   -4.3452 H   0  0  0  0  0  0  0  0  0  0  0  0
   10.8762   13.9016   -6.7574 H   0  0  0  0  0  0  0  0  0  0  0  0
   10.0984   11.2616   -8.8447 H   0  0  0  0  0  0  0  0  0  0  0  0
   11.5170   12.3900   -8.9016 H   0  0  0  0  0  0  0  0  0  0  0  0
   11.2447    9.6608   -6.8078 H   0  0  0  0  0  0  0  0  0  0  0  0
  2  1  2  0
  3  2  1  0
  4  3  2  0
  4  5  1  0
  5  6  2  0
  6  1  1  0
  1  7  1  0
  2  8  1  0
  3  9  1  0
 10 11  2  0
 11 12  1  0
 12 13  2  0
 13 14  1  0
 14 15  1  0
 14 16  2  0
 16 10  1  0
 11 17  1  0
 12 18  1  0
 13 19  1  0
 15 20  1  0
 15 21  1  0
 16 22  1  0
  5 10  1  0
M  END
>  <Score>  (1) 
-7.6174

$$$$

     RDKit          3D

 27 28  0  0  0  0  0  0  0  0999 V2000
   11.8119    6.9295   -2.9663 C   0  0  0  0  0  0  0  0  0  0  0  0
   11.4352    6.8829   -4.3282 C   0  0  0  0  0  0  0  0  0  0  0  0
   11.3603    8.0899   -5.0286 C   0  0  0  0  0  0  0  0  0  0  0  0
   11.6538    9.2411   -4.3613 N   0  0  0  0  0  0  0  0  0  0  0  0
   12.0119    9.2538   -3.0557 C   0  0  0  0  0  0  0  0  0  0  0  0
   12.0889    8.0987   -2.3658 N   0  0  0  0  0  0  0  0  0  0  0  0
   11.8702    5.9879   -2.4204 H   0  0  0  0  0  0  0  0  0  0  0  0
   11.2234    5.9354   -4.7685 H   0  0  0  0  0  0  0  0  0  0  0  0
   12.2408   10.1836   -2.5467 H   0  0  0  0  0  0  0  0  0  0  0  0
    8.8414    7.5000  -10.0647 H   0  0  0  0  0  0  0  0  0  0  0  0
    9.8991    7.6222   -9.8747 C   0  0  0  0  0  0  0  0  0  0  0  0
   10.6910    6.9237  -10.5505 O   0  0  0  0  0  0  0  0  0  0  0  0
   10.4127    8.5203   -8.9138 N   0  0  0  0  0  0  0  0  0  0  0  0
    9.5923    9.3688   -8.0843 C   0  0  0  0  0  0  0  0  0  0  0  0
    9.7187    8.8658   -6.6628 C   0  0  0  0  0  0  0  0  0  0  0  0
   10.9711    8.0700   -6.4455 C   0  0  0  0  0  0  0  0  0  0  0  0
   12.1428    8.5845   -7.2615 C   0  0  0  0  0  0  0  0  0  0  0  0
   11.8444    8.6112   -8.7339 C   0  0  0  0  0  0  0  0  0  0  0  0
    8.5536    9.4551   -8.4276 H   0  0  0  0  0  0  0  0  0  0  0  0
   10.0727   10.3888   -8.1108 H   0  0  0  0  0  0  0  0  0  0  0  0
    9.6224    9.6855   -5.9360 H   0  0  0  0  0  0  0  0  0  0  0  0
    8.8551    8.1715   -6.4618 H   0  0  0  0  0  0  0  0  0  0  0  0
   10.7813    7.0294   -6.7734 H   0  0  0  0  0  0  0  0  0  0  0  0
   12.4416    9.5705   -6.8519 H   0  0  0  0  0  0  0  0  0  0  0  0
   12.9671    7.8329   -7.1035 H   0  0  0  0  0  0  0  0  0  0  0  0
   12.1428    9.6196   -9.1219 H   0  0  0  0  0  0  0  0  0  0  0  0
   12.3951    7.8237   -9.2879 H   0  0  0  0  0  0  0  0  0  0  0  0
  1  6  2  0
  2  1  1  0
  3  4  1  0
  3  2  2  0
  4  5  2  0
  5  6  1  0
  1  7  1  0
  2  8  1  0
  5  9  1  0
 10 11  1  0
 11 12  2  0
 11 13  1  0
 13 14  1  0
 14 15  1  0
 15 16  1  0
 16 17  1  0
 17 18  1  0
 18 13  1  0
 14 19  1  0
 14 20  1  0
 15 21  1  0
 15 22  1  0
 16 23  1  0
 17 24  1  0
 17 25  1  0
 18 26  1  0
 18 27  1  0
  3 16  1  0
M  END
>  <Score>  (1) 
-7.1291

$$$$

     RDKit          3D

 26 27  0  0  0  0  0  0  0  0999 V2000
   11.8116    6.9299   -2.9674 C   0  0  0  0  0  0  0  0  0  0  0  0
   11.4353    6.8791   -4.3263 C   0  0  0  0  0  0  0  0  0  0  0  0
   11.3602    8.0910   -5.0294 C   0  0  0  0  0  0  0  0  0  0  0  0
   11.6543    9.2439   -4.3606 N   0  0  0  0  0  0  0  0  0  0  0  0
   12.0117    9.2528   -3.0559 C   0  0  0  0  0  0  0  0  0  0  0  0
   12.0888    8.0993   -2.3664 N   0  0  0  0  0  0  0  0  0  0  0  0
   11.8796    6.0275   -2.4000 H   0  0  0  0  0  0  0  0  0  0  0  0
   11.2150    5.9467   -4.8030 H   0  0  0  0  0  0  0  0  0  0  0  0
   12.2261   10.2093   -2.6096 H   0  0  0  0  0  0  0  0  0  0  0  0
    7.5678    6.8288   -7.4327 H   0  0  0  0  0  0  0  0  0  0  0  0
    7.5056    7.3172   -6.4481 C   0  0  0  0  0  0  0  0  0  0  0  0
    8.8077    7.9916   -6.1492 C   0  0  1  0  0  0  0  0  0  0  0  0
    9.8709    7.1770   -6.5453 O   0  0  0  0  0  0  0  0  0  0  0  0
   10.9711    8.0456   -6.4371 C   0  0  1  0  0  0  0  0  0  0  0  0
   10.5270    9.3627   -6.9850 C   0  0  2  0  0  0  0  0  0  0  0  0
   10.9566   10.4136   -6.1966 O   0  0  0  0  0  0  0  0  0  0  0  0
    9.0195    9.2351   -6.9904 C   0  0  2  0  0  0  0  0  0  0  0  0
    8.4369   10.3435   -6.4171 O   0  0  0  0  0  0  0  0  0  0  0  0
    6.6844    8.0608   -6.4340 H   0  0  0  0  0  0  0  0  0  0  0  0
    7.3351    6.5452   -5.6661 H   0  0  0  0  0  0  0  0  0  0  0  0
    8.9214    8.2452   -5.0674 H   0  0  0  0  0  0  0  0  0  0  0  0
   11.8170    7.6260   -7.0261 H   0  0  0  0  0  0  0  0  0  0  0  0
   10.8904    9.5112   -8.0374 H   0  0  0  0  0  0  0  0  0  0  0  0
   11.9223   10.5250   -6.3487 H   0  0  0  0  0  0  0  0  0  0  0  0
    8.6129    9.0359   -8.0078 H   0  0  0  0  0  0  0  0  0  0  0  0
    7.9558   10.9236   -7.0721 H   0  0  0  0  0  0  0  0  0  0  0  0
  1  6  2  0
  2  1  1  0
  3  4  1  0
  3  2  2  0
  4  5  2  0
  5  6  1  0
  1  7  1  0
  2  8  1  0
  5  9  1  0
 10 11  1  0
 11 12  1  0
 12 13  1  0
 13 14  1  0
 14 15  1  0
 15 16  1  0
 15 17  1  0
 17 18  1  0
 17 12  1  0
 11 19  1  0
 11 20  1  0
 12 21  1  1
 14 22  1  6
 15 23  1  6
 16 24  1  0
 17 25  1  6
 18 26  1  0
  3 14  1  0
M  END
>  <Score>  (1) 
-7.12868

$$$$

     RDKit          3D

 27 28  0  0  0  0  0  0  0  0999 V2000
   11.8120    6.9323   -2.9669 C   0  0  0  0  0  0  0  0  0  0  0  0
   11.4351    6.8808   -4.3276 C   0  0  0  0  0  0  0  0  0  0  0  0
   11.3602    8.0889   -5.0285 C   0  0  0  0  0  0  0  0  0  0  0  0
   11.6551    9.2445   -4.3577 N   0  0  0  0  0  0  0  0  0  0  0  0
   12.0106    9.2523   -3.0598 C   0  0  0  0  0  0  0  0  0  0  0  0
   12.0888    8.0971   -2.3655 N   0  0  0  0  0  0  0  0  0  0  0  0
   11.8881    6.0333   -2.3709 H   0  0  0  0  0  0  0  0  0  0  0  0
   11.2156    5.9431   -4.7996 H   0  0  0  0  0  0  0  0  0  0  0  0
   12.2402   10.1736   -2.5454 H   0  0  0  0  0  0  0  0  0  0  0  0
   10.9877    8.1158   -6.4013 N   0  0  0  0  0  0  0  0  0  0  0  0
   11.9102    8.6546   -7.3602 C   0  0  0  0  0  0  0  0  0  0  0  0
   11.0701    9.3611   -8.4291 C   0  0  0  0  0  0  0  0  0  0  0  0
   10.3122    8.2705   -9.1528 C   0  0  0  0  0  0  0  0  0  0  0  0
    9.5467    7.3703   -8.2523 C   0  0  2  0  0  0  0  0  0  0  0  0
    8.1185    7.5382   -8.5614 N   0  0  0  0  0  0  0  0  0  0  0  0
    9.7150    7.6117   -6.8008 C   0  0  0  0  0  0  0  0  0  0  0  0
   12.4122    7.8128   -7.8747 H   0  0  0  0  0  0  0  0  0  0  0  0
   12.6572    9.3391   -6.9305 H   0  0  0  0  0  0  0  0  0  0  0  0
   11.7500    9.8276   -9.1671 H   0  0  0  0  0  0  0  0  0  0  0  0
   10.3755   10.0833   -7.9707 H   0  0  0  0  0  0  0  0  0  0  0  0
    9.6668    8.6978   -9.9659 H   0  0  0  0  0  0  0  0  0  0  0  0
   11.0960    7.6812   -9.7138 H   0  0  0  0  0  0  0  0  0  0  0  0
    9.7655    6.3021   -8.5084 H   0  0  0  0  0  0  0  0  0  0  0  0
    7.8445    6.9560   -9.3586 H   0  0  0  0  0  0  0  0  0  0  0  0
    7.5278    7.4753   -7.7228 H   0  0  0  0  0  0  0  0  0  0  0  0
    9.5776    6.6206   -6.2758 H   0  0  0  0  0  0  0  0  0  0  0  0
    8.8964    8.2525   -6.3835 H   0  0  0  0  0  0  0  0  0  0  0  0
  1  6  2  0
  2  1  1  0
  3  4  1  0
  3  2  2  0
  4  5  2  0
  5  6  1  0
  1  7  1  0
  2  8  1  0
  5  9  1  0
 10 11  1  0
 11 12  1  0
 12 13  1  0
 13 14  1  0
 14 15  1  0
 14 16  1  0
 16 10  1  0
 11 17  1  0
 11 18  1  0
 12 19  1  0
 12 20  1  0
 13 21  1  0
 13 22  1  0
 14 23  1  1
 15 24  1  0
 15 25  1  0
 16 26  1  0
 16 27  1  0
  3 10  1  0
M  END
>  <Score>  (1) 
-7.12818

$$$$

     RDKit          3D

 27 28  0  0  0  0  0  0  0  0999 V2000
   11.8117    6.9323   -2.9681 C   0  0  0  0  0  0  0  0  0  0  0  0
   11.4360    6.8829   -4.3253 C   0  0  0  0  0  0  0  0  0  0  0  0
   11.3604    8.0926   -5.0291 C   0  0  0  0  0  0  0  0  0  0  0  0
   11.6538    9.2387   -4.3606 N   0  0  0  0  0  0  0  0  0  0  0  0
   12.0111    9.2534   -3.0583 C   0  0  0  0  0  0  0  0  0  0  0  0
   12.0890    8.0961   -2.3646 N   0  0  0  0  0  0  0  0  0  0  0  0
   11.8877    6.0333   -2.3724 H   0  0  0  0  0  0  0  0  0  0  0  0
   11.2164    5.9557   -4.8013 H   0  0  0  0  0  0  0  0  0  0  0  0
   12.2480   10.1531   -2.5095 H   0  0  0  0  0  0  0  0  0  0  0  0
   10.9378    4.7021   -8.5636 H   0  0  0  0  0  0  0  0  0  0  0  0
   11.4549    5.6546   -8.5990 C   0  0  0  0  0  0  0  0  0  0  0  0
   12.6585    5.7492   -8.4422 O   0  0  0  0  0  0  0  0  0  0  0  0
   10.6091    6.8619   -8.8527 C   0  0  0  0  0  0  0  0  0  0  0  0
   11.4815    8.0774   -8.7882 C   0  0  0  0  0  0  0  0  0  0  0  0
   12.0033    8.3416   -7.3995 C   0  0  0  0  0  0  0  0  0  0  0  0
   10.9878    8.1172   -6.4012 N   0  0  0  0  0  0  0  0  0  0  0  0
    9.6397    7.9255   -6.8024 C   0  0  0  0  0  0  0  0  0  0  0  0
    9.4939    6.8515   -7.8599 C   0  0  0  0  0  0  0  0  0  0  0  0
   10.1943    6.8160   -9.8950 H   0  0  0  0  0  0  0  0  0  0  0  0
   10.9855    8.9931   -9.1481 H   0  0  0  0  0  0  0  0  0  0  0  0
   12.3879    7.8523   -9.4214 H   0  0  0  0  0  0  0  0  0  0  0  0
   12.3813    9.3915   -7.3604 H   0  0  0  0  0  0  0  0  0  0  0  0
   12.8868    7.7038   -7.1798 H   0  0  0  0  0  0  0  0  0  0  0  0
    9.1639    8.8545   -7.2201 H   0  0  0  0  0  0  0  0  0  0  0  0
    8.9730    7.6255   -5.9574 H   0  0  0  0  0  0  0  0  0  0  0  0
    8.5331    7.0304   -8.3850 H   0  0  0  0  0  0  0  0  0  0  0  0
    9.3903    5.8855   -7.3296 H   0  0  0  0  0  0  0  0  0  0  0  0
  1  6  2  0
  2  1  1  0
  3  4  1  0
  3  2  2  0
  4  5  2  0
  5  6  1  0
  1  7  1  0
  2  8  1  0
  5  9  1  0
 10 11  1  0
 11 12  2  0
 11 13  1  0
 13 14  1  0
 14 15  1  0
 15 16  1  0
 16 17  1  0
 17 18  1  0
 18 13  1  0
 13 19  1  0
 14 20  1  0
 14 21  1  0
 15 22  1  0
 15 23  1  0
 17 24  1  0
 17 25  1  0
 18 26  1  0
 18 27  1  0
  3 16  1  0
M  END
>  <Score>  (1) 
-7.12436

$$$$

     RDKit          3D

 32 33  0  0  0  0  0  0  0  0999 V2000
   11.8116    6.9298   -2.9674 C   0  0  0  0  0  0  0  0  0  0  0  0
   11.4353    6.8794   -4.3265 C   0  0  0  0  0  0  0  0  0  0  0  0
   11.3602    8.0908   -5.0293 C   0  0  0  0  0  0  0  0  0  0  0  0
   11.6543    9.2438   -4.3606 N   0  0  0  0  0  0  0  0  0  0  0  0
   12.0117    9.2530   -3.0560 C   0  0  0  0  0  0  0  0  0  0  0  0
   12.0888    8.0993   -2.3664 N   0  0  0  0  0  0  0  0  0  0  0  0
   11.8762    6.0145   -2.4079 H   0  0  0  0  0  0  0  0  0  0  0  0
   11.2142    5.9541   -4.8087 H   0  0  0  0  0  0  0  0  0  0  0  0
   12.2354   10.2029   -2.5732 H   0  0  0  0  0  0  0  0  0  0  0  0
   10.9985    8.1120   -6.3602 O   0  0  0  0  0  0  0  0  0  0  0  0
   11.9921    8.0093   -7.3412 C   0  0  1  0  0  0  0  0  0  0  0  0
   11.7534    6.8353   -8.0633 O   0  0  0  0  0  0  0  0  0  0  0  0
   12.7014    6.5924   -9.0290 C   0  0  2  0  0  0  0  0  0  0  0  0
   13.9090    5.9449   -8.4057 C   0  0  0  0  0  0  0  0  0  0  0  0
   14.9107    5.6661   -9.3048 O   0  0  0  0  0  0  0  0  0  0  0  0
   13.0321    7.7990   -9.8506 C   0  0  2  0  0  0  0  0  0  0  0  0
   14.1736    8.4630   -9.4393 O   0  0  0  0  0  0  0  0  0  0  0  0
   11.8626    8.7631   -9.6935 C   0  0  2  0  0  0  0  0  0  0  0  0
   12.0273    9.8971  -10.4814 O   0  0  0  0  0  0  0  0  0  0  0  0
   11.8812    9.2212   -8.2402 C   0  0  2  0  0  0  0  0  0  0  0  0
   12.9913   10.0685   -8.0649 O   0  0  0  0  0  0  0  0  0  0  0  0
   13.0082    7.9182   -6.8810 H   0  0  0  0  0  0  0  0  0  0  0  0
   12.2636    5.8320   -9.7335 H   0  0  0  0  0  0  0  0  0  0  0  0
   14.3133    6.4920   -7.5440 H   0  0  0  0  0  0  0  0  0  0  0  0
   13.5535    4.9531   -7.9992 H   0  0  0  0  0  0  0  0  0  0  0  0
   14.5510    5.0916  -10.0258 H   0  0  0  0  0  0  0  0  0  0  0  0
   13.1326    7.5431  -10.9338 H   0  0  0  0  0  0  0  0  0  0  0  0
   14.4607    9.0345  -10.2139 H   0  0  0  0  0  0  0  0  0  0  0  0
   10.9023    8.2383   -9.8876 H   0  0  0  0  0  0  0  0  0  0  0  0
   11.1252   10.1085  -10.8491 H   0  0  0  0  0  0  0  0  0  0  0  0
   10.9907    9.8292   -8.0224 H   0  0  0  0  0  0  0  0  0  0  0  0
   13.3582    9.9535   -7.1463 H   0  0  0  0  0  0  0  0  0  0  0  0
  1  6  2  0
  2  1  1  0
  3  4  1  0
  3  2  2  0
  4  5  2  0
  5  6  1  0
  1  7  1  0
  2  8  1  0
  5  9  1  0
 10 11  1  0
 11 12  1  0
 12 13  1  0
 13 14  1  0
 14 15  1  0
 13 16  1  0
 16 17  1  0
 16 18  1  0
 18 19  1  0
 18 20  1  0
 20 21  1  0
 20 11  1  0
 11 22  1  1
 13 23  1  6
 14 24  1  0
 14 25  1  0
 15 26  1  0
 16 27  1  6
 17 28  1  0
 18 29  1  6
 19 30  1  0
 20 31  1  1
 21 32  1  0
  3 10  1  0
M  END
>  <Score>  (1) 
-7.11549

$$$$

     RDKit          3D

 27 28  0  0  0  0  0  0  0  0999 V2000
   11.8121    6.9311   -2.9662 C   0  0  0  0  0  0  0  0  0  0  0  0
   11.4353    6.8791   -4.3264 C   0  0  0  0  0  0  0  0  0  0  0  0
   11.3598    8.0904   -5.0307 C   0  0  0  0  0  0  0  0  0  0  0  0
   11.6550    9.2444   -4.3581 N   0  0  0  0  0  0  0  0  0  0  0  0
   12.0112    9.2540   -3.0583 C   0  0  0  0  0  0  0  0  0  0  0  0
   12.0886    8.0970   -2.3663 N   0  0  0  0  0  0  0  0  0  0  0  0
   11.8559    5.9874   -2.4724 H   0  0  0  0  0  0  0  0  0  0  0  0
   11.2158    5.9429   -4.7989 H   0  0  0  0  0  0  0  0  0  0  0  0
   12.2278   10.2176   -2.6062 H   0  0  0  0  0  0  0  0  0  0  0  0
   10.8063    4.7001   -8.4873 H   0  0  0  0  0  0  0  0  0  0  0  0
   10.2374    5.5162   -8.8942 C   0  0  0  0  0  0  0  0  0  0  0  0
    9.6671    5.4058   -9.9627 O   0  0  0  0  0  0  0  0  0  0  0  0
   10.1378    6.7887   -8.1621 C   0  0  2  0  0  0  0  0  0  0  0  0
   10.0736    7.9698   -9.0838 C   0  0  0  0  0  0  0  0  0  0  0  0
   10.5634    9.2247   -8.4381 C   0  0  0  0  0  0  0  0  0  0  0  0
   10.3099    9.2495   -6.9285 C   0  0  0  0  0  0  0  0  0  0  0  0
   10.9926    8.1134   -6.3821 N   0  0  0  0  0  0  0  0  0  0  0  0
   11.3084    6.9796   -7.2223 C   0  0  0  0  0  0  0  0  0  0  0  0
    9.2034    6.7847   -7.5616 H   0  0  0  0  0  0  0  0  0  0  0  0
    9.0428    8.0763   -9.4800 H   0  0  0  0  0  0  0  0  0  0  0  0
   10.7066    7.7263   -9.9795 H   0  0  0  0  0  0  0  0  0  0  0  0
   10.0927   10.1525   -8.8597 H   0  0  0  0  0  0  0  0  0  0  0  0
   11.6702    9.2965   -8.5858 H   0  0  0  0  0  0  0  0  0  0  0  0
    9.2256    9.1880   -6.7826 H   0  0  0  0  0  0  0  0  0  0  0  0
   10.7157   10.2263   -6.5757 H   0  0  0  0  0  0  0  0  0  0  0  0
   12.2053    7.2773   -7.8327 H   0  0  0  0  0  0  0  0  0  0  0  0
   11.5185    6.0810   -6.6130 H   0  0  0  0  0  0  0  0  0  0  0  0
  1  6  2  0
  2  1  1  0
  3  4  1  0
  3  2  2  0
  4  5  2  0
  5  6  1  0
  1  7  1  0
  2  8  1  0
  5  9  1  0
 10 11  1  0
 11 12  2  0
 11 13  1  0
 13 14  1  0
 14 15  1  0
 15 16  1  0
 16 17  1  0
 17 18  1  0
 18 13  1  0
 13 19  1  1
 14 20  1  0
 14 21  1  0
 15 22  1  0
 15 23  1  0
 16 24  1  0
 16 25  1  0
 18 26  1  0
 18 27  1  0
  3 17  1  0
M  END
>  <Score>  (1) 
-7.11484

$$$$

     RDKit          3D

 32 33  0  0  0  0  0  0  0  0999 V2000
   11.8118    6.9298   -2.9669 C   0  0  0  0  0  0  0  0  0  0  0  0
   11.4352    6.8796   -4.3271 C   0  0  0  0  0  0  0  0  0  0  0  0
   11.3603    8.0908   -5.0287 C   0  0  0  0  0  0  0  0  0  0  0  0
   11.6542    9.2437   -4.3608 N   0  0  0  0  0  0  0  0  0  0  0  0
   12.0117    9.2530   -3.0562 C   0  0  0  0  0  0  0  0  0  0  0  0
   12.0888    8.0991   -2.3664 N   0  0  0  0  0  0  0  0  0  0  0  0
   11.8775    6.0058   -2.3999 H   0  0  0  0  0  0  0  0  0  0  0  0
   11.2108    5.9762   -4.8286 H   0  0  0  0  0  0  0  0  0  0  0  0
   12.2408   10.1899   -2.5489 H   0  0  0  0  0  0  0  0  0  0  0  0
   11.0129    8.1929   -6.3360 O   0  0  0  0  0  0  0  0  0  0  0  0
    9.9723    7.5676   -7.0024 C   0  0  2  0  0  0  0  0  0  0  0  0
   10.5203    6.7606   -8.0054 O   0  0  0  0  0  0  0  0  0  0  0  0
    9.6057    6.3993   -8.9691 C   0  0  2  0  0  0  0  0  0  0  0  0
   10.2354    5.2517   -9.7695 C   0  0  0  0  0  0  0  0  0  0  0  0
   11.4120    5.6456  -10.3621 O   0  0  0  0  0  0  0  0  0  0  0  0
    9.3148    7.5673   -9.8763 C   0  0  2  0  0  0  0  0  0  0  0  0
   10.3483    7.6139  -10.8362 O   0  0  0  0  0  0  0  0  0  0  0  0
    9.3737    8.8376   -9.0864 C   0  0  1  0  0  0  0  0  0  0  0  0
    8.4546    9.7353   -9.5884 O   0  0  0  0  0  0  0  0  0  0  0  0
    9.0882    8.6449   -7.6228 C   0  0  1  0  0  0  0  0  0  0  0  0
    7.7368    8.3914   -7.3700 O   0  0  0  0  0  0  0  0  0  0  0  0
    9.3478    6.8983   -6.3777 H   0  0  0  0  0  0  0  0  0  0  0  0
    8.7009    6.0281   -8.4466 H   0  0  0  0  0  0  0  0  0  0  0  0
   10.4680    4.4369   -9.0486 H   0  0  0  0  0  0  0  0  0  0  0  0
    9.5335    4.8695  -10.5302 H   0  0  0  0  0  0  0  0  0  0  0  0
   12.0345    6.0338   -9.7138 H   0  0  0  0  0  0  0  0  0  0  0  0
    8.3668    7.4141  -10.4134 H   0  0  0  0  0  0  0  0  0  0  0  0
   11.0815    8.1218  -10.4228 H   0  0  0  0  0  0  0  0  0  0  0  0
   10.3877    9.3113   -9.1632 H   0  0  0  0  0  0  0  0  0  0  0  0
    7.8871   10.1618   -8.8979 H   0  0  0  0  0  0  0  0  0  0  0  0
    9.3011    9.6368   -7.1297 H   0  0  0  0  0  0  0  0  0  0  0  0
    7.2901    7.9537   -8.1329 H   0  0  0  0  0  0  0  0  0  0  0  0
  1  6  2  0
  2  1  1  0
  3  4  1  0
  3  2  2  0
  4  5  2  0
  5  6  1  0
  1  7  1  0
  2  8  1  0
  5  9  1  0
 10 11  1  0
 11 12  1  0
 12 13  1  0
 13 14  1  0
 14 15  1  0
 13 16  1  0
 16 17  1  0
 16 18  1  0
 18 19  1  0
 18 20  1  0
 20 21  1  0
 20 11  1  0
 11 22  1  1
 13 23  1  1
 14 24  1  0
 14 25  1  0
 15 26  1  0
 16 27  1  6
 17 28  1  0
 18 29  1  1
 19 30  1  0
 20 31  1  1
 21 32  1  0
  3 10  1  0
M  END
>  <Score>  (1) 
-7.11336

$$$$

     RDKit          3D

 23 24  0  0  0  0  0  0  0  0999 V2000
   11.8108    6.9276   -2.9698 C   0  0  0  0  0  0  0  0  0  0  0  0
   11.4357    6.8781   -4.3246 C   0  0  0  0  0  0  0  0  0  0  0  0
   11.3609    8.0948   -5.0281 C   0  0  0  0  0  0  0  0  0  0  0  0
   11.6528    9.2412   -4.3653 N   0  0  0  0  0  0  0  0  0  0  0  0
   12.0127    9.2505   -3.0516 C   0  0  0  0  0  0  0  0  0  0  0  0
   12.0892    8.1039   -2.3666 N   0  0  0  0  0  0  0  0  0  0  0  0
   11.8718    5.9974   -2.4180 H   0  0  0  0  0  0  0  0  0  0  0  0
   11.2136    5.9420   -4.8064 H   0  0  0  0  0  0  0  0  0  0  0  0
   12.2379   10.1819   -2.5566 H   0  0  0  0  0  0  0  0  0  0  0  0
   10.9714    8.1142   -6.4602 C   0  0  1  0  0  0  0  0  0  0  0  0
   10.1738    8.8602   -6.6629 H   0  0  0  0  0  0  0  0  0  0  0  0
   12.1646    8.3499   -7.2195 N   0  0  0  0  0  0  0  0  0  0  0  0
   12.4982    7.3698   -7.9567 C   0  0  0  0  0  0  0  0  0  0  0  0
   13.6374    7.2704   -8.8444 N   0  0  0  0  0  0  0  0  0  0  0  0
   11.5529    6.3243   -7.7860 N   0  0  0  0  0  0  0  0  0  0  0  0
   11.5998    5.0318   -8.4691 C   0  0  0  0  0  0  0  0  0  0  0  0
   10.5733    6.7490   -6.8526 C   0  0  0  0  0  0  0  0  0  0  0  0
    9.5651    6.1501   -6.4117 O   0  0  0  0  0  0  0  0  0  0  0  0
   13.5172    7.3686   -9.8757 H   0  0  0  0  0  0  0  0  0  0  0  0
   14.5998    7.1009   -8.4961 H   0  0  0  0  0  0  0  0  0  0  0  0
   10.5586    4.6917   -8.6968 H   0  0  0  0  0  0  0  0  0  0  0  0
   12.0781    4.2653   -7.8236 H   0  0  0  0  0  0  0  0  0  0  0  0
   12.1404    5.1826   -9.4250 H   0  0  0  0  0  0  0  0  0  0  0  0
  1  6  2  0
  2  1  1  0
  3  4  1  0
  3  2  2  0
  4  5  2  0
  5  6  1  0
  1  7  1  0
  2  8  1  0
  5  9  1  0
 10 11  1  1
 10 12  1  0
 12 13  2  0
 13 14  1  0
 13 15  1  0
 15 16  1  0
 15 17  1  0
 17 18  2  0
 17 10  1  0
 14 19  1  0
 14 20  1  0
 16 21  1  0
 16 22  1  0
 16 23  1  0
  3 10  1  0
M  END
>  <Score>  (1) 
-7.09758

$$$$

     RDKit          3D

 20 21  0  0  0  0  0  0  0  0999 V2000
   11.8118    6.9300   -2.9670 C   0  0  0  0  0  0  0  0  0  0  0  0
   11.4353    6.8793   -4.3266 C   0  0  0  0  0  0  0  0  0  0  0  0
   11.3601    8.0905   -5.0295 C   0  0  0  0  0  0  0  0  0  0  0  0
   11.6545    9.2442   -4.3599 N   0  0  0  0  0  0  0  0  0  0  0  0
   12.0116    9.2531   -3.0565 C   0  0  0  0  0  0  0  0  0  0  0  0
   12.0888    8.0989   -2.3665 N   0  0  0  0  0  0  0  0  0  0  0  0
   11.8652    5.9855   -2.4377 H   0  0  0  0  0  0  0  0  0  0  0  0
   11.2137    5.9455   -4.8074 H   0  0  0  0  0  0  0  0  0  0  0  0
   12.2430   10.1731   -2.5349 H   0  0  0  0  0  0  0  0  0  0  0  0
   10.9773    8.0723   -6.4238 C   0  0  0  0  0  0  0  0  0  0  0  0
   11.8755    8.2574   -7.4596 C   0  0  0  0  0  0  0  0  0  0  0  0
   13.1637    8.4627   -7.1288 F   0  0  0  0  0  0  0  0  0  0  0  0
   11.4895    8.2363   -8.7841 C   0  0  0  0  0  0  0  0  0  0  0  0
   10.1672    8.0256   -9.1226 C   0  0  0  0  0  0  0  0  0  0  0  0
    9.2601    7.8397   -8.1058 C   0  0  0  0  0  0  0  0  0  0  0  0
    9.6621    7.8636   -6.7877 C   0  0  0  0  0  0  0  0  0  0  0  0
    8.4986    7.6255   -5.4912 Cl  0  0  0  0  0  0  0  0  0  0  0  0
   12.1823    8.3798   -9.6055 H   0  0  0  0  0  0  0  0  0  0  0  0
    9.8618    8.0091  -10.1736 H   0  0  0  0  0  0  0  0  0  0  0  0
    8.2194    7.6735   -8.3627 H   0  0  0  0  0  0  0  0  0  0  0  0
  1  6  2  0
  2  1  1  0
  3  4  1  0
  3  2  2  0
  4  5  2  0
  5  6  1  0
  1  7  1  0
  2  8  1  0
  5  9  1  0
 10 11  2  0
 11 12  1  0
 11 13  1  0
 13 14  2  0
 14 15  1  0
 15 16  2  0
 16 17  1  0
 16 10  1  0
 13 18  1  0
 14 19  1  0
 15 20  1  0
  3 10  1  0
M  END
>  <Score>  (1) 
-7.09329

$$$$

     RDKit          3D

 20 21  0  0  0  0  0  0  0  0999 V2000
   11.8133    6.9317   -2.9620 C   0  0  0  0  0  0  0  0  0  0  0  0
   11.4345    6.8860   -4.3318 C   0  0  0  0  0  0  0  0  0  0  0  0
   11.3602    8.0893   -5.0287 C   0  0  0  0  0  0  0  0  0  0  0  0
   11.6540    9.2386   -4.3597 N   0  0  0  0  0  0  0  0  0  0  0  0
   12.0113    9.2559   -3.0586 C   0  0  0  0  0  0  0  0  0  0  0  0
   12.0887    8.0945   -2.3652 N   0  0  0  0  0  0  0  0  0  0  0  0
   11.8748    5.9930   -2.4053 H   0  0  0  0  0  0  0  0  0  0  0  0
   11.2199    5.9585   -4.7894 H   0  0  0  0  0  0  0  0  0  0  0  0
   12.2401   10.1817   -2.5483 H   0  0  0  0  0  0  0  0  0  0  0  0
   10.9811    8.1448   -6.4352 C   0  0  0  0  0  0  0  0  0  0  0  0
   10.1421    7.2517   -7.0351 C   0  0  0  0  0  0  0  0  0  0  0  0
    9.7987    7.3271   -8.3716 C   0  0  0  0  0  0  0  0  0  0  0  0
   10.3211    8.3452   -9.1403 C   0  0  0  0  0  0  0  0  0  0  0  0
   11.1769    9.2699   -8.5622 C   0  0  0  0  0  0  0  0  0  0  0  0
   11.4923    9.1551   -7.2229 C   0  0  0  0  0  0  0  0  0  0  0  0
   12.6845   10.4765   -6.4998 Br  0  0  0  0  0  0  0  0  0  0  0  0
    9.7141    6.4395   -6.4589 H   0  0  0  0  0  0  0  0  0  0  0  0
    9.1232    6.5924   -8.8157 H   0  0  0  0  0  0  0  0  0  0  0  0
   10.0664    8.4268  -10.1952 H   0  0  0  0  0  0  0  0  0  0  0  0
   11.5947   10.0767   -9.1592 H   0  0  0  0  0  0  0  0  0  0  0  0
  1  6  2  0
  2  1  1  0
  3  4  1  0
  3  2  2  0
  4  5  2  0
  5  6  1  0
  1  7  1  0
  2  8  1  0
  5  9  1  0
 10 11  2  0
 11 12  1  0
 12 13  2  0
 13 14  1  0
 14 15  2  0
 15 16  1  0
 15 10  1  0
 11 17  1  0
 12 18  1  0
 13 19  1  0
 14 20  1  0
  3 10  1  0
M  END
>  <Score>  (1) 
-7.09258

$$$$

     RDKit          3D

 23 24  0  0  0  0  0  0  0  0999 V2000
   12.3025    8.1236   -2.3016 C   0  0  0  0  0  0  0  0  0  0  0  0
   12.0215    6.8832   -2.9127 C   0  0  0  0  0  0  0  0  0  0  0  0
   11.5241    6.8983   -4.2258 C   0  0  0  0  0  0  0  0  0  0  0  0
   11.3423    8.1075   -4.8315 N   0  0  0  0  0  0  0  0  0  0  0  0
   11.6238    9.2772   -4.2119 C   0  0  0  0  0  0  0  0  0  0  0  0
   12.1008    9.2813   -2.9546 N   0  0  0  0  0  0  0  0  0  0  0  0
   12.6810    8.0729   -1.2986 H   0  0  0  0  0  0  0  0  0  0  0  0
   12.1881    5.9711   -2.3782 H   0  0  0  0  0  0  0  0  0  0  0  0
   11.3094    5.9669   -4.6944 H   0  0  0  0  0  0  0  0  0  0  0  0
   11.4122   10.5779   -4.9059 C   0  0  0  0  0  0  0  0  0  0  0  0
   10.8830   10.3931   -6.2821 C   0  0  0  0  0  0  0  0  0  0  0  0
   11.7125   10.2583   -7.3784 C   0  0  0  0  0  0  0  0  0  0  0  0
   11.2384   10.0878   -8.6502 C   0  0  0  0  0  0  0  0  0  0  0  0
    9.8816   10.0423   -8.8963 C   0  0  0  0  0  0  0  0  0  0  0  0
    9.4181    9.8737  -10.1548 F   0  0  0  0  0  0  0  0  0  0  0  0
    9.0503   10.1770   -7.8017 C   0  0  0  0  0  0  0  0  0  0  0  0
    7.7146   10.1347   -8.0261 F   0  0  0  0  0  0  0  0  0  0  0  0
    9.5229   10.3492   -6.5174 C   0  0  0  0  0  0  0  0  0  0  0  0
   12.3857   11.1071   -4.9643 H   0  0  0  0  0  0  0  0  0  0  0  0
   10.7500   11.2404   -4.2919 H   0  0  0  0  0  0  0  0  0  0  0  0
   12.7786   10.2908   -7.2098 H   0  0  0  0  0  0  0  0  0  0  0  0
   11.9021    9.9809   -9.5185 H   0  0  0  0  0  0  0  0  0  0  0  0
    8.8555   10.4532   -5.6699 H   0  0  0  0  0  0  0  0  0  0  0  0
  2  1  2  0
  3  2  1  0
  4  3  2  0
  4  5  1  0
  5  6  2  0
  6  1  1  0
  1  7  1  0
  2  8  1  0
  3  9  1  0
 10 11  1  0
 11 12  2  0
 12 13  1  0
 13 14  2  0
 14 15  1  0
 14 16  1  0
 16 17  1  0
 16 18  2  0
 18 11  1  0
 10 19  1  0
 10 20  1  0
 12 21  1  0
 13 22  1  0
 18 23  1  0
  5 10  1  0
M  END
>  <Score>  (1) 
-7.61135

$$$$

     RDKit          3D

 27 28  0  0  0  0  0  0  0  0999 V2000
   11.8113    6.9283   -2.9683 C   0  0  0  0  0  0  0  0  0  0  0  0
   11.4359    6.8815   -4.3251 C   0  0  0  0  0  0  0  0  0  0  0  0
   11.3604    8.0941   -5.0297 C   0  0  0  0  0  0  0  0  0  0  0  0
   11.6533    9.2385   -4.3624 N   0  0  0  0  0  0  0  0  0  0  0  0
   12.0120    9.2529   -3.0549 C   0  0  0  0  0  0  0  0  0  0  0  0
   12.0892    8.1007   -2.3656 N   0  0  0  0  0  0  0  0  0  0  0  0
   11.8845    6.0253   -2.3810 H   0  0  0  0  0  0  0  0  0  0  0  0
   11.2164    5.9641   -4.8031 H   0  0  0  0  0  0  0  0  0  0  0  0
   12.2207   10.2195   -2.6330 H   0  0  0  0  0  0  0  0  0  0  0  0
   10.6632   11.1416   -9.3641 H   0  0  0  0  0  0  0  0  0  0  0  0
   10.7399   10.0669   -9.3642 C   0  0  0  0  0  0  0  0  0  0  0  0
   11.4624    9.5540  -10.2027 O   0  0  0  0  0  0  0  0  0  0  0  0
    9.9785    9.2299   -8.3605 C   0  0  1  0  0  0  0  0  0  0  0  0
    9.8715    7.8610   -8.9391 C   0  0  0  0  0  0  0  0  0  0  0  0
   11.1684    7.1207   -8.5855 C   0  0  0  0  0  0  0  0  0  0  0  0
   11.0278    6.8294   -7.1082 C   0  0  0  0  0  0  0  0  0  0  0  0
   10.9842    8.0996   -6.4092 N   0  0  0  0  0  0  0  0  0  0  0  0
   10.5901    9.3328   -7.0227 C   0  0  0  0  0  0  0  0  0  0  0  0
    8.9369    9.6706   -8.3860 H   0  0  0  0  0  0  0  0  0  0  0  0
    9.0080    7.2998   -8.4803 H   0  0  0  0  0  0  0  0  0  0  0  0
    9.7165    7.9031  -10.0238 H   0  0  0  0  0  0  0  0  0  0  0  0
   11.3158    6.2291   -9.1987 H   0  0  0  0  0  0  0  0  0  0  0  0
   12.0088    7.8453   -8.7041 H   0  0  0  0  0  0  0  0  0  0  0  0
   10.0144    6.3638   -6.9553 H   0  0  0  0  0  0  0  0  0  0  0  0
   11.8376    6.1748   -6.7336 H   0  0  0  0  0  0  0  0  0  0  0  0
    9.8443    9.8246   -6.3317 H   0  0  0  0  0  0  0  0  0  0  0  0
   11.4667   10.0307   -7.0688 H   0  0  0  0  0  0  0  0  0  0  0  0
  1  6  2  0
  2  1  1  0
  3  4  1  0
  3  2  2  0
  4  5  2  0
  5  6  1  0
  1  7  1  0
  2  8  1  0
  5  9  1  0
 10 11  1  0
 11 12  2  0
 11 13  1  0
 13 14  1  0
 14 15  1  0
 15 16  1  0
 16 17  1  0
 17 18  1  0
 18 13  1  0
 13 19  1  1
 14 20  1  0
 14 21  1  0
 15 22  1  0
 15 23  1  0
 16 24  1  0
 16 25  1  0
 18 26  1  0
 18 27  1  0
  3 17  1  0
M  END
>  <Score>  (1) 
-7.09121

$$$$

     RDKit          3D

 29 30  0  0  0  0  0  0  0  0999 V2000
   11.8130    6.9329   -2.9635 C   0  0  0  0  0  0  0  0  0  0  0  0
   11.4348    6.8803   -4.3286 C   0  0  0  0  0  0  0  0  0  0  0  0
   11.3596    8.0889   -5.0308 C   0  0  0  0  0  0  0  0  0  0  0  0
   11.6556    9.2446   -4.3561 N   0  0  0  0  0  0  0  0  0  0  0  0
   12.0107    9.2559   -3.0608 C   0  0  0  0  0  0  0  0  0  0  0  0
   12.0883    8.0934   -2.3661 N   0  0  0  0  0  0  0  0  0  0  0  0
   11.8764    6.0191   -2.4085 H   0  0  0  0  0  0  0  0  0  0  0  0
   11.2177    5.9339   -4.7882 H   0  0  0  0  0  0  0  0  0  0  0  0
   12.2282   10.2168   -2.6046 H   0  0  0  0  0  0  0  0  0  0  0  0
   10.9907    8.0905   -6.3816 N   0  0  0  0  0  0  0  0  0  0  0  0
    9.7140    7.5703   -6.7886 C   0  0  0  0  0  0  0  0  0  0  0  0
    9.9204    6.9899   -8.1924 C   0  0  1  0  0  0  0  0  0  0  0  0
    8.5938    6.3774   -8.5907 C   0  0  0  0  0  0  0  0  0  0  0  0
   10.3041    7.9309   -9.1071 O   0  0  0  0  0  0  0  0  0  0  0  0
   11.1654    8.8974   -8.6676 C   0  0  2  0  0  0  0  0  0  0  0  0
   12.2289    9.2015   -9.7203 C   0  0  0  0  0  0  0  0  0  0  0  0
   11.8711    8.6075   -7.3862 C   0  0  0  0  0  0  0  0  0  0  0  0
    9.4047    6.7047   -6.1551 H   0  0  0  0  0  0  0  0  0  0  0  0
    8.9131    8.3076   -6.8313 H   0  0  0  0  0  0  0  0  0  0  0  0
   10.6579    6.1641   -8.1752 H   0  0  0  0  0  0  0  0  0  0  0  0
    7.7848    7.1130   -8.6400 H   0  0  0  0  0  0  0  0  0  0  0  0
    8.6774    5.7274   -9.4838 H   0  0  0  0  0  0  0  0  0  0  0  0
    8.3205    5.6788   -7.7467 H   0  0  0  0  0  0  0  0  0  0  0  0
   10.6003    9.8597   -8.5218 H   0  0  0  0  0  0  0  0  0  0  0  0
   12.2231    8.4249  -10.5139 H   0  0  0  0  0  0  0  0  0  0  0  0
   12.0524   10.1736  -10.2178 H   0  0  0  0  0  0  0  0  0  0  0  0
   13.2456    9.2572   -9.2689 H   0  0  0  0  0  0  0  0  0  0  0  0
   12.7503    7.9358   -7.5094 H   0  0  0  0  0  0  0  0  0  0  0  0
   12.2656    9.5905   -7.0017 H   0  0  0  0  0  0  0  0  0  0  0  0
  1  6  2  0
  2  1  1  0
  3  4  1  0
  3  2  2  0
  4  5  2  0
  5  6  1  0
  1  7  1  0
  2  8  1  0
  5  9  1  0
 10 11  1  0
 11 12  1  0
 12 13  1  0
 12 14  1  0
 14 15  1  0
 15 16  1  0
 15 17  1  0
 17 10  1  0
 11 18  1  0
 11 19  1  0
 12 20  1  1
 13 21  1  0
 13 22  1  0
 13 23  1  0
 15 24  1  1
 16 25  1  0
 16 26  1  0
 16 27  1  0
 17 28  1  0
 17 29  1  0
  3 10  1  0
M  END
>  <Score>  (1) 
-7.08983

$$$$

     RDKit          3D

 29 31  0  0  0  0  0  0  0  0999 V2000
   11.8112    6.9281   -2.9683 C   0  0  0  0  0  0  0  0  0  0  0  0
   11.4355    6.8802   -4.3259 C   0  0  0  0  0  0  0  0  0  0  0  0
   11.3606    8.0930   -5.0286 C   0  0  0  0  0  0  0  0  0  0  0  0
   11.6535    9.2412   -4.3627 N   0  0  0  0  0  0  0  0  0  0  0  0
   12.0120    9.2509   -3.0542 C   0  0  0  0  0  0  0  0  0  0  0  0
   12.0891    8.1026   -2.3663 N   0  0  0  0  0  0  0  0  0  0  0  0
   11.8775    6.0068   -2.4001 H   0  0  0  0  0  0  0  0  0  0  0  0
   11.2130    5.9553   -4.8133 H   0  0  0  0  0  0  0  0  0  0  0  0
   12.2440   10.1675   -2.5294 H   0  0  0  0  0  0  0  0  0  0  0  0
   10.9712    8.1147   -6.4606 C   0  0  1  0  0  0  0  0  0  0  0  0
   11.9118    7.2456   -7.2773 C   0  0  0  0  0  0  0  0  0  0  0  0
   11.2515    6.1115   -7.8526 N   0  0  0  0  0  0  0  0  0  0  0  0
   10.3287    6.5885   -8.8584 C   0  0  0  0  0  0  0  0  0  0  0  0
    9.3752    7.5674   -8.2101 C   0  0  0  0  0  0  0  0  0  0  0  0
    9.5736    7.5918   -6.6883 C   0  0  0  0  0  0  0  0  0  0  0  0
    9.4132    6.1555   -6.2304 C   0  0  0  0  0  0  0  0  0  0  0  0
   10.4954    5.3483   -6.8771 C   0  0  0  0  0  0  0  0  0  0  0  0
   10.9800    9.1639   -6.8030 H   0  0  0  0  0  0  0  0  0  0  0  0
   12.8142    6.9720   -6.6819 H   0  0  0  0  0  0  0  0  0  0  0  0
   12.2874    7.8763   -8.1116 H   0  0  0  0  0  0  0  0  0  0  0  0
    9.8093    5.7273   -9.3082 H   0  0  0  0  0  0  0  0  0  0  0  0
   10.9588    7.0845   -9.6517 H   0  0  0  0  0  0  0  0  0  0  0  0
    9.5549    8.5490   -8.6604 H   0  0  0  0  0  0  0  0  0  0  0  0
    8.3493    7.1964   -8.4027 H   0  0  0  0  0  0  0  0  0  0  0  0
    8.8156    8.2669   -6.2847 H   0  0  0  0  0  0  0  0  0  0  0  0
    9.3677    6.0570   -5.1319 H   0  0  0  0  0  0  0  0  0  0  0  0
    8.3886    5.8451   -6.5924 H   0  0  0  0  0  0  0  0  0  0  0  0
    9.9935    4.5262   -7.4672 H   0  0  0  0  0  0  0  0  0  0  0  0
   11.1484    4.8127   -6.1544 H   0  0  0  0  0  0  0  0  0  0  0  0
  1  6  2  0
  2  1  1  0
  3  4  1  0
  3  2  2  0
  4  5  2  0
  5  6  1  0
  1  7  1  0
  2  8  1  0
  5  9  1  0
 10 11  1  0
 11 12  1  0
 12 13  1  0
 13 14  1  0
 14 15  1  0
 15 16  1  0
 16 17  1  0
 15 10  1  0
 17 12  1  0
 10 18  1  6
 11 19  1  0
 11 20  1  0
 13 21  1  0
 13 22  1  0
 14 23  1  0
 14 24  1  0
 15 25  1  0
 16 26  1  0
 16 27  1  0
 17 28  1  0
 17 29  1  0
  3 10  1  0
M  END
>  <Score>  (1) 
-7.08631

$$$$

     RDKit          3D

 21 22  0  0  0  0  0  0  0  0999 V2000
   11.8121    6.9284   -2.9652 C   0  0  0  0  0  0  0  0  0  0  0  0
   11.4348    6.8870   -4.3312 C   0  0  0  0  0  0  0  0  0  0  0  0
   11.3610    8.0873   -5.0250 C   0  0  0  0  0  0  0  0  0  0  0  0
   11.6542    9.2412   -4.3598 N   0  0  0  0  0  0  0  0  0  0  0  0
   12.0108    9.2545   -3.0601 C   0  0  0  0  0  0  0  0  0  0  0  0
   12.0891    8.0976   -2.3647 N   0  0  0  0  0  0  0  0  0  0  0  0
   11.8761    6.0041   -2.4044 H   0  0  0  0  0  0  0  0  0  0  0  0
   11.2184    5.9581   -4.7948 H   0  0  0  0  0  0  0  0  0  0  0  0
   12.2278   10.1922   -2.5971 H   0  0  0  0  0  0  0  0  0  0  0  0
   10.8621    8.2305  -11.3724 H   0  0  0  0  0  0  0  0  0  0  0  0
   10.1151    8.2946  -10.6190 C   0  0  0  0  0  0  0  0  0  0  0  0
    8.9144    8.4206  -10.9698 O   0  0  0  0  0  0  0  0  0  0  0  0
   10.3934    8.2457   -9.1897 C   0  0  0  0  0  0  0  0  0  0  0  0
    9.4055    8.3311   -8.2366 C   0  0  0  0  0  0  0  0  0  0  0  0
    9.6755    8.2838   -6.8640 C   0  0  0  0  0  0  0  0  0  0  0  0
   10.9783    8.1466   -6.4465 C   0  0  0  0  0  0  0  0  0  0  0  0
   11.9440    8.0639   -7.4317 C   0  0  0  0  0  0  0  0  0  0  0  0
   12.9735    7.9550   -7.0705 H   0  0  0  0  0  0  0  0  0  0  0  0
   11.6558    8.1122   -8.7440 N   0  0  0  0  0  0  0  0  0  0  0  0
    8.3975    8.4373   -8.5573 H   0  0  0  0  0  0  0  0  0  0  0  0
    8.8742    8.3540   -6.1457 H   0  0  0  0  0  0  0  0  0  0  0  0
  1  6  2  0
  2  1  1  0
  3  4  1  0
  3  2  2  0
  4  5  2  0
  5  6  1  0
  1  7  1  0
  2  8  1  0
  5  9  1  0
 10 11  1  0
 11 12  2  0
 11 13  1  0
 13 14  2  0
 14 15  1  0
 15 16  2  0
 16 17  1  0
 17 18  1  0
 17 19  2  0
 19 13  1  0
 14 20  1  0
 15 21  1  0
  3 16  1  0
M  END
>  <Score>  (1) 
-7.08564

$$$$

     RDKit          3D

 32 33  0  0  0  0  0  0  0  0999 V2000
   11.8121    6.9312   -2.9663 C   0  0  0  0  0  0  0  0  0  0  0  0
   11.4346    6.8816   -4.3299 C   0  0  0  0  0  0  0  0  0  0  0  0
   11.3606    8.0871   -5.0266 C   0  0  0  0  0  0  0  0  0  0  0  0
   11.6543    9.2446   -4.3607 N   0  0  0  0  0  0  0  0  0  0  0  0
   12.0117    9.2538   -3.0563 C   0  0  0  0  0  0  0  0  0  0  0  0
   12.0887    8.0977   -2.3662 N   0  0  0  0  0  0  0  0  0  0  0  0
   11.8779    6.0088   -2.3998 H   0  0  0  0  0  0  0  0  0  0  0  0
   11.2157    5.9315   -4.7950 H   0  0  0  0  0  0  0  0  0  0  0  0
   12.2303   10.1858   -2.5858 H   0  0  0  0  0  0  0  0  0  0  0  0
   10.9975    8.0312   -6.3351 O   0  0  0  0  0  0  0  0  0  0  0  0
   10.5791    9.1363   -7.1161 C   0  0  1  0  0  0  0  0  0  0  0  0
   11.4037    9.3363   -8.1593 O   0  0  0  0  0  0  0  0  0  0  0  0
   11.0117    8.9805   -9.4025 C   0  0  2  0  0  0  0  0  0  0  0  0
   10.5609   10.1845  -10.2475 C   0  0  0  0  0  0  0  0  0  0  0  0
   11.6175   11.0830  -10.3717 O   0  0  0  0  0  0  0  0  0  0  0  0
   10.0563    7.8513   -9.5184 C   0  0  2  0  0  0  0  0  0  0  0  0
    9.1891    8.1296  -10.5999 O   0  0  0  0  0  0  0  0  0  0  0  0
    9.2204    7.5725   -8.3231 C   0  0  2  0  0  0  0  0  0  0  0  0
    7.9699    7.0646   -8.6599 O   0  0  0  0  0  0  0  0  0  0  0  0
    9.1386    8.8142   -7.4917 C   0  0  1  0  0  0  0  0  0  0  0  0
    8.4814    8.5695   -6.2634 O   0  0  0  0  0  0  0  0  0  0  0  0
   10.6008   10.0597   -6.4656 H   0  0  0  0  0  0  0  0  0  0  0  0
   11.9517    8.6445   -9.9440 H   0  0  0  0  0  0  0  0  0  0  0  0
   10.2830    9.8301  -11.2617 H   0  0  0  0  0  0  0  0  0  0  0  0
    9.6965   10.6899   -9.8236 H   0  0  0  0  0  0  0  0  0  0  0  0
   12.0547   11.1427   -9.4806 H   0  0  0  0  0  0  0  0  0  0  0  0
   10.5537    6.8809   -9.8117 H   0  0  0  0  0  0  0  0  0  0  0  0
    8.6152    7.3089  -10.7041 H   0  0  0  0  0  0  0  0  0  0  0  0
    9.7571    6.8024   -7.7004 H   0  0  0  0  0  0  0  0  0  0  0  0
    7.2887    7.6932   -8.2893 H   0  0  0  0  0  0  0  0  0  0  0  0
    8.6150    9.6466   -7.9543 H   0  0  0  0  0  0  0  0  0  0  0  0
    8.4259    9.4760   -5.8329 H   0  0  0  0  0  0  0  0  0  0  0  0
  1  6  2  0
  2  1  1  0
  3  4  1  0
  3  2  2  0
  4  5  2  0
  5  6  1  0
  1  7  1  0
  2  8  1  0
  5  9  1  0
 10 11  1  0
 11 12  1  0
 12 13  1  0
 13 14  1  0
 14 15  1  0
 13 16  1  0
 16 17  1  0
 16 18  1  0
 18 19  1  0
 18 20  1  0
 20 21  1  0
 20 11  1  0
 11 22  1  1
 13 23  1  6
 14 24  1  0
 14 25  1  0
 15 26  1  0
 16 27  1  6
 17 28  1  0
 18 29  1  1
 19 30  1  0
 20 31  1  6
 21 32  1  0
  3 10  1  0
M  END
>  <Score>  (1) 
-7.08503

$$$$

     RDKit          3D

 30 31  0  0  0  0  0  0  0  0999 V2000
   11.8114    6.9282   -2.9678 C   0  0  0  0  0  0  0  0  0  0  0  0
   11.4351    6.8842   -4.3289 C   0  0  0  0  0  0  0  0  0  0  0  0
   11.3606    8.0872   -5.0265 C   0  0  0  0  0  0  0  0  0  0  0  0
   11.6536    9.2430   -4.3628 N   0  0  0  0  0  0  0  0  0  0  0  0
   12.0122    9.2529   -3.0543 C   0  0  0  0  0  0  0  0  0  0  0  0
   12.0891    8.1006   -2.3658 N   0  0  0  0  0  0  0  0  0  0  0  0
   11.8718    5.9955   -2.4173 H   0  0  0  0  0  0  0  0  0  0  0  0
   11.2143    5.9605   -4.8102 H   0  0  0  0  0  0  0  0  0  0  0  0
   12.2308   10.2045   -2.5908 H   0  0  0  0  0  0  0  0  0  0  0  0
   10.9873    8.1108   -6.4006 N   0  0  0  0  0  0  0  0  0  0  0  0
   10.5904    9.2981   -7.0929 C   0  0  0  0  0  0  0  0  0  0  0  0
    9.4348    9.0407   -8.0406 C   0  0  1  0  0  0  0  0  0  0  0  0
    9.2890   10.2622   -8.9285 C   0  0  0  0  0  0  0  0  0  0  0  0
    9.6648    7.9072   -8.8819 N   0  0  0  0  0  0  0  0  0  0  0  0
   10.9042    7.2381   -8.6211 C   0  0  2  0  0  0  0  0  0  0  0  0
   11.0211    5.9746   -9.4040 C   0  0  0  0  0  0  0  0  0  0  0  0
   11.0089    6.8686   -7.1421 C   0  0  0  0  0  0  0  0  0  0  0  0
   10.2822   10.0681   -6.3816 H   0  0  0  0  0  0  0  0  0  0  0  0
   11.4464    9.7063   -7.6788 H   0  0  0  0  0  0  0  0  0  0  0  0
    8.5053    8.9617   -7.4420 H   0  0  0  0  0  0  0  0  0  0  0  0
   10.2354   10.3697   -9.4884 H   0  0  0  0  0  0  0  0  0  0  0  0
    9.0642   11.1719   -8.3368 H   0  0  0  0  0  0  0  0  0  0  0  0
    8.5038   10.0386   -9.6741 H   0  0  0  0  0  0  0  0  0  0  0  0
    8.8582    7.3020   -9.0506 H   0  0  0  0  0  0  0  0  0  0  0  0
   11.7276    7.9561   -8.8478 H   0  0  0  0  0  0  0  0  0  0  0  0
   10.2212    5.8574  -10.1616 H   0  0  0  0  0  0  0  0  0  0  0  0
   12.0008    5.9843   -9.9649 H   0  0  0  0  0  0  0  0  0  0  0  0
   11.0880    5.0583   -8.7551 H   0  0  0  0  0  0  0  0  0  0  0  0
   11.9367    6.2969   -6.9622 H   0  0  0  0  0  0  0  0  0  0  0  0
   10.1248    6.2766   -6.8572 H   0  0  0  0  0  0  0  0  0  0  0  0
  1  6  2  0
  2  1  1  0
  3  4  1  0
  3  2  2  0
  4  5  2  0
  5  6  1  0
  1  7  1  0
  2  8  1  0
  5  9  1  0
 10 11  1  0
 11 12  1  0
 12 13  1  0
 12 14  1  0
 14 15  1  0
 15 16  1  0
 15 17  1  0
 17 10  1  0
 11 18  1  0
 11 19  1  0
 12 20  1  1
 13 21  1  0
 13 22  1  0
 13 23  1  0
 14 24  1  0
 15 25  1  6
 16 26  1  0
 16 27  1  0
 16 28  1  0
 17 29  1  0
 17 30  1  0
  3 10  1  0
M  END
>  <Score>  (1) 
-7.0793

$$$$

     RDKit          3D

 24 26  0  0  0  0  0  0  0  0999 V2000
   11.8119    6.9279   -2.9657 C   0  0  0  0  0  0  0  0  0  0  0  0
   11.4343    6.8828   -4.3313 C   0  0  0  0  0  0  0  0  0  0  0  0
   11.3609    8.0888   -5.0261 C   0  0  0  0  0  0  0  0  0  0  0  0
   11.6537    9.2428   -4.3624 N   0  0  0  0  0  0  0  0  0  0  0  0
   12.0120    9.2493   -3.0539 C   0  0  0  0  0  0  0  0  0  0  0  0
   12.0893    8.1045   -2.3666 N   0  0  0  0  0  0  0  0  0  0  0  0
   11.8770    6.0006   -2.3999 H   0  0  0  0  0  0  0  0  0  0  0  0
   11.2149    5.9428   -4.8019 H   0  0  0  0  0  0  0  0  0  0  0  0
   12.2365   10.1592   -2.5537 H   0  0  0  0  0  0  0  0  0  0  0  0
   10.9875    8.1076   -6.3988 N   0  0  0  0  0  0  0  0  0  0  0  0
   11.9157    8.3173   -7.4442 C   0  0  0  0  0  0  0  0  0  0  0  0
   11.4690    8.3205   -8.7491 C   0  0  0  0  0  0  0  0  0  0  0  0
   12.3261    8.5188   -9.7961 C   0  0  0  0  0  0  0  0  0  0  0  0
   12.2327    8.5808  -11.1354 N   0  0  0  0  0  0  0  0  0  0  0  0
   13.4054    8.8007  -11.6717 N   0  0  0  0  0  0  0  0  0  0  0  0
   14.3113    8.8901  -10.6887 C   0  0  0  0  0  0  0  0  0  0  0  0
   15.3869    9.0691  -10.7853 H   0  0  0  0  0  0  0  0  0  0  0  0
   13.6550    8.7150   -9.4837 C   0  0  0  0  0  0  0  0  0  0  0  0
   14.0840    8.7101   -8.1964 C   0  0  0  0  0  0  0  0  0  0  0  0
   13.2364    8.5148   -7.1767 N   0  0  0  0  0  0  0  0  0  0  0  0
    9.9877    7.9603   -6.6397 H   0  0  0  0  0  0  0  0  0  0  0  0
   10.4185    8.1657   -9.0029 H   0  0  0  0  0  0  0  0  0  0  0  0
   11.3280    8.4638  -11.6364 H   0  0  0  0  0  0  0  0  0  0  0  0
   15.1417    8.8689   -7.9937 H   0  0  0  0  0  0  0  0  0  0  0  0
  1  6  2  0
  2  1  1  0
  3  4  1  0
  3  2  2  0
  4  5  2  0
  5  6  1  0
  1  7  1  0
  2  8  1  0
  5  9  1  0
 10 11  1  0
 11 12  2  0
 12 13  1  0
 13 14  1  0
 14 15  1  0
 15 16  2  0
 16 17  1  0
 16 18  1  0
 18 19  1  0
 19 20  2  0
 20 11  1  0
 18 13  2  0
 10 21  1  0
 12 22  1  0
 14 23  1  0
 19 24  1  0
  3 10  1  0
M  END
>  <Score>  (1) 
-7.0792

$$$$

     RDKit          3D

 28 30  0  0  0  0  0  0  0  0999 V2000
   11.8109    6.9286   -2.9696 C   0  0  0  0  0  0  0  0  0  0  0  0
   11.4360    6.8817   -4.3248 C   0  0  0  0  0  0  0  0  0  0  0  0
   11.3610    8.0930   -5.0270 C   0  0  0  0  0  0  0  0  0  0  0  0
   11.6524    9.2398   -4.3662 N   0  0  0  0  0  0  0  0  0  0  0  0
   12.0128    9.2525   -3.0519 C   0  0  0  0  0  0  0  0  0  0  0  0
   12.0889    8.1004   -2.3665 N   0  0  0  0  0  0  0  0  0  0  0  0
   11.8685    6.0048   -2.4325 H   0  0  0  0  0  0  0  0  0  0  0  0
   11.2088    5.9918   -4.8415 H   0  0  0  0  0  0  0  0  0  0  0  0
   12.2426   10.1598   -2.5318 H   0  0  0  0  0  0  0  0  0  0  0  0
   10.9906    8.1063   -6.3869 N   0  0  0  0  0  0  0  0  0  0  0  0
   11.1702    9.2277   -7.2971 C   0  0  0  0  0  0  0  0  0  0  0  0
   10.3032    8.8449   -8.4016 C   0  0  1  0  0  0  0  0  0  0  0  0
   10.5552    9.2000   -9.7828 C   0  0  0  0  0  0  0  0  0  0  0  0
    9.9712    8.0785  -10.5382 N   0  0  0  0  0  0  0  0  0  0  0  0
   10.7156    7.7612  -11.2192 H   0  0  0  0  0  0  0  0  0  0  0  0
    9.7541    6.9883   -9.5711 C   0  0  0  0  0  0  0  0  0  0  0  0
   10.6627    7.3376   -8.4850 C   0  0  2  0  0  0  0  0  0  0  0  0
   10.3692    6.9923   -7.0872 C   0  0  0  0  0  0  0  0  0  0  0  0
   10.7525   10.1237   -6.7620 H   0  0  0  0  0  0  0  0  0  0  0  0
   12.2180    9.4145   -7.5323 H   0  0  0  0  0  0  0  0  0  0  0  0
    9.2420    8.8820   -8.0954 H   0  0  0  0  0  0  0  0  0  0  0  0
    9.9903   10.1146  -10.0698 H   0  0  0  0  0  0  0  0  0  0  0  0
   11.6365    9.2899   -9.9828 H   0  0  0  0  0  0  0  0  0  0  0  0
    8.7004    7.0457   -9.2789 H   0  0  0  0  0  0  0  0  0  0  0  0
   10.0041    5.9984  -10.0375 H   0  0  0  0  0  0  0  0  0  0  0  0
   11.7272    7.2229   -8.7642 H   0  0  0  0  0  0  0  0  0  0  0  0
   10.8319    6.0196   -6.8289 H   0  0  0  0  0  0  0  0  0  0  0  0
    9.2719    6.9748   -6.9323 H   0  0  0  0  0  0  0  0  0  0  0  0
  1  6  2  0
  2  1  1  0
  3  4  1  0
  3  2  2  0
  4  5  2  0
  5  6  1  0
  1  7  1  0
  2  8  1  0
  5  9  1  0
 10 11  1  0
 11 12  1  0
 12 13  1  0
 13 14  1  0
 14 15  1  0
 14 16  1  0
 16 17  1  0
 17 18  1  0
 18 10  1  0
 17 12  1  0
 11 19  1  0
 11 20  1  0
 12 21  1  1
 13 22  1  0
 13 23  1  0
 16 24  1  0
 16 25  1  0
 17 26  1  6
 18 27  1  0
 18 28  1  0
  3 10  1  0
M  END
>  <Score>  (1) 
-7.07878

$$$$

     RDKit          3D

 27 28  0  0  0  0  0  0  0  0999 V2000
   11.8121    6.9319   -2.9664 C   0  0  0  0  0  0  0  0  0  0  0  0
   11.4349    6.8795   -4.3280 C   0  0  0  0  0  0  0  0  0  0  0  0
   11.3608    8.0909   -5.0270 C   0  0  0  0  0  0  0  0  0  0  0  0
   11.6539    9.2436   -4.3617 N   0  0  0  0  0  0  0  0  0  0  0  0
   12.0116    9.2521   -3.0563 C   0  0  0  0  0  0  0  0  0  0  0  0
   12.0887    8.0980   -2.3665 N   0  0  0  0  0  0  0  0  0  0  0  0
   11.8587    5.9811   -2.4599 H   0  0  0  0  0  0  0  0  0  0  0  0
   11.2132    5.9451   -4.8092 H   0  0  0  0  0  0  0  0  0  0  0  0
   12.2391   10.1797   -2.5517 H   0  0  0  0  0  0  0  0  0  0  0  0
   10.9791    8.1199   -6.4338 C   0  0  2  0  0  0  0  0  0  0  0  0
   12.0858    8.3504   -7.2832 O   0  0  0  0  0  0  0  0  0  0  0  0
   11.4377    8.4201   -8.5144 C   0  0  2  0  0  0  0  0  0  0  0  0
   12.3870    8.7736   -9.6308 C   0  0  0  0  0  0  0  0  0  0  0  0
   13.3626    7.7512   -9.6547 O   0  0  0  0  0  0  0  0  0  0  0  0
   10.3941    9.4653   -8.2677 C   0  0  1  0  0  0  0  0  0  0  0  0
    9.2867    9.2382   -9.0656 O   0  0  0  0  0  0  0  0  0  0  0  0
   10.0941    9.2915   -6.7920 C   0  0  2  0  0  0  0  0  0  0  0  0
   10.5247   10.3792   -6.0356 O   0  0  0  0  0  0  0  0  0  0  0  0
   10.4862    7.1832   -6.7253 H   0  0  0  0  0  0  0  0  0  0  0  0
   10.9564    7.4524   -8.6826 H   0  0  0  0  0  0  0  0  0  0  0  0
   11.8921    8.7247  -10.6176 H   0  0  0  0  0  0  0  0  0  0  0  0
   12.9297    9.7083   -9.4484 H   0  0  0  0  0  0  0  0  0  0  0  0
   13.0391    7.0116  -10.2305 H   0  0  0  0  0  0  0  0  0  0  0  0
   10.7663   10.4997   -8.4074 H   0  0  0  0  0  0  0  0  0  0  0  0
    9.3755    9.8215   -9.8754 H   0  0  0  0  0  0  0  0  0  0  0  0
    9.0340    9.0842   -6.5979 H   0  0  0  0  0  0  0  0  0  0  0  0
   11.4571   10.5899   -6.2668 H   0  0  0  0  0  0  0  0  0  0  0  0
  1  6  2  0
  2  1  1  0
  3  4  1  0
  3  2  2  0
  4  5  2  0
  5  6  1  0
  1  7  1  0
  2  8  1  0
  5  9  1  0
 10 11  1  0
 11 12  1  0
 12 13  1  0
 13 14  1  0
 12 15  1  0
 15 16  1  0
 15 17  1  0
 17 18  1  0
 17 10  1  0
 10 19  1  6
 12 20  1  6
 13 21  1  0
 13 22  1  0
 14 23  1  0
 15 24  1  1
 16 25  1  0
 17 26  1  6
 18 27  1  0
  3 10  1  0
M  END
>  <Score>  (1) 
-7.07674

$$$$

     RDKit          3D

 24 25  0  0  0  0  0  0  0  0999 V2000
   11.8109    6.9272   -2.9692 C   0  0  0  0  0  0  0  0  0  0  0  0
   11.4358    6.8824   -4.3258 C   0  0  0  0  0  0  0  0  0  0  0  0
   11.3603    8.0912   -5.0291 C   0  0  0  0  0  0  0  0  0  0  0  0
   11.6537    9.2409   -4.3616 N   0  0  0  0  0  0  0  0  0  0  0  0
   12.0119    9.2512   -3.0547 C   0  0  0  0  0  0  0  0  0  0  0  0
   12.0894    8.1031   -2.3656 N   0  0  0  0  0  0  0  0  0  0  0  0
   11.8560    5.9769   -2.4685 H   0  0  0  0  0  0  0  0  0  0  0  0
   11.2104    5.9588   -4.8241 H   0  0  0  0  0  0  0  0  0  0  0  0
   12.2467   10.1595   -2.5164 H   0  0  0  0  0  0  0  0  0  0  0  0
    8.9369    5.0056   -8.5643 H   0  0  0  0  0  0  0  0  0  0  0  0
    8.6655    6.0197   -8.3431 C   0  0  0  0  0  0  0  0  0  0  0  0
    7.4938    6.3202   -8.2944 O   0  0  0  0  0  0  0  0  0  0  0  0
    9.7090    7.0144   -8.1060 C   0  0  2  0  0  0  0  0  0  0  0  0
   10.5871    6.6576   -6.9073 C   0  0  0  0  0  0  0  0  0  0  0  0
   10.9719    8.0286   -6.4279 C   0  0  1  0  0  0  0  0  0  0  0  0
    9.6523    8.7869   -6.5991 C   0  0  0  0  0  0  0  0  0  0  0  0
    9.1281    8.2909   -7.8314 N   0  0  0  0  0  0  0  0  0  0  0  0
   10.3566    7.1346   -9.0139 H   0  0  0  0  0  0  0  0  0  0  0  0
   11.4846    6.1141   -7.2758 H   0  0  0  0  0  0  0  0  0  0  0  0
   10.0281    6.0698   -6.1730 H   0  0  0  0  0  0  0  0  0  0  0  0
   11.7308    8.4281   -7.0950 H   0  0  0  0  0  0  0  0  0  0  0  0
    9.8916    9.8515   -6.5975 H   0  0  0  0  0  0  0  0  0  0  0  0
    9.0159    8.5486   -5.7304 H   0  0  0  0  0  0  0  0  0  0  0  0
    8.1047    8.3278   -7.8851 H   0  0  0  0  0  0  0  0  0  0  0  0
  1  6  2  0
  2  1  1  0
  3  4  1  0
  3  2  2  0
  4  5  2  0
  5  6  1  0
  1  7  1  0
  2  8  1  0
  5  9  1  0
 10 11  1  0
 11 12  2  0
 11 13  1  0
 13 14  1  0
 14 15  1  0
 15 16  1  0
 16 17  1  0
 17 13  1  0
 13 18  1  6
 14 19  1  0
 14 20  1  0
 15 21  1  6
 16 22  1  0
 16 23  1  0
 17 24  1  0
  3 15  1  0
M  END
>  <Score>  (1) 
-7.0765

$$$$

     RDKit          3D

 25 26  0  0  0  0  0  0  0  0999 V2000
   12.3037    8.1227   -2.2983 C   0  0  0  0  0  0  0  0  0  0  0  0
   12.0198    6.8858   -2.9175 C   0  0  0  0  0  0  0  0  0  0  0  0
   11.5258    6.9041   -4.2217 C   0  0  0  0  0  0  0  0  0  0  0  0
   11.3429    8.1006   -4.8292 N   0  0  0  0  0  0  0  0  0  0  0  0
   11.6273    9.2850   -4.2033 C   0  0  0  0  0  0  0  0  0  0  0  0
   12.0954    9.2727   -2.9680 N   0  0  0  0  0  0  0  0  0  0  0  0
   12.6800    8.0600   -1.2996 H   0  0  0  0  0  0  0  0  0  0  0  0
   12.1871    5.9644   -2.3800 H   0  0  0  0  0  0  0  0  0  0  0  0
   11.3089    5.9594   -4.6949 H   0  0  0  0  0  0  0  0  0  0  0  0
   11.3918   10.4595   -4.9472 N   0  0  0  0  0  0  0  0  0  0  0  0
   11.1798   10.5680   -6.3304 C   0  0  0  0  0  0  0  0  0  0  0  0
   10.9578   11.8247   -6.9077 C   0  0  0  0  0  0  0  0  0  0  0  0
   10.7426   12.0256   -8.2425 C   0  0  0  0  0  0  0  0  0  0  0  0
   10.7394   10.9390   -9.0932 C   0  0  0  0  0  0  0  0  0  0  0  0
   10.5104   11.1011  -10.5531 C   0  0  0  0  0  0  0  0  0  0  0  0
   10.9510    9.6900   -8.5813 C   0  0  0  0  0  0  0  0  0  0  0  0
   10.9459    8.8398   -9.2642 H   0  0  0  0  0  0  0  0  0  0  0  0
   11.1696    9.5106   -7.2069 C   0  0  0  0  0  0  0  0  0  0  0  0
   11.3633   11.4099   -4.4295 H   0  0  0  0  0  0  0  0  0  0  0  0
   10.9482   12.7234   -6.2894 H   0  0  0  0  0  0  0  0  0  0  0  0
   10.5772   13.0074   -8.6387 H   0  0  0  0  0  0  0  0  0  0  0  0
    9.6243   10.4567  -10.7979 H   0  0  0  0  0  0  0  0  0  0  0  0
   10.2957   12.1537  -10.8162 H   0  0  0  0  0  0  0  0  0  0  0  0
   11.3950   10.7154  -11.1117 H   0  0  0  0  0  0  0  0  0  0  0  0
   11.3272    8.5052   -6.8828 H   0  0  0  0  0  0  0  0  0  0  0  0
  2  1  2  0
  3  2  1  0
  4  3  2  0
  4  5  1  0
  5  6  2  0
  6  1  1  0
  1  7  1  0
  2  8  1  0
  3  9  1  0
 10 11  1  0
 11 12  2  0
 12 13  1  0
 13 14  2  0
 14 15  1  0
 14 16  1  0
 16 17  1  0
 16 18  2  0
 18 11  1  0
 10 19  1  0
 12 20  1  0
 13 21  1  0
 15 22  1  0
 15 23  1  0
 15 24  1  0
 18 25  1  0
  5 10  1  0
M  END
>  <Score>  (1) 
-7.61042

$$$$

     RDKit          3D

 25 26  0  0  0  0  0  0  0  0999 V2000
   11.8114    6.9290   -2.9680 C   0  0  0  0  0  0  0  0  0  0  0  0
   11.4354    6.8787   -4.3259 C   0  0  0  0  0  0  0  0  0  0  0  0
   11.3605    8.0927   -5.0287 C   0  0  0  0  0  0  0  0  0  0  0  0
   11.6536    9.2426   -4.3628 N   0  0  0  0  0  0  0  0  0  0  0  0
   12.0122    9.2519   -3.0540 C   0  0  0  0  0  0  0  0  0  0  0  0
   12.0889    8.1010   -2.3666 N   0  0  0  0  0  0  0  0  0  0  0  0
   11.8890    6.0432   -2.3709 H   0  0  0  0  0  0  0  0  0  0  0  0
   11.2195    5.9351   -4.7826 H   0  0  0  0  0  0  0  0  0  0  0  0
   12.2456   10.1639   -2.5220 H   0  0  0  0  0  0  0  0  0  0  0  0
   11.6836    6.3751  -10.4084 H   0  0  0  0  0  0  0  0  0  0  0  0
   12.0844    6.5530   -9.4194 C   0  0  0  0  0  0  0  0  0  0  0  0
   13.1298    6.0369   -9.0665 O   0  0  0  0  0  0  0  0  0  0  0  0
   11.3483    7.4306   -8.5002 C   0  0  2  0  0  0  0  0  0  0  0  0
   11.9827    7.5645   -7.2702 O   0  0  0  0  0  0  0  0  0  0  0  0
   10.9708    8.0316   -6.4330 C   0  0  1  0  0  0  0  0  0  0  0  0
    9.8849    7.0035   -6.7070 C   0  0  2  0  0  0  0  0  0  0  0  0
   10.3041    5.7437   -6.2971 O   0  0  0  0  0  0  0  0  0  0  0  0
    9.9424    6.9901   -8.2407 C   0  0  2  0  0  0  0  0  0  0  0  0
    9.6182    5.7662   -8.7635 O   0  0  0  0  0  0  0  0  0  0  0  0
   11.2950    8.4728   -8.9280 H   0  0  0  0  0  0  0  0  0  0  0  0
   10.6002    9.0023   -6.8417 H   0  0  0  0  0  0  0  0  0  0  0  0
    8.9058    7.2946   -6.3300 H   0  0  0  0  0  0  0  0  0  0  0  0
    9.6867    5.0560   -6.6276 H   0  0  0  0  0  0  0  0  0  0  0  0
    9.1868    7.7468   -8.5600 H   0  0  0  0  0  0  0  0  0  0  0  0
    9.1181    5.9350   -9.6210 H   0  0  0  0  0  0  0  0  0  0  0  0
  1  6  2  0
  2  1  1  0
  3  4  1  0
  3  2  2  0
  4  5  2  0
  5  6  1  0
  1  7  1  0
  2  8  1  0
  5  9  1  0
 10 11  1  0
 11 12  2  0
 11 13  1  0
 13 14  1  0
 14 15  1  0
 15 16  1  0
 16 17  1  0
 16 18  1  0
 18 19  1  0
 18 13  1  0
 13 20  1  6
 15 21  1  6
 16 22  1  6
 17 23  1  0
 18 24  1  6
 19 25  1  0
  3 15  1  0
M  END
>  <Score>  (1) 
-7.07343

$$$$

     RDKit          3D

 27 28  0  0  0  0  0  0  0  0999 V2000
   11.8110    6.9284   -2.9691 C   0  0  0  0  0  0  0  0  0  0  0  0
   11.4357    6.8783   -4.3248 C   0  0  0  0  0  0  0  0  0  0  0  0
   11.3606    8.0936   -5.0288 C   0  0  0  0  0  0  0  0  0  0  0  0
   11.6534    9.2422   -4.3633 N   0  0  0  0  0  0  0  0  0  0  0  0
   12.0123    9.2515   -3.0535 C   0  0  0  0  0  0  0  0  0  0  0  0
   12.0890    8.1020   -2.3665 N   0  0  0  0  0  0  0  0  0  0  0  0
   11.8834    6.0257   -2.3852 H   0  0  0  0  0  0  0  0  0  0  0  0
   11.2117    5.9417   -4.8134 H   0  0  0  0  0  0  0  0  0  0  0  0
   12.2421   10.1773   -2.5398 H   0  0  0  0  0  0  0  0  0  0  0  0
   10.9760    8.0860   -6.4333 C   0  0  2  0  0  0  0  0  0  0  0  0
   11.8601    7.3288   -7.2361 O   0  0  0  0  0  0  0  0  0  0  0  0
   11.2866    7.5642   -8.5002 C   0  0  2  0  0  0  0  0  0  0  0  0
   12.1506    7.0314   -9.6114 C   0  0  0  0  0  0  0  0  0  0  0  0
   12.2805    5.6501   -9.4010 O   0  0  0  0  0  0  0  0  0  0  0  0
   11.0298    9.0297   -8.5806 C   0  0  2  0  0  0  0  0  0  0  0  0
   11.9504    9.7204   -9.3443 O   0  0  0  0  0  0  0  0  0  0  0  0
   11.0940    9.4431   -7.1045 C   0  0  2  0  0  0  0  0  0  0  0  0
   12.3476    9.9709   -6.8504 O   0  0  0  0  0  0  0  0  0  0  0  0
    9.9867    7.6547   -6.5827 H   0  0  0  0  0  0  0  0  0  0  0  0
   10.3263    7.0254   -8.5289 H   0  0  0  0  0  0  0  0  0  0  0  0
   11.6677    7.2688  -10.5597 H   0  0  0  0  0  0  0  0  0  0  0  0
   13.1719    7.4427   -9.6172 H   0  0  0  0  0  0  0  0  0  0  0  0
   12.1258    5.1381  -10.2350 H   0  0  0  0  0  0  0  0  0  0  0  0
   10.0221    9.2647   -8.9258 H   0  0  0  0  0  0  0  0  0  0  0  0
   12.8676    9.6858   -8.9907 H   0  0  0  0  0  0  0  0  0  0  0  0
   10.2635   10.0939   -6.8253 H   0  0  0  0  0  0  0  0  0  0  0  0
   12.4467   10.8271   -7.3506 H   0  0  0  0  0  0  0  0  0  0  0  0
  1  6  2  0
  2  1  1  0
  3  4  1  0
  3  2  2  0
  4  5  2  0
  5  6  1  0
  1  7  1  0
  2  8  1  0
  5  9  1  0
 10 11  1  0
 11 12  1  0
 12 13  1  0
 13 14  1  0
 12 15  1  0
 15 16  1  0
 15 17  1  0
 17 18  1  0
 17 10  1  0
 10 19  1  1
 12 20  1  1
 13 21  1  0
 13 22  1  0
 14 23  1  0
 15 24  1  6
 16 25  1  0
 17 26  1  1
 18 27  1  0
  3 10  1  0
M  END
>  <Score>  (1) 
-7.06757

$$$$

     RDKit          3D

 21 23  0  0  0  0  0  0  0  0999 V2000
   11.8115    6.9297   -2.9677 C   0  0  0  0  0  0  0  0  0  0  0  0
   11.4354    6.8788   -4.3258 C   0  0  0  0  0  0  0  0  0  0  0  0
   11.3601    8.0912   -5.0296 C   0  0  0  0  0  0  0  0  0  0  0  0
   11.6545    9.2441   -4.3600 N   0  0  0  0  0  0  0  0  0  0  0  0
   12.0116    9.2529   -3.0564 C   0  0  0  0  0  0  0  0  0  0  0  0
   12.0888    8.0993   -2.3664 N   0  0  0  0  0  0  0  0  0  0  0  0
   11.8831    6.0202   -2.3847 H   0  0  0  0  0  0  0  0  0  0  0  0
   11.2140    5.9395   -4.8043 H   0  0  0  0  0  0  0  0  0  0  0  0
   12.2431   10.1684   -2.5329 H   0  0  0  0  0  0  0  0  0  0  0  0
   10.9867    8.1110   -6.4028 N   0  0  0  0  0  0  0  0  0  0  0  0
   11.4054    8.9304   -7.3514 N   0  0  0  0  0  0  0  0  0  0  0  0
   10.8183    8.6303   -8.5315 C   0  0  0  0  0  0  0  0  0  0  0  0
    9.9719    7.5469   -8.3085 C   0  0  0  0  0  0  0  0  0  0  0  0
    9.1218    6.7859   -9.0521 C   0  0  0  0  0  0  0  0  0  0  0  0
    9.0190    7.0218  -10.1119 H   0  0  0  0  0  0  0  0  0  0  0  0
    8.4329    5.7755   -8.4900 N   0  0  0  0  0  0  0  0  0  0  0  0
    8.5586    5.4802   -7.1740 C   0  0  0  0  0  0  0  0  0  0  0  0
    9.3958    6.2344   -6.4559 N   0  0  0  0  0  0  0  0  0  0  0  0
   10.1095    7.2566   -6.9654 C   0  0  0  0  0  0  0  0  0  0  0  0
   10.9391    9.0989   -9.4922 H   0  0  0  0  0  0  0  0  0  0  0  0
    8.0212    4.6786   -6.6965 H   0  0  0  0  0  0  0  0  0  0  0  0
  1  6  2  0
  2  1  1  0
  3  4  1  0
  3  2  2  0
  4  5  2  0
  5  6  1  0
  1  7  1  0
  2  8  1  0
  5  9  1  0
 10 11  1  0
 11 12  2  0
 12 13  1  0
 13 14  2  0
 14 15  1  0
 14 16  1  0
 16 17  2  0
 17 18  1  0
 18 19  2  0
 19 10  1  0
 19 13  1  0
 12 20  1  0
 17 21  1  0
  3 10  1  0
M  END
>  <Score>  (1) 
-7.06486

$$$$

     RDKit          3D

 31 32  0  0  0  0  0  0  0  0999 V2000
   11.8109    6.9289   -2.9696 C   0  0  0  0  0  0  0  0  0  0  0  0
   11.4359    6.8772   -4.3235 C   0  0  0  0  0  0  0  0  0  0  0  0
   11.3604    8.0946   -5.0297 C   0  0  0  0  0  0  0  0  0  0  0  0
   11.6536    9.2422   -4.3626 N   0  0  0  0  0  0  0  0  0  0  0  0
   12.0121    9.2520   -3.0542 C   0  0  0  0  0  0  0  0  0  0  0  0
   12.0890    8.1012   -2.3665 N   0  0  0  0  0  0  0  0  0  0  0  0
   11.8830    6.0220   -2.3856 H   0  0  0  0  0  0  0  0  0  0  0  0
   11.2144    5.9570   -4.8087 H   0  0  0  0  0  0  0  0  0  0  0  0
   12.2340   10.1936   -2.5753 H   0  0  0  0  0  0  0  0  0  0  0  0
   10.9708    8.1246   -6.4659 C   0  0  1  0  0  0  0  0  0  0  0  0
    9.7123    7.5863   -6.5591 O   0  0  0  0  0  0  0  0  0  0  0  0
    9.0137    7.8217   -7.6897 C   0  0  2  0  0  0  0  0  0  0  0  0
    9.4410    6.9593   -8.8658 C   0  0  0  0  0  0  0  0  0  0  0  0
    9.2860    5.6000   -8.5975 O   0  0  0  0  0  0  0  0  0  0  0  0
    9.0275    9.2542   -8.1686 C   0  0  1  0  0  0  0  0  0  0  0  0
    7.7673    9.7362   -8.4576 O   0  0  0  0  0  0  0  0  0  0  0  0
    9.6350   10.0818   -7.0309 C   0  0  1  0  0  0  0  0  0  0  0  0
    8.8905    9.8145   -5.8831 O   0  0  0  0  0  0  0  0  0  0  0  0
   11.0574    9.5606   -6.9103 C   0  0  2  0  0  0  0  0  0  0  0  0
   11.5986    9.5983   -8.2010 O   0  0  0  0  0  0  0  0  0  0  0  0
   11.7414    7.5556   -7.0177 H   0  0  0  0  0  0  0  0  0  0  0  0
    7.9437    7.5735   -7.5008 H   0  0  0  0  0  0  0  0  0  0  0  0
   10.5055    7.1576   -9.1383 H   0  0  0  0  0  0  0  0  0  0  0  0
    8.8423    7.1809   -9.7712 H   0  0  0  0  0  0  0  0  0  0  0  0
    9.5644    5.4846   -7.6401 H   0  0  0  0  0  0  0  0  0  0  0  0
    9.6929    9.3886   -9.0404 H   0  0  0  0  0  0  0  0  0  0  0  0
    7.4097   10.3183   -7.7208 H   0  0  0  0  0  0  0  0  0  0  0  0
    9.6129   11.1573   -7.2835 H   0  0  0  0  0  0  0  0  0  0  0  0
    8.0836    9.2645   -6.0874 H   0  0  0  0  0  0  0  0  0  0  0  0
   11.6787   10.1919   -6.2593 H   0  0  0  0  0  0  0  0  0  0  0  0
   12.3195    8.9348   -8.3228 H   0  0  0  0  0  0  0  0  0  0  0  0
  1  6  2  0
  2  1  1  0
  3  4  1  0
  3  2  2  0
  4  5  2  0
  5  6  1  0
  1  7  1  0
  2  8  1  0
  5  9  1  0
 10 11  1  0
 11 12  1  0
 12 13  1  0
 13 14  1  0
 12 15  1  0
 15 16  1  0
 15 17  1  0
 17 18  1  0
 17 19  1  0
 19 20  1  0
 19 10  1  0
 10 21  1  6
 12 22  1  1
 13 23  1  0
 13 24  1  0
 14 25  1  0
 15 26  1  6
 16 27  1  0
 17 28  1  6
 18 29  1  0
 19 30  1  1
 20 31  1  0
  3 10  1  0
M  END
>  <Score>  (1) 
-7.06393

$$$$

     RDKit          3D

 31 32  0  0  0  0  0  0  0  0999 V2000
   11.8116    6.9295   -2.9675 C   0  0  0  0  0  0  0  0  0  0  0  0
   11.4354    6.8791   -4.3262 C   0  0  0  0  0  0  0  0  0  0  0  0
   11.3602    8.0912   -5.0294 C   0  0  0  0  0  0  0  0  0  0  0  0
   11.6543    9.2438   -4.3606 N   0  0  0  0  0  0  0  0  0  0  0  0
   12.0117    9.2526   -3.0558 C   0  0  0  0  0  0  0  0  0  0  0  0
   12.0888    8.0998   -2.3665 N   0  0  0  0  0  0  0  0  0  0  0  0
   11.8772    6.0009   -2.3993 H   0  0  0  0  0  0  0  0  0  0  0  0
   11.2122    5.9669   -4.8204 H   0  0  0  0  0  0  0  0  0  0  0  0
   12.2432   10.1800   -2.5365 H   0  0  0  0  0  0  0  0  0  0  0  0
   10.9689    8.1203   -6.4716 C   0  0  1  0  0  0  0  0  0  0  0  0
   10.7360    6.8080   -6.8603 O   0  0  0  0  0  0  0  0  0  0  0  0
   10.5341    6.8494   -8.2547 C   0  0  1  0  0  0  0  0  0  0  0  0
   10.7040    5.4886   -8.8723 C   0  0  0  0  0  0  0  0  0  0  0  0
   12.0091    5.0338   -8.6145 O   0  0  0  0  0  0  0  0  0  0  0  0
    9.1397    7.3524   -8.4552 C   0  0  2  0  0  0  0  0  0  0  0  0
    8.8895    7.3820   -9.8284 O   0  0  0  0  0  0  0  0  0  0  0  0
    8.8881    8.6584   -7.7876 C   0  0  1  0  0  0  0  0  0  0  0  0
    7.5759    8.6108   -7.2614 O   0  0  0  0  0  0  0  0  0  0  0  0
    9.8512    9.0528   -6.7441 C   0  0  1  0  0  0  0  0  0  0  0  0
    9.1604    9.3118   -5.5372 O   0  0  0  0  0  0  0  0  0  0  0  0
   11.8862    8.4470   -7.0453 H   0  0  0  0  0  0  0  0  0  0  0  0
   11.2363    7.5816   -8.6807 H   0  0  0  0  0  0  0  0  0  0  0  0
   10.6383    5.6125   -9.9670 H   0  0  0  0  0  0  0  0  0  0  0  0
    9.9432    4.8014   -8.4906 H   0  0  0  0  0  0  0  0  0  0  0  0
   12.0216    4.0939   -8.9831 H   0  0  0  0  0  0  0  0  0  0  0  0
    8.4488    6.5576   -8.0469 H   0  0  0  0  0  0  0  0  0  0  0  0
    9.7163    7.7157  -10.2551 H   0  0  0  0  0  0  0  0  0  0  0  0
    8.8241    9.4385   -8.6028 H   0  0  0  0  0  0  0  0  0  0  0  0
    7.5566    8.1252   -6.3935 H   0  0  0  0  0  0  0  0  0  0  0  0
   10.3034   10.0525   -7.0163 H   0  0  0  0  0  0  0  0  0  0  0  0
    8.5539   10.0961   -5.6585 H   0  0  0  0  0  0  0  0  0  0  0  0
  1  6  2  0
  2  1  1  0
  3  4  1  0
  3  2  2  0
  4  5  2  0
  5  6  1  0
  1  7  1  0
  2  8  1  0
  5  9  1  0
 10 11  1  0
 11 12  1  0
 12 13  1  0
 13 14  1  0
 12 15  1  0
 15 16  1  0
 15 17  1  0
 17 18  1  0
 17 19  1  0
 19 20  1  0
 19 10  1  0
 10 21  1  6
 12 22  1  6
 13 23  1  0
 13 24  1  0
 14 25  1  0
 15 26  1  1
 16 27  1  0
 17 28  1  6
 18 29  1  0
 19 30  1  6
 20 31  1  0
  3 10  1  0
M  END
>  <Score>  (1) 
-7.05473

$$$$

     RDKit          3D

 19 20  0  0  0  0  0  0  0  0999 V2000
   11.8115    6.9292   -2.9675 C   0  0  0  0  0  0  0  0  0  0  0  0
   11.4354    6.8810   -4.3266 C   0  0  0  0  0  0  0  0  0  0  0  0
   11.3601    8.0907   -5.0294 C   0  0  0  0  0  0  0  0  0  0  0  0
   11.6540    9.2423   -4.3610 N   0  0  0  0  0  0  0  0  0  0  0  0
   12.0119    9.2525   -3.0552 C   0  0  0  0  0  0  0  0  0  0  0  0
   12.0890    8.1003   -2.3662 N   0  0  0  0  0  0  0  0  0  0  0  0
   11.8551    5.9707   -2.4695 H   0  0  0  0  0  0  0  0  0  0  0  0
   11.2131    5.9575   -4.8137 H   0  0  0  0  0  0  0  0  0  0  0  0
   12.2436   10.1592   -2.5279 H   0  0  0  0  0  0  0  0  0  0  0  0
   10.9796    8.0832   -6.4192 C   0  0  0  0  0  0  0  0  0  0  0  0
   10.3975    6.9732   -6.9936 C   0  0  0  0  0  0  0  0  0  0  0  0
   10.0388    6.9953   -8.3449 C   0  0  0  0  0  0  0  0  0  0  0  0
    9.5765    6.1189   -8.8085 H   0  0  0  0  0  0  0  0  0  0  0  0
   10.2551    8.1125   -9.1277 C   0  0  0  0  0  0  0  0  0  0  0  0
    9.8024    8.1317  -10.8215 Cl  0  0  0  0  0  0  0  0  0  0  0  0
   10.8405    9.1943   -8.5014 C   0  0  0  0  0  0  0  0  0  0  0  0
   11.1837    9.1592   -7.1885 N   0  0  0  0  0  0  0  0  0  0  0  0
   10.2308    6.1117   -6.3899 H   0  0  0  0  0  0  0  0  0  0  0  0
   11.0127   10.0724   -9.1087 H   0  0  0  0  0  0  0  0  0  0  0  0
  1  6  2  0
  2  1  1  0
  3  4  1  0
  3  2  2  0
  4  5  2  0
  5  6  1  0
  1  7  1  0
  2  8  1  0
  5  9  1  0
 10 11  2  0
 11 12  1  0
 12 13  1  0
 12 14  2  0
 14 15  1  0
 14 16  1  0
 16 17  2  0
 17 10  1  0
 11 18  1  0
 16 19  1  0
  3 10  1  0
M  END
>  <Score>  (1) 
-7.04905

$$$$

     RDKit          3D

 31 32  0  0  0  0  0  0  0  0999 V2000
   11.8109    6.9276   -2.9695 C   0  0  0  0  0  0  0  0  0  0  0  0
   11.4357    6.8785   -4.3248 C   0  0  0  0  0  0  0  0  0  0  0  0
   11.3604    8.0927   -5.0293 C   0  0  0  0  0  0  0  0  0  0  0  0
   11.6540    9.2430   -4.3614 N   0  0  0  0  0  0  0  0  0  0  0  0
   12.0119    9.2505   -3.0546 C   0  0  0  0  0  0  0  0  0  0  0  0
   12.0892    8.1036   -2.3664 N   0  0  0  0  0  0  0  0  0  0  0  0
   11.8578    5.9832   -2.4641 H   0  0  0  0  0  0  0  0  0  0  0  0
   11.2175    5.9396   -4.7913 H   0  0  0  0  0  0  0  0  0  0  0  0
   12.2319   10.1990   -2.5846 H   0  0  0  0  0  0  0  0  0  0  0  0
   10.9672    8.0990   -6.4699 C   0  0  1  0  0  0  0  0  0  0  0  0
   10.7248    6.8637   -6.9201 O   0  0  0  0  0  0  0  0  0  0  0  0
    9.5160    6.4851   -7.3423 C   0  0  2  0  0  0  0  0  0  0  0  0
    9.7214    5.3724   -8.3865 C   0  0  0  0  0  0  0  0  0  0  0  0
    8.5258    4.9137   -8.8838 O   0  0  0  0  0  0  0  0  0  0  0  0
    8.6216    7.4947   -7.9497 C   0  0  2  0  0  0  0  0  0  0  0  0
    8.0927    7.0770   -9.1779 O   0  0  0  0  0  0  0  0  0  0  0  0
    9.3458    8.8343   -8.1246 C   0  0  1  0  0  0  0  0  0  0  0  0
    8.4396    9.8178   -8.5080 O   0  0  0  0  0  0  0  0  0  0  0  0
    9.8902    9.1247   -6.7186 C   0  0  2  0  0  0  0  0  0  0  0  0
   10.3710   10.4155   -6.7171 O   0  0  0  0  0  0  0  0  0  0  0  0
   11.8774    8.4894   -7.0192 H   0  0  0  0  0  0  0  0  0  0  0  0
    8.9451    5.9678   -6.5149 H   0  0  0  0  0  0  0  0  0  0  0  0
   10.4326    5.7068   -9.1696 H   0  0  0  0  0  0  0  0  0  0  0  0
   10.2093    4.5400   -7.8379 H   0  0  0  0  0  0  0  0  0  0  0  0
    8.6880    4.0193   -9.2807 H   0  0  0  0  0  0  0  0  0  0  0  0
    7.7569    7.7173   -7.2898 H   0  0  0  0  0  0  0  0  0  0  0  0
    7.1079    6.9543   -9.1327 H   0  0  0  0  0  0  0  0  0  0  0  0
   10.1593    8.6824   -8.8443 H   0  0  0  0  0  0  0  0  0  0  0  0
    8.6870   10.2453   -9.3790 H   0  0  0  0  0  0  0  0  0  0  0  0
    9.0388    9.0137   -6.0304 H   0  0  0  0  0  0  0  0  0  0  0  0
   10.8532   10.5682   -5.8625 H   0  0  0  0  0  0  0  0  0  0  0  0
  1  6  2  0
  2  1  1  0
  3  4  1  0
  3  2  2  0
  4  5  2  0
  5  6  1  0
  1  7  1  0
  2  8  1  0
  5  9  1  0
 10 11  1  0
 11 12  1  0
 12 13  1  0
 13 14  1  0
 12 15  1  0
 15 16  1  0
 15 17  1  0
 17 18  1  0
 17 19  1  0
 19 20  1  0
 19 10  1  0
 10 21  1  6
 12 22  1  1
 13 23  1  0
 13 24  1  0
 14 25  1  0
 15 26  1  1
 16 27  1  0
 17 28  1  6
 18 29  1  0
 19 30  1  1
 20 31  1  0
  3 10  1  0
M  END
>  <Score>  (1) 
-7.0488

$$$$

     RDKit          3D

 23 24  0  0  0  0  0  0  0  0999 V2000
   11.8105    6.9309   -2.9719 C   0  0  0  0  0  0  0  0  0  0  0  0
   11.4358    6.8842   -4.3263 C   0  0  0  0  0  0  0  0  0  0  0  0
   11.3606    8.0867   -5.0265 C   0  0  0  0  0  0  0  0  0  0  0  0
   11.6553    9.2438   -4.3567 N   0  0  0  0  0  0  0  0  0  0  0  0
   12.0100    9.2479   -3.0605 C   0  0  0  0  0  0  0  0  0  0  0  0
   12.0898    8.1025   -2.3641 N   0  0  0  0  0  0  0  0  0  0  0  0
   11.8618    5.9891   -2.4514 H   0  0  0  0  0  0  0  0  0  0  0  0
   11.2179    5.9400   -4.7901 H   0  0  0  0  0  0  0  0  0  0  0  0
   12.2440   10.1574   -2.5257 H   0  0  0  0  0  0  0  0  0  0  0  0
   10.9817    8.1352   -6.4298 C   0  0  0  0  0  0  0  0  0  0  0  0
   10.3925    7.0237   -7.0010 C   0  0  0  0  0  0  0  0  0  0  0  0
   10.0215    7.0227   -8.3091 C   0  0  0  0  0  0  0  0  0  0  0  0
   10.2295    8.1394   -9.0907 C   0  0  0  0  0  0  0  0  0  0  0  0
    9.8664    8.1687  -10.4120 O   0  0  0  0  0  0  0  0  0  0  0  0
   10.0889    9.3231  -11.1938 C   0  0  0  0  0  0  0  0  0  0  0  0
   10.8028    9.2073   -8.5169 N   0  0  0  0  0  0  0  0  0  0  0  0
   11.1773    9.2211   -7.2136 C   0  0  0  0  0  0  0  0  0  0  0  0
   10.2225    6.1283   -6.3856 H   0  0  0  0  0  0  0  0  0  0  0  0
    9.5631    6.1227   -8.7058 H   0  0  0  0  0  0  0  0  0  0  0  0
   10.5819    9.0621  -12.1633 H   0  0  0  0  0  0  0  0  0  0  0  0
    9.0972    9.7766  -11.4449 H   0  0  0  0  0  0  0  0  0  0  0  0
   10.7585    9.9940  -10.6567 H   0  0  0  0  0  0  0  0  0  0  0  0
   11.6235   10.1144   -6.8508 H   0  0  0  0  0  0  0  0  0  0  0  0
  1  6  2  0
  2  1  1  0
  3  4  1  0
  3  2  2  0
  4  5  2  0
  5  6  1  0
  1  7  1  0
  2  8  1  0
  5  9  1  0
 10 11  2  0
 11 12  1  0
 12 13  2  0
 13 14  1  0
 14 15  1  0
 13 16  1  0
 16 17  2  0
 17 10  1  0
 11 18  1  0
 12 19  1  0
 15 20  1  0
 15 21  1  0
 15 22  1  0
 17 23  1  0
  3 10  1  0
M  END
>  <Score>  (1) 
-7.04562

$$$$

     RDKit          3D

 27 28  0  0  0  0  0  0  0  0999 V2000
   11.8115    6.9294   -2.9678 C   0  0  0  0  0  0  0  0  0  0  0  0
   11.4360    6.8810   -4.3243 C   0  0  0  0  0  0  0  0  0  0  0  0
   11.3596    8.0929   -5.0321 C   0  0  0  0  0  0  0  0  0  0  0  0
   11.6543    9.2400   -4.3592 N   0  0  0  0  0  0  0  0  0  0  0  0
   12.0115    9.2540   -3.0571 C   0  0  0  0  0  0  0  0  0  0  0  0
   12.0890    8.0987   -2.3655 N   0  0  0  0  0  0  0  0  0  0  0  0
   11.8864    6.0362   -2.3783 H   0  0  0  0  0  0  0  0  0  0  0  0
   11.2191    5.9453   -4.7871 H   0  0  0  0  0  0  0  0  0  0  0  0
   12.2308   10.1975   -2.5880 H   0  0  0  0  0  0  0  0  0  0  0  0
   10.9862    8.1057   -6.4032 N   0  0  0  0  0  0  0  0  0  0  0  0
   12.0189    8.3290   -7.3849 C   0  0  0  0  0  0  0  0  0  0  0  0
   11.4098    9.0819   -8.5287 C   0  0  0  0  0  0  0  0  0  0  0  0
   10.3202    8.2742   -9.1716 C   0  0  0  0  0  0  0  0  0  0  0  0
    9.6588    9.1379  -10.1387 N   0  0  0  0  0  0  0  0  0  0  0  0
    9.3592    7.6612   -8.2074 C   0  0  0  0  0  0  0  0  0  0  0  0
    9.6326    7.9021   -6.7678 C   0  0  0  0  0  0  0  0  0  0  0  0
   12.8527    8.9284   -6.9386 H   0  0  0  0  0  0  0  0  0  0  0  0
   12.3747    7.3257   -7.7088 H   0  0  0  0  0  0  0  0  0  0  0  0
   11.0780   10.0738   -8.1806 H   0  0  0  0  0  0  0  0  0  0  0  0
   12.2063    9.2497   -9.2834 H   0  0  0  0  0  0  0  0  0  0  0  0
   10.8115    7.4694   -9.7599 H   0  0  0  0  0  0  0  0  0  0  0  0
    9.9040   10.1393  -10.0213 H   0  0  0  0  0  0  0  0  0  0  0  0
    8.6329    8.9765  -10.1736 H   0  0  0  0  0  0  0  0  0  0  0  0
    9.2747    6.5601   -8.3830 H   0  0  0  0  0  0  0  0  0  0  0  0
    8.3483    8.0674   -8.4405 H   0  0  0  0  0  0  0  0  0  0  0  0
    9.2540    7.0170   -6.1733 H   0  0  0  0  0  0  0  0  0  0  0  0
    9.0385    8.7611   -6.3888 H   0  0  0  0  0  0  0  0  0  0  0  0
  1  6  2  0
  2  1  1  0
  3  4  1  0
  3  2  2  0
  4  5  2  0
  5  6  1  0
  1  7  1  0
  2  8  1  0
  5  9  1  0
 10 11  1  0
 11 12  1  0
 12 13  1  0
 13 14  1  0
 13 15  1  0
 15 16  1  0
 16 10  1  0
 11 17  1  0
 11 18  1  0
 12 19  1  0
 12 20  1  0
 13 21  1  0
 14 22  1  0
 14 23  1  0
 15 24  1  0
 15 25  1  0
 16 26  1  0
 16 27  1  0
  3 10  1  0
M  END
>  <Score>  (1) 
-7.04199

$$$$

     RDKit          3D

 32 33  0  0  0  0  0  0  0  0999 V2000
   11.8120    6.9287   -2.9657 C   0  0  0  0  0  0  0  0  0  0  0  0
   11.4345    6.8823   -4.3306 C   0  0  0  0  0  0  0  0  0  0  0  0
   11.3604    8.0871   -5.0273 C   0  0  0  0  0  0  0  0  0  0  0  0
   11.6545    9.2448   -4.3602 N   0  0  0  0  0  0  0  0  0  0  0  0
   12.0116    9.2511   -3.0557 C   0  0  0  0  0  0  0  0  0  0  0  0
   12.0890    8.1019   -2.3665 N   0  0  0  0  0  0  0  0  0  0  0  0
   11.8555    5.9755   -2.4697 H   0  0  0  0  0  0  0  0  0  0  0  0
   11.2124    5.9466   -4.8126 H   0  0  0  0  0  0  0  0  0  0  0  0
   12.2444   10.1618   -2.5259 H   0  0  0  0  0  0  0  0  0  0  0  0
   10.9973    8.0362   -6.3379 O   0  0  0  0  0  0  0  0  0  0  0  0
   11.6416    8.7508   -7.3771 C   0  0  1  0  0  0  0  0  0  0  0  0
   12.2232    7.8434   -8.2130 O   0  0  0  0  0  0  0  0  0  0  0  0
   11.3842    7.5761   -9.2681 C   0  0  2  0  0  0  0  0  0  0  0  0
   11.6971    6.2817   -9.9689 C   0  0  0  0  0  0  0  0  0  0  0  0
   12.9666    6.2349  -10.4985 O   0  0  0  0  0  0  0  0  0  0  0  0
   11.4719    8.7663  -10.2016 C   0  0  2  0  0  0  0  0  0  0  0  0
   12.8429    9.0858  -10.3351 O   0  0  0  0  0  0  0  0  0  0  0  0
   10.8432    9.9227   -9.4583 C   0  0  1  0  0  0  0  0  0  0  0  0
    9.5976   10.1624  -10.0677 O   0  0  0  0  0  0  0  0  0  0  0  0
   10.6415    9.6592   -8.0062 C   0  0  1  0  0  0  0  0  0  0  0  0
    9.3181    9.2465   -7.7214 O   0  0  0  0  0  0  0  0  0  0  0  0
   12.4678    9.3274   -6.8776 H   0  0  0  0  0  0  0  0  0  0  0  0
   10.3270    7.5163   -8.9275 H   0  0  0  0  0  0  0  0  0  0  0  0
   10.9114    6.1493  -10.7606 H   0  0  0  0  0  0  0  0  0  0  0  0
   11.5662    5.4691   -9.2330 H   0  0  0  0  0  0  0  0  0  0  0  0
   13.2103    5.2592  -10.5722 H   0  0  0  0  0  0  0  0  0  0  0  0
   11.0441    8.5878  -11.1859 H   0  0  0  0  0  0  0  0  0  0  0  0
   12.9100   10.0744  -10.4248 H   0  0  0  0  0  0  0  0  0  0  0  0
   11.4358   10.8602   -9.6353 H   0  0  0  0  0  0  0  0  0  0  0  0
    9.2346    9.3345  -10.4592 H   0  0  0  0  0  0  0  0  0  0  0  0
   10.7307   10.6568   -7.4806 H   0  0  0  0  0  0  0  0  0  0  0  0
    8.7171    9.4454   -8.4847 H   0  0  0  0  0  0  0  0  0  0  0  0
  1  6  2  0
  2  1  1  0
  3  4  1  0
  3  2  2  0
  4  5  2  0
  5  6  1  0
  1  7  1  0
  2  8  1  0
  5  9  1  0
 10 11  1  0
 11 12  1  0
 12 13  1  0
 13 14  1  0
 14 15  1  0
 13 16  1  0
 16 17  1  0
 16 18  1  0
 18 19  1  0
 18 20  1  0
 20 21  1  0
 20 11  1  0
 11 22  1  1
 13 23  1  1
 14 24  1  0
 14 25  1  0
 15 26  1  0
 16 27  1  6
 17 28  1  0
 18 29  1  1
 19 30  1  0
 20 31  1  1
 21 32  1  0
  3 10  1  0
M  END
>  <Score>  (1) 
-7.03832

$$$$

     RDKit          3D

 22 23  0  0  0  0  0  0  0  0999 V2000
   12.3026    8.1242   -2.3014 C   0  0  0  0  0  0  0  0  0  0  0  0
   12.0213    6.8826   -2.9133 C   0  0  0  0  0  0  0  0  0  0  0  0
   11.5243    6.8980   -4.2253 C   0  0  0  0  0  0  0  0  0  0  0  0
   11.3426    8.1085   -4.8310 N   0  0  0  0  0  0  0  0  0  0  0  0
   11.6236    9.2768   -4.2123 C   0  0  0  0  0  0  0  0  0  0  0  0
   12.1007    9.2809   -2.9548 N   0  0  0  0  0  0  0  0  0  0  0  0
   12.6849    8.1505   -1.2963 H   0  0  0  0  0  0  0  0  0  0  0  0
   12.1935    5.9913   -2.3659 H   0  0  0  0  0  0  0  0  0  0  0  0
   11.3110    5.9706   -4.6904 H   0  0  0  0  0  0  0  0  0  0  0  0
   11.7044   10.9255   -9.0118 H   0  0  0  0  0  0  0  0  0  0  0  0
   11.4485   11.8141   -8.4553 C   0  0  0  0  0  0  0  0  0  0  0  0
   11.2681   12.8743   -9.1033 O   0  0  0  0  0  0  0  0  0  0  0  0
   11.3245   11.7514   -7.0035 C   0  0  0  0  0  0  0  0  0  0  0  0
   10.9984   12.8775   -6.2799 C   0  0  0  0  0  0  0  0  0  0  0  0
   10.8729   12.8510   -4.8979 C   0  0  0  0  0  0  0  0  0  0  0  0
   11.0767   11.6703   -4.2074 C   0  0  0  0  0  0  0  0  0  0  0  0
   11.4034   10.5386   -4.9248 C   0  0  0  0  0  0  0  0  0  0  0  0
   11.5237   10.5845   -6.2977 C   0  0  0  0  0  0  0  0  0  0  0  0
   10.8305   13.8258   -6.7893 H   0  0  0  0  0  0  0  0  0  0  0  0
   10.6151   13.7395   -4.3206 H   0  0  0  0  0  0  0  0  0  0  0  0
   10.9836   11.6236   -3.1184 H   0  0  0  0  0  0  0  0  0  0  0  0
   11.7830    9.6959   -6.8906 H   0  0  0  0  0  0  0  0  0  0  0  0
  2  1  2  0
  3  2  1  0
  4  3  2  0
  4  5  1  0
  5  6  2  0
  6  1  1  0
  1  7  1  0
  2  8  1  0
  3  9  1  0
 10 11  1  0
 11 12  2  0
 11 13  1  0
 13 14  2  0
 14 15  1  0
 15 16  2  0
 16 17  1  0
 17 18  2  0
 18 13  1  0
 14 19  1  0
 15 20  1  0
 16 21  1  0
 18 22  1  0
  5 17  1  0
M  END
>  <Score>  (1) 
-7.60787

$$$$

     RDKit          3D

 22 23  0  0  0  0  0  0  0  0999 V2000
   11.8105    6.9263   -2.9704 C   0  0  0  0  0  0  0  0  0  0  0  0
   11.4358    6.8819   -4.3257 C   0  0  0  0  0  0  0  0  0  0  0  0
   11.3611    8.0925   -5.0267 C   0  0  0  0  0  0  0  0  0  0  0  0
   11.6524    9.2395   -4.3661 N   0  0  0  0  0  0  0  0  0  0  0  0
   12.0130    9.2513   -3.0509 C   0  0  0  0  0  0  0  0  0  0  0  0
   12.0894    8.1044   -2.3662 N   0  0  0  0  0  0  0  0  0  0  0  0
   11.8537    5.9758   -2.4764 H   0  0  0  0  0  0  0  0  0  0  0  0
   11.2099    5.9481   -4.8223 H   0  0  0  0  0  0  0  0  0  0  0  0
   12.2379   10.1897   -2.5594 H   0  0  0  0  0  0  0  0  0  0  0  0
    8.5074    5.3713   -8.1091 H   0  0  0  0  0  0  0  0  0  0  0  0
    8.9025    6.1530   -8.7578 C   0  0  0  0  0  0  0  0  0  0  0  0
    8.5444    6.1153   -9.9520 O   0  0  0  0  0  0  0  0  0  0  0  0
    9.7977    7.1718   -8.2300 C   0  0  0  0  0  0  0  0  0  0  0  0
   10.1518    7.1650   -6.9320 N   0  0  0  0  0  0  0  0  0  0  0  0
   10.9796    8.1000   -6.4249 C   0  0  0  0  0  0  0  0  0  0  0  0
   11.4481    9.0609   -7.2849 C   0  0  0  0  0  0  0  0  0  0  0  0
   11.1106    9.0981   -8.6033 N   0  0  0  0  0  0  0  0  0  0  0  0
   10.2723    8.1384   -9.0831 C   0  0  0  0  0  0  0  0  0  0  0  0
    9.9355    8.1986  -10.4605 N   0  0  0  0  0  0  0  0  0  0  0  0
   12.1233    9.8469   -6.9333 H   0  0  0  0  0  0  0  0  0  0  0  0
   10.4388    7.6495  -11.1812 H   0  0  0  0  0  0  0  0  0  0  0  0
    9.1338    8.8416  -10.7144 H   0  0  0  0  0  0  0  0  0  0  0  0
  1  6  2  0
  2  1  1  0
  3  4  1  0
  3  2  2  0
  4  5  2  0
  5  6  1  0
  1  7  1  0
  2  8  1  0
  5  9  1  0
 10 11  1  0
 11 12  2  0
 11 13  1  0
 13 14  2  0
 14 15  1  0
 15 16  2  0
 16 17  1  0
 17 18  2  0
 18 19  1  0
 18 13  1  0
 16 20  1  0
 19 21  1  0
 19 22  1  0
  3 15  1  0
M  END
>  <Score>  (1) 
-7.03591

$$$$

     RDKit          3D

 20 21  0  0  0  0  0  0  0  0999 V2000
   11.8124    6.9300   -2.9648 C   0  0  0  0  0  0  0  0  0  0  0  0
   11.4353    6.8868   -4.3291 C   0  0  0  0  0  0  0  0  0  0  0  0
   11.3595    8.0878   -5.0308 C   0  0  0  0  0  0  0  0  0  0  0  0
   11.6546    9.2393   -4.3580 N   0  0  0  0  0  0  0  0  0  0  0  0
   12.0113    9.2556   -3.0585 C   0  0  0  0  0  0  0  0  0  0  0  0
   12.0889    8.0964   -2.3649 N   0  0  0  0  0  0  0  0  0  0  0  0
   11.8667    5.9940   -2.4352 H   0  0  0  0  0  0  0  0  0  0  0  0
   11.2160    5.9420   -4.7976 H   0  0  0  0  0  0  0  0  0  0  0  0
   12.2382   10.1922   -2.5593 H   0  0  0  0  0  0  0  0  0  0  0  0
   10.9865    8.1518   -6.4182 C   0  0  0  0  0  0  0  0  0  0  0  0
   10.9127    9.3295   -7.1046 C   0  0  0  0  0  0  0  0  0  0  0  0
   10.5480    9.3467   -8.4450 C   0  0  0  0  0  0  0  0  0  0  0  0
   10.4428   10.8315   -9.3540 Cl  0  0  0  0  0  0  0  0  0  0  0  0
   10.2548    8.1714   -9.1028 C   0  0  0  0  0  0  0  0  0  0  0  0
   10.3268    6.9784   -8.4176 C   0  0  0  0  0  0  0  0  0  0  0  0
    9.9597    5.4582   -9.2242 Cl  0  0  0  0  0  0  0  0  0  0  0  0
   10.6865    6.9909   -7.1061 C   0  0  0  0  0  0  0  0  0  0  0  0
   11.1259   10.2873   -6.6627 H   0  0  0  0  0  0  0  0  0  0  0  0
    9.9685    8.1399  -10.1392 H   0  0  0  0  0  0  0  0  0  0  0  0
   10.7459    6.0611   -6.5601 H   0  0  0  0  0  0  0  0  0  0  0  0
  1  6  2  0
  2  1  1  0
  3  4  1  0
  3  2  2  0
  4  5  2  0
  5  6  1  0
  1  7  1  0
  2  8  1  0
  5  9  1  0
 10 11  2  0
 11 12  1  0
 12 13  1  0
 12 14  2  0
 14 15  1  0
 15 16  1  0
 15 17  2  0
 17 10  1  0
 11 18  1  0
 14 19  1  0
 17 20  1  0
  3 10  1  0
M  END
>  <Score>  (1) 
-7.03422

$$$$

     RDKit          3D

 28 29  0  0  0  0  0  0  0  0999 V2000
   11.8110    6.9278   -2.9691 C   0  0  0  0  0  0  0  0  0  0  0  0
   11.4358    6.8806   -4.3250 C   0  0  0  0  0  0  0  0  0  0  0  0
   11.3597    8.0903   -5.0310 C   0  0  0  0  0  0  0  0  0  0  0  0
   11.6547    9.2434   -4.3588 N   0  0  0  0  0  0  0  0  0  0  0  0
   12.0115    9.2514   -3.0562 C   0  0  0  0  0  0  0  0  0  0  0  0
   12.0892    8.1025   -2.3660 N   0  0  0  0  0  0  0  0  0  0  0  0
   11.8691    5.9996   -2.4284 H   0  0  0  0  0  0  0  0  0  0  0  0
   11.2193    5.9513   -4.7883 H   0  0  0  0  0  0  0  0  0  0  0  0
   12.2314   10.1986   -2.5865 H   0  0  0  0  0  0  0  0  0  0  0  0
   10.9876    8.1107   -6.4006 N   0  0  0  0  0  0  0  0  0  0  0  0
    9.7917    8.8753   -6.6735 C   0  0  0  0  0  0  0  0  0  0  0  0
   10.0685   10.1400   -7.4470 C   0  0  0  0  0  0  0  0  0  0  0  0
   10.1391    9.7298   -8.9230 C   0  0  0  0  0  0  0  0  0  0  0  0
   11.4995    9.0948   -9.1101 C   0  0  0  0  0  0  0  0  0  0  0  0
   11.5486    7.6551   -8.7502 C   0  0  0  0  0  0  0  0  0  0  0  0
   11.8221    7.3937   -7.2958 C   0  0  0  0  0  0  0  0  0  0  0  0
    9.0787    8.2791   -7.2775 H   0  0  0  0  0  0  0  0  0  0  0  0
    9.2552    9.1718   -5.7513 H   0  0  0  0  0  0  0  0  0  0  0  0
    9.2642   10.8501   -7.2568 H   0  0  0  0  0  0  0  0  0  0  0  0
   11.0191   10.6180   -7.1404 H   0  0  0  0  0  0  0  0  0  0  0  0
    9.3213    9.0037   -9.0672 H   0  0  0  0  0  0  0  0  0  0  0  0
   10.0347   10.6301   -9.5480 H   0  0  0  0  0  0  0  0  0  0  0  0
   11.7408    9.1944  -10.1962 H   0  0  0  0  0  0  0  0  0  0  0  0
   12.2782    9.7026   -8.5841 H   0  0  0  0  0  0  0  0  0  0  0  0
   12.2958    7.1589   -9.4021 H   0  0  0  0  0  0  0  0  0  0  0  0
   10.5626    7.1988   -9.0221 H   0  0  0  0  0  0  0  0  0  0  0  0
   11.7240    6.3101   -7.0817 H   0  0  0  0  0  0  0  0  0  0  0  0
   12.8965    7.7012   -7.1252 H   0  0  0  0  0  0  0  0  0  0  0  0
  1  6  2  0
  2  1  1  0
  3  4  1  0
  3  2  2  0
  4  5  2  0
  5  6  1  0
  1  7  1  0
  2  8  1  0
  5  9  1  0
 10 11  1  0
 11 12  1  0
 12 13  1  0
 13 14  1  0
 14 15  1  0
 15 16  1  0
 16 10  1  0
 11 17  1  0
 11 18  1  0
 12 19  1  0
 12 20  1  0
 13 21  1  0
 13 22  1  0
 14 23  1  0
 14 24  1  0
 15 25  1  0
 15 26  1  0
 16 27  1  0
 16 28  1  0
  3 10  1  0
M  END
>  <Score>  (1) 
-7.03398

$$$$

     RDKit          3D

 26 27  0  0  0  0  0  0  0  0999 V2000
   11.8095    6.9280   -2.9745 C   0  0  0  0  0  0  0  0  0  0  0  0
   11.4379    6.8901   -4.3206 C   0  0  0  0  0  0  0  0  0  0  0  0
   11.3587    8.0924   -5.0354 C   0  0  0  0  0  0  0  0  0  0  0  0
   11.6544    9.2291   -4.3548 N   0  0  0  0  0  0  0  0  0  0  0  0
   12.0112    9.2521   -3.0578 C   0  0  0  0  0  0  0  0  0  0  0  0
   12.0903    8.1044   -2.3628 N   0  0  0  0  0  0  0  0  0  0  0  0
   11.8577    5.9738   -2.4611 H   0  0  0  0  0  0  0  0  0  0  0  0
   11.2138    5.9702   -4.8156 H   0  0  0  0  0  0  0  0  0  0  0  0
   12.2236   10.2174   -2.6214 H   0  0  0  0  0  0  0  0  0  0  0  0
   10.9875    8.0698   -6.3853 N   0  0  0  0  0  0  0  0  0  0  0  0
   11.1238    9.0990   -7.3471 C   0  0  0  0  0  0  0  0  0  0  0  0
   11.6629   10.3385   -7.1089 C   0  0  0  0  0  0  0  0  0  0  0  0
   11.7602   11.3031   -8.1240 C   0  0  0  0  0  0  0  0  0  0  0  0
   11.3145   11.0300   -9.3937 C   0  0  0  0  0  0  0  0  0  0  0  0
   10.7716    9.7905   -9.6462 C   0  0  0  0  0  0  0  0  0  0  0  0
   10.6748    8.8406   -8.6507 C   0  0  0  0  0  0  0  0  0  0  0  0
   10.1236    7.5831   -8.9083 O   0  0  0  0  0  0  0  0  0  0  0  0
    9.6634    7.3018  -10.2208 C   0  0  0  0  0  0  0  0  0  0  0  0
   10.5456    7.1431   -6.7078 H   0  0  0  0  0  0  0  0  0  0  0  0
   12.0222   10.5805   -6.1164 H   0  0  0  0  0  0  0  0  0  0  0  0
   12.1920   12.2585   -7.8796 H   0  0  0  0  0  0  0  0  0  0  0  0
   11.3783   11.7508  -10.1853 H   0  0  0  0  0  0  0  0  0  0  0  0
   10.4163    9.5747  -10.6609 H   0  0  0  0  0  0  0  0  0  0  0  0
   10.4362    7.5613  -10.9861 H   0  0  0  0  0  0  0  0  0  0  0  0
    8.7580    7.9166  -10.4508 H   0  0  0  0  0  0  0  0  0  0  0  0
    9.4689    6.2186  -10.3545 H   0  0  0  0  0  0  0  0  0  0  0  0
  1  6  2  0
  2  1  1  0
  3  4  1  0
  3  2  2  0
  4  5  2  0
  5  6  1  0
  1  7  1  0
  2  8  1  0
  5  9  1  0
 10 11  1  0
 11 12  2  0
 12 13  1  0
 13 14  2  0
 14 15  1  0
 15 16  2  0
 16 17  1  0
 17 18  1  0
 16 11  1  0
 10 19  1  0
 12 20  1  0
 13 21  1  0
 14 22  1  0
 15 23  1  0
 18 24  1  0
 18 25  1  0
 18 26  1  0
  3 10  1  0
M  END
>  <Score>  (1) 
-7.0302

$$$$

     RDKit          3D

 27 28  0  0  0  0  0  0  0  0999 V2000
   11.8119    6.9302   -2.9666 C   0  0  0  0  0  0  0  0  0  0  0  0
   11.4351    6.8795   -4.3271 C   0  0  0  0  0  0  0  0  0  0  0  0
   11.3601    8.0901   -5.0294 C   0  0  0  0  0  0  0  0  0  0  0  0
   11.6546    9.2444   -4.3595 N   0  0  0  0  0  0  0  0  0  0  0  0
   12.0115    9.2533   -3.0570 C   0  0  0  0  0  0  0  0  0  0  0  0
   12.0887    8.0984   -2.3664 N   0  0  0  0  0  0  0  0  0  0  0  0
   11.8701    6.0083   -2.4280 H   0  0  0  0  0  0  0  0  0  0  0  0
   11.2140    5.9423   -4.8052 H   0  0  0  0  0  0  0  0  0  0  0  0
   12.2304   10.1972   -2.5894 H   0  0  0  0  0  0  0  0  0  0  0  0
   10.9719    8.1008   -6.4536 C   0  0  1  0  0  0  0  0  0  0  0  0
   11.9678    8.6376   -7.2142 O   0  0  0  0  0  0  0  0  0  0  0  0
   12.1067    7.9322   -8.3744 C   0  0  1  0  0  0  0  0  0  0  0  0
   13.5844    7.5775   -8.5605 C   0  0  0  0  0  0  0  0  0  0  0  0
   14.3605    8.7265   -8.6286 O   0  0  0  0  0  0  0  0  0  0  0  0
   11.2450    6.7209   -8.3308 C   0  0  1  0  0  0  0  0  0  0  0  0
   11.9116    5.5385   -8.5725 O   0  0  0  0  0  0  0  0  0  0  0  0
   10.7191    6.6900   -6.9142 C   0  0  1  0  0  0  0  0  0  0  0  0
   11.3566    5.7459   -6.1340 O   0  0  0  0  0  0  0  0  0  0  0  0
   10.0359    8.6843   -6.5383 H   0  0  0  0  0  0  0  0  0  0  0  0
   11.8254    8.5972   -9.2232 H   0  0  0  0  0  0  0  0  0  0  0  0
   13.7431    6.9874   -9.4724 H   0  0  0  0  0  0  0  0  0  0  0  0
   13.9424    6.9805   -7.6911 H   0  0  0  0  0  0  0  0  0  0  0  0
   14.4908    8.9507   -9.5849 H   0  0  0  0  0  0  0  0  0  0  0  0
   10.3690    6.8152   -9.0066 H   0  0  0  0  0  0  0  0  0  0  0  0
   11.8570    5.2273   -9.5002 H   0  0  0  0  0  0  0  0  0  0  0  0
    9.6332    6.4824   -6.8832 H   0  0  0  0  0  0  0  0  0  0  0  0
   10.7574    5.4078   -5.4396 H   0  0  0  0  0  0  0  0  0  0  0  0
  1  6  2  0
  2  1  1  0
  3  4  1  0
  3  2  2  0
  4  5  2  0
  5  6  1  0
  1  7  1  0
  2  8  1  0
  5  9  1  0
 10 11  1  0
 11 12  1  0
 12 13  1  0
 13 14  1  0
 12 15  1  0
 15 16  1  0
 15 17  1  0
 17 18  1  0
 17 10  1  0
 10 19  1  1
 12 20  1  6
 13 21  1  0
 13 22  1  0
 14 23  1  0
 15 24  1  6
 16 25  1  0
 17 26  1  6
 18 27  1  0
  3 10  1  0
M  END
>  <Score>  (1) 
-7.02985

$$$$

     RDKit          3D

 32 33  0  0  0  0  0  0  0  0999 V2000
   11.8112    6.9279   -2.9682 C   0  0  0  0  0  0  0  0  0  0  0  0
   11.4351    6.8821   -4.3281 C   0  0  0  0  0  0  0  0  0  0  0  0
   11.3607    8.0891   -5.0267 C   0  0  0  0  0  0  0  0  0  0  0  0
   11.6534    9.2431   -4.3634 N   0  0  0  0  0  0  0  0  0  0  0  0
   12.0123    9.2517   -3.0535 C   0  0  0  0  0  0  0  0  0  0  0  0
   12.0892    8.1021   -2.3661 N   0  0  0  0  0  0  0  0  0  0  0  0
   11.8800    6.0280   -2.3986 H   0  0  0  0  0  0  0  0  0  0  0  0
   11.2240    5.9386   -4.7674 H   0  0  0  0  0  0  0  0  0  0  0  0
   12.2324   10.1861   -2.5782 H   0  0  0  0  0  0  0  0  0  0  0  0
   10.9959    8.0357   -6.3426 O   0  0  0  0  0  0  0  0  0  0  0  0
   11.6088    8.7250   -7.3891 C   0  0  1  0  0  0  0  0  0  0  0  0
   12.0244    7.7970   -8.3390 O   0  0  0  0  0  0  0  0  0  0  0  0
   12.5923    8.3570   -9.4539 C   0  0  1  0  0  0  0  0  0  0  0  0
   11.9282    7.9090  -10.7421 C   0  0  0  0  0  0  0  0  0  0  0  0
   11.9943    6.5415  -10.9273 O   0  0  0  0  0  0  0  0  0  0  0  0
   12.5921    9.8659   -9.4485 C   0  0  1  0  0  0  0  0  0  0  0  0
   12.9987   10.2635  -10.7432 O   0  0  0  0  0  0  0  0  0  0  0  0
   11.2058   10.3731   -9.1603 C   0  0  2  0  0  0  0  0  0  0  0  0
   11.2811   11.7197   -8.7501 O   0  0  0  0  0  0  0  0  0  0  0  0
   10.5639    9.6060   -8.0409 C   0  0  1  0  0  0  0  0  0  0  0  0
    9.5284    8.8000   -8.4652 O   0  0  0  0  0  0  0  0  0  0  0  0
   12.4616    9.3495   -7.0279 H   0  0  0  0  0  0  0  0  0  0  0  0
   13.6507    8.0175   -9.5158 H   0  0  0  0  0  0  0  0  0  0  0  0
   10.8838    8.2907  -10.8041 H   0  0  0  0  0  0  0  0  0  0  0  0
   12.4800    8.4343  -11.5728 H   0  0  0  0  0  0  0  0  0  0  0  0
   11.1076    6.2468  -11.2533 H   0  0  0  0  0  0  0  0  0  0  0  0
   13.3357   10.2985   -8.7500 H   0  0  0  0  0  0  0  0  0  0  0  0
   13.1512   11.2437  -10.7421 H   0  0  0  0  0  0  0  0  0  0  0  0
   10.5765   10.3618  -10.0732 H   0  0  0  0  0  0  0  0  0  0  0  0
   12.2005   11.9043   -8.4232 H   0  0  0  0  0  0  0  0  0  0  0  0
   10.1664   10.2687   -7.2448 H   0  0  0  0  0  0  0  0  0  0  0  0
    9.6589    7.8449   -8.3108 H   0  0  0  0  0  0  0  0  0  0  0  0
  1  6  2  0
  2  1  1  0
  3  4  1  0
  3  2  2  0
  4  5  2  0
  5  6  1  0
  1  7  1  0
  2  8  1  0
  5  9  1  0
 10 11  1  0
 11 12  1  0
 12 13  1  0
 13 14  1  0
 14 15  1  0
 13 16  1  0
 16 17  1  0
 16 18  1  0
 18 19  1  0
 18 20  1  0
 20 21  1  0
 20 11  1  0
 11 22  1  1
 13 23  1  6
 14 24  1  0
 14 25  1  0
 15 26  1  0
 16 27  1  1
 17 28  1  0
 18 29  1  6
 19 30  1  0
 20 31  1  1
 21 32  1  0
  3 10  1  0
M  END
>  <Score>  (1) 
-7.02644

$$$$

     RDKit          3D

 27 28  0  0  0  0  0  0  0  0999 V2000
   11.8120    6.9299   -2.9663 C   0  0  0  0  0  0  0  0  0  0  0  0
   11.4351    6.8815   -4.3279 C   0  0  0  0  0  0  0  0  0  0  0  0
   11.3602    8.0900   -5.0290 C   0  0  0  0  0  0  0  0  0  0  0  0
   11.6541    9.2425   -4.3607 N   0  0  0  0  0  0  0  0  0  0  0  0
   12.0118    9.2532   -3.0559 C   0  0  0  0  0  0  0  0  0  0  0  0
   12.0888    8.0989   -2.3662 N   0  0  0  0  0  0  0  0  0  0  0  0
   11.8770    6.0201   -2.4067 H   0  0  0  0  0  0  0  0  0  0  0  0
   11.2127    5.9550   -4.8146 H   0  0  0  0  0  0  0  0  0  0  0  0
   12.2263   10.2234   -2.6138 H   0  0  0  0  0  0  0  0  0  0  0  0
   10.9743    8.1333   -6.4561 C   0  0  2  0  0  0  0  0  0  0  0  0
   11.9578    8.6823   -7.2668 O   0  0  0  0  0  0  0  0  0  0  0  0
   11.9031   10.0491   -7.1407 C   0  0  1  0  0  0  0  0  0  0  0  0
   12.2889   10.6395   -8.4994 C   0  0  0  0  0  0  0  0  0  0  0  0
   12.2323   12.0171   -8.3674 O   0  0  0  0  0  0  0  0  0  0  0  0
   10.4791   10.4226   -6.8185 C   0  0  2  0  0  0  0  0  0  0  0  0
   10.3961   11.1761   -5.6605 O   0  0  0  0  0  0  0  0  0  0  0  0
    9.8120    9.0770   -6.6967 C   0  0  2  0  0  0  0  0  0  0  0  0
    8.8909    9.0297   -5.6615 O   0  0  0  0  0  0  0  0  0  0  0  0
   10.7735    7.1168   -6.8179 H   0  0  0  0  0  0  0  0  0  0  0  0
   12.6311   10.4117   -6.3970 H   0  0  0  0  0  0  0  0  0  0  0  0
   13.3222   10.3517   -8.7491 H   0  0  0  0  0  0  0  0  0  0  0  0
   11.5535   10.2721   -9.2617 H   0  0  0  0  0  0  0  0  0  0  0  0
   11.9895   12.4167   -9.2399 H   0  0  0  0  0  0  0  0  0  0  0  0
   10.0611   11.0388   -7.6385 H   0  0  0  0  0  0  0  0  0  0  0  0
    9.4901   11.4948   -5.5195 H   0  0  0  0  0  0  0  0  0  0  0  0
    9.3759    8.8364   -7.6852 H   0  0  0  0  0  0  0  0  0  0  0  0
    7.9587    9.0951   -5.9429 H   0  0  0  0  0  0  0  0  0  0  0  0
  1  6  2  0
  2  1  1  0
  3  4  1  0
  3  2  2  0
  4  5  2  0
  5  6  1  0
  1  7  1  0
  2  8  1  0
  5  9  1  0
 10 11  1  0
 11 12  1  0
 12 13  1  0
 13 14  1  0
 12 15  1  0
 15 16  1  0
 15 17  1  0
 17 18  1  0
 17 10  1  0
 10 19  1  6
 12 20  1  1
 13 21  1  0
 13 22  1  0
 14 23  1  0
 15 24  1  6
 16 25  1  0
 17 26  1  6
 18 27  1  0
  3 10  1  0
M  END
>  <Score>  (1) 
-7.02401

$$$$

     RDKit          3D

 22 23  0  0  0  0  0  0  0  0999 V2000
   11.8100    6.9229   -2.9708 C   0  0  0  0  0  0  0  0  0  0  0  0
   11.4388    6.8915   -4.3178 C   0  0  0  0  0  0  0  0  0  0  0  0
   11.3591    8.0940   -5.0344 C   0  0  0  0  0  0  0  0  0  0  0  0
   11.6525    9.2343   -4.3636 N   0  0  0  0  0  0  0  0  0  0  0  0
   12.0120    9.2514   -3.0545 C   0  0  0  0  0  0  0  0  0  0  0  0
   12.0895    8.1018   -2.3648 N   0  0  0  0  0  0  0  0  0  0  0  0
   11.8782    6.0115   -2.3993 H   0  0  0  0  0  0  0  0  0  0  0  0
   11.2258    5.9427   -4.7624 H   0  0  0  0  0  0  0  0  0  0  0  0
   12.2447   10.1640   -2.5257 H   0  0  0  0  0  0  0  0  0  0  0  0
   10.9804    8.1182   -6.4286 C   0  0  0  0  0  0  0  0  0  0  0  0
   10.3908    7.0488   -7.0701 C   0  0  0  0  0  0  0  0  0  0  0  0
   10.0514    7.1068   -8.3704 N   0  0  0  0  0  0  0  0  0  0  0  0
   10.2644    8.1986   -9.1135 C   0  0  0  0  0  0  0  0  0  0  0  0
   10.8473    9.2931   -8.5308 C   0  0  0  0  0  0  0  0  0  0  0  0
   11.1987    9.2357   -7.1885 C   0  0  0  0  0  0  0  0  0  0  0  0
   11.8253   10.4310   -6.5875 C   0  0  0  0  0  0  0  0  0  0  0  0
   10.1827    6.1317   -6.5505 H   0  0  0  0  0  0  0  0  0  0  0  0
    9.9666    8.1890  -10.1707 H   0  0  0  0  0  0  0  0  0  0  0  0
   11.0183   10.1686   -9.1259 H   0  0  0  0  0  0  0  0  0  0  0  0
   11.9182   11.2492   -7.3727 H   0  0  0  0  0  0  0  0  0  0  0  0
   12.8758   10.2822   -6.2683 H   0  0  0  0  0  0  0  0  0  0  0  0
   11.2021   10.9206   -5.8019 H   0  0  0  0  0  0  0  0  0  0  0  0
  1  6  2  0
  2  1  1  0
  3  4  1  0
  3  2  2  0
  4  5  2  0
  5  6  1  0
  1  7  1  0
  2  8  1  0
  5  9  1  0
 10 11  2  0
 11 12  1  0
 12 13  2  0
 13 14  1  0
 14 15  2  0
 15 16  1  0
 15 10  1  0
 11 17  1  0
 13 18  1  0
 14 19  1  0
 16 20  1  0
 16 21  1  0
 16 22  1  0
  3 10  1  0
M  END
>  <Score>  (1) 
-7.02155

$$$$

     RDKit          3D

 25 26  0  0  0  0  0  0  0  0999 V2000
   11.8117    6.9298   -2.9672 C   0  0  0  0  0  0  0  0  0  0  0  0
   11.4353    6.8794   -4.3266 C   0  0  0  0  0  0  0  0  0  0  0  0
   11.3602    8.0905   -5.0293 C   0  0  0  0  0  0  0  0  0  0  0  0
   11.6544    9.2441   -4.3604 N   0  0  0  0  0  0  0  0  0  0  0  0
   12.0117    9.2528   -3.0561 C   0  0  0  0  0  0  0  0  0  0  0  0
   12.0888    8.0993   -2.3664 N   0  0  0  0  0  0  0  0  0  0  0  0
   11.8628    5.9855   -2.4467 H   0  0  0  0  0  0  0  0  0  0  0  0
   11.2122    5.9541   -4.8159 H   0  0  0  0  0  0  0  0  0  0  0  0
   12.2434   10.1769   -2.5348 H   0  0  0  0  0  0  0  0  0  0  0  0
   10.8223    5.1543   -9.4492 H   0  0  0  0  0  0  0  0  0  0  0  0
   10.6550    5.5440   -8.4442 C   0  0  0  0  0  0  0  0  0  0  0  0
   10.8097    4.7434   -7.5371 O   0  0  0  0  0  0  0  0  0  0  0  0
   10.2635    6.9602   -8.2009 C   0  0  1  0  0  0  0  0  0  0  0  0
   10.1329    7.1258   -6.8375 O   0  0  0  0  0  0  0  0  0  0  0  0
   10.9811    8.1174   -6.4258 C   0  0  2  0  0  0  0  0  0  0  0  0
   12.1602    8.0003   -7.3821 C   0  0  2  0  0  0  0  0  0  0  0  0
   12.9589    9.1380   -7.3488 O   0  0  0  0  0  0  0  0  0  0  0  0
   11.3570    7.9039   -8.6656 C   0  0  1  0  0  0  0  0  0  0  0  0
   12.0839    7.4160   -9.7211 O   0  0  0  0  0  0  0  0  0  0  0  0
    9.3364    7.2226   -8.7529 H   0  0  0  0  0  0  0  0  0  0  0  0
   10.4978    9.0960   -6.6683 H   0  0  0  0  0  0  0  0  0  0  0  0
   12.7152    7.0676   -7.2666 H   0  0  0  0  0  0  0  0  0  0  0  0
   13.6732    8.9961   -8.0180 H   0  0  0  0  0  0  0  0  0  0  0  0
   10.8917    8.8780   -8.8411 H   0  0  0  0  0  0  0  0  0  0  0  0
   12.9627    7.8490   -9.7631 H   0  0  0  0  0  0  0  0  0  0  0  0
  1  6  2  0
  2  1  1  0
  3  4  1  0
  3  2  2  0
  4  5  2  0
  5  6  1  0
  1  7  1  0
  2  8  1  0
  5  9  1  0
 10 11  1  0
 11 12  2  0
 11 13  1  0
 13 14  1  0
 14 15  1  0
 15 16  1  0
 16 17  1  0
 16 18  1  0
 18 19  1  0
 18 13  1  0
 13 20  1  6
 15 21  1  6
 16 22  1  1
 17 23  1  0
 18 24  1  6
 19 25  1  0
  3 15  1  0
M  END
>  <Score>  (1) 
-7.02088

$$$$

     RDKit          3D

 20 21  0  0  0  0  0  0  0  0999 V2000
   11.8106    6.9290   -2.9707 C   0  0  0  0  0  0  0  0  0  0  0  0
   11.4367    6.8793   -4.3215 C   0  0  0  0  0  0  0  0  0  0  0  0
   11.3588    8.0898   -5.0342 C   0  0  0  0  0  0  0  0  0  0  0  0
   11.6558    9.2447   -4.3553 N   0  0  0  0  0  0  0  0  0  0  0  0
   12.0111    9.2535   -3.0585 C   0  0  0  0  0  0  0  0  0  0  0  0
   12.0890    8.0996   -2.3658 N   0  0  0  0  0  0  0  0  0  0  0  0
   11.8888    6.0343   -2.3686 H   0  0  0  0  0  0  0  0  0  0  0  0
   11.2186    5.9486   -4.7906 H   0  0  0  0  0  0  0  0  0  0  0  0
   12.2450   10.1612   -2.5234 H   0  0  0  0  0  0  0  0  0  0  0  0
   10.9792    8.1112   -6.4303 C   0  0  0  0  0  0  0  0  0  0  0  0
   10.3958    7.0062   -7.0020 C   0  0  0  0  0  0  0  0  0  0  0  0
   10.0249    7.0199   -8.3564 C   0  0  0  0  0  0  0  0  0  0  0  0
   10.2513    8.1493   -9.1028 C   0  0  0  0  0  0  0  0  0  0  0  0
    9.8857    8.2140  -10.5083 C   0  0  0  0  0  0  0  0  0  0  0  0
    9.6003    8.2465  -11.6308 N   0  0  0  0  0  0  0  0  0  0  0  0
   10.8379    9.2350   -8.4929 C   0  0  0  0  0  0  0  0  0  0  0  0
   11.1907    9.2019   -7.1772 N   0  0  0  0  0  0  0  0  0  0  0  0
   10.1913    6.0885   -6.4695 H   0  0  0  0  0  0  0  0  0  0  0  0
    9.5661    6.1596   -8.8181 H   0  0  0  0  0  0  0  0  0  0  0  0
   11.0141   10.1239   -9.0875 H   0  0  0  0  0  0  0  0  0  0  0  0
  1  6  2  0
  2  1  1  0
  3  4  1  0
  3  2  2  0
  4  5  2  0
  5  6  1  0
  1  7  1  0
  2  8  1  0
  5  9  1  0
 10 11  2  0
 11 12  1  0
 12 13  2  0
 13 14  1  0
 14 15  3  0
 13 16  1  0
 16 17  2  0
 17 10  1  0
 11 18  1  0
 12 19  1  0
 16 20  1  0
  3 10  1  0
M  END
>  <Score>  (1) 
-7.02055

$$$$

     RDKit          3D

 31 32  0  0  0  0  0  0  0  0999 V2000
   12.3026    8.1171   -2.3008 C   0  0  0  0  0  0  0  0  0  0  0  0
   12.0217    6.8869   -2.9125 C   0  0  0  0  0  0  0  0  0  0  0  0
   11.5245    6.8966   -4.2244 C   0  0  0  0  0  0  0  0  0  0  0  0
   11.3431    8.1084   -4.8296 N   0  0  0  0  0  0  0  0  0  0  0  0
   11.6242    9.2800   -4.2109 C   0  0  0  0  0  0  0  0  0  0  0  0
   12.0988    9.2821   -2.9598 N   0  0  0  0  0  0  0  0  0  0  0  0
   12.6881    8.1007   -1.2827 H   0  0  0  0  0  0  0  0  0  0  0  0
   12.1806    5.9507   -2.3958 H   0  0  0  0  0  0  0  0  0  0  0  0
   11.3101    5.9694   -4.6928 H   0  0  0  0  0  0  0  0  0  0  0  0
   11.4057   10.4952   -4.9173 N   0  0  0  0  0  0  0  0  0  0  0  0
   10.3665   10.6142   -5.9279 C   0  0  0  0  0  0  0  0  0  0  0  0
   10.3554   12.0138   -6.4997 C   0  0  0  0  0  0  0  0  0  0  0  0
   11.5468   12.3007   -7.3494 C   0  0  0  0  0  0  0  0  0  0  0  0
   11.6183   11.5673   -8.6308 C   0  0  0  0  0  0  0  0  0  0  0  0
   10.3411   10.9850   -9.1318 C   0  0  0  0  0  0  0  0  0  0  0  0
    9.7152    9.9964   -8.2026 C   0  0  0  0  0  0  0  0  0  0  0  0
   10.5654    9.5960   -7.0318 C   0  0  0  0  0  0  0  0  0  0  0  0
   12.0018   11.3358   -4.7148 H   0  0  0  0  0  0  0  0  0  0  0  0
    9.3915   10.4146   -5.4433 H   0  0  0  0  0  0  0  0  0  0  0  0
   10.4306   12.7008   -5.6048 H   0  0  0  0  0  0  0  0  0  0  0  0
    9.4044   12.2784   -6.9818 H   0  0  0  0  0  0  0  0  0  0  0  0
   12.4679   12.1127   -6.7438 H   0  0  0  0  0  0  0  0  0  0  0  0
   11.5582   13.4092   -7.5387 H   0  0  0  0  0  0  0  0  0  0  0  0
   12.3789   10.7367   -8.5808 H   0  0  0  0  0  0  0  0  0  0  0  0
   12.0088   12.2566   -9.4280 H   0  0  0  0  0  0  0  0  0  0  0  0
   10.6056   10.4100  -10.0693 H   0  0  0  0  0  0  0  0  0  0  0  0
    9.6261   11.7583   -9.4857 H   0  0  0  0  0  0  0  0  0  0  0  0
    8.8010   10.4997   -7.7678 H   0  0  0  0  0  0  0  0  0  0  0  0
    9.3103    9.1028   -8.7294 H   0  0  0  0  0  0  0  0  0  0  0  0
   10.1121    8.6407   -6.6496 H   0  0  0  0  0  0  0  0  0  0  0  0
   11.6174    9.4140   -7.2495 H   0  0  0  0  0  0  0  0  0  0  0  0
  2  1  2  0
  3  2  1  0
  4  3  2  0
  4  5  1  0
  5  6  2  0
  6  1  1  0
  1  7  1  0
  2  8  1  0
  3  9  1  0
 10 11  1  0
 11 12  1  0
 12 13  1  0
 13 14  1  0
 14 15  1  0
 15 16  1  0
 16 17  1  0
 17 11  1  0
 10 18  1  0
 11 19  1  0
 12 20  1  0
 12 21  1  0
 13 22  1  0
 13 23  1  0
 14 24  1  0
 14 25  1  0
 15 26  1  0
 15 27  1  0
 16 28  1  0
 16 29  1  0
 17 30  1  0
 17 31  1  0
  5 10  1  0
M  END
>  <Score>  (1) 
-7.59208

$$$$

     RDKit          3D

 19 20  0  0  0  0  0  0  0  0999 V2000
   11.8102    6.9289   -2.9724 C   0  0  0  0  0  0  0  0  0  0  0  0
   11.4360    6.8853   -4.3262 C   0  0  0  0  0  0  0  0  0  0  0  0
   11.3609    8.0885   -5.0259 C   0  0  0  0  0  0  0  0  0  0  0  0
   11.6532    9.2388   -4.3628 N   0  0  0  0  0  0  0  0  0  0  0  0
   12.0122    9.2542   -3.0549 C   0  0  0  0  0  0  0  0  0  0  0  0
   12.0896    8.1004   -2.3639 N   0  0  0  0  0  0  0  0  0  0  0  0
   11.8594    5.9805   -2.4572 H   0  0  0  0  0  0  0  0  0  0  0  0
   11.2261    5.9424   -4.7607 H   0  0  0  0  0  0  0  0  0  0  0  0
   12.2440   10.1670   -2.5290 H   0  0  0  0  0  0  0  0  0  0  0  0
   10.9809    8.1086   -6.4234 C   0  0  0  0  0  0  0  0  0  0  0  0
   10.1560    7.2191   -7.0255 C   0  0  0  0  0  0  0  0  0  0  0  0
    9.8098    7.2644   -8.3687 C   0  0  0  0  0  0  0  0  0  0  0  0
   10.3509    8.2783   -9.0947 N   0  0  0  0  0  0  0  0  0  0  0  0
   11.1715    9.1826   -8.5468 C   0  0  0  0  0  0  0  0  0  0  0  0
   11.5084    9.1310   -7.2198 C   0  0  0  0  0  0  0  0  0  0  0  0
   12.3376   10.0424   -6.6598 F   0  0  0  0  0  0  0  0  0  0  0  0
    9.7288    6.4115   -6.4334 H   0  0  0  0  0  0  0  0  0  0  0  0
    9.1480    6.5349   -8.8104 H   0  0  0  0  0  0  0  0  0  0  0  0
   11.5709    9.9622   -9.1646 H   0  0  0  0  0  0  0  0  0  0  0  0
  1  6  2  0
  2  1  1  0
  3  4  1  0
  3  2  2  0
  4  5  2  0
  5  6  1  0
  1  7  1  0
  2  8  1  0
  5  9  1  0
 10 11  2  0
 11 12  1  0
 12 13  2  0
 13 14  1  0
 14 15  2  0
 15 16  1  0
 15 10  1  0
 11 17  1  0
 12 18  1  0
 14 19  1  0
  3 10  1  0
M  END
>  <Score>  (1) 
-7.01759

$$$$

     RDKit          3D

 22 23  0  0  0  0  0  0  0  0999 V2000
   11.8105    6.9270   -2.9706 C   0  0  0  0  0  0  0  0  0  0  0  0
   11.4367    6.8799   -4.3216 C   0  0  0  0  0  0  0  0  0  0  0  0
   11.3605    8.0983   -5.0308 C   0  0  0  0  0  0  0  0  0  0  0  0
   11.6530    9.2361   -4.3625 N   0  0  0  0  0  0  0  0  0  0  0  0
   12.0118    9.2527   -3.0556 C   0  0  0  0  0  0  0  0  0  0  0  0
   12.0895    8.1019   -2.3648 N   0  0  0  0  0  0  0  0  0  0  0  0
   11.8637    5.9806   -2.4415 H   0  0  0  0  0  0  0  0  0  0  0  0
   11.2121    5.9562   -4.8170 H   0  0  0  0  0  0  0  0  0  0  0  0
   12.2406   10.1948   -2.5514 H   0  0  0  0  0  0  0  0  0  0  0  0
   10.9736    8.0375   -6.4248 C   0  0  0  0  0  0  0  0  0  0  0  0
   10.9869    6.8762   -7.0993 N   0  0  0  0  0  0  0  0  0  0  0  0
   10.6494    6.7346   -8.3702 C   0  0  0  0  0  0  0  0  0  0  0  0
   10.2520    7.8475   -9.0722 C   0  0  0  0  0  0  0  0  0  0  0  0
   10.2065    9.0852   -8.4636 C   0  0  0  0  0  0  0  0  0  0  0  0
   10.5796    9.1496   -7.1158 C   0  0  0  0  0  0  0  0  0  0  0  0
   10.5414   10.4553   -6.4392 C   0  0  0  0  0  0  0  0  0  0  0  0
   10.6887    5.7448   -8.8467 H   0  0  0  0  0  0  0  0  0  0  0  0
    9.9828    7.6944  -10.1111 H   0  0  0  0  0  0  0  0  0  0  0  0
    9.8972    9.9583   -9.0059 H   0  0  0  0  0  0  0  0  0  0  0  0
    9.8229   10.4372   -5.5847 H   0  0  0  0  0  0  0  0  0  0  0  0
   11.5292   10.7838   -6.0476 H   0  0  0  0  0  0  0  0  0  0  0  0
   10.1969   11.2555   -7.1400 H   0  0  0  0  0  0  0  0  0  0  0  0
  1  6  2  0
  2  1  1  0
  3  4  1  0
  3  2  2  0
  4  5  2  0
  5  6  1  0
  1  7  1  0
  2  8  1  0
  5  9  1  0
 10 11  2  0
 11 12  1  0
 12 13  2  0
 13 14  1  0
 14 15  2  0
 15 16  1  0
 15 10  1  0
 12 17  1  0
 13 18  1  0
 14 19  1  0
 16 20  1  0
 16 21  1  0
 16 22  1  0
  3 10  1  0
M  END
>  <Score>  (1) 
-7.01225

$$$$

     RDKit          3D

 21 22  0  0  0  0  0  0  0  0999 V2000
   11.8122    6.9301   -2.9656 C   0  0  0  0  0  0  0  0  0  0  0  0
   11.4349    6.8815   -4.3286 C   0  0  0  0  0  0  0  0  0  0  0  0
   11.3603    8.0901   -5.0286 C   0  0  0  0  0  0  0  0  0  0  0  0
   11.6540    9.2423   -4.3612 N   0  0  0  0  0  0  0  0  0  0  0  0
   12.0119    9.2532   -3.0556 C   0  0  0  0  0  0  0  0  0  0  0  0
   12.0888    8.0988   -2.3664 N   0  0  0  0  0  0  0  0  0  0  0  0
   11.8517    5.9741   -2.4832 H   0  0  0  0  0  0  0  0  0  0  0  0
   11.2129    5.9597   -4.8153 H   0  0  0  0  0  0  0  0  0  0  0  0
   12.2437   10.1731   -2.5322 H   0  0  0  0  0  0  0  0  0  0  0  0
    9.8187    9.1188  -11.0339 H   0  0  0  0  0  0  0  0  0  0  0  0
    9.8692    8.1731  -10.5142 C   0  0  0  0  0  0  0  0  0  0  0  0
    9.5933    7.1336  -11.1562 O   0  0  0  0  0  0  0  0  0  0  0  0
   10.2522    8.1548   -9.1065 C   0  0  0  0  0  0  0  0  0  0  0  0
   10.3239    6.9612   -8.4215 C   0  0  0  0  0  0  0  0  0  0  0  0
   10.6885    6.9276   -7.0758 C   0  0  0  0  0  0  0  0  0  0  0  0
   10.9775    8.0896   -6.4291 C   0  0  0  0  0  0  0  0  0  0  0  0
   10.9056    9.2438   -7.1006 N   0  0  0  0  0  0  0  0  0  0  0  0
   10.5540    9.3040   -8.4086 C   0  0  0  0  0  0  0  0  0  0  0  0
   10.0876    6.0505   -8.9645 H   0  0  0  0  0  0  0  0  0  0  0  0
   10.7355    5.9729   -6.5659 H   0  0  0  0  0  0  0  0  0  0  0  0
   10.5014   10.2472   -8.9349 H   0  0  0  0  0  0  0  0  0  0  0  0
  1  6  2  0
  2  1  1  0
  3  4  1  0
  3  2  2  0
  4  5  2  0
  5  6  1  0
  1  7  1  0
  2  8  1  0
  5  9  1  0
 10 11  1  0
 11 12  2  0
 11 13  1  0
 13 14  2  0
 14 15  1  0
 15 16  2  0
 16 17  1  0
 17 18  2  0
 18 13  1  0
 14 19  1  0
 15 20  1  0
 18 21  1  0
  3 16  1  0
M  END
>  <Score>  (1) 
-7.00275

$$$$

     RDKit          3D

 25 26  0  0  0  0  0  0  0  0999 V2000
   11.8121    6.9308   -2.9661 C   0  0  0  0  0  0  0  0  0  0  0  0
   11.4350    6.8794   -4.3275 C   0  0  0  0  0  0  0  0  0  0  0  0
   11.3603    8.0909   -5.0289 C   0  0  0  0  0  0  0  0  0  0  0  0
   11.6542    9.2435   -4.3606 N   0  0  0  0  0  0  0  0  0  0  0  0
   12.0117    9.2535   -3.0565 C   0  0  0  0  0  0  0  0  0  0  0  0
   12.0887    8.0978   -2.3664 N   0  0  0  0  0  0  0  0  0  0  0  0
   11.8718    5.9979   -2.4181 H   0  0  0  0  0  0  0  0  0  0  0  0
   11.2123    5.9525   -4.8150 H   0  0  0  0  0  0  0  0  0  0  0  0
   12.2430   10.1788   -2.5371 H   0  0  0  0  0  0  0  0  0  0  0  0
   12.6918    6.6810  -10.2197 H   0  0  0  0  0  0  0  0  0  0  0  0
   12.8289    7.0974   -9.2362 C   0  0  0  0  0  0  0  0  0  0  0  0
   13.9493    7.2282   -8.8019 O   0  0  0  0  0  0  0  0  0  0  0  0
   11.6763    7.4987   -8.4375 C   0  0  2  0  0  0  0  0  0  0  0  0
   12.1158    8.0020   -7.2165 O   0  0  0  0  0  0  0  0  0  0  0  0
   10.9708    8.1160   -6.4631 C   0  0  1  0  0  0  0  0  0  0  0  0
   10.0700    6.9566   -6.8161 C   0  0  2  0  0  0  0  0  0  0  0  0
    9.9214    6.0734   -5.7724 O   0  0  0  0  0  0  0  0  0  0  0  0
   10.8248    6.3288   -7.9883 C   0  0  1  0  0  0  0  0  0  0  0  0
    9.9197    5.9199   -8.9413 O   0  0  0  0  0  0  0  0  0  0  0  0
   10.9970    8.2116   -8.9461 H   0  0  0  0  0  0  0  0  0  0  0  0
   10.4617    9.0835   -6.6641 H   0  0  0  0  0  0  0  0  0  0  0  0
    9.0880    7.3035   -7.1658 H   0  0  0  0  0  0  0  0  0  0  0  0
   10.6831    5.4811   -5.6184 H   0  0  0  0  0  0  0  0  0  0  0  0
   11.4270    5.4837   -7.6156 H   0  0  0  0  0  0  0  0  0  0  0  0
    9.0189    5.8191   -8.5227 H   0  0  0  0  0  0  0  0  0  0  0  0
  1  6  2  0
  2  1  1  0
  3  4  1  0
  3  2  2  0
  4  5  2  0
  5  6  1  0
  1  7  1  0
  2  8  1  0
  5  9  1  0
 10 11  1  0
 11 12  2  0
 11 13  1  0
 13 14  1  0
 14 15  1  0
 15 16  1  0
 16 17  1  0
 16 18  1  0
 18 19  1  0
 18 13  1  0
 13 20  1  6
 15 21  1  6
 16 22  1  6
 17 23  1  0
 18 24  1  1
 19 25  1  0
  3 15  1  0
M  END
>  <Score>  (1) 
-7.0022

$$$$

     RDKit          3D

 21 22  0  0  0  0  0  0  0  0999 V2000
   11.8128    6.9312   -2.9636 C   0  0  0  0  0  0  0  0  0  0  0  0
   11.4343    6.8820   -4.3313 C   0  0  0  0  0  0  0  0  0  0  0  0
   11.3604    8.0876   -5.0275 C   0  0  0  0  0  0  0  0  0  0  0  0
   11.6546    9.2445   -4.3598 N   0  0  0  0  0  0  0  0  0  0  0  0
   12.0114    9.2537   -3.0573 C   0  0  0  0  0  0  0  0  0  0  0  0
   12.0886    8.0970   -2.3665 N   0  0  0  0  0  0  0  0  0  0  0  0
   11.8672    5.9822   -2.4292 H   0  0  0  0  0  0  0  0  0  0  0  0
   11.2133    5.9505   -4.8105 H   0  0  0  0  0  0  0  0  0  0  0  0
   12.2448   10.1660   -2.5260 H   0  0  0  0  0  0  0  0  0  0  0  0
   10.9791    8.1001   -6.4270 C   0  0  0  0  0  0  0  0  0  0  0  0
   11.2762    7.0261   -7.2244 C   0  0  0  0  0  0  0  0  0  0  0  0
   10.8962    7.0787   -8.5477 C   0  0  0  0  0  0  0  0  0  0  0  0
   11.1783    5.9704   -9.4618 C   0  0  0  0  0  0  0  0  0  0  0  0
   10.2514    8.1705   -9.0155 N   0  0  0  0  0  0  0  0  0  0  0  0
    9.9682    9.2143   -8.2196 C   0  0  0  0  0  0  0  0  0  0  0  0
    9.4420   10.1009   -8.6086 H   0  0  0  0  0  0  0  0  0  0  0  0
   10.3487    9.1395   -6.9335 N   0  0  0  0  0  0  0  0  0  0  0  0
   11.7941    6.1555   -6.8375 H   0  0  0  0  0  0  0  0  0  0  0  0
   10.4583    5.1500   -9.2725 H   0  0  0  0  0  0  0  0  0  0  0  0
   11.2206    6.2659  -10.5251 H   0  0  0  0  0  0  0  0  0  0  0  0
   12.1883    5.5487   -9.2031 H   0  0  0  0  0  0  0  0  0  0  0  0
  1  6  2  0
  2  1  1  0
  3  4  1  0
  3  2  2  0
  4  5  2  0
  5  6  1  0
  1  7  1  0
  2  8  1  0
  5  9  1  0
 10 11  2  0
 11 12  1  0
 12 13  1  0
 12 14  2  0
 14 15  1  0
 15 16  1  0
 15 17  2  0
 17 10  1  0
 11 18  1  0
 13 19  1  0
 13 20  1  0
 13 21  1  0
  3 10  1  0
M  END
>  <Score>  (1) 
-7.00092

$$$$

     RDKit          3D

 21 23  0  0  0  0  0  0  0  0999 V2000
   11.3327    8.0711   -5.0667 C   0  0  0  0  0  0  0  0  0  0  0  0
   11.4859    6.8628   -4.3606 C   0  0  0  0  0  0  0  0  0  0  0  0
   11.8705    6.9371   -3.0098 C   0  0  0  0  0  0  0  0  0  0  0  0
   12.0715    8.1691   -2.4655 N   0  0  0  0  0  0  0  0  0  0  0  0
   11.9141    9.3117   -3.1778 C   0  0  0  0  0  0  0  0  0  0  0  0
   11.5473    9.2592   -4.4686 N   0  0  0  0  0  0  0  0  0  0  0  0
   11.0370    8.0060   -6.1044 H   0  0  0  0  0  0  0  0  0  0  0  0
   11.3150    5.9119   -4.8365 H   0  0  0  0  0  0  0  0  0  0  0  0
   12.0008    6.0358   -2.4261 H   0  0  0  0  0  0  0  0  0  0  0  0
   12.1252   10.5979   -2.6052 N   0  0  0  0  0  0  0  0  0  0  0  0
   11.6088   11.7679   -2.9389 N   0  0  0  0  0  0  0  0  0  0  0  0
   12.0529   12.7602   -2.1578 C   0  0  0  0  0  0  0  0  0  0  0  0
   12.9192   12.1904   -1.2538 C   0  0  0  0  0  0  0  0  0  0  0  0
   13.6736   12.6957   -0.2191 C   0  0  0  0  0  0  0  0  0  0  0  0
   13.6901   13.7379    0.0585 H   0  0  0  0  0  0  0  0  0  0  0  0
   14.4402   11.8579    0.4985 N   0  0  0  0  0  0  0  0  0  0  0  0
   14.4555   10.5482    0.1931 C   0  0  0  0  0  0  0  0  0  0  0  0
   13.7229   10.0522   -0.8130 N   0  0  0  0  0  0  0  0  0  0  0  0
   12.9472   10.8433   -1.5531 C   0  0  0  0  0  0  0  0  0  0  0  0
   11.8144   13.8184   -2.1839 H   0  0  0  0  0  0  0  0  0  0  0  0
   15.0856    9.8727    0.7861 H   0  0  0  0  0  0  0  0  0  0  0  0
  1  6  2  0
  1  2  1  0
  2  3  2  0
  3  4  1  0
  5  4  2  0
  6  5  1  0
  1  7  1  0
  2  8  1  0
  3  9  1  0
 10 11  1  0
 11 12  2  0
 12 13  1  0
 13 14  2  0
 14 15  1  0
 14 16  1  0
 16 17  2  0
 17 18  1  0
 18 19  2  0
 19 10  1  0
 19 13  1  0
 12 20  1  0
 17 21  1  0
  5 10  1  0
M  END
>  <Score>  (1) 
-7.47108

$$$$

     RDKit          3D

 22 23  0  0  0  0  0  0  0  0999 V2000
   11.3327    8.0763   -5.0671 C   0  0  0  0  0  0  0  0  0  0  0  0
   11.4850    6.8602   -4.3634 C   0  0  0  0  0  0  0  0  0  0  0  0
   11.8707    6.9395   -3.0098 C   0  0  0  0  0  0  0  0  0  0  0  0
   12.0697    8.1684   -2.4714 N   0  0  0  0  0  0  0  0  0  0  0  0
   11.9132    9.3230   -3.1824 C   0  0  0  0  0  0  0  0  0  0  0  0
   11.5507    9.2435   -4.4550 N   0  0  0  0  0  0  0  0  0  0  0  0
   11.0357    7.9750   -6.1027 H   0  0  0  0  0  0  0  0  0  0  0  0
   11.3270    5.9050   -4.7901 H   0  0  0  0  0  0  0  0  0  0  0  0
   12.0040    6.0474   -2.4138 H   0  0  0  0  0  0  0  0  0  0  0  0
   12.1117   10.5682   -2.4746 C   0  0  0  0  0  0  0  0  0  0  0  0
   12.5761   10.5014   -1.1489 C   0  0  0  0  0  0  0  0  0  0  0  0
   12.7625   11.6240   -0.3836 C   0  0  0  0  0  0  0  0  0  0  0  0
   12.4789   12.8328   -0.9555 C   0  0  0  0  0  0  0  0  0  0  0  0
   12.0254   12.9781   -2.2375 C   0  0  0  0  0  0  0  0  0  0  0  0
   11.8403   11.8104   -3.0132 C   0  0  0  0  0  0  0  0  0  0  0  0
   11.3802   12.0423   -4.3188 N   0  0  0  0  0  4  0  0  0  0  0  0
   10.6176   13.0314   -4.5046 O   0  0  0  0  0  0  0  0  0  0  0  0
   11.6742   11.2904   -5.3827 O   0  0  0  0  0  1  0  0  0  0  0  0
   12.8009    9.5473   -0.6906 H   0  0  0  0  0  0  0  0  0  0  0  0
   13.1280   11.5387    0.6515 H   0  0  0  0  0  0  0  0  0  0  0  0
   12.6149   13.7315   -0.3740 H   0  0  0  0  0  0  0  0  0  0  0  0
   11.8027   13.9337   -2.6846 H   0  0  0  0  0  0  0  0  0  0  0  0
  1  6  2  0
  1  2  1  0
  2  3  2  0
  3  4  1  0
  5  4  2  0
  6  5  1  0
  1  7  1  0
  2  8  1  0
  3  9  1  0
 10 11  2  0
 11 12  1  0
 12 13  2  0
 13 14  1  0
 14 15  2  0
 15 16  1  0
 16 17  2  0
 16 18  1  0
 15 10  1  0
 11 19  1  0
 12 20  1  0
 13 21  1  0
 14 22  1  0
  5 10  1  0
M  CHG  2  16   1  18  -1
M  END
>  <Score>  (1) 
-7.35761

$$$$

     RDKit          3D

 24 25  0  0  0  0  0  0  0  0999 V2000
   11.3332    8.0716   -5.0653 C   0  0  0  0  0  0  0  0  0  0  0  0
   11.4859    6.8618   -4.3606 C   0  0  0  0  0  0  0  0  0  0  0  0
   11.8703    6.9393   -3.0105 C   0  0  0  0  0  0  0  0  0  0  0  0
   12.0710    8.1689   -2.4672 N   0  0  0  0  0  0  0  0  0  0  0  0
   11.9138    9.3113   -3.1787 C   0  0  0  0  0  0  0  0  0  0  0  0
   11.5478    9.2580   -4.4666 N   0  0  0  0  0  0  0  0  0  0  0  0
   11.0381    7.9841   -6.0975 H   0  0  0  0  0  0  0  0  0  0  0  0
   11.3127    5.9235   -4.8462 H   0  0  0  0  0  0  0  0  0  0  0  0
   11.9918    6.0196   -2.4556 H   0  0  0  0  0  0  0  0  0  0  0  0
   12.1405   10.6102   -2.5528 C   0  0  0  0  0  0  0  0  0  0  0  0
   11.8929   10.7409   -1.1812 C   0  0  0  0  0  0  0  0  0  0  0  0
   12.1168   11.9786   -0.6227 C   0  0  0  0  0  0  0  0  0  0  0  0
   11.8951   12.1689    0.7028 F   0  0  0  0  0  0  0  0  0  0  0  0
   12.5638   13.0699   -1.3383 C   0  0  0  0  0  0  0  0  0  0  0  0
   12.8000   12.9012   -2.7055 C   0  0  0  0  0  0  0  0  0  0  0  0
   12.5867   11.6719   -3.3039 C   0  0  0  0  0  0  0  0  0  0  0  0
   12.8035   11.4474   -4.6510 O   0  0  0  0  0  0  0  0  0  0  0  0
   13.2524   12.3945   -5.5672 C   0  0  0  0  0  0  0  0  0  0  0  0
   11.5389    9.8931   -0.5924 H   0  0  0  0  0  0  0  0  0  0  0  0
   12.7352   14.0313   -0.8921 H   0  0  0  0  0  0  0  0  0  0  0  0
   13.1527   13.7313   -3.3111 H   0  0  0  0  0  0  0  0  0  0  0  0
   13.0318   13.4325   -5.3255 H   0  0  0  0  0  0  0  0  0  0  0  0
   12.8316   12.1683   -6.5664 H   0  0  0  0  0  0  0  0  0  0  0  0
   14.3670   12.2911   -5.6708 H   0  0  0  0  0  0  0  0  0  0  0  0
  1  6  2  0
  1  2  1  0
  2  3  2  0
  3  4  1  0
  5  4  2  0
  6  5  1  0
  1  7  1  0
  2  8  1  0
  3  9  1  0
 10 11  2  0
 11 12  1  0
 12 13  1  0
 12 14  2  0
 14 15  1  0
 15 16  2  0
 16 17  1  0
 17 18  1  0
 16 10  1  0
 11 19  1  0
 14 20  1  0
 15 21  1  0
 18 22  1  0
 18 23  1  0
 18 24  1  0
  5 10  1  0
M  END
>  <Score>  (1) 
-7.27957

$$$$

     RDKit          3D

 21 22  0  0  0  0  0  0  0  0999 V2000
   11.3332    8.0729   -5.0658 C   0  0  0  0  0  0  0  0  0  0  0  0
   11.4862    6.8638   -4.3596 C   0  0  0  0  0  0  0  0  0  0  0  0
   11.8692    6.9345   -3.0135 C   0  0  0  0  0  0  0  0  0  0  0  0
   12.0727    8.1729   -2.4623 N   0  0  0  0  0  0  0  0  0  0  0  0
   11.9137    9.3108   -3.1789 C   0  0  0  0  0  0  0  0  0  0  0  0
   11.5470    9.2561   -4.4690 N   0  0  0  0  0  0  0  0  0  0  0  0
   11.0379    8.0376   -6.0997 H   0  0  0  0  0  0  0  0  0  0  0  0
   11.3082    5.9400   -4.8562 H   0  0  0  0  0  0  0  0  0  0  0  0
   11.9923    6.0269   -2.4576 H   0  0  0  0  0  0  0  0  0  0  0  0
   12.1185   10.6020   -2.6210 N   0  0  0  0  0  0  0  0  0  0  0  0
   12.6224   10.7601   -1.2615 C   0  0  0  0  0  0  0  0  0  0  0  0
   12.6513   12.2461   -1.0159 C   0  0  0  0  0  0  0  0  0  0  0  0
   12.6429   12.8713   -2.3933 C   0  0  0  0  0  0  0  0  0  0  0  0
   12.1509   13.8508   -2.3854 H   0  0  0  0  0  0  0  0  0  0  0  0
   11.9037   11.8628   -3.2021 C   0  0  0  0  0  0  0  0  0  0  0  0
   11.2189   12.1121   -4.2146 O   0  0  0  0  0  0  0  0  0  0  0  0
   11.9890   10.1977   -0.5696 H   0  0  0  0  0  0  0  0  0  0  0  0
   13.6564   10.3445   -1.2248 H   0  0  0  0  0  0  0  0  0  0  0  0
   11.7856   12.5844   -0.3958 H   0  0  0  0  0  0  0  0  0  0  0  0
   13.6241   12.5433   -0.5371 H   0  0  0  0  0  0  0  0  0  0  0  0
   13.6910   12.9441   -2.7752 H   0  0  0  0  0  0  0  0  0  0  0  0
  1  6  2  0
  1  2  1  0
  2  3  2  0
  3  4  1  0
  5  4  2  0
  6  5  1  0
  1  7  1  0
  2  8  1  0
  3  9  1  0
 10 11  1  0
 11 12  1  0
 12 13  1  0
 13 14  1  0
 13 15  1  0
 15 16  2  0
 15 10  1  0
 11 17  1  0
 11 18  1  0
 12 19  1  0
 12 20  1  0
 13 21  1  0
  5 10  1  0
M  END
>  <Score>  (1) 
-7.19034

$$$$

     RDKit          3D

 19 20  0  0  0  0  0  0  0  0999 V2000
   11.3327    8.0749   -5.0673 C   0  0  0  0  0  0  0  0  0  0  0  0
   11.4871    6.8613   -4.3561 C   0  0  0  0  0  0  0  0  0  0  0  0
   11.8691    6.9340   -3.0141 C   0  0  0  0  0  0  0  0  0  0  0  0
   12.0715    8.1760   -2.4664 N   0  0  0  0  0  0  0  0  0  0  0  0
   11.9152    9.3075   -3.1731 C   0  0  0  0  0  0  0  0  0  0  0  0
   11.5463    9.2574   -4.4720 N   0  0  0  0  0  0  0  0  0  0  0  0
   11.0395    7.9535   -6.0885 H   0  0  0  0  0  0  0  0  0  0  0  0
   11.3193    5.9137   -4.8214 H   0  0  0  0  0  0  0  0  0  0  0  0
   11.9940    6.0355   -2.4500 H   0  0  0  0  0  0  0  0  0  0  0  0
   12.1417   10.6221   -2.5502 C   0  0  0  0  0  0  0  0  0  0  0  0
   12.8001   10.7222   -1.3555 C   0  0  0  0  0  0  0  0  0  0  0  0
   13.0105   11.9739   -0.7719 C   0  0  0  0  0  0  0  0  0  0  0  0
   13.5266   12.0806    0.1694 H   0  0  0  0  0  0  0  0  0  0  0  0
   12.5493   13.1160   -1.4082 C   0  0  0  0  0  0  0  0  0  0  0  0
   12.7761   14.7174   -0.7373 Cl  0  0  0  0  0  0  0  0  0  0  0  0
   11.8891   12.9769   -2.6127 C   0  0  0  0  0  0  0  0  0  0  0  0
   11.7104   11.7388   -3.1373 N   0  0  0  0  0  0  0  0  0  0  0  0
   13.1668    9.8581   -0.8422 H   0  0  0  0  0  0  0  0  0  0  0  0
   11.5193   13.8588   -3.1286 H   0  0  0  0  0  0  0  0  0  0  0  0
  1  6  2  0
  1  2  1  0
  2  3  2  0
  3  4  1  0
  5  4  2  0
  6  5  1  0
  1  7  1  0
  2  8  1  0
  3  9  1  0
 10 11  2  0
 11 12  1  0
 12 13  1  0
 12 14  2  0
 14 15  1  0
 14 16  1  0
 16 17  2  0
 17 10  1  0
 11 18  1  0
 16 19  1  0
  5 10  1  0
M  END
>  <Score>  (1) 
-7.02135

$$$$

     RDKit          3D

 25 26  0  0  0  0  0  0  0  0999 V2000
   12.3029    8.1226   -2.3005 C   0  0  0  0  0  0  0  0  0  0  0  0
   12.0209    6.8827   -2.9142 C   0  0  0  0  0  0  0  0  0  0  0  0
   11.5249    6.8961   -4.2234 C   0  0  0  0  0  0  0  0  0  0  0  0
   11.3427    8.1120   -4.8310 N   0  0  0  0  0  0  0  0  0  0  0  0
   11.6240    9.2754   -4.2111 C   0  0  0  0  0  0  0  0  0  0  0  0
   12.0996    9.2822   -2.9579 N   0  0  0  0  0  0  0  0  0  0  0  0
   12.6800    8.0614   -1.3000 H   0  0  0  0  0  0  0  0  0  0  0  0
   12.1894    5.9612   -2.3736 H   0  0  0  0  0  0  0  0  0  0  0  0
   11.2998    5.9697   -4.7200 H   0  0  0  0  0  0  0  0  0  0  0  0
   11.3985   10.4885   -4.9324 N   0  0  0  0  0  0  0  0  0  0  0  0
   10.8918   10.4814   -6.2672 C   0  0  0  0  0  0  0  0  0  0  0  0
   10.6721   11.6005   -6.9634 N   0  0  0  0  0  0  0  0  0  0  0  0
   10.1939   11.6032   -8.2243 C   0  0  0  0  0  0  0  0  0  0  0  0
    9.9168   10.3955   -8.8288 C   0  0  0  0  0  0  0  0  0  0  0  0
    9.5322   10.3479   -9.8379 H   0  0  0  0  0  0  0  0  0  0  0  0
   10.1364    9.2309   -8.1283 C   0  0  0  0  0  0  0  0  0  0  0  0
    9.8546    7.9810   -8.7406 N   0  0  0  0  0  0  0  0  0  0  0  0
    9.3399    7.9333  -10.0919 C   0  0  0  0  0  0  0  0  0  0  0  0
   10.6179    9.3146   -6.8675 N   0  0  0  0  0  0  0  0  0  0  0  0
   11.5957   11.4205   -4.5097 H   0  0  0  0  0  0  0  0  0  0  0  0
   10.0124   12.5012   -8.7966 H   0  0  0  0  0  0  0  0  0  0  0  0
   10.0107    7.0814   -8.2357 H   0  0  0  0  0  0  0  0  0  0  0  0
    8.4675    8.6405  -10.1716 H   0  0  0  0  0  0  0  0  0  0  0  0
    9.0819    6.9229  -10.4178 H   0  0  0  0  0  0  0  0  0  0  0  0
   10.1125    8.3291  -10.7992 H   0  0  0  0  0  0  0  0  0  0  0  0
  2  1  2  0
  3  2  1  0
  4  3  2  0
  4  5  1  0
  5  6  2  0
  6  1  1  0
  1  7  1  0
  2  8  1  0
  3  9  1  0
 10 11  1  0
 11 12  2  0
 12 13  1  0
 13 14  2  0
 14 15  1  0
 14 16  1  0
 16 17  1  0
 17 18  1  0
 16 19  2  0
 19 11  1  0
 10 20  1  0
 13 21  1  0
 17 22  1  0
 18 23  1  0
 18 24  1  0
 18 25  1  0
  5 10  1  0
M  END
>  <Score>  (1) 
-7.5918

$$$$

     RDKit          3D

 19 20  0  0  0  0  0  0  0  0999 V2000
   11.3326    8.0716   -5.0672 C   0  0  0  0  0  0  0  0  0  0  0  0
   11.4866    6.8626   -4.3583 C   0  0  0  0  0  0  0  0  0  0  0  0
   11.8694    6.9340   -3.0130 C   0  0  0  0  0  0  0  0  0  0  0  0
   12.0715    8.1749   -2.4665 N   0  0  0  0  0  0  0  0  0  0  0  0
   11.9147    9.3095   -3.1753 C   0  0  0  0  0  0  0  0  0  0  0  0
   11.5473    9.2585   -4.4687 N   0  0  0  0  0  0  0  0  0  0  0  0
   11.0373    8.0290   -6.1066 H   0  0  0  0  0  0  0  0  0  0  0  0
   11.3162    5.9073   -4.8316 H   0  0  0  0  0  0  0  0  0  0  0  0
   11.9943    6.0306   -2.4484 H   0  0  0  0  0  0  0  0  0  0  0  0
   12.1471   10.6075   -2.5290 C   0  0  0  0  0  0  0  0  0  0  0  0
   13.1189   11.4527   -3.0229 C   0  0  0  0  0  0  0  0  0  0  0  0
   13.3251   12.6414   -2.4236 N   0  0  0  0  0  0  0  0  0  0  0  0
   12.6207   13.0500   -1.3535 C   0  0  0  0  0  0  0  0  0  0  0  0
   11.6584   12.2197   -0.8599 C   0  0  0  0  0  0  0  0  0  0  0  0
   10.9286   12.5784    0.2037 F   0  0  0  0  0  0  0  0  0  0  0  0
   11.4100   10.9881   -1.4420 C   0  0  0  0  0  0  0  0  0  0  0  0
   13.7371   11.2160   -3.8769 H   0  0  0  0  0  0  0  0  0  0  0  0
   12.8549   14.0245   -0.9349 H   0  0  0  0  0  0  0  0  0  0  0  0
   10.6456   10.3052   -1.0663 H   0  0  0  0  0  0  0  0  0  0  0  0
  1  6  2  0
  1  2  1  0
  2  3  2  0
  3  4  1  0
  5  4  2  0
  6  5  1  0
  1  7  1  0
  2  8  1  0
  3  9  1  0
 10 11  2  0
 11 12  1  0
 12 13  2  0
 13 14  1  0
 14 15  1  0
 14 16  2  0
 16 10  1  0
 11 17  1  0
 13 18  1  0
 16 19  1  0
  5 10  1  0
M  END
>  <Score>  (1) 
-7.00088

$$$$

     RDKit          3D

 25 27  0  0  0  0  0  0  0  0999 V2000
   11.3334    8.0782   -5.0650 C   0  0  0  0  0  0  0  0  0  0  0  0
   11.4890    6.8617   -4.3504 C   0  0  0  0  0  0  0  0  0  0  0  0
   11.8675    6.9286   -3.0181 C   0  0  0  0  0  0  0  0  0  0  0  0
   12.0712    8.1770   -2.4678 N   0  0  0  0  0  0  0  0  0  0  0  0
   11.9153    9.3091   -3.1738 C   0  0  0  0  0  0  0  0  0  0  0  0
   11.5456    9.2564   -4.4738 N   0  0  0  0  0  0  0  0  0  0  0  0
   11.0370    8.0481   -6.1091 H   0  0  0  0  0  0  0  0  0  0  0  0
   11.9918    6.0694   -2.3940 H   0  0  0  0  0  0  0  0  0  0  0  0
   12.0699   10.2892   -2.7605 H   0  0  0  0  0  0  0  0  0  0  0  0
   11.2236    5.6618   -5.0092 N   0  0  0  0  0  0  0  0  0  0  0  0
   11.2074    5.4829   -6.4083 C   0  0  0  0  0  0  0  0  0  0  0  0
   11.4384    4.2126   -6.9627 C   0  0  0  0  0  0  0  0  0  0  0  0
   11.4159    3.9309   -8.2839 C   0  0  0  0  0  0  0  0  0  0  0  0
   11.1479    4.9509   -9.1789 C   0  0  0  0  0  0  0  0  0  0  0  0
   11.0565    4.9949  -10.5231 N   0  0  0  0  0  0  0  0  0  0  0  0
   10.7772    6.2376  -10.8450 N   0  0  0  0  0  0  0  0  0  0  0  0
   10.6791    7.0239   -9.7624 C   0  0  0  0  0  0  0  0  0  0  0  0
   10.9144    6.2149   -8.6797 C   0  0  0  0  0  0  0  0  0  0  0  0
   10.9411    6.4879   -7.3122 C   0  0  0  0  0  0  0  0  0  0  0  0
   11.0136    4.7976   -4.4240 H   0  0  0  0  0  0  0  0  0  0  0  0
   11.6486    3.4159   -6.2472 H   0  0  0  0  0  0  0  0  0  0  0  0
   11.6006    2.9365   -8.6532 H   0  0  0  0  0  0  0  0  0  0  0  0
   11.1810    4.2000  -11.2007 H   0  0  0  0  0  0  0  0  0  0  0  0
   10.4644    8.0729   -9.6911 H   0  0  0  0  0  0  0  0  0  0  0  0
   10.7276    7.5071   -6.9858 H   0  0  0  0  0  0  0  0  0  0  0  0
  1  6  2  0
  1  2  1  0
  2  3  2  0
  3  4  1  0
  5  4  2  0
  6  5  1  0
  1  7  1  0
  3  8  1  0
  5  9  1  0
 10 11  1  0
 11 12  2  0
 12 13  1  0
 13 14  2  0
 14 15  1  0
 15 16  1  0
 16 17  2  0
 17 18  1  0
 18 19  2  0
 19 11  1  0
 18 14  1  0
 10 20  1  0
 12 21  1  0
 13 22  1  0
 15 23  1  0
 17 24  1  0
 19 25  1  0
  2 10  1  0
M  END
>  <Score>  (1) 
-8.41199

$$$$

     RDKit          3D

 24 26  0  0  0  0  0  0  0  0999 V2000
   11.3337    8.0748   -5.0639 C   0  0  0  0  0  0  0  0  0  0  0  0
   11.4857    6.8591   -4.3608 C   0  0  0  0  0  0  0  0  0  0  0  0
   11.8701    6.9410   -3.0114 C   0  0  0  0  0  0  0  0  0  0  0  0
   12.0714    8.1680   -2.4656 N   0  0  0  0  0  0  0  0  0  0  0  0
   11.9149    9.3120   -3.1750 C   0  0  0  0  0  0  0  0  0  0  0  0
   11.5461    9.2562   -4.4724 N   0  0  0  0  0  0  0  0  0  0  0  0
   11.0337    8.0239   -6.1171 H   0  0  0  0  0  0  0  0  0  0  0  0
   11.9821    6.0285   -2.4812 H   0  0  0  0  0  0  0  0  0  0  0  0
   12.0972   10.2564   -2.6583 H   0  0  0  0  0  0  0  0  0  0  0  0
   11.2379    5.6227   -5.0461 C   0  0  0  0  0  0  0  0  0  0  0  0
   11.3243    4.5499   -4.3542 O   0  0  0  0  0  0  0  0  0  0  0  0
   10.8976    5.5129   -6.4659 C   0  0  0  0  0  0  0  0  0  0  0  0
   10.3374    6.4402   -7.2970 C   0  0  0  0  0  0  0  0  0  0  0  0
   10.1943    5.9071   -8.5297 N   0  0  0  0  0  0  0  0  0  0  0  0
    9.7957    6.3723   -9.3780 H   0  0  0  0  0  0  0  0  0  0  0  0
   10.6603    4.6386   -8.4975 C   0  0  0  0  0  0  0  0  0  0  0  0
   10.7471    3.6726   -9.4581 N   0  0  0  0  0  0  0  0  0  0  0  0
   11.2675    2.4743   -9.1332 C   0  0  0  0  0  0  0  0  0  0  0  0
   11.7103    2.1768   -7.8994 N   0  0  0  0  0  0  0  0  0  0  0  0
   11.6334    3.1119   -6.9431 C   0  0  0  0  0  0  0  0  0  0  0  0
   11.1070    4.3574   -7.2279 C   0  0  0  0  0  0  0  0  0  0  0  0
   10.0446    7.4502   -7.0232 H   0  0  0  0  0  0  0  0  0  0  0  0
   11.3614    1.6616   -9.8682 H   0  0  0  0  0  0  0  0  0  0  0  0
   11.9687    2.9516   -5.9234 H   0  0  0  0  0  0  0  0  0  0  0  0
  1  6  2  0
  1  2  1  0
  2  3  2  0
  3  4  1  0
  5  4  2  0
  6  5  1  0
  1  7  1  0
  3  8  1  0
  5  9  1  0
 10 11  2  0
 10 12  1  0
 12 13  2  0
 13 14  1  0
 14 15  1  0
 14 16  1  0
 16 17  2  0
 17 18  1  0
 18 19  2  0
 19 20  1  0
 20 21  2  0
 21 12  1  0
 21 16  1  0
 13 22  1  0
 18 23  1  0
 20 24  1  0
  2 10  1  0
M  END
>  <Score>  (1) 
-8.26552

$$$$

     RDKit          3D

 28 29  0  0  0  0  0  0  0  0999 V2000
   11.3336    8.0692   -5.0630 C   0  0  0  0  0  0  0  0  0  0  0  0
   11.4875    6.8593   -4.3554 C   0  0  0  0  0  0  0  0  0  0  0  0
   11.8669    6.9331   -3.0206 C   0  0  0  0  0  0  0  0  0  0  0  0
   12.0715    8.1783   -2.4672 N   0  0  0  0  0  0  0  0  0  0  0  0
   11.9151    9.3095   -3.1744 C   0  0  0  0  0  0  0  0  0  0  0  0
   11.5473    9.2616   -4.4683 N   0  0  0  0  0  0  0  0  0  0  0  0
   11.0389    8.0081   -6.0980 H   0  0  0  0  0  0  0  0  0  0  0  0
   11.9839    6.0489   -2.4186 H   0  0  0  0  0  0  0  0  0  0  0  0
   12.1018   10.2403   -2.6413 H   0  0  0  0  0  0  0  0  0  0  0  0
   11.2198    5.6627   -5.0282 N   0  0  0  0  0  0  0  0  0  0  0  0
   10.8858    5.5454   -6.4016 C   0  0  0  0  0  0  0  0  0  0  0  0
   10.3354    6.5584   -7.1389 C   0  0  0  0  0  0  0  0  0  0  0  0
   10.0729    6.3342   -8.4932 C   0  0  0  0  0  0  0  0  0  0  0  0
   10.3578    5.1222   -9.0825 C   0  0  0  0  0  0  0  0  0  0  0  0
   10.0651    4.9257  -10.5169 C   0  0  0  0  0  0  0  0  0  0  0  0
   10.9085    4.0971   -8.3584 C   0  0  0  0  0  0  0  0  0  0  0  0
   11.2356    2.7818   -8.9255 C   0  0  0  0  0  0  0  0  0  0  0  0
   11.1619    4.3323   -7.0263 C   0  0  0  0  0  0  0  0  0  0  0  0
   11.2816    4.7697   -4.4285 H   0  0  0  0  0  0  0  0  0  0  0  0
   10.0826    7.5075   -6.7150 H   0  0  0  0  0  0  0  0  0  0  0  0
    9.6376    7.1179   -9.1034 H   0  0  0  0  0  0  0  0  0  0  0  0
    9.4024    5.7385  -10.8845 H   0  0  0  0  0  0  0  0  0  0  0  0
    9.5319    3.9723  -10.7199 H   0  0  0  0  0  0  0  0  0  0  0  0
   10.9907    4.9751  -11.1466 H   0  0  0  0  0  0  0  0  0  0  0  0
   10.6582    1.9517   -8.4407 H   0  0  0  0  0  0  0  0  0  0  0  0
   11.1620    2.7474  -10.0203 H   0  0  0  0  0  0  0  0  0  0  0  0
   12.3112    2.5566   -8.6764 H   0  0  0  0  0  0  0  0  0  0  0  0
   11.5984    3.5306   -6.4366 H   0  0  0  0  0  0  0  0  0  0  0  0
  1  6  2  0
  1  2  1  0
  2  3  2  0
  3  4  1  0
  5  4  2  0
  6  5  1  0
  1  7  1  0
  3  8  1  0
  5  9  1  0
 10 11  1  0
 11 12  2  0
 12 13  1  0
 13 14  2  0
 14 15  1  0
 14 16  1  0
 16 17  1  0
 16 18  2  0
 18 11  1  0
 10 19  1  0
 12 20  1  0
 13 21  1  0
 15 22  1  0
 15 23  1  0
 15 24  1  0
 17 25  1  0
 17 26  1  0
 17 27  1  0
 18 28  1  0
  2 10  1  0
M  END
>  <Score>  (1) 
-7.68437

$$$$

     RDKit          3D

 25 26  0  0  0  0  0  0  0  0999 V2000
   11.3328    8.0725   -5.0666 C   0  0  0  0  0  0  0  0  0  0  0  0
   11.4863    6.8622   -4.3592 C   0  0  0  0  0  0  0  0  0  0  0  0
   11.8700    6.9362   -3.0113 C   0  0  0  0  0  0  0  0  0  0  0  0
   12.0716    8.1703   -2.4653 N   0  0  0  0  0  0  0  0  0  0  0  0
   11.9144    9.3115   -3.1767 C   0  0  0  0  0  0  0  0  0  0  0  0
   11.5469    9.2582   -4.4699 N   0  0  0  0  0  0  0  0  0  0  0  0
   11.0366    8.0270   -6.1087 H   0  0  0  0  0  0  0  0  0  0  0  0
   12.0071    6.0606   -2.4073 H   0  0  0  0  0  0  0  0  0  0  0  0
   12.1002   10.2298   -2.6439 H   0  0  0  0  0  0  0  0  0  0  0  0
    7.4905    5.9140   -9.5198 H   0  0  0  0  0  0  0  0  0  0  0  0
    7.7615    5.8608   -8.4790 C   0  0  0  0  0  0  0  0  0  0  0  0
    6.9053    5.8679   -7.5583 O   0  0  0  0  0  0  0  0  0  0  0  0
    9.1662    5.7770   -8.0998 C   0  0  0  0  0  0  0  0  0  0  0  0
    9.5329    5.7074   -6.7516 C   0  0  0  0  0  0  0  0  0  0  0  0
   10.8616    5.6284   -6.4025 C   0  0  0  0  0  0  0  0  0  0  0  0
   11.2616    5.5541   -4.9764 C   0  0  0  0  0  0  0  0  0  0  0  0
   11.8030    5.6204   -7.4077 C   0  0  0  0  0  0  0  0  0  0  0  0
   11.4562    5.6886   -8.7456 C   0  0  0  0  0  0  0  0  0  0  0  0
   10.1328    5.7670   -9.0890 C   0  0  0  0  0  0  0  0  0  0  0  0
    9.8005    5.8337  -10.4042 F   0  0  0  0  0  0  0  0  0  0  0  0
    8.7342    5.7184   -6.0081 H   0  0  0  0  0  0  0  0  0  0  0  0
   12.2278    4.9775   -4.8774 H   0  0  0  0  0  0  0  0  0  0  0  0
   10.4526    5.0453   -4.3925 H   0  0  0  0  0  0  0  0  0  0  0  0
   12.8376    5.5586   -7.1286 H   0  0  0  0  0  0  0  0  0  0  0  0
   12.2139    5.6812   -9.5305 H   0  0  0  0  0  0  0  0  0  0  0  0
  1  6  2  0
  1  2  1  0
  2  3  2  0
  3  4  1  0
  5  4  2  0
  6  5  1  0
  1  7  1  0
  3  8  1  0
  5  9  1  0
 10 11  1  0
 11 12  2  0
 11 13  1  0
 13 14  2  0
 14 15  1  0
 15 16  1  0
 15 17  2  0
 17 18  1  0
 18 19  2  0
 19 20  1  0
 19 13  1  0
 14 21  1  0
 16 22  1  0
 16 23  1  0
 17 24  1  0
 18 25  1  0
  2 16  1  0
M  END
>  <Score>  (1) 
-7.60816

$$$$

     RDKit          3D

 28 30  0  0  0  0  0  0  0  0999 V2000
   11.3341    8.0784   -5.0632 C   0  0  0  0  0  0  0  0  0  0  0  0
   11.4869    6.8533   -4.3546 C   0  0  0  0  0  0  0  0  0  0  0  0
   11.8681    6.9408   -3.0197 C   0  0  0  0  0  0  0  0  0  0  0  0
   12.0718    8.1707   -2.4644 N   0  0  0  0  0  0  0  0  0  0  0  0
   11.9148    9.3121   -3.1746 C   0  0  0  0  0  0  0  0  0  0  0  0
   11.5463    9.2556   -4.4724 N   0  0  0  0  0  0  0  0  0  0  0  0
   11.0380    8.0120   -6.1030 H   0  0  0  0  0  0  0  0  0  0  0  0
   12.0258    6.0708   -2.4158 H   0  0  0  0  0  0  0  0  0  0  0  0
   12.0814   10.2750   -2.7148 H   0  0  0  0  0  0  0  0  0  0  0  0
   11.2763    5.6569   -5.0555 N   0  0  0  0  0  0  0  0  0  0  0  0
   11.1410    5.6302   -6.4651 C   0  0  0  0  0  0  0  0  0  0  0  0
   11.6633    6.5596   -7.3332 C   0  0  0  0  0  0  0  0  0  0  0  0
   11.4682    6.4856   -8.6983 C   0  0  0  0  0  0  0  0  0  0  0  0
   10.7327    5.4638   -9.2614 C   0  0  0  0  0  0  0  0  0  0  0  0
   10.2000    4.5195   -8.4095 C   0  0  0  0  0  0  0  0  0  0  0  0
   10.3975    4.6002   -7.0583 C   0  0  0  0  0  0  0  0  0  0  0  0
    9.4487    3.4738   -8.9767 O   0  0  0  0  0  0  0  0  0  0  0  0
    9.6696    3.2247  -10.3521 C   0  0  0  0  0  0  0  0  0  0  0  0
    9.4741    4.5603  -11.0835 C   0  0  0  0  0  0  0  0  0  0  0  0
   10.5350    5.3894  -10.6492 O   0  0  0  0  0  0  0  0  0  0  0  0
   11.2208    4.7607   -4.4852 H   0  0  0  0  0  0  0  0  0  0  0  0
   12.2717    7.3713   -6.9138 H   0  0  0  0  0  0  0  0  0  0  0  0
   11.8990    7.2449   -9.3610 H   0  0  0  0  0  0  0  0  0  0  0  0
    9.9746    3.8537   -6.4013 H   0  0  0  0  0  0  0  0  0  0  0  0
   10.7432    2.9505  -10.4616 H   0  0  0  0  0  0  0  0  0  0  0  0
    9.0072    2.4503  -10.7544 H   0  0  0  0  0  0  0  0  0  0  0  0
    9.5960    4.3755  -12.1779 H   0  0  0  0  0  0  0  0  0  0  0  0
    8.4764    4.9712  -10.8391 H   0  0  0  0  0  0  0  0  0  0  0  0
  1  6  2  0
  1  2  1  0
  2  3  2  0
  3  4  1  0
  5  4  2  0
  6  5  1  0
  1  7  1  0
  3  8  1  0
  5  9  1  0
 10 11  1  0
 11 12  2  0
 12 13  1  0
 13 14  2  0
 14 15  1  0
 15 16  2  0
 15 17  1  0
 17 18  1  0
 18 19  1  0
 19 20  1  0
 16 11  1  0
 20 14  1  0
 10 21  1  0
 12 22  1  0
 13 23  1  0
 16 24  1  0
 18 25  1  0
 18 26  1  0
 19 27  1  0
 19 28  1  0
  2 10  1  0
M  END
>  <Score>  (1) 
-7.48898

$$$$

     RDKit          3D

 28 29  0  0  0  0  0  0  0  0999 V2000
   11.3330    8.0764   -5.0665 C   0  0  0  0  0  0  0  0  0  0  0  0
   11.4869    6.8606   -4.3567 C   0  0  0  0  0  0  0  0  0  0  0  0
   11.8694    6.9346   -3.0133 C   0  0  0  0  0  0  0  0  0  0  0  0
   12.0715    8.1739   -2.4662 N   0  0  0  0  0  0  0  0  0  0  0  0
   11.9155    9.3095   -3.1725 C   0  0  0  0  0  0  0  0  0  0  0  0
   11.5457    9.2559   -4.4739 N   0  0  0  0  0  0  0  0  0  0  0  0
   11.0391    7.9957   -6.0957 H   0  0  0  0  0  0  0  0  0  0  0  0
   11.9990    6.0453   -2.4338 H   0  0  0  0  0  0  0  0  0  0  0  0
   12.0837   10.2690   -2.7075 H   0  0  0  0  0  0  0  0  0  0  0  0
   11.2587    5.6230   -4.9963 N   0  0  0  0  0  0  0  0  0  0  0  0
   11.1755    5.5654   -6.7011 S   0  0  0  0  0  6  0  0  0  0  0  0
   10.8717    4.1483   -7.1691 O   0  0  0  0  0  0  0  0  0  0  0  0
   10.0810    6.4278   -7.2637 O   0  0  0  0  0  0  0  0  0  0  0  0
   12.6758    6.0797   -7.4395 C   0  0  0  0  0  0  0  0  0  0  0  0
   13.6958    5.2253   -7.7381 C   0  0  0  0  0  0  0  0  0  0  0  0
   14.8608    5.6774   -8.3203 C   0  0  0  0  0  0  0  0  0  0  0  0
   15.0060    7.0170   -8.6096 C   0  0  0  0  0  0  0  0  0  0  0  0
   16.2318    7.5708   -9.2353 C   0  0  0  0  0  0  0  0  0  0  0  0
   13.9778    7.8868   -8.3100 C   0  0  0  0  0  0  0  0  0  0  0  0
   12.8206    7.4132   -7.7275 C   0  0  0  0  0  0  0  0  0  0  0  0
   11.1452    4.7597   -4.3910 H   0  0  0  0  0  0  0  0  0  0  0  0
   13.5630    4.1688   -7.5020 H   0  0  0  0  0  0  0  0  0  0  0  0
   15.6833    5.0141   -8.5654 H   0  0  0  0  0  0  0  0  0  0  0  0
   17.1201    7.0134   -8.8742 H   0  0  0  0  0  0  0  0  0  0  0  0
   16.0997    7.4606  -10.3409 H   0  0  0  0  0  0  0  0  0  0  0  0
   16.3711    8.6312   -9.0215 H   0  0  0  0  0  0  0  0  0  0  0  0
   14.0775    8.9611   -8.5347 H   0  0  0  0  0  0  0  0  0  0  0  0
   12.0237    8.1399   -7.5042 H   0  0  0  0  0  0  0  0  0  0  0  0
  1  6  2  0
  1  2  1  0
  2  3  2  0
  3  4  1  0
  5  4  2  0
  6  5  1  0
  1  7  1  0
  3  8  1  0
  5  9  1  0
 10 11  1  0
 11 12  2  0
 11 13  2  0
 11 14  1  0
 14 15  2  0
 15 16  1  0
 16 17  2  0
 17 18  1  0
 17 19  1  0
 19 20  2  0
 20 14  1  0
 10 21  1  0
 15 22  1  0
 16 23  1  0
 18 24  1  0
 18 25  1  0
 18 26  1  0
 19 27  1  0
 20 28  1  0
  2 10  1  0
M  END
>  <Score>  (1) 
-7.34343

$$$$

     RDKit          3D

 27 29  0  0  0  0  0  0  0  0999 V2000
   11.3349    8.0759   -5.0598 C   0  0  0  0  0  0  0  0  0  0  0  0
   11.4862    6.8555   -4.3582 C   0  0  0  0  0  0  0  0  0  0  0  0
   11.8683    6.9411   -3.0184 C   0  0  0  0  0  0  0  0  0  0  0  0
   12.0714    8.1713   -2.4662 N   0  0  0  0  0  0  0  0  0  0  0  0
   11.9153    9.3122   -3.1732 C   0  0  0  0  0  0  0  0  0  0  0  0
   11.5459    9.2550   -4.4732 N   0  0  0  0  0  0  0  0  0  0  0  0
   11.0417    8.0781   -6.0982 H   0  0  0  0  0  0  0  0  0  0  0  0
   11.9970    6.0485   -2.4681 H   0  0  0  0  0  0  0  0  0  0  0  0
   12.0749   10.2796   -2.7395 H   0  0  0  0  0  0  0  0  0  0  0  0
   11.2452    5.6485   -5.0910 C   0  0  1  0  0  0  0  0  0  0  0  0
    9.8492    5.2037   -5.2689 C   0  0  0  0  0  0  0  0  0  0  0  0
    9.7424    4.6657   -6.6971 C   0  0  1  0  0  0  0  0  0  0  0  0
    9.6301    5.8459   -7.5894 C   0  0  0  0  0  0  0  0  0  0  0  0
   10.9826    6.5241   -7.3960 C   0  0  0  0  0  0  0  0  0  0  0  0
   11.7827    5.6299   -6.5202 C   0  0  2  0  0  0  0  0  0  0  0  0
   11.2068    4.2570   -6.9183 C   0  0  0  0  0  0  0  0  0  0  0  0
   11.8119    4.7955   -4.5957 H   0  0  0  0  0  0  0  0  0  0  0  0
    9.5502    4.3435   -4.6155 H   0  0  0  0  0  0  0  0  0  0  0  0
    9.0878    6.0097   -5.2034 H   0  0  0  0  0  0  0  0  0  0  0  0
    9.0453    3.8707   -6.8211 H   0  0  0  0  0  0  0  0  0  0  0  0
    8.8037    6.4843   -7.2254 H   0  0  0  0  0  0  0  0  0  0  0  0
    9.4125    5.6118   -8.6402 H   0  0  0  0  0  0  0  0  0  0  0  0
   10.8605    7.5594   -7.0314 H   0  0  0  0  0  0  0  0  0  0  0  0
   11.4079    6.6262   -8.4197 H   0  0  0  0  0  0  0  0  0  0  0  0
   12.8458    5.6820   -6.5944 H   0  0  0  0  0  0  0  0  0  0  0  0
   11.4198    4.0095   -7.9518 H   0  0  0  0  0  0  0  0  0  0  0  0
   11.5353    3.5302   -6.1676 H   0  0  0  0  0  0  0  0  0  0  0  0
  1  6  2  0
  1  2  1  0
  2  3  2  0
  3  4  1  0
  5  4  2  0
  6  5  1  0
  1  7  1  0
  3  8  1  0
  5  9  1  0
 10 11  1  0
 11 12  1  0
 12 13  1  0
 13 14  1  0
 14 15  1  0
 15 16  1  0
 15 10  1  0
 16 12  1  0
 10 17  1  1
 11 18  1  0
 11 19  1  0
 12 20  1  1
 13 21  1  0
 13 22  1  0
 14 23  1  0
 14 24  1  0
 15 25  1  1
 16 26  1  0
 16 27  1  0
  2 10  1  0
M  END
>  <Score>  (1) 
-7.33662

$$$$

     RDKit          3D

 28 30  0  0  0  0  0  0  0  0999 V2000
   11.3328    8.0673   -5.0659 C   0  0  0  0  0  0  0  0  0  0  0  0
   11.4857    6.8640   -4.3615 C   0  0  0  0  0  0  0  0  0  0  0  0
   11.8700    6.9366   -3.0111 C   0  0  0  0  0  0  0  0  0  0  0  0
   12.0717    8.1705   -2.4651 N   0  0  0  0  0  0  0  0  0  0  0  0
   11.9137    9.3112   -3.1792 C   0  0  0  0  0  0  0  0  0  0  0  0
   11.5481    9.2614   -4.4662 N   0  0  0  0  0  0  0  0  0  0  0  0
   11.0380    7.9624   -6.0951 H   0  0  0  0  0  0  0  0  0  0  0  0
   11.9920    6.0320   -2.4566 H   0  0  0  0  0  0  0  0  0  0  0  0
   12.0902   10.2561   -2.6827 H   0  0  0  0  0  0  0  0  0  0  0  0
   11.2579    5.6127   -4.9978 N   0  0  0  0  0  0  0  0  0  0  0  0
   11.5078    5.4951   -6.4000 C   0  0  0  0  0  0  0  0  0  0  0  0
   11.2380    4.1613   -6.9448 C   0  0  0  0  0  0  0  0  0  0  0  0
   10.0285    3.7583   -7.4542 C   0  0  0  0  0  0  0  0  0  0  0  0
    9.8111    2.4966   -7.9579 C   0  0  0  0  0  0  0  0  0  0  0  0
   10.8286    1.5819   -7.9636 C   0  0  0  0  0  0  0  0  0  0  0  0
   12.0608    1.9607   -7.4555 C   0  0  0  0  0  0  0  0  0  0  0  0
   12.2633    3.2378   -6.9512 C   0  0  0  0  0  0  0  0  0  0  0  0
   12.8777    0.8387   -7.5945 O   0  0  0  0  0  0  0  0  0  0  0  0
   12.3067   -0.0403   -8.5444 C   0  0  0  0  0  0  0  0  0  0  0  0
   10.9251    0.2482   -8.3962 O   0  0  0  0  0  0  0  0  0  0  0  0
   10.9154    4.8303   -4.4055 H   0  0  0  0  0  0  0  0  0  0  0  0
   12.5836    5.7366   -6.5709 H   0  0  0  0  0  0  0  0  0  0  0  0
   10.8699    6.2177   -6.9810 H   0  0  0  0  0  0  0  0  0  0  0  0
    9.2038    4.4555   -7.4649 H   0  0  0  0  0  0  0  0  0  0  0  0
    8.8474    2.1981   -8.3560 H   0  0  0  0  0  0  0  0  0  0  0  0
   13.2555    3.4493   -6.5745 H   0  0  0  0  0  0  0  0  0  0  0  0
   12.6906    0.2151   -9.5418 H   0  0  0  0  0  0  0  0  0  0  0  0
   12.5103   -1.0981   -8.3411 H   0  0  0  0  0  0  0  0  0  0  0  0
  1  6  2  0
  1  2  1  0
  2  3  2  0
  3  4  1  0
  5  4  2  0
  6  5  1  0
  1  7  1  0
  3  8  1  0
  5  9  1  0
 10 11  1  0
 11 12  1  0
 12 13  2  0
 13 14  1  0
 14 15  2  0
 15 16  1  0
 16 17  2  0
 16 18  1  0
 18 19  1  0
 19 20  1  0
 17 12  1  0
 20 15  1  0
 10 21  1  0
 11 22  1  0
 11 23  1  0
 13 24  1  0
 14 25  1  0
 17 26  1  0
 19 27  1  0
 19 28  1  0
  2 10  1  0
M  END
>  <Score>  (1) 
-7.33065

$$$$

     RDKit          3D

 24 25  0  0  0  0  0  0  0  0999 V2000
   11.3333    8.0775   -5.0657 C   0  0  0  0  0  0  0  0  0  0  0  0
   11.4867    6.8574   -4.3573 C   0  0  0  0  0  0  0  0  0  0  0  0
   11.8693    6.9371   -3.0137 C   0  0  0  0  0  0  0  0  0  0  0  0
   12.0716    8.1731   -2.4659 N   0  0  0  0  0  0  0  0  0  0  0  0
   11.9149    9.3095   -3.1745 C   0  0  0  0  0  0  0  0  0  0  0  0
   11.5463    9.2564   -4.4719 N   0  0  0  0  0  0  0  0  0  0  0  0
   11.0373    7.9957   -6.1018 H   0  0  0  0  0  0  0  0  0  0  0  0
   11.9931    6.0505   -2.4480 H   0  0  0  0  0  0  0  0  0  0  0  0
   12.0810   10.2745   -2.7180 H   0  0  0  0  0  0  0  0  0  0  0  0
   11.2551    5.6813   -5.0150 O   0  0  0  0  0  0  0  0  0  0  0  0
   12.1380    4.6378   -5.2312 C   0  0  0  0  0  0  0  0  0  0  0  0
   13.3359    4.9986   -6.0104 C   0  0  0  0  0  0  0  0  0  0  0  0
   14.4002    4.1166   -6.0586 C   0  0  0  0  0  0  0  0  0  0  0  0
   15.5457    4.3938   -6.7749 C   0  0  0  0  0  0  0  0  0  0  0  0
   15.6008    5.5948   -7.4524 C   0  0  0  0  0  0  0  0  0  0  0  0
   16.4989    5.8097   -8.0127 H   0  0  0  0  0  0  0  0  0  0  0  0
   14.5492    6.4880   -7.4167 C   0  0  0  0  0  0  0  0  0  0  0  0
   13.3952    6.1979   -6.6894 C   0  0  0  0  0  0  0  0  0  0  0  0
   12.4742    4.1537   -4.2935 H   0  0  0  0  0  0  0  0  0  0  0  0
   11.6037    3.8445   -5.8181 H   0  0  0  0  0  0  0  0  0  0  0  0
   14.3786    3.1585   -5.5292 H   0  0  0  0  0  0  0  0  0  0  0  0
   16.3896    3.6897   -6.8106 H   0  0  0  0  0  0  0  0  0  0  0  0
   14.5745    7.4343   -7.9417 H   0  0  0  0  0  0  0  0  0  0  0  0
   12.5612    6.8620   -6.6388 H   0  0  0  0  0  0  0  0  0  0  0  0
  1  6  2  0
  1  2  1  0
  2  3  2  0
  3  4  1  0
  5  4  2  0
  6  5  1  0
  1  7  1  0
  3  8  1  0
  5  9  1  0
 10 11  1  0
 11 12  1  0
 12 13  2  0
 13 14  1  0
 14 15  2  0
 15 16  1  0
 15 17  1  0
 17 18  2  0
 18 12  1  0
 11 19  1  0
 11 20  1  0
 13 21  1  0
 14 22  1  0
 17 23  1  0
 18 24  1  0
  2 10  1  0
M  END
>  <Score>  (1) 
-7.25528

$$$$

     RDKit          3D

 23 24  0  0  0  0  0  0  0  0999 V2000
   12.3027    8.1239   -2.3011 C   0  0  0  0  0  0  0  0  0  0  0  0
   12.0208    6.8825   -2.9145 C   0  0  0  0  0  0  0  0  0  0  0  0
   11.5250    6.8958   -4.2231 C   0  0  0  0  0  0  0  0  0  0  0  0
   11.3425    8.1126   -4.8316 N   0  0  0  0  0  0  0  0  0  0  0  0
   11.6233    9.2743   -4.2127 C   0  0  0  0  0  0  0  0  0  0  0  0
   12.1007    9.2818   -2.9550 N   0  0  0  0  0  0  0  0  0  0  0  0
   12.6836    8.0919   -1.2936 H   0  0  0  0  0  0  0  0  0  0  0  0
   12.1885    5.9614   -2.3760 H   0  0  0  0  0  0  0  0  0  0  0  0
   11.2964    5.9762   -4.7296 H   0  0  0  0  0  0  0  0  0  0  0  0
   11.4110   10.5401   -4.9049 C   0  0  0  0  0  0  0  0  0  0  0  0
   10.2700   10.7845   -5.6162 C   0  0  0  0  0  0  0  0  0  0  0  0
   10.0617   11.9790   -6.2735 C   0  0  0  0  0  0  0  0  0  0  0  0
   11.0554   12.9538   -6.1989 C   0  0  0  0  0  0  0  0  0  0  0  0
   10.8466   14.2480   -6.9023 C   0  0  0  0  0  0  0  0  0  0  0  0
   12.2130   12.7432   -5.4945 C   0  0  0  0  0  0  0  0  0  0  0  0
   12.9528   13.5304   -5.4672 H   0  0  0  0  0  0  0  0  0  0  0  0
   12.3743   11.5328   -4.8545 C   0  0  0  0  0  0  0  0  0  0  0  0
    9.5087    9.9919   -5.6523 H   0  0  0  0  0  0  0  0  0  0  0  0
    9.1522   12.1764   -6.8417 H   0  0  0  0  0  0  0  0  0  0  0  0
   11.6007   14.3172   -7.7287 H   0  0  0  0  0  0  0  0  0  0  0  0
    9.8347   14.3545   -7.2945 H   0  0  0  0  0  0  0  0  0  0  0  0
   11.1117   15.0433   -6.1621 H   0  0  0  0  0  0  0  0  0  0  0  0
   13.3038   11.3840   -4.2982 H   0  0  0  0  0  0  0  0  0  0  0  0
  2  1  2  0
  3  2  1  0
  4  3  2  0
  4  5  1  0
  5  6  2  0
  6  1  1  0
  1  7  1  0
  2  8  1  0
  3  9  1  0
 10 11  2  0
 11 12  1  0
 12 13  2  0
 13 14  1  0
 13 15  1  0
 15 16  1  0
 15 17  2  0
 17 10  1  0
 11 18  1  0
 12 19  1  0
 14 20  1  0
 14 21  1  0
 14 22  1  0
 17 23  1  0
  5 10  1  0
M  END
>  <Score>  (1) 
-7.58972

$$$$

     RDKit          3D

 24 25  0  0  0  0  0  0  0  0999 V2000
   11.3329    8.0703   -5.0661 C   0  0  0  0  0  0  0  0  0  0  0  0
   11.4865    6.8632   -4.3585 C   0  0  0  0  0  0  0  0  0  0  0  0
   11.8693    6.9353   -3.0135 C   0  0  0  0  0  0  0  0  0  0  0  0
   12.0718    8.1717   -2.4650 N   0  0  0  0  0  0  0  0  0  0  0  0
   11.9145    9.3113   -3.1764 C   0  0  0  0  0  0  0  0  0  0  0  0
   11.5471    9.2592   -4.4695 N   0  0  0  0  0  0  0  0  0  0  0  0
   11.0354    8.0153   -6.1114 H   0  0  0  0  0  0  0  0  0  0  0  0
   11.9953    6.0278   -2.4444 H   0  0  0  0  0  0  0  0  0  0  0  0
   12.0847   10.2821   -2.7055 H   0  0  0  0  0  0  0  0  0  0  0  0
   11.2583    5.6682   -5.0037 O   0  0  0  0  0  0  0  0  0  0  0  0
   12.0446    5.3500   -6.1341 C   0  0  0  0  0  0  0  0  0  0  0  0
   11.6607    4.0261   -6.7007 C   0  0  0  0  0  0  0  0  0  0  0  0
   10.6850    3.9124   -7.6739 C   0  0  0  0  0  0  0  0  0  0  0  0
   10.3119    2.7022   -8.2136 C   0  0  0  0  0  0  0  0  0  0  0  0
   10.9208    1.5439   -7.7828 C   0  0  0  0  0  0  0  0  0  0  0  0
   11.8969    1.6425   -6.8113 C   0  0  0  0  0  0  0  0  0  0  0  0
   12.7281    0.2080   -6.2023 Cl  0  0  0  0  0  0  0  0  0  0  0  0
   12.2669    2.8638   -6.2731 C   0  0  0  0  0  0  0  0  0  0  0  0
   13.1196    5.3293   -5.8685 H   0  0  0  0  0  0  0  0  0  0  0  0
   11.9256    6.1123   -6.9279 H   0  0  0  0  0  0  0  0  0  0  0  0
   10.2224    4.8527   -7.9926 H   0  0  0  0  0  0  0  0  0  0  0  0
    9.5447    2.6612   -8.9719 H   0  0  0  0  0  0  0  0  0  0  0  0
   10.6611    0.5643   -8.1781 H   0  0  0  0  0  0  0  0  0  0  0  0
   13.0361    2.9372   -5.5083 H   0  0  0  0  0  0  0  0  0  0  0  0
  1  6  2  0
  1  2  1  0
  2  3  2  0
  3  4  1  0
  5  4  2  0
  6  5  1  0
  1  7  1  0
  3  8  1  0
  5  9  1  0
 10 11  1  0
 11 12  1  0
 12 13  2  0
 13 14  1  0
 14 15  2  0
 15 16  1  0
 16 17  1  0
 16 18  2  0
 18 12  1  0
 11 19  1  0
 11 20  1  0
 13 21  1  0
 14 22  1  0
 15 23  1  0
 18 24  1  0
  2 10  1  0
M  END
>  <Score>  (1) 
-7.21418

$$$$

     RDKit          3D

 32 34  0  0  0  0  0  0  0  0999 V2000
   11.3328    8.0731   -5.0667 C   0  0  0  0  0  0  0  0  0  0  0  0
   11.4867    6.8622   -4.3578 C   0  0  0  0  0  0  0  0  0  0  0  0
   11.8695    6.9349   -3.0129 C   0  0  0  0  0  0  0  0  0  0  0  0
   12.0716    8.1725   -2.4655 N   0  0  0  0  0  0  0  0  0  0  0  0
   11.9148    9.3105   -3.1751 C   0  0  0  0  0  0  0  0  0  0  0  0
   11.5466    9.2578   -4.4710 N   0  0  0  0  0  0  0  0  0  0  0  0
   11.0362    8.0103   -6.1077 H   0  0  0  0  0  0  0  0  0  0  0  0
   11.9957    6.0297   -2.4435 H   0  0  0  0  0  0  0  0  0  0  0  0
   12.0918   10.2519   -2.6764 H   0  0  0  0  0  0  0  0  0  0  0  0
   11.2495    5.5523   -5.0191 C   0  0  0  0  0  0  0  0  0  0  0  0
   11.5928    5.7509   -6.4345 N   0  0  0  0  0  0  0  0  0  0  0  0
   12.8802    5.5559   -7.0265 C   0  0  0  0  0  0  0  0  0  0  0  0
   12.7411    5.8716   -8.4408 C   0  0  0  0  0  0  0  0  0  0  0  0
   13.6395    5.8684   -9.5202 C   0  0  0  0  0  0  0  0  0  0  0  0
   13.2165    6.2228  -10.7834 C   0  0  0  0  0  0  0  0  0  0  0  0
   11.9006    6.5925  -11.0335 C   0  0  0  0  0  0  0  0  0  0  0  0
   11.5426    6.9380  -12.3302 O   0  0  0  0  0  0  0  0  0  0  0  0
   10.1917    7.3108  -12.5540 C   0  0  0  0  0  0  0  0  0  0  0  0
   11.0498    6.5874   -9.9704 C   0  0  0  0  0  0  0  0  0  0  0  0
   11.4383    6.2361   -8.6813 C   0  0  0  0  0  0  0  0  0  0  0  0
   10.6947    6.1684   -7.4346 C   0  0  0  0  0  0  0  0  0  0  0  0
    9.4789    6.4258   -7.2439 O   0  0  0  0  0  0  0  0  0  0  0  0
   10.1647    5.3483   -4.9352 H   0  0  0  0  0  0  0  0  0  0  0  0
   11.8858    4.7611   -4.6248 H   0  0  0  0  0  0  0  0  0  0  0  0
   13.6405    6.1760   -6.5021 H   0  0  0  0  0  0  0  0  0  0  0  0
   13.1918    4.5042   -6.8396 H   0  0  0  0  0  0  0  0  0  0  0  0
   14.6539    5.5748   -9.2846 H   0  0  0  0  0  0  0  0  0  0  0  0
   13.9659    6.1989  -11.5770 H   0  0  0  0  0  0  0  0  0  0  0  0
    9.9593    7.4342  -13.6208 H   0  0  0  0  0  0  0  0  0  0  0  0
    9.5421    6.5303  -12.0871 H   0  0  0  0  0  0  0  0  0  0  0  0
   10.0265    8.2386  -11.9591 H   0  0  0  0  0  0  0  0  0  0  0  0
   10.0166    6.8687  -10.1218 H   0  0  0  0  0  0  0  0  0  0  0  0
  1  6  2  0
  1  2  1  0
  2  3  2  0
  3  4  1  0
  5  4  2  0
  6  5  1  0
  1  7  1  0
  3  8  1  0
  5  9  1  0
 10 11  1  0
 11 12  1  0
 12 13  1  0
 13 14  2  0
 14 15  1  0
 15 16  2  0
 16 17  1  0
 17 18  1  0
 16 19  1  0
 19 20  2  0
 20 21  1  0
 21 22  2  0
 21 11  1  0
 20 13  1  0
 10 23  1  0
 10 24  1  0
 12 25  1  0
 12 26  1  0
 14 27  1  0
 15 28  1  0
 18 29  1  0
 18 30  1  0
 18 31  1  0
 19 32  1  0
  2 10  1  0
M  END
>  <Score>  (1) 
-7.15282

$$$$

     RDKit          3D

 27 28  0  0  0  0  0  0  0  0999 V2000
   11.3330    8.0728   -5.0659 C   0  0  0  0  0  0  0  0  0  0  0  0
   11.4865    6.8622   -4.3584 C   0  0  0  0  0  0  0  0  0  0  0  0
   11.8695    6.9356   -3.0128 C   0  0  0  0  0  0  0  0  0  0  0  0
   12.0717    8.1714   -2.4651 N   0  0  0  0  0  0  0  0  0  0  0  0
   11.9147    9.3112   -3.1757 C   0  0  0  0  0  0  0  0  0  0  0  0
   11.5466    9.2578   -4.4710 N   0  0  0  0  0  0  0  0  0  0  0  0
   11.0391    8.0260   -6.0998 H   0  0  0  0  0  0  0  0  0  0  0  0
   12.0012    6.0359   -2.4249 H   0  0  0  0  0  0  0  0  0  0  0  0
   12.0745   10.2765   -2.7410 H   0  0  0  0  0  0  0  0  0  0  0  0
   11.2486    5.5639   -5.0231 C   0  0  2  0  0  0  0  0  0  0  0  0
   12.0026    4.5399   -4.5217 O   0  0  0  0  0  0  0  0  0  0  0  0
   12.9098    4.1240   -5.4503 C   0  0  1  0  0  0  0  0  0  0  0  0
   12.8218    2.6116   -5.6504 C   0  0  0  0  0  0  0  0  0  0  0  0
   11.5621    2.2319   -6.0864 O   0  0  0  0  0  0  0  0  0  0  0  0
   12.7158    4.8744   -6.7165 C   0  0  2  0  0  0  0  0  0  0  0  0
   13.7781    5.7434   -6.9577 O   0  0  0  0  0  0  0  0  0  0  0  0
   11.4743    5.6785   -6.4924 C   0  0  1  0  0  0  0  0  0  0  0  0
   10.4150    5.1846   -7.2511 O   0  0  0  0  0  0  0  0  0  0  0  0
   10.1546    5.3271   -4.8788 H   0  0  0  0  0  0  0  0  0  0  0  0
   13.9499    4.2925   -5.0451 H   0  0  0  0  0  0  0  0  0  0  0  0
   13.6055    2.2925   -6.3631 H   0  0  0  0  0  0  0  0  0  0  0  0
   13.0154    2.1621   -4.6595 H   0  0  0  0  0  0  0  0  0  0  0  0
   11.1707    1.5599   -5.4976 H   0  0  0  0  0  0  0  0  0  0  0  0
   12.5360    4.1880   -7.5675 H   0  0  0  0  0  0  0  0  0  0  0  0
   13.5249    6.5120   -7.5326 H   0  0  0  0  0  0  0  0  0  0  0  0
   11.6236    6.7296   -6.8095 H   0  0  0  0  0  0  0  0  0  0  0  0
    9.7707    4.6658   -6.7120 H   0  0  0  0  0  0  0  0  0  0  0  0
  1  6  2  0
  1  2  1  0
  2  3  2  0
  3  4  1  0
  5  4  2  0
  6  5  1  0
  1  7  1  0
  3  8  1  0
  5  9  1  0
 10 11  1  0
 11 12  1  0
 12 13  1  0
 13 14  1  0
 12 15  1  0
 15 16  1  0
 15 17  1  0
 17 18  1  0
 17 10  1  0
 10 19  1  6
 12 20  1  1
 13 21  1  0
 13 22  1  0
 14 23  1  0
 15 24  1  6
 16 25  1  0
 17 26  1  1
 18 27  1  0
  2 10  1  0
M  END
>  <Score>  (1) 
-7.14447

$$$$

     RDKit          3D

 23 24  0  0  0  0  0  0  0  0999 V2000
   11.3329    8.0736   -5.0666 C   0  0  0  0  0  0  0  0  0  0  0  0
   11.4865    6.8618   -4.3583 C   0  0  0  0  0  0  0  0  0  0  0  0
   11.8697    6.9352   -3.0122 C   0  0  0  0  0  0  0  0  0  0  0  0
   12.0716    8.1721   -2.4657 N   0  0  0  0  0  0  0  0  0  0  0  0
   11.9147    9.3107   -3.1754 C   0  0  0  0  0  0  0  0  0  0  0  0
   11.5466    9.2575   -4.4708 N   0  0  0  0  0  0  0  0  0  0  0  0
   11.0350    7.9798   -6.1080 H   0  0  0  0  0  0  0  0  0  0  0  0
   12.0044    6.0439   -2.4145 H   0  0  0  0  0  0  0  0  0  0  0  0
   12.0798   10.2808   -2.7230 H   0  0  0  0  0  0  0  0  0  0  0  0
   11.2550    5.5595   -5.0009 C   0  0  0  0  0  0  0  0  0  0  0  0
   12.2228    5.4604   -6.1467 C   0  0  0  0  0  0  0  0  0  0  0  0
   13.4523    4.8986   -5.8526 C   0  0  0  0  0  0  0  0  0  0  0  0
   14.3714    4.7837   -6.8570 C   0  0  0  0  0  0  0  0  0  0  0  0
   14.0667    5.2217   -8.1279 C   0  0  0  0  0  0  0  0  0  0  0  0
   12.8396    5.7799   -8.4111 C   0  0  0  0  0  0  0  0  0  0  0  0
   12.4961    6.3262  -10.0550 Cl  0  0  0  0  0  0  0  0  0  0  0  0
   11.9068    5.8996   -7.4040 C   0  0  0  0  0  0  0  0  0  0  0  0
   10.2181    5.4901   -5.3519 H   0  0  0  0  0  0  0  0  0  0  0  0
   11.4107    4.7212   -4.2899 H   0  0  0  0  0  0  0  0  0  0  0  0
   13.6969    4.5491   -4.8405 H   0  0  0  0  0  0  0  0  0  0  0  0
   15.3249    4.3503   -6.6382 H   0  0  0  0  0  0  0  0  0  0  0  0
   14.8196    5.1203   -8.9215 H   0  0  0  0  0  0  0  0  0  0  0  0
   10.9490    6.3322   -7.6128 H   0  0  0  0  0  0  0  0  0  0  0  0
  1  6  2  0
  1  2  1  0
  2  3  2  0
  3  4  1  0
  5  4  2  0
  6  5  1  0
  1  7  1  0
  3  8  1  0
  5  9  1  0
 10 11  1  0
 11 12  2  0
 12 13  1  0
 13 14  2  0
 14 15  1  0
 15 16  1  0
 15 17  2  0
 17 11  1  0
 10 18  1  0
 10 19  1  0
 12 20  1  0
 13 21  1  0
 14 22  1  0
 17 23  1  0
  2 10  1  0
M  END
>  <Score>  (1) 
-7.1016

$$$$

     RDKit          3D

 24 26  0  0  0  0  0  0  0  0999 V2000
   11.3330    8.0615   -5.0659 C   0  0  0  0  0  0  0  0  0  0  0  0
   11.4846    6.8725   -4.3652 C   0  0  0  0  0  0  0  0  0  0  0  0
   11.8710    6.9372   -3.0084 C   0  0  0  0  0  0  0  0  0  0  0  0
   12.0720    8.1670   -2.4641 N   0  0  0  0  0  0  0  0  0  0  0  0
   11.9135    9.3134   -3.1795 C   0  0  0  0  0  0  0  0  0  0  0  0
   11.5480    9.2594   -4.4661 N   0  0  0  0  0  0  0  0  0  0  0  0
   11.0642    8.0219   -6.0971 H   0  0  0  0  0  0  0  0  0  0  0  0
   11.9945    6.0223   -2.4481 H   0  0  0  0  0  0  0  0  0  0  0  0
   12.0986   10.2431   -2.6491 H   0  0  0  0  0  0  0  0  0  0  0  0
   11.2315    5.6407   -4.9850 N   0  0  0  0  0  0  0  0  0  0  0  0
   10.7896    5.5227   -6.3185 C   0  0  0  0  0  0  0  0  0  0  0  0
   10.4522    6.5997   -7.0880 C   0  0  0  0  0  0  0  0  0  0  0  0
   10.0398    6.5005   -8.4280 C   0  0  0  0  0  0  0  0  0  0  0  0
    9.6728    7.4209   -9.3392 N   0  0  0  0  0  0  0  0  0  0  0  0
    9.3849    6.7630  -10.4386 N   0  0  0  0  0  0  0  0  0  0  0  0
    9.5466    5.4374  -10.2937 C   0  0  0  0  0  0  0  0  0  0  0  0
    9.3980    4.6274  -10.9923 H   0  0  0  0  0  0  0  0  0  0  0  0
    9.9708    5.2514   -8.9957 C   0  0  0  0  0  0  0  0  0  0  0  0
   10.3112    4.1805   -8.2111 C   0  0  0  0  0  0  0  0  0  0  0  0
   10.7001    4.3158   -6.9378 N   0  0  0  0  0  0  0  0  0  0  0  0
   11.3647    4.7145   -4.4628 H   0  0  0  0  0  0  0  0  0  0  0  0
   10.4662    7.6087   -6.6722 H   0  0  0  0  0  0  0  0  0  0  0  0
    9.6401    8.4529   -9.1555 H   0  0  0  0  0  0  0  0  0  0  0  0
   10.2455    3.1951   -8.6933 H   0  0  0  0  0  0  0  0  0  0  0  0
  1  6  2  0
  1  2  1  0
  2  3  2  0
  3  4  1  0
  5  4  2  0
  6  5  1  0
  1  7  1  0
  3  8  1  0
  5  9  1  0
 10 11  1  0
 11 12  2  0
 12 13  1  0
 13 14  1  0
 14 15  1  0
 15 16  2  0
 16 17  1  0
 16 18  1  0
 18 19  1  0
 19 20  2  0
 20 11  1  0
 18 13  2  0
 10 21  1  0
 12 22  1  0
 14 23  1  0
 19 24  1  0
  2 10  1  0
M  END
>  <Score>  (1) 
-7.07605

$$$$

     RDKit          3D

 25 26  0  0  0  0  0  0  0  0999 V2000
   11.3340    8.0780   -5.0630 C   0  0  0  0  0  0  0  0  0  0  0  0
   11.4864    6.8583   -4.3583 C   0  0  0  0  0  0  0  0  0  0  0  0
   11.8698    6.9395   -3.0123 C   0  0  0  0  0  0  0  0  0  0  0  0
   12.0713    8.1684   -2.4661 N   0  0  0  0  0  0  0  0  0  0  0  0
   11.9146    9.3111   -3.1760 C   0  0  0  0  0  0  0  0  0  0  0  0
   11.5459    9.2557   -4.4733 N   0  0  0  0  0  0  0  0  0  0  0  0
   11.0396    8.0598   -6.1025 H   0  0  0  0  0  0  0  0  0  0  0  0
   12.0002    6.0259   -2.4269 H   0  0  0  0  0  0  0  0  0  0  0  0
   12.0708   10.2956   -2.7569 H   0  0  0  0  0  0  0  0  0  0  0  0
   11.2617    5.6124   -4.9854 N   0  0  0  0  0  0  0  0  0  0  0  0
   10.4010    5.4512   -6.1189 C   0  0  0  0  0  0  0  0  0  0  0  0
   10.8716    6.1308   -7.3477 C   0  0  0  0  0  0  0  0  0  0  0  0
   12.0354    6.8339   -7.4417 C   0  0  0  0  0  0  0  0  0  0  0  0
   12.4602    7.4536   -8.6076 C   0  0  0  0  0  0  0  0  0  0  0  0
   11.6233    7.3209   -9.7039 C   0  0  0  0  0  0  0  0  0  0  0  0
   12.1417    8.0984  -11.1931 Cl  0  0  0  0  0  0  0  0  0  0  0  0
   10.4431    6.6191   -9.6447 C   0  0  0  0  0  0  0  0  0  0  0  0
   10.0660    6.0219   -8.4619 C   0  0  0  0  0  0  0  0  0  0  0  0
    8.5456    5.1204   -8.3936 Cl  0  0  0  0  0  0  0  0  0  0  0  0
   11.7514    4.7797   -4.5946 H   0  0  0  0  0  0  0  0  0  0  0  0
   10.2637    4.3744   -6.3974 H   0  0  0  0  0  0  0  0  0  0  0  0
    9.3728    5.8255   -5.8672 H   0  0  0  0  0  0  0  0  0  0  0  0
   12.6863    6.9293   -6.5933 H   0  0  0  0  0  0  0  0  0  0  0  0
   13.3918    7.9974   -8.6230 H   0  0  0  0  0  0  0  0  0  0  0  0
    9.7958    6.5188  -10.5002 H   0  0  0  0  0  0  0  0  0  0  0  0
  1  6  2  0
  1  2  1  0
  2  3  2  0
  3  4  1  0
  5  4  2  0
  6  5  1  0
  1  7  1  0
  3  8  1  0
  5  9  1  0
 10 11  1  0
 11 12  1  0
 12 13  2  0
 13 14  1  0
 14 15  2  0
 15 16  1  0
 15 17  1  0
 17 18  2  0
 18 19  1  0
 18 12  1  0
 10 20  1  0
 11 21  1  0
 11 22  1  0
 13 23  1  0
 14 24  1  0
 17 25  1  0
  2 10  1  0
M  END
>  <Score>  (1) 
-7.0502

$$$$

     RDKit          3D

 31 32  0  0  0  0  0  0  0  0999 V2000
   11.3329    8.0743   -5.0665 C   0  0  0  0  0  0  0  0  0  0  0  0
   11.4866    6.8616   -4.3580 C   0  0  0  0  0  0  0  0  0  0  0  0
   11.8697    6.9352   -3.0124 C   0  0  0  0  0  0  0  0  0  0  0  0
   12.0716    8.1725   -2.4658 N   0  0  0  0  0  0  0  0  0  0  0  0
   11.9150    9.3103   -3.1743 C   0  0  0  0  0  0  0  0  0  0  0  0
   11.5463    9.2571   -4.4721 N   0  0  0  0  0  0  0  0  0  0  0  0
   11.0433    8.0730   -6.0914 H   0  0  0  0  0  0  0  0  0  0  0  0
   12.0043    6.0579   -2.4168 H   0  0  0  0  0  0  0  0  0  0  0  0
   12.0757   10.2855   -2.7382 H   0  0  0  0  0  0  0  0  0  0  0  0
   11.2522    5.5594   -5.0105 C   0  0  1  0  0  0  0  0  0  0  0  0
   10.8797    5.7708   -6.3568 O   0  0  0  0  0  0  0  0  0  0  0  0
   10.5143    4.5599   -6.9397 C   0  0  1  0  0  0  0  0  0  0  0  0
   10.0808    4.8013   -8.3506 C   0  0  0  0  0  0  0  0  0  0  0  0
   11.0707    5.3644   -9.1389 O   0  0  0  0  0  0  0  0  0  0  0  0
   11.6766    3.5845   -6.9677 C   0  0  1  0  0  0  0  0  0  0  0  0
   11.9459    3.1523   -8.2628 O   0  0  0  0  0  0  0  0  0  0  0  0
   12.8817    4.1145   -6.2636 C   0  0  1  0  0  0  0  0  0  0  0  0
   13.5978    5.0470   -6.9580 O   0  0  0  0  0  0  0  0  0  0  0  0
   12.4147    4.6145   -4.8969 C   0  0  1  0  0  0  0  0  0  0  0  0
   13.4631    5.1290   -4.1574 O   0  0  0  0  0  0  0  0  0  0  0  0
   10.3258    5.1303   -4.5323 H   0  0  0  0  0  0  0  0  0  0  0  0
    9.6427    4.1642   -6.3806 H   0  0  0  0  0  0  0  0  0  0  0  0
    9.1872    5.4585   -8.3244 H   0  0  0  0  0  0  0  0  0  0  0  0
    9.7699    3.8553   -8.8397 H   0  0  0  0  0  0  0  0  0  0  0  0
   10.9404    6.3523   -9.1576 H   0  0  0  0  0  0  0  0  0  0  0  0
   11.3384    2.6752   -6.4023 H   0  0  0  0  0  0  0  0  0  0  0  0
   11.3519    2.3844   -8.4795 H   0  0  0  0  0  0  0  0  0  0  0  0
   13.5632    3.2435   -6.0680 H   0  0  0  0  0  0  0  0  0  0  0  0
   13.0955    5.7898   -7.3274 H   0  0  0  0  0  0  0  0  0  0  0  0
   12.0624    3.6999   -4.3593 H   0  0  0  0  0  0  0  0  0  0  0  0
   13.7925    4.4908   -3.4751 H   0  0  0  0  0  0  0  0  0  0  0  0
  1  6  2  0
  1  2  1  0
  2  3  2  0
  3  4  1  0
  5  4  2  0
  6  5  1  0
  1  7  1  0
  3  8  1  0
  5  9  1  0
 10 11  1  0
 11 12  1  0
 12 13  1  0
 13 14  1  0
 12 15  1  0
 15 16  1  0
 15 17  1  0
 17 18  1  0
 17 19  1  0
 19 20  1  0
 19 10  1  0
 10 21  1  1
 12 22  1  1
 13 23  1  0
 13 24  1  0
 14 25  1  0
 15 26  1  1
 16 27  1  0
 17 28  1  1
 18 29  1  0
 19 30  1  1
 20 31  1  0
  2 10  1  0
M  END
>  <Score>  (1) 
-7.02744

$$$$

     RDKit          3D

 26 27  0  0  0  0  0  0  0  0999 V2000
   11.3338    8.0727   -5.0627 C   0  0  0  0  0  0  0  0  0  0  0  0
   11.4881    6.8605   -4.3537 C   0  0  0  0  0  0  0  0  0  0  0  0
   11.8668    6.9365   -3.0217 C   0  0  0  0  0  0  0  0  0  0  0  0
   12.0720    8.1727   -2.4647 N   0  0  0  0  0  0  0  0  0  0  0  0
   11.9154    9.3121   -3.1736 C   0  0  0  0  0  0  0  0  0  0  0  0
   11.5459    9.2565   -4.4726 N   0  0  0  0  0  0  0  0  0  0  0  0
   11.0428    8.0224   -6.0850 H   0  0  0  0  0  0  0  0  0  0  0  0
   11.9801    6.0497   -2.4297 H   0  0  0  0  0  0  0  0  0  0  0  0
   12.0751   10.2906   -2.7424 H   0  0  0  0  0  0  0  0  0  0  0  0
   11.2124    5.6742   -5.0531 N   0  0  0  0  0  0  0  0  0  0  0  0
   11.1939    5.5846   -6.4499 C   0  0  0  0  0  0  0  0  0  0  0  0
   10.9543    6.6203   -7.3189 C   0  0  0  0  0  0  0  0  0  0  0  0
   10.9804    6.4604   -8.7001 C   0  0  0  0  0  0  0  0  0  0  0  0
   11.2506    5.2388   -9.2769 C   0  0  0  0  0  0  0  0  0  0  0  0
   11.2686    5.1158  -10.6412 O   0  0  0  0  0  0  0  0  0  0  0  0
   11.5269    3.9423  -11.3492 C   0  0  0  0  0  0  0  0  0  0  0  0
   11.4909    4.1961   -8.4104 C   0  0  0  0  0  0  0  0  0  0  0  0
   11.4681    4.3428   -7.0454 C   0  0  0  0  0  0  0  0  0  0  0  0
   11.0043    4.7847   -4.5001 H   0  0  0  0  0  0  0  0  0  0  0  0
   10.7135    7.6044   -6.9030 H   0  0  0  0  0  0  0  0  0  0  0  0
   10.7887    7.2931   -9.3633 H   0  0  0  0  0  0  0  0  0  0  0  0
   11.0363    3.9437  -12.3664 H   0  0  0  0  0  0  0  0  0  0  0  0
   11.2377    3.0124  -10.8149 H   0  0  0  0  0  0  0  0  0  0  0  0
   12.6177    3.8938  -11.5492 H   0  0  0  0  0  0  0  0  0  0  0  0
   11.7057    3.2244   -8.8433 H   0  0  0  0  0  0  0  0  0  0  0  0
   11.6590    3.5136   -6.3680 H   0  0  0  0  0  0  0  0  0  0  0  0
  1  6  2  0
  1  2  1  0
  2  3  2  0
  3  4  1  0
  5  4  2  0
  6  5  1  0
  1  7  1  0
  3  8  1  0
  5  9  1  0
 10 11  1  0
 11 12  2  0
 12 13  1  0
 13 14  2  0
 14 15  1  0
 15 16  1  0
 14 17  1  0
 17 18  2  0
 18 11  1  0
 10 19  1  0
 12 20  1  0
 13 21  1  0
 16 22  1  0
 16 23  1  0
 16 24  1  0
 17 25  1  0
 18 26  1  0
  2 10  1  0
M  END
>  <Score>  (1) 
-7.02467

$$$$

     RDKit          3D

 27 28  0  0  0  0  0  0  0  0999 V2000
   11.3337    8.0708   -5.0630 C   0  0  0  0  0  0  0  0  0  0  0  0
   11.4874    6.8591   -4.3558 C   0  0  0  0  0  0  0  0  0  0  0  0
   11.8675    6.9433   -3.0200 C   0  0  0  0  0  0  0  0  0  0  0  0
   12.0721    8.1647   -2.4630 N   0  0  0  0  0  0  0  0  0  0  0  0
   11.9142    9.3155   -3.1784 C   0  0  0  0  0  0  0  0  0  0  0  0
   11.5470    9.2574   -4.4689 N   0  0  0  0  0  0  0  0  0  0  0  0
   11.0391    8.0709   -6.1045 H   0  0  0  0  0  0  0  0  0  0  0  0
   11.9894    6.0684   -2.4053 H   0  0  0  0  0  0  0  0  0  0  0  0
   12.0826   10.2823   -2.7148 H   0  0  0  0  0  0  0  0  0  0  0  0
   11.2200    5.6747   -5.0390 N   0  0  0  0  0  0  0  0  0  0  0  0
   10.6534    5.5092   -6.3183 C   0  0  0  0  0  0  0  0  0  0  0  0
    9.8626    6.4314   -6.9618 C   0  0  0  0  0  0  0  0  0  0  0  0
    9.3568    6.2061   -8.2454 C   0  0  0  0  0  0  0  0  0  0  0  0
    9.6334    5.0399   -8.9206 C   0  0  0  0  0  0  0  0  0  0  0  0
    8.9752    4.8099  -10.5235 S   0  0  0  0  0  6  0  0  0  0  0  0
    8.8030    6.1802  -11.1424 O   0  0  0  0  0  0  0  0  0  0  0  0
    9.8692    4.0281  -11.4072 O   0  0  0  0  0  0  0  0  0  0  0  0
    7.4484    4.0554  -10.4121 N   0  0  0  0  0  0  0  0  0  0  0  0
    7.1349    3.7931  -11.3857 H   0  0  0  0  0  0  0  0  0  0  0  0
   10.4184    4.1063   -8.2991 C   0  0  0  0  0  0  0  0  0  0  0  0
   10.9118    4.3367   -7.0367 C   0  0  0  0  0  0  0  0  0  0  0  0
   11.4781    4.7687   -4.5298 H   0  0  0  0  0  0  0  0  0  0  0  0
    9.6029    7.3553   -6.4626 H   0  0  0  0  0  0  0  0  0  0  0  0
    8.7426    6.9834   -8.6814 H   0  0  0  0  0  0  0  0  0  0  0  0
    6.7537    4.7330  -10.0204 H   0  0  0  0  0  0  0  0  0  0  0  0
   10.6289    3.1895   -8.8434 H   0  0  0  0  0  0  0  0  0  0  0  0
   11.5393    3.5884   -6.5430 H   0  0  0  0  0  0  0  0  0  0  0  0
  1  6  2  0
  1  2  1  0
  2  3  2  0
  3  4  1  0
  5  4  2  0
  6  5  1  0
  1  7  1  0
  3  8  1  0
  5  9  1  0
 10 11  1  0
 11 12  2  0
 12 13  1  0
 13 14  2  0
 14 15  1  0
 15 16  2  0
 15 17  2  0
 15 18  1  0
 18 19  1  0
 14 20  1  0
 20 21  2  0
 21 11  1  0
 10 22  1  0
 12 23  1  0
 13 24  1  0
 18 25  1  0
 20 26  1  0
 21 27  1  0
  2 10  1  0
M  END
>  <Score>  (1) 
-7.01759

$$$$

     RDKit          3D

 23 24  0  0  0  0  0  0  0  0999 V2000
   11.3329    8.0747   -5.0667 C   0  0  0  0  0  0  0  0  0  0  0  0
   11.4868    6.8613   -4.3573 C   0  0  0  0  0  0  0  0  0  0  0  0
   11.8695    6.9353   -3.0129 C   0  0  0  0  0  0  0  0  0  0  0  0
   12.0716    8.1723   -2.4656 N   0  0  0  0  0  0  0  0  0  0  0  0
   11.9150    9.3104   -3.1745 C   0  0  0  0  0  0  0  0  0  0  0  0
   11.5463    9.2570   -4.4720 N   0  0  0  0  0  0  0  0  0  0  0  0
   11.0383    8.0678   -6.1083 H   0  0  0  0  0  0  0  0  0  0  0  0
   11.9971    6.0503   -2.4412 H   0  0  0  0  0  0  0  0  0  0  0  0
   12.0907   10.2668   -2.6824 H   0  0  0  0  0  0  0  0  0  0  0  0
   11.2511    5.5604   -5.0147 C   0  0  0  0  0  0  0  0  0  0  0  0
   11.2095    5.6954   -6.5073 C   0  0  0  0  0  0  0  0  0  0  0  0
   10.0039    5.9457   -7.1278 C   0  0  0  0  0  0  0  0  0  0  0  0
   10.0155    6.0620   -8.5043 C   0  0  0  0  0  0  0  0  0  0  0  0
   11.1889    5.9316   -9.2197 C   0  0  0  0  0  0  0  0  0  0  0  0
   11.1938    6.0468  -10.5701 F   0  0  0  0  0  0  0  0  0  0  0  0
   12.3918    5.6823   -8.6061 C   0  0  0  0  0  0  0  0  0  0  0  0
   12.3751    5.5670   -7.2318 C   0  0  0  0  0  0  0  0  0  0  0  0
   10.2869    5.1183   -4.6671 H   0  0  0  0  0  0  0  0  0  0  0  0
   12.0479    4.8535   -4.7413 H   0  0  0  0  0  0  0  0  0  0  0  0
    9.0801    6.0492   -6.5758 H   0  0  0  0  0  0  0  0  0  0  0  0
    9.0646    6.2620   -9.0252 H   0  0  0  0  0  0  0  0  0  0  0  0
   13.3323    5.5749   -9.1449 H   0  0  0  0  0  0  0  0  0  0  0  0
   13.3321    5.3683   -6.7380 H   0  0  0  0  0  0  0  0  0  0  0  0
  1  6  2  0
  1  2  1  0
  2  3  2  0
  3  4  1  0
  5  4  2  0
  6  5  1  0
  1  7  1  0
  3  8  1  0
  5  9  1  0
 10 11  1  0
 11 12  2  0
 12 13  1  0
 13 14  2  0
 14 15  1  0
 14 16  1  0
 16 17  2  0
 17 11  1  0
 10 18  1  0
 10 19  1  0
 12 20  1  0
 13 21  1  0
 16 22  1  0
 17 23  1  0
  2 10  1  0
M  END
>  <Score>  (1) 
-7.01361

$$$$

     RDKit          3D

 22 23  0  0  0  0  0  0  0  0999 V2000
   12.3026    8.1201   -2.3011 C   0  0  0  0  0  0  0  0  0  0  0  0
   12.0222    6.8844   -2.9111 C   0  0  0  0  0  0  0  0  0  0  0  0
   11.5237    6.8981   -4.2266 C   0  0  0  0  0  0  0  0  0  0  0  0
   11.3422    8.1077   -4.8318 N   0  0  0  0  0  0  0  0  0  0  0  0
   11.6252    9.2769   -4.2082 C   0  0  0  0  0  0  0  0  0  0  0  0
   12.0992    9.2838   -2.9591 N   0  0  0  0  0  0  0  0  0  0  0  0
   12.6822    8.1016   -1.2983 H   0  0  0  0  0  0  0  0  0  0  0  0
   12.1738    5.9533   -2.4138 H   0  0  0  0  0  0  0  0  0  0  0  0
   11.2895    5.9915   -4.7494 H   0  0  0  0  0  0  0  0  0  0  0  0
   11.4089   10.4921   -4.9054 N   0  0  0  0  0  0  0  0  0  0  0  0
   12.4806   11.3964   -5.1563 C   0  0  0  0  0  0  0  0  0  0  0  0
   13.7431   11.1272   -4.7380 N   0  0  0  0  0  0  0  0  0  0  0  0
   14.7770   11.9639   -4.9610 C   0  0  0  0  0  0  0  0  0  0  0  0
   14.5632   13.1384   -5.6359 C   0  0  0  0  0  0  0  0  0  0  0  0
   15.8653   14.2539   -5.9498 Cl  0  0  0  0  0  0  0  0  0  0  0  0
   13.2991   13.4336   -6.0685 C   0  0  0  0  0  0  0  0  0  0  0  0
   13.0543   14.6267   -6.7599 N   0  0  0  0  0  0  0  0  0  0  0  0
   12.5221   14.5886   -7.6762 H   0  0  0  0  0  0  0  0  0  0  0  0
   12.3023   12.5552   -5.8150 N   0  0  0  0  0  0  0  0  0  0  0  0
   10.4558   10.7338   -5.2417 H   0  0  0  0  0  0  0  0  0  0  0  0
   15.7860   11.7490   -4.6270 H   0  0  0  0  0  0  0  0  0  0  0  0
   13.3798   15.5457   -6.3992 H   0  0  0  0  0  0  0  0  0  0  0  0
  2  1  2  0
  3  2  1  0
  4  3  2  0
  4  5  1  0
  5  6  2  0
  6  1  1  0
  1  7  1  0
  2  8  1  0
  3  9  1  0
 10 11  1  0
 11 12  2  0
 12 13  1  0
 13 14  2  0
 14 15  1  0
 14 16  1  0
 16 17  1  0
 17 18  1  0
 16 19  2  0
 19 11  1  0
 10 20  1  0
 13 21  1  0
 17 22  1  0
  5 10  1  0
M  END
>  <Score>  (1) 
-7.58776

$$$$

     RDKit          3D

 32 33  0  0  0  0  0  0  0  0999 V2000
   11.3329    8.0747   -5.0667 C   0  0  0  0  0  0  0  0  0  0  0  0
   11.4864    6.8612   -4.3585 C   0  0  0  0  0  0  0  0  0  0  0  0
   11.8701    6.9371   -3.0109 C   0  0  0  0  0  0  0  0  0  0  0  0
   12.0715    8.1689   -2.4656 N   0  0  0  0  0  0  0  0  0  0  0  0
   11.9145    9.3121   -3.1763 C   0  0  0  0  0  0  0  0  0  0  0  0
   11.5466    9.2569   -4.4710 N   0  0  0  0  0  0  0  0  0  0  0  0
   11.3151    5.9167   -4.8366 H   0  0  0  0  0  0  0  0  0  0  0  0
   12.0011    6.0490   -2.4272 H   0  0  0  0  0  0  0  0  0  0  0  0
   12.0881   10.2592   -2.6907 H   0  0  0  0  0  0  0  0  0  0  0  0
   10.9519    7.9405   -6.3969 O   0  0  0  0  0  0  0  0  0  0  0  0
    9.7468    8.5128   -6.8708 C   0  0  2  0  0  0  0  0  0  0  0  0
    8.8591    7.5997   -7.3721 O   0  0  0  0  0  0  0  0  0  0  0  0
    9.3776    6.8949   -8.4448 C   0  0  1  0  0  0  0  0  0  0  0  0
    8.4081    5.8376   -8.9086 C   0  0  0  0  0  0  0  0  0  0  0  0
    7.2070    6.4236   -9.3068 O   0  0  0  0  0  0  0  0  0  0  0  0
    9.6241    7.8908   -9.5646 C   0  0  1  0  0  0  0  0  0  0  0  0
    8.4576    8.6771   -9.6426 O   0  0  0  0  0  0  0  0  0  0  0  0
   10.7715    8.7731   -9.0563 C   0  0  1  0  0  0  0  0  0  0  0  0
   11.2736    9.5790  -10.0413 O   0  0  0  0  0  0  0  0  0  0  0  0
   10.1456    9.5663   -7.9052 C   0  0  2  0  0  0  0  0  0  0  0  0
   11.0272   10.4602   -7.3572 O   0  0  0  0  0  0  0  0  0  0  0  0
    9.2308    9.0396   -6.0182 H   0  0  0  0  0  0  0  0  0  0  0  0
   10.3542    6.4161   -8.2294 H   0  0  0  0  0  0  0  0  0  0  0  0
    8.8719    5.3540   -9.8045 H   0  0  0  0  0  0  0  0  0  0  0  0
    8.2271    5.0927   -8.1353 H   0  0  0  0  0  0  0  0  0  0  0  0
    7.3020    6.7309  -10.2514 H   0  0  0  0  0  0  0  0  0  0  0  0
    9.8741    7.4202  -10.5151 H   0  0  0  0  0  0  0  0  0  0  0  0
    8.5809    9.4771  -10.1775 H   0  0  0  0  0  0  0  0  0  0  0  0
   11.5429    8.1219   -8.5759 H   0  0  0  0  0  0  0  0  0  0  0  0
   11.0674   10.5141   -9.8261 H   0  0  0  0  0  0  0  0  0  0  0  0
    9.2314   10.0633   -8.2908 H   0  0  0  0  0  0  0  0  0  0  0  0
   10.6253   11.3527   -7.3667 H   0  0  0  0  0  0  0  0  0  0  0  0
  1  6  1  0
  1  2  2  0
  2  3  1  0
  3  4  2  0
  5  4  1  0
  6  5  2  0
  2  7  1  0
  3  8  1  0
  5  9  1  0
 10 11  1  0
 11 12  1  0
 12 13  1  0
 13 14  1  0
 14 15  1  0
 13 16  1  0
 16 17  1  0
 16 18  1  0
 18 19  1  0
 18 20  1  0
 20 21  1  0
 20 11  1  0
 11 22  1  1
 13 23  1  1
 14 24  1  0
 14 25  1  0
 15 26  1  0
 16 27  1  6
 17 28  1  0
 18 29  1  1
 19 30  1  0
 20 31  1  6
 21 32  1  0
  1 10  1  0
M  END
>  <Score>  (1) 
-8.10237

$$$$

     RDKit          3D

 32 33  0  0  0  0  0  0  0  0999 V2000
   11.3329    8.0749   -5.0668 C   0  0  0  0  0  0  0  0  0  0  0  0
   11.4868    6.8611   -4.3572 C   0  0  0  0  0  0  0  0  0  0  0  0
   11.8695    6.9351   -3.0130 C   0  0  0  0  0  0  0  0  0  0  0  0
   12.0716    8.1724   -2.4655 N   0  0  0  0  0  0  0  0  0  0  0  0
   11.9149    9.3106   -3.1748 C   0  0  0  0  0  0  0  0  0  0  0  0
   11.5464    9.2570   -4.4717 N   0  0  0  0  0  0  0  0  0  0  0  0
   11.3178    5.9179   -4.8272 H   0  0  0  0  0  0  0  0  0  0  0  0
   12.0008    6.0314   -2.4256 H   0  0  0  0  0  0  0  0  0  0  0  0
   12.0784   10.2716   -2.7266 H   0  0  0  0  0  0  0  0  0  0  0  0
   10.9525    7.9565   -6.3968 O   0  0  0  0  0  0  0  0  0  0  0  0
    9.6058    7.6220   -6.6868 C   0  0  2  0  0  0  0  0  0  0  0  0
    9.5586    6.4093   -7.3415 O   0  0  0  0  0  0  0  0  0  0  0  0
    8.4026    6.3339   -8.0899 C   0  0  2  0  0  0  0  0  0  0  0  0
    7.9875    4.9061   -8.3710 C   0  0  0  0  0  0  0  0  0  0  0  0
    7.7672    4.2552   -7.1588 O   0  0  0  0  0  0  0  0  0  0  0  0
    8.5824    7.1385   -9.3356 C   0  0  1  0  0  0  0  0  0  0  0  0
    7.4496    7.1646  -10.1378 O   0  0  0  0  0  0  0  0  0  0  0  0
    9.0115    8.5249   -8.9551 C   0  0  2  0  0  0  0  0  0  0  0  0
   10.3013    8.8333   -9.3831 O   0  0  0  0  0  0  0  0  0  0  0  0
    8.9767    8.7513   -7.4592 C   0  0  1  0  0  0  0  0  0  0  0  0
    7.6943    9.0649   -7.0041 O   0  0  0  0  0  0  0  0  0  0  0  0
    9.0113    7.4950   -5.7359 H   0  0  0  0  0  0  0  0  0  0  0  0
    7.5596    6.7827   -7.4929 H   0  0  0  0  0  0  0  0  0  0  0  0
    7.0499    4.9002   -8.9420 H   0  0  0  0  0  0  0  0  0  0  0  0
    8.7689    4.3566   -8.9039 H   0  0  0  0  0  0  0  0  0  0  0  0
    6.8113    4.1421   -6.9488 H   0  0  0  0  0  0  0  0  0  0  0  0
    9.4282    6.6725   -9.9178 H   0  0  0  0  0  0  0  0  0  0  0  0
    7.4418    8.0486  -10.5905 H   0  0  0  0  0  0  0  0  0  0  0  0
    8.3294    9.2523   -9.4324 H   0  0  0  0  0  0  0  0  0  0  0  0
   10.3917    9.8302   -9.3622 H   0  0  0  0  0  0  0  0  0  0  0  0
    9.5870    9.6853   -7.2821 H   0  0  0  0  0  0  0  0  0  0  0  0
    7.5293    8.7490   -6.0892 H   0  0  0  0  0  0  0  0  0  0  0  0
  1  6  1  0
  1  2  2  0
  2  3  1  0
  3  4  2  0
  5  4  1  0
  6  5  2  0
  2  7  1  0
  3  8  1  0
  5  9  1  0
 10 11  1  0
 11 12  1  0
 12 13  1  0
 13 14  1  0
 14 15  1  0
 13 16  1  0
 16 17  1  0
 16 18  1  0
 18 19  1  0
 18 20  1  0
 20 21  1  0
 20 11  1  0
 11 22  1  1
 13 23  1  1
 14 24  1  0
 14 25  1  0
 15 26  1  0
 16 27  1  6
 17 28  1  0
 18 29  1  6
 19 30  1  0
 20 31  1  6
 21 32  1  0
  1 10  1  0
M  END
>  <Score>  (1) 
-7.9988

$$$$

     RDKit          3D

 32 33  0  0  0  0  0  0  0  0999 V2000
   11.3328    8.0737   -5.0669 C   0  0  0  0  0  0  0  0  0  0  0  0
   11.4867    6.8616   -4.3575 C   0  0  0  0  0  0  0  0  0  0  0  0
   11.8695    6.9351   -3.0129 C   0  0  0  0  0  0  0  0  0  0  0  0
   12.0716    8.1725   -2.4656 N   0  0  0  0  0  0  0  0  0  0  0  0
   11.9148    9.3103   -3.1750 C   0  0  0  0  0  0  0  0  0  0  0  0
   11.5466    9.2578   -4.4711 N   0  0  0  0  0  0  0  0  0  0  0  0
   11.3128    5.9092   -4.8439 H   0  0  0  0  0  0  0  0  0  0  0  0
   11.9874    6.0285   -2.4725 H   0  0  0  0  0  0  0  0  0  0  0  0
   12.0926   10.2379   -2.6716 H   0  0  0  0  0  0  0  0  0  0  0  0
   10.9547    7.9446   -6.3875 O   0  0  0  0  0  0  0  0  0  0  0  0
   11.6866    7.2626   -7.3617 C   0  0  1  0  0  0  0  0  0  0  0  0
   10.8744    6.1877   -7.7928 O   0  0  0  0  0  0  0  0  0  0  0  0
   11.7584    5.3475   -8.5094 C   0  0  1  0  0  0  0  0  0  0  0  0
   11.1284    3.9943   -8.5398 C   0  0  0  0  0  0  0  0  0  0  0  0
   11.8637    3.0444   -9.2054 O   0  0  0  0  0  0  0  0  0  0  0  0
   11.9457    5.9596   -9.8556 C   0  0  1  0  0  0  0  0  0  0  0  0
   10.8134    5.8008  -10.6751 O   0  0  0  0  0  0  0  0  0  0  0  0
   12.3837    7.3744   -9.7735 C   0  0  2  0  0  0  0  0  0  0  0  0
   13.7746    7.4865   -9.8868 O   0  0  0  0  0  0  0  0  0  0  0  0
   11.9406    8.1168   -8.5665 C   0  0  2  0  0  0  0  0  0  0  0  0
   12.8411    9.1151   -8.1924 O   0  0  0  0  0  0  0  0  0  0  0  0
   12.6344    6.8190   -6.9578 H   0  0  0  0  0  0  0  0  0  0  0  0
   12.7398    5.3254   -8.0006 H   0  0  0  0  0  0  0  0  0  0  0  0
   10.0953    4.0926   -8.9635 H   0  0  0  0  0  0  0  0  0  0  0  0
   10.9733    3.6751   -7.4773 H   0  0  0  0  0  0  0  0  0  0  0  0
   11.8372    2.1986   -8.6911 H   0  0  0  0  0  0  0  0  0  0  0  0
   12.7599    5.3849  -10.3874 H   0  0  0  0  0  0  0  0  0  0  0  0
   10.9244    6.4669  -11.4033 H   0  0  0  0  0  0  0  0  0  0  0  0
   11.9761    7.9099  -10.6804 H   0  0  0  0  0  0  0  0  0  0  0  0
   14.1791    7.7336   -9.0186 H   0  0  0  0  0  0  0  0  0  0  0  0
   10.9809    8.6478   -8.7961 H   0  0  0  0  0  0  0  0  0  0  0  0
   12.5359   10.0193   -8.4032 H   0  0  0  0  0  0  0  0  0  0  0  0
  1  6  1  0
  1  2  2  0
  2  3  1  0
  3  4  2  0
  5  4  1  0
  6  5  2  0
  2  7  1  0
  3  8  1  0
  5  9  1  0
 10 11  1  0
 11 12  1  0
 12 13  1  0
 13 14  1  0
 14 15  1  0
 13 16  1  0
 16 17  1  0
 16 18  1  0
 18 19  1  0
 18 20  1  0
 20 21  1  0
 20 11  1  0
 11 22  1  1
 13 23  1  1
 14 24  1  0
 14 25  1  0
 15 26  1  0
 16 27  1  6
 17 28  1  0
 18 29  1  6
 19 30  1  0
 20 31  1  6
 21 32  1  0
  1 10  1  0
M  END
>  <Score>  (1) 
-7.93571

$$$$

     RDKit          3D

 32 33  0  0  0  0  0  0  0  0999 V2000
   11.3327    8.0701   -5.0666 C   0  0  0  0  0  0  0  0  0  0  0  0
   11.4867    6.8641   -4.3581 C   0  0  0  0  0  0  0  0  0  0  0  0
   11.8693    6.9344   -3.0134 C   0  0  0  0  0  0  0  0  0  0  0  0
   12.0717    8.1724   -2.4652 N   0  0  0  0  0  0  0  0  0  0  0  0
   11.9146    9.3109   -3.1758 C   0  0  0  0  0  0  0  0  0  0  0  0
   11.5470    9.2591   -4.4698 N   0  0  0  0  0  0  0  0  0  0  0  0
   11.3179    5.9052   -4.8253 H   0  0  0  0  0  0  0  0  0  0  0  0
   11.9996    6.0339   -2.4303 H   0  0  0  0  0  0  0  0  0  0  0  0
   12.1000   10.2412   -2.6460 H   0  0  0  0  0  0  0  0  0  0  0  0
   10.9572    7.9528   -6.3798 O   0  0  0  0  0  0  0  0  0  0  0  0
   11.4803    7.0658   -7.3164 C   0  0  1  0  0  0  0  0  0  0  0  0
   10.4349    6.2549   -7.7677 O   0  0  0  0  0  0  0  0  0  0  0  0
   11.0394    5.1341   -8.3673 C   0  0  1  0  0  0  0  0  0  0  0  0
    9.9485    4.0980   -8.5283 C   0  0  0  0  0  0  0  0  0  0  0  0
    9.4755    3.8277   -7.2236 O   0  0  0  0  0  0  0  0  0  0  0  0
   11.6214    5.5734   -9.6686 C   0  0  1  0  0  0  0  0  0  0  0  0
   10.8641    5.0887  -10.7383 O   0  0  0  0  0  0  0  0  0  0  0  0
   11.6464    7.0904   -9.8064 C   0  0  1  0  0  0  0  0  0  0  0  0
   10.3984    7.5782  -10.1632 O   0  0  0  0  0  0  0  0  0  0  0  0
   12.0671    7.7570   -8.5270 C   0  0  2  0  0  0  0  0  0  0  0  0
   13.4486    7.8393   -8.4774 O   0  0  0  0  0  0  0  0  0  0  0  0
   12.2783    6.4093   -6.9091 H   0  0  0  0  0  0  0  0  0  0  0  0
   11.8178    4.7827   -7.6865 H   0  0  0  0  0  0  0  0  0  0  0  0
    9.0796    4.5244   -9.0677 H   0  0  0  0  0  0  0  0  0  0  0  0
   10.2718    3.1961   -9.0484 H   0  0  0  0  0  0  0  0  0  0  0  0
    9.5572    2.8641   -7.0072 H   0  0  0  0  0  0  0  0  0  0  0  0
   12.6827    5.2371   -9.7637 H   0  0  0  0  0  0  0  0  0  0  0  0
   11.4289    4.4663  -11.2585 H   0  0  0  0  0  0  0  0  0  0  0  0
   12.3576    7.3221  -10.6295 H   0  0  0  0  0  0  0  0  0  0  0  0
   10.3697    8.5336   -9.9447 H   0  0  0  0  0  0  0  0  0  0  0  0
   11.6581    8.7999   -8.5542 H   0  0  0  0  0  0  0  0  0  0  0  0
   13.8285    7.1150   -7.9445 H   0  0  0  0  0  0  0  0  0  0  0  0
  1  6  1  0
  1  2  2  0
  2  3  1  0
  3  4  2  0
  5  4  1  0
  6  5  2  0
  2  7  1  0
  3  8  1  0
  5  9  1  0
 10 11  1  0
 11 12  1  0
 12 13  1  0
 13 14  1  0
 14 15  1  0
 13 16  1  0
 16 17  1  0
 16 18  1  0
 18 19  1  0
 18 20  1  0
 20 21  1  0
 20 11  1  0
 11 22  1  1
 13 23  1  1
 14 24  1  0
 14 25  1  0
 15 26  1  0
 16 27  1  6
 17 28  1  0
 18 29  1  6
 19 30  1  0
 20 31  1  6
 21 32  1  0
  1 10  1  0
M  END
>  <Score>  (1) 
-7.74018

$$$$

     RDKit          3D

 32 33  0  0  0  0  0  0  0  0999 V2000
   11.3329    8.0743   -5.0666 C   0  0  0  0  0  0  0  0  0  0  0  0
   11.4866    6.8615   -4.3578 C   0  0  0  0  0  0  0  0  0  0  0  0
   11.8696    6.9352   -3.0125 C   0  0  0  0  0  0  0  0  0  0  0  0
   12.0716    8.1724   -2.4656 N   0  0  0  0  0  0  0  0  0  0  0  0
   11.9149    9.3105   -3.1747 C   0  0  0  0  0  0  0  0  0  0  0  0
   11.5464    9.2572   -4.4717 N   0  0  0  0  0  0  0  0  0  0  0  0
   11.3124    5.9191   -4.8464 H   0  0  0  0  0  0  0  0  0  0  0  0
   11.9967    6.0293   -2.4397 H   0  0  0  0  0  0  0  0  0  0  0  0
   12.0957   10.2423   -2.6613 H   0  0  0  0  0  0  0  0  0  0  0  0
   10.9566    7.9480   -6.3811 O   0  0  0  0  0  0  0  0  0  0  0  0
   10.7412    6.6902   -6.9729 C   0  0  2  0  0  0  0  0  0  0  0  0
   11.5994    6.5841   -8.0530 O   0  0  0  0  0  0  0  0  0  0  0  0
   11.4005    5.4665   -8.8263 C   0  0  1  0  0  0  0  0  0  0  0  0
   11.5457    4.1891   -8.0318 C   0  0  0  0  0  0  0  0  0  0  0  0
   11.3329    3.0972   -8.8711 O   0  0  0  0  0  0  0  0  0  0  0  0
   10.0646    5.5544   -9.5222 C   0  0  1  0  0  0  0  0  0  0  0  0
    9.4123    4.3278   -9.4230 O   0  0  0  0  0  0  0  0  0  0  0  0
    9.1709    6.6020   -8.8947 C   0  0  2  0  0  0  0  0  0  0  0  0
    9.4198    7.8574   -9.4076 O   0  0  0  0  0  0  0  0  0  0  0  0
    9.2860    6.5323   -7.4015 C   0  0  2  0  0  0  0  0  0  0  0  0
    8.5797    7.5943   -6.8647 O   0  0  0  0  0  0  0  0  0  0  0  0
   10.9248    5.9162   -6.2177 H   0  0  0  0  0  0  0  0  0  0  0  0
   12.2123    5.4632   -9.6001 H   0  0  0  0  0  0  0  0  0  0  0  0
   10.7996    4.1475   -7.2249 H   0  0  0  0  0  0  0  0  0  0  0  0
   12.5926    4.1531   -7.6610 H   0  0  0  0  0  0  0  0  0  0  0  0
   11.9150    2.3664   -8.5546 H   0  0  0  0  0  0  0  0  0  0  0  0
   10.2121    5.8624  -10.5939 H   0  0  0  0  0  0  0  0  0  0  0  0
    8.8961    4.1236  -10.2397 H   0  0  0  0  0  0  0  0  0  0  0  0
    8.1256    6.3248   -9.1759 H   0  0  0  0  0  0  0  0  0  0  0  0
   10.3664    8.1174   -9.3357 H   0  0  0  0  0  0  0  0  0  0  0  0
    8.8636    5.5578   -7.0813 H   0  0  0  0  0  0  0  0  0  0  0  0
    7.6019    7.4501   -7.0451 H   0  0  0  0  0  0  0  0  0  0  0  0
  1  6  1  0
  1  2  2  0
  2  3  1  0
  3  4  2  0
  5  4  1  0
  6  5  2  0
  2  7  1  0
  3  8  1  0
  5  9  1  0
 10 11  1  0
 11 12  1  0
 12 13  1  0
 13 14  1  0
 14 15  1  0
 13 16  1  0
 16 17  1  0
 16 18  1  0
 18 19  1  0
 18 20  1  0
 20 21  1  0
 20 11  1  0
 11 22  1  1
 13 23  1  6
 14 24  1  0
 14 25  1  0
 15 26  1  0
 16 27  1  6
 17 28  1  0
 18 29  1  1
 19 30  1  0
 20 31  1  1
 21 32  1  0
  1 10  1  0
M  END
>  <Score>  (1) 
-7.54363

$$$$

     RDKit          3D

 24 25  0  0  0  0  0  0  0  0999 V2000
   11.3328    8.0704   -5.0664 C   0  0  0  0  0  0  0  0  0  0  0  0
   11.4857    6.8634   -4.3613 C   0  0  0  0  0  0  0  0  0  0  0  0
   11.8705    6.9372   -3.0094 C   0  0  0  0  0  0  0  0  0  0  0  0
   12.0715    8.1691   -2.4655 N   0  0  0  0  0  0  0  0  0  0  0  0
   11.9141    9.3118   -3.1777 C   0  0  0  0  0  0  0  0  0  0  0  0
   11.5473    9.2592   -4.4687 N   0  0  0  0  0  0  0  0  0  0  0  0
   11.3168    5.9122   -4.8299 H   0  0  0  0  0  0  0  0  0  0  0  0
   12.0004    6.0390   -2.4281 H   0  0  0  0  0  0  0  0  0  0  0  0
   12.1012   10.2320   -2.6405 H   0  0  0  0  0  0  0  0  0  0  0  0
   10.9532    7.9938   -6.3995 O   0  0  0  0  0  0  0  0  0  0  0  0
   10.7764    9.1366   -7.1802 C   0  0  0  0  0  0  0  0  0  0  0  0
   10.3769    8.7969   -8.5482 C   0  0  0  0  0  0  0  0  0  0  0  0
   10.1466    9.7605   -9.4934 C   0  0  0  0  0  0  0  0  0  0  0  0
    9.7680    9.3974  -10.7845 C   0  0  0  0  0  0  0  0  0  0  0  0
    9.6267    8.0662  -11.1049 C   0  0  0  0  0  0  0  0  0  0  0  0
    9.8563    7.0904  -10.1607 C   0  0  0  0  0  0  0  0  0  0  0  0
    9.6604    5.4081  -10.6268 Cl  0  0  0  0  0  0  0  0  0  0  0  0
   10.2280    7.4737   -8.8966 C   0  0  0  0  0  0  0  0  0  0  0  0
   11.6806    9.7852   -7.1385 H   0  0  0  0  0  0  0  0  0  0  0  0
    9.9352    9.7220   -6.7096 H   0  0  0  0  0  0  0  0  0  0  0  0
   10.2581   10.8028   -9.2395 H   0  0  0  0  0  0  0  0  0  0  0  0
    9.5903   10.1672  -11.5172 H   0  0  0  0  0  0  0  0  0  0  0  0
    9.3335    7.8024  -12.1070 H   0  0  0  0  0  0  0  0  0  0  0  0
   10.4021    6.6693   -8.1719 H   0  0  0  0  0  0  0  0  0  0  0  0
  1  6  1  0
  1  2  2  0
  2  3  1  0
  3  4  2  0
  5  4  1  0
  6  5  2  0
  2  7  1  0
  3  8  1  0
  5  9  1  0
 10 11  1  0
 11 12  1  0
 12 13  2  0
 13 14  1  0
 14 15  2  0
 15 16  1  0
 16 17  1  0
 16 18  2  0
 18 12  1  0
 11 19  1  0
 11 20  1  0
 13 21  1  0
 14 22  1  0
 15 23  1  0
 18 24  1  0
  1 10  1  0
M  END
>  <Score>  (1) 
-7.44469

$$$$

     RDKit          3D

 22 23  0  0  0  0  0  0  0  0999 V2000
   11.3319    8.0719   -5.0682 C   0  0  0  0  0  0  0  0  0  0  0  0
   11.4849    6.8658   -4.3661 C   0  0  0  0  0  0  0  0  0  0  0  0
   11.8713    6.9363   -3.0067 C   0  0  0  0  0  0  0  0  0  0  0  0
   12.0707    8.1777   -2.4680 N   0  0  0  0  0  0  0  0  0  0  0  0
   11.9148    9.3076   -3.1763 C   0  0  0  0  0  0  0  0  0  0  0  0
   11.5484    9.2516   -4.4638 N   0  0  0  0  0  0  0  0  0  0  0  0
   11.3271    5.9136   -4.8007 H   0  0  0  0  0  0  0  0  0  0  0  0
   12.0014    6.0393   -2.4212 H   0  0  0  0  0  0  0  0  0  0  0  0
   12.0801   10.2584   -2.7197 H   0  0  0  0  0  0  0  0  0  0  0  0
   12.5791    8.8452  -10.5094 H   0  0  0  0  0  0  0  0  0  0  0  0
   12.5791    8.0515   -9.7568 C   0  0  0  0  0  0  0  0  0  0  0  0
   13.4879    7.1923   -9.8344 O   0  0  0  0  0  0  0  0  0  0  0  0
   11.5623    8.0392   -8.7482 C   0  0  0  0  0  0  0  0  0  0  0  0
   10.2210    8.0209   -9.1380 C   0  0  0  0  0  0  0  0  0  0  0  0
    9.2123    8.0141   -8.1997 C   0  0  0  0  0  0  0  0  0  0  0  0
    9.6077    8.0276   -6.8727 C   0  0  0  0  0  0  0  0  0  0  0  0
   10.9222    8.0466   -6.4613 C   0  0  0  0  0  0  0  0  0  0  0  0
   11.9153    8.0518   -7.4233 C   0  0  0  0  0  0  0  0  0  0  0  0
   13.6240    8.0749   -6.9467 Cl  0  0  0  0  0  0  0  0  0  0  0  0
    9.9613    8.0090  -10.1980 H   0  0  0  0  0  0  0  0  0  0  0  0
    8.1616    7.9993   -8.5007 H   0  0  0  0  0  0  0  0  0  0  0  0
    8.7834    8.0198   -6.1619 H   0  0  0  0  0  0  0  0  0  0  0  0
  1  6  1  0
  1  2  2  0
  2  3  1  0
  3  4  2  0
  5  4  1  0
  6  5  2  0
  2  7  1  0
  3  8  1  0
  5  9  1  0
 10 11  1  0
 11 12  2  0
 11 13  1  0
 13 14  2  0
 14 15  1  0
 15 16  2  0
 16 17  1  0
 17 18  2  0
 18 19  1  0
 18 13  1  0
 14 20  1  0
 15 21  1  0
 16 22  1  0
  1 17  1  0
M  END
>  <Score>  (1) 
-7.40524

$$$$

     RDKit          3D

 32 33  0  0  0  0  0  0  0  0999 V2000
   11.3330    8.0735   -5.0662 C   0  0  0  0  0  0  0  0  0  0  0  0
   11.4863    6.8622   -4.3591 C   0  0  0  0  0  0  0  0  0  0  0  0
   11.8699    6.9356   -3.0115 C   0  0  0  0  0  0  0  0  0  0  0  0
   12.0716    8.1716   -2.4657 N   0  0  0  0  0  0  0  0  0  0  0  0
   11.9148    9.3108   -3.1752 C   0  0  0  0  0  0  0  0  0  0  0  0
   11.5465    9.2573   -4.4714 N   0  0  0  0  0  0  0  0  0  0  0  0
   11.3198    5.9135   -4.8193 H   0  0  0  0  0  0  0  0  0  0  0  0
   11.9899    6.0328   -2.4641 H   0  0  0  0  0  0  0  0  0  0  0  0
   12.0896   10.2706   -2.6867 H   0  0  0  0  0  0  0  0  0  0  0  0
   10.9534    7.9298   -6.3899 O   0  0  0  0  0  0  0  0  0  0  0  0
   10.7343    6.6694   -6.9938 C   0  0  1  0  0  0  0  0  0  0  0  0
    9.3998    6.5993   -7.3258 O   0  0  0  0  0  0  0  0  0  0  0  0
    9.0772    5.4722   -8.0837 C   0  0  1  0  0  0  0  0  0  0  0  0
    7.5746    5.3766   -8.1346 C   0  0  0  0  0  0  0  0  0  0  0  0
    6.9795    6.4721   -8.7049 O   0  0  0  0  0  0  0  0  0  0  0  0
    9.7016    5.6628   -9.4309 C   0  0  2  0  0  0  0  0  0  0  0  0
    9.3773    4.6659  -10.3401 O   0  0  0  0  0  0  0  0  0  0  0  0
   11.2046    5.6304   -9.2331 C   0  0  1  0  0  0  0  0  0  0  0  0
   11.8801    5.9223  -10.4155 O   0  0  0  0  0  0  0  0  0  0  0  0
   11.6742    6.5272   -8.1369 C   0  0  2  0  0  0  0  0  0  0  0  0
   12.8733    5.9745   -7.6275 O   0  0  0  0  0  0  0  0  0  0  0  0
   10.9173    5.8551   -6.2359 H   0  0  0  0  0  0  0  0  0  0  0  0
    9.5357    4.6015   -7.5915 H   0  0  0  0  0  0  0  0  0  0  0  0
    7.3232    4.4156   -8.6530 H   0  0  0  0  0  0  0  0  0  0  0  0
    7.1868    5.2790   -7.0999 H   0  0  0  0  0  0  0  0  0  0  0  0
    6.3833    6.2682   -9.4555 H   0  0  0  0  0  0  0  0  0  0  0  0
    9.4579    6.6867   -9.8390 H   0  0  0  0  0  0  0  0  0  0  0  0
    9.4304    5.0977  -11.2498 H   0  0  0  0  0  0  0  0  0  0  0  0
   11.4663    4.5717   -8.9675 H   0  0  0  0  0  0  0  0  0  0  0  0
   12.0739    5.0992  -10.9318 H   0  0  0  0  0  0  0  0  0  0  0  0
   11.9779    7.5413   -8.5175 H   0  0  0  0  0  0  0  0  0  0  0  0
   13.4452    5.6667   -8.3771 H   0  0  0  0  0  0  0  0  0  0  0  0
  1  6  1  0
  1  2  2  0
  2  3  1  0
  3  4  2  0
  5  4  1  0
  6  5  2  0
  2  7  1  0
  3  8  1  0
  5  9  1  0
 10 11  1  0
 11 12  1  0
 12 13  1  0
 13 14  1  0
 14 15  1  0
 13 16  1  0
 16 17  1  0
 16 18  1  0
 18 19  1  0
 18 20  1  0
 20 21  1  0
 20 11  1  0
 11 22  1  1
 13 23  1  1
 14 24  1  0
 14 25  1  0
 15 26  1  0
 16 27  1  6
 17 28  1  0
 18 29  1  1
 19 30  1  0
 20 31  1  6
 21 32  1  0
  1 10  1  0
M  END
>  <Score>  (1) 
-7.39246

$$$$

     RDKit          3D

 30 31  0  0  0  0  0  0  0  0999 V2000
   11.3335    8.0748   -5.0643 C   0  0  0  0  0  0  0  0  0  0  0  0
   11.4859    6.8658   -4.3609 C   0  0  0  0  0  0  0  0  0  0  0  0
   11.8699    6.9340   -3.0112 C   0  0  0  0  0  0  0  0  0  0  0  0
   12.0718    8.1742   -2.4653 N   0  0  0  0  0  0  0  0  0  0  0  0
   11.9158    9.3099   -3.1716 C   0  0  0  0  0  0  0  0  0  0  0  0
   11.5451    9.2522   -4.4756 N   0  0  0  0  0  0  0  0  0  0  0  0
   11.3135    5.9130   -4.8416 H   0  0  0  0  0  0  0  0  0  0  0  0
   11.9978    6.0376   -2.4370 H   0  0  0  0  0  0  0  0  0  0  0  0
   12.0909   10.2504   -2.6797 H   0  0  0  0  0  0  0  0  0  0  0  0
   10.9492    8.0138   -6.4242 N   0  0  0  0  0  0  0  0  0  0  0  0
   11.5844    8.8117   -7.4437 C   0  0  2  0  0  0  0  0  0  0  0  0
   11.4542   10.2841   -7.2366 C   0  0  0  0  0  0  0  0  0  0  0  0
   10.0316   10.7720   -7.3908 C   0  0  0  0  0  0  0  0  0  0  0  0
    9.3008    9.9664   -8.4734 C   0  0  0  0  0  0  0  0  0  0  0  0
   10.3890    9.5514   -9.4650 C   0  0  0  0  0  0  0  0  0  0  0  0
   11.1340    8.3977   -8.8246 C   0  0  2  0  0  0  0  0  0  0  0  0
   10.1808    7.2886   -8.7521 N   0  0  0  0  0  0  0  0  0  0  0  0
   10.1704    7.3687   -6.7339 H   0  0  0  0  0  0  0  0  0  0  0  0
   12.6907    8.5847   -7.4102 H   0  0  0  0  0  0  0  0  0  0  0  0
   11.8560   10.5768   -6.2682 H   0  0  0  0  0  0  0  0  0  0  0  0
   12.0990   10.7774   -8.0097 H   0  0  0  0  0  0  0  0  0  0  0  0
   10.0844   11.8112   -7.7744 H   0  0  0  0  0  0  0  0  0  0  0  0
    9.5089   10.7201   -6.4268 H   0  0  0  0  0  0  0  0  0  0  0  0
    8.8572    9.0879   -7.9779 H   0  0  0  0  0  0  0  0  0  0  0  0
    8.5318   10.5997   -8.9787 H   0  0  0  0  0  0  0  0  0  0  0  0
    9.8909    9.2191  -10.3996 H   0  0  0  0  0  0  0  0  0  0  0  0
   11.0305   10.3953   -9.7174 H   0  0  0  0  0  0  0  0  0  0  0  0
   11.9450    8.0999   -9.4861 H   0  0  0  0  0  0  0  0  0  0  0  0
   10.6428    6.3997   -8.5060 H   0  0  0  0  0  0  0  0  0  0  0  0
    9.7992    7.1815   -9.7272 H   0  0  0  0  0  0  0  0  0  0  0  0
  1  6  1  0
  1  2  2  0
  2  3  1  0
  3  4  2  0
  5  4  1  0
  6  5  2  0
  2  7  1  0
  3  8  1  0
  5  9  1  0
 10 11  1  0
 11 12  1  0
 12 13  1  0
 13 14  1  0
 14 15  1  0
 15 16  1  0
 16 17  1  0
 16 11  1  0
 10 18  1  0
 11 19  1  6
 12 20  1  0
 12 21  1  0
 13 22  1  0
 13 23  1  0
 14 24  1  0
 14 25  1  0
 15 26  1  0
 15 27  1  0
 16 28  1  6
 17 29  1  0
 17 30  1  0
  1 10  1  0
M  END
>  <Score>  (1) 
-7.32768

$$$$

     RDKit          3D

 31 32  0  0  0  0  0  0  0  0999 V2000
   11.3329    8.0752   -5.0668 C   0  0  0  0  0  0  0  0  0  0  0  0
   11.4869    6.8610   -4.3569 C   0  0  0  0  0  0  0  0  0  0  0  0
   11.8694    6.9347   -3.0133 C   0  0  0  0  0  0  0  0  0  0  0  0
   12.0716    8.1733   -2.4657 N   0  0  0  0  0  0  0  0  0  0  0  0
   11.9151    9.3100   -3.1740 C   0  0  0  0  0  0  0  0  0  0  0  0
   11.5462    9.2568   -4.4722 N   0  0  0  0  0  0  0  0  0  0  0  0
   11.3133    5.9152   -4.8429 H   0  0  0  0  0  0  0  0  0  0  0  0
   11.9947    6.0356   -2.4478 H   0  0  0  0  0  0  0  0  0  0  0  0
   12.0967   10.2404   -2.6575 H   0  0  0  0  0  0  0  0  0  0  0  0
   10.9255    7.9297   -6.4884 C   0  0  1  0  0  0  0  0  0  0  0  0
    9.9061    6.9916   -6.5103 O   0  0  0  0  0  0  0  0  0  0  0  0
    9.5473    6.5799   -7.7686 C   0  0  1  0  0  0  0  0  0  0  0  0
    8.0738    6.1554   -7.6857 C   0  0  0  0  0  0  0  0  0  0  0  0
    7.6311    5.7209   -8.9341 O   0  0  0  0  0  0  0  0  0  0  0  0
    9.7960    7.5436   -8.8598 C   0  0  1  0  0  0  0  0  0  0  0  0
    8.7697    7.4121   -9.8111 O   0  0  0  0  0  0  0  0  0  0  0  0
    9.8915    8.9739   -8.4488 C   0  0  1  0  0  0  0  0  0  0  0  0
    8.6508    9.6039   -8.6706 O   0  0  0  0  0  0  0  0  0  0  0  0
   10.4050    9.2046   -7.0753 C   0  0  2  0  0  0  0  0  0  0  0  0
   11.4673   10.1304   -7.0535 O   0  0  0  0  0  0  0  0  0  0  0  0
   11.8087    7.6225   -7.0760 H   0  0  0  0  0  0  0  0  0  0  0  0
   10.1042    5.6254   -7.9752 H   0  0  0  0  0  0  0  0  0  0  0  0
    7.9795    5.2864   -7.0021 H   0  0  0  0  0  0  0  0  0  0  0  0
    7.4869    6.9738   -7.2682 H   0  0  0  0  0  0  0  0  0  0  0  0
    7.4390    4.7473   -8.9558 H   0  0  0  0  0  0  0  0  0  0  0  0
   10.7375    7.2481   -9.4091 H   0  0  0  0  0  0  0  0  0  0  0  0
    8.0417    8.0456   -9.6788 H   0  0  0  0  0  0  0  0  0  0  0  0
   10.6018    9.4855   -9.1630 H   0  0  0  0  0  0  0  0  0  0  0  0
    8.6111   10.0024   -9.5774 H   0  0  0  0  0  0  0  0  0  0  0  0
    9.5641    9.6335   -6.4654 H   0  0  0  0  0  0  0  0  0  0  0  0
   11.1430   11.0377   -6.8342 H   0  0  0  0  0  0  0  0  0  0  0  0
  1  6  1  0
  1  2  2  0
  2  3  1  0
  3  4  2  0
  5  4  1  0
  6  5  2  0
  2  7  1  0
  3  8  1  0
  5  9  1  0
 10 11  1  0
 11 12  1  0
 12 13  1  0
 13 14  1  0
 12 15  1  0
 15 16  1  0
 15 17  1  0
 17 18  1  0
 17 19  1  0
 19 20  1  0
 19 10  1  0
 10 21  1  6
 12 22  1  6
 13 23  1  0
 13 24  1  0
 14 25  1  0
 15 26  1  6
 16 27  1  0
 17 28  1  6
 18 29  1  0
 19 30  1  1
 20 31  1  0
  1 10  1  0
M  END
>  <Score>  (1) 
-7.30575

$$$$

     RDKit          3D

 23 24  0  0  0  0  0  0  0  0999 V2000
   12.3019    8.1186   -2.3027 C   0  0  0  0  0  0  0  0  0  0  0  0
   12.0220    6.8846   -2.9115 C   0  0  0  0  0  0  0  0  0  0  0  0
   11.5243    6.9018   -4.2254 C   0  0  0  0  0  0  0  0  0  0  0  0
   11.3436    8.1070   -4.8281 N   0  0  0  0  0  0  0  0  0  0  0  0
   11.6246    9.2769   -4.2096 C   0  0  0  0  0  0  0  0  0  0  0  0
   12.0986    9.2820   -2.9606 N   0  0  0  0  0  0  0  0  0  0  0  0
   12.6814    8.0569   -1.2957 H   0  0  0  0  0  0  0  0  0  0  0  0
   12.1793    5.9490   -2.3990 H   0  0  0  0  0  0  0  0  0  0  0  0
   11.2861    5.9931   -4.7583 H   0  0  0  0  0  0  0  0  0  0  0  0
   11.3841   10.5012   -4.9720 C   0  0  0  0  0  0  0  0  0  0  0  0
   10.8896   10.4504   -6.2708 C   0  0  0  0  0  0  0  0  0  0  0  0
   10.6548   11.5889   -7.0098 C   0  0  0  0  0  0  0  0  0  0  0  0
   10.9224   12.8064   -6.4318 C   0  0  0  0  0  0  0  0  0  0  0  0
   11.4122   12.8469   -5.1440 C   0  0  0  0  0  0  0  0  0  0  0  0
   11.6101   13.8269   -4.7251 H   0  0  0  0  0  0  0  0  0  0  0  0
   11.6552   11.7131   -4.3840 C   0  0  0  0  0  0  0  0  0  0  0  0
   12.1838   11.8586   -3.0052 C   0  0  0  0  0  0  0  0  0  0  0  0
   10.6838    9.4769   -6.7115 H   0  0  0  0  0  0  0  0  0  0  0  0
   10.2706   11.4705   -8.0104 H   0  0  0  0  0  0  0  0  0  0  0  0
   10.7332   13.6868   -7.0231 H   0  0  0  0  0  0  0  0  0  0  0  0
   12.2870   12.9546   -2.7618 H   0  0  0  0  0  0  0  0  0  0  0  0
   13.1858   11.3902   -2.8757 H   0  0  0  0  0  0  0  0  0  0  0  0
   11.5002   11.4634   -2.2424 H   0  0  0  0  0  0  0  0  0  0  0  0
  2  1  2  0
  3  2  1  0
  4  3  2  0
  4  5  1  0
  5  6  2  0
  6  1  1  0
  1  7  1  0
  2  8  1  0
  3  9  1  0
 10 11  2  0
 11 12  1  0
 12 13  2  0
 13 14  1  0
 14 15  1  0
 14 16  2  0
 16 17  1  0
 16 10  1  0
 11 18  1  0
 12 19  1  0
 13 20  1  0
 17 21  1  0
 17 22  1  0
 17 23  1  0
  5 10  1  0
M  END
>  <Score>  (1) 
-7.5817

$$$$

     RDKit          3D

 27 29  0  0  0  0  0  0  0  0999 V2000
   12.3029    8.1259   -2.3009 C   0  0  0  0  0  0  0  0  0  0  0  0
   12.0204    6.8814   -2.9154 C   0  0  0  0  0  0  0  0  0  0  0  0
   11.5252    6.8957   -4.2226 C   0  0  0  0  0  0  0  0  0  0  0  0
   11.3431    8.1140   -4.8302 N   0  0  0  0  0  0  0  0  0  0  0  0
   11.6226    9.2740   -4.2146 C   0  0  0  0  0  0  0  0  0  0  0  0
   12.1009    9.2801   -2.9542 N   0  0  0  0  0  0  0  0  0  0  0  0
   12.6831    8.0595   -1.2916 H   0  0  0  0  0  0  0  0  0  0  0  0
   12.1901    5.9663   -2.3722 H   0  0  0  0  0  0  0  0  0  0  0  0
   11.2992    5.9842   -4.7232 H   0  0  0  0  0  0  0  0  0  0  0  0
   11.4219   10.5627   -4.8786 C   0  0  0  0  0  0  0  0  0  0  0  0
   11.5382   10.6901   -6.2449 C   0  0  0  0  0  0  0  0  0  0  0  0
   11.3436   11.9189   -6.8471 C   0  0  0  0  0  0  0  0  0  0  0  0
   11.4560   12.0468   -8.1776 N   0  0  0  0  0  0  0  0  0  0  0  0
   11.2697   13.2318   -8.7708 C   0  0  0  0  0  0  0  0  0  0  0  0
   10.9650   14.3223   -8.0441 N   0  0  0  0  0  0  0  0  0  0  0  0
   10.7718   15.5745   -8.7072 C   0  0  0  0  0  0  0  0  0  0  0  0
   10.8351   14.2739   -6.7065 C   0  0  0  0  0  0  0  0  0  0  0  0
   10.5505   15.2803   -6.0022 O   0  0  0  0  0  0  0  0  0  0  0  0
   11.0293   13.0439   -6.0971 C   0  0  0  0  0  0  0  0  0  0  0  0
   10.9240   12.8648   -4.7319 C   0  0  0  0  0  0  0  0  0  0  0  0
   10.6764   13.7588   -4.1565 H   0  0  0  0  0  0  0  0  0  0  0  0
   11.1152   11.6597   -4.1451 N   0  0  0  0  0  0  0  0  0  0  0  0
   11.7842    9.7981   -6.8087 H   0  0  0  0  0  0  0  0  0  0  0  0
   11.3754   13.2719   -9.8620 H   0  0  0  0  0  0  0  0  0  0  0  0
   10.8299   15.4577   -9.8178 H   0  0  0  0  0  0  0  0  0  0  0  0
    9.7932   16.0519   -8.4944 H   0  0  0  0  0  0  0  0  0  0  0  0
   11.5586   16.2721   -8.4220 H   0  0  0  0  0  0  0  0  0  0  0  0
  2  1  2  0
  3  2  1  0
  4  3  2  0
  4  5  1  0
  5  6  2  0
  6  1  1  0
  1  7  1  0
  2  8  1  0
  3  9  1  0
 10 11  2  0
 11 12  1  0
 12 13  1  0
 13 14  2  0
 14 15  1  0
 15 16  1  0
 15 17  1  0
 17 18  2  0
 17 19  1  0
 19 20  1  0
 20 21  1  0
 20 22  2  0
 22 10  1  0
 19 12  2  0
 11 23  1  0
 14 24  1  0
 16 25  1  0
 16 26  1  0
 16 27  1  0
  5 10  1  0
M  END
>  <Score>  (1) 
-8.38785

$$$$

     RDKit          3D

 26 27  0  0  0  0  0  0  0  0999 V2000
   11.3328    8.0713   -5.0664 C   0  0  0  0  0  0  0  0  0  0  0  0
   11.4859    6.8629   -4.3608 C   0  0  0  0  0  0  0  0  0  0  0  0
   11.8705    6.9372   -3.0097 C   0  0  0  0  0  0  0  0  0  0  0  0
   12.0715    8.1689   -2.4655 N   0  0  0  0  0  0  0  0  0  0  0  0
   11.9142    9.3120   -3.1774 C   0  0  0  0  0  0  0  0  0  0  0  0
   11.5471    9.2587   -4.4693 N   0  0  0  0  0  0  0  0  0  0  0  0
   11.3167    5.9221   -4.8317 H   0  0  0  0  0  0  0  0  0  0  0  0
   11.9981    6.0297   -2.4348 H   0  0  0  0  0  0  0  0  0  0  0  0
   12.0971   10.2343   -2.6552 H   0  0  0  0  0  0  0  0  0  0  0  0
    9.8180    4.3695   -8.4205 H   0  0  0  0  0  0  0  0  0  0  0  0
   10.7515    4.9988   -8.5044 C   0  0  0  0  0  0  0  0  0  0  0  0
   10.5632    6.3754   -7.9854 C   0  0  2  0  0  0  0  0  0  0  0  0
   11.4247    6.7399   -6.9736 O   0  0  0  0  0  0  0  0  0  0  0  0
   10.9264    7.9349   -6.4861 C   0  0  1  0  0  0  0  0  0  0  0  0
    9.4445    7.9308   -6.6668 C   0  0  2  0  0  0  0  0  0  0  0  0
    8.7208    8.1165   -5.5186 O   0  0  0  0  0  0  0  0  0  0  0  0
    9.2060    6.5609   -7.3006 C   0  0  2  0  0  0  0  0  0  0  0  0
    9.0129    5.6132   -6.3129 O   0  0  0  0  0  0  0  0  0  0  0  0
   10.9517    5.0485   -9.6089 H   0  0  0  0  0  0  0  0  0  0  0  0
   11.6055    4.5007   -8.0353 H   0  0  0  0  0  0  0  0  0  0  0  0
   10.6069    7.1644   -8.7671 H   0  0  0  0  0  0  0  0  0  0  0  0
   11.4263    8.7480   -7.0906 H   0  0  0  0  0  0  0  0  0  0  0  0
    9.2005    8.6796   -7.4655 H   0  0  0  0  0  0  0  0  0  0  0  0
    7.9531    8.7288   -5.7538 H   0  0  0  0  0  0  0  0  0  0  0  0
    8.3931    6.5995   -8.0471 H   0  0  0  0  0  0  0  0  0  0  0  0
    9.6796    4.8965   -6.2963 H   0  0  0  0  0  0  0  0  0  0  0  0
  1  6  1  0
  1  2  2  0
  2  3  1  0
  3  4  2  0
  5  4  1  0
  6  5  2  0
  2  7  1  0
  3  8  1  0
  5  9  1  0
 10 11  1  0
 11 12  1  0
 12 13  1  0
 13 14  1  0
 14 15  1  0
 15 16  1  0
 15 17  1  0
 17 18  1  0
 17 12  1  0
 11 19  1  0
 11 20  1  0
 12 21  1  6
 14 22  1  6
 15 23  1  6
 16 24  1  0
 17 25  1  6
 18 26  1  0
  1 14  1  0
M  END
>  <Score>  (1) 
-7.26828

$$$$

     RDKit          3D

 26 27  0  0  0  0  0  0  0  0999 V2000
   11.3328    8.0718   -5.0666 C   0  0  0  0  0  0  0  0  0  0  0  0
   11.4861    6.8630   -4.3598 C   0  0  0  0  0  0  0  0  0  0  0  0
   11.8701    6.9362   -3.0109 C   0  0  0  0  0  0  0  0  0  0  0  0
   12.0716    8.1705   -2.4655 N   0  0  0  0  0  0  0  0  0  0  0  0
   11.9144    9.3113   -3.1765 C   0  0  0  0  0  0  0  0  0  0  0  0
   11.5470    9.2582   -4.4697 N   0  0  0  0  0  0  0  0  0  0  0  0
   11.3161    5.9155   -4.8329 H   0  0  0  0  0  0  0  0  0  0  0  0
   11.9949    6.0278   -2.4458 H   0  0  0  0  0  0  0  0  0  0  0  0
   12.0873   10.2705   -2.6948 H   0  0  0  0  0  0  0  0  0  0  0  0
   14.0253    5.1525   -7.4371 H   0  0  0  0  0  0  0  0  0  0  0  0
   13.8215    6.2152   -7.6597 C   0  0  0  0  0  0  0  0  0  0  0  0
   12.6042    6.6215   -6.8644 C   0  0  1  0  0  0  0  0  0  0  0  0
   12.0822    7.8397   -7.2609 O   0  0  0  0  0  0  0  0  0  0  0  0
   10.9283    7.9308   -6.4791 C   0  0  1  0  0  0  0  0  0  0  0  0
   10.2601    6.6094   -6.7668 C   0  0  2  0  0  0  0  0  0  0  0  0
    9.6292    6.0726   -5.6646 O   0  0  0  0  0  0  0  0  0  0  0  0
   11.4246    5.6891   -7.1209 C   0  0  1  0  0  0  0  0  0  0  0  0
   11.4060    5.3644   -8.4849 O   0  0  0  0  0  0  0  0  0  0  0  0
   13.5962    6.3941   -8.7405 H   0  0  0  0  0  0  0  0  0  0  0  0
   14.6645    6.8285   -7.2955 H   0  0  0  0  0  0  0  0  0  0  0  0
   12.8209    6.5896   -5.7869 H   0  0  0  0  0  0  0  0  0  0  0  0
   10.2992    8.7932   -6.7465 H   0  0  0  0  0  0  0  0  0  0  0  0
    9.6088    6.7364   -7.6466 H   0  0  0  0  0  0  0  0  0  0  0  0
    8.6746    5.9202   -5.7736 H   0  0  0  0  0  0  0  0  0  0  0  0
   11.4586    4.7969   -6.4749 H   0  0  0  0  0  0  0  0  0  0  0  0
   11.4979    4.3925   -8.5677 H   0  0  0  0  0  0  0  0  0  0  0  0
  1  6  1  0
  1  2  2  0
  2  3  1  0
  3  4  2  0
  5  4  1  0
  6  5  2  0
  2  7  1  0
  3  8  1  0
  5  9  1  0
 10 11  1  0
 11 12  1  0
 12 13  1  0
 13 14  1  0
 14 15  1  0
 15 16  1  0
 15 17  1  0
 17 18  1  0
 17 12  1  0
 11 19  1  0
 11 20  1  0
 12 21  1  1
 14 22  1  6
 15 23  1  6
 16 24  1  0
 17 25  1  1
 18 26  1  0
  1 14  1  0
M  END
>  <Score>  (1) 
-7.25932

$$$$

     RDKit          3D

 21 22  0  0  0  0  0  0  0  0999 V2000
   11.3329    8.0718   -5.0664 C   0  0  0  0  0  0  0  0  0  0  0  0
   11.4863    6.8632   -4.3593 C   0  0  0  0  0  0  0  0  0  0  0  0
   11.8701    6.9368   -3.0108 C   0  0  0  0  0  0  0  0  0  0  0  0
   12.0715    8.1686   -2.4654 N   0  0  0  0  0  0  0  0  0  0  0  0
   11.9143    9.3122   -3.1771 C   0  0  0  0  0  0  0  0  0  0  0  0
   11.5469    9.2584   -4.4700 N   0  0  0  0  0  0  0  0  0  0  0  0
   11.3141    5.9132   -4.8399 H   0  0  0  0  0  0  0  0  0  0  0  0
   11.9949    6.0235   -2.4452 H   0  0  0  0  0  0  0  0  0  0  0  0
   12.0981   10.2304   -2.6516 H   0  0  0  0  0  0  0  0  0  0  0  0
   10.9556    8.0440   -6.3975 O   0  0  0  0  0  0  0  0  0  0  0  0
   11.4328    8.9562   -7.3283 C   0  0  0  0  0  0  0  0  0  0  0  0
   12.3157    9.9639   -7.0220 C   0  0  0  0  0  0  0  0  0  0  0  0
   12.7529   10.8385   -7.9910 C   0  0  0  0  0  0  0  0  0  0  0  0
   12.3336   10.7503   -9.3010 C   0  0  0  0  0  0  0  0  0  0  0  0
   11.4471    9.7402   -9.6133 C   0  0  0  0  0  0  0  0  0  0  0  0
   11.0104    8.8643   -8.6390 C   0  0  0  0  0  0  0  0  0  0  0  0
    9.8732    7.6010   -9.1367 Cl  0  0  0  0  0  0  0  0  0  0  0  0
   12.6464   10.0292   -5.9757 H   0  0  0  0  0  0  0  0  0  0  0  0
   13.4463   11.6159   -7.7081 H   0  0  0  0  0  0  0  0  0  0  0  0
   12.6915   11.4564  -10.0639 H   0  0  0  0  0  0  0  0  0  0  0  0
   11.1034    9.6534  -10.6442 H   0  0  0  0  0  0  0  0  0  0  0  0
  1  6  1  0
  1  2  2  0
  2  3  1  0
  3  4  2  0
  5  4  1  0
  6  5  2  0
  2  7  1  0
  3  8  1  0
  5  9  1  0
 10 11  1  0
 11 12  2  0
 12 13  1  0
 13 14  2  0
 14 15  1  0
 15 16  2  0
 16 17  1  0
 16 11  1  0
 12 18  1  0
 13 19  1  0
 14 20  1  0
 15 21  1  0
  1 10  1  0
M  END
>  <Score>  (1) 
-7.23969

$$$$

     RDKit          3D

 30 31  0  0  0  0  0  0  0  0999 V2000
   11.3320    8.0655   -5.0684 C   0  0  0  0  0  0  0  0  0  0  0  0
   11.4852    6.8685   -4.3640 C   0  0  0  0  0  0  0  0  0  0  0  0
   11.8715    6.9384   -3.0062 C   0  0  0  0  0  0  0  0  0  0  0  0
   12.0714    8.1673   -2.4656 N   0  0  0  0  0  0  0  0  0  0  0  0
   11.9136    9.3115   -3.1794 C   0  0  0  0  0  0  0  0  0  0  0  0
   11.5483    9.2598   -4.4653 N   0  0  0  0  0  0  0  0  0  0  0  0
   11.3166    5.9079   -4.8294 H   0  0  0  0  0  0  0  0  0  0  0  0
   11.9908    6.0249   -2.4599 H   0  0  0  0  0  0  0  0  0  0  0  0
   12.0863   10.2675   -2.6981 H   0  0  0  0  0  0  0  0  0  0  0  0
   10.9451    7.9843   -6.4278 N   0  0  0  0  0  0  0  0  0  0  0  0
   11.0936    6.6725   -7.0033 C   0  0  0  0  0  0  0  0  0  0  0  0
   11.9795    6.6659   -8.2227 C   0  0  0  0  0  0  0  0  0  0  0  0
   11.2366    7.2065   -9.4331 C   0  0  0  0  0  0  0  0  0  0  0  0
   11.0944    8.6301   -9.2100 N   0  0  0  0  0  0  0  0  0  0  0  0
   11.2157    9.4144  -10.3919 C   0  0  0  0  0  0  0  0  0  0  0  0
    9.9548    8.9100   -8.4036 C   0  0  0  0  0  0  0  0  0  0  0  0
   10.4690    9.2268   -7.0026 C   0  0  0  0  0  0  0  0  0  0  0  0
   10.0771    6.2416   -7.2229 H   0  0  0  0  0  0  0  0  0  0  0  0
   11.5615    5.9971   -6.2638 H   0  0  0  0  0  0  0  0  0  0  0  0
   12.8420    7.3337   -7.9925 H   0  0  0  0  0  0  0  0  0  0  0  0
   12.3232    5.6205   -8.3736 H   0  0  0  0  0  0  0  0  0  0  0  0
   10.2511    6.7581   -9.5481 H   0  0  0  0  0  0  0  0  0  0  0  0
   11.8835    7.0833  -10.3252 H   0  0  0  0  0  0  0  0  0  0  0  0
   10.2691    9.5574  -10.9315 H   0  0  0  0  0  0  0  0  0  0  0  0
   11.9392    8.8922  -11.0731 H   0  0  0  0  0  0  0  0  0  0  0  0
   11.6968   10.4026  -10.1675 H   0  0  0  0  0  0  0  0  0  0  0  0
    9.3102    7.9920   -8.2696 H   0  0  0  0  0  0  0  0  0  0  0  0
    9.2833    9.6886   -8.7915 H   0  0  0  0  0  0  0  0  0  0  0  0
   11.2715    9.9900   -7.0300 H   0  0  0  0  0  0  0  0  0  0  0  0
    9.5922    9.5928   -6.4372 H   0  0  0  0  0  0  0  0  0  0  0  0
  1  6  1  0
  1  2  2  0
  2  3  1  0
  3  4  2  0
  5  4  1  0
  6  5  2  0
  2  7  1  0
  3  8  1  0
  5  9  1  0
 10 11  1  0
 11 12  1  0
 12 13  1  0
 13 14  1  0
 14 15  1  0
 14 16  1  0
 16 17  1  0
 17 10  1  0
 11 18  1  0
 11 19  1  0
 12 20  1  0
 12 21  1  0
 13 22  1  0
 13 23  1  0
 15 24  1  0
 15 25  1  0
 15 26  1  0
 16 27  1  0
 16 28  1  0
 17 29  1  0
 17 30  1  0
  1 10  1  0
M  END
>  <Score>  (1) 
-7.1954

$$$$

     RDKit          3D

 28 29  0  0  0  0  0  0  0  0999 V2000
   11.3327    8.0709   -5.0669 C   0  0  0  0  0  0  0  0  0  0  0  0
   11.4861    6.8628   -4.3599 C   0  0  0  0  0  0  0  0  0  0  0  0
   11.8702    6.9366   -3.0105 C   0  0  0  0  0  0  0  0  0  0  0  0
   12.0715    8.1698   -2.4655 N   0  0  0  0  0  0  0  0  0  0  0  0
   11.9140    9.3114   -3.1780 C   0  0  0  0  0  0  0  0  0  0  0  0
   11.5474    9.2594   -4.4682 N   0  0  0  0  0  0  0  0  0  0  0  0
   11.3179    5.9236   -4.8278 H   0  0  0  0  0  0  0  0  0  0  0  0
   12.0030    6.0296   -2.4175 H   0  0  0  0  0  0  0  0  0  0  0  0
   12.1010   10.2315   -2.6413 H   0  0  0  0  0  0  0  0  0  0  0  0
   10.9258    8.0571   -6.5048 C   0  0  0  0  0  0  0  0  0  0  0  0
   11.1995    9.4437   -7.0764 C   0  0  0  0  0  0  0  0  0  0  0  0
   11.6403    9.2333   -8.5104 C   0  0  0  0  0  0  0  0  0  0  0  0
   10.6930    8.2724   -9.0816 N   0  0  0  0  0  0  0  0  0  0  0  0
   10.6024    8.4162  -10.5170 C   0  0  0  0  0  0  0  0  0  0  0  0
   11.1232    6.9625   -8.6786 C   0  0  0  0  0  0  0  0  0  0  0  0
   11.6636    6.9937   -7.2650 C   0  0  0  0  0  0  0  0  0  0  0  0
    9.8417    7.8180   -6.5507 H   0  0  0  0  0  0  0  0  0  0  0  0
   11.9397   10.0023   -6.4786 H   0  0  0  0  0  0  0  0  0  0  0  0
   10.2123    9.9882   -7.1444 H   0  0  0  0  0  0  0  0  0  0  0  0
   12.6802    8.8841   -8.5776 H   0  0  0  0  0  0  0  0  0  0  0  0
   11.5654   10.1547   -9.1149 H   0  0  0  0  0  0  0  0  0  0  0  0
   10.7627    7.4597  -11.0486 H   0  0  0  0  0  0  0  0  0  0  0  0
   11.2649    9.2317  -10.8763 H   0  0  0  0  0  0  0  0  0  0  0  0
    9.5495    8.7232  -10.7635 H   0  0  0  0  0  0  0  0  0  0  0  0
   11.9595    6.6639   -9.3744 H   0  0  0  0  0  0  0  0  0  0  0  0
   10.2665    6.2666   -8.7571 H   0  0  0  0  0  0  0  0  0  0  0  0
   11.4915    6.0320   -6.7610 H   0  0  0  0  0  0  0  0  0  0  0  0
   12.7597    7.1878   -7.2583 H   0  0  0  0  0  0  0  0  0  0  0  0
  1  6  1  0
  1  2  2  0
  2  3  1  0
  3  4  2  0
  5  4  1  0
  6  5  2  0
  2  7  1  0
  3  8  1  0
  5  9  1  0
 10 11  1  0
 11 12  1  0
 12 13  1  0
 13 14  1  0
 13 15  1  0
 15 16  1  0
 16 10  1  0
 10 17  1  0
 11 18  1  0
 11 19  1  0
 12 20  1  0
 12 21  1  0
 14 22  1  0
 14 23  1  0
 14 24  1  0
 15 25  1  0
 15 26  1  0
 16 27  1  0
 16 28  1  0
  1 10  1  0
M  END
>  <Score>  (1) 
-7.15901

$$$$

     RDKit          3D

 27 28  0  0  0  0  0  0  0  0999 V2000
   11.3329    8.0731   -5.0665 C   0  0  0  0  0  0  0  0  0  0  0  0
   11.4863    6.8621   -4.3591 C   0  0  0  0  0  0  0  0  0  0  0  0
   11.8699    6.9357   -3.0115 C   0  0  0  0  0  0  0  0  0  0  0  0
   12.0715    8.1717   -2.4657 N   0  0  0  0  0  0  0  0  0  0  0  0
   11.9147    9.3106   -3.1753 C   0  0  0  0  0  0  0  0  0  0  0  0
   11.5466    9.2578   -4.4709 N   0  0  0  0  0  0  0  0  0  0  0  0
   11.3188    5.9179   -4.8237 H   0  0  0  0  0  0  0  0  0  0  0  0
   12.0037    6.0422   -2.4166 H   0  0  0  0  0  0  0  0  0  0  0  0
   12.0966   10.2377   -2.6576 H   0  0  0  0  0  0  0  0  0  0  0  0
   10.9315    7.9656   -6.4721 C   0  0  2  0  0  0  0  0  0  0  0  0
   10.1445    6.8380   -6.7359 O   0  0  0  0  0  0  0  0  0  0  0  0
   10.0112    6.9207   -8.1214 C   0  0  2  0  0  0  0  0  0  0  0  0
    9.4894    5.6361   -8.7256 C   0  0  0  0  0  0  0  0  0  0  0  0
   10.3162    4.5561   -8.4801 O   0  0  0  0  0  0  0  0  0  0  0  0
   11.3576    7.2886   -8.6771 C   0  0  2  0  0  0  0  0  0  0  0  0
   11.9973    6.2497   -9.3092 O   0  0  0  0  0  0  0  0  0  0  0  0
   12.0957    7.7391   -7.4097 C   0  0  1  0  0  0  0  0  0  0  0  0
   12.7806    8.8876   -7.7184 O   0  0  0  0  0  0  0  0  0  0  0  0
   10.3618    8.8357   -6.8441 H   0  0  0  0  0  0  0  0  0  0  0  0
    9.2319    7.6984   -8.3133 H   0  0  0  0  0  0  0  0  0  0  0  0
    9.4358    5.7849   -9.8105 H   0  0  0  0  0  0  0  0  0  0  0  0
    8.4517    5.4860   -8.3631 H   0  0  0  0  0  0  0  0  0  0  0  0
    9.8752    3.9332   -7.8270 H   0  0  0  0  0  0  0  0  0  0  0  0
   11.1899    8.1769   -9.3515 H   0  0  0  0  0  0  0  0  0  0  0  0
   12.7736    6.6373   -9.8004 H   0  0  0  0  0  0  0  0  0  0  0  0
   12.7245    6.9252   -7.0391 H   0  0  0  0  0  0  0  0  0  0  0  0
   13.2924    9.2388   -6.9454 H   0  0  0  0  0  0  0  0  0  0  0  0
  1  6  1  0
  1  2  2  0
  2  3  1  0
  3  4  2  0
  5  4  1  0
  6  5  2  0
  2  7  1  0
  3  8  1  0
  5  9  1  0
 10 11  1  0
 11 12  1  0
 12 13  1  0
 13 14  1  0
 12 15  1  0
 15 16  1  0
 15 17  1  0
 17 18  1  0
 17 10  1  0
 10 19  1  6
 12 20  1  1
 13 21  1  0
 13 22  1  0
 14 23  1  0
 15 24  1  6
 16 25  1  0
 17 26  1  1
 18 27  1  0
  1 10  1  0
M  END
>  <Score>  (1) 
-7.14702

$$$$

     RDKit          3D

 28 29  0  0  0  0  0  0  0  0999 V2000
   11.3295    8.0746   -5.0787 C   0  0  0  0  0  0  0  0  0  0  0  0
   11.4903    6.8754   -4.3468 C   0  0  0  0  0  0  0  0  0  0  0  0
   11.8680    6.9305   -3.0176 C   0  0  0  0  0  0  0  0  0  0  0  0
   12.0722    8.1746   -2.4637 N   0  0  0  0  0  0  0  0  0  0  0  0
   11.9150    9.3092   -3.1741 C   0  0  0  0  0  0  0  0  0  0  0  0
   11.5470    9.2467   -4.4682 N   0  0  0  0  0  0  0  0  0  0  0  0
   11.3190    5.9423   -4.8261 H   0  0  0  0  0  0  0  0  0  0  0  0
   11.9850    6.0252   -2.4804 H   0  0  0  0  0  0  0  0  0  0  0  0
   12.0999   10.2342   -2.6454 H   0  0  0  0  0  0  0  0  0  0  0  0
    8.5406    3.7542  -10.4336 H   0  0  0  0  0  0  0  0  0  0  0  0
    8.7821    3.6471   -9.3915 C   0  0  0  0  0  0  0  0  0  0  0  0
    8.5833    2.5488   -8.8233 O   0  0  0  0  0  0  0  0  0  0  0  0
    9.3412    4.7536   -8.6067 C   0  0  0  0  0  0  0  0  0  0  0  0
    9.6354    4.5758   -7.2803 C   0  0  0  0  0  0  0  0  0  0  0  0
   10.1665    5.6479   -6.5603 C   0  0  0  0  0  0  0  0  0  0  0  0
   10.4126    6.8816   -7.1126 C   0  0  0  0  0  0  0  0  0  0  0  0
   10.9450    7.9865   -6.4273 N   0  0  0  0  0  0  0  0  0  0  0  0
   10.0982    7.0169   -8.4647 C   0  0  0  0  0  0  0  0  0  0  0  0
   10.3140    8.2209   -9.0955 O   0  0  0  0  0  0  0  0  0  0  0  0
   10.0403    8.4774  -10.4395 C   0  0  0  0  0  0  0  0  0  0  0  0
    9.5768    5.9851   -9.1963 C   0  0  0  0  0  0  0  0  0  0  0  0
    9.4578    3.6193   -6.8028 H   0  0  0  0  0  0  0  0  0  0  0  0
   10.3795    5.4661   -5.5364 H   0  0  0  0  0  0  0  0  0  0  0  0
   11.0723    8.8752   -7.0139 H   0  0  0  0  0  0  0  0  0  0  0  0
   10.4858    9.3925  -10.8272 H   0  0  0  0  0  0  0  0  0  0  0  0
   10.3462    7.6543  -11.1171 H   0  0  0  0  0  0  0  0  0  0  0  0
    8.9234    8.5990  -10.5367 H   0  0  0  0  0  0  0  0  0  0  0  0
    9.3414    6.1138  -10.2406 H   0  0  0  0  0  0  0  0  0  0  0  0
  1  6  1  0
  1  2  2  0
  2  3  1  0
  3  4  2  0
  5  4  1  0
  6  5  2  0
  2  7  1  0
  3  8  1  0
  5  9  1  0
 10 11  1  0
 11 12  2  0
 11 13  1  0
 13 14  2  0
 14 15  1  0
 15 16  2  0
 16 17  1  0
 16 18  1  0
 18 19  1  0
 19 20  1  0
 18 21  2  0
 21 13  1  0
 14 22  1  0
 15 23  1  0
 17 24  1  0
 20 25  1  0
 20 26  1  0
 20 27  1  0
 21 28  1  0
  1 17  1  0
M  END
>  <Score>  (1) 
-7.14277

$$$$

     RDKit          3D

 25 26  0  0  0  0  0  0  0  0999 V2000
   11.3328    8.0731   -5.0669 C   0  0  0  0  0  0  0  0  0  0  0  0
   11.4865    6.8618   -4.3585 C   0  0  0  0  0  0  0  0  0  0  0  0
   11.8699    6.9363   -3.0116 C   0  0  0  0  0  0  0  0  0  0  0  0
   12.0716    8.1703   -2.4654 N   0  0  0  0  0  0  0  0  0  0  0  0
   11.9144    9.3113   -3.1766 C   0  0  0  0  0  0  0  0  0  0  0  0
   11.5469    9.2582   -4.4700 N   0  0  0  0  0  0  0  0  0  0  0  0
   11.3195    5.9132   -4.8207 H   0  0  0  0  0  0  0  0  0  0  0  0
   12.0066    6.0494   -2.4075 H   0  0  0  0  0  0  0  0  0  0  0  0
   12.0951   10.2408   -2.6632 H   0  0  0  0  0  0  0  0  0  0  0  0
    7.9740    6.9655   -9.5253 H   0  0  0  0  0  0  0  0  0  0  0  0
    8.1756    7.0775   -8.4754 C   0  0  0  0  0  0  0  0  0  0  0  0
    7.2930    6.8293   -7.6843 O   0  0  0  0  0  0  0  0  0  0  0  0
    9.4800    7.5184   -7.9979 C   0  0  1  0  0  0  0  0  0  0  0  0
    9.5642    7.6080   -6.6091 O   0  0  0  0  0  0  0  0  0  0  0  0
   10.9310    7.9454   -6.4711 C   0  0  2  0  0  0  0  0  0  0  0  0
   11.5826    6.7934   -7.1884 C   0  0  1  0  0  0  0  0  0  0  0  0
   11.7292    5.6815   -6.3931 O   0  0  0  0  0  0  0  0  0  0  0  0
   10.6036    6.5623   -8.3329 C   0  0  1  0  0  0  0  0  0  0  0  0
   10.1863    5.2541   -8.4095 O   0  0  0  0  0  0  0  0  0  0  0  0
    9.7713    8.5409   -8.3793 H   0  0  0  0  0  0  0  0  0  0  0  0
   11.0805    8.8486   -7.0765 H   0  0  0  0  0  0  0  0  0  0  0  0
   12.5839    7.0903   -7.5653 H   0  0  0  0  0  0  0  0  0  0  0  0
   10.9749    5.0445   -6.4456 H   0  0  0  0  0  0  0  0  0  0  0  0
   11.1028    6.8973   -9.2591 H   0  0  0  0  0  0  0  0  0  0  0  0
   10.9469    4.7100   -8.7091 H   0  0  0  0  0  0  0  0  0  0  0  0
  1  6  1  0
  1  2  2  0
  2  3  1  0
  3  4  2  0
  5  4  1  0
  6  5  2  0
  2  7  1  0
  3  8  1  0
  5  9  1  0
 10 11  1  0
 11 12  2  0
 11 13  1  0
 13 14  1  0
 14 15  1  0
 15 16  1  0
 16 17  1  0
 16 18  1  0
 18 19  1  0
 18 13  1  0
 13 20  1  6
 15 21  1  6
 16 22  1  6
 17 23  1  0
 18 24  1  6
 19 25  1  0
  1 15  1  0
M  END
>  <Score>  (1) 
-7.13448

$$$$

     RDKit          3D

 32 33  0  0  0  0  0  0  0  0999 V2000
   11.3329    8.0738   -5.0665 C   0  0  0  0  0  0  0  0  0  0  0  0
   11.4862    6.8616   -4.3593 C   0  0  0  0  0  0  0  0  0  0  0  0
   11.8702    6.9367   -3.0107 C   0  0  0  0  0  0  0  0  0  0  0  0
   12.0715    8.1702   -2.4658 N   0  0  0  0  0  0  0  0  0  0  0  0
   11.9146    9.3112   -3.1758 C   0  0  0  0  0  0  0  0  0  0  0  0
   11.5466    9.2575   -4.4709 N   0  0  0  0  0  0  0  0  0  0  0  0
   11.3133    5.9259   -4.8443 H   0  0  0  0  0  0  0  0  0  0  0  0
   11.9902    6.0330   -2.4633 H   0  0  0  0  0  0  0  0  0  0  0  0
   12.0887   10.2417   -2.6861 H   0  0  0  0  0  0  0  0  0  0  0  0
   10.9541    7.9454   -6.3895 O   0  0  0  0  0  0  0  0  0  0  0  0
    9.7704    7.3345   -6.8152 C   0  0  2  0  0  0  0  0  0  0  0  0
   10.0613    6.1468   -7.5115 O   0  0  0  0  0  0  0  0  0  0  0  0
    8.8305    5.6010   -7.8765 C   0  0  2  0  0  0  0  0  0  0  0  0
    8.9850    4.1334   -8.2228 C   0  0  0  0  0  0  0  0  0  0  0  0
    9.4770    3.4770   -7.0964 O   0  0  0  0  0  0  0  0  0  0  0  0
    8.2093    6.3765   -9.0167 C   0  0  2  0  0  0  0  0  0  0  0  0
    8.3431    5.7379  -10.2285 O   0  0  0  0  0  0  0  0  0  0  0  0
    8.8836    7.7433   -9.0494 C   0  0  1  0  0  0  0  0  0  0  0  0
    8.2893    8.6010   -9.9368 O   0  0  0  0  0  0  0  0  0  0  0  0
    8.8917    8.2571   -7.6298 C   0  0  2  0  0  0  0  0  0  0  0  0
    9.3622    9.5627   -7.5361 O   0  0  0  0  0  0  0  0  0  0  0  0
    9.2269    6.9906   -5.8867 H   0  0  0  0  0  0  0  0  0  0  0  0
    8.1818    5.6736   -6.9672 H   0  0  0  0  0  0  0  0  0  0  0  0
    9.6494    4.0601   -9.0835 H   0  0  0  0  0  0  0  0  0  0  0  0
    7.9861    3.7497   -8.5271 H   0  0  0  0  0  0  0  0  0  0  0  0
    8.7491    3.1952   -6.4866 H   0  0  0  0  0  0  0  0  0  0  0  0
    7.1177    6.5321   -8.8224 H   0  0  0  0  0  0  0  0  0  0  0  0
    9.2903    5.5671  -10.4304 H   0  0  0  0  0  0  0  0  0  0  0  0
    9.9428    7.5699   -9.3318 H   0  0  0  0  0  0  0  0  0  0  0  0
    8.7795    8.6277  -10.8162 H   0  0  0  0  0  0  0  0  0  0  0  0
    7.8655    8.2429   -7.1764 H   0  0  0  0  0  0  0  0  0  0  0  0
   10.3505    9.5955   -7.4726 H   0  0  0  0  0  0  0  0  0  0  0  0
  1  6  1  0
  1  2  2  0
  2  3  1  0
  3  4  2  0
  5  4  1  0
  6  5  2  0
  2  7  1  0
  3  8  1  0
  5  9  1  0
 10 11  1  0
 11 12  1  0
 12 13  1  0
 13 14  1  0
 14 15  1  0
 13 16  1  0
 16 17  1  0
 16 18  1  0
 18 19  1  0
 18 20  1  0
 20 21  1  0
 20 11  1  0
 11 22  1  1
 13 23  1  1
 14 24  1  0
 14 25  1  0
 15 26  1  0
 16 27  1  1
 17 28  1  0
 18 29  1  6
 19 30  1  0
 20 31  1  1
 21 32  1  0
  1 10  1  0
M  END
>  <Score>  (1) 
-7.11757

$$$$

     RDKit          3D

 25 26  0  0  0  0  0  0  0  0999 V2000
   11.3328    8.0728   -5.0667 C   0  0  0  0  0  0  0  0  0  0  0  0
   11.4863    6.8622   -4.3590 C   0  0  0  0  0  0  0  0  0  0  0  0
   11.8699    6.9359   -3.0115 C   0  0  0  0  0  0  0  0  0  0  0  0
   12.0716    8.1711   -2.4655 N   0  0  0  0  0  0  0  0  0  0  0  0
   11.9145    9.3110   -3.1761 C   0  0  0  0  0  0  0  0  0  0  0  0
   11.5468    9.2581   -4.4702 N   0  0  0  0  0  0  0  0  0  0  0  0
   11.3138    5.9087   -4.8403 H   0  0  0  0  0  0  0  0  0  0  0  0
   12.0016    6.0506   -2.4251 H   0  0  0  0  0  0  0  0  0  0  0  0
   12.0934   10.2420   -2.6696 H   0  0  0  0  0  0  0  0  0  0  0  0
    8.8803    8.2901   -8.3481 H   0  0  0  0  0  0  0  0  0  0  0  0
    9.4666    7.5375   -8.8454 C   0  0  0  0  0  0  0  0  0  0  0  0
    9.4406    7.4882  -10.0551 O   0  0  0  0  0  0  0  0  0  0  0  0
   10.2766    6.5949   -8.0796 C   0  0  2  0  0  0  0  0  0  0  0  0
   10.1526    6.8393   -6.7039 O   0  0  0  0  0  0  0  0  0  0  0  0
   10.9294    7.9656   -6.4799 C   0  0  2  0  0  0  0  0  0  0  0  0
   12.1624    7.7824   -7.3186 C   0  0  1  0  0  0  0  0  0  0  0  0
   13.2313    7.2982   -6.5499 O   0  0  0  0  0  0  0  0  0  0  0  0
   11.7495    6.7233   -8.3026 C   0  0  2  0  0  0  0  0  0  0  0  0
   12.0713    7.1342   -9.5915 O   0  0  0  0  0  0  0  0  0  0  0  0
    9.9193    5.5339   -8.2156 H   0  0  0  0  0  0  0  0  0  0  0  0
   10.4248    8.9018   -6.7961 H   0  0  0  0  0  0  0  0  0  0  0  0
   12.4824    8.7172   -7.8232 H   0  0  0  0  0  0  0  0  0  0  0  0
   13.0394    6.3666   -6.3568 H   0  0  0  0  0  0  0  0  0  0  0  0
   12.2265    5.7553   -8.0473 H   0  0  0  0  0  0  0  0  0  0  0  0
   11.7913    6.4326  -10.2159 H   0  0  0  0  0  0  0  0  0  0  0  0
  1  6  1  0
  1  2  2  0
  2  3  1  0
  3  4  2  0
  5  4  1  0
  6  5  2  0
  2  7  1  0
  3  8  1  0
  5  9  1  0
 10 11  1  0
 11 12  2  0
 11 13  1  0
 13 14  1  0
 14 15  1  0
 15 16  1  0
 16 17  1  0
 16 18  1  0
 18 19  1  0
 18 13  1  0
 13 20  1  1
 15 21  1  6
 16 22  1  6
 17 23  1  0
 18 24  1  1
 19 25  1  0
  1 15  1  0
M  END
>  <Score>  (1) 
-7.11256

$$$$

     RDKit          3D

 23 24  0  0  0  0  0  0  0  0999 V2000
   12.3035    8.1264   -2.2992 C   0  0  0  0  0  0  0  0  0  0  0  0
   12.0204    6.8816   -2.9154 C   0  0  0  0  0  0  0  0  0  0  0  0
   11.5254    6.9024   -4.2227 C   0  0  0  0  0  0  0  0  0  0  0  0
   11.3440    8.1020   -4.8266 N   0  0  0  0  0  0  0  0  0  0  0  0
   11.6256    9.2902   -4.2082 C   0  0  0  0  0  0  0  0  0  0  0  0
   12.0960    9.2685   -2.9658 N   0  0  0  0  0  0  0  0  0  0  0  0
   12.6838    8.0686   -1.2905 H   0  0  0  0  0  0  0  0  0  0  0  0
   12.1837    5.9526   -2.3877 H   0  0  0  0  0  0  0  0  0  0  0  0
   11.3090    5.9698   -4.6957 H   0  0  0  0  0  0  0  0  0  0  0  0
   11.3976   10.4723   -4.9333 N   0  0  0  0  0  0  0  0  0  0  0  0
   11.1848   10.6326   -6.3079 C   0  0  0  0  0  0  0  0  0  0  0  0
   10.9799   11.8980   -6.8102 C   0  0  0  0  0  0  0  0  0  0  0  0
   10.7682   12.0972   -8.1479 C   0  0  0  0  0  0  0  0  0  0  0  0
   10.7523   11.0559   -9.0300 C   0  0  0  0  0  0  0  0  0  0  0  0
   10.9519    9.7780   -8.5750 C   0  0  0  0  0  0  0  0  0  0  0  0
   10.9390    8.6666   -9.4883 C   0  0  0  0  0  0  0  0  0  0  0  0
   10.9467    7.7746  -10.2169 N   0  0  0  0  0  0  0  0  0  0  0  0
   11.1664    9.5973   -7.2037 C   0  0  0  0  0  0  0  0  0  0  0  0
   11.3848   11.3770   -4.3546 H   0  0  0  0  0  0  0  0  0  0  0  0
   10.9830   12.7792   -6.1358 H   0  0  0  0  0  0  0  0  0  0  0  0
   10.6091   13.0941   -8.5266 H   0  0  0  0  0  0  0  0  0  0  0  0
   10.5843   11.1962  -10.1059 H   0  0  0  0  0  0  0  0  0  0  0  0
   11.3147    8.5740   -6.9197 H   0  0  0  0  0  0  0  0  0  0  0  0
  2  1  2  0
  3  2  1  0
  4  3  2  0
  4  5  1  0
  5  6  2  0
  6  1  1  0
  1  7  1  0
  2  8  1  0
  3  9  1  0
 10 11  1  0
 11 12  2  0
 12 13  1  0
 13 14  2  0
 14 15  1  0
 15 16  1  0
 16 17  3  0
 15 18  2  0
 18 11  1  0
 10 19  1  0
 12 20  1  0
 13 21  1  0
 14 22  1  0
 18 23  1  0
  5 10  1  0
M  END
>  <Score>  (1) 
-7.57783

$$$$

     RDKit          3D

 30 31  0  0  0  0  0  0  0  0999 V2000
   11.3327    8.0737   -5.0672 C   0  0  0  0  0  0  0  0  0  0  0  0
   11.4870    6.8620   -4.3566 C   0  0  0  0  0  0  0  0  0  0  0  0
   11.8692    6.9344   -3.0140 C   0  0  0  0  0  0  0  0  0  0  0  0
   12.0717    8.1733   -2.4654 N   0  0  0  0  0  0  0  0  0  0  0  0
   11.9149    9.3102   -3.1747 C   0  0  0  0  0  0  0  0  0  0  0  0
   11.5465    9.2574   -4.4711 N   0  0  0  0  0  0  0  0  0  0  0  0
   11.3089    5.9259   -4.8599 H   0  0  0  0  0  0  0  0  0  0  0  0
   11.9883    6.0302   -2.4694 H   0  0  0  0  0  0  0  0  0  0  0  0
   12.0997   10.2421   -2.6473 H   0  0  0  0  0  0  0  0  0  0  0  0
   10.9467    8.0060   -6.4241 N   0  0  0  0  0  0  0  0  0  0  0  0
   11.5825    7.0548   -7.3048 C   0  0  1  0  0  0  0  0  0  0  0  0
   11.3759    5.6170   -6.8225 C   0  0  0  0  0  0  0  0  0  0  0  0
   11.6517    4.7273   -8.0365 C   0  0  0  0  0  0  0  0  0  0  0  0
   10.3597    4.7482   -8.8588 C   0  0  1  0  0  0  0  0  0  0  0  0
    9.4674    3.7953   -8.2195 N   0  0  0  0  0  0  0  0  0  0  0  0
    9.8322    6.1578   -8.8062 C   0  0  0  0  0  0  0  0  0  0  0  0
   10.9961    7.1295   -8.6975 C   0  0  0  0  0  0  0  0  0  0  0  0
   10.2118    8.6259   -6.8120 H   0  0  0  0  0  0  0  0  0  0  0  0
   12.6794    7.1992   -7.3764 H   0  0  0  0  0  0  0  0  0  0  0  0
   12.1215    5.3442   -6.0577 H   0  0  0  0  0  0  0  0  0  0  0  0
   10.3429    5.4636   -6.4466 H   0  0  0  0  0  0  0  0  0  0  0  0
   12.4926    5.1669   -8.6193 H   0  0  0  0  0  0  0  0  0  0  0  0
   11.8884    3.6900   -7.7101 H   0  0  0  0  0  0  0  0  0  0  0  0
   10.5680    4.4792   -9.8947 H   0  0  0  0  0  0  0  0  0  0  0  0
   10.0428    2.9169   -8.0869 H   0  0  0  0  0  0  0  0  0  0  0  0
    8.6284    3.5804   -8.7682 H   0  0  0  0  0  0  0  0  0  0  0  0
    9.1560    6.2522   -7.9171 H   0  0  0  0  0  0  0  0  0  0  0  0
    9.2120    6.3990   -9.6923 H   0  0  0  0  0  0  0  0  0  0  0  0
   11.7274    6.8504   -9.4837 H   0  0  0  0  0  0  0  0  0  0  0  0
   10.6381    8.1741   -8.9255 H   0  0  0  0  0  0  0  0  0  0  0  0
  1  6  1  0
  1  2  2  0
  2  3  1  0
  3  4  2  0
  5  4  1  0
  6  5  2  0
  2  7  1  0
  3  8  1  0
  5  9  1  0
 10 11  1  0
 11 12  1  0
 12 13  1  0
 13 14  1  0
 14 15  1  0
 14 16  1  0
 16 17  1  0
 17 11  1  0
 10 18  1  0
 11 19  1  6
 12 20  1  0
 12 21  1  0
 13 22  1  0
 13 23  1  0
 14 24  1  6
 15 25  1  0
 15 26  1  0
 16 27  1  0
 16 28  1  0
 17 29  1  0
 17 30  1  0
  1 10  1  0
M  END
>  <Score>  (1) 
-7.09217

$$$$

     RDKit          3D

 26 27  0  0  0  0  0  0  0  0999 V2000
   11.3330    8.0728   -5.0660 C   0  0  0  0  0  0  0  0  0  0  0  0
   11.4862    6.8625   -4.3596 C   0  0  0  0  0  0  0  0  0  0  0  0
   11.8700    6.9358   -3.0112 C   0  0  0  0  0  0  0  0  0  0  0  0
   12.0716    8.1712   -2.4655 N   0  0  0  0  0  0  0  0  0  0  0  0
   11.9147    9.3110   -3.1757 C   0  0  0  0  0  0  0  0  0  0  0  0
   11.5466    9.2577   -4.4710 N   0  0  0  0  0  0  0  0  0  0  0  0
   11.3125    5.9105   -4.8451 H   0  0  0  0  0  0  0  0  0  0  0  0
   11.9963    6.0324   -2.4417 H   0  0  0  0  0  0  0  0  0  0  0  0
   12.0973   10.2481   -2.6565 H   0  0  0  0  0  0  0  0  0  0  0  0
   11.8649    5.4371   -9.2278 H   0  0  0  0  0  0  0  0  0  0  0  0
   10.8554    5.3917   -8.7632 C   0  0  0  0  0  0  0  0  0  0  0  0
   10.4256    6.7558   -8.2247 C   0  0  1  0  0  0  0  0  0  0  0  0
   10.4367    6.7804   -6.8566 O   0  0  0  0  0  0  0  0  0  0  0  0
   10.9341    8.0133   -6.4699 C   0  0  2  0  0  0  0  0  0  0  0  0
   12.1238    8.1566   -7.4139 C   0  0  2  0  0  0  0  0  0  0  0  0
   12.5847    9.4526   -7.4453 O   0  0  0  0  0  0  0  0  0  0  0  0
   11.4241    7.7632   -8.7230 C   0  0  2  0  0  0  0  0  0  0  0  0
   10.7682    8.9359   -9.1490 O   0  0  0  0  0  0  0  0  0  0  0  0
   10.8926    4.7022   -7.8889 H   0  0  0  0  0  0  0  0  0  0  0  0
   10.0859    5.0656   -9.5095 H   0  0  0  0  0  0  0  0  0  0  0  0
    9.3902    7.0109   -8.5888 H   0  0  0  0  0  0  0  0  0  0  0  0
   10.2142    8.7969   -6.7249 H   0  0  0  0  0  0  0  0  0  0  0  0
   12.9132    7.4120   -7.1982 H   0  0  0  0  0  0  0  0  0  0  0  0
   13.3536    9.4972   -8.0471 H   0  0  0  0  0  0  0  0  0  0  0  0
   12.1262    7.3766   -9.4593 H   0  0  0  0  0  0  0  0  0  0  0  0
    9.7985    8.9038   -8.9493 H   0  0  0  0  0  0  0  0  0  0  0  0
  1  6  1  0
  1  2  2  0
  2  3  1  0
  3  4  2  0
  5  4  1  0
  6  5  2  0
  2  7  1  0
  3  8  1  0
  5  9  1  0
 10 11  1  0
 11 12  1  0
 12 13  1  0
 13 14  1  0
 14 15  1  0
 15 16  1  0
 15 17  1  0
 17 18  1  0
 17 12  1  0
 11 19  1  0
 11 20  1  0
 12 21  1  6
 14 22  1  6
 15 23  1  1
 16 24  1  0
 17 25  1  6
 18 26  1  0
  1 14  1  0
M  END
>  <Score>  (1) 
-7.08856

$$$$

     RDKit          3D

 30 31  0  0  0  0  0  0  0  0999 V2000
   11.3330    8.0691   -5.0654 C   0  0  0  0  0  0  0  0  0  0  0  0
   11.4855    6.8664   -4.3626 C   0  0  0  0  0  0  0  0  0  0  0  0
   11.8706    6.9363   -3.0091 C   0  0  0  0  0  0  0  0  0  0  0  0
   12.0715    8.1696   -2.4655 N   0  0  0  0  0  0  0  0  0  0  0  0
   11.9145    9.3121   -3.1765 C   0  0  0  0  0  0  0  0  0  0  0  0
   11.5469    9.2575   -4.4699 N   0  0  0  0  0  0  0  0  0  0  0  0
   11.3176    5.9077   -4.8264 H   0  0  0  0  0  0  0  0  0  0  0  0
   12.0030    6.0402   -2.4189 H   0  0  0  0  0  0  0  0  0  0  0  0
   12.0784   10.2731   -2.7269 H   0  0  0  0  0  0  0  0  0  0  0  0
   10.9418    8.0307   -6.4447 N   0  0  0  0  0  0  0  0  0  0  0  0
    9.7221    8.6768   -6.8603 C   0  0  2  0  0  0  0  0  0  0  0  0
    9.5579    8.4810   -8.3500 C   0  0  0  0  0  0  0  0  0  0  0  0
   10.4776    9.3974   -9.1339 C   0  0  0  0  0  0  0  0  0  0  0  0
   10.2980   10.8380   -8.7619 C   0  0  0  0  0  0  0  0  0  0  0  0
    9.2550   10.9260   -7.6881 C   0  0  0  0  0  0  0  0  0  0  0  0
    9.6995   10.1340   -6.4727 C   0  0  1  0  0  0  0  0  0  0  0  0
    8.7851   10.3893   -5.3757 N   0  0  0  0  0  0  0  0  0  0  0  0
   11.5443    7.5370   -7.1242 H   0  0  0  0  0  0  0  0  0  0  0  0
    8.8504    8.1802   -6.3593 H   0  0  0  0  0  0  0  0  0  0  0  0
    9.9029    7.4349   -8.5944 H   0  0  0  0  0  0  0  0  0  0  0  0
    8.5095    8.5525   -8.6855 H   0  0  0  0  0  0  0  0  0  0  0  0
   10.2865    9.2315  -10.1992 H   0  0  0  0  0  0  0  0  0  0  0  0
   11.5194    9.1000   -8.8598 H   0  0  0  0  0  0  0  0  0  0  0  0
   11.2439   11.3066   -8.4451 H   0  0  0  0  0  0  0  0  0  0  0  0
    9.9337   11.4140   -9.6507 H   0  0  0  0  0  0  0  0  0  0  0  0
    9.0155   11.9828   -7.4155 H   0  0  0  0  0  0  0  0  0  0  0  0
    8.3222   10.4866   -8.0642 H   0  0  0  0  0  0  0  0  0  0  0  0
   10.7269   10.4124   -6.1600 H   0  0  0  0  0  0  0  0  0  0  0  0
    8.4445   11.3661   -5.3569 H   0  0  0  0  0  0  0  0  0  0  0  0
    7.9824    9.7065   -5.3755 H   0  0  0  0  0  0  0  0  0  0  0  0
  1  6  1  0
  1  2  2  0
  2  3  1  0
  3  4  2  0
  5  4  1  0
  6  5  2  0
  2  7  1  0
  3  8  1  0
  5  9  1  0
 10 11  1  0
 11 12  1  0
 12 13  1  0
 13 14  1  0
 14 15  1  0
 15 16  1  0
 16 17  1  0
 16 11  1  0
 10 18  1  0
 11 19  1  1
 12 20  1  0
 12 21  1  0
 13 22  1  0
 13 23  1  0
 14 24  1  0
 14 25  1  0
 15 26  1  0
 15 27  1  0
 16 28  1  1
 17 29  1  0
 17 30  1  0
  1 10  1  0
M  END
>  <Score>  (1) 
-7.07305

$$$$

     RDKit          3D

 32 33  0  0  0  0  0  0  0  0999 V2000
   11.3329    8.0738   -5.0665 C   0  0  0  0  0  0  0  0  0  0  0  0
   11.4865    6.8618   -4.3583 C   0  0  0  0  0  0  0  0  0  0  0  0
   11.8697    6.9352   -3.0122 C   0  0  0  0  0  0  0  0  0  0  0  0
   12.0716    8.1725   -2.4657 N   0  0  0  0  0  0  0  0  0  0  0  0
   11.9149    9.3102   -3.1745 C   0  0  0  0  0  0  0  0  0  0  0  0
   11.5464    9.2573   -4.4717 N   0  0  0  0  0  0  0  0  0  0  0  0
   11.3203    5.9177   -4.8185 H   0  0  0  0  0  0  0  0  0  0  0  0
   12.0001    6.0402   -2.4293 H   0  0  0  0  0  0  0  0  0  0  0  0
   12.0917   10.2533   -2.6770 H   0  0  0  0  0  0  0  0  0  0  0  0
   10.9556    7.9422   -6.3840 O   0  0  0  0  0  0  0  0  0  0  0  0
    9.6340    7.6044   -6.7656 C   0  0  2  0  0  0  0  0  0  0  0  0
    9.5981    6.3954   -7.4288 O   0  0  0  0  0  0  0  0  0  0  0  0
   10.2328    6.5166   -8.6487 C   0  0  1  0  0  0  0  0  0  0  0  0
   10.4029    5.1980   -9.3536 C   0  0  0  0  0  0  0  0  0  0  0  0
   11.1629    4.3337   -8.5741 O   0  0  0  0  0  0  0  0  0  0  0  0
    9.3436    7.3880   -9.5272 C   0  0  2  0  0  0  0  0  0  0  0  0
    9.7694    7.4111  -10.8423 O   0  0  0  0  0  0  0  0  0  0  0  0
    9.4697    8.8045   -8.9670 C   0  0  2  0  0  0  0  0  0  0  0  0
   10.7277    9.3231   -9.1546 O   0  0  0  0  0  0  0  0  0  0  0  0
    9.0473    8.7454   -7.5304 C   0  0  1  0  0  0  0  0  0  0  0  0
    7.6516    8.6625   -7.4966 O   0  0  0  0  0  0  0  0  0  0  0  0
    9.0202    7.4803   -5.8261 H   0  0  0  0  0  0  0  0  0  0  0  0
   11.2273    6.9544   -8.4999 H   0  0  0  0  0  0  0  0  0  0  0  0
    9.4009    4.7634   -9.5773 H   0  0  0  0  0  0  0  0  0  0  0  0
   10.9023    5.3954  -10.3249 H   0  0  0  0  0  0  0  0  0  0  0  0
   12.0771    4.7175   -8.5180 H   0  0  0  0  0  0  0  0  0  0  0  0
    8.3099    7.0564   -9.3901 H   0  0  0  0  0  0  0  0  0  0  0  0
    9.4223    6.6451  -11.3524 H   0  0  0  0  0  0  0  0  0  0  0  0
    8.7420    9.4303   -9.5158 H   0  0  0  0  0  0  0  0  0  0  0  0
   11.1224    9.7530   -8.3632 H   0  0  0  0  0  0  0  0  0  0  0  0
    9.3144    9.6849   -7.0066 H   0  0  0  0  0  0  0  0  0  0  0  0
    7.3528    7.8488   -7.0140 H   0  0  0  0  0  0  0  0  0  0  0  0
  1  6  1  0
  1  2  2  0
  2  3  1  0
  3  4  2  0
  5  4  1  0
  6  5  2  0
  2  7  1  0
  3  8  1  0
  5  9  1  0
 10 11  1  0
 11 12  1  0
 12 13  1  0
 13 14  1  0
 14 15  1  0
 13 16  1  0
 16 17  1  0
 16 18  1  0
 18 19  1  0
 18 20  1  0
 20 21  1  0
 20 11  1  0
 11 22  1  1
 13 23  1  1
 14 24  1  0
 14 25  1  0
 15 26  1  0
 16 27  1  6
 17 28  1  0
 18 29  1  6
 19 30  1  0
 20 31  1  1
 21 32  1  0
  1 10  1  0
M  END
>  <Score>  (1) 
-7.03221

$$$$

     RDKit          3D

 25 26  0  0  0  0  0  0  0  0999 V2000
   11.3334    8.0743   -5.0648 C   0  0  0  0  0  0  0  0  0  0  0  0
   11.4861    6.8626   -4.3599 C   0  0  0  0  0  0  0  0  0  0  0  0
   11.8699    6.9353   -3.0115 C   0  0  0  0  0  0  0  0  0  0  0  0
   12.0716    8.1727   -2.4658 N   0  0  0  0  0  0  0  0  0  0  0  0
   11.9153    9.3101   -3.1731 C   0  0  0  0  0  0  0  0  0  0  0  0
   11.5457    9.2561   -4.4739 N   0  0  0  0  0  0  0  0  0  0  0  0
   11.3200    5.9119   -4.8185 H   0  0  0  0  0  0  0  0  0  0  0  0
   11.9983    6.0370   -2.4350 H   0  0  0  0  0  0  0  0  0  0  0  0
   12.0905   10.2475   -2.6806 H   0  0  0  0  0  0  0  0  0  0  0  0
   11.9982    7.6808  -10.6686 H   0  0  0  0  0  0  0  0  0  0  0  0
   12.0647    8.2132   -9.7391 C   0  0  0  0  0  0  0  0  0  0  0  0
   12.3345    9.3921   -9.7522 O   0  0  0  0  0  0  0  0  0  0  0  0
   11.8336    7.5299   -8.4698 C   0  0  1  0  0  0  0  0  0  0  0  0
   11.9491    8.3239   -7.3598 O   0  0  0  0  0  0  0  0  0  0  0  0
   10.9305    8.0530   -6.4880 C   0  0  1  0  0  0  0  0  0  0  0  0
   10.3787    6.6860   -6.8919 C   0  0  2  0  0  0  0  0  0  0  0  0
   11.3119    5.7277   -6.5677 O   0  0  0  0  0  0  0  0  0  0  0  0
   10.4397    6.8891   -8.4129 C   0  0  2  0  0  0  0  0  0  0  0  0
   10.3809    5.7037   -9.0945 O   0  0  0  0  0  0  0  0  0  0  0  0
   12.5390    6.6615   -8.3217 H   0  0  0  0  0  0  0  0  0  0  0  0
   10.0766    8.7749   -6.6377 H   0  0  0  0  0  0  0  0  0  0  0  0
    9.3745    6.5055   -6.5327 H   0  0  0  0  0  0  0  0  0  0  0  0
   12.2032    6.1378   -6.3750 H   0  0  0  0  0  0  0  0  0  0  0  0
    9.7103    7.6397   -8.7376 H   0  0  0  0  0  0  0  0  0  0  0  0
    9.5090    5.6782   -9.5808 H   0  0  0  0  0  0  0  0  0  0  0  0
  1  6  1  0
  1  2  2  0
  2  3  1  0
  3  4  2  0
  5  4  1  0
  6  5  2  0
  2  7  1  0
  3  8  1  0
  5  9  1  0
 10 11  1  0
 11 12  2  0
 11 13  1  0
 13 14  1  0
 14 15  1  0
 15 16  1  0
 16 17  1  0
 16 18  1  0
 18 19  1  0
 18 13  1  0
 13 20  1  1
 15 21  1  1
 16 22  1  1
 17 23  1  0
 18 24  1  6
 19 25  1  0
  1 15  1  0
M  END
>  <Score>  (1) 
-7.02918

$$$$

     RDKit          3D

 28 29  0  0  0  0  0  0  0  0999 V2000
   11.3328    8.0728   -5.0665 C   0  0  0  0  0  0  0  0  0  0  0  0
   11.4863    6.8622   -4.3591 C   0  0  0  0  0  0  0  0  0  0  0  0
   11.8700    6.9360   -3.0113 C   0  0  0  0  0  0  0  0  0  0  0  0
   12.0715    8.1711   -2.4656 N   0  0  0  0  0  0  0  0  0  0  0  0
   11.9146    9.3109   -3.1758 C   0  0  0  0  0  0  0  0  0  0  0  0
   11.5467    9.2580   -4.4706 N   0  0  0  0  0  0  0  0  0  0  0  0
   11.3183    5.9127   -4.8247 H   0  0  0  0  0  0  0  0  0  0  0  0
   12.0035    6.0337   -2.4162 H   0  0  0  0  0  0  0  0  0  0  0  0
   12.0987   10.2341   -2.6495 H   0  0  0  0  0  0  0  0  0  0  0  0
    9.2042    8.3304  -11.8605 H   0  0  0  0  0  0  0  0  0  0  0  0
    9.4021    7.5550  -11.1435 C   0  0  0  0  0  0  0  0  0  0  0  0
    9.5892    6.3855  -11.5462 O   0  0  0  0  0  0  0  0  0  0  0  0
    9.4495    7.8571   -9.7650 N   0  0  0  0  0  0  0  0  0  0  0  0
    9.2342    9.2153   -9.2727 C   0  0  0  0  0  0  0  0  0  0  0  0
   10.1287    9.4032   -8.0782 C   0  0  0  0  0  0  0  0  0  0  0  0
    9.7808    8.4759   -6.9347 C   0  0  0  0  0  0  0  0  0  0  0  0
   10.9523    7.9399   -6.3954 O   0  0  0  0  0  0  0  0  0  0  0  0
    8.9793    7.2954   -7.4999 C   0  0  0  0  0  0  0  0  0  0  0  0
    9.7128    6.8502   -8.7495 C   0  0  0  0  0  0  0  0  0  0  0  0
    8.1968    9.3663   -8.9391 H   0  0  0  0  0  0  0  0  0  0  0  0
    9.5604    9.9154  -10.0502 H   0  0  0  0  0  0  0  0  0  0  0  0
   10.0703   10.4690   -7.7863 H   0  0  0  0  0  0  0  0  0  0  0  0
   11.1706    9.1705   -8.4176 H   0  0  0  0  0  0  0  0  0  0  0  0
    9.1776    9.0257   -6.1844 H   0  0  0  0  0  0  0  0  0  0  0  0
    7.9660    7.6076   -7.7615 H   0  0  0  0  0  0  0  0  0  0  0  0
    9.0510    6.4920   -6.7666 H   0  0  0  0  0  0  0  0  0  0  0  0
    9.4204    5.8365   -9.0730 H   0  0  0  0  0  0  0  0  0  0  0  0
   10.8148    6.8151   -8.5725 H   0  0  0  0  0  0  0  0  0  0  0  0
  1  6  1  0
  1  2  2  0
  2  3  1  0
  3  4  2  0
  5  4  1  0
  6  5  2  0
  2  7  1  0
  3  8  1  0
  5  9  1  0
 10 11  1  0
 11 12  2  0
 11 13  1  0
 13 14  1  0
 14 15  1  0
 15 16  1  0
 16 17  1  0
 16 18  1  0
 18 19  1  0
 19 13  1  0
 14 20  1  0
 14 21  1  0
 15 22  1  0
 15 23  1  0
 16 24  1  0
 18 25  1  0
 18 26  1  0
 19 27  1  0
 19 28  1  0
  1 17  1  0
M  END
>  <Score>  (1) 
-7.01428

$$$$

     RDKit          3D

 26 27  0  0  0  0  0  0  0  0999 V2000
   11.3329    8.0720   -5.0662 C   0  0  0  0  0  0  0  0  0  0  0  0
   11.4869    6.8642   -4.3573 C   0  0  0  0  0  0  0  0  0  0  0  0
   11.8688    6.9321   -3.0151 C   0  0  0  0  0  0  0  0  0  0  0  0
   12.0719    8.1771   -2.4652 N   0  0  0  0  0  0  0  0  0  0  0  0
   11.9150    9.3082   -3.1740 C   0  0  0  0  0  0  0  0  0  0  0  0
   11.5465    9.2575   -4.4712 N   0  0  0  0  0  0  0  0  0  0  0  0
   11.3235    5.9092   -4.8059 H   0  0  0  0  0  0  0  0  0  0  0  0
   12.0088    6.0667   -2.4019 H   0  0  0  0  0  0  0  0  0  0  0  0
   12.0980   10.2378   -2.6526 H   0  0  0  0  0  0  0  0  0  0  0  0
   10.9434    8.0095   -6.4361 N   0  0  0  0  0  0  0  0  0  0  0  0
    9.9108    8.9043   -6.9204 C   0  0  0  0  0  0  0  0  0  0  0  0
   10.3797    9.4300   -8.2611 C   0  0  0  0  0  0  0  0  0  0  0  0
   10.3410    8.2717   -9.2359 C   0  0  0  0  0  0  0  0  0  0  0  0
    9.0577    8.2880   -9.8246 O   0  0  0  0  0  0  0  0  0  0  0  0
   10.5523    6.9565   -8.5342 C   0  0  0  0  0  0  0  0  0  0  0  0
   11.5321    7.0947   -7.3617 C   0  0  0  0  0  0  0  0  0  0  0  0
    8.9861    8.2948   -7.0532 H   0  0  0  0  0  0  0  0  0  0  0  0
    9.7245    9.7227   -6.1865 H   0  0  0  0  0  0  0  0  0  0  0  0
   11.4126    9.8150   -8.1666 H   0  0  0  0  0  0  0  0  0  0  0  0
    9.6705   10.2185   -8.5982 H   0  0  0  0  0  0  0  0  0  0  0  0
   11.0673    8.4316  -10.0686 H   0  0  0  0  0  0  0  0  0  0  0  0
    8.5918    7.4339   -9.7058 H   0  0  0  0  0  0  0  0  0  0  0  0
   10.9272    6.1813   -9.2309 H   0  0  0  0  0  0  0  0  0  0  0  0
    9.5826    6.6373   -8.1039 H   0  0  0  0  0  0  0  0  0  0  0  0
   11.7015    6.0821   -6.9597 H   0  0  0  0  0  0  0  0  0  0  0  0
   12.4850    7.4519   -7.8107 H   0  0  0  0  0  0  0  0  0  0  0  0
  1  6  1  0
  1  2  2  0
  2  3  1  0
  3  4  2  0
  5  4  1  0
  6  5  2  0
  2  7  1  0
  3  8  1  0
  5  9  1  0
 10 11  1  0
 11 12  1  0
 12 13  1  0
 13 14  1  0
 13 15  1  0
 15 16  1  0
 16 10  1  0
 11 17  1  0
 11 18  1  0
 12 19  1  0
 12 20  1  0
 13 21  1  0
 14 22  1  0
 15 23  1  0
 15 24  1  0
 16 25  1  0
 16 26  1  0
  1 10  1  0
M  END
>  <Score>  (1) 
-7.00909

$$$$

     RDKit          3D

 23 24  0  0  0  0  0  0  0  0999 V2000
   11.3336    8.0856   -5.0655 C   0  0  0  0  0  0  0  0  0  0  0  0
   11.4876    6.8616   -4.3545 C   0  0  0  0  0  0  0  0  0  0  0  0
   11.8683    6.9362   -3.0172 C   0  0  0  0  0  0  0  0  0  0  0  0
   12.0723    8.1737   -2.4634 N   0  0  0  0  0  0  0  0  0  0  0  0
   11.9156    9.3118   -3.1725 C   0  0  0  0  0  0  0  0  0  0  0  0
   11.5446    9.2421   -4.4759 N   0  0  0  0  0  0  0  0  0  0  0  0
   11.3148    5.9224   -4.8382 H   0  0  0  0  0  0  0  0  0  0  0  0
   12.0034    6.0406   -2.4175 H   0  0  0  0  0  0  0  0  0  0  0  0
   12.0975   10.2342   -2.6542 H   0  0  0  0  0  0  0  0  0  0  0  0
   10.9591    7.9999   -6.4201 N   0  0  0  0  0  0  0  0  0  0  0  0
   10.1872    8.9279   -7.1579 C   0  0  0  0  0  0  0  0  0  0  0  0
    9.4826    9.9715   -6.6252 C   0  0  0  0  0  0  0  0  0  0  0  0
    8.7764   10.8332   -7.3939 N   0  0  0  0  0  0  0  0  0  0  0  0
    8.7505   10.6817   -8.7143 C   0  0  0  0  0  0  0  0  0  0  0  0
    9.4224    9.6666   -9.3588 C   0  0  0  0  0  0  0  0  0  0  0  0
    9.3987    9.4961  -10.7895 C   0  0  0  0  0  0  0  0  0  0  0  0
    9.9364    8.6933  -11.2384 H   0  0  0  0  0  0  0  0  0  0  0  0
    8.7495   10.2883  -11.4942 O   0  0  0  0  0  0  0  0  0  0  0  0
   10.1343    8.8018   -8.5590 C   0  0  0  0  0  0  0  0  0  0  0  0
   11.2796    7.1331   -6.9891 H   0  0  0  0  0  0  0  0  0  0  0  0
    9.4673   10.1291   -5.5575 H   0  0  0  0  0  0  0  0  0  0  0  0
    8.1729   11.3910   -9.3112 H   0  0  0  0  0  0  0  0  0  0  0  0
   10.6704    8.0013   -9.0184 H   0  0  0  0  0  0  0  0  0  0  0  0
  1  6  1  0
  1  2  2  0
  2  3  1  0
  3  4  2  0
  5  4  1  0
  6  5  2  0
  2  7  1  0
  3  8  1  0
  5  9  1  0
 10 11  1  0
 11 12  2  0
 12 13  1  0
 13 14  2  0
 14 15  1  0
 15 16  1  0
 16 17  1  0
 16 18  2  0
 15 19  2  0
 19 11  1  0
 10 20  1  0
 12 21  1  0
 14 22  1  0
 19 23  1  0
  1 10  1  0
M  END
>  <Score>  (1) 
-7.00339

$$$$

     RDKit          3D

 28 29  0  0  0  0  0  0  0  0999 V2000
   11.3334    8.0695   -5.0643 C   0  0  0  0  0  0  0  0  0  0  0  0
   11.4852    6.8667   -4.3636 C   0  0  0  0  0  0  0  0  0  0  0  0
   11.8706    6.9358   -3.0091 C   0  0  0  0  0  0  0  0  0  0  0  0
   12.0716    8.1712   -2.4654 N   0  0  0  0  0  0  0  0  0  0  0  0
   11.9148    9.3111   -3.1752 C   0  0  0  0  0  0  0  0  0  0  0  0
   11.5465    9.2567   -4.4713 N   0  0  0  0  0  0  0  0  0  0  0  0
   11.3278    5.9098   -4.7906 H   0  0  0  0  0  0  0  0  0  0  0  0
   11.9931    6.0274   -2.4523 H   0  0  0  0  0  0  0  0  0  0  0  0
   12.1008   10.2339   -2.6424 H   0  0  0  0  0  0  0  0  0  0  0  0
   10.9420    7.9742   -6.4361 N   0  0  0  0  0  0  0  0  0  0  0  0
   11.0550    9.0861   -7.3488 C   0  0  0  0  0  0  0  0  0  0  0  0
   10.5711    8.7059   -8.7282 C   0  0  0  0  0  0  0  0  0  0  0  0
   11.7057    8.3212   -9.6451 C   0  0  0  0  0  0  0  0  0  0  0  0
   12.5500    9.5396   -9.9659 C   0  0  0  0  0  0  0  0  0  0  0  0
   12.6846   10.3691   -8.7086 C   0  0  0  0  0  0  0  0  0  0  0  0
   12.5233    9.4925   -7.5033 C   0  0  0  0  0  0  0  0  0  0  0  0
   10.5584    7.0863   -6.8223 H   0  0  0  0  0  0  0  0  0  0  0  0
   10.4904    9.9740   -7.0162 H   0  0  0  0  0  0  0  0  0  0  0  0
    9.9833    9.4924   -9.2111 H   0  0  0  0  0  0  0  0  0  0  0  0
    9.9181    7.8171   -8.6266 H   0  0  0  0  0  0  0  0  0  0  0  0
   12.3413    7.5520   -9.2044 H   0  0  0  0  0  0  0  0  0  0  0  0
   11.2529    7.9712  -10.5909 H   0  0  0  0  0  0  0  0  0  0  0  0
   12.0629   10.1374  -10.7507 H   0  0  0  0  0  0  0  0  0  0  0  0
   13.5590    9.2669  -10.3172 H   0  0  0  0  0  0  0  0  0  0  0  0
   13.6463   10.9006   -8.6861 H   0  0  0  0  0  0  0  0  0  0  0  0
   11.8783   11.1221   -8.7184 H   0  0  0  0  0  0  0  0  0  0  0  0
   12.8285   10.0684   -6.6164 H   0  0  0  0  0  0  0  0  0  0  0  0
   13.1529    8.5662   -7.6144 H   0  0  0  0  0  0  0  0  0  0  0  0
  1  6  1  0
  1  2  2  0
  2  3  1  0
  3  4  2  0
  5  4  1  0
  6  5  2  0
  2  7  1  0
  3  8  1  0
  5  9  1  0
 10 11  1  0
 11 12  1  0
 12 13  1  0
 13 14  1  0
 14 15  1  0
 15 16  1  0
 16 11  1  0
 10 17  1  0
 11 18  1  0
 12 19  1  0
 12 20  1  0
 13 21  1  0
 13 22  1  0
 14 23  1  0
 14 24  1  0
 15 25  1  0
 15 26  1  0
 16 27  1  0
 16 28  1  0
  1 10  1  0
M  END
>  <Score>  (1) 
-7.00117

$$$$

     RDKit          3D

 23 24  0  0  0  0  0  0  0  0999 V2000
   11.6894    9.2571   -4.3239 C   0  0  0  0  0  0  0  0  0  0  0  0
   11.3437    8.0916   -5.0381 C   0  0  0  0  0  0  0  0  0  0  0  0
   11.4153    6.8663   -4.3662 C   0  0  0  0  0  0  0  0  0  0  0  0
   11.8164    6.8719   -3.0560 N   0  0  0  0  0  0  0  0  0  0  0  0
   12.1394    8.0065   -2.4050 C   0  0  0  0  0  0  0  0  0  0  0  0
   12.0758    9.1946   -3.0378 N   0  0  0  0  0  0  0  0  0  0  0  0
   11.6154   10.1716   -4.8926 H   0  0  0  0  0  0  0  0  0  0  0  0
   11.0327    8.1386   -6.0722 H   0  0  0  0  0  0  0  0  0  0  0  0
   11.1587    5.9621   -4.8822 H   0  0  0  0  0  0  0  0  0  0  0  0
   12.5350    7.9055   -1.0751 O   0  0  0  0  0  0  0  0  0  0  0  0
   13.4257    6.9585   -0.6236 C   0  0  0  0  0  0  0  0  0  0  0  0
   12.9576    5.7329   -0.1853 C   0  0  0  0  0  0  0  0  0  0  0  0
   13.8085    4.7528    0.2755 C   0  0  0  0  0  0  0  0  0  0  0  0
   15.1744    5.0091    0.2982 C   0  0  0  0  0  0  0  0  0  0  0  0
   15.6842    6.2163   -0.1290 C   0  0  0  0  0  0  0  0  0  0  0  0
   17.0867    6.4615   -0.0987 N   0  0  0  0  0  0  0  0  0  0  0  0
   17.4636    7.4470   -0.0937 H   0  0  0  0  0  0  0  0  0  0  0  0
   14.7900    7.1630   -0.5807 C   0  0  0  0  0  0  0  0  0  0  0  0
   11.8769    5.5629   -0.2161 H   0  0  0  0  0  0  0  0  0  0  0  0
   13.4541    3.8017    0.6163 H   0  0  0  0  0  0  0  0  0  0  0  0
   15.8665    4.2614    0.6537 H   0  0  0  0  0  0  0  0  0  0  0  0
   17.7591    5.6634   -0.0810 H   0  0  0  0  0  0  0  0  0  0  0  0
   15.1406    8.1274   -0.9271 H   0  0  0  0  0  0  0  0  0  0  0  0
  1  6  2  0
  2  3  2  0
  2  1  1  0
  3  4  1  0
  4  5  2  0
  6  5  1  0
  1  7  1  0
  2  8  1  0
  3  9  1  0
 10 11  1  0
 11 12  2  0
 12 13  1  0
 13 14  2  0
 14 15  1  0
 15 16  1  0
 16 17  1  0
 15 18  2  0
 18 11  1  0
 12 19  1  0
 13 20  1  0
 14 21  1  0
 16 22  1  0
 18 23  1  0
  5 10  1  0
M  END
>  <Score>  (1) 
-7.50457

$$$$

     RDKit          3D

 28 29  0  0  0  0  0  0  0  0999 V2000
   12.3027    8.1243   -2.3012 C   0  0  0  0  0  0  0  0  0  0  0  0
   12.0210    6.8825   -2.9140 C   0  0  0  0  0  0  0  0  0  0  0  0
   11.5245    6.8976   -4.2245 C   0  0  0  0  0  0  0  0  0  0  0  0
   11.3425    8.1090   -4.8313 N   0  0  0  0  0  0  0  0  0  0  0  0
   11.6236    9.2766   -4.2123 C   0  0  0  0  0  0  0  0  0  0  0  0
   12.1007    9.2810   -2.9548 N   0  0  0  0  0  0  0  0  0  0  0  0
   12.6791    8.0586   -1.3018 H   0  0  0  0  0  0  0  0  0  0  0  0
   12.1715    5.9552   -2.4202 H   0  0  0  0  0  0  0  0  0  0  0  0
   11.2926    5.9702   -4.7390 H   0  0  0  0  0  0  0  0  0  0  0  0
   11.4023   10.5388   -4.9277 C   0  0  2  0  0  0  0  0  0  0  0  0
   11.1971   10.1866   -6.4016 C   0  0  0  0  0  0  0  0  0  0  0  0
   10.6607   11.4681   -7.0069 C   0  0  0  0  0  0  0  0  0  0  0  0
   11.8246   12.4205   -7.0707 C   0  0  1  0  0  0  0  0  0  0  0  0
   11.3080   13.6789   -7.5918 N   0  0  0  0  0  0  0  0  0  0  0  0
   12.5623   12.5907   -5.8000 C   0  0  0  0  0  0  0  0  0  0  0  0
   12.5506   11.4918   -4.8309 C   0  0  0  0  0  0  0  0  0  0  0  0
   10.4977   11.0390   -4.5454 H   0  0  0  0  0  0  0  0  0  0  0  0
   10.4925    9.3423   -6.5163 H   0  0  0  0  0  0  0  0  0  0  0  0
   12.1988    9.9785   -6.8172 H   0  0  0  0  0  0  0  0  0  0  0  0
    9.8517   11.8864   -6.3548 H   0  0  0  0  0  0  0  0  0  0  0  0
   10.3185   11.2932   -8.0459 H   0  0  0  0  0  0  0  0  0  0  0  0
   12.5054   12.0259   -7.8782 H   0  0  0  0  0  0  0  0  0  0  0  0
   11.1975   13.5842   -8.6433 H   0  0  0  0  0  0  0  0  0  0  0  0
   10.4153   13.9523   -7.1498 H   0  0  0  0  0  0  0  0  0  0  0  0
   13.6394   12.8180   -6.0614 H   0  0  0  0  0  0  0  0  0  0  0  0
   12.2056   13.5546   -5.3276 H   0  0  0  0  0  0  0  0  0  0  0  0
   12.5487   11.9049   -3.7974 H   0  0  0  0  0  0  0  0  0  0  0  0
   13.4912   10.8669   -4.8806 H   0  0  0  0  0  0  0  0  0  0  0  0
  2  1  2  0
  3  2  1  0
  4  3  2  0
  4  5  1  0
  5  6  2  0
  6  1  1  0
  1  7  1  0
  2  8  1  0
  3  9  1  0
 10 11  1  0
 11 12  1  0
 12 13  1  0
 13 14  1  0
 13 15  1  0
 15 16  1  0
 16 10  1  0
 10 17  1  1
 11 18  1  0
 11 19  1  0
 12 20  1  0
 12 21  1  0
 13 22  1  6
 14 23  1  0
 14 24  1  0
 15 25  1  0
 15 26  1  0
 16 27  1  0
 16 28  1  0
  5 10  1  0
M  END
>  <Score>  (1) 
-7.57288

$$$$

     RDKit          3D

 23 25  0  0  0  0  0  0  0  0999 V2000
   11.6886    9.2548   -4.3258 C   0  0  0  0  0  0  0  0  0  0  0  0
   11.3439    8.0904   -5.0370 C   0  0  0  0  0  0  0  0  0  0  0  0
   11.4157    6.8684   -4.3657 C   0  0  0  0  0  0  0  0  0  0  0  0
   11.8153    6.8710   -3.0595 N   0  0  0  0  0  0  0  0  0  0  0  0
   12.1399    8.0129   -2.4056 C   0  0  0  0  0  0  0  0  0  0  0  0
   12.0767    9.1905   -3.0333 N   0  0  0  0  0  0  0  0  0  0  0  0
   11.6441   10.2179   -4.8155 H   0  0  0  0  0  0  0  0  0  0  0  0
   11.0348    8.1557   -6.0713 H   0  0  0  0  0  0  0  0  0  0  0  0
   11.1617    5.9455   -4.8666 H   0  0  0  0  0  0  0  0  0  0  0  0
   12.5572    7.8924   -0.9976 C   0  0  0  0  0  0  0  0  0  0  0  0
   11.7154    7.3553   -0.0454 C   0  0  0  0  0  0  0  0  0  0  0  0
   12.0904    7.2363    1.2721 C   0  0  0  0  0  0  0  0  0  0  0  0
   13.3333    7.6519    1.7011 C   0  0  0  0  0  0  0  0  0  0  0  0
   14.1749    8.1880    0.7536 C   0  0  0  0  0  0  0  0  0  0  0  0
   15.4445    8.6786    0.8703 N   0  0  0  0  0  0  0  0  0  0  0  0
   15.8391    9.0801   -0.3036 N   0  0  0  0  0  0  0  0  0  0  0  0
   14.8686    8.8734   -1.2115 C   0  0  0  0  0  0  0  0  0  0  0  0
   13.7936    8.3052   -0.5681 C   0  0  0  0  0  0  0  0  0  0  0  0
   10.7294    7.0270   -0.3925 H   0  0  0  0  0  0  0  0  0  0  0  0
   11.3831    6.8010    1.9943 H   0  0  0  0  0  0  0  0  0  0  0  0
   13.6505    7.5679    2.7344 H   0  0  0  0  0  0  0  0  0  0  0  0
   15.9575    8.7004    1.7757 H   0  0  0  0  0  0  0  0  0  0  0  0
   14.9457    9.1183   -2.2505 H   0  0  0  0  0  0  0  0  0  0  0  0
  1  6  2  0
  2  3  2  0
  2  1  1  0
  3  4  1  0
  4  5  2  0
  6  5  1  0
  1  7  1  0
  2  8  1  0
  3  9  1  0
 10 11  2  0
 11 12  1  0
 12 13  2  0
 13 14  1  0
 14 15  1  0
 15 16  1  0
 16 17  2  0
 17 18  1  0
 18 10  1  0
 18 14  2  0
 11 19  1  0
 12 20  1  0
 13 21  1  0
 15 22  1  0
 17 23  1  0
  5 10  1  0
M  END
>  <Score>  (1) 
-7.38961

$$$$

     RDKit          3D

 21 22  0  0  0  0  0  0  0  0999 V2000
   11.6897    9.2591   -4.3235 C   0  0  0  0  0  0  0  0  0  0  0  0
   11.3435    8.0906   -5.0384 C   0  0  0  0  0  0  0  0  0  0  0  0
   11.4154    6.8653   -4.3654 C   0  0  0  0  0  0  0  0  0  0  0  0
   11.8164    6.8732   -3.0567 N   0  0  0  0  0  0  0  0  0  0  0  0
   12.1393    8.0070   -2.4054 C   0  0  0  0  0  0  0  0  0  0  0  0
   12.0757    9.1928   -3.0375 N   0  0  0  0  0  0  0  0  0  0  0  0
   11.6377   10.2214   -4.8375 H   0  0  0  0  0  0  0  0  0  0  0  0
   11.0363    8.1392   -6.0606 H   0  0  0  0  0  0  0  0  0  0  0  0
   11.1599    5.9495   -4.8737 H   0  0  0  0  0  0  0  0  0  0  0  0
   12.5428    7.9480   -1.0646 O   0  0  0  0  0  0  0  0  0  0  0  0
   12.9053    6.7453   -0.5085 C   0  0  0  0  0  0  0  0  0  0  0  0
   14.1580    6.5618    0.0023 C   0  0  0  0  0  0  0  0  0  0  0  0
   14.8736    7.3700   -0.0302 H   0  0  0  0  0  0  0  0  0  0  0  0
   14.5510    5.3454    0.5742 C   0  0  0  0  0  0  0  0  0  0  0  0
   13.6229    4.3190    0.6084 C   0  0  0  0  0  0  0  0  0  0  0  0
   12.3589    4.5035    0.0934 C   0  0  0  0  0  0  0  0  0  0  0  0
   11.6146    3.7045    0.1123 H   0  0  0  0  0  0  0  0  0  0  0  0
   11.9987    5.7218   -0.4675 C   0  0  0  0  0  0  0  0  0  0  0  0
   10.7315    5.8965   -0.9802 F   0  0  0  0  0  0  0  0  0  0  0  0
   15.5455    5.2292    0.9692 H   0  0  0  0  0  0  0  0  0  0  0  0
   13.9010    3.3506    1.0514 H   0  0  0  0  0  0  0  0  0  0  0  0
  1  6  2  0
  2  3  2  0
  2  1  1  0
  3  4  1  0
  4  5  2  0
  6  5  1  0
  1  7  1  0
  2  8  1  0
  3  9  1  0
 10 11  1  0
 11 12  2  0
 12 13  1  0
 12 14  1  0
 14 15  2  0
 15 16  1  0
 16 17  1  0
 16 18  2  0
 18 19  1  0
 18 11  1  0
 14 20  1  0
 15 21  1  0
  5 10  1  0
M  END
>  <Score>  (1) 
-7.37062

$$$$

     RDKit          3D

 23 24  0  0  0  0  0  0  0  0999 V2000
   11.6879    9.2546   -4.3280 C   0  0  0  0  0  0  0  0  0  0  0  0
   11.3436    8.0945   -5.0394 C   0  0  0  0  0  0  0  0  0  0  0  0
   11.4174    6.8679   -4.3598 C   0  0  0  0  0  0  0  0  0  0  0  0
   11.8143    6.8713   -3.0628 N   0  0  0  0  0  0  0  0  0  0  0  0
   12.1410    8.0120   -2.4019 C   0  0  0  0  0  0  0  0  0  0  0  0
   12.0759    9.1877   -3.0350 N   0  0  0  0  0  0  0  0  0  0  0  0
   11.6210   10.1749   -4.8758 H   0  0  0  0  0  0  0  0  0  0  0  0
   11.0331    8.1504   -6.0750 H   0  0  0  0  0  0  0  0  0  0  0  0
   11.1590    5.9580   -4.8797 H   0  0  0  0  0  0  0  0  0  0  0  0
   14.3913   10.1002   -2.3307 H   0  0  0  0  0  0  0  0  0  0  0  0
   14.9035    9.0145   -1.7013 S   0  0  0  0  0  6  0  0  0  0  0  0
   16.1001    9.5296   -0.9107 O   0  0  0  0  0  0  0  0  0  0  0  0
   15.4616    7.9805   -2.6309 O   0  0  0  0  0  0  0  0  0  0  0  0
   13.7842    8.3369   -0.5415 C   0  0  0  0  0  0  0  0  0  0  0  0
   14.1257    8.2231    0.8086 C   0  0  0  0  0  0  0  0  0  0  0  0
   13.2593    7.6960    1.7201 C   0  0  0  0  0  0  0  0  0  0  0  0
   12.0242    7.2737    1.2696 C   0  0  0  0  0  0  0  0  0  0  0  0
   11.6815    7.3837   -0.0634 C   0  0  0  0  0  0  0  0  0  0  0  0
   12.5579    7.9209   -1.0061 C   0  0  0  0  0  0  0  0  0  0  0  0
   15.0941    8.5611    1.1252 H   0  0  0  0  0  0  0  0  0  0  0  0
   13.5036    7.5994    2.7669 H   0  0  0  0  0  0  0  0  0  0  0  0
   11.3035    6.8451    1.9754 H   0  0  0  0  0  0  0  0  0  0  0  0
   10.7088    7.0504   -0.4145 H   0  0  0  0  0  0  0  0  0  0  0  0
  1  6  2  0
  2  3  2  0
  2  1  1  0
  3  4  1  0
  4  5  2  0
  6  5  1  0
  1  7  1  0
  2  8  1  0
  3  9  1  0
 10 11  1  0
 11 12  2  0
 11 13  2  0
 11 14  1  0
 14 15  2  0
 15 16  1  0
 16 17  2  0
 17 18  1  0
 18 19  2  0
 19 14  1  0
 15 20  1  0
 16 21  1  0
 17 22  1  0
 18 23  1  0
  5 19  1  0
M  END
>  <Score>  (1) 
-7.32695

$$$$

     RDKit          3D

 25 26  0  0  0  0  0  0  0  0999 V2000
   11.6899    9.2588   -4.3228 C   0  0  0  0  0  0  0  0  0  0  0  0
   11.3433    8.0906   -5.0390 C   0  0  0  0  0  0  0  0  0  0  0  0
   11.4160    6.8656   -4.3634 C   0  0  0  0  0  0  0  0  0  0  0  0
   11.8153    6.8697   -3.0591 N   0  0  0  0  0  0  0  0  0  0  0  0
   12.1397    8.0082   -2.4047 C   0  0  0  0  0  0  0  0  0  0  0  0
   12.0757    9.1949   -3.0380 N   0  0  0  0  0  0  0  0  0  0  0  0
   11.6157   10.1712   -4.8915 H   0  0  0  0  0  0  0  0  0  0  0  0
   11.0338    8.1365   -6.0677 H   0  0  0  0  0  0  0  0  0  0  0  0
   11.1594    5.9598   -4.8792 H   0  0  0  0  0  0  0  0  0  0  0  0
   14.8544    5.0952    0.3958 H   0  0  0  0  0  0  0  0  0  0  0  0
   14.7627    5.9928    0.9748 C   0  0  0  0  0  0  0  0  0  0  0  0
   15.3708    6.1771    2.0127 O   0  0  0  0  0  0  0  0  0  0  0  0
   13.8620    7.0756    0.5153 C   0  0  2  0  0  0  0  0  0  0  0  0
   13.2205    6.7549   -0.6798 O   0  0  0  0  0  0  0  0  0  0  0  0
   12.5692    7.9677   -0.9854 C   0  0  1  0  0  0  0  0  0  0  0  0
   13.5515    9.0588   -0.6623 C   0  0  1  0  0  0  0  0  0  0  0  0
   12.9682    9.9591    0.2390 O   0  0  0  0  0  0  0  0  0  0  0  0
   14.6312    8.3126    0.0939 C   0  0  1  0  0  0  0  0  0  0  0  0
   15.0997    9.0296    1.1858 O   0  0  0  0  0  0  0  0  0  0  0  0
   13.1233    7.3787    1.2869 H   0  0  0  0  0  0  0  0  0  0  0  0
   11.6753    7.9958   -0.3080 H   0  0  0  0  0  0  0  0  0  0  0  0
   13.9384    9.5847   -1.5477 H   0  0  0  0  0  0  0  0  0  0  0  0
   12.1263    9.5789    0.6072 H   0  0  0  0  0  0  0  0  0  0  0  0
   15.4167    8.0549   -0.6352 H   0  0  0  0  0  0  0  0  0  0  0  0
   15.5112    9.8487    0.8415 H   0  0  0  0  0  0  0  0  0  0  0  0
  1  6  2  0
  2  3  2  0
  2  1  1  0
  3  4  1  0
  4  5  2  0
  6  5  1  0
  1  7  1  0
  2  8  1  0
  3  9  1  0
 10 11  1  0
 11 12  2  0
 11 13  1  0
 13 14  1  0
 14 15  1  0
 15 16  1  0
 16 17  1  0
 16 18  1  0
 18 19  1  0
 18 13  1  0
 13 20  1  1
 15 21  1  1
 16 22  1  6
 17 23  1  0
 18 24  1  6
 19 25  1  0
  5 15  1  0
M  END
>  <Score>  (1) 
-7.24232

$$$$

     RDKit          3D

 21 22  0  0  0  0  0  0  0  0999 V2000
   11.6900    9.2588   -4.3227 C   0  0  0  0  0  0  0  0  0  0  0  0
   11.3434    8.0910   -5.0390 C   0  0  0  0  0  0  0  0  0  0  0  0
   11.4158    6.8652   -4.3640 C   0  0  0  0  0  0  0  0  0  0  0  0
   11.8155    6.8707   -3.0585 N   0  0  0  0  0  0  0  0  0  0  0  0
   12.1397    8.0079   -2.4045 C   0  0  0  0  0  0  0  0  0  0  0  0
   12.0756    9.1945   -3.0384 N   0  0  0  0  0  0  0  0  0  0  0  0
   11.6209   10.1724   -4.8750 H   0  0  0  0  0  0  0  0  0  0  0  0
   11.0375    8.1541   -6.0622 H   0  0  0  0  0  0  0  0  0  0  0  0
   11.1625    5.9502   -4.8655 H   0  0  0  0  0  0  0  0  0  0  0  0
   12.5401    7.9520   -1.0751 O   0  0  0  0  0  0  0  0  0  0  0  0
   13.6473    8.6856   -0.6577 C   0  0  0  0  0  0  0  0  0  0  0  0
   14.8606    8.0563   -0.7336 C   0  0  0  0  0  0  0  0  0  0  0  0
   16.0070    8.6938   -0.3468 C   0  0  0  0  0  0  0  0  0  0  0  0
   15.9166    9.9821    0.1208 C   0  0  0  0  0  0  0  0  0  0  0  0
   17.0284   10.6785    0.5250 F   0  0  0  0  0  0  0  0  0  0  0  0
   14.6975   10.6214    0.1997 C   0  0  0  0  0  0  0  0  0  0  0  0
   13.5532    9.9705   -0.1918 C   0  0  0  0  0  0  0  0  0  0  0  0
   14.9534    7.0433   -1.0985 H   0  0  0  0  0  0  0  0  0  0  0  0
   16.9649    8.1819   -0.4125 H   0  0  0  0  0  0  0  0  0  0  0  0
   14.6674   11.6576    0.5815 H   0  0  0  0  0  0  0  0  0  0  0  0
   12.5815   10.4420   -0.1430 H   0  0  0  0  0  0  0  0  0  0  0  0
  1  6  2  0
  2  3  2  0
  2  1  1  0
  3  4  1  0
  4  5  2  0
  6  5  1  0
  1  7  1  0
  2  8  1  0
  3  9  1  0
 10 11  1  0
 11 12  2  0
 12 13  1  0
 13 14  2  0
 14 15  1  0
 14 16  1  0
 16 17  2  0
 17 11  1  0
 12 18  1  0
 13 19  1  0
 16 20  1  0
 17 21  1  0
  5 10  1  0
M  END
>  <Score>  (1) 
-7.2287

$$$$

     RDKit          3D

 23 24  0  0  0  0  0  0  0  0999 V2000
   11.6886    9.2573   -4.3267 C   0  0  0  0  0  0  0  0  0  0  0  0
   11.3438    8.0946   -5.0389 C   0  0  0  0  0  0  0  0  0  0  0  0
   11.4160    6.8632   -4.3626 C   0  0  0  0  0  0  0  0  0  0  0  0
   11.8155    6.8716   -3.0590 N   0  0  0  0  0  0  0  0  0  0  0  0
   12.1396    8.0102   -2.4056 C   0  0  0  0  0  0  0  0  0  0  0  0
   12.0765    9.1911   -3.0343 N   0  0  0  0  0  0  0  0  0  0  0  0
   11.6225   10.1880   -4.8756 H   0  0  0  0  0  0  0  0  0  0  0  0
   11.0412    8.1713   -6.0561 H   0  0  0  0  0  0  0  0  0  0  0  0
   11.1593    5.9686   -4.8827 H   0  0  0  0  0  0  0  0  0  0  0  0
   12.5401    7.9301   -1.0671 O   0  0  0  0  0  0  0  0  0  0  0  0
   12.5833    9.0502   -0.2783 C   0  0  0  0  0  0  0  0  0  0  0  0
   13.7467    9.7744   -0.2320 C   0  0  0  0  0  0  0  0  0  0  0  0
   13.8100   10.9130    0.5618 C   0  0  0  0  0  0  0  0  0  0  0  0
   12.7353   11.3329    1.3028 C   0  0  0  0  0  0  0  0  0  0  0  0
   12.8149   12.4992    2.1099 N   0  0  0  0  0  0  0  0  0  0  0  0
   13.5409   12.5143    2.8562 H   0  0  0  0  0  0  0  0  0  0  0  0
   11.5823   10.5972    1.2440 C   0  0  0  0  0  0  0  0  0  0  0  0
   11.4905    9.4650    0.4664 C   0  0  0  0  0  0  0  0  0  0  0  0
   14.6013    9.4413   -0.8207 H   0  0  0  0  0  0  0  0  0  0  0  0
   14.7346   11.4787    0.5915 H   0  0  0  0  0  0  0  0  0  0  0  0
   12.1561   13.2698    1.9212 H   0  0  0  0  0  0  0  0  0  0  0  0
   10.7292   10.9147    1.8209 H   0  0  0  0  0  0  0  0  0  0  0  0
   10.5698    8.9131    0.4450 H   0  0  0  0  0  0  0  0  0  0  0  0
  1  6  2  0
  2  3  2  0
  2  1  1  0
  3  4  1  0
  4  5  2  0
  6  5  1  0
  1  7  1  0
  2  8  1  0
  3  9  1  0
 10 11  1  0
 11 12  2  0
 12 13  1  0
 13 14  2  0
 14 15  1  0
 15 16  1  0
 14 17  1  0
 17 18  2  0
 18 11  1  0
 12 19  1  0
 13 20  1  0
 15 21  1  0
 17 22  1  0
 18 23  1  0
  5 10  1  0
M  END
>  <Score>  (1) 
-7.11177

$$$$

     RDKit          3D

 21 22  0  0  0  0  0  0  0  0999 V2000
   11.6888    9.2561   -4.3255 C   0  0  0  0  0  0  0  0  0  0  0  0
   11.3446    8.0936   -5.0359 C   0  0  0  0  0  0  0  0  0  0  0  0
   11.4151    6.8659   -4.3668 C   0  0  0  0  0  0  0  0  0  0  0  0
   11.8163    6.8712   -3.0561 N   0  0  0  0  0  0  0  0  0  0  0  0
   12.1398    8.0053   -2.4032 C   0  0  0  0  0  0  0  0  0  0  0  0
   12.0754    9.1960   -3.0395 N   0  0  0  0  0  0  0  0  0  0  0  0
   11.6158   10.1751   -4.8923 H   0  0  0  0  0  0  0  0  0  0  0  0
   11.0345    8.1381   -6.0660 H   0  0  0  0  0  0  0  0  0  0  0  0
   11.1584    5.9757   -4.8891 H   0  0  0  0  0  0  0  0  0  0  0  0
   12.5340    7.9010   -1.0763 O   0  0  0  0  0  0  0  0  0  0  0  0
   13.4905    8.6857   -0.4783 C   0  0  0  0  0  0  0  0  0  0  0  0
   14.1884    9.6886   -1.1289 C   0  0  0  0  0  0  0  0  0  0  0  0
   15.1395   10.4456   -0.4756 C   0  0  0  0  0  0  0  0  0  0  0  0
   15.3825   10.1775    0.8564 C   0  0  0  0  0  0  0  0  0  0  0  0
   14.7047    9.1787    1.5509 C   0  0  0  0  0  0  0  0  0  0  0  0
   13.7630    8.4490    0.8539 C   0  0  0  0  0  0  0  0  0  0  0  0
   12.8933    7.1788    1.7191 Cl  0  0  0  0  0  0  0  0  0  0  0  0
   13.9667    9.8611   -2.1608 H   0  0  0  0  0  0  0  0  0  0  0  0
   15.6785   11.2329   -1.0088 H   0  0  0  0  0  0  0  0  0  0  0  0
   16.1357   10.7868    1.3480 H   0  0  0  0  0  0  0  0  0  0  0  0
   14.9189    8.9910    2.6026 H   0  0  0  0  0  0  0  0  0  0  0  0
  1  6  2  0
  2  3  2  0
  2  1  1  0
  3  4  1  0
  4  5  2  0
  6  5  1  0
  1  7  1  0
  2  8  1  0
  3  9  1  0
 10 11  1  0
 11 12  2  0
 12 13  1  0
 13 14  2  0
 14 15  1  0
 15 16  2  0
 16 17  1  0
 16 11  1  0
 12 18  1  0
 13 19  1  0
 14 20  1  0
 15 21  1  0
  5 10  1  0
M  END
>  <Score>  (1) 
-7.08946

$$$$

     RDKit          3D

 26 27  0  0  0  0  0  0  0  0999 V2000
   11.6898    9.2583   -4.3229 C   0  0  0  0  0  0  0  0  0  0  0  0
   11.3434    8.0928   -5.0394 C   0  0  0  0  0  0  0  0  0  0  0  0
   11.4164    6.8644   -4.3619 C   0  0  0  0  0  0  0  0  0  0  0  0
   11.8157    6.8713   -3.0583 N   0  0  0  0  0  0  0  0  0  0  0  0
   12.1391    8.0050   -2.4055 C   0  0  0  0  0  0  0  0  0  0  0  0
   12.0756    9.1963   -3.0389 N   0  0  0  0  0  0  0  0  0  0  0  0
   11.6240   10.1763   -4.8664 H   0  0  0  0  0  0  0  0  0  0  0  0
   11.0356    8.1323   -6.0606 H   0  0  0  0  0  0  0  0  0  0  0  0
   11.1596    5.9556   -4.8768 H   0  0  0  0  0  0  0  0  0  0  0  0
   16.1687    7.8635   -0.3281 H   0  0  0  0  0  0  0  0  0  0  0  0
   15.6807    7.7789    0.6628 C   0  0  0  0  0  0  0  0  0  0  0  0
   14.1723    7.6121    0.4671 C   0  0  2  0  0  0  0  0  0  0  0  0
   13.8463    7.3940   -0.8546 O   0  0  0  0  0  0  0  0  0  0  0  0
   12.5560    7.8926   -1.0017 C   0  0  1  0  0  0  0  0  0  0  0  0
   12.7155    9.2660   -0.3372 C   0  0  1  0  0  0  0  0  0  0  0  0
   11.5104    9.8560   -0.0598 O   0  0  0  0  0  0  0  0  0  0  0  0
   13.4419    8.8271    0.9415 C   0  0  1  0  0  0  0  0  0  0  0  0
   12.4440    8.4155    1.8374 O   0  0  0  0  0  0  0  0  0  0  0  0
   16.1139    6.9215    1.2225 H   0  0  0  0  0  0  0  0  0  0  0  0
   15.8314    8.6747    1.2947 H   0  0  0  0  0  0  0  0  0  0  0  0
   13.8803    6.6830    1.0307 H   0  0  0  0  0  0  0  0  0  0  0  0
   11.8394    7.3248   -0.3878 H   0  0  0  0  0  0  0  0  0  0  0  0
   13.4196    9.8800   -0.9006 H   0  0  0  0  0  0  0  0  0  0  0  0
   11.3210    9.7205    0.9049 H   0  0  0  0  0  0  0  0  0  0  0  0
   14.0774    9.6123    1.3489 H   0  0  0  0  0  0  0  0  0  0  0  0
   12.4565    7.4222    1.9692 H   0  0  0  0  0  0  0  0  0  0  0  0
  1  6  2  0
  2  3  2  0
  2  1  1  0
  3  4  1  0
  4  5  2  0
  6  5  1  0
  1  7  1  0
  2  8  1  0
  3  9  1  0
 10 11  1  0
 11 12  1  0
 12 13  1  0
 13 14  1  0
 14 15  1  0
 15 16  1  0
 15 17  1  0
 17 18  1  0
 17 12  1  0
 11 19  1  0
 11 20  1  0
 12 21  1  1
 14 22  1  1
 15 23  1  6
 16 24  1  0
 17 25  1  1
 18 26  1  0
  5 14  1  0
M  END
>  <Score>  (1) 
-7.08322

$$$$

     RDKit          3D

 31 32  0  0  0  0  0  0  0  0999 V2000
   11.6899    9.2587   -4.3229 C   0  0  0  0  0  0  0  0  0  0  0  0
   11.3436    8.0897   -5.0379 C   0  0  0  0  0  0  0  0  0  0  0  0
   11.4152    6.8667   -4.3665 C   0  0  0  0  0  0  0  0  0  0  0  0
   11.8164    6.8713   -3.0560 N   0  0  0  0  0  0  0  0  0  0  0  0
   12.1393    8.0059   -2.4051 C   0  0  0  0  0  0  0  0  0  0  0  0
   12.0757    9.1958   -3.0386 N   0  0  0  0  0  0  0  0  0  0  0  0
   11.6303   10.2081   -4.8569 H   0  0  0  0  0  0  0  0  0  0  0  0
   11.0389    8.1476   -6.0552 H   0  0  0  0  0  0  0  0  0  0  0  0
   11.1662    5.9452   -4.8517 H   0  0  0  0  0  0  0  0  0  0  0  0
   12.5739    8.0225   -0.9898 C   0  0  2  0  0  0  0  0  0  0  0  0
   11.6686    8.8046   -0.2868 O   0  0  0  0  0  0  0  0  0  0  0  0
   11.8190    8.7277    1.0838 C   0  0  1  0  0  0  0  0  0  0  0  0
   10.7711    7.7546    1.5996 C   0  0  0  0  0  0  0  0  0  0  0  0
    9.5339    8.2695    1.2480 O   0  0  0  0  0  0  0  0  0  0  0  0
   13.2122    8.3359    1.4912 C   0  0  2  0  0  0  0  0  0  0  0  0
   13.4434    8.6076    2.8235 O   0  0  0  0  0  0  0  0  0  0  0  0
   14.1804    9.0643    0.5767 C   0  0  2  0  0  0  0  0  0  0  0  0
   13.9996   10.4243    0.5733 O   0  0  0  0  0  0  0  0  0  0  0  0
   13.9984    8.4537   -0.8138 C   0  0  1  0  0  0  0  0  0  0  0  0
   14.7998    7.3005   -0.8881 O   0  0  0  0  0  0  0  0  0  0  0  0
   12.4615    6.9600   -0.6238 H   0  0  0  0  0  0  0  0  0  0  0  0
   11.6072    9.7131    1.5444 H   0  0  0  0  0  0  0  0  0  0  0  0
   10.9580    6.7862    1.0676 H   0  0  0  0  0  0  0  0  0  0  0  0
   10.9052    7.6060    2.6735 H   0  0  0  0  0  0  0  0  0  0  0  0
    8.8631    8.0536    1.9184 H   0  0  0  0  0  0  0  0  0  0  0  0
   13.3417    7.2449    1.2831 H   0  0  0  0  0  0  0  0  0  0  0  0
   14.3764    8.8511    3.0159 H   0  0  0  0  0  0  0  0  0  0  0  0
   15.2218    8.8656    0.9269 H   0  0  0  0  0  0  0  0  0  0  0  0
   13.1281   10.7300    0.2784 H   0  0  0  0  0  0  0  0  0  0  0  0
   14.3548    9.1653   -1.5734 H   0  0  0  0  0  0  0  0  0  0  0  0
   15.6724    7.4723   -1.3013 H   0  0  0  0  0  0  0  0  0  0  0  0
  1  6  2  0
  2  3  2  0
  2  1  1  0
  3  4  1  0
  4  5  2  0
  6  5  1  0
  1  7  1  0
  2  8  1  0
  3  9  1  0
 10 11  1  0
 11 12  1  0
 12 13  1  0
 13 14  1  0
 12 15  1  0
 15 16  1  0
 15 17  1  0
 17 18  1  0
 17 19  1  0
 19 20  1  0
 19 10  1  0
 10 21  1  1
 12 22  1  1
 13 23  1  0
 13 24  1  0
 14 25  1  0
 15 26  1  1
 16 27  1  0
 17 28  1  1
 18 29  1  0
 19 30  1  6
 20 31  1  0
  5 10  1  0
M  END
>  <Score>  (1) 
-7.04481

$$$$

     RDKit          3D

 25 26  0  0  0  0  0  0  0  0999 V2000
   11.6883    9.2559   -4.3270 C   0  0  0  0  0  0  0  0  0  0  0  0
   11.3440    8.0966   -5.0388 C   0  0  0  0  0  0  0  0  0  0  0  0
   11.4166    6.8624   -4.3603 C   0  0  0  0  0  0  0  0  0  0  0  0
   11.8143    6.8685   -3.0616 N   0  0  0  0  0  0  0  0  0  0  0  0
   12.1400    8.0117   -2.4049 C   0  0  0  0  0  0  0  0  0  0  0  0
   12.0766    9.1928   -3.0344 N   0  0  0  0  0  0  0  0  0  0  0  0
   11.0380    8.1560   -6.0612 H   0  0  0  0  0  0  0  0  0  0  0  0
   11.1592    5.9399   -4.8726 H   0  0  0  0  0  0  0  0  0  0  0  0
   12.4509    7.9402   -1.3625 H   0  0  0  0  0  0  0  0  0  0  0  0
   11.6427   10.5429   -4.9363 N   0  0  0  0  0  0  0  0  0  0  0  0
   10.3759   10.9836   -5.4405 C   0  0  0  0  0  0  0  0  0  0  0  0
   12.8347   11.3195   -5.0158 C   0  0  0  0  0  0  0  0  0  0  0  0
   12.8499   12.5699   -5.5943 C   0  0  0  0  0  0  0  0  0  0  0  0
   14.0141   13.3226   -5.6692 C   0  0  0  0  0  0  0  0  0  0  0  0
   15.1844   12.8075   -5.1524 C   0  0  0  0  0  0  0  0  0  0  0  0
   15.1915   11.5574   -4.5687 C   0  0  0  0  0  0  0  0  0  0  0  0
   14.0193   10.8328   -4.5089 C   0  0  0  0  0  0  0  0  0  0  0  0
    9.5372   10.4714   -4.9035 H   0  0  0  0  0  0  0  0  0  0  0  0
   10.2481   10.7117   -6.5186 H   0  0  0  0  0  0  0  0  0  0  0  0
   10.1886   12.0678   -5.3071 H   0  0  0  0  0  0  0  0  0  0  0  0
   11.9037   12.9354   -5.9884 H   0  0  0  0  0  0  0  0  0  0  0  0
   13.9747   14.2833   -6.1258 H   0  0  0  0  0  0  0  0  0  0  0  0
   16.1272   13.3725   -5.1923 H   0  0  0  0  0  0  0  0  0  0  0  0
   16.1355   11.1842   -4.1716 H   0  0  0  0  0  0  0  0  0  0  0  0
   14.0409    9.8625   -4.0520 H   0  0  0  0  0  0  0  0  0  0  0  0
  1  6  2  0
  2  3  2  0
  2  1  1  0
  3  4  1  0
  4  5  2  0
  6  5  1  0
  2  7  1  0
  3  8  1  0
  5  9  1  0
 10 11  1  0
 10 12  1  0
 12 13  2  0
 13 14  1  0
 14 15  2  0
 15 16  1  0
 16 17  2  0
 17 12  1  0
 11 18  1  0
 11 19  1  0
 11 20  1  0
 13 21  1  0
 14 22  1  0
 15 23  1  0
 16 24  1  0
 17 25  1  0
  1 10  1  0
M  END
>  <Score>  (1) 
-7.6554

$$$$

     RDKit          3D

 20 21  0  0  0  0  0  0  0  0999 V2000
   12.3027    8.1222   -2.3010 C   0  0  0  0  0  0  0  0  0  0  0  0
   12.0215    6.8833   -2.9127 C   0  0  0  0  0  0  0  0  0  0  0  0
   11.5241    6.8985   -4.2257 C   0  0  0  0  0  0  0  0  0  0  0  0
   11.3426    8.1078   -4.8307 N   0  0  0  0  0  0  0  0  0  0  0  0
   11.6241    9.2774   -4.2109 C   0  0  0  0  0  0  0  0  0  0  0  0
   12.0999    9.2819   -2.9571 N   0  0  0  0  0  0  0  0  0  0  0  0
   12.6806    8.0625   -1.2983 H   0  0  0  0  0  0  0  0  0  0  0  0
   12.1891    5.9745   -2.3758 H   0  0  0  0  0  0  0  0  0  0  0  0
   11.2988    5.9645   -4.7221 H   0  0  0  0  0  0  0  0  0  0  0  0
   11.3950   10.5229   -4.9453 C   0  0  0  0  0  0  0  0  0  0  0  0
   11.3627   11.7344   -4.2995 C   0  0  0  0  0  0  0  0  0  0  0  0
   11.1483   12.9305   -4.9653 C   0  0  0  0  0  0  0  0  0  0  0  0
   10.9579   12.9306   -6.3247 C   0  0  0  0  0  0  0  0  0  0  0  0
   10.7852   13.8424   -6.8983 H   0  0  0  0  0  0  0  0  0  0  0  0
   10.9879   11.7218   -6.9854 C   0  0  0  0  0  0  0  0  0  0  0  0
   10.7465   11.6859   -8.7349 Cl  0  0  0  0  0  0  0  0  0  0  0  0
   11.2040   10.5216   -6.3103 C   0  0  0  0  0  0  0  0  0  0  0  0
   11.5127   11.7328   -3.2295 H   0  0  0  0  0  0  0  0  0  0  0  0
   11.1251   13.8782   -4.4456 H   0  0  0  0  0  0  0  0  0  0  0  0
   11.2276    9.5781   -6.8243 H   0  0  0  0  0  0  0  0  0  0  0  0
  2  1  2  0
  3  2  1  0
  4  3  2  0
  4  5  1  0
  5  6  2  0
  6  1  1  0
  1  7  1  0
  2  8  1  0
  3  9  1  0
 10 11  2  0
 11 12  1  0
 12 13  2  0
 13 14  1  0
 13 15  1  0
 15 16  1  0
 15 17  2  0
 17 10  1  0
 11 18  1  0
 12 19  1  0
 17 20  1  0
  5 10  1  0
M  END
>  <Score>  (1) 
-7.5708

$$$$

     RDKit          3D

 24 25  0  0  0  0  0  0  0  0999 V2000
   11.6889    9.2564   -4.3254 C   0  0  0  0  0  0  0  0  0  0  0  0
   11.3447    8.0966   -5.0366 C   0  0  0  0  0  0  0  0  0  0  0  0
   11.4154    6.8632   -4.3648 C   0  0  0  0  0  0  0  0  0  0  0  0
   11.8168    6.8719   -3.0549 N   0  0  0  0  0  0  0  0  0  0  0  0
   12.1389    8.0058   -2.4066 C   0  0  0  0  0  0  0  0  0  0  0  0
   12.0754    9.1941   -3.0387 N   0  0  0  0  0  0  0  0  0  0  0  0
   11.0354    8.1430   -6.0650 H   0  0  0  0  0  0  0  0  0  0  0  0
   11.1608    5.9515   -4.8714 H   0  0  0  0  0  0  0  0  0  0  0  0
   12.4561    8.0164   -1.3729 H   0  0  0  0  0  0  0  0  0  0  0  0
   11.6097   10.4823   -5.0226 N   0  0  0  0  0  0  0  0  0  0  0  0
   11.8372   10.4760   -6.4204 C   0  0  0  0  0  0  0  0  0  0  0  0
   11.7638   11.6611   -7.1137 C   0  0  0  0  0  0  0  0  0  0  0  0
   11.9825   11.6947   -8.4955 C   0  0  0  0  0  0  0  0  0  0  0  0
   12.2706   10.4959   -9.1133 C   0  0  0  0  0  0  0  0  0  0  0  0
   12.3452    9.3043   -8.4210 C   0  0  0  0  0  0  0  0  0  0  0  0
   12.6604    8.0423   -9.1456 C   0  0  0  0  0  0  0  0  0  0  0  0
   12.1265    9.3323   -7.0986 N   0  0  0  0  0  0  0  0  0  0  0  0
   11.3943   11.3733   -4.5558 H   0  0  0  0  0  0  0  0  0  0  0  0
   11.5356   12.5561   -6.5709 H   0  0  0  0  0  0  0  0  0  0  0  0
   11.9174   12.6292   -8.9977 H   0  0  0  0  0  0  0  0  0  0  0  0
   12.4388   10.5277  -10.1816 H   0  0  0  0  0  0  0  0  0  0  0  0
   13.2535    8.2529  -10.0500 H   0  0  0  0  0  0  0  0  0  0  0  0
   13.2982    7.3898   -8.4950 H   0  0  0  0  0  0  0  0  0  0  0  0
   11.7476    7.4459   -9.3541 H   0  0  0  0  0  0  0  0  0  0  0  0
  1  6  2  0
  2  3  2  0
  2  1  1  0
  3  4  1  0
  4  5  2  0
  6  5  1  0
  2  7  1  0
  3  8  1  0
  5  9  1  0
 10 11  1  0
 11 12  2  0
 12 13  1  0
 13 14  2  0
 14 15  1  0
 15 16  1  0
 15 17  2  0
 17 11  1  0
 10 18  1  0
 12 19  1  0
 13 20  1  0
 14 21  1  0
 16 22  1  0
 16 23  1  0
 16 24  1  0
  1 10  1  0
M  END
>  <Score>  (1) 
-7.36351

$$$$

     RDKit          3D

 23 24  0  0  0  0  0  0  0  0999 V2000
   11.6891    9.2572   -4.3249 C   0  0  0  0  0  0  0  0  0  0  0  0
   11.3437    8.0942   -5.0390 C   0  0  0  0  0  0  0  0  0  0  0  0
   11.4162    6.8635   -4.3621 C   0  0  0  0  0  0  0  0  0  0  0  0
   11.8151    6.8703   -3.0597 N   0  0  0  0  0  0  0  0  0  0  0  0
   12.1397    8.0092   -2.4050 C   0  0  0  0  0  0  0  0  0  0  0  0
   12.0761    9.1935   -3.0363 N   0  0  0  0  0  0  0  0  0  0  0  0
   11.0328    8.1411   -6.0727 H   0  0  0  0  0  0  0  0  0  0  0  0
   11.1593    5.9615   -4.8800 H   0  0  0  0  0  0  0  0  0  0  0  0
   12.4562    8.0219   -1.3744 H   0  0  0  0  0  0  0  0  0  0  0  0
   11.6137   10.5095   -5.0191 N   0  0  0  0  0  0  0  0  0  0  0  0
   11.1889   10.6910   -6.2370 N   0  0  0  0  0  0  0  0  0  0  0  0
   11.2423   11.9862   -6.5999 C   0  0  0  0  0  0  0  0  0  0  0  0
   10.8411   12.5719   -7.9123 C   0  0  0  0  0  0  0  0  0  0  0  0
   11.7451   12.6622   -5.5076 C   0  0  0  0  0  0  0  0  0  0  0  0
   11.9226   13.7409   -5.4506 H   0  0  0  0  0  0  0  0  0  0  0  0
   11.9628   11.7044   -4.5446 C   0  0  0  0  0  0  0  0  0  0  0  0
   12.5035   12.0088   -3.2043 C   0  0  0  0  0  0  0  0  0  0  0  0
    9.8650   12.0803   -8.1896 H   0  0  0  0  0  0  0  0  0  0  0  0
   10.6364   13.6473   -7.8219 H   0  0  0  0  0  0  0  0  0  0  0  0
   11.5593   12.3366   -8.7174 H   0  0  0  0  0  0  0  0  0  0  0  0
   12.0233   12.9539   -2.8700 H   0  0  0  0  0  0  0  0  0  0  0  0
   12.2529   11.2475   -2.4456 H   0  0  0  0  0  0  0  0  0  0  0  0
   13.5774   12.2111   -3.3050 H   0  0  0  0  0  0  0  0  0  0  0  0
  1  6  2  0
  2  3  2  0
  2  1  1  0
  3  4  1  0
  4  5  2  0
  6  5  1  0
  2  7  1  0
  3  8  1  0
  5  9  1  0
 10 11  1  0
 11 12  2  0
 12 13  1  0
 12 14  1  0
 14 15  1  0
 14 16  2  0
 16 17  1  0
 16 10  1  0
 13 18  1  0
 13 19  1  0
 13 20  1  0
 17 21  1  0
 17 22  1  0
 17 23  1  0
  1 10  1  0
M  END
>  <Score>  (1) 
-7.32422

$$$$

     RDKit          3D

 26 27  0  0  0  0  0  0  0  0999 V2000
   11.6890    9.2554   -4.3246 C   0  0  0  0  0  0  0  0  0  0  0  0
   11.3447    8.0985   -5.0374 C   0  0  0  0  0  0  0  0  0  0  0  0
   11.4165    6.8617   -4.3604 C   0  0  0  0  0  0  0  0  0  0  0  0
   11.8147    6.8691   -3.0608 N   0  0  0  0  0  0  0  0  0  0  0  0
   12.1400    8.0084   -2.4038 C   0  0  0  0  0  0  0  0  0  0  0  0
   12.0751    9.1949   -3.0400 N   0  0  0  0  0  0  0  0  0  0  0  0
   11.0344    8.1149   -6.0581 H   0  0  0  0  0  0  0  0  0  0  0  0
   11.1579    5.9483   -4.8800 H   0  0  0  0  0  0  0  0  0  0  0  0
   12.4540    7.9831   -1.3676 H   0  0  0  0  0  0  0  0  0  0  0  0
   11.6257   14.7428   -7.3014 H   0  0  0  0  0  0  0  0  0  0  0  0
   11.2138   13.7808   -7.6035 C   0  0  0  0  0  0  0  0  0  0  0  0
   10.5654   13.6626   -8.6940 O   0  0  0  0  0  0  0  0  0  0  0  0
   11.4108   12.6664   -6.7654 N   0  0  0  0  0  0  0  0  0  0  0  0
   12.1453   12.8141   -5.5360 C   0  0  0  0  0  0  0  0  0  0  0  0
   12.6213   11.4908   -4.9922 C   0  0  0  0  0  0  0  0  0  0  0  0
   11.6042   10.4798   -5.0396 N   0  0  0  0  0  0  0  0  0  0  0  0
   10.4276   10.7073   -5.8526 C   0  0  0  0  0  0  0  0  0  0  0  0
   10.8800   11.3765   -7.1325 C   0  0  0  0  0  0  0  0  0  0  0  0
   13.0435   13.4310   -5.7657 H   0  0  0  0  0  0  0  0  0  0  0  0
   11.5682   13.3459   -4.7539 H   0  0  0  0  0  0  0  0  0  0  0  0
   12.9973   11.6782   -3.9685 H   0  0  0  0  0  0  0  0  0  0  0  0
   13.5194   11.2046   -5.6074 H   0  0  0  0  0  0  0  0  0  0  0  0
    9.8028   11.4501   -5.2755 H   0  0  0  0  0  0  0  0  0  0  0  0
    9.8625    9.7794   -6.0471 H   0  0  0  0  0  0  0  0  0  0  0  0
    9.9884   11.4388   -7.7886 H   0  0  0  0  0  0  0  0  0  0  0  0
   11.6676   10.7099   -7.5663 H   0  0  0  0  0  0  0  0  0  0  0  0
  1  6  2  0
  2  3  2  0
  2  1  1  0
  3  4  1  0
  4  5  2  0
  6  5  1  0
  2  7  1  0
  3  8  1  0
  5  9  1  0
 10 11  1  0
 11 12  2  0
 11 13  1  0
 13 14  1  0
 14 15  1  0
 15 16  1  0
 16 17  1  0
 17 18  1  0
 18 13  1  0
 14 19  1  0
 14 20  1  0
 15 21  1  0
 15 22  1  0
 17 23  1  0
 17 24  1  0
 18 25  1  0
 18 26  1  0
  1 16  1  0
M  END
>  <Score>  (1) 
-7.32407

$$$$

     RDKit          3D

 30 31  0  0  0  0  0  0  0  0999 V2000
   11.6897    9.2559   -4.3224 C   0  0  0  0  0  0  0  0  0  0  0  0
   11.3432    8.0876   -5.0385 C   0  0  0  0  0  0  0  0  0  0  0  0
   11.4170    6.8723   -4.3626 C   0  0  0  0  0  0  0  0  0  0  0  0
   11.8145    6.8683   -3.0611 N   0  0  0  0  0  0  0  0  0  0  0  0
   12.1400    8.0074   -2.4033 C   0  0  0  0  0  0  0  0  0  0  0  0
   12.0756    9.1965   -3.0391 N   0  0  0  0  0  0  0  0  0  0  0  0
   11.0335    8.1262   -6.0677 H   0  0  0  0  0  0  0  0  0  0  0  0
   11.1521    5.9821   -4.9098 H   0  0  0  0  0  0  0  0  0  0  0  0
   12.4491    7.9338   -1.3659 H   0  0  0  0  0  0  0  0  0  0  0  0
   11.6244   10.5140   -4.9814 N   0  0  0  0  0  0  0  0  0  0  0  0
   10.4816   10.8942   -5.7750 C   0  0  0  0  0  0  0  0  0  0  0  0
   10.0224   12.2989   -5.4764 C   0  0  0  0  0  0  0  0  0  0  0  0
   11.1649   13.2540   -5.5648 C   0  0  0  0  0  0  0  0  0  0  0  0
   10.9096   14.4274   -6.3441 N   0  0  0  0  0  0  0  0  0  0  0  0
   11.6305   15.1437   -6.1530 H   0  0  0  0  0  0  0  0  0  0  0  0
   10.6288   14.2062   -7.7186 C   0  0  0  0  0  0  0  0  0  0  0  0
   12.4544   12.5508   -5.9824 C   0  0  0  0  0  0  0  0  0  0  0  0
   12.6984   11.4909   -4.8974 C   0  0  0  0  0  0  0  0  0  0  0  0
   10.7451   10.8192   -6.8532 H   0  0  0  0  0  0  0  0  0  0  0  0
    9.6436   10.2036   -5.5535 H   0  0  0  0  0  0  0  0  0  0  0  0
    9.1891   12.5258   -6.1689 H   0  0  0  0  0  0  0  0  0  0  0  0
    9.5737   12.2660   -4.4431 H   0  0  0  0  0  0  0  0  0  0  0  0
   11.3708   13.6157   -4.5162 H   0  0  0  0  0  0  0  0  0  0  0  0
   11.4207   14.7394   -8.3227 H   0  0  0  0  0  0  0  0  0  0  0  0
    9.6734   14.7164   -8.0410 H   0  0  0  0  0  0  0  0  0  0  0  0
   10.6231   13.1578   -8.0396 H   0  0  0  0  0  0  0  0  0  0  0  0
   13.2933   13.2617   -5.9266 H   0  0  0  0  0  0  0  0  0  0  0  0
   12.3524   12.0786   -6.9855 H   0  0  0  0  0  0  0  0  0  0  0  0
   13.6931   11.0526   -5.0665 H   0  0  0  0  0  0  0  0  0  0  0  0
   12.6584   12.0493   -3.9228 H   0  0  0  0  0  0  0  0  0  0  0  0
  1  6  2  0
  2  3  2  0
  2  1  1  0
  3  4  1  0
  4  5  2  0
  6  5  1  0
  2  7  1  0
  3  8  1  0
  5  9  1  0
 10 11  1  0
 11 12  1  0
 12 13  1  0
 13 14  1  0
 14 15  1  0
 14 16  1  0
 13 17  1  0
 17 18  1  0
 18 10  1  0
 11 19  1  0
 11 20  1  0
 12 21  1  0
 12 22  1  0
 13 23  1  0
 16 24  1  0
 16 25  1  0
 16 26  1  0
 17 27  1  0
 17 28  1  0
 18 29  1  0
 18 30  1  0
  1 10  1  0
M  END
>  <Score>  (1) 
-7.25821

$$$$

     RDKit          3D

 24 26  0  0  0  0  0  0  0  0999 V2000
   11.6902    9.2561   -4.3208 C   0  0  0  0  0  0  0  0  0  0  0  0
   11.3440    8.0956   -5.0385 C   0  0  0  0  0  0  0  0  0  0  0  0
   11.4160    6.8632   -4.3628 C   0  0  0  0  0  0  0  0  0  0  0  0
   11.8156    6.8704   -3.0582 N   0  0  0  0  0  0  0  0  0  0  0  0
   12.1397    8.0051   -2.4036 C   0  0  0  0  0  0  0  0  0  0  0  0
   12.0745    9.1976   -3.0431 N   0  0  0  0  0  0  0  0  0  0  0  0
   11.0351    8.1566   -6.0707 H   0  0  0  0  0  0  0  0  0  0  0  0
   11.1588    5.9432   -4.8753 H   0  0  0  0  0  0  0  0  0  0  0  0
   12.4556    7.9995   -1.3682 H   0  0  0  0  0  0  0  0  0  0  0  0
   11.6316   10.5032   -4.9584 N   0  0  0  0  0  0  0  0  0  0  0  0
   12.6138   11.6032   -4.9319 C   0  0  0  0  0  0  0  0  0  0  0  0
   12.1820   12.5498   -6.0345 C   0  0  1  0  0  0  0  0  0  0  0  0
   11.4501   11.5580   -6.9613 C   0  0  0  0  0  0  0  0  0  0  0  0
   10.5781   11.0203   -5.8099 C   0  0  2  0  0  0  0  0  0  0  0  0
   10.1507   12.3329   -5.2047 C   0  0  0  0  0  0  0  0  0  0  0  0
   11.0938   13.2896   -5.5848 O   0  0  0  0  0  0  0  0  0  0  0  0
   13.6300   11.2043   -5.1086 H   0  0  0  0  0  0  0  0  0  0  0  0
   12.5308   12.1692   -3.9805 H   0  0  0  0  0  0  0  0  0  0  0  0
   12.9606   13.0923   -6.5142 H   0  0  0  0  0  0  0  0  0  0  0  0
   10.8583   12.0673   -7.7176 H   0  0  0  0  0  0  0  0  0  0  0  0
   12.1209   10.7731   -7.3220 H   0  0  0  0  0  0  0  0  0  0  0  0
    9.8202   10.3472   -6.1055 H   0  0  0  0  0  0  0  0  0  0  0  0
    9.1227   12.6210   -5.4959 H   0  0  0  0  0  0  0  0  0  0  0  0
   10.1922   12.2701   -4.0961 H   0  0  0  0  0  0  0  0  0  0  0  0
  1  6  2  0
  2  3  2  0
  2  1  1  0
  3  4  1  0
  4  5  2  0
  6  5  1  0
  2  7  1  0
  3  8  1  0
  5  9  1  0
 10 11  1  0
 11 12  1  0
 12 13  1  0
 13 14  1  0
 14 15  1  0
 15 16  1  0
 14 10  1  0
 16 12  1  0
 11 17  1  0
 11 18  1  0
 12 19  1  6
 13 20  1  0
 13 21  1  0
 14 22  1  6
 15 23  1  0
 15 24  1  0
  1 10  1  0
M  END
>  <Score>  (1) 
-7.24184

$$$$

     RDKit          3D

 22 23  0  0  0  0  0  0  0  0999 V2000
   11.6908    9.2590   -4.3201 C   0  0  0  0  0  0  0  0  0  0  0  0
   11.3439    8.0923   -5.0378 C   0  0  0  0  0  0  0  0  0  0  0  0
   11.4155    6.8647   -4.3648 C   0  0  0  0  0  0  0  0  0  0  0  0
   11.8161    6.8713   -3.0569 N   0  0  0  0  0  0  0  0  0  0  0  0
   12.1397    8.0053   -2.4038 C   0  0  0  0  0  0  0  0  0  0  0  0
   12.0741    9.1954   -3.0436 N   0  0  0  0  0  0  0  0  0  0  0  0
   11.0377    8.1291   -6.0524 H   0  0  0  0  0  0  0  0  0  0  0  0
   11.1622    5.9363   -4.8615 H   0  0  0  0  0  0  0  0  0  0  0  0
   12.4562    8.0156   -1.3723 H   0  0  0  0  0  0  0  0  0  0  0  0
   11.6019   10.4760   -5.0454 N   0  0  0  0  0  0  0  0  0  0  0  0
   10.6532   10.6776   -6.1231 C   0  0  0  0  0  0  0  0  0  0  0  0
   11.0701   11.9544   -6.8221 C   0  0  0  0  0  0  0  0  0  0  0  0
   11.5458   12.7704   -5.6127 C   0  0  0  0  0  0  0  0  0  0  0  0
   12.3005   13.8375   -5.9728 F   0  0  0  0  0  0  0  0  0  0  0  0
   10.4640   13.0695   -4.8359 F   0  0  0  0  0  0  0  0  0  0  0  0
   12.3700   11.6941   -4.8915 C   0  0  0  0  0  0  0  0  0  0  0  0
   10.5870    9.8200   -6.8048 H   0  0  0  0  0  0  0  0  0  0  0  0
    9.6685   10.9025   -5.6301 H   0  0  0  0  0  0  0  0  0  0  0  0
   10.2334   12.5019   -7.2681 H   0  0  0  0  0  0  0  0  0  0  0  0
   11.9178   11.7735   -7.5186 H   0  0  0  0  0  0  0  0  0  0  0  0
   13.3427   11.6538   -5.4063 H   0  0  0  0  0  0  0  0  0  0  0  0
   12.4409   11.9512   -3.8241 H   0  0  0  0  0  0  0  0  0  0  0  0
  1  6  2  0
  2  3  2  0
  2  1  1  0
  3  4  1  0
  4  5  2  0
  6  5  1  0
  2  7  1  0
  3  8  1  0
  5  9  1  0
 10 11  1  0
 11 12  1  0
 12 13  1  0
 13 14  1  0
 13 15  1  0
 13 16  1  0
 16 10  1  0
 11 17  1  0
 11 18  1  0
 12 19  1  0
 12 20  1  0
 16 21  1  0
 16 22  1  0
  1 10  1  0
M  END
>  <Score>  (1) 
-7.24178

$$$$

     RDKit          3D

 19 20  0  0  0  0  0  0  0  0999 V2000
   11.6894    9.2577   -4.3242 C   0  0  0  0  0  0  0  0  0  0  0  0
   11.3436    8.0928   -5.0388 C   0  0  0  0  0  0  0  0  0  0  0  0
   11.4160    6.8643   -4.3630 C   0  0  0  0  0  0  0  0  0  0  0  0
   11.8152    6.8701   -3.0592 N   0  0  0  0  0  0  0  0  0  0  0  0
   12.1397    8.0087   -2.4048 C   0  0  0  0  0  0  0  0  0  0  0  0
   12.0760    9.1944   -3.0369 N   0  0  0  0  0  0  0  0  0  0  0  0
   11.0385    8.1592   -6.0605 H   0  0  0  0  0  0  0  0  0  0  0  0
   11.1646    5.9474   -4.8578 H   0  0  0  0  0  0  0  0  0  0  0  0
   12.4419    7.8975   -1.3766 H   0  0  0  0  0  0  0  0  0  0  0  0
   11.6262   10.5279   -4.9848 N   0  0  0  0  0  0  0  0  0  0  0  0
   10.5944   10.8546   -5.7565 N   0  0  0  0  0  0  0  0  0  0  0  0
   10.5031   12.0347   -6.3896 C   0  0  0  0  0  0  0  0  0  0  0  0
    9.6328   12.2588   -7.0152 H   0  0  0  0  0  0  0  0  0  0  0  0
   11.5000   12.9795   -6.2624 C   0  0  0  0  0  0  0  0  0  0  0  0
   12.5741   12.6436   -5.4611 C   0  0  0  0  0  0  0  0  0  0  0  0
   12.6311   11.4120   -4.8231 C   0  0  0  0  0  0  0  0  0  0  0  0
   13.6132   11.1075   -4.0917 O   0  0  0  0  0  0  0  0  0  0  0  0
   11.4230   13.9340   -6.7763 H   0  0  0  0  0  0  0  0  0  0  0  0
   13.3827   13.3444   -5.3258 H   0  0  0  0  0  0  0  0  0  0  0  0
  1  6  2  0
  2  3  2  0
  2  1  1  0
  3  4  1  0
  4  5  2  0
  6  5  1  0
  2  7  1  0
  3  8  1  0
  5  9  1  0
 10 11  1  0
 11 12  2  0
 12 13  1  0
 12 14  1  0
 14 15  2  0
 15 16  1  0
 16 17  2  0
 16 10  1  0
 14 18  1  0
 15 19  1  0
  1 10  1  0
M  END
>  <Score>  (1) 
-7.23407

$$$$

     RDKit          3D

 27 28  0  0  0  0  0  0  0  0999 V2000
   11.6899    9.2572   -4.3223 C   0  0  0  0  0  0  0  0  0  0  0  0
   11.3439    8.0938   -5.0384 C   0  0  0  0  0  0  0  0  0  0  0  0
   11.4159    6.8641   -4.3635 C   0  0  0  0  0  0  0  0  0  0  0  0
   11.8156    6.8704   -3.0581 N   0  0  0  0  0  0  0  0  0  0  0  0
   12.1396    8.0064   -2.4042 C   0  0  0  0  0  0  0  0  0  0  0  0
   12.0751    9.1961   -3.0404 N   0  0  0  0  0  0  0  0  0  0  0  0
   11.0349    8.1453   -6.0673 H   0  0  0  0  0  0  0  0  0  0  0  0
   11.1582    5.9574   -4.8823 H   0  0  0  0  0  0  0  0  0  0  0  0
   12.4471    7.9620   -1.3827 H   0  0  0  0  0  0  0  0  0  0  0  0
   11.6194   10.5054   -4.9989 N   0  0  0  0  0  0  0  0  0  0  0  0
   12.4892   11.6071   -4.6571 C   0  0  0  0  0  0  0  0  0  0  0  0
   12.2558   12.7402   -5.6274 C   0  0  0  0  0  0  0  0  0  0  0  0
   12.3418   12.2478   -6.9836 N   0  0  0  0  0  0  0  0  0  0  0  0
   12.2942   13.0554   -7.6412 H   0  0  0  0  0  0  0  0  0  0  0  0
   11.3988   11.2117   -7.2764 C   0  0  2  0  0  0  0  0  0  0  0  0
   10.3612   11.6629   -8.3008 C   0  0  0  0  0  0  0  0  0  0  0  0
   10.6595   10.7047   -6.0625 C   0  0  0  0  0  0  0  0  0  0  0  0
   12.3080   11.9866   -3.6345 H   0  0  0  0  0  0  0  0  0  0  0  0
   13.5560   11.2493   -4.7068 H   0  0  0  0  0  0  0  0  0  0  0  0
   11.2529   13.1438   -5.4554 H   0  0  0  0  0  0  0  0  0  0  0  0
   13.0148   13.5371   -5.5125 H   0  0  0  0  0  0  0  0  0  0  0  0
   11.9197   10.3390   -7.7391 H   0  0  0  0  0  0  0  0  0  0  0  0
   10.0694   12.7199   -8.0503 H   0  0  0  0  0  0  0  0  0  0  0  0
   10.7895   11.5970   -9.3193 H   0  0  0  0  0  0  0  0  0  0  0  0
    9.4718   10.9954   -8.2149 H   0  0  0  0  0  0  0  0  0  0  0  0
   10.1852    9.7370   -6.3351 H   0  0  0  0  0  0  0  0  0  0  0  0
    9.8898   11.4606   -5.7466 H   0  0  0  0  0  0  0  0  0  0  0  0
  1  6  2  0
  2  3  2  0
  2  1  1  0
  3  4  1  0
  4  5  2  0
  6  5  1  0
  2  7  1  0
  3  8  1  0
  5  9  1  0
 10 11  1  0
 11 12  1  0
 12 13  1  0
 13 14  1  0
 13 15  1  0
 15 16  1  0
 15 17  1  0
 17 10  1  0
 11 18  1  0
 11 19  1  0
 12 20  1  0
 12 21  1  0
 15 22  1  6
 16 23  1  0
 16 24  1  0
 16 25  1  0
 17 26  1  0
 17 27  1  0
  1 10  1  0
M  END
>  <Score>  (1) 
-7.23063

$$$$

     RDKit          3D

 22 23  0  0  0  0  0  0  0  0999 V2000
   11.6875    9.2569   -4.3302 C   0  0  0  0  0  0  0  0  0  0  0  0
   11.3447    8.0954   -5.0362 C   0  0  0  0  0  0  0  0  0  0  0  0
   11.4161    6.8637   -4.3625 C   0  0  0  0  0  0  0  0  0  0  0  0
   11.8151    6.8696   -3.0595 N   0  0  0  0  0  0  0  0  0  0  0  0
   12.1395    8.0108   -2.4064 C   0  0  0  0  0  0  0  0  0  0  0  0
   12.0771    9.1916   -3.0322 N   0  0  0  0  0  0  0  0  0  0  0  0
   11.0336    8.1181   -6.0618 H   0  0  0  0  0  0  0  0  0  0  0  0
   11.1614    5.9341   -4.8634 H   0  0  0  0  0  0  0  0  0  0  0  0
   12.4545    7.9700   -1.3613 H   0  0  0  0  0  0  0  0  0  0  0  0
   11.6180   10.4930   -4.9992 N   0  0  0  0  0  0  0  0  0  0  0  0
   11.5239   10.5397   -6.4100 C   0  0  0  0  0  0  0  0  0  0  0  0
   11.4542   11.7310   -7.0940 C   0  0  0  0  0  0  0  0  0  0  0  0
   11.3627   11.7596   -8.4690 C   0  0  0  0  0  0  0  0  0  0  0  0
   11.3435   10.5895   -9.1230 N   0  0  0  0  0  0  0  0  0  0  0  0
   11.4092    9.4076   -8.4938 C   0  0  0  0  0  0  0  0  0  0  0  0
   11.3830    8.2183   -9.2596 N   0  0  0  0  0  0  0  0  0  0  0  0
   10.8863    8.1387  -10.1782 H   0  0  0  0  0  0  0  0  0  0  0  0
   11.4972    9.4042   -7.1625 N   0  0  0  0  0  0  0  0  0  0  0  0
   11.6343   11.3822   -4.4784 H   0  0  0  0  0  0  0  0  0  0  0  0
   11.4692   12.6776   -6.5745 H   0  0  0  0  0  0  0  0  0  0  0  0
   11.3071   12.7157   -9.0140 H   0  0  0  0  0  0  0  0  0  0  0  0
   11.8690    7.3305   -8.9452 H   0  0  0  0  0  0  0  0  0  0  0  0
  1  6  2  0
  2  3  2  0
  2  1  1  0
  3  4  1  0
  4  5  2  0
  6  5  1  0
  2  7  1  0
  3  8  1  0
  5  9  1  0
 10 11  1  0
 11 12  2  0
 12 13  1  0
 13 14  2  0
 14 15  1  0
 15 16  1  0
 16 17  1  0
 15 18  2  0
 18 11  1  0
 10 19  1  0
 12 20  1  0
 13 21  1  0
 16 22  1  0
  1 10  1  0
M  END
>  <Score>  (1) 
-7.23027

$$$$

     RDKit          3D

 28 30  0  0  0  0  0  0  0  0999 V2000
   11.6887    9.2592   -4.3270 C   0  0  0  0  0  0  0  0  0  0  0  0
   11.3447    8.0926   -5.0351 C   0  0  0  0  0  0  0  0  0  0  0  0
   11.4157    6.8657   -4.3647 C   0  0  0  0  0  0  0  0  0  0  0  0
   11.8152    6.8688   -3.0588 N   0  0  0  0  0  0  0  0  0  0  0  0
   12.1400    8.0113   -2.4047 C   0  0  0  0  0  0  0  0  0  0  0  0
   12.0756    9.1905   -3.0368 N   0  0  0  0  0  0  0  0  0  0  0  0
   11.0341    8.1171   -6.0601 H   0  0  0  0  0  0  0  0  0  0  0  0
   11.1648    5.9402   -4.8546 H   0  0  0  0  0  0  0  0  0  0  0  0
   12.4427    7.8935   -1.3725 H   0  0  0  0  0  0  0  0  0  0  0  0
   11.6218   10.5194   -4.9989 N   0  0  0  0  0  0  0  0  0  0  0  0
   12.2604   11.6768   -4.4118 C   0  0  0  0  0  0  0  0  0  0  0  0
   12.3650   12.8277   -5.3757 C   0  0  0  0  0  0  0  0  0  0  0  0
   12.4840   12.4058   -6.8004 C   0  0  0  0  0  0  0  0  0  0  0  0
   11.3428   11.5464   -7.1479 C   0  0  0  0  0  0  0  0  0  0  0  0
   10.6630   11.6273   -8.3445 C   0  0  0  0  0  0  0  0  0  0  0  0
    9.6057   10.7783   -8.5841 C   0  0  0  0  0  0  0  0  0  0  0  0
    9.0905   10.8760   -9.5515 H   0  0  0  0  0  0  0  0  0  0  0  0
    9.1974    9.8395   -7.6603 C   0  0  0  0  0  0  0  0  0  0  0  0
    9.8685    9.7707   -6.4971 N   0  0  0  0  0  0  0  0  0  0  0  0
   10.9221   10.6031   -6.2356 C   0  0  0  0  0  0  0  0  0  0  0  0
   13.2895   11.4643   -4.0488 H   0  0  0  0  0  0  0  0  0  0  0  0
   11.6660   11.9901   -3.5308 H   0  0  0  0  0  0  0  0  0  0  0  0
   11.4506   13.4628   -5.2870 H   0  0  0  0  0  0  0  0  0  0  0  0
   13.2276   13.4899   -5.1387 H   0  0  0  0  0  0  0  0  0  0  0  0
   13.4645   11.8853   -6.9177 H   0  0  0  0  0  0  0  0  0  0  0  0
   12.4832   13.3118   -7.4302 H   0  0  0  0  0  0  0  0  0  0  0  0
   11.0052   12.3735   -9.0515 H   0  0  0  0  0  0  0  0  0  0  0  0
    8.3574    9.1977   -7.9051 H   0  0  0  0  0  0  0  0  0  0  0  0
  1  6  2  0
  2  3  2  0
  2  1  1  0
  3  4  1  0
  4  5  2  0
  6  5  1  0
  2  7  1  0
  3  8  1  0
  5  9  1  0
 10 11  1  0
 11 12  1  0
 12 13  1  0
 13 14  1  0
 14 15  2  0
 15 16  1  0
 16 17  1  0
 16 18  2  0
 18 19  1  0
 19 20  2  0
 20 10  1  0
 20 14  1  0
 11 21  1  0
 11 22  1  0
 12 23  1  0
 12 24  1  0
 13 25  1  0
 13 26  1  0
 15 27  1  0
 18 28  1  0
  1 10  1  0
M  END
>  <Score>  (1) 
-7.22932

$$$$

     RDKit          3D

 27 29  0  0  0  0  0  0  0  0999 V2000
   12.3029    8.1213   -2.3003 C   0  0  0  0  0  0  0  0  0  0  0  0
   12.0219    6.8833   -2.9117 C   0  0  0  0  0  0  0  0  0  0  0  0
   11.5238    6.8980   -4.2265 C   0  0  0  0  0  0  0  0  0  0  0  0
   11.3432    8.1090   -4.8293 N   0  0  0  0  0  0  0  0  0  0  0  0
   11.6245    9.2780   -4.2099 C   0  0  0  0  0  0  0  0  0  0  0  0
   12.0986    9.2815   -2.9603 N   0  0  0  0  0  0  0  0  0  0  0  0
   12.6805    8.0729   -1.2998 H   0  0  0  0  0  0  0  0  0  0  0  0
   12.1833    5.9505   -2.3886 H   0  0  0  0  0  0  0  0  0  0  0  0
   11.2954    5.9742   -4.7320 H   0  0  0  0  0  0  0  0  0  0  0  0
   11.3918   10.5042   -4.9560 C   0  0  2  0  0  0  0  0  0  0  0  0
   11.5786   10.3728   -6.4623 C   0  0  0  0  0  0  0  0  0  0  0  0
   12.1467   11.7048   -6.8991 C   0  0  2  0  0  0  0  0  0  0  0  0
   13.6415   11.6318   -6.6845 C   0  0  0  0  0  0  0  0  0  0  0  0
   13.7151   11.4614   -5.1623 C   0  0  0  0  0  0  0  0  0  0  0  0
   12.3059   11.6559   -4.6477 C   0  0  1  0  0  0  0  0  0  0  0  0
   11.7916   12.6371   -5.7262 C   0  0  0  0  0  0  0  0  0  0  0  0
   10.3469   10.8940   -4.8264 H   0  0  0  0  0  0  0  0  0  0  0  0
   12.3548    9.5835   -6.6113 H   0  0  0  0  0  0  0  0  0  0  0  0
   10.6669   10.0884   -6.9830 H   0  0  0  0  0  0  0  0  0  0  0  0
   11.8246   12.0644   -7.8520 H   0  0  0  0  0  0  0  0  0  0  0  0
   14.1248   10.8079   -7.2087 H   0  0  0  0  0  0  0  0  0  0  0  0
   14.0462   12.6408   -6.9645 H   0  0  0  0  0  0  0  0  0  0  0  0
   14.3617   12.2562   -4.7325 H   0  0  0  0  0  0  0  0  0  0  0  0
   14.1275   10.4622   -4.9355 H   0  0  0  0  0  0  0  0  0  0  0  0
   12.2348   12.0589   -3.6555 H   0  0  0  0  0  0  0  0  0  0  0  0
   12.4102   13.5391   -5.7308 H   0  0  0  0  0  0  0  0  0  0  0  0
   10.7178   12.7920   -5.6489 H   0  0  0  0  0  0  0  0  0  0  0  0
  2  1  2  0
  3  2  1  0
  4  3  2  0
  4  5  1  0
  5  6  2  0
  6  1  1  0
  1  7  1  0
  2  8  1  0
  3  9  1  0
 10 11  1  0
 11 12  1  0
 12 13  1  0
 13 14  1  0
 14 15  1  0
 15 16  1  0
 15 10  1  0
 16 12  1  0
 10 17  1  6
 11 18  1  0
 11 19  1  0
 12 20  1  6
 13 21  1  0
 13 22  1  0
 14 23  1  0
 14 24  1  0
 15 25  1  1
 16 26  1  0
 16 27  1  0
  5 10  1  0
M  END
>  <Score>  (1) 
-7.57052

$$$$

     RDKit          3D

 25 27  0  0  0  0  0  0  0  0999 V2000
   11.6882    9.2556   -4.3274 C   0  0  0  0  0  0  0  0  0  0  0  0
   11.3443    8.0968   -5.0381 C   0  0  0  0  0  0  0  0  0  0  0  0
   11.4168    6.8632   -4.3600 C   0  0  0  0  0  0  0  0  0  0  0  0
   11.8147    6.8691   -3.0608 N   0  0  0  0  0  0  0  0  0  0  0  0
   12.1396    8.0093   -2.4055 C   0  0  0  0  0  0  0  0  0  0  0  0
   12.0765    9.1940   -3.0351 N   0  0  0  0  0  0  0  0  0  0  0  0
   11.0451    8.1860   -6.0487 H   0  0  0  0  0  0  0  0  0  0  0  0
   11.1558    5.9743   -4.8962 H   0  0  0  0  0  0  0  0  0  0  0  0
   12.4447    7.9278   -1.3783 H   0  0  0  0  0  0  0  0  0  0  0  0
    8.8395   11.1164   -6.9205 H   0  0  0  0  0  0  0  0  0  0  0  0
    9.7341   10.6797   -6.5308 C   0  0  0  0  0  0  0  0  0  0  0  0
   10.1842    9.6886   -7.0666 O   0  0  0  0  0  0  0  0  0  0  0  0
   10.4497   11.2516   -5.3452 C   0  0  2  0  0  0  0  0  0  0  0  0
   10.8253   12.6827   -5.5226 C   0  0  0  0  0  0  0  0  0  0  0  0
   12.3196   12.6690   -5.6566 C   0  0  2  0  0  0  0  0  0  0  0  0
   12.8187   11.8371   -6.8234 C   0  0  0  0  0  0  0  0  0  0  0  0
   12.7601   11.2646   -5.4787 C   0  0  2  0  0  0  0  0  0  0  0  0
   11.6181   10.5063   -5.0039 N   0  0  0  0  0  0  0  0  0  0  0  0
    9.7017   11.2017   -4.5008 H   0  0  0  0  0  0  0  0  0  0  0  0
   10.4504   13.3518   -4.7344 H   0  0  0  0  0  0  0  0  0  0  0  0
   10.4084   13.0574   -6.4811 H   0  0  0  0  0  0  0  0  0  0  0  0
   12.9269   13.5127   -5.2891 H   0  0  0  0  0  0  0  0  0  0  0  0
   12.0947   11.5838   -7.6311 H   0  0  0  0  0  0  0  0  0  0  0  0
   13.7974   12.1383   -7.2032 H   0  0  0  0  0  0  0  0  0  0  0  0
   13.7414   11.0957   -4.9465 H   0  0  0  0  0  0  0  0  0  0  0  0
  1  6  2  0
  2  3  2  0
  2  1  1  0
  3  4  1  0
  4  5  2  0
  6  5  1  0
  2  7  1  0
  3  8  1  0
  5  9  1  0
 10 11  1  0
 11 12  2  0
 11 13  1  0
 13 14  1  0
 14 15  1  0
 15 16  1  0
 16 17  1  0
 17 18  1  0
 18 13  1  0
 17 15  1  0
 13 19  1  1
 14 20  1  0
 14 21  1  0
 15 22  1  1
 16 23  1  0
 16 24  1  0
 17 25  1  1
  1 18  1  0
M  END
>  <Score>  (1) 
-7.22452

$$$$

     RDKit          3D

 25 27  0  0  0  0  0  0  0  0999 V2000
   11.6881    9.2567   -4.3280 C   0  0  0  0  0  0  0  0  0  0  0  0
   11.3460    8.0927   -5.0311 C   0  0  0  0  0  0  0  0  0  0  0  0
   11.4142    6.8675   -4.3702 C   0  0  0  0  0  0  0  0  0  0  0  0
   11.8167    6.8699   -3.0545 N   0  0  0  0  0  0  0  0  0  0  0  0
   12.1397    8.0073   -2.4042 C   0  0  0  0  0  0  0  0  0  0  0  0
   12.0753    9.1939   -3.0390 N   0  0  0  0  0  0  0  0  0  0  0  0
   11.0339    8.1293   -6.0650 H   0  0  0  0  0  0  0  0  0  0  0  0
   11.1604    5.9312   -4.8658 H   0  0  0  0  0  0  0  0  0  0  0  0
   12.4498    7.9265   -1.3612 H   0  0  0  0  0  0  0  0  0  0  0  0
    9.0829   10.6862   -5.5867 H   0  0  0  0  0  0  0  0  0  0  0  0
    9.7320   10.7772   -6.4267 C   0  0  0  0  0  0  0  0  0  0  0  0
    9.2420   10.9368   -7.5312 O   0  0  0  0  0  0  0  0  0  0  0  0
   11.2327   10.7214   -6.3414 C   0  0  1  0  0  0  0  0  0  0  0  0
   11.8017   12.0353   -6.7699 C   0  0  0  0  0  0  0  0  0  0  0  0
   12.2014   12.7366   -5.4678 C   0  0  1  0  0  0  0  0  0  0  0  0
   11.0544   12.9769   -4.5451 C   0  0  0  0  0  0  0  0  0  0  0  0
   11.9553   11.8027   -4.3632 C   0  0  1  0  0  0  0  0  0  0  0  0
   11.6371   10.5265   -4.9485 N   0  0  0  0  0  0  0  0  0  0  0  0
   11.5905    9.8858   -6.9540 H   0  0  0  0  0  0  0  0  0  0  0  0
   11.0123   12.6993   -7.2239 H   0  0  0  0  0  0  0  0  0  0  0  0
   12.6553   11.9642   -7.4493 H   0  0  0  0  0  0  0  0  0  0  0  0
   13.0820   13.3788   -5.4583 H   0  0  0  0  0  0  0  0  0  0  0  0
   11.1229   13.7620   -3.7750 H   0  0  0  0  0  0  0  0  0  0  0  0
   10.0093   12.7947   -4.9075 H   0  0  0  0  0  0  0  0  0  0  0  0
   12.6736   11.8355   -3.5128 H   0  0  0  0  0  0  0  0  0  0  0  0
  1  6  2  0
  2  3  2  0
  2  1  1  0
  3  4  1  0
  4  5  2  0
  6  5  1  0
  2  7  1  0
  3  8  1  0
  5  9  1  0
 10 11  1  0
 11 12  2  0
 11 13  1  0
 13 14  1  0
 14 15  1  0
 15 16  1  0
 16 17  1  0
 17 18  1  0
 18 13  1  0
 17 15  1  0
 13 19  1  6
 14 20  1  0
 14 21  1  0
 15 22  1  6
 16 23  1  0
 16 24  1  0
 17 25  1  1
  1 18  1  0
M  END
>  <Score>  (1) 
-7.22094

$$$$

     RDKit          3D

 25 26  0  0  0  0  0  0  0  0999 V2000
   11.6905    9.2570   -4.3203 C   0  0  0  0  0  0  0  0  0  0  0  0
   11.3439    8.0938   -5.0382 C   0  0  0  0  0  0  0  0  0  0  0  0
   11.4156    6.8642   -4.3643 C   0  0  0  0  0  0  0  0  0  0  0  0
   11.8161    6.8711   -3.0568 N   0  0  0  0  0  0  0  0  0  0  0  0
   12.1395    8.0038   -2.4039 C   0  0  0  0  0  0  0  0  0  0  0  0
   12.0744    9.1979   -3.0435 N   0  0  0  0  0  0  0  0  0  0  0  0
   11.0355    8.1220   -6.0570 H   0  0  0  0  0  0  0  0  0  0  0  0
   11.1694    5.9410   -4.8398 H   0  0  0  0  0  0  0  0  0  0  0  0
   12.4460    7.9146   -1.3695 H   0  0  0  0  0  0  0  0  0  0  0  0
   11.6243   10.5098   -4.9847 N   0  0  0  0  0  0  0  0  0  0  0  0
   12.4898   11.6201   -4.6473 C   0  0  0  0  0  0  0  0  0  0  0  0
   12.4518   12.5844   -5.8199 C   0  0  0  0  0  0  0  0  0  0  0  0
   12.5968   11.8332   -7.1361 C   0  0  0  0  0  0  0  0  0  0  0  0
   12.5972   12.5870   -7.9411 H   0  0  0  0  0  0  0  0  0  0  0  0
   11.4573   10.8676   -7.3366 C   0  0  0  0  0  0  0  0  0  0  0  0
   10.6620   10.7183   -6.0489 C   0  0  0  0  0  0  0  0  0  0  0  0
   12.0732   12.1727   -3.7634 H   0  0  0  0  0  0  0  0  0  0  0  0
   13.5256   11.3085   -4.4198 H   0  0  0  0  0  0  0  0  0  0  0  0
   11.4774   13.1079   -5.8394 H   0  0  0  0  0  0  0  0  0  0  0  0
   13.2420   13.3411   -5.7744 H   0  0  0  0  0  0  0  0  0  0  0  0
   13.5910   11.3102   -7.1176 H   0  0  0  0  0  0  0  0  0  0  0  0
   10.7818   11.2022   -8.1496 H   0  0  0  0  0  0  0  0  0  0  0  0
   11.8869    9.8571   -7.5493 H   0  0  0  0  0  0  0  0  0  0  0  0
    9.9878    9.8526   -6.1054 H   0  0  0  0  0  0  0  0  0  0  0  0
   10.0482   11.6297   -5.8573 H   0  0  0  0  0  0  0  0  0  0  0  0
  1  6  2  0
  2  3  2  0
  2  1  1  0
  3  4  1  0
  4  5  2  0
  6  5  1  0
  2  7  1  0
  3  8  1  0
  5  9  1  0
 10 11  1  0
 11 12  1  0
 12 13  1  0
 13 14  1  0
 13 15  1  0
 15 16  1  0
 16 10  1  0
 11 17  1  0
 11 18  1  0
 12 19  1  0
 12 20  1  0
 13 21  1  0
 15 22  1  0
 15 23  1  0
 16 24  1  0
 16 25  1  0
  1 10  1  0
M  END
>  <Score>  (1) 
-7.17705

$$$$

     RDKit          3D

 24 25  0  0  0  0  0  0  0  0999 V2000
   11.6907    9.2574   -4.3197 C   0  0  0  0  0  0  0  0  0  0  0  0
   11.3437    8.0930   -5.0385 C   0  0  0  0  0  0  0  0  0  0  0  0
   11.4156    6.8643   -4.3644 C   0  0  0  0  0  0  0  0  0  0  0  0
   11.8159    6.8702   -3.0573 N   0  0  0  0  0  0  0  0  0  0  0  0
   12.1394    8.0071   -2.4052 C   0  0  0  0  0  0  0  0  0  0  0  0
   12.0747    9.1961   -3.0419 N   0  0  0  0  0  0  0  0  0  0  0  0
   11.0418    8.1714   -6.0541 H   0  0  0  0  0  0  0  0  0  0  0  0
   11.1577    5.9577   -4.8839 H   0  0  0  0  0  0  0  0  0  0  0  0
   12.4483    7.9168   -1.3628 H   0  0  0  0  0  0  0  0  0  0  0  0
   11.6084   10.4989   -5.0327 N   0  0  0  0  0  0  0  0  0  0  0  0
   10.7082   11.5044   -4.5161 C   0  0  0  0  0  0  0  0  0  0  0  0
   10.7446   12.7040   -5.3838 C   0  0  0  0  0  0  0  0  0  0  0  0
   10.8804   12.5780   -6.7472 C   0  0  0  0  0  0  0  0  0  0  0  0
   10.9193   13.7009   -7.5809 C   0  0  0  0  0  0  0  0  0  0  0  0
   10.8130   14.9241   -6.9448 C   0  0  0  0  0  0  0  0  0  0  0  0
   10.6764   15.0332   -5.5674 C   0  0  0  0  0  0  0  0  0  0  0  0
   10.6444   13.9324   -4.8137 N   0  0  0  0  0  0  0  0  0  0  0  0
   12.1588   10.6832   -5.8740 H   0  0  0  0  0  0  0  0  0  0  0  0
   10.9157   11.7458   -3.4552 H   0  0  0  0  0  0  0  0  0  0  0  0
    9.6815   11.0422   -4.5166 H   0  0  0  0  0  0  0  0  0  0  0  0
   10.9576   11.6203   -7.2047 H   0  0  0  0  0  0  0  0  0  0  0  0
   11.0263   13.5984   -8.6526 H   0  0  0  0  0  0  0  0  0  0  0  0
   10.8371   15.8340   -7.5428 H   0  0  0  0  0  0  0  0  0  0  0  0
   10.6002   16.0365   -5.1609 H   0  0  0  0  0  0  0  0  0  0  0  0
  1  6  2  0
  2  3  2  0
  2  1  1  0
  3  4  1  0
  4  5  2  0
  6  5  1  0
  2  7  1  0
  3  8  1  0
  5  9  1  0
 10 11  1  0
 11 12  1  0
 12 13  2  0
 13 14  1  0
 14 15  2  0
 15 16  1  0
 16 17  2  0
 17 12  1  0
 10 18  1  0
 11 19  1  0
 11 20  1  0
 13 21  1  0
 14 22  1  0
 15 23  1  0
 16 24  1  0
  1 10  1  0
M  END
>  <Score>  (1) 
-7.16248

$$$$

     RDKit          3D

 25 27  0  0  0  0  0  0  0  0999 V2000
   11.6901    9.2618   -4.3233 C   0  0  0  0  0  0  0  0  0  0  0  0
   11.3435    8.0871   -5.0372 C   0  0  0  0  0  0  0  0  0  0  0  0
   11.4151    6.8675   -4.3673 C   0  0  0  0  0  0  0  0  0  0  0  0
   11.8164    6.8711   -3.0557 N   0  0  0  0  0  0  0  0  0  0  0  0
   12.1394    8.0072   -2.4055 C   0  0  0  0  0  0  0  0  0  0  0  0
   12.0756    9.1934   -3.0379 N   0  0  0  0  0  0  0  0  0  0  0  0
   11.0394    8.1757   -6.0636 H   0  0  0  0  0  0  0  0  0  0  0  0
   11.1610    5.9575   -4.8730 H   0  0  0  0  0  0  0  0  0  0  0  0
   12.4537    7.9811   -1.3679 H   0  0  0  0  0  0  0  0  0  0  0  0
   11.6255   10.5197   -4.9840 N   0  0  0  0  0  0  0  0  0  0  0  0
   11.0480   11.7380   -4.4371 C   0  0  0  0  0  0  0  0  0  0  0  0
   11.3259   12.7502   -5.5300 C   0  0  2  0  0  0  0  0  0  0  0  0
   11.0777   11.8455   -6.7516 C   0  0  0  0  0  0  0  0  0  0  0  0
   12.1213   10.8034   -6.3093 C   0  0  1  0  0  0  0  0  0  0  0  0
   13.3178   11.7048   -6.1458 C   0  0  0  0  0  0  0  0  0  0  0  0
   12.7489   12.9267   -5.5899 N   0  0  0  0  0  0  0  0  0  0  0  0
   13.0645   13.7789   -6.0589 H   0  0  0  0  0  0  0  0  0  0  0  0
   11.6520   12.0310   -3.5386 H   0  0  0  0  0  0  0  0  0  0  0  0
    9.9748   11.6347   -4.2085 H   0  0  0  0  0  0  0  0  0  0  0  0
   10.7276   13.6329   -5.5179 H   0  0  0  0  0  0  0  0  0  0  0  0
   10.0636   11.4213   -6.7219 H   0  0  0  0  0  0  0  0  0  0  0  0
   11.3528   12.3338   -7.6802 H   0  0  0  0  0  0  0  0  0  0  0  0
   12.2257    9.9803   -6.9737 H   0  0  0  0  0  0  0  0  0  0  0  0
   14.0469   11.2308   -5.4873 H   0  0  0  0  0  0  0  0  0  0  0  0
   13.7482   11.9139   -7.1608 H   0  0  0  0  0  0  0  0  0  0  0  0
  1  6  2  0
  2  3  2  0
  2  1  1  0
  3  4  1  0
  4  5  2  0
  6  5  1  0
  2  7  1  0
  3  8  1  0
  5  9  1  0
 10 11  1  0
 11 12  1  0
 12 13  1  0
 13 14  1  0
 14 15  1  0
 15 16  1  0
 16 17  1  0
 14 10  1  0
 16 12  1  0
 11 18  1  0
 11 19  1  0
 12 20  1  6
 13 21  1  0
 13 22  1  0
 14 23  1  6
 15 24  1  0
 15 25  1  0
  1 10  1  0
M  END
>  <Score>  (1) 
-7.15364

$$$$

     RDKit          3D

 27 28  0  0  0  0  0  0  0  0999 V2000
   11.6913    9.2718   -4.3229 C   0  0  0  0  0  0  0  0  0  0  0  0
   11.3458    8.0873   -5.0298 C   0  0  0  0  0  0  0  0  0  0  0  0
   11.4166    6.8676   -4.3624 C   0  0  0  0  0  0  0  0  0  0  0  0
   11.8145    6.8682   -3.0611 N   0  0  0  0  0  0  0  0  0  0  0  0
   12.1407    8.0123   -2.4029 C   0  0  0  0  0  0  0  0  0  0  0  0
   12.0712    9.1807   -3.0478 N   0  0  0  0  0  0  0  0  0  0  0  0
   11.0351    8.0843   -6.0451 H   0  0  0  0  0  0  0  0  0  0  0  0
   11.1672    5.9376   -4.8455 H   0  0  0  0  0  0  0  0  0  0  0  0
   12.4429    7.8916   -1.3714 H   0  0  0  0  0  0  0  0  0  0  0  0
   12.6911    7.9104   -9.2750 H   0  0  0  0  0  0  0  0  0  0  0  0
   12.5772    8.9275   -9.6174 C   0  0  0  0  0  0  0  0  0  0  0  0
   12.7342    9.1349  -10.8381 O   0  0  0  0  0  0  0  0  0  0  0  0
   12.2576    9.9930   -8.6976 C   0  0  0  0  0  0  0  0  0  0  0  0
   12.1112   11.2909   -9.1284 C   0  0  0  0  0  0  0  0  0  0  0  0
   11.8053   12.3036   -8.2412 C   0  0  0  0  0  0  0  0  0  0  0  0
   11.6496   11.9843   -6.9118 C   0  0  0  0  0  0  0  0  0  0  0  0
   11.3216   13.0788   -5.9668 C   0  0  0  0  0  0  0  0  0  0  0  0
   11.7877   10.6797   -6.4206 C   0  0  0  0  0  0  0  0  0  0  0  0
   11.6040   10.4799   -5.0400 N   0  0  0  0  0  0  0  0  0  0  0  0
   12.0941    9.6911   -7.3370 C   0  0  0  0  0  0  0  0  0  0  0  0
   12.2466   11.4864  -10.1979 H   0  0  0  0  0  0  0  0  0  0  0  0
   11.6898   13.3285   -8.5817 H   0  0  0  0  0  0  0  0  0  0  0  0
   11.3448   14.0715   -6.4620 H   0  0  0  0  0  0  0  0  0  0  0  0
   12.0486   13.1417   -5.1306 H   0  0  0  0  0  0  0  0  0  0  0  0
   10.2973   12.9728   -5.5312 H   0  0  0  0  0  0  0  0  0  0  0  0
   11.3686   11.3433   -4.4521 H   0  0  0  0  0  0  0  0  0  0  0  0
   12.2094    8.6737   -7.0026 H   0  0  0  0  0  0  0  0  0  0  0  0
  1  6  2  0
  2  3  2  0
  2  1  1  0
  3  4  1  0
  4  5  2  0
  6  5  1  0
  2  7  1  0
  3  8  1  0
  5  9  1  0
 10 11  1  0
 11 12  2  0
 11 13  1  0
 13 14  2  0
 14 15  1  0
 15 16  2  0
 16 17  1  0
 16 18  1  0
 18 19  1  0
 18 20  2  0
 20 13  1  0
 14 21  1  0
 15 22  1  0
 17 23  1  0
 17 24  1  0
 17 25  1  0
 19 26  1  0
 20 27  1  0
  1 19  1  0
M  END
>  <Score>  (1) 
-7.13646

$$$$

     RDKit          3D

 23 25  0  0  0  0  0  0  0  0999 V2000
   11.6913    9.2618   -4.3194 C   0  0  0  0  0  0  0  0  0  0  0  0
   11.3432    8.0896   -5.0391 C   0  0  0  0  0  0  0  0  0  0  0  0
   11.4161    6.8655   -4.3631 C   0  0  0  0  0  0  0  0  0  0  0  0
   11.8154    6.8700   -3.0586 N   0  0  0  0  0  0  0  0  0  0  0  0
   12.1397    8.0069   -2.4041 C   0  0  0  0  0  0  0  0  0  0  0  0
   12.0742    9.1942   -3.0427 N   0  0  0  0  0  0  0  0  0  0  0  0
   11.0375    8.1463   -6.0590 H   0  0  0  0  0  0  0  0  0  0  0  0
   11.1598    5.9346   -4.8689 H   0  0  0  0  0  0  0  0  0  0  0  0
   12.4496    7.9576   -1.3729 H   0  0  0  0  0  0  0  0  0  0  0  0
   11.6244   10.5144   -4.9859 N   0  0  0  0  0  0  0  0  0  0  0  0
   12.4576   11.6623   -4.6956 C   0  0  0  0  0  0  0  0  0  0  0  0
   12.8356   12.1535   -6.0536 C   0  0  2  0  0  0  0  0  0  0  0  0
   11.9501   13.0907   -6.7888 C   0  0  0  0  0  0  0  0  0  0  0  0
   12.3872   13.6854   -7.5944 H   0  0  0  0  0  0  0  0  0  0  0  0
   11.7279   11.6388   -6.9994 C   0  0  2  0  0  0  0  0  0  0  0  0
   10.7560   10.9387   -6.0637 C   0  0  0  0  0  0  0  0  0  0  0  0
   11.8122   12.3963   -4.1583 H   0  0  0  0  0  0  0  0  0  0  0  0
   13.3185   11.3590   -4.0720 H   0  0  0  0  0  0  0  0  0  0  0  0
   13.8746   12.0785   -6.4138 H   0  0  0  0  0  0  0  0  0  0  0  0
   11.1368   13.6169   -6.2419 H   0  0  0  0  0  0  0  0  0  0  0  0
   12.0473   11.1336   -7.9246 H   0  0  0  0  0  0  0  0  0  0  0  0
   10.2043   10.1385   -6.5460 H   0  0  0  0  0  0  0  0  0  0  0  0
   10.0858   11.7168   -5.6443 H   0  0  0  0  0  0  0  0  0  0  0  0
  1  6  2  0
  2  3  2  0
  2  1  1  0
  3  4  1  0
  4  5  2  0
  6  5  1  0
  2  7  1  0
  3  8  1  0
  5  9  1  0
 10 11  1  0
 11 12  1  0
 12 13  1  0
 13 14  1  0
 13 15  1  0
 15 16  1  0
 16 10  1  0
 15 12  1  0
 11 17  1  0
 11 18  1  0
 12 19  1  6
 13 20  1  0
 15 21  1  6
 16 22  1  0
 16 23  1  0
  1 10  1  0
M  END
>  <Score>  (1) 
-7.10072

$$$$

     RDKit          3D

 21 22  0  0  0  0  0  0  0  0999 V2000
   11.6888    9.2573   -4.3260 C   0  0  0  0  0  0  0  0  0  0  0  0
   11.3438    8.0938   -5.0385 C   0  0  0  0  0  0  0  0  0  0  0  0
   11.4161    6.8641   -4.3626 C   0  0  0  0  0  0  0  0  0  0  0  0
   11.8151    6.8695   -3.0596 N   0  0  0  0  0  0  0  0  0  0  0  0
   12.1398    8.0098   -2.4050 C   0  0  0  0  0  0  0  0  0  0  0  0
   12.0764    9.1935   -3.0353 N   0  0  0  0  0  0  0  0  0  0  0  0
   11.0364    8.1488   -6.0638 H   0  0  0  0  0  0  0  0  0  0  0  0
   11.1573    5.9619   -4.8869 H   0  0  0  0  0  0  0  0  0  0  0  0
   12.4509    7.9347   -1.3606 H   0  0  0  0  0  0  0  0  0  0  0  0
   11.6226   10.5052   -4.9885 N   0  0  0  0  0  0  0  0  0  0  0  0
   11.8455   10.5903   -6.3762 C   0  0  0  0  0  0  0  0  0  0  0  0
   11.7926   11.7808   -7.0693 C   0  0  0  0  0  0  0  0  0  0  0  0
   12.0205   11.8003   -8.4306 C   0  0  0  0  0  0  0  0  0  0  0  0
   12.3050   10.6551   -9.1445 C   0  0  0  0  0  0  0  0  0  0  0  0
   12.5858   10.7340  -10.8684 Cl  0  0  0  0  0  0  0  0  0  0  0  0
   12.3474    9.4869   -8.4087 C   0  0  0  0  0  0  0  0  0  0  0  0
   12.1230    9.4795   -7.0775 N   0  0  0  0  0  0  0  0  0  0  0  0
   11.4098   11.3769   -4.4678 H   0  0  0  0  0  0  0  0  0  0  0  0
   11.5669   12.7075   -6.5182 H   0  0  0  0  0  0  0  0  0  0  0  0
   11.9647   12.7770   -8.9262 H   0  0  0  0  0  0  0  0  0  0  0  0
   12.5665    8.5638   -8.9235 H   0  0  0  0  0  0  0  0  0  0  0  0
  1  6  2  0
  2  3  2  0
  2  1  1  0
  3  4  1  0
  4  5  2  0
  6  5  1  0
  2  7  1  0
  3  8  1  0
  5  9  1  0
 10 11  1  0
 11 12  2  0
 12 13  1  0
 13 14  2  0
 14 15  1  0
 14 16  1  0
 16 17  2  0
 17 11  1  0
 10 18  1  0
 12 19  1  0
 13 20  1  0
 16 21  1  0
  1 10  1  0
M  END
>  <Score>  (1) 
-7.07038

$$$$

     RDKit          3D

 27 28  0  0  0  0  0  0  0  0999 V2000
   11.6886    9.2549   -4.3257 C   0  0  0  0  0  0  0  0  0  0  0  0
   11.3442    8.0978   -5.0387 C   0  0  0  0  0  0  0  0  0  0  0  0
   11.4164    6.8621   -4.3608 C   0  0  0  0  0  0  0  0  0  0  0  0
   11.8149    6.8695   -3.0602 N   0  0  0  0  0  0  0  0  0  0  0  0
   12.1398    8.0088   -2.4045 C   0  0  0  0  0  0  0  0  0  0  0  0
   12.0760    9.1949   -3.0371 N   0  0  0  0  0  0  0  0  0  0  0  0
   11.0356    8.1428   -6.0642 H   0  0  0  0  0  0  0  0  0  0  0  0
   11.1595    5.9536   -4.8768 H   0  0  0  0  0  0  0  0  0  0  0  0
   12.4476    7.9331   -1.3708 H   0  0  0  0  0  0  0  0  0  0  0  0
   11.6231   10.5089   -4.9880 N   0  0  0  0  0  0  0  0  0  0  0  0
   11.0236   11.6568   -4.3477 C   0  0  0  0  0  0  0  0  0  0  0  0
   11.4654   12.8824   -5.1186 C   0  0  0  0  0  0  0  0  0  0  0  0
   10.9533   12.7965   -6.4518 N   0  0  0  0  0  0  0  0  0  0  0  0
   11.1636   13.6151   -7.0440 H   0  0  0  0  0  0  0  0  0  0  0  0
   11.1425   11.5295   -7.0846 C   0  0  1  0  0  0  0  0  0  0  0  0
   11.5780   11.6036   -8.5117 C   0  0  0  0  0  0  0  0  0  0  0  0
   12.1509   10.6750   -6.3147 C   0  0  0  0  0  0  0  0  0  0  0  0
    9.9146   11.5855   -4.4326 H   0  0  0  0  0  0  0  0  0  0  0  0
   11.3614   11.7676   -3.2918 H   0  0  0  0  0  0  0  0  0  0  0  0
   12.5728   12.9514   -5.0679 H   0  0  0  0  0  0  0  0  0  0  0  0
   11.0279   13.7771   -4.6195 H   0  0  0  0  0  0  0  0  0  0  0  0
   10.1642   10.9763   -7.0145 H   0  0  0  0  0  0  0  0  0  0  0  0
   12.6495   11.8250   -8.5892 H   0  0  0  0  0  0  0  0  0  0  0  0
   11.3684   10.6179   -8.9821 H   0  0  0  0  0  0  0  0  0  0  0  0
   10.9500   12.3640   -9.0312 H   0  0  0  0  0  0  0  0  0  0  0  0
   12.2599    9.7221   -6.8597 H   0  0  0  0  0  0  0  0  0  0  0  0
   13.1279   11.1743   -6.2344 H   0  0  0  0  0  0  0  0  0  0  0  0
  1  6  2  0
  2  3  2  0
  2  1  1  0
  3  4  1  0
  4  5  2  0
  6  5  1  0
  2  7  1  0
  3  8  1  0
  5  9  1  0
 10 11  1  0
 11 12  1  0
 12 13  1  0
 13 14  1  0
 13 15  1  0
 15 16  1  0
 15 17  1  0
 17 10  1  0
 11 18  1  0
 11 19  1  0
 12 20  1  0
 12 21  1  0
 15 22  1  6
 16 23  1  0
 16 24  1  0
 16 25  1  0
 17 26  1  0
 17 27  1  0
  1 10  1  0
M  END
>  <Score>  (1) 
-7.07019

$$$$

     RDKit          3D

 23 24  0  0  0  0  0  0  0  0999 V2000
   11.6902    9.2549   -4.3205 C   0  0  0  0  0  0  0  0  0  0  0  0
   11.3444    8.0981   -5.0383 C   0  0  0  0  0  0  0  0  0  0  0  0
   11.4163    6.8626   -4.3613 C   0  0  0  0  0  0  0  0  0  0  0  0
   11.8155    6.8699   -3.0584 N   0  0  0  0  0  0  0  0  0  0  0  0
   12.1394    8.0060   -2.4048 C   0  0  0  0  0  0  0  0  0  0  0  0
   12.0741    9.1965   -3.0438 N   0  0  0  0  0  0  0  0  0  0  0  0
   11.0360    8.1001   -6.0481 H   0  0  0  0  0  0  0  0  0  0  0  0
   11.1624    5.9484   -4.8651 H   0  0  0  0  0  0  0  0  0  0  0  0
   12.4576    8.0278   -1.3719 H   0  0  0  0  0  0  0  0  0  0  0  0
   11.6221   10.5207   -4.9946 N   0  0  0  0  0  0  0  0  0  0  0  0
   10.6431   10.6965   -6.0502 C   0  0  0  0  0  0  0  0  0  0  0  0
   10.2784   12.1318   -6.2989 C   0  0  0  0  0  0  0  0  0  0  0  0
   11.4952   12.8333   -6.6288 N   0  0  0  0  0  0  0  0  0  0  0  0
   11.5088   13.5794   -7.3417 H   0  0  0  0  0  0  0  0  0  0  0  0
   12.6567   12.4408   -5.9235 C   0  0  0  0  0  0  0  0  0  0  0  0
   13.7854   12.7799   -6.3561 O   0  0  0  0  0  0  0  0  0  0  0  0
   12.4794   11.6260   -4.6736 C   0  0  0  0  0  0  0  0  0  0  0  0
   11.1174   10.3155   -6.9911 H   0  0  0  0  0  0  0  0  0  0  0  0
    9.7185   10.1218   -5.8051 H   0  0  0  0  0  0  0  0  0  0  0  0
    9.8787   12.6059   -5.3743 H   0  0  0  0  0  0  0  0  0  0  0  0
    9.5448   12.1587   -7.1063 H   0  0  0  0  0  0  0  0  0  0  0  0
   13.4809   11.3600   -4.3448 H   0  0  0  0  0  0  0  0  0  0  0  0
   11.9255   12.2488   -3.9139 H   0  0  0  0  0  0  0  0  0  0  0  0
  1  6  2  0
  2  3  2  0
  2  1  1  0
  3  4  1  0
  4  5  2  0
  6  5  1  0
  2  7  1  0
  3  8  1  0
  5  9  1  0
 10 11  1  0
 11 12  1  0
 12 13  1  0
 13 14  1  0
 13 15  1  0
 15 16  2  0
 15 17  1  0
 17 10  1  0
 11 18  1  0
 11 19  1  0
 12 20  1  0
 12 21  1  0
 17 22  1  0
 17 23  1  0
  1 10  1  0
M  END
>  <Score>  (1) 
-7.05962

$$$$

     RDKit          3D

 23 24  0  0  0  0  0  0  0  0999 V2000
   12.3036    8.1210   -2.2985 C   0  0  0  0  0  0  0  0  0  0  0  0
   12.0223    6.8837   -2.9108 C   0  0  0  0  0  0  0  0  0  0  0  0
   11.5236    6.9044   -4.2277 C   0  0  0  0  0  0  0  0  0  0  0  0
   11.3425    8.1027   -4.8306 N   0  0  0  0  0  0  0  0  0  0  0  0
   11.6282    9.2806   -4.2005 C   0  0  0  0  0  0  0  0  0  0  0  0
   12.0949    9.2784   -2.9699 N   0  0  0  0  0  0  0  0  0  0  0  0
   12.6848    8.1263   -1.2940 H   0  0  0  0  0  0  0  0  0  0  0  0
   12.1862    5.9608   -2.3820 H   0  0  0  0  0  0  0  0  0  0  0  0
   11.3051    5.9706   -4.7062 H   0  0  0  0  0  0  0  0  0  0  0  0
   11.4077   10.4607   -4.9294 N   0  0  0  0  0  0  0  0  0  0  0  0
   11.2096   10.5824   -6.3273 C   0  0  0  0  0  0  0  0  0  0  0  0
   10.8086   11.8120   -6.8630 C   0  0  0  0  0  0  0  0  0  0  0  0
   10.6005   12.0292   -8.2040 C   0  0  0  0  0  0  0  0  0  0  0  0
   10.7912   10.9916   -9.0937 C   0  0  0  0  0  0  0  0  0  0  0  0
   11.1859    9.7578   -8.6275 C   0  0  0  0  0  0  0  0  0  0  0  0
   11.3750    8.7232   -9.5230 O   0  0  0  0  0  0  0  0  0  0  0  0
   11.3873    9.5793   -7.2504 C   0  0  0  0  0  0  0  0  0  0  0  0
   11.3820   11.4095   -4.4092 H   0  0  0  0  0  0  0  0  0  0  0  0
   10.6516   12.6430   -6.1777 H   0  0  0  0  0  0  0  0  0  0  0  0
   10.2898   12.9873   -8.6051 H   0  0  0  0  0  0  0  0  0  0  0  0
   10.6214   11.1836  -10.1498 H   0  0  0  0  0  0  0  0  0  0  0  0
   10.6527    8.0776   -9.8011 H   0  0  0  0  0  0  0  0  0  0  0  0
   11.6990    8.6129   -6.9205 H   0  0  0  0  0  0  0  0  0  0  0  0
  2  1  2  0
  3  2  1  0
  4  3  2  0
  4  5  1  0
  5  6  2  0
  6  1  1  0
  1  7  1  0
  2  8  1  0
  3  9  1  0
 10 11  1  0
 11 12  2  0
 12 13  1  0
 13 14  2  0
 14 15  1  0
 15 16  1  0
 15 17  2  0
 17 11  1  0
 10 18  1  0
 12 19  1  0
 13 20  1  0
 14 21  1  0
 16 22  1  0
 17 23  1  0
  5 10  1  0
M  END
>  <Score>  (1) 
-7.56504

$$$$

     RDKit          3D

 24 25  0  0  0  0  0  0  0  0999 V2000
   11.6886    9.2545   -4.3256 C   0  0  0  0  0  0  0  0  0  0  0  0
   11.3443    8.0987   -5.0387 C   0  0  0  0  0  0  0  0  0  0  0  0
   11.4164    6.8616   -4.3607 C   0  0  0  0  0  0  0  0  0  0  0  0
   11.8150    6.8697   -3.0599 N   0  0  0  0  0  0  0  0  0  0  0  0
   12.1397    8.0083   -2.4047 C   0  0  0  0  0  0  0  0  0  0  0  0
   12.0759    9.1951   -3.0375 N   0  0  0  0  0  0  0  0  0  0  0  0
   11.0360    8.1308   -6.0586 H   0  0  0  0  0  0  0  0  0  0  0  0
   11.1599    5.9735   -4.8824 H   0  0  0  0  0  0  0  0  0  0  0  0
   12.4535    8.0089   -1.3787 H   0  0  0  0  0  0  0  0  0  0  0  0
    9.4178   11.6778   -5.4790 H   0  0  0  0  0  0  0  0  0  0  0  0
    9.9263   11.4521   -6.3914 C   0  0  0  0  0  0  0  0  0  0  0  0
    9.3797   11.7780   -7.4294 O   0  0  0  0  0  0  0  0  0  0  0  0
   11.2334   10.7738   -6.3583 C   0  0  1  0  0  0  0  0  0  0  0  0
   12.2940   11.7784   -6.7870 C   0  0  0  0  0  0  0  0  0  0  0  0
   12.3523   12.6828   -5.5782 C   0  0  0  0  0  0  0  0  0  0  0  0
   11.9408   11.8073   -4.4122 C   0  0  0  0  0  0  0  0  0  0  0  0
   11.6237   10.5152   -4.9884 N   0  0  0  0  0  0  0  0  0  0  0  0
   11.2599    9.8605   -6.9828 H   0  0  0  0  0  0  0  0  0  0  0  0
   13.2614   11.2774   -6.9072 H   0  0  0  0  0  0  0  0  0  0  0  0
   12.0125   12.3112   -7.7123 H   0  0  0  0  0  0  0  0  0  0  0  0
   13.3585   13.1029   -5.4252 H   0  0  0  0  0  0  0  0  0  0  0  0
   11.6306   13.5169   -5.7454 H   0  0  0  0  0  0  0  0  0  0  0  0
   11.0755   12.2151   -3.8689 H   0  0  0  0  0  0  0  0  0  0  0  0
   12.7817   11.7482   -3.7059 H   0  0  0  0  0  0  0  0  0  0  0  0
  1  6  2  0
  2  3  2  0
  2  1  1  0
  3  4  1  0
  4  5  2  0
  6  5  1  0
  2  7  1  0
  3  8  1  0
  5  9  1  0
 10 11  1  0
 11 12  2  0
 11 13  1  0
 13 14  1  0
 14 15  1  0
 15 16  1  0
 16 17  1  0
 17 13  1  0
 13 18  1  6
 14 19  1  0
 14 20  1  0
 15 21  1  0
 15 22  1  0
 16 23  1  0
 16 24  1  0
  1 17  1  0
M  END
>  <Score>  (1) 
-7.05917

$$$$

     RDKit          3D

 25 26  0  0  0  0  0  0  0  0999 V2000
   11.6885    9.2533   -4.3254 C   0  0  0  0  0  0  0  0  0  0  0  0
   11.3446    8.0995   -5.0379 C   0  0  0  0  0  0  0  0  0  0  0  0
   11.4164    6.8619   -4.3609 C   0  0  0  0  0  0  0  0  0  0  0  0
   11.8149    6.8692   -3.0601 N   0  0  0  0  0  0  0  0  0  0  0  0
   12.1399    8.0083   -2.4040 C   0  0  0  0  0  0  0  0  0  0  0  0
   12.0756    9.1957   -3.0387 N   0  0  0  0  0  0  0  0  0  0  0  0
   11.0349    8.1120   -6.0555 H   0  0  0  0  0  0  0  0  0  0  0  0
   11.1605    5.9529   -4.8731 H   0  0  0  0  0  0  0  0  0  0  0  0
   12.4523    7.9794   -1.3718 H   0  0  0  0  0  0  0  0  0  0  0  0
   13.0471   12.8765   -3.0422 H   0  0  0  0  0  0  0  0  0  0  0  0
   12.7580   11.8069   -3.2378 C   0  0  0  0  0  0  0  0  0  0  0  0
   11.9201   11.8200   -4.4855 C   0  0  1  0  0  0  0  0  0  0  0  0
   12.7661   12.3976   -5.6068 C   0  0  0  0  0  0  0  0  0  0  0  0
   11.9348   12.0053   -6.8167 C   0  0  0  0  0  0  0  0  0  0  0  0
   11.2236   10.7352   -6.3750 C   0  0  0  0  0  0  0  0  0  0  0  0
   11.6210   10.5146   -4.9969 N   0  0  0  0  0  0  0  0  0  0  0  0
   13.7165   11.2805   -3.4207 H   0  0  0  0  0  0  0  0  0  0  0  0
   12.2313   11.4674   -2.3436 H   0  0  0  0  0  0  0  0  0  0  0  0
   11.0231   12.4265   -4.3675 H   0  0  0  0  0  0  0  0  0  0  0  0
   12.8847   13.4928   -5.5233 H   0  0  0  0  0  0  0  0  0  0  0  0
   13.7430   11.8556   -5.6359 H   0  0  0  0  0  0  0  0  0  0  0  0
   11.1892   12.8286   -6.9892 H   0  0  0  0  0  0  0  0  0  0  0  0
   12.5483   11.8470   -7.7155 H   0  0  0  0  0  0  0  0  0  0  0  0
   10.1229   10.9133   -6.3723 H   0  0  0  0  0  0  0  0  0  0  0  0
   11.5277    9.9290   -7.0442 H   0  0  0  0  0  0  0  0  0  0  0  0
  1  6  2  0
  2  3  2  0
  2  1  1  0
  3  4  1  0
  4  5  2  0
  6  5  1  0
  2  7  1  0
  3  8  1  0
  5  9  1  0
 10 11  1  0
 11 12  1  0
 12 13  1  0
 13 14  1  0
 14 15  1  0
 15 16  1  0
 16 12  1  0
 11 17  1  0
 11 18  1  0
 12 19  1  1
 13 20  1  0
 13 21  1  0
 14 22  1  0
 14 23  1  0
 15 24  1  0
 15 25  1  0
  1 16  1  0
M  END
>  <Score>  (1) 
-7.05766

$$$$

     RDKit          3D

 20 21  0  0  0  0  0  0  0  0999 V2000
   11.6878    9.2564   -4.3288 C   0  0  0  0  0  0  0  0  0  0  0  0
   11.3446    8.0942   -5.0360 C   0  0  0  0  0  0  0  0  0  0  0  0
   11.4159    6.8662   -4.3640 C   0  0  0  0  0  0  0  0  0  0  0  0
   11.8160    6.8698   -3.0568 N   0  0  0  0  0  0  0  0  0  0  0  0
   12.1388    8.0108   -2.4086 C   0  0  0  0  0  0  0  0  0  0  0  0
   12.0769    9.1906   -3.0328 N   0  0  0  0  0  0  0  0  0  0  0  0
   11.0321    8.1435   -6.0759 H   0  0  0  0  0  0  0  0  0  0  0  0
   11.1632    5.9589   -4.8664 H   0  0  0  0  0  0  0  0  0  0  0  0
   12.4428    7.9384   -1.3883 H   0  0  0  0  0  0  0  0  0  0  0  0
   11.6270   10.5154   -4.9779 N   0  0  0  0  0  0  0  0  0  0  0  0
   10.9305   10.6486   -6.2091 C   0  0  0  0  0  0  0  0  0  0  0  0
   10.8443   11.8205   -6.8633 N   0  0  0  0  0  0  0  0  0  0  0  0
   10.1909   11.9632   -8.0260 C   0  0  0  0  0  0  0  0  0  0  0  0
    9.5657   10.8803   -8.6089 C   0  0  0  0  0  0  0  0  0  0  0  0
    8.7007   11.0299  -10.1313 Cl  0  0  0  0  0  0  0  0  0  0  0  0
    9.6477    9.6731   -7.9467 C   0  0  0  0  0  0  0  0  0  0  0  0
    9.1599    8.8290   -8.4020 H   0  0  0  0  0  0  0  0  0  0  0  0
   10.3161    9.5853   -6.7826 N   0  0  0  0  0  0  0  0  0  0  0  0
   12.0910   11.3301   -4.5501 H   0  0  0  0  0  0  0  0  0  0  0  0
   10.1203   12.9058   -8.5542 H   0  0  0  0  0  0  0  0  0  0  0  0
  1  6  2  0
  2  3  2  0
  2  1  1  0
  3  4  1  0
  4  5  2  0
  6  5  1  0
  2  7  1  0
  3  8  1  0
  5  9  1  0
 10 11  1  0
 11 12  2  0
 12 13  1  0
 13 14  2  0
 14 15  1  0
 14 16  1  0
 16 17  1  0
 16 18  2  0
 18 11  1  0
 10 19  1  0
 13 20  1  0
  1 10  1  0
M  END
>  <Score>  (1) 
-7.04766

$$$$

     RDKit          3D

 24 25  0  0  0  0  0  0  0  0999 V2000
   11.6904    9.2596   -4.3214 C   0  0  0  0  0  0  0  0  0  0  0  0
   11.3433    8.0887   -5.0385 C   0  0  0  0  0  0  0  0  0  0  0  0
   11.4152    6.8668   -4.3666 C   0  0  0  0  0  0  0  0  0  0  0  0
   11.8164    6.8714   -3.0558 N   0  0  0  0  0  0  0  0  0  0  0  0
   12.1393    8.0055   -2.4050 C   0  0  0  0  0  0  0  0  0  0  0  0
   12.0753    9.1960   -3.0398 N   0  0  0  0  0  0  0  0  0  0  0  0
   11.0369    8.1561   -6.0646 H   0  0  0  0  0  0  0  0  0  0  0  0
   11.1578    5.9685   -4.8874 H   0  0  0  0  0  0  0  0  0  0  0  0
   12.4441    7.9059   -1.3724 H   0  0  0  0  0  0  0  0  0  0  0  0
   11.6146   10.4891   -5.0087 N   0  0  0  0  0  0  0  0  0  0  0  0
   12.4296   10.6865   -6.1957 C   0  0  0  0  0  0  0  0  0  0  0  0
   12.2138   12.0335   -6.7760 C   0  0  0  0  0  0  0  0  0  0  0  0
   11.2485   12.2905   -7.7260 C   0  0  0  0  0  0  0  0  0  0  0  0
   11.1287   13.5797   -8.2027 C   0  0  0  0  0  0  0  0  0  0  0  0
   11.9232   14.6211   -7.7783 C   0  0  0  0  0  0  0  0  0  0  0  0
   12.8561   14.3364   -6.8499 N   0  0  0  0  0  0  0  0  0  0  0  0
   13.0018   13.0963   -6.3636 C   0  0  0  0  0  0  0  0  0  0  0  0
   11.0060   11.2577   -4.7080 H   0  0  0  0  0  0  0  0  0  0  0  0
   13.4870   10.5364   -5.8806 H   0  0  0  0  0  0  0  0  0  0  0  0
   12.2121    9.9196   -6.9670 H   0  0  0  0  0  0  0  0  0  0  0  0
   10.6240   11.4813   -8.0621 H   0  0  0  0  0  0  0  0  0  0  0  0
   10.3787   13.7986   -8.9464 H   0  0  0  0  0  0  0  0  0  0  0  0
   11.8237   15.6334   -8.1577 H   0  0  0  0  0  0  0  0  0  0  0  0
   13.7748   12.9519   -5.6204 H   0  0  0  0  0  0  0  0  0  0  0  0
  1  6  2  0
  2  3  2  0
  2  1  1  0
  3  4  1  0
  4  5  2  0
  6  5  1  0
  2  7  1  0
  3  8  1  0
  5  9  1  0
 10 11  1  0
 11 12  1  0
 12 13  2  0
 13 14  1  0
 14 15  2  0
 15 16  1  0
 16 17  2  0
 17 12  1  0
 10 18  1  0
 11 19  1  0
 11 20  1  0
 13 21  1  0
 14 22  1  0
 15 23  1  0
 17 24  1  0
  1 10  1  0
M  END
>  <Score>  (1) 
-7.02638

$$$$

     RDKit          3D

 20 21  0  0  0  0  0  0  0  0999 V2000
   11.6875    9.2575   -4.3304 C   0  0  0  0  0  0  0  0  0  0  0  0
   11.3445    8.0957   -5.0369 C   0  0  0  0  0  0  0  0  0  0  0  0
   11.4163    6.8635   -4.3618 C   0  0  0  0  0  0  0  0  0  0  0  0
   11.8154    6.8711   -3.0592 N   0  0  0  0  0  0  0  0  0  0  0  0
   12.1395    8.0091   -2.4057 C   0  0  0  0  0  0  0  0  0  0  0  0
   12.0769    9.1911   -3.0329 N   0  0  0  0  0  0  0  0  0  0  0  0
   11.0359    8.1332   -6.0599 H   0  0  0  0  0  0  0  0  0  0  0  0
   11.1598    5.9616   -4.8784 H   0  0  0  0  0  0  0  0  0  0  0  0
   12.4468    7.9097   -1.3651 H   0  0  0  0  0  0  0  0  0  0  0  0
   11.6203   10.4924   -4.9913 N   0  0  0  0  0  0  0  0  0  0  0  0
   10.9236   10.6093   -6.2218 C   0  0  0  0  0  0  0  0  0  0  0  0
   10.3088    9.5339   -6.7858 N   0  0  0  0  0  0  0  0  0  0  0  0
    9.6575    9.6702   -7.9484 C   0  0  0  0  0  0  0  0  0  0  0  0
    9.1725    8.8104   -8.3881 H   0  0  0  0  0  0  0  0  0  0  0  0
    9.5690   10.8345   -8.6140 N   0  0  0  0  0  0  0  0  0  0  0  0
   10.1777   11.8983   -8.0552 C   0  0  0  0  0  0  0  0  0  0  0  0
   10.8616   11.8195   -6.8630 C   0  0  0  0  0  0  0  0  0  0  0  0
   11.4662   12.9160   -6.3259 F   0  0  0  0  0  0  0  0  0  0  0  0
   12.0735   11.3294   -4.5953 H   0  0  0  0  0  0  0  0  0  0  0  0
   10.1523   12.8827   -8.5343 H   0  0  0  0  0  0  0  0  0  0  0  0
  1  6  2  0
  2  3  2  0
  2  1  1  0
  3  4  1  0
  4  5  2  0
  6  5  1  0
  2  7  1  0
  3  8  1  0
  5  9  1  0
 10 11  1  0
 11 12  2  0
 12 13  1  0
 13 14  1  0
 13 15  2  0
 15 16  1  0
 16 17  2  0
 17 18  1  0
 17 11  1  0
 10 19  1  0
 16 20  1  0
  1 10  1  0
M  END
>  <Score>  (1) 
-7.01159

$$$$

     RDKit          3D

 20 21  0  0  0  0  0  0  0  0999 V2000
   11.6899    9.2599   -4.3233 C   0  0  0  0  0  0  0  0  0  0  0  0
   11.3431    8.0884   -5.0389 C   0  0  0  0  0  0  0  0  0  0  0  0
   11.4157    6.8671   -4.3654 C   0  0  0  0  0  0  0  0  0  0  0  0
   11.8156    6.8692   -3.0578 N   0  0  0  0  0  0  0  0  0  0  0  0
   12.1396    8.0100   -2.4055 C   0  0  0  0  0  0  0  0  0  0  0  0
   12.0762    9.1934   -3.0361 N   0  0  0  0  0  0  0  0  0  0  0  0
   11.0353    8.1240   -6.0596 H   0  0  0  0  0  0  0  0  0  0  0  0
   11.1606    5.9368   -4.8720 H   0  0  0  0  0  0  0  0  0  0  0  0
   12.4486    7.9543   -1.3763 H   0  0  0  0  0  0  0  0  0  0  0  0
   11.6311   10.5264   -4.9648 N   0  0  0  0  0  0  0  0  0  0  0  0
   12.7221   11.4077   -5.1123 C   0  0  0  0  0  0  0  0  0  0  0  0
   13.8174   11.3402   -4.5209 O   0  0  0  0  0  0  0  0  0  0  0  0
   12.3098   12.4226   -6.1036 C   0  0  0  0  0  0  0  0  0  0  0  0
   10.8055   12.4659   -5.9366 C   0  0  0  0  0  0  0  0  0  0  0  0
   10.5674   13.1520   -5.1102 H   0  0  0  0  0  0  0  0  0  0  0  0
   10.4489   11.0694   -5.5479 C   0  0  0  0  0  0  0  0  0  0  0  0
    9.3264   10.5461   -5.7250 O   0  0  0  0  0  0  0  0  0  0  0  0
   12.6187   12.0843   -7.0997 H   0  0  0  0  0  0  0  0  0  0  0  0
   12.7922   13.4001   -5.8962 H   0  0  0  0  0  0  0  0  0  0  0  0
   10.2972   12.7560   -6.8572 H   0  0  0  0  0  0  0  0  0  0  0  0
  1  6  2  0
  2  3  2  0
  2  1  1  0
  3  4  1  0
  4  5  2  0
  6  5  1  0
  2  7  1  0
  3  8  1  0
  5  9  1  0
 10 11  1  0
 11 12  2  0
 11 13  1  0
 13 14  1  0
 14 15  1  0
 14 16  1  0
 16 17  2  0
 16 10  1  0
 13 18  1  0
 13 19  1  0
 14 20  1  0
  1 10  1  0
M  END
>  <Score>  (1) 
-7.00743

$$$$

     RDKit          3D

 26 28  0  0  0  0  0  0  0  0999 V2000
   11.6895    9.2583   -4.3242 C   0  0  0  0  0  0  0  0  0  0  0  0
   11.3443    8.0942   -5.0370 C   0  0  0  0  0  0  0  0  0  0  0  0
   11.4149    6.8633   -4.3663 C   0  0  0  0  0  0  0  0  0  0  0  0
   11.8169    6.8722   -3.0547 N   0  0  0  0  0  0  0  0  0  0  0  0
   12.1392    8.0064   -2.4057 C   0  0  0  0  0  0  0  0  0  0  0  0
   12.0753    9.1936   -3.0390 N   0  0  0  0  0  0  0  0  0  0  0  0
   11.6308   10.2008   -4.8507 H   0  0  0  0  0  0  0  0  0  0  0  0
   11.1586    5.9638   -4.8775 H   0  0  0  0  0  0  0  0  0  0  0  0
   12.4429    7.8975   -1.3729 H   0  0  0  0  0  0  0  0  0  0  0  0
   10.9258    8.1567   -6.4256 C   0  0  0  0  0  0  0  0  0  0  0  0
   10.2946    9.2397   -6.9813 C   0  0  0  0  0  0  0  0  0  0  0  0
    9.9088    9.2669   -8.3075 C   0  0  0  0  0  0  0  0  0  0  0  0
   10.1732    8.1567   -9.0955 C   0  0  0  0  0  0  0  0  0  0  0  0
    9.8082    8.1428  -10.4128 C   0  0  0  0  0  0  0  0  0  0  0  0
   10.0361    7.0783  -11.2594 C   0  0  0  0  0  0  0  0  0  0  0  0
   10.6776    5.9754  -10.6970 C   0  0  0  0  0  0  0  0  0  0  0  0
   11.0616    5.9530   -9.3696 C   0  0  0  0  0  0  0  0  0  0  0  0
   10.8079    7.0513   -8.5622 C   0  0  0  0  0  0  0  0  0  0  0  0
   11.1778    7.0632   -7.2310 C   0  0  0  0  0  0  0  0  0  0  0  0
   10.1040   10.0854   -6.3448 H   0  0  0  0  0  0  0  0  0  0  0  0
    9.4162   10.0953   -8.7670 H   0  0  0  0  0  0  0  0  0  0  0  0
    9.3069    9.0055  -10.8496 H   0  0  0  0  0  0  0  0  0  0  0  0
    9.7527    7.0611  -12.2898 H   0  0  0  0  0  0  0  0  0  0  0  0
   10.8705    5.1305  -11.3290 H   0  0  0  0  0  0  0  0  0  0  0  0
   11.5586    5.0696   -8.9811 H   0  0  0  0  0  0  0  0  0  0  0  0
   11.6759    6.1611   -6.8661 H   0  0  0  0  0  0  0  0  0  0  0  0
  1  6  2  0
  2  3  2  0
  2  1  1  0
  3  4  1  0
  4  5  2  0
  6  5  1  0
  1  7  1  0
  3  8  1  0
  5  9  1  0
 10 11  2  0
 11 12  1  0
 12 13  2  0
 13 14  1  0
 14 15  2  0
 15 16  1  0
 16 17  2  0
 17 18  1  0
 18 19  2  0
 19 10  1  0
 18 13  1  0
 11 20  1  0
 12 21  1  0
 14 22  1  0
 15 23  1  0
 16 24  1  0
 17 25  1  0
 19 26  1  0
  2 10  1  0
M  END
>  <Score>  (1) 
-9.26629

$$$$

     RDKit          3D

 25 27  0  0  0  0  0  0  0  0999 V2000
   11.6894    9.2594   -4.3249 C   0  0  0  0  0  0  0  0  0  0  0  0
   11.3434    8.0888   -5.0382 C   0  0  0  0  0  0  0  0  0  0  0  0
   11.4154    6.8665   -4.3657 C   0  0  0  0  0  0  0  0  0  0  0  0
   11.8155    6.8695   -3.0583 N   0  0  0  0  0  0  0  0  0  0  0  0
   12.1397    8.0118   -2.4061 C   0  0  0  0  0  0  0  0  0  0  0  0
   12.0767    9.1920   -3.0338 N   0  0  0  0  0  0  0  0  0  0  0  0
   11.6321   10.1983   -4.8468 H   0  0  0  0  0  0  0  0  0  0  0  0
   11.1577    5.9531   -4.8822 H   0  0  0  0  0  0  0  0  0  0  0  0
   12.4450    7.8965   -1.3661 H   0  0  0  0  0  0  0  0  0  0  0  0
   10.9254    8.1521   -6.4289 C   0  0  0  0  0  0  0  0  0  0  0  0
   11.4425    9.1420   -7.2350 C   0  0  0  0  0  0  0  0  0  0  0  0
   11.0685    9.2324   -8.5587 C   0  0  0  0  0  0  0  0  0  0  0  0
   10.1679    8.3162   -9.0646 C   0  0  0  0  0  0  0  0  0  0  0  0
    9.7696    8.3671  -10.3667 N   0  0  0  0  0  0  0  0  0  0  0  0
    8.8979    7.4794  -10.8547 C   0  0  0  0  0  0  0  0  0  0  0  0
    8.3459    6.4692  -10.1040 C   0  0  0  0  0  0  0  0  0  0  0  0
    8.7266    6.3879   -8.7822 C   0  0  0  0  0  0  0  0  0  0  0  0
    9.6301    7.3112   -8.2843 C   0  0  0  0  0  0  0  0  0  0  0  0
   10.0283    7.2530   -6.9653 C   0  0  0  0  0  0  0  0  0  0  0  0
   12.1552    9.8812   -6.8674 H   0  0  0  0  0  0  0  0  0  0  0  0
   11.4661   10.0037   -9.2031 H   0  0  0  0  0  0  0  0  0  0  0  0
    8.6065    7.5607  -11.9125 H   0  0  0  0  0  0  0  0  0  0  0  0
    7.6362    5.7595  -10.5324 H   0  0  0  0  0  0  0  0  0  0  0  0
    8.3348    5.6163   -8.1204 H   0  0  0  0  0  0  0  0  0  0  0  0
    9.5914    6.4483   -6.3590 H   0  0  0  0  0  0  0  0  0  0  0  0
  1  6  2  0
  2  3  2  0
  2  1  1  0
  3  4  1  0
  4  5  2  0
  6  5  1  0
  1  7  1  0
  3  8  1  0
  5  9  1  0
 10 11  2  0
 11 12  1  0
 12 13  2  0
 13 14  1  0
 14 15  2  0
 15 16  1  0
 16 17  2  0
 17 18  1  0
 18 19  2  0
 19 10  1  0
 18 13  1  0
 11 20  1  0
 12 21  1  0
 15 22  1  0
 16 23  1  0
 17 24  1  0
 19 25  1  0
  2 10  1  0
M  END
>  <Score>  (1) 
-8.84077

$$$$

     RDKit          3D

 25 27  0  0  0  0  0  0  0  0999 V2000
   11.6885    9.2547   -4.3259 C   0  0  0  0  0  0  0  0  0  0  0  0
   11.3442    8.0958   -5.0380 C   0  0  0  0  0  0  0  0  0  0  0  0
   11.4156    6.8648   -4.3646 C   0  0  0  0  0  0  0  0  0  0  0  0
   11.8166    6.8717   -3.0553 N   0  0  0  0  0  0  0  0  0  0  0  0
   12.1390    8.0038   -2.4053 C   0  0  0  0  0  0  0  0  0  0  0  0
   12.0760    9.1972   -3.0378 N   0  0  0  0  0  0  0  0  0  0  0  0
   11.6223   10.1806   -4.8755 H   0  0  0  0  0  0  0  0  0  0  0  0
   11.1574    5.9798   -4.8926 H   0  0  0  0  0  0  0  0  0  0  0  0
   12.4512    7.9561   -1.3673 H   0  0  0  0  0  0  0  0  0  0  0  0
   10.9234    8.1559   -6.4349 C   0  0  0  0  0  0  0  0  0  0  0  0
   11.4033    9.1236   -7.3018 C   0  0  0  0  0  0  0  0  0  0  0  0
   11.0228    9.1897   -8.5905 N   0  0  0  0  0  0  0  0  0  0  0  0
   10.1382    8.2910   -9.0920 C   0  0  0  0  0  0  0  0  0  0  0  0
    9.7305    8.3352  -10.4091 C   0  0  0  0  0  0  0  0  0  0  0  0
    8.8313    7.4218  -10.9180 C   0  0  0  0  0  0  0  0  0  0  0  0
    8.3003    6.4230  -10.1300 C   0  0  0  0  0  0  0  0  0  0  0  0
    8.7075    6.3781   -8.8123 C   0  0  0  0  0  0  0  0  0  0  0  0
    9.6112    7.2912   -8.2891 C   0  0  0  0  0  0  0  0  0  0  0  0
   10.0230    7.2537   -6.9750 C   0  0  0  0  0  0  0  0  0  0  0  0
   12.1102    9.8547   -6.9333 H   0  0  0  0  0  0  0  0  0  0  0  0
   10.1563    9.1262  -11.0184 H   0  0  0  0  0  0  0  0  0  0  0  0
    8.5310    7.4865  -11.9643 H   0  0  0  0  0  0  0  0  0  0  0  0
    7.5964    5.7170  -10.5493 H   0  0  0  0  0  0  0  0  0  0  0  0
    8.3187    5.6124   -8.1544 H   0  0  0  0  0  0  0  0  0  0  0  0
    9.6269    6.4834   -6.3264 H   0  0  0  0  0  0  0  0  0  0  0  0
  1  6  2  0
  2  3  2  0
  2  1  1  0
  3  4  1  0
  4  5  2  0
  6  5  1  0
  1  7  1  0
  3  8  1  0
  5  9  1  0
 10 11  2  0
 11 12  1  0
 12 13  2  0
 13 14  1  0
 14 15  2  0
 15 16  1  0
 16 17  2  0
 17 18  1  0
 18 19  2  0
 19 10  1  0
 18 13  1  0
 11 20  1  0
 14 21  1  0
 15 22  1  0
 16 23  1  0
 17 24  1  0
 19 25  1  0
  2 10  1  0
M  END
>  <Score>  (1) 
-8.81414

$$$$

     RDKit          3D

 32 34  0  0  0  0  0  0  0  0999 V2000
   11.6885    9.2560   -4.3266 C   0  0  0  0  0  0  0  0  0  0  0  0
   11.3443    8.0967   -5.0379 C   0  0  0  0  0  0  0  0  0  0  0  0
   11.4159    6.8627   -4.3627 C   0  0  0  0  0  0  0  0  0  0  0  0
   11.8157    6.8706   -3.0578 N   0  0  0  0  0  0  0  0  0  0  0  0
   12.1393    8.0087   -2.4062 C   0  0  0  0  0  0  0  0  0  0  0  0
   12.0762    9.1933   -3.0358 N   0  0  0  0  0  0  0  0  0  0  0  0
   11.6189   10.1742   -4.8823 H   0  0  0  0  0  0  0  0  0  0  0  0
   11.1597    5.9432   -4.8722 H   0  0  0  0  0  0  0  0  0  0  0  0
   12.4450    7.9292   -1.3778 H   0  0  0  0  0  0  0  0  0  0  0  0
   10.9198    8.0799   -6.4207 C   0  0  0  0  0  0  0  0  0  0  0  0
   10.8615    9.3920   -7.0802 C   0  0  0  0  0  0  0  0  0  0  0  0
   11.1680   10.5559   -6.4924 N   0  0  0  0  0  0  0  0  0  0  0  0
   11.0970   11.7127   -7.1381 N   0  0  0  0  0  0  0  0  0  0  0  0
   10.7097   11.7802   -8.4304 C   0  0  0  0  0  0  0  0  0  0  0  0
   10.6348   12.8648   -9.0633 O   0  0  0  0  0  0  0  0  0  0  0  0
   10.3801   10.6261   -9.0976 C   0  0  0  0  0  0  0  0  0  0  0  0
   10.4619    9.4245   -8.4002 C   0  0  0  0  0  0  0  0  0  0  0  0
   10.0943    8.2023   -9.1675 C   0  0  0  0  0  0  0  0  0  0  0  0
   10.8818    8.2496  -10.4611 C   0  0  0  0  0  0  0  0  0  0  0  0
   10.6854    9.5015  -11.2355 C   0  0  0  0  0  0  0  0  0  0  0  0
    9.9432   10.5802  -10.5121 C   0  0  0  0  0  0  0  0  0  0  0  0
   11.5625    7.3736   -6.9876 H   0  0  0  0  0  0  0  0  0  0  0  0
    9.8823    7.6472   -6.4670 H   0  0  0  0  0  0  0  0  0  0  0  0
   11.3489   12.6096   -6.6334 H   0  0  0  0  0  0  0  0  0  0  0  0
    8.9985    8.2092   -9.4214 H   0  0  0  0  0  0  0  0  0  0  0  0
   10.3695    7.2785   -8.6543 H   0  0  0  0  0  0  0  0  0  0  0  0
   11.9665    8.1114  -10.1834 H   0  0  0  0  0  0  0  0  0  0  0  0
   10.6347    7.3596  -11.0819 H   0  0  0  0  0  0  0  0  0  0  0  0
   10.2103    9.2590  -12.2204 H   0  0  0  0  0  0  0  0  0  0  0  0
   11.6975    9.9164  -11.5156 H   0  0  0  0  0  0  0  0  0  0  0  0
   10.1414   11.5571  -10.9748 H   0  0  0  0  0  0  0  0  0  0  0  0
    8.8489   10.3054  -10.5519 H   0  0  0  0  0  0  0  0  0  0  0  0
  1  6  2  0
  2  3  2  0
  2  1  1  0
  3  4  1  0
  4  5  2  0
  6  5  1  0
  1  7  1  0
  3  8  1  0
  5  9  1  0
 10 11  1  0
 11 12  2  0
 12 13  1  0
 13 14  1  0
 14 15  2  0
 14 16  1  0
 16 17  2  0
 17 18  1  0
 18 19  1  0
 19 20  1  0
 20 21  1  0
 17 11  1  0
 21 16  1  0
 10 22  1  0
 10 23  1  0
 13 24  1  0
 18 25  1  0
 18 26  1  0
 19 27  1  0
 19 28  1  0
 20 29  1  0
 20 30  1  0
 21 31  1  0
 21 32  1  0
  2 10  1  0
M  END
>  <Score>  (1) 
-8.80492

$$$$

     RDKit          3D

 22 24  0  0  0  0  0  0  0  0999 V2000
   12.3031    8.1230   -2.3000 C   0  0  0  0  0  0  0  0  0  0  0  0
   12.0205    6.8833   -2.9154 C   0  0  0  0  0  0  0  0  0  0  0  0
   11.5252    6.8980   -4.2229 C   0  0  0  0  0  0  0  0  0  0  0  0
   11.3422    8.1091   -4.8319 N   0  0  0  0  0  0  0  0  0  0  0  0
   11.6248    9.2763   -4.2091 C   0  0  0  0  0  0  0  0  0  0  0  0
   12.0992    9.2812   -2.9587 N   0  0  0  0  0  0  0  0  0  0  0  0
   12.6879    8.0972   -1.2828 H   0  0  0  0  0  0  0  0  0  0  0  0
   12.1709    5.9563   -2.4219 H   0  0  0  0  0  0  0  0  0  0  0  0
   11.2903    6.0092   -4.7492 H   0  0  0  0  0  0  0  0  0  0  0  0
   11.3923   10.5123   -4.9513 C   0  0  0  0  0  0  0  0  0  0  0  0
   10.2450   10.7237   -5.6765 C   0  0  0  0  0  0  0  0  0  0  0  0
   10.0196   11.8856   -6.3779 C   0  0  0  0  0  0  0  0  0  0  0  0
   10.9706   12.8598   -6.3503 N   0  0  0  0  0  0  0  0  0  0  0  0
   11.0182   14.0595   -6.9230 N   0  0  0  0  0  0  0  0  0  0  0  0
   12.1940   14.6503   -6.5827 C   0  0  0  0  0  0  0  0  0  0  0  0
   12.9034   13.8020   -5.7762 C   0  0  0  0  0  0  0  0  0  0  0  0
   13.8629   13.9984   -5.3559 H   0  0  0  0  0  0  0  0  0  0  0  0
   12.1235   12.6773   -5.6365 C   0  0  0  0  0  0  0  0  0  0  0  0
   12.2922   11.5170   -4.9663 N   0  0  0  0  0  0  0  0  0  0  0  0
    9.4955    9.9560   -5.6984 H   0  0  0  0  0  0  0  0  0  0  0  0
    9.1052   12.0244   -6.9412 H   0  0  0  0  0  0  0  0  0  0  0  0
   12.4981   15.6311   -6.9077 H   0  0  0  0  0  0  0  0  0  0  0  0
  2  1  2  0
  3  2  1  0
  4  3  2  0
  4  5  1  0
  5  6  2  0
  6  1  1  0
  1  7  1  0
  2  8  1  0
  3  9  1  0
 10 11  1  0
 11 12  2  0
 12 13  1  0
 13 14  1  0
 14 15  2  0
 15 16  1  0
 16 17  1  0
 16 18  2  0
 18 19  1  0
 19 10  2  0
 18 13  1  0
 11 20  1  0
 12 21  1  0
 15 22  1  0
  5 10  1  0
M  END
>  <Score>  (1) 
-7.56156

$$$$

     RDKit          3D

 25 27  0  0  0  0  0  0  0  0999 V2000
   11.6899    9.2556   -4.3216 C   0  0  0  0  0  0  0  0  0  0  0  0
   11.3436    8.0870   -5.0367 C   0  0  0  0  0  0  0  0  0  0  0  0
   11.4151    6.8723   -4.3689 C   0  0  0  0  0  0  0  0  0  0  0  0
   11.8168    6.8727   -3.0553 N   0  0  0  0  0  0  0  0  0  0  0  0
   12.1397    8.0040   -2.4033 C   0  0  0  0  0  0  0  0  0  0  0  0
   12.0749    9.1964   -3.0412 N   0  0  0  0  0  0  0  0  0  0  0  0
   11.6544   10.2313   -4.7864 H   0  0  0  0  0  0  0  0  0  0  0  0
   11.1600    5.9550   -4.8755 H   0  0  0  0  0  0  0  0  0  0  0  0
   12.4479    7.9288   -1.3683 H   0  0  0  0  0  0  0  0  0  0  0  0
   10.9320    8.2114   -6.4276 C   0  0  0  0  0  0  0  0  0  0  0  0
   10.3035    9.3067   -6.9257 C   0  0  0  0  0  0  0  0  0  0  0  0
    9.9224    9.3904   -8.2701 C   0  0  0  0  0  0  0  0  0  0  0  0
   10.1961    8.3290   -9.1027 C   0  0  0  0  0  0  0  0  0  0  0  0
    9.8620    8.3166  -10.4357 C   0  0  0  0  0  0  0  0  0  0  0  0
   10.1541    7.2325  -11.2371 C   0  0  0  0  0  0  0  0  0  0  0  0
   10.7968    6.1117  -10.7297 C   0  0  0  0  0  0  0  0  0  0  0  0
   11.1281    6.1248   -9.4063 C   0  0  0  0  0  0  0  0  0  0  0  0
   11.6260    5.2839   -8.9636 H   0  0  0  0  0  0  0  0  0  0  0  0
   10.8397    7.2145   -8.5800 C   0  0  0  0  0  0  0  0  0  0  0  0
   11.1782    7.1952   -7.2869 N   0  0  0  0  0  0  0  0  0  0  0  0
   10.0808   10.1488   -6.2866 H   0  0  0  0  0  0  0  0  0  0  0  0
    9.4218   10.2536   -8.6830 H   0  0  0  0  0  0  0  0  0  0  0  0
    9.3632    9.1689  -10.8612 H   0  0  0  0  0  0  0  0  0  0  0  0
    9.8778    7.2539  -12.2824 H   0  0  0  0  0  0  0  0  0  0  0  0
   11.0427    5.2476  -11.3170 H   0  0  0  0  0  0  0  0  0  0  0  0
  1  6  2  0
  2  3  2  0
  2  1  1  0
  3  4  1  0
  4  5  2  0
  6  5  1  0
  1  7  1  0
  3  8  1  0
  5  9  1  0
 10 11  2  0
 11 12  1  0
 12 13  2  0
 13 14  1  0
 14 15  2  0
 15 16  1  0
 16 17  2  0
 17 18  1  0
 17 19  1  0
 19 20  2  0
 20 10  1  0
 19 13  1  0
 11 21  1  0
 12 22  1  0
 14 23  1  0
 15 24  1  0
 16 25  1  0
  2 10  1  0
M  END
>  <Score>  (1) 
-8.70829

$$$$

     RDKit          3D

 25 27  0  0  0  0  0  0  0  0999 V2000
   11.6918    9.2605   -4.3170 C   0  0  0  0  0  0  0  0  0  0  0  0
   11.3419    8.0845   -5.0424 C   0  0  0  0  0  0  0  0  0  0  0  0
   11.4160    6.8700   -4.3641 C   0  0  0  0  0  0  0  0  0  0  0  0
   11.8162    6.8744   -3.0580 N   0  0  0  0  0  0  0  0  0  0  0  0
   12.1397    8.0056   -2.4041 C   0  0  0  0  0  0  0  0  0  0  0  0
   12.0744    9.1929   -3.0414 N   0  0  0  0  0  0  0  0  0  0  0  0
   11.6366   10.2136   -4.8375 H   0  0  0  0  0  0  0  0  0  0  0  0
   11.1498    5.9401   -4.8462 H   0  0  0  0  0  0  0  0  0  0  0  0
   12.4480    7.9787   -1.3871 H   0  0  0  0  0  0  0  0  0  0  0  0
   10.8967    8.2106   -6.4215 C   0  0  0  0  0  0  0  0  0  0  0  0
    9.8961    7.4095   -6.8917 N   0  0  0  0  0  0  0  0  0  0  0  0
    9.4340    7.4695   -8.1261 N   0  0  0  0  0  0  0  0  0  0  0  0
    9.9452    8.3534   -9.0082 C   0  0  0  0  0  0  0  0  0  0  0  0
    9.5004    8.4083  -10.1924 O   0  0  0  0  0  0  0  0  0  0  0  0
   10.9526    9.2011   -8.6279 C   0  0  0  0  0  0  0  0  0  0  0  0
   11.4615   10.1118   -9.5323 C   0  0  0  0  0  0  0  0  0  0  0  0
   12.4588   10.9618   -9.1306 C   0  0  0  0  0  0  0  0  0  0  0  0
   12.9323   10.8981   -7.8509 C   0  0  0  0  0  0  0  0  0  0  0  0
   12.4056    9.9712   -6.9524 C   0  0  0  0  0  0  0  0  0  0  0  0
   11.4162    9.1131   -7.3220 C   0  0  0  0  0  0  0  0  0  0  0  0
    8.6698    6.8612   -8.4944 H   0  0  0  0  0  0  0  0  0  0  0  0
   11.1162   10.1961  -10.5523 H   0  0  0  0  0  0  0  0  0  0  0  0
   12.8610   11.6698   -9.8195 H   0  0  0  0  0  0  0  0  0  0  0  0
   13.7159   11.5464   -7.4878 H   0  0  0  0  0  0  0  0  0  0  0  0
   12.7912    9.9587   -5.9422 H   0  0  0  0  0  0  0  0  0  0  0  0
  1  6  2  0
  2  3  2  0
  2  1  1  0
  3  4  1  0
  4  5  2  0
  6  5  1  0
  1  7  1  0
  3  8  1  0
  5  9  1  0
 10 11  2  0
 11 12  1  0
 12 13  1  0
 13 14  2  0
 13 15  1  0
 15 16  2  0
 16 17  1  0
 17 18  2  0
 18 19  1  0
 19 20  2  0
 20 10  1  0
 20 15  1  0
 12 21  1  0
 16 22  1  0
 17 23  1  0
 18 24  1  0
 19 25  1  0
  2 10  1  0
M  END
>  <Score>  (1) 
-8.66208

$$$$

     RDKit          3D

 26 28  0  0  0  0  0  0  0  0999 V2000
   11.6904    9.2599   -4.3218 C   0  0  0  0  0  0  0  0  0  0  0  0
   11.3436    8.0871   -5.0372 C   0  0  0  0  0  0  0  0  0  0  0  0
   11.4161    6.8683   -4.3640 C   0  0  0  0  0  0  0  0  0  0  0  0
   11.8153    6.8708   -3.0596 N   0  0  0  0  0  0  0  0  0  0  0  0
   12.1395    8.0050   -2.4045 C   0  0  0  0  0  0  0  0  0  0  0  0
   12.0753    9.1969   -3.0401 N   0  0  0  0  0  0  0  0  0  0  0  0
   11.6449   10.2252   -4.8197 H   0  0  0  0  0  0  0  0  0  0  0  0
   11.1612    5.9471   -4.8693 H   0  0  0  0  0  0  0  0  0  0  0  0
   12.4556    8.0134   -1.3792 H   0  0  0  0  0  0  0  0  0  0  0  0
    8.0650    7.2855  -12.3996 H   0  0  0  0  0  0  0  0  0  0  0  0
    7.9680    6.7636  -11.4609 C   0  0  0  0  0  0  0  0  0  0  0  0
    7.1958    5.7888  -11.3645 O   0  0  0  0  0  0  0  0  0  0  0  0
    8.7569    7.2301  -10.3282 C   0  0  0  0  0  0  0  0  0  0  0  0
    8.7283    6.6569   -9.0722 C   0  0  0  0  0  0  0  0  0  0  0  0
    9.6113    7.3874   -8.2889 C   0  0  0  0  0  0  0  0  0  0  0  0
   10.0052    7.2993   -6.9703 C   0  0  0  0  0  0  0  0  0  0  0  0
   10.9342    8.1865   -6.4203 C   0  0  0  0  0  0  0  0  0  0  0  0
   11.4553    9.1636   -7.2309 C   0  0  0  0  0  0  0  0  0  0  0  0
   11.0754    9.2697   -8.5509 C   0  0  0  0  0  0  0  0  0  0  0  0
   10.1613    8.3797   -9.0528 C   0  0  0  0  0  0  0  0  0  0  0  0
    9.6253    8.2563  -10.2750 N   0  0  0  0  0  0  0  0  0  0  0  0
    8.1758    5.8260   -8.6920 H   0  0  0  0  0  0  0  0  0  0  0  0
    9.5986    6.5243   -6.3098 H   0  0  0  0  0  0  0  0  0  0  0  0
   12.1895    9.8715   -6.8155 H   0  0  0  0  0  0  0  0  0  0  0  0
   11.4715   10.0249   -9.1944 H   0  0  0  0  0  0  0  0  0  0  0  0
    9.8134    8.8468  -11.1184 H   0  0  0  0  0  0  0  0  0  0  0  0
  1  6  2  0
  2  3  2  0
  2  1  1  0
  3  4  1  0
  4  5  2  0
  6  5  1  0
  1  7  1  0
  3  8  1  0
  5  9  1  0
 10 11  1  0
 11 12  2  0
 11 13  1  0
 13 14  2  0
 14 15  1  0
 15 16  2  0
 16 17  1  0
 17 18  2  0
 18 19  1  0
 19 20  2  0
 20 21  1  0
 21 13  1  0
 20 15  1  0
 14 22  1  0
 16 23  1  0
 18 24  1  0
 19 25  1  0
 21 26  1  0
  2 17  1  0
M  END
>  <Score>  (1) 
-8.62856

$$$$

     RDKit          3D

 29 31  0  0  0  0  0  0  0  0999 V2000
   11.6902    9.2511   -4.3189 C   0  0  0  0  0  0  0  0  0  0  0  0
   11.3434    8.0897   -5.0394 C   0  0  0  0  0  0  0  0  0  0  0  0
   11.4157    6.8730   -4.3664 C   0  0  0  0  0  0  0  0  0  0  0  0
   11.8169    6.8736   -3.0553 N   0  0  0  0  0  0  0  0  0  0  0  0
   12.1392    8.0038   -2.4051 C   0  0  0  0  0  0  0  0  0  0  0  0
   12.0746    9.1967   -3.0420 N   0  0  0  0  0  0  0  0  0  0  0  0
   11.6374   10.2002   -4.8300 H   0  0  0  0  0  0  0  0  0  0  0  0
   11.1654    5.9370   -4.8002 H   0  0  0  0  0  0  0  0  0  0  0  0
   12.4436    7.9311   -1.3844 H   0  0  0  0  0  0  0  0  0  0  0  0
   10.8971    8.1786   -6.4174 C   0  0  0  0  0  0  0  0  0  0  0  0
   10.1261    7.2050   -6.9771 N   0  0  0  0  0  0  0  0  0  0  0  0
    9.6913    7.2470   -8.2235 N   0  0  0  0  0  0  0  0  0  0  0  0
    9.9946    8.2897   -9.0419 C   0  0  0  0  0  0  0  0  0  0  0  0
    9.5764    8.3127  -10.2154 O   0  0  0  0  0  0  0  0  0  0  0  0
   10.7698    9.2925   -8.5147 C   0  0  0  0  0  0  0  0  0  0  0  0
   11.2276    9.2434   -7.1911 C   0  0  0  0  0  0  0  0  0  0  0  0
   12.0069   10.3894   -6.7513 C   0  0  0  0  0  0  0  0  0  0  0  0
   13.1278   10.7182   -7.7258 C   0  0  0  0  0  0  0  0  0  0  0  0
   12.6217   10.8263   -9.1400 C   0  0  0  0  0  0  0  0  0  0  0  0
   11.1679   10.4553   -9.3001 C   0  0  0  0  0  0  0  0  0  0  0  0
    9.1153    6.4641   -8.5535 H   0  0  0  0  0  0  0  0  0  0  0  0
   12.3846   10.4036   -5.7378 H   0  0  0  0  0  0  0  0  0  0  0  0
   11.2916   11.2819   -6.8155 H   0  0  0  0  0  0  0  0  0  0  0  0
   13.5003   11.7226   -7.4344 H   0  0  0  0  0  0  0  0  0  0  0  0
   13.9644   10.0153   -7.6140 H   0  0  0  0  0  0  0  0  0  0  0  0
   13.2017   10.1136   -9.7631 H   0  0  0  0  0  0  0  0  0  0  0  0
   12.7832   11.8314   -9.5857 H   0  0  0  0  0  0  0  0  0  0  0  0
   10.5797   11.3688   -9.0008 H   0  0  0  0  0  0  0  0  0  0  0  0
   10.9809   10.2712  -10.3735 H   0  0  0  0  0  0  0  0  0  0  0  0
  1  6  2  0
  2  3  2  0
  2  1  1  0
  3  4  1  0
  4  5  2  0
  6  5  1  0
  1  7  1  0
  3  8  1  0
  5  9  1  0
 10 11  2  0
 11 12  1  0
 12 13  1  0
 13 14  2  0
 13 15  1  0
 15 16  2  0
 16 17  1  0
 17 18  1  0
 18 19  1  0
 19 20  1  0
 16 10  1  0
 20 15  1  0
 12 21  1  0
 17 22  1  0
 17 23  1  0
 18 24  1  0
 18 25  1  0
 19 26  1  0
 19 27  1  0
 20 28  1  0
 20 29  1  0
  2 10  1  0
M  END
>  <Score>  (1) 
-8.55662

$$$$

     RDKit          3D

 29 31  0  0  0  0  0  0  0  0999 V2000
   11.6889    9.2535   -4.3244 C   0  0  0  0  0  0  0  0  0  0  0  0
   11.3432    8.0946   -5.0407 C   0  0  0  0  0  0  0  0  0  0  0  0
   11.4171    6.8669   -4.3605 C   0  0  0  0  0  0  0  0  0  0  0  0
   11.8147    6.8686   -3.0605 N   0  0  0  0  0  0  0  0  0  0  0  0
   12.1399    8.0096   -2.4046 C   0  0  0  0  0  0  0  0  0  0  0  0
   12.0763    9.1948   -3.0363 N   0  0  0  0  0  0  0  0  0  0  0  0
   11.6266   10.1786   -4.8587 H   0  0  0  0  0  0  0  0  0  0  0  0
   11.1635    5.9515   -4.8634 H   0  0  0  0  0  0  0  0  0  0  0  0
   12.4475    7.9132   -1.3641 H   0  0  0  0  0  0  0  0  0  0  0  0
   10.9323    8.1638   -6.4106 N   0  0  0  0  0  0  0  0  0  0  0  0
   10.2853    7.0138   -6.9597 C   0  0  0  0  0  0  0  0  0  0  0  0
    9.9285    7.1041   -8.3678 C   0  0  0  0  0  0  0  0  0  0  0  0
    9.2832    6.0584   -8.9651 C   0  0  0  0  0  0  0  0  0  0  0  0
    8.9197    6.0913  -10.3044 C   0  0  0  0  0  0  0  0  0  0  0  0
    9.2199    7.2074  -11.0417 C   0  0  0  0  0  0  0  0  0  0  0  0
    9.8665    8.2477  -10.4311 C   0  0  0  0  0  0  0  0  0  0  0  0
   10.2350    8.2236   -9.0884 C   0  0  0  0  0  0  0  0  0  0  0  0
   10.9191    9.3926   -8.5525 C   0  0  0  0  0  0  0  0  0  0  0  0
   11.2066    9.3843   -7.1152 C   0  0  0  0  0  0  0  0  0  0  0  0
   10.6534   10.1962   -6.5937 H   0  0  0  0  0  0  0  0  0  0  0  0
    9.3324    6.8469   -6.3807 H   0  0  0  0  0  0  0  0  0  0  0  0
   10.9053    6.0914   -6.7951 H   0  0  0  0  0  0  0  0  0  0  0  0
    9.0499    5.1799   -8.3739 H   0  0  0  0  0  0  0  0  0  0  0  0
    8.4092    5.2541  -10.7609 H   0  0  0  0  0  0  0  0  0  0  0  0
    8.9473    7.2507  -12.0761 H   0  0  0  0  0  0  0  0  0  0  0  0
   10.0885    9.1171  -11.0474 H   0  0  0  0  0  0  0  0  0  0  0  0
   11.8693    9.5267   -9.1469 H   0  0  0  0  0  0  0  0  0  0  0  0
   10.3049   10.2973   -8.8328 H   0  0  0  0  0  0  0  0  0  0  0  0
   12.2984    9.6117   -6.9343 H   0  0  0  0  0  0  0  0  0  0  0  0
  1  6  2  0
  2  3  2  0
  2  1  1  0
  3  4  1  0
  4  5  2  0
  6  5  1  0
  1  7  1  0
  3  8  1  0
  5  9  1  0
 10 11  1  0
 11 12  1  0
 12 13  2  0
 13 14  1  0
 14 15  2  0
 15 16  1  0
 16 17  2  0
 17 18  1  0
 18 19  1  0
 19 20  1  0
 19 10  1  0
 17 12  1  0
 11 21  1  0
 11 22  1  0
 13 23  1  0
 14 24  1  0
 15 25  1  0
 16 26  1  0
 18 27  1  0
 18 28  1  0
 19 29  1  0
  2 10  1  0
M  END
>  <Score>  (1) 
-8.52985

$$$$

     RDKit          3D

 27 29  0  0  0  0  0  0  0  0999 V2000
   11.6866    9.2498   -4.3303 C   0  0  0  0  0  0  0  0  0  0  0  0
   11.3453    8.0970   -5.0350 C   0  0  0  0  0  0  0  0  0  0  0  0
   11.4163    6.8686   -4.3638 C   0  0  0  0  0  0  0  0  0  0  0  0
   11.8146    6.8670   -3.0603 N   0  0  0  0  0  0  0  0  0  0  0  0
   12.1405    8.0117   -2.4033 C   0  0  0  0  0  0  0  0  0  0  0  0
   12.0768    9.1938   -3.0343 N   0  0  0  0  0  0  0  0  0  0  0  0
   11.6524   10.2231   -4.7900 H   0  0  0  0  0  0  0  0  0  0  0  0
   11.1550    5.9734   -4.8984 H   0  0  0  0  0  0  0  0  0  0  0  0
   12.4473    7.9247   -1.3687 H   0  0  0  0  0  0  0  0  0  0  0  0
   10.9214    8.1326   -6.4340 C   0  0  0  0  0  0  0  0  0  0  0  0
   11.8112    8.3330   -7.4610 C   0  0  0  0  0  0  0  0  0  0  0  0
   11.4223    8.3693   -8.7979 C   0  0  0  0  0  0  0  0  0  0  0  0
   12.2919    8.5653   -9.8035 N   0  0  0  0  0  0  0  0  0  0  0  0
   11.9069    8.5989  -11.0932 C   0  0  0  0  0  0  0  0  0  0  0  0
   10.6085    8.4292  -11.3643 N   0  0  0  0  0  0  0  0  0  0  0  0
   10.1537    8.4587  -12.7425 C   0  0  0  0  0  0  0  0  0  0  0  0
    9.7022    8.2303  -10.3947 C   0  0  0  0  0  0  0  0  0  0  0  0
    8.4968    8.0734  -10.6558 O   0  0  0  0  0  0  0  0  0  0  0  0
   10.0793    8.1922   -9.0559 C   0  0  0  0  0  0  0  0  0  0  0  0
    9.1634    7.9884   -8.0345 C   0  0  0  0  0  0  0  0  0  0  0  0
    8.1167    7.8528   -8.2699 H   0  0  0  0  0  0  0  0  0  0  0  0
    9.6260    7.9681   -6.7749 N   0  0  0  0  0  0  0  0  0  0  0  0
   12.8583    8.4729   -7.2858 H   0  0  0  0  0  0  0  0  0  0  0  0
   12.6249    8.7594  -11.9040 H   0  0  0  0  0  0  0  0  0  0  0  0
   11.0025    8.4889  -13.4516 H   0  0  0  0  0  0  0  0  0  0  0  0
    9.5350    9.3773  -12.8448 H   0  0  0  0  0  0  0  0  0  0  0  0
    9.5472    7.5525  -12.8991 H   0  0  0  0  0  0  0  0  0  0  0  0
  1  6  2  0
  2  3  2  0
  2  1  1  0
  3  4  1  0
  4  5  2  0
  6  5  1  0
  1  7  1  0
  3  8  1  0
  5  9  1  0
 10 11  2  0
 11 12  1  0
 12 13  1  0
 13 14  2  0
 14 15  1  0
 15 16  1  0
 15 17  1  0
 17 18  2  0
 17 19  1  0
 19 20  1  0
 20 21  1  0
 20 22  2  0
 22 10  1  0
 19 12  2  0
 11 23  1  0
 14 24  1  0
 16 25  1  0
 16 26  1  0
 16 27  1  0
  2 10  1  0
M  END
>  <Score>  (1) 
-8.43816

$$$$

     RDKit          3D

 32 33  0  0  0  0  0  0  0  0999 V2000
   11.6911    9.2615   -4.3198 C   0  0  0  0  0  0  0  0  0  0  0  0
   11.3431    8.0860   -5.0380 C   0  0  0  0  0  0  0  0  0  0  0  0
   11.4162    6.8692   -4.3640 C   0  0  0  0  0  0  0  0  0  0  0  0
   11.8152    6.8715   -3.0598 N   0  0  0  0  0  0  0  0  0  0  0  0
   12.1401    8.0073   -2.4033 C   0  0  0  0  0  0  0  0  0  0  0  0
   12.0742    9.1924   -3.0421 N   0  0  0  0  0  0  0  0  0  0  0  0
   11.6468   10.2247   -4.8088 H   0  0  0  0  0  0  0  0  0  0  0  0
   11.1535    6.0072   -4.9153 H   0  0  0  0  0  0  0  0  0  0  0  0
   12.4476    7.9280   -1.3690 H   0  0  0  0  0  0  0  0  0  0  0  0
   10.9730    8.2152   -6.2947 O   0  0  0  0  0  0  0  0  0  0  0  0
   10.9996    9.1217   -7.3019 C   0  0  2  0  0  0  0  0  0  0  0  0
    9.6665    9.4640   -7.5181 O   0  0  0  0  0  0  0  0  0  0  0  0
    9.3488    9.8689   -8.7669 C   0  0  1  0  0  0  0  0  0  0  0  0
    8.0958   10.7154   -8.7634 C   0  0  0  0  0  0  0  0  0  0  0  0
    7.7876   11.1245  -10.0814 O   0  0  0  0  0  0  0  0  0  0  0  0
   10.5177   10.6089   -9.3790 C   0  0  2  0  0  0  0  0  0  0  0  0
   10.1342   11.3592  -10.4840 O   0  0  0  0  0  0  0  0  0  0  0  0
   11.5022    9.5150   -9.7400 C   0  0  2  0  0  0  0  0  0  0  0  0
   10.9153    8.7723  -10.7805 O   0  0  0  0  0  0  0  0  0  0  0  0
   11.7224    8.6732   -8.5307 C   0  0  2  0  0  0  0  0  0  0  0  0
   11.3096    7.3708   -8.8165 O   0  0  0  0  0  0  0  0  0  0  0  0
   11.4955   10.0617   -6.9508 H   0  0  0  0  0  0  0  0  0  0  0  0
    9.1026    8.9575   -9.3819 H   0  0  0  0  0  0  0  0  0  0  0  0
    8.2059   11.6253   -8.1417 H   0  0  0  0  0  0  0  0  0  0  0  0
    7.2438   10.0878   -8.4371 H   0  0  0  0  0  0  0  0  0  0  0  0
    7.6652   10.2919  -10.6307 H   0  0  0  0  0  0  0  0  0  0  0  0
   11.0106   11.2338   -8.6004 H   0  0  0  0  0  0  0  0  0  0  0  0
   10.9759   11.6907  -10.9011 H   0  0  0  0  0  0  0  0  0  0  0  0
   12.4383    9.9357  -10.1722 H   0  0  0  0  0  0  0  0  0  0  0  0
   11.4257    7.9389  -10.9546 H   0  0  0  0  0  0  0  0  0  0  0  0
   12.8116    8.7140   -8.3140 H   0  0  0  0  0  0  0  0  0  0  0  0
   10.8477    6.9600   -8.0223 H   0  0  0  0  0  0  0  0  0  0  0  0
  1  6  2  0
  2  3  2  0
  2  1  1  0
  3  4  1  0
  4  5  2  0
  6  5  1  0
  1  7  1  0
  3  8  1  0
  5  9  1  0
 10 11  1  0
 11 12  1  0
 12 13  1  0
 13 14  1  0
 14 15  1  0
 13 16  1  0
 16 17  1  0
 16 18  1  0
 18 19  1  0
 18 20  1  0
 20 21  1  0
 20 11  1  0
 11 22  1  1
 13 23  1  6
 14 24  1  0
 14 25  1  0
 15 26  1  0
 16 27  1  1
 17 28  1  0
 18 29  1  6
 19 30  1  0
 20 31  1  1
 21 32  1  0
  2 10  1  0
M  END
>  <Score>  (1) 
-8.42199

$$$$

     RDKit          3D

 24 26  0  0  0  0  0  0  0  0999 V2000
   11.6903    9.2573   -4.3211 C   0  0  0  0  0  0  0  0  0  0  0  0
   11.3430    8.0871   -5.0389 C   0  0  0  0  0  0  0  0  0  0  0  0
   11.4153    6.8708   -4.3677 C   0  0  0  0  0  0  0  0  0  0  0  0
   11.8164    6.8704   -3.0554 N   0  0  0  0  0  0  0  0  0  0  0  0
   12.1396    8.0062   -2.4043 C   0  0  0  0  0  0  0  0  0  0  0  0
   12.0754    9.1962   -3.0396 N   0  0  0  0  0  0  0  0  0  0  0  0
   11.6394   10.1964   -4.8230 H   0  0  0  0  0  0  0  0  0  0  0  0
   11.1584    5.9689   -4.8856 H   0  0  0  0  0  0  0  0  0  0  0  0
   12.4493    7.9442   -1.3693 H   0  0  0  0  0  0  0  0  0  0  0  0
   10.9276    8.1492   -6.4199 C   0  0  0  0  0  0  0  0  0  0  0  0
   10.5806    9.3404   -6.9313 N   0  0  0  0  0  0  0  0  0  0  0  0
   10.1803    9.4955   -8.2079 C   0  0  0  0  0  0  0  0  0  0  0  0
    9.9048   10.4649   -8.6006 H   0  0  0  0  0  0  0  0  0  0  0  0
   10.1202    8.3857   -9.0388 C   0  0  0  0  0  0  0  0  0  0  0  0
    9.7072    8.5438  -10.3575 C   0  0  0  0  0  0  0  0  0  0  0  0
    9.6588    7.4307  -11.1500 C   0  0  0  0  0  0  0  0  0  0  0  0
   10.0037    6.2089  -10.6636 C   0  0  0  0  0  0  0  0  0  0  0  0
   10.4132    6.0647   -9.3487 C   0  0  0  0  0  0  0  0  0  0  0  0
   10.4764    7.1616   -8.5150 C   0  0  0  0  0  0  0  0  0  0  0  0
   10.8666    7.0822   -7.2297 N   0  0  0  0  0  0  0  0  0  0  0  0
    9.4402    9.5164  -10.7192 H   0  0  0  0  0  0  0  0  0  0  0  0
    9.3435    7.5237  -12.1726 H   0  0  0  0  0  0  0  0  0  0  0  0
    9.9740    5.3216  -11.2652 H   0  0  0  0  0  0  0  0  0  0  0  0
   10.6866    5.0880   -8.9676 H   0  0  0  0  0  0  0  0  0  0  0  0
  1  6  2  0
  2  3  2  0
  2  1  1  0
  3  4  1  0
  4  5  2  0
  6  5  1  0
  1  7  1  0
  3  8  1  0
  5  9  1  0
 10 11  2  0
 11 12  1  0
 12 13  1  0
 12 14  2  0
 14 15  1  0
 15 16  2  0
 16 17  1  0
 17 18  2  0
 18 19  1  0
 19 20  2  0
 20 10  1  0
 19 14  1  0
 15 21  1  0
 16 22  1  0
 17 23  1  0
 18 24  1  0
  2 10  1  0
M  END
>  <Score>  (1) 
-8.3605

$$$$

     RDKit          3D

 25 27  0  0  0  0  0  0  0  0999 V2000
   11.6892    9.2573   -4.3245 C   0  0  0  0  0  0  0  0  0  0  0  0
   11.3437    8.0943   -5.0393 C   0  0  0  0  0  0  0  0  0  0  0  0
   11.4163    6.8635   -4.3617 C   0  0  0  0  0  0  0  0  0  0  0  0
   11.8150    6.8696   -3.0599 N   0  0  0  0  0  0  0  0  0  0  0  0
   12.1398    8.0091   -2.4048 C   0  0  0  0  0  0  0  0  0  0  0  0
   12.0760    9.1942   -3.0368 N   0  0  0  0  0  0  0  0  0  0  0  0
   11.6178   10.1786   -4.8875 H   0  0  0  0  0  0  0  0  0  0  0  0
   11.1602    5.9471   -4.8719 H   0  0  0  0  0  0  0  0  0  0  0  0
   12.4510    7.9550   -1.3673 H   0  0  0  0  0  0  0  0  0  0  0  0
   10.9421    8.1782   -6.3828 N   0  0  0  0  0  0  0  0  0  0  0  0
   11.1900    7.1786   -7.2050 N   0  0  0  0  0  0  0  0  0  0  0  0
   10.8349    7.1882   -8.5060 C   0  0  0  0  0  0  0  0  0  0  0  0
   11.0556    6.3474   -9.1516 H   0  0  0  0  0  0  0  0  0  0  0  0
   10.1796    8.2775   -9.0385 C   0  0  0  0  0  0  0  0  0  0  0  0
    9.7975    8.3251  -10.3727 C   0  0  0  0  0  0  0  0  0  0  0  0
    9.1454    9.4518  -10.8286 C   0  0  0  0  0  0  0  0  0  0  0  0
    8.8660   10.5188  -10.0060 C   0  0  0  0  0  0  0  0  0  0  0  0
    9.2534   10.4542   -8.6811 C   0  0  0  0  0  0  0  0  0  0  0  0
    9.9170    9.3303   -8.1780 C   0  0  0  0  0  0  0  0  0  0  0  0
   10.3050    9.2644   -6.8535 C   0  0  0  0  0  0  0  0  0  0  0  0
   10.0362   10.2578   -6.1199 O   0  0  0  0  0  0  0  0  0  0  0  0
   10.0323    7.4725  -10.9875 H   0  0  0  0  0  0  0  0  0  0  0  0
    8.8402    9.5005  -11.8756 H   0  0  0  0  0  0  0  0  0  0  0  0
    8.3536   11.4182  -10.3395 H   0  0  0  0  0  0  0  0  0  0  0  0
    9.0700   11.2486   -7.9771 H   0  0  0  0  0  0  0  0  0  0  0  0
  1  6  2  0
  2  3  2  0
  2  1  1  0
  3  4  1  0
  4  5  2  0
  6  5  1  0
  1  7  1  0
  3  8  1  0
  5  9  1  0
 10 11  1  0
 11 12  2  0
 12 13  1  0
 12 14  1  0
 14 15  2  0
 15 16  1  0
 16 17  2  0
 17 18  1  0
 18 19  2  0
 19 20  1  0
 20 21  2  0
 20 10  1  0
 19 14  1  0
 15 22  1  0
 16 23  1  0
 17 24  1  0
 18 25  1  0
  2 10  1  0
M  END
>  <Score>  (1) 
-8.32562

$$$$

     RDKit          3D

 27 29  0  0  0  0  0  0  0  0999 V2000
   11.6877    9.2545   -4.3287 C   0  0  0  0  0  0  0  0  0  0  0  0
   11.3448    8.0950   -5.0355 C   0  0  0  0  0  0  0  0  0  0  0  0
   11.4153    6.8656   -4.3658 C   0  0  0  0  0  0  0  0  0  0  0  0
   11.8158    6.8697   -3.0573 N   0  0  0  0  0  0  0  0  0  0  0  0
   12.1397    8.0087   -2.4049 C   0  0  0  0  0  0  0  0  0  0  0  0
   12.0766    9.1945   -3.0349 N   0  0  0  0  0  0  0  0  0  0  0  0
   11.6516   10.2230   -4.8022 H   0  0  0  0  0  0  0  0  0  0  0  0
   11.1576    5.9683   -4.8884 H   0  0  0  0  0  0  0  0  0  0  0  0
   12.4487    7.9400   -1.3695 H   0  0  0  0  0  0  0  0  0  0  0  0
   10.9322    8.1188   -6.4331 C   0  0  0  0  0  0  0  0  0  0  0  0
    9.6056    8.4996   -6.6776 C   0  0  0  0  0  0  0  0  0  0  0  0
    9.2015    8.5179   -7.9905 C   0  0  0  0  0  0  0  0  0  0  0  0
   10.0796    8.1718   -9.0216 C   0  0  0  0  0  0  0  0  0  0  0  0
   11.3776    7.7997   -8.7797 C   0  0  0  0  0  0  0  0  0  0  0  0
   11.7930    7.7799   -7.4439 C   0  0  0  0  0  0  0  0  0  0  0  0
   13.2055    7.3836   -7.1919 C   0  0  0  0  0  0  0  0  0  0  0  0
   12.0800    7.4880  -10.0475 C   0  0  0  0  0  0  0  0  0  0  0  0
   11.1172    7.6999  -11.0370 O   0  0  0  0  0  0  0  0  0  0  0  0
    9.9306    8.1025  -10.4685 C   0  0  0  0  0  0  0  0  0  0  0  0
    8.8457    8.3807  -11.0858 O   0  0  0  0  0  0  0  0  0  0  0  0
    8.9396    8.7634   -5.8779 H   0  0  0  0  0  0  0  0  0  0  0  0
    8.1877    8.8053   -8.2208 H   0  0  0  0  0  0  0  0  0  0  0  0
   13.2373    6.2806   -7.2057 H   0  0  0  0  0  0  0  0  0  0  0  0
   13.8482    7.8149   -7.9959 H   0  0  0  0  0  0  0  0  0  0  0  0
   13.4905    7.8225   -6.2190 H   0  0  0  0  0  0  0  0  0  0  0  0
   12.4972    6.4608  -10.0527 H   0  0  0  0  0  0  0  0  0  0  0  0
   12.8944    8.2283  -10.2356 H   0  0  0  0  0  0  0  0  0  0  0  0
  1  6  2  0
  2  3  2  0
  2  1  1  0
  3  4  1  0
  4  5  2  0
  6  5  1  0
  1  7  1  0
  3  8  1  0
  5  9  1  0
 10 11  2  0
 11 12  1  0
 12 13  2  0
 13 14  1  0
 14 15  2  0
 15 16  1  0
 14 17  1  0
 17 18  1  0
 18 19  1  0
 19 20  2  0
 15 10  1  0
 19 13  1  0
 11 21  1  0
 12 22  1  0
 16 23  1  0
 16 24  1  0
 16 25  1  0
 17 26  1  0
 17 27  1  0
  2 10  1  0
M  END
>  <Score>  (1) 
-8.31033

$$$$

     RDKit          3D

 20 21  0  0  0  0  0  0  0  0999 V2000
   12.3027    8.1239   -2.3011 C   0  0  0  0  0  0  0  0  0  0  0  0
   12.0210    6.8825   -2.9140 C   0  0  0  0  0  0  0  0  0  0  0  0
   11.5247    6.8969   -4.2241 C   0  0  0  0  0  0  0  0  0  0  0  0
   11.3426    8.1107   -4.8312 N   0  0  0  0  0  0  0  0  0  0  0  0
   11.6233    9.2754   -4.2128 C   0  0  0  0  0  0  0  0  0  0  0  0
   12.1007    9.2815   -2.9549 N   0  0  0  0  0  0  0  0  0  0  0  0
   12.6891    8.1452   -1.2846 H   0  0  0  0  0  0  0  0  0  0  0  0
   12.1799    5.9580   -2.3985 H   0  0  0  0  0  0  0  0  0  0  0  0
   11.2957    5.9689   -4.7306 H   0  0  0  0  0  0  0  0  0  0  0  0
   11.4071   10.5362   -4.9147 C   0  0  0  0  0  0  0  0  0  0  0  0
   11.0822   11.6835   -4.2291 C   0  0  0  0  0  0  0  0  0  0  0  0
   10.8795   12.8737   -4.9061 C   0  0  0  0  0  0  0  0  0  0  0  0
   10.9944   12.9504   -6.2733 C   0  0  0  0  0  0  0  0  0  0  0  0
   11.3216   11.7991   -6.9731 C   0  0  0  0  0  0  0  0  0  0  0  0
   11.4801   11.9104   -8.8702 Br  0  0  0  0  0  0  0  0  0  0  0  0
   11.5236   10.6082   -6.2862 C   0  0  0  0  0  0  0  0  0  0  0  0
   10.9794   11.6791   -3.1562 H   0  0  0  0  0  0  0  0  0  0  0  0
   10.6262   13.7523   -4.3358 H   0  0  0  0  0  0  0  0  0  0  0  0
   10.8392   13.8790   -6.8327 H   0  0  0  0  0  0  0  0  0  0  0  0
   11.7767    9.7450   -6.8914 H   0  0  0  0  0  0  0  0  0  0  0  0
  2  1  2  0
  3  2  1  0
  4  3  2  0
  4  5  1  0
  5  6  2  0
  6  1  1  0
  1  7  1  0
  2  8  1  0
  3  9  1  0
 10 11  2  0
 11 12  1  0
 12 13  2  0
 13 14  1  0
 14 15  1  0
 14 16  2  0
 16 10  1  0
 11 17  1  0
 12 18  1  0
 13 19  1  0
 16 20  1  0
  5 10  1  0
M  END
>  <Score>  (1) 
-7.55598

$$$$

     RDKit          3D

 31 32  0  0  0  0  0  0  0  0999 V2000
   11.6898    9.2583   -4.3231 C   0  0  0  0  0  0  0  0  0  0  0  0
   11.3435    8.0915   -5.0387 C   0  0  0  0  0  0  0  0  0  0  0  0
   11.4157    6.8652   -4.3644 C   0  0  0  0  0  0  0  0  0  0  0  0
   11.8158    6.8706   -3.0577 N   0  0  0  0  0  0  0  0  0  0  0  0
   12.1395    8.0071   -2.4049 C   0  0  0  0  0  0  0  0  0  0  0  0
   12.0757    9.1953   -3.0383 N   0  0  0  0  0  0  0  0  0  0  0  0
   11.6169   10.1728   -4.8884 H   0  0  0  0  0  0  0  0  0  0  0  0
   11.1624    5.9479   -4.8651 H   0  0  0  0  0  0  0  0  0  0  0  0
   12.4514    7.9674   -1.3705 H   0  0  0  0  0  0  0  0  0  0  0  0
   10.9219    8.1593   -6.4420 C   0  0  2  0  0  0  0  0  0  0  0  0
   11.2503    7.0166   -7.1606 O   0  0  0  0  0  0  0  0  0  0  0  0
   10.4779    7.0116   -8.3146 C   0  0  2  0  0  0  0  0  0  0  0  0
   10.8122    5.8165   -9.1993 C   0  0  0  0  0  0  0  0  0  0  0  0
   10.5487    4.6714   -8.4425 O   0  0  0  0  0  0  0  0  0  0  0  0
   10.6848    8.2799   -9.0753 C   0  0  2  0  0  0  0  0  0  0  0  0
   10.9901    8.0521  -10.4222 O   0  0  0  0  0  0  0  0  0  0  0  0
   11.7799    9.1340   -8.5004 C   0  0  2  0  0  0  0  0  0  0  0  0
   12.9840    8.4082   -8.5475 O   0  0  0  0  0  0  0  0  0  0  0  0
   11.4484    9.4177   -7.0629 C   0  0  2  0  0  0  0  0  0  0  0  0
   12.6184    9.8483   -6.4377 O   0  0  0  0  0  0  0  0  0  0  0  0
    9.8004    8.2230   -6.4581 H   0  0  0  0  0  0  0  0  0  0  0  0
    9.4057    6.8843   -8.0336 H   0  0  0  0  0  0  0  0  0  0  0  0
   10.1567    5.8662  -10.0691 H   0  0  0  0  0  0  0  0  0  0  0  0
   11.8926    5.8709   -9.4804 H   0  0  0  0  0  0  0  0  0  0  0  0
   11.3207    4.4922   -7.8545 H   0  0  0  0  0  0  0  0  0  0  0  0
    9.7449    8.8731   -9.0707 H   0  0  0  0  0  0  0  0  0  0  0  0
   10.8966    8.9270  -10.8780 H   0  0  0  0  0  0  0  0  0  0  0  0
   11.8426   10.0731   -9.0828 H   0  0  0  0  0  0  0  0  0  0  0  0
   13.4724    8.7414   -9.3395 H   0  0  0  0  0  0  0  0  0  0  0  0
   10.6994   10.2327   -7.0345 H   0  0  0  0  0  0  0  0  0  0  0  0
   12.6491   10.8388   -6.4503 H   0  0  0  0  0  0  0  0  0  0  0  0
  1  6  2  0
  2  3  2  0
  2  1  1  0
  3  4  1  0
  4  5  2  0
  6  5  1  0
  1  7  1  0
  3  8  1  0
  5  9  1  0
 10 11  1  0
 11 12  1  0
 12 13  1  0
 13 14  1  0
 12 15  1  0
 15 16  1  0
 15 17  1  0
 17 18  1  0
 17 19  1  0
 19 20  1  0
 19 10  1  0
 10 21  1  1
 12 22  1  1
 13 23  1  0
 13 24  1  0
 14 25  1  0
 15 26  1  6
 16 27  1  0
 17 28  1  6
 18 29  1  0
 19 30  1  6
 20 31  1  0
  2 10  1  0
M  END
>  <Score>  (1) 
-8.25362

$$$$

     RDKit          3D

 24 26  0  0  0  0  0  0  0  0999 V2000
   11.6901    9.2539   -4.3204 C   0  0  0  0  0  0  0  0  0  0  0  0
   11.3424    8.0877   -5.0411 C   0  0  0  0  0  0  0  0  0  0  0  0
   11.4151    6.8731   -4.3691 C   0  0  0  0  0  0  0  0  0  0  0  0
   11.8176    6.8724   -3.0523 N   0  0  0  0  0  0  0  0  0  0  0  0
   12.1393    8.0047   -2.4049 C   0  0  0  0  0  0  0  0  0  0  0  0
   12.0755    9.1962   -3.0393 N   0  0  0  0  0  0  0  0  0  0  0  0
   11.6291   10.2018   -4.8585 H   0  0  0  0  0  0  0  0  0  0  0  0
   11.1665    5.9676   -4.8586 H   0  0  0  0  0  0  0  0  0  0  0  0
   12.4573    8.0228   -1.3712 H   0  0  0  0  0  0  0  0  0  0  0  0
   10.9315    8.2066   -6.4274 C   0  0  0  0  0  0  0  0  0  0  0  0
   11.1526    9.3491   -7.1491 C   0  0  0  0  0  0  0  0  0  0  0  0
   10.7635    9.4439   -8.4396 N   0  0  0  0  0  0  0  0  0  0  0  0
   10.1434    8.3752   -9.0135 C   0  0  0  0  0  0  0  0  0  0  0  0
    9.7604    8.5106  -10.3354 C   0  0  0  0  0  0  0  0  0  0  0  0
    9.1316    7.4718  -10.9719 C   0  0  0  0  0  0  0  0  0  0  0  0
    8.8918    6.3111  -10.2841 C   0  0  0  0  0  0  0  0  0  0  0  0
    9.2789    6.1737   -8.9479 C   0  0  0  0  0  0  0  0  0  0  0  0
    9.9111    7.2164   -8.3060 C   0  0  0  0  0  0  0  0  0  0  0  0
   10.3121    7.1585   -7.0240 N   0  0  0  0  0  0  0  0  0  0  0  0
   11.6391   10.2130   -6.7300 H   0  0  0  0  0  0  0  0  0  0  0  0
    9.9544    9.4378  -10.8771 H   0  0  0  0  0  0  0  0  0  0  0  0
    8.8330    7.5892  -12.0166 H   0  0  0  0  0  0  0  0  0  0  0  0
    8.4025    5.4764  -10.7476 H   0  0  0  0  0  0  0  0  0  0  0  0
    9.0766    5.2489   -8.4342 H   0  0  0  0  0  0  0  0  0  0  0  0
  1  6  2  0
  2  3  2  0
  2  1  1  0
  3  4  1  0
  4  5  2  0
  6  5  1  0
  1  7  1  0
  3  8  1  0
  5  9  1  0
 10 11  2  0
 11 12  1  0
 12 13  2  0
 13 14  1  0
 14 15  2  0
 15 16  1  0
 16 17  2  0
 17 18  1  0
 18 19  2  0
 19 10  1  0
 18 13  1  0
 11 20  1  0
 14 21  1  0
 15 22  1  0
 16 23  1  0
 17 24  1  0
  2 10  1  0
M  END
>  <Score>  (1) 
-8.24877

$$$$

     RDKit          3D

 26 28  0  0  0  0  0  0  0  0999 V2000
   11.6881    9.2544   -4.3272 C   0  0  0  0  0  0  0  0  0  0  0  0
   11.3450    8.0927   -5.0341 C   0  0  0  0  0  0  0  0  0  0  0  0
   11.4149    6.8679   -4.3679 C   0  0  0  0  0  0  0  0  0  0  0  0
   11.8161    6.8697   -3.0564 N   0  0  0  0  0  0  0  0  0  0  0  0
   12.1397    8.0070   -2.4042 C   0  0  0  0  0  0  0  0  0  0  0  0
   12.0761    9.1964   -3.0372 N   0  0  0  0  0  0  0  0  0  0  0  0
   11.6499   10.2262   -4.7993 H   0  0  0  0  0  0  0  0  0  0  0  0
   11.1606    5.9425   -4.8691 H   0  0  0  0  0  0  0  0  0  0  0  0
   12.4562    8.0170   -1.3727 H   0  0  0  0  0  0  0  0  0  0  0  0
   10.9291    8.1720   -6.4228 C   0  0  0  0  0  0  0  0  0  0  0  0
   11.1155    7.2071   -7.3698 C   0  0  0  0  0  0  0  0  0  0  0  0
   10.5730    7.6888   -8.5426 C   0  0  0  0  0  0  0  0  0  0  0  0
   10.0709    8.9328   -8.2800 C   0  0  0  0  0  0  0  0  0  0  0  0
   10.3024    9.1905   -6.9970 N   0  0  0  0  0  0  0  0  0  0  0  0
    9.4013    9.7880   -9.2852 C   0  0  0  0  0  0  0  0  0  0  0  0
    9.4935    9.3132  -10.6721 C   0  0  0  0  0  0  0  0  0  0  0  0
    9.8242    7.9443  -10.8590 N   0  0  0  0  0  0  0  0  0  0  0  0
   10.4666    7.1278   -9.8828 C   0  0  0  0  0  0  0  0  0  0  0  0
   10.9107    5.9881  -10.1814 O   0  0  0  0  0  0  0  0  0  0  0  0
   11.5842    6.2448   -7.2792 H   0  0  0  0  0  0  0  0  0  0  0  0
   10.0399   10.0736   -6.4666 H   0  0  0  0  0  0  0  0  0  0  0  0
    9.8926   10.7997   -9.2090 H   0  0  0  0  0  0  0  0  0  0  0  0
    8.3526    9.9401   -8.9454 H   0  0  0  0  0  0  0  0  0  0  0  0
    8.5180    9.5112  -11.2044 H   0  0  0  0  0  0  0  0  0  0  0  0
   10.2463    9.9206  -11.2547 H   0  0  0  0  0  0  0  0  0  0  0  0
    9.5858    7.4953  -11.7678 H   0  0  0  0  0  0  0  0  0  0  0  0
  1  6  2  0
  2  3  2  0
  2  1  1  0
  3  4  1  0
  4  5  2  0
  6  5  1  0
  1  7  1  0
  3  8  1  0
  5  9  1  0
 10 11  2  0
 11 12  1  0
 12 13  2  0
 13 14  1  0
 13 15  1  0
 15 16  1  0
 16 17  1  0
 17 18  1  0
 18 19  2  0
 14 10  1  0
 18 12  1  0
 11 20  1  0
 14 21  1  0
 15 22  1  0
 15 23  1  0
 16 24  1  0
 16 25  1  0
 17 26  1  0
  2 10  1  0
M  END
>  <Score>  (1) 
-8.23328

$$$$

     RDKit          3D

 24 26  0  0  0  0  0  0  0  0999 V2000
   11.6903    9.2590   -4.3217 C   0  0  0  0  0  0  0  0  0  0  0  0
   11.3433    8.0901   -5.0389 C   0  0  0  0  0  0  0  0  0  0  0  0
   11.4155    6.8658   -4.3652 C   0  0  0  0  0  0  0  0  0  0  0  0
   11.8161    6.8713   -3.0568 N   0  0  0  0  0  0  0  0  0  0  0  0
   12.1394    8.0056   -2.4048 C   0  0  0  0  0  0  0  0  0  0  0  0
   12.0754    9.1961   -3.0395 N   0  0  0  0  0  0  0  0  0  0  0  0
   11.6201   10.1808   -4.8806 H   0  0  0  0  0  0  0  0  0  0  0  0
   11.1632    5.9454   -4.8616 H   0  0  0  0  0  0  0  0  0  0  0  0
   12.4437    7.9140   -1.3767 H   0  0  0  0  0  0  0  0  0  0  0  0
   10.9280    8.1691   -6.4255 C   0  0  0  0  0  0  0  0  0  0  0  0
    9.8447    7.5011   -6.9773 C   0  0  0  0  0  0  0  0  0  0  0  0
    9.7639    7.8114   -8.2811 N   0  0  0  0  0  0  0  0  0  0  0  0
   10.7473    8.6601   -8.6304 C   0  0  0  0  0  0  0  0  0  0  0  0
   11.0884    9.2625   -9.8321 C   0  0  0  0  0  0  0  0  0  0  0  0
   12.1748   10.1111   -9.9055 C   0  0  0  0  0  0  0  0  0  0  0  0
   12.8951   10.3300   -8.7489 C   0  0  0  0  0  0  0  0  0  0  0  0
   12.5458    9.7206   -7.5452 C   0  0  0  0  0  0  0  0  0  0  0  0
   11.4737    8.8840   -7.4748 C   0  0  0  0  0  0  0  0  0  0  0  0
    9.1961    6.8406   -6.3932 H   0  0  0  0  0  0  0  0  0  0  0  0
    9.0232    7.4299   -8.9221 H   0  0  0  0  0  0  0  0  0  0  0  0
   10.5190    9.0883  -10.7421 H   0  0  0  0  0  0  0  0  0  0  0  0
   12.4465   10.5855  -10.8433 H   0  0  0  0  0  0  0  0  0  0  0  0
   13.7545   10.9777   -8.7247 H   0  0  0  0  0  0  0  0  0  0  0  0
   13.1188    9.9025   -6.6520 H   0  0  0  0  0  0  0  0  0  0  0  0
  1  6  2  0
  2  3  2  0
  2  1  1  0
  3  4  1  0
  4  5  2  0
  6  5  1  0
  1  7  1  0
  3  8  1  0
  5  9  1  0
 10 11  2  0
 11 12  1  0
 12 13  1  0
 13 14  2  0
 14 15  1  0
 15 16  2  0
 16 17  1  0
 17 18  2  0
 18 10  1  0
 18 13  1  0
 11 19  1  0
 12 20  1  0
 14 21  1  0
 15 22  1  0
 16 23  1  0
 17 24  1  0
  2 10  1  0
M  END
>  <Score>  (1) 
-8.2229

$$$$

     RDKit          3D

 24 26  0  0  0  0  0  0  0  0999 V2000
   11.6899    9.2589   -4.3231 C   0  0  0  0  0  0  0  0  0  0  0  0
   11.3434    8.0874   -5.0377 C   0  0  0  0  0  0  0  0  0  0  0  0
   11.4152    6.8685   -4.3671 C   0  0  0  0  0  0  0  0  0  0  0  0
   11.8157    6.8695   -3.0574 N   0  0  0  0  0  0  0  0  0  0  0  0
   12.1398    8.0091   -2.4048 C   0  0  0  0  0  0  0  0  0  0  0  0
   12.0760    9.1946   -3.0370 N   0  0  0  0  0  0  0  0  0  0  0  0
   11.6240   10.1924   -4.8717 H   0  0  0  0  0  0  0  0  0  0  0  0
   11.1576    5.9783   -4.8915 H   0  0  0  0  0  0  0  0  0  0  0  0
   12.4562    8.0062   -1.3700 H   0  0  0  0  0  0  0  0  0  0  0  0
   10.9333    8.1736   -6.4088 C   0  0  0  0  0  0  0  0  0  0  0  0
   10.5944    9.3794   -6.9762 C   0  0  0  0  0  0  0  0  0  0  0  0
   10.2008    9.4518   -8.2964 C   0  0  0  0  0  0  0  0  0  0  0  0
   10.1408    8.3153   -9.0690 C   0  0  0  0  0  0  0  0  0  0  0  0
    9.7975    8.0821  -10.3692 N   0  0  0  0  0  0  0  0  0  0  0  0
    9.9103    6.7720  -10.6341 C   0  0  0  0  0  0  0  0  0  0  0  0
   10.3340    6.1029   -9.5064 C   0  0  0  0  0  0  0  0  0  0  0  0
   10.4720    7.0890   -8.5386 C   0  0  0  0  0  0  0  0  0  0  0  0
   10.8626    7.0536   -7.2104 C   0  0  0  0  0  0  0  0  0  0  0  0
   10.6341   10.2680   -6.3977 H   0  0  0  0  0  0  0  0  0  0  0  0
    9.9326   10.3865   -8.7540 H   0  0  0  0  0  0  0  0  0  0  0  0
    9.4974    8.8109  -11.0408 H   0  0  0  0  0  0  0  0  0  0  0  0
    9.6956    6.3377  -11.5908 H   0  0  0  0  0  0  0  0  0  0  0  0
   10.5301    5.0509   -9.3549 H   0  0  0  0  0  0  0  0  0  0  0  0
   11.1179    6.0535   -6.8282 H   0  0  0  0  0  0  0  0  0  0  0  0
  1  6  2  0
  2  3  2  0
  2  1  1  0
  3  4  1  0
  4  5  2  0
  6  5  1  0
  1  7  1  0
  3  8  1  0
  5  9  1  0
 10 11  2  0
 11 12  1  0
 12 13  2  0
 13 14  1  0
 14 15  1  0
 15 16  2  0
 16 17  1  0
 17 18  2  0
 18 10  1  0
 17 13  1  0
 11 19  1  0
 12 20  1  0
 14 21  1  0
 15 22  1  0
 16 23  1  0
 18 24  1  0
  2 10  1  0
M  END
>  <Score>  (1) 
-8.20608

$$$$

     RDKit          3D

 25 27  0  0  0  0  0  0  0  0999 V2000
   11.6901    9.2588   -4.3221 C   0  0  0  0  0  0  0  0  0  0  0  0
   11.3430    8.0934   -5.0409 C   0  0  0  0  0  0  0  0  0  0  0  0
   11.4168    6.8628   -4.3600 C   0  0  0  0  0  0  0  0  0  0  0  0
   11.8146    6.8696   -3.0612 N   0  0  0  0  0  0  0  0  0  0  0  0
   12.1398    8.0089   -2.4046 C   0  0  0  0  0  0  0  0  0  0  0  0
   12.0756    9.1945   -3.0382 N   0  0  0  0  0  0  0  0  0  0  0  0
   11.6501   10.2288   -4.7996 H   0  0  0  0  0  0  0  0  0  0  0  0
   11.1585    5.9465   -4.8773 H   0  0  0  0  0  0  0  0  0  0  0  0
   12.4467    7.9124   -1.3664 H   0  0  0  0  0  0  0  0  0  0  0  0
   10.9436    8.1854   -6.3803 N   0  0  0  0  0  0  0  0  0  0  0  0
   10.0608    7.3685   -7.1114 C   0  0  0  0  0  0  0  0  0  0  0  0
    9.4960    6.3696   -6.5380 O   0  0  0  0  0  0  0  0  0  0  0  0
    9.8728    7.7471   -8.4748 C   0  0  0  0  0  0  0  0  0  0  0  0
    9.0699    7.1476   -9.4532 C   0  0  0  0  0  0  0  0  0  0  0  0
    9.0114    7.6472  -10.7123 C   0  0  0  0  0  0  0  0  0  0  0  0
    9.7279    8.7545  -11.0901 C   0  0  0  0  0  0  0  0  0  0  0  0
   10.5161    9.3597  -10.1656 C   0  0  0  0  0  0  0  0  0  0  0  0
   10.5734    8.8502   -8.8888 C   0  0  0  0  0  0  0  0  0  0  0  0
   11.4797    9.3879   -7.4804 S   0  0  0  0  0  6  0  0  0  0  0  0
   12.9445    9.3661   -7.7108 O   0  0  0  0  0  0  0  0  0  0  0  0
   10.9714   10.7144   -7.0024 O   0  0  0  0  0  0  0  0  0  0  0  0
    8.4692    6.2649   -9.2366 H   0  0  0  0  0  0  0  0  0  0  0  0
    8.3831    7.1834  -11.4895 H   0  0  0  0  0  0  0  0  0  0  0  0
    9.6897    9.1699  -12.1068 H   0  0  0  0  0  0  0  0  0  0  0  0
   11.1107   10.2429  -10.4012 H   0  0  0  0  0  0  0  0  0  0  0  0
  1  6  2  0
  2  3  2  0
  2  1  1  0
  3  4  1  0
  4  5  2  0
  6  5  1  0
  1  7  1  0
  3  8  1  0
  5  9  1  0
 10 11  1  0
 11 12  2  0
 11 13  1  0
 13 14  2  0
 14 15  1  0
 15 16  2  0
 16 17  1  0
 17 18  2  0
 18 19  1  0
 19 20  2  0
 19 21  2  0
 19 10  1  0
 18 13  1  0
 14 22  1  0
 15 23  1  0
 16 24  1  0
 17 25  1  0
  2 10  1  0
M  END
>  <Score>  (1) 
-8.19879

$$$$

     RDKit          3D

 26 27  0  0  0  0  0  0  0  0999 V2000
   11.6894    9.2563   -4.3236 C   0  0  0  0  0  0  0  0  0  0  0  0
   11.3439    8.0938   -5.0384 C   0  0  0  0  0  0  0  0  0  0  0  0
   11.4163    6.8648   -4.3624 C   0  0  0  0  0  0  0  0  0  0  0  0
   11.8149    6.8692   -3.0600 N   0  0  0  0  0  0  0  0  0  0  0  0
   12.1400    8.0080   -2.4038 C   0  0  0  0  0  0  0  0  0  0  0  0
   12.0756    9.1958   -3.0388 N   0  0  0  0  0  0  0  0  0  0  0  0
   11.6201   10.1756   -4.8797 H   0  0  0  0  0  0  0  0  0  0  0  0
   11.1647    5.9570   -4.8608 H   0  0  0  0  0  0  0  0  0  0  0  0
   12.4518    7.9934   -1.3783 H   0  0  0  0  0  0  0  0  0  0  0  0
   10.9258    8.1644   -6.4300 C   0  0  0  0  0  0  0  0  0  0  0  0
   10.8833    9.3785   -7.0812 C   0  0  0  0  0  0  0  0  0  0  0  0
   10.4800    9.4064   -8.4060 C   0  0  0  0  0  0  0  0  0  0  0  0
   10.1250    8.2510   -9.0729 C   0  0  0  0  0  0  0  0  0  0  0  0
    9.7077    8.3462  -10.4726 C   0  0  0  0  0  0  0  0  0  0  0  0
   10.1640    7.0321   -8.4308 C   0  0  0  0  0  0  0  0  0  0  0  0
    9.7747    5.8285   -9.1894 C   0  0  0  0  0  0  0  0  0  0  0  0
   10.5692    7.0011   -7.0988 C   0  0  0  0  0  0  0  0  0  0  0  0
   11.1549   10.2996   -6.5865 H   0  0  0  0  0  0  0  0  0  0  0  0
   10.4491   10.3533   -8.9069 H   0  0  0  0  0  0  0  0  0  0  0  0
    9.5156    7.3974  -10.9700 H   0  0  0  0  0  0  0  0  0  0  0  0
    8.7376    8.9215  -10.4994 H   0  0  0  0  0  0  0  0  0  0  0  0
   10.4041    8.9407  -11.1075 H   0  0  0  0  0  0  0  0  0  0  0  0
   10.3139    5.7103  -10.1475 H   0  0  0  0  0  0  0  0  0  0  0  0
   10.0985    4.9452   -8.5632 H   0  0  0  0  0  0  0  0  0  0  0  0
    8.6741    5.7171   -9.2851 H   0  0  0  0  0  0  0  0  0  0  0  0
   10.5919    6.0345   -6.6154 H   0  0  0  0  0  0  0  0  0  0  0  0
  1  6  2  0
  2  3  2  0
  2  1  1  0
  3  4  1  0
  4  5  2  0
  6  5  1  0
  1  7  1  0
  3  8  1  0
  5  9  1  0
 10 11  2  0
 11 12  1  0
 12 13  2  0
 13 14  1  0
 13 15  1  0
 15 16  1  0
 15 17  2  0
 17 10  1  0
 11 18  1  0
 12 19  1  0
 14 20  1  0
 14 21  1  0
 14 22  1  0
 16 23  1  0
 16 24  1  0
 16 25  1  0
 17 26  1  0
  2 10  1  0
M  END
>  <Score>  (1) 
-8.19146

$$$$

     RDKit          3D

 26 28  0  0  0  0  0  0  0  0999 V2000
   11.6879    9.2479   -4.3255 C   0  0  0  0  0  0  0  0  0  0  0  0
   11.3423    8.0913   -5.0431 C   0  0  0  0  0  0  0  0  0  0  0  0
   11.4138    6.8710   -4.3723 C   0  0  0  0  0  0  0  0  0  0  0  0
   11.8191    6.8774   -3.0494 N   0  0  0  0  0  0  0  0  0  0  0  0
   12.1389    8.0095   -2.4080 C   0  0  0  0  0  0  0  0  0  0  0  0
   12.0780    9.1909   -3.0288 N   0  0  0  0  0  0  0  0  0  0  0  0
   11.6276   10.1795   -4.8616 H   0  0  0  0  0  0  0  0  0  0  0  0
   11.1610    5.9600   -4.8481 H   0  0  0  0  0  0  0  0  0  0  0  0
   12.4559    8.0148   -1.3735 H   0  0  0  0  0  0  0  0  0  0  0  0
   10.9309    8.2359   -6.3887 N   0  0  0  0  0  0  0  0  0  0  0  0
   11.5546    8.9850   -7.3916 C   0  0  0  0  0  0  0  0  0  0  0  0
   12.6779    9.7243   -7.1561 N   0  0  0  0  0  0  0  0  0  0  0  0
   13.2714   10.4561   -8.1133 C   0  0  0  0  0  0  0  0  0  0  0  0
   12.7876   10.4992   -9.3596 N   0  0  0  0  0  0  0  0  0  0  0  0
   11.6824    9.7991   -9.6780 C   0  0  0  0  0  0  0  0  0  0  0  0
   11.2061    9.8612  -10.9717 C   0  0  0  0  0  0  0  0  0  0  0  0
   10.0825    9.1602  -11.3335 C   0  0  0  0  0  0  0  0  0  0  0  0
    9.4553    8.4000  -10.3649 C   0  0  0  0  0  0  0  0  0  0  0  0
    8.5550    7.8159  -10.5839 H   0  0  0  0  0  0  0  0  0  0  0  0
    9.9417    8.3433   -9.0653 C   0  0  0  0  0  0  0  0  0  0  0  0
   11.0662    9.0372   -8.6780 C   0  0  0  0  0  0  0  0  0  0  0  0
   10.0610    7.7151   -6.6543 H   0  0  0  0  0  0  0  0  0  0  0  0
   14.1686   11.0458   -7.9227 H   0  0  0  0  0  0  0  0  0  0  0  0
   11.7380   10.4688  -11.6756 H   0  0  0  0  0  0  0  0  0  0  0  0
    9.6760    9.1839  -12.3443 H   0  0  0  0  0  0  0  0  0  0  0  0
    9.4296    7.7438   -8.3464 H   0  0  0  0  0  0  0  0  0  0  0  0
  1  6  2  0
  2  3  2  0
  2  1  1  0
  3  4  1  0
  4  5  2  0
  6  5  1  0
  1  7  1  0
  3  8  1  0
  5  9  1  0
 10 11  1  0
 11 12  2  0
 12 13  1  0
 13 14  2  0
 14 15  1  0
 15 16  2  0
 16 17  1  0
 17 18  2  0
 18 19  1  0
 18 20  1  0
 20 21  2  0
 21 11  1  0
 21 15  1  0
 10 22  1  0
 13 23  1  0
 16 24  1  0
 17 25  1  0
 20 26  1  0
  2 10  1  0
M  END
>  <Score>  (1) 
-8.18234

$$$$

     RDKit          3D

 24 26  0  0  0  0  0  0  0  0999 V2000
   11.6891    9.2570   -4.3249 C   0  0  0  0  0  0  0  0  0  0  0  0
   11.3437    8.0905   -5.0379 C   0  0  0  0  0  0  0  0  0  0  0  0
   11.4152    6.8676   -4.3669 C   0  0  0  0  0  0  0  0  0  0  0  0
   11.8166    6.8712   -3.0552 N   0  0  0  0  0  0  0  0  0  0  0  0
   12.1392    8.0071   -2.4059 C   0  0  0  0  0  0  0  0  0  0  0  0
   12.0763    9.1946   -3.0361 N   0  0  0  0  0  0  0  0  0  0  0  0
   11.6255   10.1929   -4.8675 H   0  0  0  0  0  0  0  0  0  0  0  0
   11.1611    5.9570   -4.8725 H   0  0  0  0  0  0  0  0  0  0  0  0
   12.4495    7.9518   -1.3711 H   0  0  0  0  0  0  0  0  0  0  0  0
   10.9368    8.1792   -6.4002 N   0  0  0  0  0  0  0  0  0  0  0  0
   11.3450    9.1684   -7.3596 C   0  0  0  0  0  0  0  0  0  0  0  0
   12.1426   10.0933   -7.0597 O   0  0  0  0  0  0  0  0  0  0  0  0
   10.7072    8.9122   -8.6425 C   0  0  0  0  0  0  0  0  0  0  0  0
   10.7624    9.5541   -9.8687 C   0  0  0  0  0  0  0  0  0  0  0  0
   10.0345    9.0848  -10.9507 C   0  0  0  0  0  0  0  0  0  0  0  0
    9.2645    7.9702  -10.7618 C   0  0  0  0  0  0  0  0  0  0  0  0
    9.1757    7.2927   -9.5556 C   0  0  0  0  0  0  0  0  0  0  0  0
    9.9105    7.7809   -8.4943 C   0  0  0  0  0  0  0  0  0  0  0  0
   10.0437    7.3218   -7.1203 C   0  0  0  0  0  0  0  0  0  0  0  0
    9.4705    6.3128   -6.5927 O   0  0  0  0  0  0  0  0  0  0  0  0
   11.3798   10.4362   -9.9949 H   0  0  0  0  0  0  0  0  0  0  0  0
   10.0609    9.5730  -11.9280 H   0  0  0  0  0  0  0  0  0  0  0  0
    8.6863    7.5791  -11.5817 H   0  0  0  0  0  0  0  0  0  0  0  0
    8.5634    6.4138   -9.4212 H   0  0  0  0  0  0  0  0  0  0  0  0
  1  6  2  0
  2  3  2  0
  2  1  1  0
  3  4  1  0
  4  5  2  0
  6  5  1  0
  1  7  1  0
  3  8  1  0
  5  9  1  0
 10 11  1  0
 11 12  2  0
 11 13  1  0
 13 14  2  0
 14 15  1  0
 15 16  2  0
 16 17  1  0
 17 18  2  0
 18 19  1  0
 19 20  2  0
 19 10  1  0
 18 13  1  0
 14 21  1  0
 15 22  1  0
 16 23  1  0
 17 24  1  0
  2 10  1  0
M  END
>  <Score>  (1) 
-8.17458

$$$$

     RDKit          3D

 26 28  0  0  0  0  0  0  0  0999 V2000
   11.6889    9.2580   -4.3258 C   0  0  0  0  0  0  0  0  0  0  0  0
   11.3435    8.0940   -5.0400 C   0  0  0  0  0  0  0  0  0  0  0  0
   11.4155    6.8628   -4.3643 C   0  0  0  0  0  0  0  0  0  0  0  0
   11.8167    6.8734   -3.0555 N   0  0  0  0  0  0  0  0  0  0  0  0
   12.1391    8.0041   -2.4055 C   0  0  0  0  0  0  0  0  0  0  0  0
   12.0765    9.1958   -3.0359 N   0  0  0  0  0  0  0  0  0  0  0  0
   11.6317   10.2041   -4.8510 H   0  0  0  0  0  0  0  0  0  0  0  0
   11.1568    5.9747   -4.8919 H   0  0  0  0  0  0  0  0  0  0  0  0
   12.4496    7.9692   -1.3801 H   0  0  0  0  0  0  0  0  0  0  0  0
   10.9255    8.1590   -6.4335 C   0  0  0  0  0  0  0  0  0  0  0  0
   10.8993    7.0693   -7.2794 C   0  0  0  0  0  0  0  0  0  0  0  0
   10.4942    7.1665   -8.5931 C   0  0  0  0  0  0  0  0  0  0  0  0
   10.0968    8.3905   -9.0982 C   0  0  0  0  0  0  0  0  0  0  0  0
   10.1167    9.4868   -8.2696 C   0  0  0  0  0  0  0  0  0  0  0  0
   10.5296    9.3778   -6.9379 C   0  0  0  0  0  0  0  0  0  0  0  0
    9.7205   10.7182   -8.7639 O   0  0  0  0  0  0  0  0  0  0  0  0
    9.6367   10.8935  -10.1575 C   0  0  0  0  0  0  0  0  0  0  0  0
    8.9211    9.7072  -10.7375 C   0  0  0  0  0  0  0  0  0  0  0  0
    9.6788    8.5543  -10.4087 O   0  0  0  0  0  0  0  0  0  0  0  0
   11.2059    6.1022   -6.9050 H   0  0  0  0  0  0  0  0  0  0  0  0
   10.4737    6.3287   -9.2451 H   0  0  0  0  0  0  0  0  0  0  0  0
   10.5279   10.2678   -6.3259 H   0  0  0  0  0  0  0  0  0  0  0  0
    9.1097   11.8485  -10.3540 H   0  0  0  0  0  0  0  0  0  0  0  0
   10.6708   10.9203  -10.5563 H   0  0  0  0  0  0  0  0  0  0  0  0
    8.8786    9.8492  -11.8460 H   0  0  0  0  0  0  0  0  0  0  0  0
    7.8750    9.6456  -10.3782 H   0  0  0  0  0  0  0  0  0  0  0  0
  1  6  2  0
  2  3  2  0
  2  1  1  0
  3  4  1  0
  4  5  2  0
  6  5  1  0
  1  7  1  0
  3  8  1  0
  5  9  1  0
 10 11  2  0
 11 12  1  0
 12 13  2  0
 13 14  1  0
 14 15  2  0
 14 16  1  0
 16 17  1  0
 17 18  1  0
 18 19  1  0
 15 10  1  0
 19 13  1  0
 11 20  1  0
 12 21  1  0
 15 22  1  0
 17 23  1  0
 17 24  1  0
 18 25  1  0
 18 26  1  0
  2 10  1  0
M  END
>  <Score>  (1) 
-8.16692

$$$$

     RDKit          3D

 27 29  0  0  0  0  0  0  0  0999 V2000
   12.3024    8.1231   -2.3018 C   0  0  0  0  0  0  0  0  0  0  0  0
   12.0218    6.8836   -2.9121 C   0  0  0  0  0  0  0  0  0  0  0  0
   11.5239    6.8985   -4.2264 C   0  0  0  0  0  0  0  0  0  0  0  0
   11.3424    8.1075   -4.8313 N   0  0  0  0  0  0  0  0  0  0  0  0
   11.6237    9.2770   -4.2119 C   0  0  0  0  0  0  0  0  0  0  0  0
   12.1008    9.2814   -2.9546 N   0  0  0  0  0  0  0  0  0  0  0  0
   12.6857    8.1217   -1.2911 H   0  0  0  0  0  0  0  0  0  0  0  0
   12.1828    5.9586   -2.3910 H   0  0  0  0  0  0  0  0  0  0  0  0
   11.2919    5.9805   -4.7419 H   0  0  0  0  0  0  0  0  0  0  0  0
   11.3907   10.5171   -4.9560 C   0  0  1  0  0  0  0  0  0  0  0  0
   12.2768   11.6625   -4.5010 C   0  0  0  0  0  0  0  0  0  0  0  0
   12.5606   12.3457   -5.8141 C   0  0  2  0  0  0  0  0  0  0  0  0
   11.2624   12.7014   -6.4915 C   0  0  0  0  0  0  0  0  0  0  0  0
   10.7302   11.4139   -7.1130 C   0  0  0  0  0  0  0  0  0  0  0  0
   11.6144   10.3927   -6.4383 C   0  0  1  0  0  0  0  0  0  0  0  0
   12.9673   11.1031   -6.6291 C   0  0  0  0  0  0  0  0  0  0  0  0
   10.3346   10.8709   -4.7668 H   0  0  0  0  0  0  0  0  0  0  0  0
   11.8005   12.3065   -3.7549 H   0  0  0  0  0  0  0  0  0  0  0  0
   13.2273   11.2098   -4.1559 H   0  0  0  0  0  0  0  0  0  0  0  0
   13.3089   13.1088   -5.7967 H   0  0  0  0  0  0  0  0  0  0  0  0
   10.5000   13.0202   -5.7494 H   0  0  0  0  0  0  0  0  0  0  0  0
   11.4261   13.4827   -7.2741 H   0  0  0  0  0  0  0  0  0  0  0  0
   10.9832   11.4225   -8.1773 H   0  0  0  0  0  0  0  0  0  0  0  0
    9.6609   11.2611   -6.8977 H   0  0  0  0  0  0  0  0  0  0  0  0
   11.5860    9.4066   -6.8439 H   0  0  0  0  0  0  0  0  0  0  0  0
   13.1198   11.3473   -7.6844 H   0  0  0  0  0  0  0  0  0  0  0  0
   13.7831   10.5617   -6.1452 H   0  0  0  0  0  0  0  0  0  0  0  0
  2  1  2  0
  3  2  1  0
  4  3  2  0
  4  5  1  0
  5  6  2  0
  6  1  1  0
  1  7  1  0
  2  8  1  0
  3  9  1  0
 10 11  1  0
 11 12  1  0
 12 13  1  0
 13 14  1  0
 14 15  1  0
 15 16  1  0
 15 10  1  0
 16 12  1  0
 10 17  1  6
 11 18  1  0
 11 19  1  0
 12 20  1  1
 13 21  1  0
 13 22  1  0
 14 23  1  0
 14 24  1  0
 15 25  1  6
 16 26  1  0
 16 27  1  0
  5 10  1  0
M  END
>  <Score>  (1) 
-7.54379

$$$$

     RDKit          3D

 26 28  0  0  0  0  0  0  0  0999 V2000
   11.6884    9.2521   -4.3254 C   0  0  0  0  0  0  0  0  0  0  0  0
   11.3436    8.0909   -5.0383 C   0  0  0  0  0  0  0  0  0  0  0  0
   11.4157    6.8721   -4.3668 C   0  0  0  0  0  0  0  0  0  0  0  0
   11.8162    6.8696   -3.0560 N   0  0  0  0  0  0  0  0  0  0  0  0
   12.1398    8.0073   -2.4039 C   0  0  0  0  0  0  0  0  0  0  0  0
   12.0763    9.1960   -3.0365 N   0  0  0  0  0  0  0  0  0  0  0  0
   11.6191   10.1714   -4.8805 H   0  0  0  0  0  0  0  0  0  0  0  0
   11.1700    5.9419   -4.8381 H   0  0  0  0  0  0  0  0  0  0  0  0
   12.4434    7.8961   -1.3712 H   0  0  0  0  0  0  0  0  0  0  0  0
   10.9268    8.1735   -6.4310 C   0  0  0  0  0  0  0  0  0  0  0  0
   10.9014    7.0541   -7.1571 N   0  0  0  0  0  0  0  0  0  0  0  0
   10.5291    7.0283   -8.4580 C   0  0  0  0  0  0  0  0  0  0  0  0
   10.1593    8.1783   -9.0797 C   0  0  0  0  0  0  0  0  0  0  0  0
   10.1820    9.3490   -8.3337 C   0  0  0  0  0  0  0  0  0  0  0  0
    9.8540   10.4481   -8.8400 O   0  0  0  0  0  0  0  0  0  0  0  0
   10.5661    9.3069   -7.0307 N   0  0  0  0  0  0  0  0  0  0  0  0
    9.8000    7.8788  -10.4867 C   0  0  0  0  0  0  0  0  0  0  0  0
   10.4601    6.5615  -10.7396 C   0  0  0  0  0  0  0  0  0  0  0  0
   10.4522    5.8658   -9.3921 C   0  0  0  0  0  0  0  0  0  0  0  0
   10.5681   10.2061   -6.5109 H   0  0  0  0  0  0  0  0  0  0  0  0
   10.2119    8.7025  -11.1051 H   0  0  0  0  0  0  0  0  0  0  0  0
    8.6916    7.8061  -10.5879 H   0  0  0  0  0  0  0  0  0  0  0  0
    9.8935    5.9546  -11.4981 H   0  0  0  0  0  0  0  0  0  0  0  0
   11.5101    6.7141  -11.0640 H   0  0  0  0  0  0  0  0  0  0  0  0
    9.5378    5.2859   -9.2105 H   0  0  0  0  0  0  0  0  0  0  0  0
   11.3393    5.2139   -9.2477 H   0  0  0  0  0  0  0  0  0  0  0  0
  1  6  2  0
  2  3  2  0
  2  1  1  0
  3  4  1  0
  4  5  2  0
  6  5  1  0
  1  7  1  0
  3  8  1  0
  5  9  1  0
 10 11  2  0
 11 12  1  0
 12 13  2  0
 13 14  1  0
 14 15  2  0
 14 16  1  0
 13 17  1  0
 17 18  1  0
 18 19  1  0
 16 10  1  0
 19 12  1  0
 16 20  1  0
 17 21  1  0
 17 22  1  0
 18 23  1  0
 18 24  1  0
 19 25  1  0
 19 26  1  0
  2 10  1  0
M  END
>  <Score>  (1) 
-8.1313

$$$$

     RDKit          3D

 31 32  0  0  0  0  0  0  0  0999 V2000
   11.6889    9.2569   -4.3253 C   0  0  0  0  0  0  0  0  0  0  0  0
   11.3438    8.0933   -5.0385 C   0  0  0  0  0  0  0  0  0  0  0  0
   11.4161    6.8648   -4.3630 C   0  0  0  0  0  0  0  0  0  0  0  0
   11.8152    6.8696   -3.0593 N   0  0  0  0  0  0  0  0  0  0  0  0
   12.1398    8.0092   -2.4048 C   0  0  0  0  0  0  0  0  0  0  0  0
   12.0763    9.1942   -3.0361 N   0  0  0  0  0  0  0  0  0  0  0  0
   11.6415   10.2148   -4.8227 H   0  0  0  0  0  0  0  0  0  0  0  0
   11.1570    5.9822   -4.8951 H   0  0  0  0  0  0  0  0  0  0  0  0
   12.4544    7.9877   -1.3681 H   0  0  0  0  0  0  0  0  0  0  0  0
   10.9183    8.1581   -6.4532 C   0  0  2  0  0  0  0  0  0  0  0  0
   11.2845    6.9889   -7.0773 O   0  0  0  0  0  0  0  0  0  0  0  0
   10.7281    6.8748   -8.3377 C   0  0  1  0  0  0  0  0  0  0  0  0
    9.3056    6.3733   -8.1676 C   0  0  0  0  0  0  0  0  0  0  0  0
    9.3259    5.1420   -7.5340 O   0  0  0  0  0  0  0  0  0  0  0  0
   10.7999    8.1515   -9.1112 C   0  0  1  0  0  0  0  0  0  0  0  0
    9.6405    8.8932   -9.0270 O   0  0  0  0  0  0  0  0  0  0  0  0
   11.9531    8.9963   -8.5671 C   0  0  2  0  0  0  0  0  0  0  0  0
   13.1727    8.3610   -8.7472 O   0  0  0  0  0  0  0  0  0  0  0  0
   11.6480    9.3022   -7.1407 C   0  0  1  0  0  0  0  0  0  0  0  0
   10.7941   10.4203   -7.1215 O   0  0  0  0  0  0  0  0  0  0  0  0
    9.8405    8.3322   -6.4784 H   0  0  0  0  0  0  0  0  0  0  0  0
   11.3048    6.1088   -8.8974 H   0  0  0  0  0  0  0  0  0  0  0  0
    8.6915    7.0538   -7.5767 H   0  0  0  0  0  0  0  0  0  0  0  0
    8.8773    6.2906   -9.1853 H   0  0  0  0  0  0  0  0  0  0  0  0
   10.0434    4.5600   -7.8578 H   0  0  0  0  0  0  0  0  0  0  0  0
   11.0212    7.9869  -10.1838 H   0  0  0  0  0  0  0  0  0  0  0  0
    9.7759    9.7912   -9.3959 H   0  0  0  0  0  0  0  0  0  0  0  0
   11.9969    9.9570   -9.1249 H   0  0  0  0  0  0  0  0  0  0  0  0
   13.6419    8.1619   -7.8969 H   0  0  0  0  0  0  0  0  0  0  0  0
   12.5431    9.5602   -6.5575 H   0  0  0  0  0  0  0  0  0  0  0  0
   11.0469   11.0721   -6.4397 H   0  0  0  0  0  0  0  0  0  0  0  0
  1  6  2  0
  2  3  2  0
  2  1  1  0
  3  4  1  0
  4  5  2  0
  6  5  1  0
  1  7  1  0
  3  8  1  0
  5  9  1  0
 10 11  1  0
 11 12  1  0
 12 13  1  0
 13 14  1  0
 12 15  1  0
 15 16  1  0
 15 17  1  0
 17 18  1  0
 17 19  1  0
 19 20  1  0
 19 10  1  0
 10 21  1  1
 12 22  1  6
 13 23  1  0
 13 24  1  0
 14 25  1  0
 15 26  1  6
 16 27  1  0
 17 28  1  6
 18 29  1  0
 19 30  1  1
 20 31  1  0
  2 10  1  0
M  END
>  <Score>  (1) 
-8.12397

$$$$

     RDKit          3D

 33 35  0  0  0  0  0  0  0  0999 V2000
   11.6872    9.2480   -4.3278 C   0  0  0  0  0  0  0  0  0  0  0  0
   11.3433    8.0962   -5.0411 C   0  0  0  0  0  0  0  0  0  0  0  0
   11.4187    6.8707   -4.3565 C   0  0  0  0  0  0  0  0  0  0  0  0
   11.8139    6.8682   -3.0629 N   0  0  0  0  0  0  0  0  0  0  0  0
   12.1391    8.0119   -2.4079 C   0  0  0  0  0  0  0  0  0  0  0  0
   12.0777    9.1930   -3.0308 N   0  0  0  0  0  0  0  0  0  0  0  0
   11.6526   10.2159   -4.7868 H   0  0  0  0  0  0  0  0  0  0  0  0
   11.1751    5.9295   -4.8170 H   0  0  0  0  0  0  0  0  0  0  0  0
   12.4446    7.9200   -1.3758 H   0  0  0  0  0  0  0  0  0  0  0  0
   11.1276    7.5271  -12.9711 H   0  0  0  0  0  0  0  0  0  0  0  0
   10.7715    8.0271  -12.0825 C   0  0  0  0  0  0  0  0  0  0  0  0
   10.6056    9.2651  -12.1314 O   0  0  0  0  0  0  0  0  0  0  0  0
   10.4931    7.3348  -10.8896 N   0  0  0  0  0  0  0  0  0  0  0  0
   10.0157    7.9092   -9.6548 C   0  0  0  0  0  0  0  0  0  0  0  0
   10.7195    7.0530   -8.6540 C   0  0  0  0  0  0  0  0  0  0  0  0
   11.1397    7.0322   -7.3183 C   0  0  0  0  0  0  0  0  0  0  0  0
   10.9343    8.0921   -6.3776 N   0  0  0  0  0  0  0  0  0  0  0  0
   11.7369    5.8441   -7.1790 N   0  0  0  0  0  0  0  0  0  0  0  0
   11.7194    5.1461   -8.2954 N   0  0  0  0  0  0  0  0  0  0  0  0
   11.0906    5.8732   -9.2367 C   0  0  0  0  0  0  0  0  0  0  0  0
   10.6265    5.9239  -10.6592 C   0  0  0  0  0  0  0  0  0  0  0  0
    9.2954    5.2236  -10.7270 C   0  0  0  0  0  0  0  0  0  0  0  0
   11.6597    5.2764  -11.5419 C   0  0  0  0  0  0  0  0  0  0  0  0
    8.9155    7.7820   -9.5799 H   0  0  0  0  0  0  0  0  0  0  0  0
   10.2344    8.9698   -9.5494 H   0  0  0  0  0  0  0  0  0  0  0  0
   10.4228    8.9635   -6.7189 H   0  0  0  0  0  0  0  0  0  0  0  0
   12.1084    4.1918   -8.4784 H   0  0  0  0  0  0  0  0  0  0  0  0
    8.6690    5.5745  -11.5696 H   0  0  0  0  0  0  0  0  0  0  0  0
    9.5012    4.1283  -10.8283 H   0  0  0  0  0  0  0  0  0  0  0  0
    8.7956    5.3506   -9.7442 H   0  0  0  0  0  0  0  0  0  0  0  0
   11.1422    4.9204  -12.4580 H   0  0  0  0  0  0  0  0  0  0  0  0
   12.4917    5.9598  -11.7316 H   0  0  0  0  0  0  0  0  0  0  0  0
   11.9988    4.3444  -11.0056 H   0  0  0  0  0  0  0  0  0  0  0  0
  1  6  2  0
  2  3  2  0
  2  1  1  0
  3  4  1  0
  4  5  2  0
  6  5  1  0
  1  7  1  0
  3  8  1  0
  5  9  1  0
 10 11  1  0
 11 12  2  0
 11 13  1  0
 13 14  1  0
 14 15  1  0
 15 16  1  0
 16 17  1  0
 16 18  2  0
 18 19  1  0
 19 20  1  0
 20 21  1  0
 21 22  1  0
 21 23  1  0
 21 13  1  0
 20 15  2  0
 14 24  1  0
 14 25  1  0
 17 26  1  0
 19 27  1  0
 22 28  1  0
 22 29  1  0
 22 30  1  0
 23 31  1  0
 23 32  1  0
 23 33  1  0
  2 17  1  0
M  END
>  <Score>  (1) 
-8.0837

$$$$

     RDKit          3D

 23 25  0  0  0  0  0  0  0  0999 V2000
   11.6903    9.2592   -4.3216 C   0  0  0  0  0  0  0  0  0  0  0  0
   11.3433    8.0896   -5.0388 C   0  0  0  0  0  0  0  0  0  0  0  0
   11.4155    6.8661   -4.3653 C   0  0  0  0  0  0  0  0  0  0  0  0
   11.8160    6.8710   -3.0570 N   0  0  0  0  0  0  0  0  0  0  0  0
   12.1394    8.0060   -2.4048 C   0  0  0  0  0  0  0  0  0  0  0  0
   12.0754    9.1960   -3.0395 N   0  0  0  0  0  0  0  0  0  0  0  0
   11.6499   10.2131   -4.7948 H   0  0  0  0  0  0  0  0  0  0  0  0
   11.1653    5.9589   -4.8595 H   0  0  0  0  0  0  0  0  0  0  0  0
   12.4426    7.8953   -1.3737 H   0  0  0  0  0  0  0  0  0  0  0  0
   10.9277    8.1779   -6.4296 C   0  0  0  0  0  0  0  0  0  0  0  0
    9.8802    7.5456   -6.9951 N   0  0  0  0  0  0  0  0  0  0  0  0
    9.7900    7.8511   -8.2814 N   0  0  0  0  0  0  0  0  0  0  0  0
   10.7709    8.6983   -8.6286 C   0  0  0  0  0  0  0  0  0  0  0  0
   11.0959    9.2950   -9.8303 C   0  0  0  0  0  0  0  0  0  0  0  0
   12.1915   10.1330   -9.8459 C   0  0  0  0  0  0  0  0  0  0  0  0
   12.9311   10.3592   -8.6900 C   0  0  0  0  0  0  0  0  0  0  0  0
   13.7903   11.0160   -8.7008 H   0  0  0  0  0  0  0  0  0  0  0  0
   12.5842    9.7490   -7.4992 C   0  0  0  0  0  0  0  0  0  0  0  0
   11.4972    8.9125   -7.4659 C   0  0  0  0  0  0  0  0  0  0  0  0
    9.0738    7.5103   -8.9827 H   0  0  0  0  0  0  0  0  0  0  0  0
   10.5418    9.1398  -10.7458 H   0  0  0  0  0  0  0  0  0  0  0  0
   12.5253   10.6453  -10.7343 H   0  0  0  0  0  0  0  0  0  0  0  0
   13.1485    9.9187   -6.6066 H   0  0  0  0  0  0  0  0  0  0  0  0
  1  6  2  0
  2  3  2  0
  2  1  1  0
  3  4  1  0
  4  5  2  0
  6  5  1  0
  1  7  1  0
  3  8  1  0
  5  9  1  0
 10 11  2  0
 11 12  1  0
 12 13  1  0
 13 14  2  0
 14 15  1  0
 15 16  2  0
 16 17  1  0
 16 18  1  0
 18 19  2  0
 19 10  1  0
 19 13  1  0
 12 20  1  0
 14 21  1  0
 15 22  1  0
 18 23  1  0
  2 10  1  0
M  END
>  <Score>  (1) 
-8.04516

$$$$

     RDKit          3D

 23 25  0  0  0  0  0  0  0  0999 V2000
   11.6886    9.2566   -4.3263 C   0  0  0  0  0  0  0  0  0  0  0  0
   11.3439    8.0843   -5.0348 C   0  0  0  0  0  0  0  0  0  0  0  0
   11.4146    6.8741   -4.3713 C   0  0  0  0  0  0  0  0  0  0  0  0
   11.8168    6.8720   -3.0548 N   0  0  0  0  0  0  0  0  0  0  0  0
   12.1395    8.0075   -2.4051 C   0  0  0  0  0  0  0  0  0  0  0  0
   12.0766    9.1936   -3.0347 N   0  0  0  0  0  0  0  0  0  0  0  0
   11.6265   10.1868   -4.8619 H   0  0  0  0  0  0  0  0  0  0  0  0
   11.1638    5.9754   -4.8705 H   0  0  0  0  0  0  0  0  0  0  0  0
   12.4522    7.9905   -1.3761 H   0  0  0  0  0  0  0  0  0  0  0  0
   10.9264    8.2073   -6.4445 C   0  0  0  0  0  0  0  0  0  0  0  0
    9.6135    8.3892   -6.8086 C   0  0  0  0  0  0  0  0  0  0  0  0
    9.2209    8.5052   -8.1396 C   0  0  0  0  0  0  0  0  0  0  0  0
   10.1718    8.4365   -9.1271 C   0  0  0  0  0  0  0  0  0  0  0  0
    9.8365    8.5454  -10.4601 C   0  0  0  0  0  0  0  0  0  0  0  0
    8.7879    8.6913  -10.7639 H   0  0  0  0  0  0  0  0  0  0  0  0
   10.8182    8.4687  -11.3673 N   0  0  0  0  0  0  0  0  0  0  0  0
   12.0985    8.2916  -11.0184 C   0  0  0  0  0  0  0  0  0  0  0  0
   12.8915    8.2313  -11.7840 H   0  0  0  0  0  0  0  0  0  0  0  0
   12.4028    8.1883   -9.7193 N   0  0  0  0  0  0  0  0  0  0  0  0
   11.4815    8.2540   -8.7442 C   0  0  0  0  0  0  0  0  0  0  0  0
   11.8353    8.1439   -7.4336 N   0  0  0  0  0  0  0  0  0  0  0  0
    8.8479    8.4473   -6.0660 H   0  0  0  0  0  0  0  0  0  0  0  0
    8.1994    8.6476   -8.4410 H   0  0  0  0  0  0  0  0  0  0  0  0
  1  6  2  0
  2  3  2  0
  2  1  1  0
  3  4  1  0
  4  5  2  0
  6  5  1  0
  1  7  1  0
  3  8  1  0
  5  9  1  0
 10 11  2  0
 11 12  1  0
 12 13  2  0
 13 14  1  0
 14 15  1  0
 14 16  2  0
 16 17  1  0
 17 18  1  0
 17 19  2  0
 19 20  1  0
 20 21  2  0
 21 10  1  0
 20 13  1  0
 11 22  1  0
 12 23  1  0
  2 10  1  0
M  END
>  <Score>  (1) 
-8.00346

$$$$

     RDKit          3D

 31 32  0  0  0  0  0  0  0  0999 V2000
   11.6888    9.2566   -4.3258 C   0  0  0  0  0  0  0  0  0  0  0  0
   11.3439    8.0951   -5.0389 C   0  0  0  0  0  0  0  0  0  0  0  0
   11.4165    6.8632   -4.3611 C   0  0  0  0  0  0  0  0  0  0  0  0
   11.8146    6.8689   -3.0609 N   0  0  0  0  0  0  0  0  0  0  0  0
   12.1399    8.0105   -2.4048 C   0  0  0  0  0  0  0  0  0  0  0  0
   12.0763    9.1936   -3.0356 N   0  0  0  0  0  0  0  0  0  0  0  0
   11.6495   10.2292   -4.8019 H   0  0  0  0  0  0  0  0  0  0  0  0
   11.1591    5.9419   -4.8738 H   0  0  0  0  0  0  0  0  0  0  0  0
   12.4531    8.0148   -1.3820 H   0  0  0  0  0  0  0  0  0  0  0  0
   10.9235    8.1638   -6.4384 C   0  0  1  0  0  0  0  0  0  0  0  0
    9.7985    8.9414   -6.5637 O   0  0  0  0  0  0  0  0  0  0  0  0
    9.2771    9.0478   -7.8187 C   0  0  1  0  0  0  0  0  0  0  0  0
    8.3610   10.2595   -7.8308 C   0  0  0  0  0  0  0  0  0  0  0  0
    7.7825   10.4461   -9.0765 O   0  0  0  0  0  0  0  0  0  0  0  0
   10.2570    9.2137   -8.9290 C   0  0  2  0  0  0  0  0  0  0  0  0
    9.6402    8.9724  -10.1378 O   0  0  0  0  0  0  0  0  0  0  0  0
   11.5041    8.3514   -8.7497 C   0  0  2  0  0  0  0  0  0  0  0  0
   11.1028    7.0278   -8.7207 O   0  0  0  0  0  0  0  0  0  0  0  0
   12.0052    8.7140   -7.3583 C   0  0  1  0  0  0  0  0  0  0  0  0
   12.0687   10.1015   -7.3156 O   0  0  0  0  0  0  0  0  0  0  0  0
   10.7355    7.1171   -6.7920 H   0  0  0  0  0  0  0  0  0  0  0  0
    8.6140    8.1632   -8.0297 H   0  0  0  0  0  0  0  0  0  0  0  0
    7.5703   10.1657   -7.0300 H   0  0  0  0  0  0  0  0  0  0  0  0
    8.9273   11.1851   -7.5855 H   0  0  0  0  0  0  0  0  0  0  0  0
    6.9384    9.9057   -9.1024 H   0  0  0  0  0  0  0  0  0  0  0  0
   10.6110   10.2658   -8.9315 H   0  0  0  0  0  0  0  0  0  0  0  0
    9.4315    9.8064  -10.6052 H   0  0  0  0  0  0  0  0  0  0  0  0
   12.2216    8.5945   -9.5351 H   0  0  0  0  0  0  0  0  0  0  0  0
   10.9196    6.6598   -9.6157 H   0  0  0  0  0  0  0  0  0  0  0  0
   12.9794    8.2371   -7.1367 H   0  0  0  0  0  0  0  0  0  0  0  0
   11.2544   10.5357   -7.0146 H   0  0  0  0  0  0  0  0  0  0  0  0
  1  6  2  0
  2  3  2  0
  2  1  1  0
  3  4  1  0
  4  5  2  0
  6  5  1  0
  1  7  1  0
  3  8  1  0
  5  9  1  0
 10 11  1  0
 11 12  1  0
 12 13  1  0
 13 14  1  0
 12 15  1  0
 15 16  1  0
 15 17  1  0
 17 18  1  0
 17 19  1  0
 19 20  1  0
 19 10  1  0
 10 21  1  6
 12 22  1  6
 13 23  1  0
 13 24  1  0
 14 25  1  0
 15 26  1  6
 16 27  1  0
 17 28  1  6
 18 29  1  0
 19 30  1  1
 20 31  1  0
  2 10  1  0
M  END
>  <Score>  (1) 
-7.99744

$$$$

     RDKit          3D

 29 31  0  0  0  0  0  0  0  0999 V2000
   11.6898    9.2586   -4.3234 C   0  0  0  0  0  0  0  0  0  0  0  0
   11.3445    8.0867   -5.0338 C   0  0  0  0  0  0  0  0  0  0  0  0
   11.4156    6.8695   -4.3664 C   0  0  0  0  0  0  0  0  0  0  0  0
   11.8145    6.8668   -3.0607 N   0  0  0  0  0  0  0  0  0  0  0  0
   12.1400    8.0103   -2.4043 C   0  0  0  0  0  0  0  0  0  0  0  0
   12.0757    9.1960   -3.0385 N   0  0  0  0  0  0  0  0  0  0  0  0
   11.6392   10.2087   -4.8334 H   0  0  0  0  0  0  0  0  0  0  0  0
   11.1556    5.9709   -4.8984 H   0  0  0  0  0  0  0  0  0  0  0  0
   12.4576    8.0012   -1.3637 H   0  0  0  0  0  0  0  0  0  0  0  0
   10.9334    8.1544   -6.4046 N   0  0  0  0  0  0  0  0  0  0  0  0
    9.6533    7.8408   -6.9302 C   0  0  0  0  0  0  0  0  0  0  0  0
    9.7841    8.0403   -8.3937 C   0  0  0  0  0  0  0  0  0  0  0  0
    8.8564    7.8653   -9.4302 C   0  0  0  0  0  0  0  0  0  0  0  0
    9.2284    8.1314  -10.7187 C   0  0  0  0  0  0  0  0  0  0  0  0
   10.5230    8.5751  -11.0032 C   0  0  0  0  0  0  0  0  0  0  0  0
   10.8358    8.8284  -12.3407 O   0  0  0  0  0  0  0  0  0  0  0  0
   12.1265    9.2802  -12.6847 C   0  0  0  0  0  0  0  0  0  0  0  0
   11.4288    8.7459   -9.9916 C   0  0  0  0  0  0  0  0  0  0  0  0
   11.0528    8.4748   -8.6734 C   0  0  0  0  0  0  0  0  0  0  0  0
   11.8326    8.5649   -7.4212 C   0  0  0  0  0  0  0  0  0  0  0  0
   13.0230    8.9335   -7.3623 O   0  0  0  0  0  0  0  0  0  0  0  0
    9.4459    6.7636   -6.7675 H   0  0  0  0  0  0  0  0  0  0  0  0
    8.8341    8.4872   -6.5552 H   0  0  0  0  0  0  0  0  0  0  0  0
    7.8709    7.5200   -9.1512 H   0  0  0  0  0  0  0  0  0  0  0  0
    8.5183    7.9967  -11.5207 H   0  0  0  0  0  0  0  0  0  0  0  0
   12.4236   10.0572  -11.9824 H   0  0  0  0  0  0  0  0  0  0  0  0
   12.8407    8.4298  -12.6498 H   0  0  0  0  0  0  0  0  0  0  0  0
   12.0756    9.7380  -13.6988 H   0  0  0  0  0  0  0  0  0  0  0  0
   12.4215    9.0862  -10.2090 H   0  0  0  0  0  0  0  0  0  0  0  0
  1  6  2  0
  2  3  2  0
  2  1  1  0
  3  4  1  0
  4  5  2  0
  6  5  1  0
  1  7  1  0
  3  8  1  0
  5  9  1  0
 10 11  1  0
 11 12  1  0
 12 13  2  0
 13 14  1  0
 14 15  2  0
 15 16  1  0
 16 17  1  0
 15 18  1  0
 18 19  2  0
 19 20  1  0
 20 21  2  0
 20 10  1  0
 19 12  1  0
 11 22  1  0
 11 23  1  0
 13 24  1  0
 14 25  1  0
 17 26  1  0
 17 27  1  0
 17 28  1  0
 18 29  1  0
  2 10  1  0
M  END
>  <Score>  (1) 
-7.99711

$$$$

     RDKit          3D

 31 32  0  0  0  0  0  0  0  0999 V2000
   11.6896    9.2582   -4.3237 C   0  0  0  0  0  0  0  0  0  0  0  0
   11.3435    8.0922   -5.0389 C   0  0  0  0  0  0  0  0  0  0  0  0
   11.4159    6.8647   -4.3635 C   0  0  0  0  0  0  0  0  0  0  0  0
   11.8154    6.8699   -3.0588 N   0  0  0  0  0  0  0  0  0  0  0  0
   12.1397    8.0086   -2.4048 C   0  0  0  0  0  0  0  0  0  0  0  0
   12.0759    9.1945   -3.0373 N   0  0  0  0  0  0  0  0  0  0  0  0
   11.6181   10.1789   -4.8866 H   0  0  0  0  0  0  0  0  0  0  0  0
   11.1610    5.9671   -4.8764 H   0  0  0  0  0  0  0  0  0  0  0  0
   12.4543    8.0018   -1.3734 H   0  0  0  0  0  0  0  0  0  0  0  0
   10.9218    8.1814   -6.4501 C   0  0  2  0  0  0  0  0  0  0  0  0
   10.9443    6.9299   -7.0883 O   0  0  0  0  0  0  0  0  0  0  0  0
   10.0985    7.0618   -8.2055 C   0  0  2  0  0  0  0  0  0  0  0  0
    9.7293    5.6998   -8.7286 C   0  0  0  0  0  0  0  0  0  0  0  0
    9.0742    5.0240   -7.7011 O   0  0  0  0  0  0  0  0  0  0  0  0
   10.7539    7.9404   -9.2204 C   0  0  1  0  0  0  0  0  0  0  0  0
    9.8385    8.8954   -9.6971 O   0  0  0  0  0  0  0  0  0  0  0  0
   11.9464    8.6896   -8.6762 C   0  0  2  0  0  0  0  0  0  0  0  0
   13.0827    7.8963   -8.7486 O   0  0  0  0  0  0  0  0  0  0  0  0
   11.7352    9.1596   -7.2543 C   0  0  1  0  0  0  0  0  0  0  0  0
   11.0836   10.4027   -7.2672 O   0  0  0  0  0  0  0  0  0  0  0  0
    9.8710    8.5283   -6.4765 H   0  0  0  0  0  0  0  0  0  0  0  0
    9.1566    7.5278   -7.8274 H   0  0  0  0  0  0  0  0  0  0  0  0
    9.0231    5.8126   -9.5636 H   0  0  0  0  0  0  0  0  0  0  0  0
   10.6402    5.1529   -9.0074 H   0  0  0  0  0  0  0  0  0  0  0  0
    9.7024    4.4862   -7.1834 H   0  0  0  0  0  0  0  0  0  0  0  0
   11.1084    7.3224  -10.0655 H   0  0  0  0  0  0  0  0  0  0  0  0
   10.1799    9.2425  -10.5437 H   0  0  0  0  0  0  0  0  0  0  0  0
   12.1061    9.5685   -9.3211 H   0  0  0  0  0  0  0  0  0  0  0  0
   13.0966    7.4515   -9.6124 H   0  0  0  0  0  0  0  0  0  0  0  0
   12.7308    9.3337   -6.8104 H   0  0  0  0  0  0  0  0  0  0  0  0
   11.7108   11.0614   -7.6583 H   0  0  0  0  0  0  0  0  0  0  0  0
  1  6  2  0
  2  3  2  0
  2  1  1  0
  3  4  1  0
  4  5  2  0
  6  5  1  0
  1  7  1  0
  3  8  1  0
  5  9  1  0
 10 11  1  0
 11 12  1  0
 12 13  1  0
 13 14  1  0
 12 15  1  0
 15 16  1  0
 15 17  1  0
 17 18  1  0
 17 19  1  0
 19 20  1  0
 19 10  1  0
 10 21  1  1
 12 22  1  1
 13 23  1  0
 13 24  1  0
 14 25  1  0
 15 26  1  6
 16 27  1  0
 17 28  1  6
 18 29  1  0
 19 30  1  1
 20 31  1  0
  2 10  1  0
M  END
>  <Score>  (1) 
-7.99129

$$$$

     RDKit          3D

 20 21  0  0  0  0  0  0  0  0999 V2000
   11.6893    9.2581   -4.3245 C   0  0  0  0  0  0  0  0  0  0  0  0
   11.3437    8.0922   -5.0382 C   0  0  0  0  0  0  0  0  0  0  0  0
   11.4163    6.8643   -4.3620 C   0  0  0  0  0  0  0  0  0  0  0  0
   11.8145    6.8694   -3.0613 N   0  0  0  0  0  0  0  0  0  0  0  0
   12.1399    8.0098   -2.4045 C   0  0  0  0  0  0  0  0  0  0  0  0
   12.0761    9.1942   -3.0365 N   0  0  0  0  0  0  0  0  0  0  0  0
   11.6318   10.2110   -4.8530 H   0  0  0  0  0  0  0  0  0  0  0  0
   11.1727    5.9364   -4.8274 H   0  0  0  0  0  0  0  0  0  0  0  0
   12.4553    7.9730   -1.3599 H   0  0  0  0  0  0  0  0  0  0  0  0
   10.9265    8.1277   -6.4155 C   0  0  0  0  0  0  0  0  0  0  0  0
    9.8592    7.4406   -6.9324 C   0  0  0  0  0  0  0  0  0  0  0  0
    9.4670    7.4788   -8.2455 C   0  0  0  0  0  0  0  0  0  0  0  0
    8.4003    6.7807   -8.7175 F   0  0  0  0  0  0  0  0  0  0  0  0
   10.2016    8.2663   -9.1060 C   0  0  0  0  0  0  0  0  0  0  0  0
    9.8457    8.3303  -10.4112 F   0  0  0  0  0  0  0  0  0  0  0  0
   11.2885    8.9846   -8.6516 C   0  0  0  0  0  0  0  0  0  0  0  0
   11.6478    8.9147   -7.3137 C   0  0  0  0  0  0  0  0  0  0  0  0
   12.7119    9.6307   -6.9190 F   0  0  0  0  0  0  0  0  0  0  0  0
    9.2890    6.8251   -6.2475 H   0  0  0  0  0  0  0  0  0  0  0  0
   11.8461    9.5912   -9.3393 H   0  0  0  0  0  0  0  0  0  0  0  0
  1  6  2  0
  2  3  2  0
  2  1  1  0
  3  4  1  0
  4  5  2  0
  6  5  1  0
  1  7  1  0
  3  8  1  0
  5  9  1  0
 10 11  2  0
 11 12  1  0
 12 13  1  0
 12 14  2  0
 14 15  1  0
 14 16  1  0
 16 17  2  0
 17 18  1  0
 17 10  1  0
 11 19  1  0
 16 20  1  0
  2 10  1  0
M  END
>  <Score>  (1) 
-7.96985

$$$$

     RDKit          3D

 23 25  0  0  0  0  0  0  0  0999 V2000
   11.6894    9.2597   -4.3247 C   0  0  0  0  0  0  0  0  0  0  0  0
   11.3435    8.0869   -5.0373 C   0  0  0  0  0  0  0  0  0  0  0  0
   11.4158    6.8689   -4.3652 C   0  0  0  0  0  0  0  0  0  0  0  0
   11.8153    6.8695   -3.0588 N   0  0  0  0  0  0  0  0  0  0  0  0
   12.1395    8.0083   -2.4054 C   0  0  0  0  0  0  0  0  0  0  0  0
   12.0764    9.1947   -3.0357 N   0  0  0  0  0  0  0  0  0  0  0  0
   11.6238   10.1994   -4.8752 H   0  0  0  0  0  0  0  0  0  0  0  0
   11.1558    5.9900   -4.9017 H   0  0  0  0  0  0  0  0  0  0  0  0
   12.4569    8.0076   -1.3667 H   0  0  0  0  0  0  0  0  0  0  0  0
   10.9262    8.1679   -6.4309 C   0  0  0  0  0  0  0  0  0  0  0  0
   10.5476    9.3849   -6.9592 C   0  0  0  0  0  0  0  0  0  0  0  0
   10.1414    9.5429   -8.2647 C   0  0  0  0  0  0  0  0  0  0  0  0
   10.1005    8.4504   -9.1092 C   0  0  0  0  0  0  0  0  0  0  0  0
    9.7500    8.3070  -10.4153 N   0  0  0  0  0  0  0  0  0  0  0  0
    9.8968    7.0292  -10.7285 N   0  0  0  0  0  0  0  0  0  0  0  0
   10.3334    6.3376   -9.6614 C   0  0  0  0  0  0  0  0  0  0  0  0
   10.4737    7.2191   -8.6088 C   0  0  0  0  0  0  0  0  0  0  0  0
   10.8814    7.0838   -7.2835 C   0  0  0  0  0  0  0  0  0  0  0  0
   10.5630   10.2649   -6.3396 H   0  0  0  0  0  0  0  0  0  0  0  0
    9.8471   10.5054   -8.6649 H   0  0  0  0  0  0  0  0  0  0  0  0
    9.4330    9.1130  -10.9945 H   0  0  0  0  0  0  0  0  0  0  0  0
   10.5327    5.2913   -9.6437 H   0  0  0  0  0  0  0  0  0  0  0  0
   11.1700    6.1292   -6.8980 H   0  0  0  0  0  0  0  0  0  0  0  0
  1  6  2  0
  2  3  2  0
  2  1  1  0
  3  4  1  0
  4  5  2  0
  6  5  1  0
  1  7  1  0
  3  8  1  0
  5  9  1  0
 10 11  2  0
 11 12  1  0
 12 13  2  0
 13 14  1  0
 14 15  1  0
 15 16  2  0
 16 17  1  0
 17 18  2  0
 18 10  1  0
 17 13  1  0
 11 19  1  0
 12 20  1  0
 14 21  1  0
 16 22  1  0
 18 23  1  0
  2 10  1  0
M  END
>  <Score>  (1) 
-7.96437

$$$$

     RDKit          3D

 21 23  0  0  0  0  0  0  0  0999 V2000
   12.3025    8.1237   -2.3016 C   0  0  0  0  0  0  0  0  0  0  0  0
   12.0214    6.8832   -2.9130 C   0  0  0  0  0  0  0  0  0  0  0  0
   11.5242    6.8981   -4.2254 C   0  0  0  0  0  0  0  0  0  0  0  0
   11.3423    8.1077   -4.8316 N   0  0  0  0  0  0  0  0  0  0  0  0
   11.6237    9.2772   -4.2120 C   0  0  0  0  0  0  0  0  0  0  0  0
   12.1009    9.2812   -2.9544 N   0  0  0  0  0  0  0  0  0  0  0  0
   12.6829    8.0853   -1.2949 H   0  0  0  0  0  0  0  0  0  0  0  0
   12.1886    5.9649   -2.3761 H   0  0  0  0  0  0  0  0  0  0  0  0
   11.3022    5.9735   -4.7139 H   0  0  0  0  0  0  0  0  0  0  0  0
   11.4295   10.5328   -4.8553 N   0  0  0  0  0  0  0  0  0  0  0  0
   10.2676   11.1127   -5.2219 C   0  0  0  0  0  0  0  0  0  0  0  0
   10.4850   12.2993   -5.8038 N   0  0  0  0  0  0  0  0  0  0  0  0
   11.8146   12.4943   -5.8157 C   0  0  0  0  0  0  0  0  0  0  0  0
   12.6160   13.5340   -6.2859 C   0  0  0  0  0  0  0  0  0  0  0  0
   12.1213   14.3944   -6.7502 H   0  0  0  0  0  0  0  0  0  0  0  0
   13.9284   13.4199   -6.1435 N   0  0  0  0  0  0  0  0  0  0  0  0
   14.5372   12.3609   -5.5722 C   0  0  0  0  0  0  0  0  0  0  0  0
   13.7630   11.3612   -5.1202 N   0  0  0  0  0  0  0  0  0  0  0  0
   12.4048   11.3920   -5.2236 C   0  0  0  0  0  0  0  0  0  0  0  0
    9.2993   10.6532   -5.0539 H   0  0  0  0  0  0  0  0  0  0  0  0
   15.6140   12.3004   -5.4720 H   0  0  0  0  0  0  0  0  0  0  0  0
  2  1  2  0
  3  2  1  0
  4  3  2  0
  4  5  1  0
  5  6  2  0
  6  1  1  0
  1  7  1  0
  2  8  1  0
  3  9  1  0
 10 11  1  0
 11 12  2  0
 12 13  1  0
 13 14  2  0
 14 15  1  0
 14 16  1  0
 16 17  2  0
 17 18  1  0
 18 19  2  0
 19 10  1  0
 19 13  1  0
 11 20  1  0
 17 21  1  0
  5 10  1  0
M  END
>  <Score>  (1) 
-7.54376

$$$$

     RDKit          3D

 31 32  0  0  0  0  0  0  0  0999 V2000
   11.6898    9.2584   -4.3231 C   0  0  0  0  0  0  0  0  0  0  0  0
   11.3436    8.0909   -5.0383 C   0  0  0  0  0  0  0  0  0  0  0  0
   11.4156    6.8657   -4.3649 C   0  0  0  0  0  0  0  0  0  0  0  0
   11.8158    6.8705   -3.0576 N   0  0  0  0  0  0  0  0  0  0  0  0
   12.1395    8.0071   -2.4048 C   0  0  0  0  0  0  0  0  0  0  0  0
   12.0757    9.1954   -3.0383 N   0  0  0  0  0  0  0  0  0  0  0  0
   11.6167   10.1660   -4.8864 H   0  0  0  0  0  0  0  0  0  0  0  0
   11.1655    5.9581   -4.8585 H   0  0  0  0  0  0  0  0  0  0  0  0
   12.4564    8.0074   -1.3687 H   0  0  0  0  0  0  0  0  0  0  0  0
   10.9168    8.1648   -6.4608 C   0  0  2  0  0  0  0  0  0  0  0  0
   11.2271    9.3607   -6.9917 O   0  0  0  0  0  0  0  0  0  0  0  0
   10.2615   10.1872   -7.4232 C   0  0  1  0  0  0  0  0  0  0  0  0
   10.9097   11.1604   -8.4217 C   0  0  0  0  0  0  0  0  0  0  0  0
   11.4298   10.3533   -9.4595 O   0  0  0  0  0  0  0  0  0  0  0  0
    9.0936    9.5777   -8.1087 C   0  0  1  0  0  0  0  0  0  0  0  0
    9.0550    9.8881   -9.4874 O   0  0  0  0  0  0  0  0  0  0  0  0
    9.0283    8.0789   -8.0096 C   0  0  2  0  0  0  0  0  0  0  0  0
    7.7039    7.6365   -8.1209 O   0  0  0  0  0  0  0  0  0  0  0  0
    9.4918    7.7215   -6.6068 C   0  0  2  0  0  0  0  0  0  0  0  0
    8.6472    8.2496   -5.6577 O   0  0  0  0  0  0  0  0  0  0  0  0
   11.5337    7.3886   -7.0066 H   0  0  0  0  0  0  0  0  0  0  0  0
    9.8697   10.8616   -6.6061 H   0  0  0  0  0  0  0  0  0  0  0  0
   11.7797   11.6098   -7.9292 H   0  0  0  0  0  0  0  0  0  0  0  0
   10.1990   11.8911   -8.8051 H   0  0  0  0  0  0  0  0  0  0  0  0
   12.2329    9.8741   -9.1031 H   0  0  0  0  0  0  0  0  0  0  0  0
    8.1178    9.9659   -7.7086 H   0  0  0  0  0  0  0  0  0  0  0  0
    8.6092   10.7881   -9.5750 H   0  0  0  0  0  0  0  0  0  0  0  0
    9.6504    7.5560   -8.7501 H   0  0  0  0  0  0  0  0  0  0  0  0
    7.0984    8.2494   -7.6393 H   0  0  0  0  0  0  0  0  0  0  0  0
    9.4315    6.6120   -6.5335 H   0  0  0  0  0  0  0  0  0  0  0  0
    7.8234    7.6671   -5.6356 H   0  0  0  0  0  0  0  0  0  0  0  0
  1  6  2  0
  2  3  2  0
  2  1  1  0
  3  4  1  0
  4  5  2  0
  6  5  1  0
  1  7  1  0
  3  8  1  0
  5  9  1  0
 10 11  1  0
 11 12  1  0
 12 13  1  0
 13 14  1  0
 12 15  1  0
 15 16  1  0
 15 17  1  0
 17 18  1  0
 17 19  1  0
 19 20  1  0
 19 10  1  0
 10 21  1  6
 12 22  1  1
 13 23  1  0
 13 24  1  0
 14 25  1  0
 15 26  1  1
 16 27  1  0
 17 28  1  6
 18 29  1  0
 19 30  1  6
 20 31  1  0
  2 10  1  0
M  END
>  <Score>  (1) 
-7.95507

$$$$

     RDKit          3D

 26 27  0  0  0  0  0  0  0  0999 V2000
   11.6886    9.2565   -4.3263 C   0  0  0  0  0  0  0  0  0  0  0  0
   11.3441    8.0951   -5.0382 C   0  0  0  0  0  0  0  0  0  0  0  0
   11.4168    6.8628   -4.3599 C   0  0  0  0  0  0  0  0  0  0  0  0
   11.8138    6.8684   -3.0634 N   0  0  0  0  0  0  0  0  0  0  0  0
   12.1402    8.0121   -2.4045 C   0  0  0  0  0  0  0  0  0  0  0  0
   12.0766    9.1931   -3.0347 N   0  0  0  0  0  0  0  0  0  0  0  0
   11.6499   10.2236   -4.7890 H   0  0  0  0  0  0  0  0  0  0  0  0
   11.1638    5.9342   -4.8554 H   0  0  0  0  0  0  0  0  0  0  0  0
   12.4431    7.8899   -1.3703 H   0  0  0  0  0  0  0  0  0  0  0  0
   10.9188    8.1383   -6.4250 C   0  0  0  0  0  0  0  0  0  0  0  0
   10.5511    6.9513   -7.0238 C   0  0  0  0  0  0  0  0  0  0  0  0
   10.1309    6.9548   -8.3574 C   0  0  0  0  0  0  0  0  0  0  0  0
   10.0978    8.1547   -9.0347 C   0  0  0  0  0  0  0  0  0  0  0  0
    9.6495    8.1885  -10.4709 C   0  0  0  0  0  0  0  0  0  0  0  0
   10.4719    9.3187   -8.4046 C   0  0  0  0  0  0  0  0  0  0  0  0
   10.8967    9.3472   -7.0724 C   0  0  0  0  0  0  0  0  0  0  0  0
   11.2895   10.6342   -6.4598 C   0  0  0  0  0  0  0  0  0  0  0  0
   10.5670    5.9996   -6.5198 H   0  0  0  0  0  0  0  0  0  0  0  0
    9.8380    6.0392   -8.8488 H   0  0  0  0  0  0  0  0  0  0  0  0
    9.0487    7.2745  -10.6599 H   0  0  0  0  0  0  0  0  0  0  0  0
    9.0951    9.1090  -10.6886 H   0  0  0  0  0  0  0  0  0  0  0  0
   10.5785    8.1805  -11.0714 H   0  0  0  0  0  0  0  0  0  0  0  0
   10.4484   10.2646   -8.9301 H   0  0  0  0  0  0  0  0  0  0  0  0
   11.8281   11.2484   -7.2245 H   0  0  0  0  0  0  0  0  0  0  0  0
   12.0075   10.5224   -5.6230 H   0  0  0  0  0  0  0  0  0  0  0  0
   10.4130   11.2654   -6.1690 H   0  0  0  0  0  0  0  0  0  0  0  0
  1  6  2  0
  2  3  2  0
  2  1  1  0
  3  4  1  0
  4  5  2  0
  6  5  1  0
  1  7  1  0
  3  8  1  0
  5  9  1  0
 10 11  2  0
 11 12  1  0
 12 13  2  0
 13 14  1  0
 13 15  1  0
 15 16  2  0
 16 17  1  0
 16 10  1  0
 11 18  1  0
 12 19  1  0
 14 20  1  0
 14 21  1  0
 14 22  1  0
 15 23  1  0
 17 24  1  0
 17 25  1  0
 17 26  1  0
  2 10  1  0
M  END
>  <Score>  (1) 
-7.95389

$$$$

     RDKit          3D

 24 26  0  0  0  0  0  0  0  0999 V2000
   11.6914    9.2565   -4.3170 C   0  0  0  0  0  0  0  0  0  0  0  0
   11.3415    8.0852   -5.0429 C   0  0  0  0  0  0  0  0  0  0  0  0
   11.4148    6.8705   -4.3692 C   0  0  0  0  0  0  0  0  0  0  0  0
   11.8179    6.8743   -3.0522 N   0  0  0  0  0  0  0  0  0  0  0  0
   12.1384    8.0070   -2.4084 C   0  0  0  0  0  0  0  0  0  0  0  0
   12.0759    9.1945   -3.0372 N   0  0  0  0  0  0  0  0  0  0  0  0
   11.6305   10.2015   -4.8541 H   0  0  0  0  0  0  0  0  0  0  0  0
   11.1701    5.9421   -4.8380 H   0  0  0  0  0  0  0  0  0  0  0  0
   12.4491    7.9524   -1.3727 H   0  0  0  0  0  0  0  0  0  0  0  0
   10.9451    8.1862   -6.3756 N   0  0  0  0  0  0  0  0  0  0  0  0
   10.9183    6.9799   -7.1667 C   0  0  0  0  0  0  0  0  0  0  0  0
   11.0809    5.8547   -7.2461 N   0  0  0  0  0  0  0  0  0  0  0  0
   10.9453    4.9941   -8.2191 C   0  0  0  0  0  0  0  0  0  0  0  0
   11.1615    3.6175   -8.2555 C   0  0  0  0  0  0  0  0  0  0  0  0
   10.9423    2.9319   -9.4205 C   0  0  0  0  0  0  0  0  0  0  0  0
   10.5162    3.4767  -10.6009 C   0  0  0  0  0  0  0  0  0  0  0  0
   10.2928    4.8496  -10.5919 C   0  0  0  0  0  0  0  0  0  0  0  0
   10.5129    5.5506   -9.4146 C   0  0  0  0  0  0  0  0  0  0  0  0
   10.3484    7.3122   -8.9746 S   0  0  0  0  0  0  0  0  0  0  0  0
   10.6864    9.1262   -6.7405 H   0  0  0  0  0  0  0  0  0  0  0  0
   11.4990    3.0434   -7.4026 H   0  0  0  0  0  0  0  0  0  0  0  0
   11.1160    1.8432   -9.4402 H   0  0  0  0  0  0  0  0  0  0  0  0
   10.3666    2.8947  -11.4622 H   0  0  0  0  0  0  0  0  0  0  0  0
    9.9533    5.3918  -11.4698 H   0  0  0  0  0  0  0  0  0  0  0  0
  1  6  2  0
  2  3  2  0
  2  1  1  0
  3  4  1  0
  4  5  2  0
  6  5  1  0
  1  7  1  0
  3  8  1  0
  5  9  1  0
 10 11  1  0
 11 12  2  0
 12 13  1  0
 13 14  2  0
 14 15  1  0
 15 16  2  0
 16 17  1  0
 17 18  2  0
 18 19  1  0
 19 11  1  0
 18 13  1  0
 10 20  1  0
 14 21  1  0
 15 22  1  0
 16 23  1  0
 17 24  1  0
  2 10  1  0
M  END
>  <Score>  (1) 
-7.94601

$$$$

     RDKit          3D

 26 27  0  0  0  0  0  0  0  0999 V2000
   11.6889    9.2541   -4.3245 C   0  0  0  0  0  0  0  0  0  0  0  0
   11.3442    8.0988   -5.0391 C   0  0  0  0  0  0  0  0  0  0  0  0
   11.4165    6.8616   -4.3603 C   0  0  0  0  0  0  0  0  0  0  0  0
   11.8148    6.8694   -3.0605 N   0  0  0  0  0  0  0  0  0  0  0  0
   12.1399    8.0082   -2.4041 C   0  0  0  0  0  0  0  0  0  0  0  0
   12.0757    9.1959   -3.0386 N   0  0  0  0  0  0  0  0  0  0  0  0
   11.6459   10.2244   -4.8024 H   0  0  0  0  0  0  0  0  0  0  0  0
   11.1568    5.9598   -4.8876 H   0  0  0  0  0  0  0  0  0  0  0  0
   12.4474    7.9262   -1.3692 H   0  0  0  0  0  0  0  0  0  0  0  0
   10.9117    8.1097   -6.4196 C   0  0  0  0  0  0  0  0  0  0  0  0
   10.7892    6.9419   -7.1723 C   0  0  0  0  0  0  0  0  0  0  0  0
   10.3660    6.9807   -8.4859 C   0  0  0  0  0  0  0  0  0  0  0  0
   10.2424    5.7237   -9.2703 C   0  0  0  0  0  0  0  0  0  0  0  0
   10.0534    8.1737   -9.0885 C   0  0  0  0  0  0  0  0  0  0  0  0
   10.1675    9.3350   -8.3644 C   0  0  0  0  0  0  0  0  0  0  0  0
   10.5981    9.2941   -7.0291 C   0  0  0  0  0  0  0  0  0  0  0  0
   10.7196   10.5618   -6.2794 C   0  0  0  0  0  0  0  0  0  0  0  0
   11.0245    5.9890   -6.7359 H   0  0  0  0  0  0  0  0  0  0  0  0
   11.0643    5.7626  -10.0353 H   0  0  0  0  0  0  0  0  0  0  0  0
    9.2399    5.7097   -9.7261 H   0  0  0  0  0  0  0  0  0  0  0  0
   10.4246    4.8332   -8.6355 H   0  0  0  0  0  0  0  0  0  0  0  0
    9.7261    8.1554  -10.1192 H   0  0  0  0  0  0  0  0  0  0  0  0
    9.9222   10.2892   -8.8315 H   0  0  0  0  0  0  0  0  0  0  0  0
    9.7072   10.9620   -5.9741 H   0  0  0  0  0  0  0  0  0  0  0  0
   11.0773   11.3539   -7.0104 H   0  0  0  0  0  0  0  0  0  0  0  0
   11.4527   10.5619   -5.4761 H   0  0  0  0  0  0  0  0  0  0  0  0
  1  6  2  0
  2  3  2  0
  2  1  1  0
  3  4  1  0
  4  5  2  0
  6  5  1  0
  1  7  1  0
  3  8  1  0
  5  9  1  0
 10 11  2  0
 11 12  1  0
 12 13  1  0
 12 14  2  0
 14 15  1  0
 15 16  2  0
 16 17  1  0
 16 10  1  0
 11 18  1  0
 13 19  1  0
 13 20  1  0
 13 21  1  0
 14 22  1  0
 15 23  1  0
 17 24  1  0
 17 25  1  0
 17 26  1  0
  2 10  1  0
M  END
>  <Score>  (1) 
-7.94402

$$$$

     RDKit          3D

 31 32  0  0  0  0  0  0  0  0999 V2000
   11.6897    9.2585   -4.3235 C   0  0  0  0  0  0  0  0  0  0  0  0
   11.3439    8.0901   -5.0370 C   0  0  0  0  0  0  0  0  0  0  0  0
   11.4158    6.8671   -4.3648 C   0  0  0  0  0  0  0  0  0  0  0  0
   11.8153    6.8692   -3.0588 N   0  0  0  0  0  0  0  0  0  0  0  0
   12.1399    8.0082   -2.4041 C   0  0  0  0  0  0  0  0  0  0  0  0
   12.0755    9.1950   -3.0388 N   0  0  0  0  0  0  0  0  0  0  0  0
   11.6389   10.2206   -4.8335 H   0  0  0  0  0  0  0  0  0  0  0  0
   11.1554    5.9877   -4.9021 H   0  0  0  0  0  0  0  0  0  0  0  0
   12.4410    7.8991   -1.3802 H   0  0  0  0  0  0  0  0  0  0  0  0
   10.9166    8.1597   -6.4594 C   0  0  1  0  0  0  0  0  0  0  0  0
   10.9910    6.8631   -6.9390 O   0  0  0  0  0  0  0  0  0  0  0  0
   10.5584    6.6809   -8.2158 C   0  0  2  0  0  0  0  0  0  0  0  0
   11.6744    6.6048   -9.2331 C   0  0  0  0  0  0  0  0  0  0  0  0
   12.4253    7.7707   -9.2372 O   0  0  0  0  0  0  0  0  0  0  0  0
    9.4828    7.6629   -8.6346 C   0  0  2  0  0  0  0  0  0  0  0  0
   10.1182    8.8802   -8.9081 O   0  0  0  0  0  0  0  0  0  0  0  0
    8.6519    7.8574   -7.3589 C   0  0  2  0  0  0  0  0  0  0  0  0
    7.4284    8.4213   -7.6252 O   0  0  0  0  0  0  0  0  0  0  0  0
    9.5198    8.7201   -6.4668 C   0  0  2  0  0  0  0  0  0  0  0  0
    9.4766   10.0137   -7.0060 O   0  0  0  0  0  0  0  0  0  0  0  0
   11.6223    8.8474   -6.9853 H   0  0  0  0  0  0  0  0  0  0  0  0
   10.0510    5.6700   -8.2532 H   0  0  0  0  0  0  0  0  0  0  0  0
   12.3538    5.7731   -8.9553 H   0  0  0  0  0  0  0  0  0  0  0  0
   11.2713    6.3570  -10.2293 H   0  0  0  0  0  0  0  0  0  0  0  0
   13.0876    7.7105   -8.5118 H   0  0  0  0  0  0  0  0  0  0  0  0
    8.8658    7.3123   -9.4622 H   0  0  0  0  0  0  0  0  0  0  0  0
   10.4282    8.9133   -9.8281 H   0  0  0  0  0  0  0  0  0  0  0  0
    8.5442    6.8731   -6.8217 H   0  0  0  0  0  0  0  0  0  0  0  0
    6.7760    7.6649   -7.7242 H   0  0  0  0  0  0  0  0  0  0  0  0
    9.0809    8.7981   -5.4506 H   0  0  0  0  0  0  0  0  0  0  0  0
   10.0938   10.5713   -6.4730 H   0  0  0  0  0  0  0  0  0  0  0  0
  1  6  2  0
  2  3  2  0
  2  1  1  0
  3  4  1  0
  4  5  2  0
  6  5  1  0
  1  7  1  0
  3  8  1  0
  5  9  1  0
 10 11  1  0
 11 12  1  0
 12 13  1  0
 13 14  1  0
 12 15  1  0
 15 16  1  0
 15 17  1  0
 17 18  1  0
 17 19  1  0
 19 20  1  0
 19 10  1  0
 10 21  1  6
 12 22  1  1
 13 23  1  0
 13 24  1  0
 14 25  1  0
 15 26  1  6
 16 27  1  0
 17 28  1  1
 18 29  1  0
 19 30  1  1
 20 31  1  0
  2 10  1  0
M  END
>  <Score>  (1) 
-7.93896

$$$$

     RDKit          3D

 25 26  0  0  0  0  0  0  0  0999 V2000
   11.6886    9.2563   -4.3262 C   0  0  0  0  0  0  0  0  0  0  0  0
   11.3440    8.0939   -5.0380 C   0  0  0  0  0  0  0  0  0  0  0  0
   11.4159    6.8643   -4.3633 C   0  0  0  0  0  0  0  0  0  0  0  0
   11.8155    6.8707   -3.0588 N   0  0  0  0  0  0  0  0  0  0  0  0
   12.1394    8.0095   -2.4062 C   0  0  0  0  0  0  0  0  0  0  0  0
   12.0766    9.1934   -3.0345 N   0  0  0  0  0  0  0  0  0  0  0  0
   11.6166   10.1699   -4.8880 H   0  0  0  0  0  0  0  0  0  0  0  0
   11.1589    5.9505   -4.8776 H   0  0  0  0  0  0  0  0  0  0  0  0
   12.4485    7.9596   -1.3768 H   0  0  0  0  0  0  0  0  0  0  0  0
   10.9260    8.1640   -6.4306 C   0  0  0  0  0  0  0  0  0  0  0  0
   11.3995    9.1288   -7.3009 C   0  0  0  0  0  0  0  0  0  0  0  0
   10.9941    9.1855   -8.6225 C   0  0  0  0  0  0  0  0  0  0  0  0
   10.0907    8.2619   -9.1087 C   0  0  0  0  0  0  0  0  0  0  0  0
    9.5485    8.2925  -10.7707 S   0  0  0  0  0  6  0  0  0  0  0  0
    8.1415    9.2859  -10.9373 N   0  0  0  0  0  0  0  0  0  0  0  0
   10.6153    8.7804  -11.6986 O   0  0  0  0  0  0  0  0  0  0  0  0
    9.2282    6.8770  -11.1642 O   0  0  0  0  0  0  0  0  0  0  0  0
    9.6074    7.2928   -8.2570 C   0  0  0  0  0  0  0  0  0  0  0  0
   10.0300    7.2518   -6.9224 C   0  0  0  0  0  0  0  0  0  0  0  0
   12.0993    9.8486   -6.9338 H   0  0  0  0  0  0  0  0  0  0  0  0
   11.3766    9.9468   -9.2834 H   0  0  0  0  0  0  0  0  0  0  0  0
    7.5038    9.0917  -10.1350 H   0  0  0  0  0  0  0  0  0  0  0  0
    8.4616   10.2666  -10.9495 H   0  0  0  0  0  0  0  0  0  0  0  0
    8.9003    6.5757   -8.6517 H   0  0  0  0  0  0  0  0  0  0  0  0
    9.6384    6.4893   -6.2858 H   0  0  0  0  0  0  0  0  0  0  0  0
  1  6  2  0
  2  3  2  0
  2  1  1  0
  3  4  1  0
  4  5  2  0
  6  5  1  0
  1  7  1  0
  3  8  1  0
  5  9  1  0
 10 11  2  0
 11 12  1  0
 12 13  2  0
 13 14  1  0
 14 15  1  0
 14 16  2  0
 14 17  2  0
 13 18  1  0
 18 19  2  0
 19 10  1  0
 11 20  1  0
 12 21  1  0
 15 22  1  0
 15 23  1  0
 18 24  1  0
 19 25  1  0
  2 10  1  0
M  END
>  <Score>  (1) 
-7.93308

$$$$

     RDKit          3D

 22 23  0  0  0  0  0  0  0  0999 V2000
   11.6894    9.2562   -4.3235 C   0  0  0  0  0  0  0  0  0  0  0  0
   11.3432    8.0960   -5.0414 C   0  0  0  0  0  0  0  0  0  0  0  0
   11.4172    6.8610   -4.3578 C   0  0  0  0  0  0  0  0  0  0  0  0
   11.8152    6.8738   -3.0606 N   0  0  0  0  0  0  0  0  0  0  0  0
   12.1385    8.0033   -2.4068 C   0  0  0  0  0  0  0  0  0  0  0  0
   12.0764    9.1976   -3.0368 N   0  0  0  0  0  0  0  0  0  0  0  0
   11.6256   10.1955   -4.8674 H   0  0  0  0  0  0  0  0  0  0  0  0
   11.1568    5.9657   -4.8893 H   0  0  0  0  0  0  0  0  0  0  0  0
   12.4426    7.8969   -1.3748 H   0  0  0  0  0  0  0  0  0  0  0  0
   11.2846    6.1464  -10.5463 H   0  0  0  0  0  0  0  0  0  0  0  0
   11.1191    5.9770   -9.4850 C   0  0  0  0  0  0  0  0  0  0  0  0
   11.1954    4.7720   -9.0778 O   0  0  0  0  0  0  0  0  0  0  0  0
   10.8283    7.0861   -8.6035 C   0  0  0  0  0  0  0  0  0  0  0  0
   11.2058    7.0880   -7.2640 C   0  0  0  0  0  0  0  0  0  0  0  0
   10.9268    8.1474   -6.4257 C   0  0  0  0  0  0  0  0  0  0  0  0
   10.2522    9.2234   -6.9589 C   0  0  0  0  0  0  0  0  0  0  0  0
    9.8628    9.2435   -8.3023 C   0  0  0  0  0  0  0  0  0  0  0  0
   10.1520    8.1722   -9.1252 C   0  0  0  0  0  0  0  0  0  0  0  0
    9.6563    8.2149  -10.8048 Cl  0  0  0  0  0  0  0  0  0  0  0  0
   11.7343    6.2340   -6.8650 H   0  0  0  0  0  0  0  0  0  0  0  0
   10.0244   10.0664   -6.3108 H   0  0  0  0  0  0  0  0  0  0  0  0
    9.3371   10.0914   -8.7028 H   0  0  0  0  0  0  0  0  0  0  0  0
  1  6  2  0
  2  3  2  0
  2  1  1  0
  3  4  1  0
  4  5  2  0
  6  5  1  0
  1  7  1  0
  3  8  1  0
  5  9  1  0
 10 11  1  0
 11 12  2  0
 11 13  1  0
 13 14  2  0
 14 15  1  0
 15 16  2  0
 16 17  1  0
 17 18  2  0
 18 19  1  0
 18 13  1  0
 14 20  1  0
 16 21  1  0
 17 22  1  0
  2 15  1  0
M  END
>  <Score>  (1) 
-7.91452

$$$$

     RDKit          3D

 23 25  0  0  0  0  0  0  0  0999 V2000
   11.6887    9.2529   -4.3248 C   0  0  0  0  0  0  0  0  0  0  0  0
   11.3436    8.0884   -5.0372 C   0  0  0  0  0  0  0  0  0  0  0  0
   11.4151    6.8738   -4.3693 C   0  0  0  0  0  0  0  0  0  0  0  0
   11.8169    6.8708   -3.0543 N   0  0  0  0  0  0  0  0  0  0  0  0
   12.1396    8.0049   -2.4039 C   0  0  0  0  0  0  0  0  0  0  0  0
   12.0761    9.1972   -3.0376 N   0  0  0  0  0  0  0  0  0  0  0  0
   11.6309   10.1966   -4.8508 H   0  0  0  0  0  0  0  0  0  0  0  0
   11.1699    5.9415   -4.8384 H   0  0  0  0  0  0  0  0  0  0  0  0
   12.4557    8.0273   -1.3778 H   0  0  0  0  0  0  0  0  0  0  0  0
   10.9307    8.1850   -6.4223 C   0  0  0  0  0  0  0  0  0  0  0  0
   11.1703    9.3197   -7.0874 N   0  0  0  0  0  0  0  0  0  0  0  0
   10.8406    9.5237   -8.3501 N   0  0  0  0  0  0  0  0  0  0  0  0
   11.0011   10.5934   -9.1773 C   0  0  0  0  0  0  0  0  0  0  0  0
   10.4703   10.2486  -10.3798 C   0  0  0  0  0  0  0  0  0  0  0  0
    9.9790    8.9627  -10.3001 C   0  0  0  0  0  0  0  0  0  0  0  0
   10.2304    8.5332   -8.9994 C   0  0  0  0  0  0  0  0  0  0  0  0
    9.9690    7.3472   -8.3382 C   0  0  0  0  0  0  0  0  0  0  0  0
    9.3858    6.4206   -8.9838 O   0  0  0  0  0  0  0  0  0  0  0  0
   10.3277    7.1868   -7.0404 N   0  0  0  0  0  0  0  0  0  0  0  0
   11.4789   11.4998   -8.8302 H   0  0  0  0  0  0  0  0  0  0  0  0
   10.4388   10.8800  -11.2552 H   0  0  0  0  0  0  0  0  0  0  0  0
    9.4943    8.3583  -11.0410 H   0  0  0  0  0  0  0  0  0  0  0  0
   10.1094    6.2898   -6.6036 H   0  0  0  0  0  0  0  0  0  0  0  0
  1  6  2  0
  2  3  2  0
  2  1  1  0
  3  4  1  0
  4  5  2  0
  6  5  1  0
  1  7  1  0
  3  8  1  0
  5  9  1  0
 10 11  2  0
 11 12  1  0
 12 13  1  0
 13 14  2  0
 14 15  1  0
 15 16  2  0
 16 17  1  0
 17 18  2  0
 17 19  1  0
 19 10  1  0
 16 12  1  0
 13 20  1  0
 14 21  1  0
 15 22  1  0
 19 23  1  0
  2 10  1  0
M  END
>  <Score>  (1) 
-7.90903

$$$$

     RDKit          3D

 23 25  0  0  0  0  0  0  0  0999 V2000
   11.6889    9.2558   -4.3251 C   0  0  0  0  0  0  0  0  0  0  0  0
   11.3440    8.0914   -5.0369 C   0  0  0  0  0  0  0  0  0  0  0  0
   11.4152    6.8677   -4.3670 C   0  0  0  0  0  0  0  0  0  0  0  0
   11.8163    6.8706   -3.0559 N   0  0  0  0  0  0  0  0  0  0  0  0
   12.1395    8.0066   -2.4048 C   0  0  0  0  0  0  0  0  0  0  0  0
   12.0760    9.1958   -3.0373 N   0  0  0  0  0  0  0  0  0  0  0  0
   11.6164   10.1746   -4.8906 H   0  0  0  0  0  0  0  0  0  0  0  0
   11.1591    5.9690   -4.8835 H   0  0  0  0  0  0  0  0  0  0  0  0
   12.4560    8.0088   -1.3706 H   0  0  0  0  0  0  0  0  0  0  0  0
   10.9300    8.1699   -6.4191 C   0  0  0  0  0  0  0  0  0  0  0  0
   11.3726    7.3380   -7.4159 C   0  0  0  0  0  0  0  0  0  0  0  0
   10.7202    7.7726   -8.5650 C   0  0  0  0  0  0  0  0  0  0  0  0
   10.7369    7.3567   -9.8736 C   0  0  0  0  0  0  0  0  0  0  0  0
    9.9798    7.9763  -10.8268 C   0  0  0  0  0  0  0  0  0  0  0  0
    9.1686    9.0480  -10.4996 C   0  0  0  0  0  0  0  0  0  0  0  0
    9.1614    9.4550   -9.1821 C   0  0  0  0  0  0  0  0  0  0  0  0
    9.9196    8.8399   -8.2097 C   0  0  0  0  0  0  0  0  0  0  0  0
   10.0843    9.0372   -6.9048 O   0  0  0  0  0  0  0  0  0  0  0  0
   12.0759    6.5170   -7.3421 H   0  0  0  0  0  0  0  0  0  0  0  0
   11.3799    6.5133  -10.1138 H   0  0  0  0  0  0  0  0  0  0  0  0
   10.0156    7.6242  -11.8494 H   0  0  0  0  0  0  0  0  0  0  0  0
    8.5797    9.5221  -11.2665 H   0  0  0  0  0  0  0  0  0  0  0  0
    8.5324   10.2901   -8.9148 H   0  0  0  0  0  0  0  0  0  0  0  0
  1  6  2  0
  2  3  2  0
  2  1  1  0
  3  4  1  0
  4  5  2  0
  6  5  1  0
  1  7  1  0
  3  8  1  0
  5  9  1  0
 10 11  2  0
 11 12  1  0
 12 13  2  0
 13 14  1  0
 14 15  2  0
 15 16  1  0
 16 17  2  0
 17 18  1  0
 18 10  1  0
 17 12  1  0
 11 19  1  0
 13 20  1  0
 14 21  1  0
 15 22  1  0
 16 23  1  0
  2 10  1  0
M  END
>  <Score>  (1) 
-7.90686

$$$$

     RDKit          3D

 25 27  0  0  0  0  0  0  0  0999 V2000
   11.6903    9.2592   -4.3216 C   0  0  0  0  0  0  0  0  0  0  0  0
   11.3433    8.0899   -5.0390 C   0  0  0  0  0  0  0  0  0  0  0  0
   11.4155    6.8659   -4.3650 C   0  0  0  0  0  0  0  0  0  0  0  0
   11.8160    6.8711   -3.0570 N   0  0  0  0  0  0  0  0  0  0  0  0
   12.1394    8.0059   -2.4048 C   0  0  0  0  0  0  0  0  0  0  0  0
   12.0754    9.1960   -3.0395 N   0  0  0  0  0  0  0  0  0  0  0  0
   11.6300   10.2048   -4.8568 H   0  0  0  0  0  0  0  0  0  0  0  0
   11.1650    5.9447   -4.8511 H   0  0  0  0  0  0  0  0  0  0  0  0
   12.4435    7.9096   -1.3759 H   0  0  0  0  0  0  0  0  0  0  0  0
   10.2768    3.0779   -6.9076 H   0  0  0  0  0  0  0  0  0  0  0  0
   10.0226    3.4919   -7.8724 C   0  0  0  0  0  0  0  0  0  0  0  0
    9.6675    2.6946   -8.7775 O   0  0  0  0  0  0  0  0  0  0  0  0
   10.0892    4.9338   -8.1190 C   0  0  0  0  0  0  0  0  0  0  0  0
    9.7703    5.4833   -9.3390 C   0  0  0  0  0  0  0  0  0  0  0  0
    9.8319    6.8411   -9.5746 C   0  0  0  0  0  0  0  0  0  0  0  0
   10.2318    7.6407   -8.5236 C   0  0  0  0  0  0  0  0  0  0  0  0
   10.4041    8.9822   -8.3942 N   0  0  0  0  0  0  0  0  0  0  0  0
   10.8037    9.2872   -7.1862 N   0  0  0  0  0  0  0  0  0  0  0  0
   10.9236    8.1661   -6.4311 C   0  0  0  0  0  0  0  0  0  0  0  0
   10.5647    7.1317   -7.2701 C   0  0  0  0  0  0  0  0  0  0  0  0
   10.4851    5.7629   -7.0904 C   0  0  0  0  0  0  0  0  0  0  0  0
    9.4640    4.8241  -10.1290 H   0  0  0  0  0  0  0  0  0  0  0  0
    9.5868    7.2977  -10.5236 H   0  0  0  0  0  0  0  0  0  0  0  0
   10.2242    9.6450   -9.1971 H   0  0  0  0  0  0  0  0  0  0  0  0
   10.7473    5.3533   -6.1044 H   0  0  0  0  0  0  0  0  0  0  0  0
  1  6  2  0
  2  3  2  0
  2  1  1  0
  3  4  1  0
  4  5  2  0
  6  5  1  0
  1  7  1  0
  3  8  1  0
  5  9  1  0
 10 11  1  0
 11 12  2  0
 11 13  1  0
 13 14  2  0
 14 15  1  0
 15 16  2  0
 16 17  1  0
 17 18  1  0
 18 19  2  0
 19 20  1  0
 20 21  2  0
 21 13  1  0
 20 16  1  0
 14 22  1  0
 15 23  1  0
 17 24  1  0
 21 25  1  0
  2 19  1  0
M  END
>  <Score>  (1) 
-7.86967

$$$$

     RDKit          3D

 25 26  0  0  0  0  0  0  0  0999 V2000
   12.3033    8.1261   -2.2997 C   0  0  0  0  0  0  0  0  0  0  0  0
   12.0192    6.8796   -2.9183 C   0  0  0  0  0  0  0  0  0  0  0  0
   11.5256    6.9011   -4.2221 C   0  0  0  0  0  0  0  0  0  0  0  0
   11.3422    8.1051   -4.8315 N   0  0  0  0  0  0  0  0  0  0  0  0
   11.6243    9.2771   -4.2105 C   0  0  0  0  0  0  0  0  0  0  0  0
   12.1003    9.2820   -2.9558 N   0  0  0  0  0  0  0  0  0  0  0  0
   12.6847    8.0755   -1.2889 H   0  0  0  0  0  0  0  0  0  0  0  0
   12.1907    5.9690   -2.3709 H   0  0  0  0  0  0  0  0  0  0  0  0
   11.3020    5.9669   -4.7137 H   0  0  0  0  0  0  0  0  0  0  0  0
   11.4103   10.4989   -4.9024 N   0  0  0  0  0  0  0  0  0  0  0  0
   11.9905   11.7335   -4.4135 C   0  0  0  0  0  0  0  0  0  0  0  0
   11.6450   12.8658   -5.2738 C   0  0  0  0  0  0  0  0  0  0  0  0
   12.4712   13.1848   -6.3289 C   0  0  0  0  0  0  0  0  0  0  0  0
   12.1815   14.2422   -7.1611 C   0  0  0  0  0  0  0  0  0  0  0  0
   11.0521   14.9693   -6.9146 C   0  0  0  0  0  0  0  0  0  0  0  0
   10.7925   16.0153   -7.7617 F   0  0  0  0  0  0  0  0  0  0  0  0
   10.2273   14.6523   -5.8629 C   0  0  0  0  0  0  0  0  0  0  0  0
   10.5055   13.5927   -5.0182 C   0  0  0  0  0  0  0  0  0  0  0  0
   10.8385   10.5339   -5.7659 H   0  0  0  0  0  0  0  0  0  0  0  0
   11.6653   11.8737   -3.3560 H   0  0  0  0  0  0  0  0  0  0  0  0
   13.1036   11.5437   -4.3689 H   0  0  0  0  0  0  0  0  0  0  0  0
   13.3565   12.5849   -6.4912 H   0  0  0  0  0  0  0  0  0  0  0  0
   12.8773   14.4364   -7.9731 H   0  0  0  0  0  0  0  0  0  0  0  0
    9.3354   15.2371   -5.6792 H   0  0  0  0  0  0  0  0  0  0  0  0
    9.8224   13.3924   -4.2109 H   0  0  0  0  0  0  0  0  0  0  0  0
  2  1  2  0
  3  2  1  0
  4  3  2  0
  4  5  1  0
  5  6  2  0
  6  1  1  0
  1  7  1  0
  2  8  1  0
  3  9  1  0
 10 11  1  0
 11 12  1  0
 12 13  2  0
 13 14  1  0
 14 15  2  0
 15 16  1  0
 15 17  1  0
 17 18  2  0
 18 12  1  0
 10 19  1  0
 11 20  1  0
 11 21  1  0
 13 22  1  0
 14 23  1  0
 17 24  1  0
 18 25  1  0
  5 10  1  0
M  END
>  <Score>  (1) 
-7.53449

$$$$

     RDKit          3D

 24 26  0  0  0  0  0  0  0  0999 V2000
   12.3026    8.1225   -2.3012 C   0  0  0  0  0  0  0  0  0  0  0  0
   12.0215    6.8834   -2.9127 C   0  0  0  0  0  0  0  0  0  0  0  0
   11.5242    6.8977   -4.2254 C   0  0  0  0  0  0  0  0  0  0  0  0
   11.3424    8.1088   -4.8315 N   0  0  0  0  0  0  0  0  0  0  0  0
   11.6239    9.2764   -4.2113 C   0  0  0  0  0  0  0  0  0  0  0  0
   12.1004    9.2822   -2.9558 N   0  0  0  0  0  0  0  0  0  0  0  0
   12.6857    8.0979   -1.2886 H   0  0  0  0  0  0  0  0  0  0  0  0
   12.1859    5.9632   -2.3832 H   0  0  0  0  0  0  0  0  0  0  0  0
   11.2991    5.9699   -4.7218 H   0  0  0  0  0  0  0  0  0  0  0  0
   11.4019   10.5208   -4.9269 C   0  0  0  0  0  0  0  0  0  0  0  0
   10.2039   11.1772   -4.8668 C   0  0  0  0  0  0  0  0  0  0  0  0
    9.9769   12.3503   -5.5340 C   0  0  0  0  0  0  0  0  0  0  0  0
   10.9922   12.8975   -6.2994 C   0  0  0  0  0  0  0  0  0  0  0  0
   11.0930   14.0022   -7.0552 N   0  0  0  0  0  0  0  0  0  0  0  0
   12.3186   14.0957   -7.6119 C   0  0  0  0  0  0  0  0  0  0  0  0
   13.0530   13.0073   -7.2047 C   0  0  0  0  0  0  0  0  0  0  0  0
   12.2273   12.2644   -6.3897 C   0  0  0  0  0  0  0  0  0  0  0  0
   12.3994   11.0852   -5.6961 C   0  0  0  0  0  0  0  0  0  0  0  0
    9.4153   10.7270   -4.2559 H   0  0  0  0  0  0  0  0  0  0  0  0
    9.0175   12.8538   -5.4715 H   0  0  0  0  0  0  0  0  0  0  0  0
   10.3125   14.6732   -7.1734 H   0  0  0  0  0  0  0  0  0  0  0  0
   12.7017   14.8710   -8.2688 H   0  0  0  0  0  0  0  0  0  0  0  0
   14.0759   12.8110   -7.4919 H   0  0  0  0  0  0  0  0  0  0  0  0
   13.3499   10.5865   -5.7581 H   0  0  0  0  0  0  0  0  0  0  0  0
  2  1  2  0
  3  2  1  0
  4  3  2  0
  4  5  1  0
  5  6  2  0
  6  1  1  0
  1  7  1  0
  2  8  1  0
  3  9  1  0
 10 11  2  0
 11 12  1  0
 12 13  2  0
 13 14  1  0
 14 15  1  0
 15 16  2  0
 16 17  1  0
 17 18  2  0
 18 10  1  0
 17 13  1  0
 11 19  1  0
 12 20  1  0
 14 21  1  0
 15 22  1  0
 16 23  1  0
 18 24  1  0
  5 10  1  0
M  END
>  <Score>  (1) 
-8.35637

$$$$

     RDKit          3D

 26 28  0  0  0  0  0  0  0  0999 V2000
   11.6850    9.2460   -4.3343 C   0  0  0  0  0  0  0  0  0  0  0  0
   11.3432    8.1010   -5.0432 C   0  0  0  0  0  0  0  0  0  0  0  0
   11.4204    6.8747   -4.3525 C   0  0  0  0  0  0  0  0  0  0  0  0
   11.8137    6.8692   -3.0640 N   0  0  0  0  0  0  0  0  0  0  0  0
   12.1411    8.0105   -2.4009 C   0  0  0  0  0  0  0  0  0  0  0  0
   12.0766    9.1867   -3.0321 N   0  0  0  0  0  0  0  0  0  0  0  0
   11.6615   10.2244   -4.7652 H   0  0  0  0  0  0  0  0  0  0  0  0
   11.1792    5.9324   -4.8047 H   0  0  0  0  0  0  0  0  0  0  0  0
   12.4427    7.8893   -1.3708 H   0  0  0  0  0  0  0  0  0  0  0  0
   10.9154    8.1033   -6.4347 C   0  0  0  0  0  0  0  0  0  0  0  0
   10.6009    6.9418   -7.0871 N   0  0  0  0  0  0  0  0  0  0  0  0
   10.2362    7.1865   -8.3464 C   0  0  0  0  0  0  0  0  0  0  0  0
    9.8292    6.3827   -9.4116 C   0  0  0  0  0  0  0  0  0  0  0  0
    9.5135    6.9571  -10.6172 C   0  0  0  0  0  0  0  0  0  0  0  0
    9.5861    8.3246  -10.8139 C   0  0  0  0  0  0  0  0  0  0  0  0
    9.9945    9.0881   -9.7315 C   0  0  0  0  0  0  0  0  0  0  0  0
   10.3167    8.5283   -8.5101 C   0  0  0  0  0  0  0  0  0  0  0  0
   10.7349    9.0675   -7.3246 N   0  0  0  0  0  0  0  0  0  0  0  0
   10.9299   10.4741   -7.1309 C   0  0  0  0  0  0  0  0  0  0  0  0
    9.7854    5.3145   -9.2159 H   0  0  0  0  0  0  0  0  0  0  0  0
    9.1962    6.2925  -11.4355 H   0  0  0  0  0  0  0  0  0  0  0  0
    9.3344    8.7784  -11.7738 H   0  0  0  0  0  0  0  0  0  0  0  0
   10.0594   10.1666   -9.8624 H   0  0  0  0  0  0  0  0  0  0  0  0
   10.6301   11.0167   -8.0886 H   0  0  0  0  0  0  0  0  0  0  0  0
   11.9530   10.8037   -6.9626 H   0  0  0  0  0  0  0  0  0  0  0  0
   10.1952   10.8773   -6.4006 H   0  0  0  0  0  0  0  0  0  0  0  0
  1  6  2  0
  2  3  2  0
  2  1  1  0
  3  4  1  0
  4  5  2  0
  6  5  1  0
  1  7  1  0
  3  8  1  0
  5  9  1  0
 10 11  2  0
 11 12  1  0
 12 13  2  0
 13 14  1  0
 14 15  2  0
 15 16  1  0
 16 17  2  0
 17 18  1  0
 18 19  1  0
 18 10  1  0
 17 12  1  0
 13 20  1  0
 14 21  1  0
 15 22  1  0
 16 23  1  0
 19 24  1  0
 19 25  1  0
 19 26  1  0
  2 10  1  0
M  END
>  <Score>  (1) 
-7.8669

$$$$

     RDKit          3D

 31 32  0  0  0  0  0  0  0  0999 V2000
   11.6903    9.2600   -4.3218 C   0  0  0  0  0  0  0  0  0  0  0  0
   11.3430    8.0878   -5.0390 C   0  0  0  0  0  0  0  0  0  0  0  0
   11.4164    6.8675   -4.3628 C   0  0  0  0  0  0  0  0  0  0  0  0
   11.8145    6.8683   -3.0611 N   0  0  0  0  0  0  0  0  0  0  0  0
   12.1401    8.0097   -2.4041 C   0  0  0  0  0  0  0  0  0  0  0  0
   12.0757    9.1947   -3.0381 N   0  0  0  0  0  0  0  0  0  0  0  0
   11.6335   10.1877   -4.8393 H   0  0  0  0  0  0  0  0  0  0  0  0
   11.1561    5.9690   -4.8932 H   0  0  0  0  0  0  0  0  0  0  0  0
   12.4492    7.9651   -1.3770 H   0  0  0  0  0  0  0  0  0  0  0  0
   10.9185    8.1777   -6.4598 C   0  0  2  0  0  0  0  0  0  0  0  0
   11.2995    6.9898   -7.0757 O   0  0  0  0  0  0  0  0  0  0  0  0
   10.7192    6.8254   -8.3296 C   0  0  1  0  0  0  0  0  0  0  0  0
    9.4328    6.0470   -8.1942 C   0  0  0  0  0  0  0  0  0  0  0  0
    8.8268    5.8626   -9.4142 O   0  0  0  0  0  0  0  0  0  0  0  0
   10.5430    8.1491   -9.0003 C   0  0  1  0  0  0  0  0  0  0  0  0
    9.3291    8.7611   -8.6849 O   0  0  0  0  0  0  0  0  0  0  0  0
   11.7255    9.0203   -8.5958 C   0  0  1  0  0  0  0  0  0  0  0  0
   11.7975   10.1000   -9.4408 O   0  0  0  0  0  0  0  0  0  0  0  0
   11.5135    9.3902   -7.1517 C   0  0  1  0  0  0  0  0  0  0  0  0
   10.6188   10.4553   -7.0403 O   0  0  0  0  0  0  0  0  0  0  0  0
    9.8055    8.2241   -6.4534 H   0  0  0  0  0  0  0  0  0  0  0  0
   11.4144    6.1985   -8.9426 H   0  0  0  0  0  0  0  0  0  0  0  0
    8.7651    6.5190   -7.4552 H   0  0  0  0  0  0  0  0  0  0  0  0
    9.7273    5.0339   -7.8005 H   0  0  0  0  0  0  0  0  0  0  0  0
    8.9204    4.9228   -9.7383 H   0  0  0  0  0  0  0  0  0  0  0  0
   10.5589    8.0408  -10.1045 H   0  0  0  0  0  0  0  0  0  0  0  0
    9.3757    9.6956   -8.9944 H   0  0  0  0  0  0  0  0  0  0  0  0
   12.6247    8.3877   -8.6596 H   0  0  0  0  0  0  0  0  0  0  0  0
   12.1560   10.9208   -9.0480 H   0  0  0  0  0  0  0  0  0  0  0  0
   12.4319    9.6502   -6.6203 H   0  0  0  0  0  0  0  0  0  0  0  0
   11.0993   11.2924   -6.8304 H   0  0  0  0  0  0  0  0  0  0  0  0
  1  6  2  0
  2  3  2  0
  2  1  1  0
  3  4  1  0
  4  5  2  0
  6  5  1  0
  1  7  1  0
  3  8  1  0
  5  9  1  0
 10 11  1  0
 11 12  1  0
 12 13  1  0
 13 14  1  0
 12 15  1  0
 15 16  1  0
 15 17  1  0
 17 18  1  0
 17 19  1  0
 19 20  1  0
 19 10  1  0
 10 21  1  1
 12 22  1  6
 13 23  1  0
 13 24  1  0
 14 25  1  0
 15 26  1  6
 16 27  1  0
 17 28  1  1
 18 29  1  0
 19 30  1  1
 20 31  1  0
  2 10  1  0
M  END
>  <Score>  (1) 
-7.84691

$$$$

     RDKit          3D

 23 25  0  0  0  0  0  0  0  0999 V2000
   11.6894    9.2568   -4.3238 C   0  0  0  0  0  0  0  0  0  0  0  0
   11.3434    8.0924   -5.0395 C   0  0  0  0  0  0  0  0  0  0  0  0
   11.4163    6.8663   -4.3628 C   0  0  0  0  0  0  0  0  0  0  0  0
   11.8148    6.8690   -3.0602 N   0  0  0  0  0  0  0  0  0  0  0  0
   12.1404    8.0105   -2.4032 C   0  0  0  0  0  0  0  0  0  0  0  0
   12.0757    9.1931   -3.0376 N   0  0  0  0  0  0  0  0  0  0  0  0
   11.6357   10.1995   -4.8380 H   0  0  0  0  0  0  0  0  0  0  0  0
   11.1593    5.9717   -4.8840 H   0  0  0  0  0  0  0  0  0  0  0  0
   12.4444    7.9056   -1.3709 H   0  0  0  0  0  0  0  0  0  0  0  0
   10.9236    8.1578   -6.4329 C   0  0  0  0  0  0  0  0  0  0  0  0
   11.5603    8.9509   -7.3614 C   0  0  0  0  0  0  0  0  0  0  0  0
   11.1138    8.9742   -8.6829 C   0  0  0  0  0  0  0  0  0  0  0  0
   10.0259    8.2036   -9.0855 C   0  0  0  0  0  0  0  0  0  0  0  0
    9.3971    7.4188   -8.1624 C   0  0  0  0  0  0  0  0  0  0  0  0
    9.8563    7.4062   -6.8433 C   0  0  0  0  0  0  0  0  0  0  0  0
    8.3581    6.7542   -8.7905 O   0  0  0  0  0  0  0  0  0  0  0  0
    8.5207    6.8874  -10.1763 C   0  0  0  0  0  0  0  0  0  0  0  0
    9.3646    8.0167  -10.2872 O   0  0  0  0  0  0  0  0  0  0  0  0
   12.4005    9.5374   -7.0194 H   0  0  0  0  0  0  0  0  0  0  0  0
   11.6206    9.5985   -9.3971 H   0  0  0  0  0  0  0  0  0  0  0  0
    9.3089    6.7590   -6.1658 H   0  0  0  0  0  0  0  0  0  0  0  0
    7.5566    7.0353  -10.7078 H   0  0  0  0  0  0  0  0  0  0  0  0
    9.0742    6.0285  -10.6386 H   0  0  0  0  0  0  0  0  0  0  0  0
  1  6  2  0
  2  3  2  0
  2  1  1  0
  3  4  1  0
  4  5  2  0
  6  5  1  0
  1  7  1  0
  3  8  1  0
  5  9  1  0
 10 11  2  0
 11 12  1  0
 12 13  2  0
 13 14  1  0
 14 15  2  0
 14 16  1  0
 16 17  1  0
 17 18  1  0
 15 10  1  0
 18 13  1  0
 11 19  1  0
 12 20  1  0
 15 21  1  0
 17 22  1  0
 17 23  1  0
  2 10  1  0
M  END
>  <Score>  (1) 
-7.84214

$$$$

     RDKit          3D

 20 21  0  0  0  0  0  0  0  0999 V2000
   11.6883    9.2533   -4.3263 C   0  0  0  0  0  0  0  0  0  0  0  0
   11.3444    8.0939   -5.0367 C   0  0  0  0  0  0  0  0  0  0  0  0
   11.4159    6.8675   -4.3644 C   0  0  0  0  0  0  0  0  0  0  0  0
   11.8154    6.8710   -3.0590 N   0  0  0  0  0  0  0  0  0  0  0  0
   12.1400    8.0070   -2.4031 C   0  0  0  0  0  0  0  0  0  0  0  0
   12.0759    9.1954   -3.0375 N   0  0  0  0  0  0  0  0  0  0  0  0
   11.6317   10.2071   -4.8525 H   0  0  0  0  0  0  0  0  0  0  0  0
   11.1586    5.9694   -4.8847 H   0  0  0  0  0  0  0  0  0  0  0  0
   12.4562    8.0016   -1.3662 H   0  0  0  0  0  0  0  0  0  0  0  0
   10.9247    8.1395   -6.4256 C   0  0  0  0  0  0  0  0  0  0  0  0
   11.1290    9.2293   -7.2471 C   0  0  0  0  0  0  0  0  0  0  0  0
   10.7206    9.2513   -8.5661 C   0  0  0  0  0  0  0  0  0  0  0  0
   10.0791    8.1591   -9.1218 C   0  0  0  0  0  0  0  0  0  0  0  0
    9.5662    8.2012  -10.7979 Cl  0  0  0  0  0  0  0  0  0  0  0  0
    9.8702    7.0654   -8.3097 C   0  0  0  0  0  0  0  0  0  0  0  0
    9.0556    5.6724   -9.0112 Cl  0  0  0  0  0  0  0  0  0  0  0  0
   10.2836    7.0544   -6.9897 C   0  0  0  0  0  0  0  0  0  0  0  0
   11.6363   10.0896   -6.8042 H   0  0  0  0  0  0  0  0  0  0  0  0
   10.8920   10.1254   -9.2001 H   0  0  0  0  0  0  0  0  0  0  0  0
   10.1028    6.1687   -6.3682 H   0  0  0  0  0  0  0  0  0  0  0  0
  1  6  2  0
  2  3  2  0
  2  1  1  0
  3  4  1  0
  4  5  2  0
  6  5  1  0
  1  7  1  0
  3  8  1  0
  5  9  1  0
 10 11  2  0
 11 12  1  0
 12 13  2  0
 13 14  1  0
 13 15  1  0
 15 16  1  0
 15 17  2  0
 17 10  1  0
 11 18  1  0
 12 19  1  0
 17 20  1  0
  2 10  1  0
M  END
>  <Score>  (1) 
-7.83873

$$$$

     RDKit          3D

 23 25  0  0  0  0  0  0  0  0999 V2000
   11.6897    9.2588   -4.3236 C   0  0  0  0  0  0  0  0  0  0  0  0
   11.3434    8.0904   -5.0387 C   0  0  0  0  0  0  0  0  0  0  0  0
   11.4154    6.8658   -4.3656 C   0  0  0  0  0  0  0  0  0  0  0  0
   11.8163    6.8714   -3.0562 N   0  0  0  0  0  0  0  0  0  0  0  0
   12.1392    8.0070   -2.4060 C   0  0  0  0  0  0  0  0  0  0  0  0
   12.0760    9.1945   -3.0370 N   0  0  0  0  0  0  0  0  0  0  0  0
   11.6423   10.2232   -4.8233 H   0  0  0  0  0  0  0  0  0  0  0  0
   11.1602    5.9662   -4.8789 H   0  0  0  0  0  0  0  0  0  0  0  0
   12.4424    7.9276   -1.3860 H   0  0  0  0  0  0  0  0  0  0  0  0
   10.9381    8.1519   -6.3864 N   0  0  0  0  0  0  0  0  0  0  0  0
   11.8602    8.0781   -7.3514 C   0  0  0  0  0  0  0  0  0  0  0  0
   13.0771    7.9555   -7.0947 O   0  0  0  0  0  0  0  0  0  0  0  0
   11.4464    8.1396   -8.6581 C   0  0  0  0  0  0  0  0  0  0  0  0
   12.0839    8.0971   -9.8454 N   0  0  0  0  0  0  0  0  0  0  0  0
   11.1901    8.2004  -10.8463 C   0  0  0  0  0  0  0  0  0  0  0  0
   11.4426    8.1931  -11.8983 H   0  0  0  0  0  0  0  0  0  0  0  0
    9.9591    8.3115  -10.3165 N   0  0  0  0  0  0  0  0  0  0  0  0
   10.0898    8.2768   -8.9775 C   0  0  0  0  0  0  0  0  0  0  0  0
    9.2055    8.3463   -7.9671 N   0  0  0  0  0  0  0  0  0  0  0  0
    8.1654    8.4503   -8.1435 H   0  0  0  0  0  0  0  0  0  0  0  0
    9.6219    8.2849   -6.6891 C   0  0  0  0  0  0  0  0  0  0  0  0
    8.7600    8.3537   -5.7761 O   0  0  0  0  0  0  0  0  0  0  0  0
    9.0583    8.4074  -10.8264 H   0  0  0  0  0  0  0  0  0  0  0  0
  1  6  2  0
  2  3  2  0
  2  1  1  0
  3  4  1  0
  4  5  2  0
  6  5  1  0
  1  7  1  0
  3  8  1  0
  5  9  1  0
 10 11  1  0
 11 12  2  0
 11 13  1  0
 13 14  1  0
 14 15  2  0
 15 16  1  0
 15 17  1  0
 17 18  1  0
 18 19  1  0
 19 20  1  0
 19 21  1  0
 21 22  2  0
 21 10  1  0
 18 13  2  0
 17 23  1  0
  2 10  1  0
M  END
>  <Score>  (1) 
-7.83701

$$$$

     RDKit          3D

 31 32  0  0  0  0  0  0  0  0999 V2000
   11.6890    9.2572   -4.3253 C   0  0  0  0  0  0  0  0  0  0  0  0
   11.3437    8.0941   -5.0390 C   0  0  0  0  0  0  0  0  0  0  0  0
   11.4163    6.8638   -4.3618 C   0  0  0  0  0  0  0  0  0  0  0  0
   11.8148    6.8689   -3.0603 N   0  0  0  0  0  0  0  0  0  0  0  0
   12.1399    8.0106   -2.4049 C   0  0  0  0  0  0  0  0  0  0  0  0
   12.0763    9.1935   -3.0357 N   0  0  0  0  0  0  0  0  0  0  0  0
   11.6413   10.2211   -4.8256 H   0  0  0  0  0  0  0  0  0  0  0  0
   11.1664    5.9503   -4.8528 H   0  0  0  0  0  0  0  0  0  0  0  0
   12.4483    7.9135   -1.3617 H   0  0  0  0  0  0  0  0  0  0  0  0
   10.9167    8.1607   -6.4597 C   0  0  2  0  0  0  0  0  0  0  0  0
   10.6493    6.8660   -6.8719 O   0  0  0  0  0  0  0  0  0  0  0  0
   10.3482    6.7477   -8.2086 C   0  0  2  0  0  0  0  0  0  0  0  0
   10.4135    5.2677   -8.5528 C   0  0  0  0  0  0  0  0  0  0  0  0
    9.5091    4.5267   -7.8046 O   0  0  0  0  0  0  0  0  0  0  0  0
   11.3630    7.4258   -9.1063 C   0  0  2  0  0  0  0  0  0  0  0  0
   11.7521    6.6152  -10.1610 O   0  0  0  0  0  0  0  0  0  0  0  0
   12.5383    7.7919   -8.2129 C   0  0  1  0  0  0  0  0  0  0  0  0
   13.6215    8.2482   -8.9483 O   0  0  0  0  0  0  0  0  0  0  0  0
   11.9957    8.8239   -7.2590 C   0  0  1  0  0  0  0  0  0  0  0  0
   11.4219    9.8377   -8.0569 O   0  0  0  0  0  0  0  0  0  0  0  0
    9.9949    8.7996   -6.4820 H   0  0  0  0  0  0  0  0  0  0  0  0
    9.3152    7.0800   -8.4569 H   0  0  0  0  0  0  0  0  0  0  0  0
   11.4508    4.9388   -8.3146 H   0  0  0  0  0  0  0  0  0  0  0  0
   10.2693    5.1034   -9.6350 H   0  0  0  0  0  0  0  0  0  0  0  0
    9.5779    4.8221   -6.8635 H   0  0  0  0  0  0  0  0  0  0  0  0
   10.9129    8.3654   -9.4951 H   0  0  0  0  0  0  0  0  0  0  0  0
   12.4662    5.9728   -9.8763 H   0  0  0  0  0  0  0  0  0  0  0  0
   12.7849    6.8612   -7.6434 H   0  0  0  0  0  0  0  0  0  0  0  0
   14.4869    8.0598   -8.5282 H   0  0  0  0  0  0  0  0  0  0  0  0
   12.7723    9.3164   -6.6522 H   0  0  0  0  0  0  0  0  0  0  0  0
   11.4729   10.6850   -7.5696 H   0  0  0  0  0  0  0  0  0  0  0  0
  1  6  2  0
  2  3  2  0
  2  1  1  0
  3  4  1  0
  4  5  2  0
  6  5  1  0
  1  7  1  0
  3  8  1  0
  5  9  1  0
 10 11  1  0
 11 12  1  0
 12 13  1  0
 13 14  1  0
 12 15  1  0
 15 16  1  0
 15 17  1  0
 17 18  1  0
 17 19  1  0
 19 20  1  0
 19 10  1  0
 10 21  1  1
 12 22  1  1
 13 23  1  0
 13 24  1  0
 14 25  1  0
 15 26  1  6
 16 27  1  0
 17 28  1  1
 18 29  1  0
 19 30  1  1
 20 31  1  0
  2 10  1  0
M  END
>  <Score>  (1) 
-7.82796

$$$$

     RDKit          3D

 22 24  0  0  0  0  0  0  0  0999 V2000
   11.6869    9.2541   -4.3308 C   0  0  0  0  0  0  0  0  0  0  0  0
   11.3470    8.0951   -5.0287 C   0  0  0  0  0  0  0  0  0  0  0  0
   11.4149    6.8692   -4.3684 C   0  0  0  0  0  0  0  0  0  0  0  0
   11.8163    6.8690   -3.0555 N   0  0  0  0  0  0  0  0  0  0  0  0
   12.1395    8.0059   -2.4044 C   0  0  0  0  0  0  0  0  0  0  0  0
   12.0753    9.1947   -3.0392 N   0  0  0  0  0  0  0  0  0  0  0  0
   11.6221   10.1730   -4.8712 H   0  0  0  0  0  0  0  0  0  0  0  0
   11.1568    5.9726   -4.8923 H   0  0  0  0  0  0  0  0  0  0  0  0
   12.4489    7.9941   -1.3883 H   0  0  0  0  0  0  0  0  0  0  0  0
   10.9369    8.2267   -6.4171 C   0  0  0  0  0  0  0  0  0  0  0  0
   10.7652    7.6390   -7.3748 N   0  0  0  0  0  0  0  0  0  0  0  0
   10.3643    8.0388   -8.5732 C   0  0  0  0  0  0  0  0  0  0  0  0
   10.1628    7.2944   -9.7294 C   0  0  0  0  0  0  0  0  0  0  0  0
    9.7418    7.9081  -10.8744 C   0  0  0  0  0  0  0  0  0  0  0  0
    9.4903    9.2555  -10.9835 C   0  0  0  0  0  0  0  0  0  0  0  0
    9.6872   10.0005   -9.8436 C   0  0  0  0  0  0  0  0  0  0  0  0
   10.1184    9.3860   -8.6626 C   0  0  0  0  0  0  0  0  0  0  0  0
   10.4753    9.9574   -7.0523 S   0  0  0  0  0  0  0  0  0  0  0  0
   10.3214    6.2229   -9.7907 H   0  0  0  0  0  0  0  0  0  0  0  0
    9.5845    7.3101  -11.7864 H   0  0  0  0  0  0  0  0  0  0  0  0
    9.1615    9.6991  -11.8982 H   0  0  0  0  0  0  0  0  0  0  0  0
    9.5243   11.0655   -9.8014 H   0  0  0  0  0  0  0  0  0  0  0  0
  1  6  2  0
  2  3  2  0
  2  1  1  0
  3  4  1  0
  4  5  2  0
  6  5  1  0
  1  7  1  0
  3  8  1  0
  5  9  1  0
 10 11  2  0
 11 12  1  0
 12 13  2  0
 13 14  1  0
 14 15  2  0
 15 16  1  0
 16 17  2  0
 17 18  1  0
 18 10  1  0
 17 12  1  0
 13 19  1  0
 14 20  1  0
 15 21  1  0
 16 22  1  0
  2 10  1  0
M  END
>  <Score>  (1) 
-7.81603

$$$$

     RDKit          3D

 21 22  0  0  0  0  0  0  0  0999 V2000
   11.6895    9.2558   -4.3233 C   0  0  0  0  0  0  0  0  0  0  0  0
   11.3441    8.0928   -5.0373 C   0  0  0  0  0  0  0  0  0  0  0  0
   11.4160    6.8667   -4.3640 C   0  0  0  0  0  0  0  0  0  0  0  0
   11.8152    6.8677   -3.0584 N   0  0  0  0  0  0  0  0  0  0  0  0
   12.1395    8.0105   -2.4063 C   0  0  0  0  0  0  0  0  0  0  0  0
   12.0758    9.1944   -3.0377 N   0  0  0  0  0  0  0  0  0  0  0  0
   11.6239   10.1821   -4.8692 H   0  0  0  0  0  0  0  0  0  0  0  0
   11.1553    5.9941   -4.9043 H   0  0  0  0  0  0  0  0  0  0  0  0
   12.4459    7.9451   -1.3811 H   0  0  0  0  0  0  0  0  0  0  0  0
   10.9263    8.1790   -6.4339 C   0  0  0  0  0  0  0  0  0  0  0  0
   11.3550    9.1673   -7.2950 C   0  0  0  0  0  0  0  0  0  0  0  0
   10.9267    9.1993   -8.6078 C   0  0  0  0  0  0  0  0  0  0  0  0
   10.0586    8.2575   -9.1228 C   0  0  0  0  0  0  0  0  0  0  0  0
    9.5995    8.2677  -10.4797 C   0  0  0  0  0  0  0  0  0  0  0  0
    9.2337    8.2871  -11.5765 N   0  0  0  0  0  0  0  0  0  0  0  0
    9.6195    7.2602   -8.2730 C   0  0  0  0  0  0  0  0  0  0  0  0
    8.5117    6.0292   -8.8695 Cl  0  0  0  0  0  0  0  0  0  0  0  0
   10.0520    7.2409   -6.9746 C   0  0  0  0  0  0  0  0  0  0  0  0
   12.0361    9.9045   -6.8857 H   0  0  0  0  0  0  0  0  0  0  0  0
   11.2647    9.9758   -9.2818 H   0  0  0  0  0  0  0  0  0  0  0  0
    9.7001    6.4595   -6.3326 H   0  0  0  0  0  0  0  0  0  0  0  0
  1  6  2  0
  2  3  2  0
  2  1  1  0
  3  4  1  0
  4  5  2  0
  6  5  1  0
  1  7  1  0
  3  8  1  0
  5  9  1  0
 10 11  2  0
 11 12  1  0
 12 13  2  0
 13 14  1  0
 14 15  3  0
 13 16  1  0
 16 17  1  0
 16 18  2  0
 18 10  1  0
 11 19  1  0
 12 20  1  0
 18 21  1  0
  2 10  1  0
M  END
>  <Score>  (1) 
-7.80643

$$$$

     RDKit          3D

 26 28  0  0  0  0  0  0  0  0999 V2000
   11.6895    9.2580   -4.3239 C   0  0  0  0  0  0  0  0  0  0  0  0
   11.3438    8.0882   -5.0366 C   0  0  0  0  0  0  0  0  0  0  0  0
   11.4149    6.8694   -4.3686 C   0  0  0  0  0  0  0  0  0  0  0  0
   11.8172    6.8720   -3.0536 N   0  0  0  0  0  0  0  0  0  0  0  0
   12.1388    8.0037   -2.4060 C   0  0  0  0  0  0  0  0  0  0  0  0
   12.0758    9.1968   -3.0383 N   0  0  0  0  0  0  0  0  0  0  0  0
   11.6549   10.2227   -4.7817 H   0  0  0  0  0  0  0  0  0  0  0  0
   11.1598    5.9469   -4.8733 H   0  0  0  0  0  0  0  0  0  0  0  0
   12.4437    7.9326   -1.3834 H   0  0  0  0  0  0  0  0  0  0  0  0
   10.9377    8.1716   -6.3947 N   0  0  0  0  0  0  0  0  0  0  0  0
   10.2763    7.1636   -7.1855 C   0  0  0  0  0  0  0  0  0  0  0  0
   10.5338    7.5633   -8.5821 C   0  0  0  0  0  0  0  0  0  0  0  0
   10.3631    6.9104   -9.8120 C   0  0  0  0  0  0  0  0  0  0  0  0
   10.6884    7.5206  -11.0040 C   0  0  0  0  0  0  0  0  0  0  0  0
   11.1930    8.8024  -10.9816 C   0  0  0  0  0  0  0  0  0  0  0  0
   11.3713    9.4676   -9.7895 C   0  0  0  0  0  0  0  0  0  0  0  0
   11.0347    8.8298   -8.5934 C   0  0  0  0  0  0  0  0  0  0  0  0
   11.1394    9.3383   -7.2211 C   0  0  0  0  0  0  0  0  0  0  0  0
   10.8061    6.2048   -7.0025 H   0  0  0  0  0  0  0  0  0  0  0  0
    9.1956    7.0979   -6.9405 H   0  0  0  0  0  0  0  0  0  0  0  0
    9.9625    5.9017   -9.7805 H   0  0  0  0  0  0  0  0  0  0  0  0
   10.5468    6.9945  -11.9375 H   0  0  0  0  0  0  0  0  0  0  0  0
   11.4347    9.2432  -11.9373 H   0  0  0  0  0  0  0  0  0  0  0  0
   11.7696   10.4760   -9.7928 H   0  0  0  0  0  0  0  0  0  0  0  0
   10.3145   10.0527   -7.0416 H   0  0  0  0  0  0  0  0  0  0  0  0
   12.1382    9.7979   -7.0354 H   0  0  0  0  0  0  0  0  0  0  0  0
  1  6  2  0
  2  3  2  0
  2  1  1  0
  3  4  1  0
  4  5  2  0
  6  5  1  0
  1  7  1  0
  3  8  1  0
  5  9  1  0
 10 11  1  0
 11 12  1  0
 12 13  2  0
 13 14  1  0
 14 15  2  0
 15 16  1  0
 16 17  2  0
 17 18  1  0
 18 10  1  0
 17 12  1  0
 11 19  1  0
 11 20  1  0
 13 21  1  0
 14 22  1  0
 15 23  1  0
 16 24  1  0
 18 25  1  0
 18 26  1  0
  2 10  1  0
M  END
>  <Score>  (1) 
-7.77782

$$$$

     RDKit          3D

 26 27  0  0  0  0  0  0  0  0999 V2000
   11.6901    9.2595   -4.3227 C   0  0  0  0  0  0  0  0  0  0  0  0
   11.3431    8.0875   -5.0384 C   0  0  0  0  0  0  0  0  0  0  0  0
   11.4148    6.8659   -4.3675 C   0  0  0  0  0  0  0  0  0  0  0  0
   11.8159    6.8718   -3.0578 N   0  0  0  0  0  0  0  0  0  0  0  0
   12.1399    8.0080   -2.4039 C   0  0  0  0  0  0  0  0  0  0  0  0
   12.0762    9.1953   -3.0367 N   0  0  0  0  0  0  0  0  0  0  0  0
   11.6428   10.2090   -4.8175 H   0  0  0  0  0  0  0  0  0  0  0  0
   11.1587    5.9582   -4.8805 H   0  0  0  0  0  0  0  0  0  0  0  0
   12.4428    7.8894   -1.3720 H   0  0  0  0  0  0  0  0  0  0  0  0
   10.9285    8.1773   -6.4283 C   0  0  0  0  0  0  0  0  0  0  0  0
   11.7857    8.6660   -7.3885 C   0  0  0  0  0  0  0  0  0  0  0  0
   11.4175    8.7626   -8.7230 C   0  0  0  0  0  0  0  0  0  0  0  0
   10.1406    8.3484   -9.0802 C   0  0  0  0  0  0  0  0  0  0  0  0
    9.6135    8.4426  -10.7535 S   0  0  0  0  0  6  0  0  0  0  0  0
   10.0257    6.9100  -11.5859 C   0  0  0  0  0  0  0  0  0  0  0  0
    8.1078    8.6180  -10.8024 O   0  0  0  0  0  0  0  0  0  0  0  0
   10.3203    9.5870  -11.4000 O   0  0  0  0  0  0  0  0  0  0  0  0
    9.2573    7.8544   -8.1462 C   0  0  0  0  0  0  0  0  0  0  0  0
    9.6783    7.7811   -6.8313 C   0  0  0  0  0  0  0  0  0  0  0  0
   12.7873    8.9988   -7.1509 H   0  0  0  0  0  0  0  0  0  0  0  0
   12.0904    9.1471   -9.4796 H   0  0  0  0  0  0  0  0  0  0  0  0
    9.4298    6.8980  -12.5122 H   0  0  0  0  0  0  0  0  0  0  0  0
    9.7540    6.0993  -10.8911 H   0  0  0  0  0  0  0  0  0  0  0  0
   11.1050    6.8666  -11.7710 H   0  0  0  0  0  0  0  0  0  0  0  0
    8.2811    7.5509   -8.4906 H   0  0  0  0  0  0  0  0  0  0  0  0
    8.9785    7.3904   -6.0947 H   0  0  0  0  0  0  0  0  0  0  0  0
  1  6  2  0
  2  3  2  0
  2  1  1  0
  3  4  1  0
  4  5  2  0
  6  5  1  0
  1  7  1  0
  3  8  1  0
  5  9  1  0
 10 11  2  0
 11 12  1  0
 12 13  2  0
 13 14  1  0
 14 15  1  0
 14 16  2  0
 14 17  2  0
 13 18  1  0
 18 19  2  0
 19 10  1  0
 11 20  1  0
 12 21  1  0
 15 22  1  0
 15 23  1  0
 15 24  1  0
 18 25  1  0
 19 26  1  0
  2 10  1  0
M  END
>  <Score>  (1) 
-7.75787

$$$$

     RDKit          3D

 21 23  0  0  0  0  0  0  0  0999 V2000
   12.3027    8.1205   -2.3007 C   0  0  0  0  0  0  0  0  0  0  0  0
   12.0215    6.8834   -2.9127 C   0  0  0  0  0  0  0  0  0  0  0  0
   11.5246    6.8968   -4.2243 C   0  0  0  0  0  0  0  0  0  0  0  0
   11.3430    8.1113   -4.8301 N   0  0  0  0  0  0  0  0  0  0  0  0
   11.6244    9.2765   -4.2101 C   0  0  0  0  0  0  0  0  0  0  0  0
   12.0987    9.2826   -2.9601 N   0  0  0  0  0  0  0  0  0  0  0  0
   12.6886    8.0888   -1.2800 H   0  0  0  0  0  0  0  0  0  0  0  0
   12.1781    5.9519   -2.4024 H   0  0  0  0  0  0  0  0  0  0  0  0
   11.2861    5.9990   -4.7592 H   0  0  0  0  0  0  0  0  0  0  0  0
   11.3842   10.5032   -4.9719 C   0  0  0  0  0  0  0  0  0  0  0  0
   10.1013   10.9872   -5.1826 C   0  0  0  0  0  0  0  0  0  0  0  0
    9.8624   12.1450   -5.9007 C   0  0  0  0  0  0  0  0  0  0  0  0
   10.9484   12.8255   -6.4155 C   0  0  0  0  0  0  0  0  0  0  0  0
   11.0644   13.9691   -7.1514 N   0  0  0  0  0  0  0  0  0  0  0  0
   12.3431   14.1883   -7.3876 N   0  0  0  0  0  0  0  0  0  0  0  0
   13.0260   13.1895   -6.8042 C   0  0  0  0  0  0  0  0  0  0  0  0
   14.1094   13.0567   -6.8018 H   0  0  0  0  0  0  0  0  0  0  0  0
   12.1826   12.3341   -6.1965 N   0  0  0  0  0  0  0  0  0  0  0  0
   12.3860   11.2229   -5.5054 N   0  0  0  0  0  0  0  0  0  0  0  0
    9.2853   10.4207   -4.7606 H   0  0  0  0  0  0  0  0  0  0  0  0
    8.8524   12.5283   -6.0680 H   0  0  0  0  0  0  0  0  0  0  0  0
  2  1  2  0
  3  2  1  0
  4  3  2  0
  4  5  1  0
  5  6  2  0
  6  1  1  0
  1  7  1  0
  2  8  1  0
  3  9  1  0
 10 11  1  0
 11 12  2  0
 12 13  1  0
 13 14  2  0
 14 15  1  0
 15 16  2  0
 16 17  1  0
 16 18  1  0
 18 19  1  0
 19 10  2  0
 18 13  1  0
 11 20  1  0
 12 21  1  0
  5 10  1  0
M  END
>  <Score>  (1) 
-7.53267

$$$$

     RDKit          3D

 32 33  0  0  0  0  0  0  0  0999 V2000
   11.6897    9.2570   -4.3228 C   0  0  0  0  0  0  0  0  0  0  0  0
   11.3439    8.0886   -5.0363 C   0  0  0  0  0  0  0  0  0  0  0  0
   11.4152    6.8705   -4.3680 C   0  0  0  0  0  0  0  0  0  0  0  0
   11.8166    6.8704   -3.0550 N   0  0  0  0  0  0  0  0  0  0  0  0
   12.1394    8.0057   -2.4048 C   0  0  0  0  0  0  0  0  0  0  0  0
   12.0752    9.1958   -3.0400 N   0  0  0  0  0  0  0  0  0  0  0  0
   11.6303   10.2053   -4.8562 H   0  0  0  0  0  0  0  0  0  0  0  0
   11.1636    5.9506   -4.8620 H   0  0  0  0  0  0  0  0  0  0  0  0
   12.4472    7.9809   -1.3892 H   0  0  0  0  0  0  0  0  0  0  0  0
   10.9612    8.2128   -6.3324 O   0  0  0  0  0  0  0  0  0  0  0  0
   10.3084    9.3103   -6.9335 C   0  0  1  0  0  0  0  0  0  0  0  0
   11.0941    9.6906   -8.0182 O   0  0  0  0  0  0  0  0  0  0  0  0
   10.3631   10.1460   -9.0958 C   0  0  1  0  0  0  0  0  0  0  0  0
   11.3712   10.6326  -10.1317 C   0  0  0  0  0  0  0  0  0  0  0  0
   12.1277   11.6553   -9.5621 O   0  0  0  0  0  0  0  0  0  0  0  0
    9.5674    9.0413   -9.7669 C   0  0  2  0  0  0  0  0  0  0  0  0
    8.2975    9.5172  -10.0919 O   0  0  0  0  0  0  0  0  0  0  0  0
    9.3564    7.9677   -8.6958 C   0  0  2  0  0  0  0  0  0  0  0  0
    8.3199    7.1097   -9.0316 O   0  0  0  0  0  0  0  0  0  0  0  0
    8.9744    8.7386   -7.4464 C   0  0  2  0  0  0  0  0  0  0  0  0
    8.0937    9.7365   -7.7999 O   0  0  0  0  0  0  0  0  0  0  0  0
   10.0951   10.1460   -6.2628 H   0  0  0  0  0  0  0  0  0  0  0  0
    9.7285   11.0277   -8.8598 H   0  0  0  0  0  0  0  0  0  0  0  0
   10.9029   10.9004  -11.0793 H   0  0  0  0  0  0  0  0  0  0  0  0
   12.0742    9.7642  -10.2798 H   0  0  0  0  0  0  0  0  0  0  0  0
   12.0110   12.4829  -10.0939 H   0  0  0  0  0  0  0  0  0  0  0  0
   10.0634    8.6458  -10.6541 H   0  0  0  0  0  0  0  0  0  0  0  0
    8.2876    9.9208  -10.9950 H   0  0  0  0  0  0  0  0  0  0  0  0
   10.3258    7.4434   -8.5486 H   0  0  0  0  0  0  0  0  0  0  0  0
    8.5020    6.5956   -9.8399 H   0  0  0  0  0  0  0  0  0  0  0  0
    8.5559    8.0514   -6.6768 H   0  0  0  0  0  0  0  0  0  0  0  0
    7.7771   10.2270   -6.9948 H   0  0  0  0  0  0  0  0  0  0  0  0
  1  6  2  0
  2  3  2  0
  2  1  1  0
  3  4  1  0
  4  5  2  0
  6  5  1  0
  1  7  1  0
  3  8  1  0
  5  9  1  0
 10 11  1  0
 11 12  1  0
 12 13  1  0
 13 14  1  0
 14 15  1  0
 13 16  1  0
 16 17  1  0
 16 18  1  0
 18 19  1  0
 18 20  1  0
 20 21  1  0
 20 11  1  0
 11 22  1  1
 13 23  1  1
 14 24  1  0
 14 25  1  0
 15 26  1  0
 16 27  1  6
 17 28  1  0
 18 29  1  1
 19 30  1  0
 20 31  1  1
 21 32  1  0
  2 10  1  0
M  END
>  <Score>  (1) 
-7.75393

$$$$

     RDKit          3D

 31 32  0  0  0  0  0  0  0  0999 V2000
   11.6891    9.2569   -4.3248 C   0  0  0  0  0  0  0  0  0  0  0  0
   11.3437    8.0932   -5.0386 C   0  0  0  0  0  0  0  0  0  0  0  0
   11.4160    6.8649   -4.3632 C   0  0  0  0  0  0  0  0  0  0  0  0
   11.8153    6.8697   -3.0590 N   0  0  0  0  0  0  0  0  0  0  0  0
   12.1398    8.0089   -2.4048 C   0  0  0  0  0  0  0  0  0  0  0  0
   12.0761    9.1944   -3.0366 N   0  0  0  0  0  0  0  0  0  0  0  0
   11.6198   10.1767   -4.8801 H   0  0  0  0  0  0  0  0  0  0  0  0
   11.1645    5.9565   -4.8612 H   0  0  0  0  0  0  0  0  0  0  0  0
   12.4471    7.9471   -1.3774 H   0  0  0  0  0  0  0  0  0  0  0  0
   10.9179    8.1698   -6.4589 C   0  0  2  0  0  0  0  0  0  0  0  0
   10.0274    7.1479   -6.7772 O   0  0  0  0  0  0  0  0  0  0  0  0
    9.5413    7.3353   -8.0520 C   0  0  2  0  0  0  0  0  0  0  0  0
    8.5591    6.2056   -8.3571 C   0  0  0  0  0  0  0  0  0  0  0  0
    7.5105    6.2023   -7.4678 O   0  0  0  0  0  0  0  0  0  0  0  0
   10.6267    7.3099   -9.0932 C   0  0  1  0  0  0  0  0  0  0  0  0
   10.6788    8.5329   -9.7790 O   0  0  0  0  0  0  0  0  0  0  0  0
   11.9568    7.1140   -8.4031 C   0  0  1  0  0  0  0  0  0  0  0  0
   13.0092    7.1021   -9.3179 O   0  0  0  0  0  0  0  0  0  0  0  0
   12.1118    8.2058   -7.3748 C   0  0  2  0  0  0  0  0  0  0  0  0
   13.3205    8.0386   -6.6729 O   0  0  0  0  0  0  0  0  0  0  0  0
   10.3282    9.1259   -6.5709 H   0  0  0  0  0  0  0  0  0  0  0  0
    8.9460    8.2731   -8.0991 H   0  0  0  0  0  0  0  0  0  0  0  0
    8.1781    6.3508   -9.3888 H   0  0  0  0  0  0  0  0  0  0  0  0
    9.1324    5.2633   -8.2732 H   0  0  0  0  0  0  0  0  0  0  0  0
    7.7076    5.6474   -6.6645 H   0  0  0  0  0  0  0  0  0  0  0  0
   10.4968    6.4548   -9.7894 H   0  0  0  0  0  0  0  0  0  0  0  0
   11.0718    8.3255  -10.6630 H   0  0  0  0  0  0  0  0  0  0  0  0
   11.9858    6.1473   -7.8725 H   0  0  0  0  0  0  0  0  0  0  0  0
   13.0756    8.0205   -9.6800 H   0  0  0  0  0  0  0  0  0  0  0  0
   12.1302    9.1730   -7.9341 H   0  0  0  0  0  0  0  0  0  0  0  0
   14.0256    8.5793   -7.1123 H   0  0  0  0  0  0  0  0  0  0  0  0
  1  6  2  0
  2  3  2  0
  2  1  1  0
  3  4  1  0
  4  5  2  0
  6  5  1  0
  1  7  1  0
  3  8  1  0
  5  9  1  0
 10 11  1  0
 11 12  1  0
 12 13  1  0
 13 14  1  0
 12 15  1  0
 15 16  1  0
 15 17  1  0
 17 18  1  0
 17 19  1  0
 19 20  1  0
 19 10  1  0
 10 21  1  1
 12 22  1  1
 13 23  1  0
 13 24  1  0
 14 25  1  0
 15 26  1  6
 16 27  1  0
 17 28  1  1
 18 29  1  0
 19 30  1  6
 20 31  1  0
  2 10  1  0
M  END
>  <Score>  (1) 
-7.73126

$$$$

     RDKit          3D

 20 21  0  0  0  0  0  0  0  0999 V2000
   11.6886    9.2551   -4.3255 C   0  0  0  0  0  0  0  0  0  0  0  0
   11.3446    8.0921   -5.0353 C   0  0  0  0  0  0  0  0  0  0  0  0
   11.4158    6.8686   -4.3657 C   0  0  0  0  0  0  0  0  0  0  0  0
   11.8148    6.8655   -3.0586 N   0  0  0  0  0  0  0  0  0  0  0  0
   12.1402    8.0093   -2.4037 C   0  0  0  0  0  0  0  0  0  0  0  0
   12.0760    9.1974   -3.0382 N   0  0  0  0  0  0  0  0  0  0  0  0
   11.6446   10.2173   -4.8090 H   0  0  0  0  0  0  0  0  0  0  0  0
   11.1587    5.9587   -4.8907 H   0  0  0  0  0  0  0  0  0  0  0  0
   12.4536    8.0057   -1.3751 H   0  0  0  0  0  0  0  0  0  0  0  0
   10.9239    8.1411   -6.4250 C   0  0  0  0  0  0  0  0  0  0  0  0
   11.0858    9.2531   -7.1762 C   0  0  0  0  0  0  0  0  0  0  0  0
   10.6781    9.2650   -8.4938 C   0  0  0  0  0  0  0  0  0  0  0  0
   10.1018    8.1509   -9.0651 C   0  0  0  0  0  0  0  0  0  0  0  0
    9.7026    8.1659  -10.3540 F   0  0  0  0  0  0  0  0  0  0  0  0
    9.9495    7.0286   -8.2717 C   0  0  0  0  0  0  0  0  0  0  0  0
    9.2177    5.5732   -8.9448 Cl  0  0  0  0  0  0  0  0  0  0  0  0
   10.3547    7.0195   -6.9647 C   0  0  0  0  0  0  0  0  0  0  0  0
   11.5364   10.1349   -6.7459 H   0  0  0  0  0  0  0  0  0  0  0  0
   10.8005   10.1593   -9.1204 H   0  0  0  0  0  0  0  0  0  0  0  0
   10.2085    6.1125   -6.3880 H   0  0  0  0  0  0  0  0  0  0  0  0
  1  6  2  0
  2  3  2  0
  2  1  1  0
  3  4  1  0
  4  5  2  0
  6  5  1  0
  1  7  1  0
  3  8  1  0
  5  9  1  0
 10 11  2  0
 11 12  1  0
 12 13  2  0
 13 14  1  0
 13 15  1  0
 15 16  1  0
 15 17  2  0
 17 10  1  0
 11 18  1  0
 12 19  1  0
 17 20  1  0
  2 10  1  0
M  END
>  <Score>  (1) 
-7.73102

$$$$

     RDKit          3D

 31 32  0  0  0  0  0  0  0  0999 V2000
   11.6894    9.2579   -4.3241 C   0  0  0  0  0  0  0  0  0  0  0  0
   11.3436    8.0926   -5.0388 C   0  0  0  0  0  0  0  0  0  0  0  0
   11.4160    6.8646   -4.3632 C   0  0  0  0  0  0  0  0  0  0  0  0
   11.8154    6.8700   -3.0589 N   0  0  0  0  0  0  0  0  0  0  0  0
   12.1396    8.0084   -2.4050 C   0  0  0  0  0  0  0  0  0  0  0  0
   12.0760    9.1945   -3.0370 N   0  0  0  0  0  0  0  0  0  0  0  0
   11.6363   10.1879   -4.8302 H   0  0  0  0  0  0  0  0  0  0  0  0
   11.1575    5.9808   -4.8928 H   0  0  0  0  0  0  0  0  0  0  0  0
   12.4549    8.0074   -1.3736 H   0  0  0  0  0  0  0  0  0  0  0  0
   10.9194    8.1763   -6.4564 C   0  0  1  0  0  0  0  0  0  0  0  0
   10.9464    6.9273   -7.0754 O   0  0  0  0  0  0  0  0  0  0  0  0
    9.9717    6.8305   -8.0865 C   0  0  1  0  0  0  0  0  0  0  0  0
   10.2715    5.5495   -8.8514 C   0  0  0  0  0  0  0  0  0  0  0  0
   11.5472    5.6352   -9.3897 O   0  0  0  0  0  0  0  0  0  0  0  0
    8.6380    6.7406   -7.3756 C   0  0  2  0  0  0  0  0  0  0  0  0
    7.6057    6.4334   -8.2631 O   0  0  0  0  0  0  0  0  0  0  0  0
    8.4189    8.0295   -6.6474 C   0  0  1  0  0  0  0  0  0  0  0  0
    7.9481    7.8687   -5.3539 O   0  0  0  0  0  0  0  0  0  0  0  0
    9.6265    8.9029   -6.6388 C   0  0  1  0  0  0  0  0  0  0  0  0
    9.5291    9.8915   -5.6606 O   0  0  0  0  0  0  0  0  0  0  0  0
   11.7079    8.7863   -6.9890 H   0  0  0  0  0  0  0  0  0  0  0  0
   10.0304    7.6572   -8.8036 H   0  0  0  0  0  0  0  0  0  0  0  0
   10.1427    4.6519   -8.2171 H   0  0  0  0  0  0  0  0  0  0  0  0
    9.5609    5.4437   -9.7055 H   0  0  0  0  0  0  0  0  0  0  0  0
   12.2092    5.2195   -8.7968 H   0  0  0  0  0  0  0  0  0  0  0  0
    8.7193    5.8693   -6.6785 H   0  0  0  0  0  0  0  0  0  0  0  0
    6.9022    5.9848   -7.7203 H   0  0  0  0  0  0  0  0  0  0  0  0
    7.6048    8.5786   -7.2038 H   0  0  0  0  0  0  0  0  0  0  0  0
    6.9596    7.8160   -5.3198 H   0  0  0  0  0  0  0  0  0  0  0  0
    9.6475    9.4511   -7.6202 H   0  0  0  0  0  0  0  0  0  0  0  0
    9.1368   10.7339   -6.0028 H   0  0  0  0  0  0  0  0  0  0  0  0
  1  6  2  0
  2  3  2  0
  2  1  1  0
  3  4  1  0
  4  5  2  0
  6  5  1  0
  1  7  1  0
  3  8  1  0
  5  9  1  0
 10 11  1  0
 11 12  1  0
 12 13  1  0
 13 14  1  0
 12 15  1  0
 15 16  1  0
 15 17  1  0
 17 18  1  0
 17 19  1  0
 19 20  1  0
 19 10  1  0
 10 21  1  6
 12 22  1  6
 13 23  1  0
 13 24  1  0
 14 25  1  0
 15 26  1  1
 16 27  1  0
 17 28  1  6
 18 29  1  0
 19 30  1  6
 20 31  1  0
  2 10  1  0
M  END
>  <Score>  (1) 
-7.72708

$$$$

     RDKit          3D

 31 32  0  0  0  0  0  0  0  0999 V2000
   11.6896    9.2583   -4.3236 C   0  0  0  0  0  0  0  0  0  0  0  0
   11.3435    8.0914   -5.0386 C   0  0  0  0  0  0  0  0  0  0  0  0
   11.4158    6.8653   -4.3641 C   0  0  0  0  0  0  0  0  0  0  0  0
   11.8154    6.8698   -3.0585 N   0  0  0  0  0  0  0  0  0  0  0  0
   12.1397    8.0087   -2.4049 C   0  0  0  0  0  0  0  0  0  0  0  0
   12.0759    9.1945   -3.0373 N   0  0  0  0  0  0  0  0  0  0  0  0
   11.6434   10.2257   -4.8204 H   0  0  0  0  0  0  0  0  0  0  0  0
   11.1576    5.9500   -4.8816 H   0  0  0  0  0  0  0  0  0  0  0  0
   12.4552    8.0177   -1.3762 H   0  0  0  0  0  0  0  0  0  0  0  0
   10.9171    8.1729   -6.4627 C   0  0  2  0  0  0  0  0  0  0  0  0
    9.6394    7.6587   -6.5324 O   0  0  0  0  0  0  0  0  0  0  0  0
    9.1116    7.5657   -7.7858 C   0  0  2  0  0  0  0  0  0  0  0  0
    7.9612    6.5520   -7.6972 C   0  0  0  0  0  0  0  0  0  0  0  0
    7.3551    6.3825   -8.9179 O   0  0  0  0  0  0  0  0  0  0  0  0
   10.0882    6.9586   -8.7999 C   0  0  1  0  0  0  0  0  0  0  0  0
   10.6052    8.0206   -9.5361 O   0  0  0  0  0  0  0  0  0  0  0  0
   11.1645    6.2808   -7.9688 C   0  0  1  0  0  0  0  0  0  0  0  0
   11.9859    5.4775   -8.7460 O   0  0  0  0  0  0  0  0  0  0  0  0
   11.9227    7.3914   -7.2749 C   0  0  1  0  0  0  0  0  0  0  0  0
   12.4911    8.2599   -8.2197 O   0  0  0  0  0  0  0  0  0  0  0  0
   10.9488    9.2632   -6.7314 H   0  0  0  0  0  0  0  0  0  0  0  0
    8.6626    8.5037   -8.1747 H   0  0  0  0  0  0  0  0  0  0  0  0
    7.2656    6.8339   -6.8800 H   0  0  0  0  0  0  0  0  0  0  0  0
    8.4384    5.5982   -7.3796 H   0  0  0  0  0  0  0  0  0  0  0  0
    6.7798    5.5806   -8.8607 H   0  0  0  0  0  0  0  0  0  0  0  0
    9.5821    6.2605   -9.4747 H   0  0  0  0  0  0  0  0  0  0  0  0
    9.8970    8.3058  -10.1588 H   0  0  0  0  0  0  0  0  0  0  0  0
   10.6312    5.7081   -7.1820 H   0  0  0  0  0  0  0  0  0  0  0  0
   12.1965    5.9731   -9.5814 H   0  0  0  0  0  0  0  0  0  0  0  0
   12.7104    6.9375   -6.6588 H   0  0  0  0  0  0  0  0  0  0  0  0
   13.2123    8.7949   -7.8481 H   0  0  0  0  0  0  0  0  0  0  0  0
  1  6  2  0
  2  3  2  0
  2  1  1  0
  3  4  1  0
  4  5  2  0
  6  5  1  0
  1  7  1  0
  3  8  1  0
  5  9  1  0
 10 11  1  0
 11 12  1  0
 12 13  1  0
 13 14  1  0
 12 15  1  0
 15 16  1  0
 15 17  1  0
 17 18  1  0
 17 19  1  0
 19 20  1  0
 19 10  1  0
 10 21  1  6
 12 22  1  6
 13 23  1  0
 13 24  1  0
 14 25  1  0
 15 26  1  6
 16 27  1  0
 17 28  1  1
 18 29  1  0
 19 30  1  1
 20 31  1  0
  2 10  1  0
M  END
>  <Score>  (1) 
-7.72004

$$$$

     RDKit          3D

 20 21  0  0  0  0  0  0  0  0999 V2000
   11.6906    9.2559   -4.3208 C   0  0  0  0  0  0  0  0  0  0  0  0
   11.3429    8.0931   -5.0407 C   0  0  0  0  0  0  0  0  0  0  0  0
   11.4166    6.8632   -4.3605 C   0  0  0  0  0  0  0  0  0  0  0  0
   11.8149    6.8734   -3.0617 N   0  0  0  0  0  0  0  0  0  0  0  0
   12.1398    8.0055   -2.4041 C   0  0  0  0  0  0  0  0  0  0  0  0
   12.0752    9.1970   -3.0392 N   0  0  0  0  0  0  0  0  0  0  0  0
   11.6393   10.2092   -4.8336 H   0  0  0  0  0  0  0  0  0  0  0  0
   11.1594    5.9418   -4.8678 H   0  0  0  0  0  0  0  0  0  0  0  0
   12.4553    7.9432   -1.3634 H   0  0  0  0  0  0  0  0  0  0  0  0
   10.9260    8.1431   -6.4228 C   0  0  0  0  0  0  0  0  0  0  0  0
   10.8972    9.3228   -7.0929 C   0  0  0  0  0  0  0  0  0  0  0  0
   10.4885    9.3230   -8.4096 C   0  0  0  0  0  0  0  0  0  0  0  0
   10.1057    8.1653   -9.0749 C   0  0  0  0  0  0  0  0  0  0  0  0
    9.5948    8.2203  -10.7540 Cl  0  0  0  0  0  0  0  0  0  0  0  0
   10.1494    6.9777   -8.3519 C   0  0  0  0  0  0  0  0  0  0  0  0
    9.7885    5.8339   -8.9789 F   0  0  0  0  0  0  0  0  0  0  0  0
   10.5598    6.9916   -7.0380 C   0  0  0  0  0  0  0  0  0  0  0  0
   11.1990   10.2386   -6.5738 H   0  0  0  0  0  0  0  0  0  0  0  0
   10.4604   10.2587   -8.9534 H   0  0  0  0  0  0  0  0  0  0  0  0
   10.5792    6.0425   -6.5229 H   0  0  0  0  0  0  0  0  0  0  0  0
  1  6  2  0
  2  3  2  0
  2  1  1  0
  3  4  1  0
  4  5  2  0
  6  5  1  0
  1  7  1  0
  3  8  1  0
  5  9  1  0
 10 11  2  0
 11 12  1  0
 12 13  2  0
 13 14  1  0
 13 15  1  0
 15 16  1  0
 15 17  2  0
 17 10  1  0
 11 18  1  0
 12 19  1  0
 17 20  1  0
  2 10  1  0
M  END
>  <Score>  (1) 
-7.71432

$$$$

     RDKit          3D

 25 26  0  0  0  0  0  0  0  0999 V2000
   11.6874    9.2549   -4.3296 C   0  0  0  0  0  0  0  0  0  0  0  0
   11.3449    8.0937   -5.0349 C   0  0  0  0  0  0  0  0  0  0  0  0
   11.4158    6.8668   -4.3646 C   0  0  0  0  0  0  0  0  0  0  0  0
   11.8147    6.8676   -3.0601 N   0  0  0  0  0  0  0  0  0  0  0  0
   12.1402    8.0119   -2.4045 C   0  0  0  0  0  0  0  0  0  0  0  0
   12.0769    9.1930   -3.0334 N   0  0  0  0  0  0  0  0  0  0  0  0
   11.6495   10.2244   -4.8065 H   0  0  0  0  0  0  0  0  0  0  0  0
   11.1669    5.9363   -4.8464 H   0  0  0  0  0  0  0  0  0  0  0  0
   12.4444    7.9028   -1.3702 H   0  0  0  0  0  0  0  0  0  0  0  0
    9.1544    5.0107   -8.3624 H   0  0  0  0  0  0  0  0  0  0  0  0
    9.3025    5.8869   -8.9413 C   0  0  0  0  0  0  0  0  0  0  0  0
    8.9343    5.8969  -10.1390 O   0  0  0  0  0  0  0  0  0  0  0  0
    9.9234    7.0528   -8.3473 C   0  0  0  0  0  0  0  0  0  0  0  0
   10.1112    8.1843   -9.1062 C   0  0  0  0  0  0  0  0  0  0  0  0
   10.7064    9.3037   -8.5386 C   0  0  0  0  0  0  0  0  0  0  0  0
   11.1093    9.2714   -7.2021 C   0  0  0  0  0  0  0  0  0  0  0  0
   11.7331   10.4979   -6.6592 C   0  0  0  0  0  0  0  0  0  0  0  0
   10.9274    8.1439   -6.4290 C   0  0  0  0  0  0  0  0  0  0  0  0
   10.3258    7.0379   -7.0332 C   0  0  0  0  0  0  0  0  0  0  0  0
    9.7924    8.1934  -10.1444 H   0  0  0  0  0  0  0  0  0  0  0  0
   10.8549   10.1948   -9.1346 H   0  0  0  0  0  0  0  0  0  0  0  0
   11.6035   10.6283   -5.5788 H   0  0  0  0  0  0  0  0  0  0  0  0
   11.1851   11.3713   -7.1242 H   0  0  0  0  0  0  0  0  0  0  0  0
   12.7900   10.6066   -7.0071 H   0  0  0  0  0  0  0  0  0  0  0  0
   10.1990    6.1614   -6.3852 H   0  0  0  0  0  0  0  0  0  0  0  0
  1  6  2  0
  2  3  2  0
  2  1  1  0
  3  4  1  0
  4  5  2  0
  6  5  1  0
  1  7  1  0
  3  8  1  0
  5  9  1  0
 10 11  1  0
 11 12  2  0
 11 13  1  0
 13 14  2  0
 14 15  1  0
 15 16  2  0
 16 17  1  0
 16 18  1  0
 18 19  2  0
 19 13  1  0
 14 20  1  0
 15 21  1  0
 17 22  1  0
 17 23  1  0
 17 24  1  0
 19 25  1  0
  2 18  1  0
M  END
>  <Score>  (1) 
-7.71111

$$$$

     RDKit          3D

 22 23  0  0  0  0  0  0  0  0999 V2000
   11.6894    9.2579   -4.3241 C   0  0  0  0  0  0  0  0  0  0  0  0
   11.3436    8.0925   -5.0388 C   0  0  0  0  0  0  0  0  0  0  0  0
   11.4160    6.8646   -4.3633 C   0  0  0  0  0  0  0  0  0  0  0  0
   11.8153    6.8699   -3.0589 N   0  0  0  0  0  0  0  0  0  0  0  0
   12.1397    8.0087   -2.4049 C   0  0  0  0  0  0  0  0  0  0  0  0
   12.0760    9.1944   -3.0370 N   0  0  0  0  0  0  0  0  0  0  0  0
   11.6358   10.2170   -4.8421 H   0  0  0  0  0  0  0  0  0  0  0  0
   11.1586    5.9810   -4.8895 H   0  0  0  0  0  0  0  0  0  0  0  0
   12.4554    8.0065   -1.3714 H   0  0  0  0  0  0  0  0  0  0  0  0
   10.9274    8.1705   -6.4280 C   0  0  0  0  0  0  0  0  0  0  0  0
   10.2994    7.1067   -7.0497 C   0  0  0  0  0  0  0  0  0  0  0  0
    9.8960    7.1606   -8.3689 C   0  0  0  0  0  0  0  0  0  0  0  0
   10.1090    8.2940   -9.1220 C   0  0  0  0  0  0  0  0  0  0  0  0
    9.6914    8.3207  -10.4514 O   0  0  0  0  0  0  0  0  0  0  0  0
   10.7330    9.3655   -8.5225 C   0  0  0  0  0  0  0  0  0  0  0  0
   11.1319    9.3006   -7.2034 C   0  0  0  0  0  0  0  0  0  0  0  0
   11.7698   10.3852   -6.5770 O   0  0  0  0  0  0  0  0  0  0  0  0
   10.1432    6.2176   -6.4248 H   0  0  0  0  0  0  0  0  0  0  0  0
    9.4008    6.2905   -8.8199 H   0  0  0  0  0  0  0  0  0  0  0  0
   10.2775    8.0288  -11.2237 H   0  0  0  0  0  0  0  0  0  0  0  0
   10.9189   10.2732   -9.0782 H   0  0  0  0  0  0  0  0  0  0  0  0
   11.9279   11.2298   -7.1404 H   0  0  0  0  0  0  0  0  0  0  0  0
  1  6  2  0
  2  3  2  0
  2  1  1  0
  3  4  1  0
  4  5  2  0
  6  5  1  0
  1  7  1  0
  3  8  1  0
  5  9  1  0
 10 11  2  0
 11 12  1  0
 12 13  2  0
 13 14  1  0
 13 15  1  0
 15 16  2  0
 16 17  1  0
 16 10  1  0
 11 18  1  0
 12 19  1  0
 14 20  1  0
 15 21  1  0
 17 22  1  0
  2 10  1  0
M  END
>  <Score>  (1) 
-7.70001

$$$$

     RDKit          3D

 24 25  0  0  0  0  0  0  0  0999 V2000
   11.6898    9.2598   -4.3236 C   0  0  0  0  0  0  0  0  0  0  0  0
   11.3430    8.0898   -5.0399 C   0  0  0  0  0  0  0  0  0  0  0  0
   11.4164    6.8667   -4.3627 C   0  0  0  0  0  0  0  0  0  0  0  0
   11.8148    6.8686   -3.0600 N   0  0  0  0  0  0  0  0  0  0  0  0
   12.1401    8.0122   -2.4050 C   0  0  0  0  0  0  0  0  0  0  0  0
   12.0760    9.1909   -3.0359 N   0  0  0  0  0  0  0  0  0  0  0  0
   11.6439   10.2221   -4.8175 H   0  0  0  0  0  0  0  0  0  0  0  0
   11.1581    5.9517   -4.8798 H   0  0  0  0  0  0  0  0  0  0  0  0
   12.4456    7.9139   -1.3701 H   0  0  0  0  0  0  0  0  0  0  0  0
   10.9278    8.1630   -6.4256 C   0  0  0  0  0  0  0  0  0  0  0  0
   10.5761    9.3304   -7.0532 C   0  0  0  0  0  0  0  0  0  0  0  0
   10.1809    9.3716   -8.3852 C   0  0  0  0  0  0  0  0  0  0  0  0
   10.1441    8.1952   -9.0906 C   0  0  0  0  0  0  0  0  0  0  0  0
   10.4912    7.0098   -8.4876 C   0  0  0  0  0  0  0  0  0  0  0  0
   10.4513    5.7330   -9.2541 C   0  0  0  0  0  0  0  0  0  0  0  0
   10.0386    5.9672  -10.5616 O   0  0  0  0  0  0  0  0  0  0  0  0
   10.8788    6.9965   -7.1680 C   0  0  0  0  0  0  0  0  0  0  0  0
   10.6137   10.2381   -6.4769 H   0  0  0  0  0  0  0  0  0  0  0  0
    9.9024   10.3021   -8.8785 H   0  0  0  0  0  0  0  0  0  0  0  0
    9.8401    8.1902  -10.1331 H   0  0  0  0  0  0  0  0  0  0  0  0
    9.8172    5.0132   -8.7165 H   0  0  0  0  0  0  0  0  0  0  0  0
   11.4884    5.3494   -9.3076 H   0  0  0  0  0  0  0  0  0  0  0  0
    9.0443    6.0452  -10.6414 H   0  0  0  0  0  0  0  0  0  0  0  0
   11.1419    6.0395   -6.7400 H   0  0  0  0  0  0  0  0  0  0  0  0
  1  6  2  0
  2  3  2  0
  2  1  1  0
  3  4  1  0
  4  5  2  0
  6  5  1  0
  1  7  1  0
  3  8  1  0
  5  9  1  0
 10 11  2  0
 11 12  1  0
 12 13  2  0
 13 14  1  0
 14 15  1  0
 15 16  1  0
 14 17  2  0
 17 10  1  0
 11 18  1  0
 12 19  1  0
 13 20  1  0
 15 21  1  0
 15 22  1  0
 16 23  1  0
 17 24  1  0
  2 10  1  0
M  END
>  <Score>  (1) 
-7.69261

$$$$

     RDKit          3D

 20 21  0  0  0  0  0  0  0  0999 V2000
   11.6896    9.2594   -4.3242 C   0  0  0  0  0  0  0  0  0  0  0  0
   11.3435    8.0866   -5.0368 C   0  0  0  0  0  0  0  0  0  0  0  0
   11.4158    6.8695   -4.3659 C   0  0  0  0  0  0  0  0  0  0  0  0
   11.8151    6.8685   -3.0592 N   0  0  0  0  0  0  0  0  0  0  0  0
   12.1399    8.0096   -2.4044 C   0  0  0  0  0  0  0  0  0  0  0  0
   12.0762    9.1943   -3.0364 N   0  0  0  0  0  0  0  0  0  0  0  0
   11.6547   10.2192   -4.7815 H   0  0  0  0  0  0  0  0  0  0  0  0
   11.1659    5.9426   -4.8600 H   0  0  0  0  0  0  0  0  0  0  0  0
   12.4561    8.0179   -1.3731 H   0  0  0  0  0  0  0  0  0  0  0  0
   10.9302    8.1577   -6.4036 C   0  0  0  0  0  0  0  0  0  0  0  0
   10.5475    7.0120   -7.1117 C   0  0  0  0  0  0  0  0  0  0  0  0
   10.1479    7.0974   -8.4282 C   0  0  0  0  0  0  0  0  0  0  0  0
   10.1147    8.3092   -9.0791 C   0  0  0  0  0  0  0  0  0  0  0  0
    9.5972    8.3629  -10.7575 Cl  0  0  0  0  0  0  0  0  0  0  0  0
   10.4867    9.4526   -8.4045 C   0  0  0  0  0  0  0  0  0  0  0  0
   10.8857    9.3543   -7.0845 C   0  0  0  0  0  0  0  0  0  0  0  0
   11.3570   10.8562   -6.2718 Cl  0  0  0  0  0  0  0  0  0  0  0  0
   10.5922    6.0870   -6.5527 H   0  0  0  0  0  0  0  0  0  0  0  0
    9.8592    6.1852   -8.9408 H   0  0  0  0  0  0  0  0  0  0  0  0
   10.4705   10.4185   -8.8903 H   0  0  0  0  0  0  0  0  0  0  0  0
  1  6  2  0
  2  3  2  0
  2  1  1  0
  3  4  1  0
  4  5  2  0
  6  5  1  0
  1  7  1  0
  3  8  1  0
  5  9  1  0
 10 11  2  0
 11 12  1  0
 12 13  2  0
 13 14  1  0
 13 15  1  0
 15 16  2  0
 16 17  1  0
 16 10  1  0
 11 18  1  0
 12 19  1  0
 15 20  1  0
  2 10  1  0
M  END
>  <Score>  (1) 
-7.69172

$$$$

     RDKit          3D

 27 28  0  0  0  0  0  0  0  0999 V2000
   12.3024    8.1226   -2.3018 C   0  0  0  0  0  0  0  0  0  0  0  0
   12.0218    6.8838   -2.9120 C   0  0  0  0  0  0  0  0  0  0  0  0
   11.5239    6.8985   -4.2263 C   0  0  0  0  0  0  0  0  0  0  0  0
   11.3424    8.1073   -4.8313 N   0  0  0  0  0  0  0  0  0  0  0  0
   11.6237    9.2772   -4.2120 C   0  0  0  0  0  0  0  0  0  0  0  0
   12.1008    9.2816   -2.9546 N   0  0  0  0  0  0  0  0  0  0  0  0
   12.6822    8.0563   -1.2935 H   0  0  0  0  0  0  0  0  0  0  0  0
   12.1791    5.9538   -2.4000 H   0  0  0  0  0  0  0  0  0  0  0  0
   11.2883    5.9962   -4.7530 H   0  0  0  0  0  0  0  0  0  0  0  0
   11.3933   10.5134   -4.9489 C   0  0  1  0  0  0  0  0  0  0  0  0
   11.5449   10.3928   -6.3240 O   0  0  0  0  0  0  0  0  0  0  0  0
   11.1117   11.6216   -6.8120 C   0  0  1  0  0  0  0  0  0  0  0  0
   10.6153   11.3716   -8.2413 C   0  0  0  0  0  0  0  0  0  0  0  0
    9.5720   10.4487   -8.2004 O   0  0  0  0  0  0  0  0  0  0  0  0
   10.0129   12.1065   -5.9263 C   0  0  2  0  0  0  0  0  0  0  0  0
   10.4526   13.2494   -5.2455 O   0  0  0  0  0  0  0  0  0  0  0  0
    9.9533   10.9973   -4.8658 C   0  0  1  0  0  0  0  0  0  0  0  0
    9.0689   10.0493   -5.3526 O   0  0  0  0  0  0  0  0  0  0  0  0
   12.0308   11.3455   -4.6095 H   0  0  0  0  0  0  0  0  0  0  0  0
   11.9688   12.3118   -6.8586 H   0  0  0  0  0  0  0  0  0  0  0  0
   11.4561   10.8936   -8.7768 H   0  0  0  0  0  0  0  0  0  0  0  0
   10.2993   12.3286   -8.7059 H   0  0  0  0  0  0  0  0  0  0  0  0
    8.7212   10.9376   -8.1410 H   0  0  0  0  0  0  0  0  0  0  0  0
    9.0502   12.2537   -6.4209 H   0  0  0  0  0  0  0  0  0  0  0  0
   11.4215   13.4246   -5.4400 H   0  0  0  0  0  0  0  0  0  0  0  0
    9.6862   11.3839   -3.8833 H   0  0  0  0  0  0  0  0  0  0  0  0
    9.3329    9.1289   -5.1772 H   0  0  0  0  0  0  0  0  0  0  0  0
  2  1  2  0
  3  2  1  0
  4  3  2  0
  4  5  1  0
  5  6  2  0
  6  1  1  0
  1  7  1  0
  2  8  1  0
  3  9  1  0
 10 11  1  0
 11 12  1  0
 12 13  1  0
 13 14  1  0
 12 15  1  0
 15 16  1  0
 15 17  1  0
 17 18  1  0
 17 10  1  0
 10 19  1  1
 12 20  1  6
 13 21  1  0
 13 22  1  0
 14 23  1  0
 15 24  1  6
 16 25  1  0
 17 26  1  1
 18 27  1  0
  5 10  1  0
M  END
>  <Score>  (1) 
-7.53232

$$$$

     RDKit          3D

 22 23  0  0  0  0  0  0  0  0999 V2000
   11.6887    9.2563   -4.3260 C   0  0  0  0  0  0  0  0  0  0  0  0
   11.3435    8.0923   -5.0389 C   0  0  0  0  0  0  0  0  0  0  0  0
   11.4161    6.8659   -4.3634 C   0  0  0  0  0  0  0  0  0  0  0  0
   11.8151    6.8675   -3.0589 N   0  0  0  0  0  0  0  0  0  0  0  0
   12.1394    8.0121   -2.4071 C   0  0  0  0  0  0  0  0  0  0  0  0
   12.0773    9.1939   -3.0327 N   0  0  0  0  0  0  0  0  0  0  0  0
   11.6516   10.2080   -4.7878 H   0  0  0  0  0  0  0  0  0  0  0  0
   11.1566    5.9755   -4.8944 H   0  0  0  0  0  0  0  0  0  0  0  0
   12.4435    7.8875   -1.3672 H   0  0  0  0  0  0  0  0  0  0  0  0
    9.2351    9.0197  -10.8946 H   0  0  0  0  0  0  0  0  0  0  0  0
    9.7667    8.1785  -10.5014 C   0  0  0  0  0  0  0  0  0  0  0  0
   10.0245    7.2299  -11.2754 O   0  0  0  0  0  0  0  0  0  0  0  0
   10.1774    8.1459   -9.0958 C   0  0  0  0  0  0  0  0  0  0  0  0
    9.8638    9.2225   -8.2839 C   0  0  0  0  0  0  0  0  0  0  0  0
   10.2412    9.2014   -6.9787 C   0  0  0  0  0  0  0  0  0  0  0  0
   10.9245    8.1491   -6.4310 C   0  0  0  0  0  0  0  0  0  0  0  0
   11.2240    7.0896   -7.2617 C   0  0  0  0  0  0  0  0  0  0  0  0
   10.8636    7.0635   -8.5914 C   0  0  0  0  0  0  0  0  0  0  0  0
   11.1366    6.0460   -9.4400 F   0  0  0  0  0  0  0  0  0  0  0  0
    9.3158   10.0846   -8.6906 H   0  0  0  0  0  0  0  0  0  0  0  0
   10.0036   10.0328   -6.3356 H   0  0  0  0  0  0  0  0  0  0  0  0
   11.7595    6.2339   -6.8880 H   0  0  0  0  0  0  0  0  0  0  0  0
  1  6  2  0
  2  3  2  0
  2  1  1  0
  3  4  1  0
  4  5  2  0
  6  5  1  0
  1  7  1  0
  3  8  1  0
  5  9  1  0
 10 11  1  0
 11 12  2  0
 11 13  1  0
 13 14  2  0
 14 15  1  0
 15 16  2  0
 16 17  1  0
 17 18  2  0
 18 19  1  0
 18 13  1  0
 14 20  1  0
 15 21  1  0
 17 22  1  0
  2 16  1  0
M  END
>  <Score>  (1) 
-7.67318

$$$$

     RDKit          3D

 31 32  0  0  0  0  0  0  0  0999 V2000
   11.6895    9.2580   -4.3237 C   0  0  0  0  0  0  0  0  0  0  0  0
   11.3436    8.0925   -5.0389 C   0  0  0  0  0  0  0  0  0  0  0  0
   11.4160    6.8645   -4.3632 C   0  0  0  0  0  0  0  0  0  0  0  0
   11.8154    6.8701   -3.0588 N   0  0  0  0  0  0  0  0  0  0  0  0
   12.1396    8.0082   -2.4049 C   0  0  0  0  0  0  0  0  0  0  0  0
   12.0759    9.1947   -3.0375 N   0  0  0  0  0  0  0  0  0  0  0  0
   11.6315   10.1873   -4.8457 H   0  0  0  0  0  0  0  0  0  0  0  0
   11.1650    5.9471   -4.8563 H   0  0  0  0  0  0  0  0  0  0  0  0
   12.4564    8.0206   -1.3733 H   0  0  0  0  0  0  0  0  0  0  0  0
   10.9232    8.1734   -6.4428 C   0  0  1  0  0  0  0  0  0  0  0  0
   11.2136    9.3820   -7.0493 O   0  0  0  0  0  0  0  0  0  0  0  0
   10.4677    9.5447   -8.2059 C   0  0  2  0  0  0  0  0  0  0  0  0
    9.4236   10.6137   -7.9879 C   0  0  0  0  0  0  0  0  0  0  0  0
    8.5501   10.3038   -6.9613 O   0  0  0  0  0  0  0  0  0  0  0  0
    9.8745    8.2790   -8.7304 C   0  0  1  0  0  0  0  0  0  0  0  0
    9.6127    8.4821  -10.1058 O   0  0  0  0  0  0  0  0  0  0  0  0
   10.8436    7.1395   -8.6436 C   0  0  1  0  0  0  0  0  0  0  0  0
   11.8073    7.2758   -9.6643 O   0  0  0  0  0  0  0  0  0  0  0  0
   11.5450    7.0830   -7.2982 C   0  0  1  0  0  0  0  0  0  0  0  0
   12.9023    7.3637   -7.4653 O   0  0  0  0  0  0  0  0  0  0  0  0
    9.8303    8.0166   -6.4828 H   0  0  0  0  0  0  0  0  0  0  0  0
   11.1581    9.9393   -8.9968 H   0  0  0  0  0  0  0  0  0  0  0  0
    9.9728   11.5367   -7.6956 H   0  0  0  0  0  0  0  0  0  0  0  0
    8.8718   10.7787   -8.9354 H   0  0  0  0  0  0  0  0  0  0  0  0
    9.0837   10.3282   -6.1097 H   0  0  0  0  0  0  0  0  0  0  0  0
    8.8792    8.0334   -8.2880 H   0  0  0  0  0  0  0  0  0  0  0  0
   10.4338    8.6328  -10.6067 H   0  0  0  0  0  0  0  0  0  0  0  0
   10.3496    6.1615   -8.8109 H   0  0  0  0  0  0  0  0  0  0  0  0
   12.1882    8.1952   -9.6617 H   0  0  0  0  0  0  0  0  0  0  0  0
   11.4197    6.1227   -6.7855 H   0  0  0  0  0  0  0  0  0  0  0  0
   13.3995    6.6115   -7.8364 H   0  0  0  0  0  0  0  0  0  0  0  0
  1  6  2  0
  2  3  2  0
  2  1  1  0
  3  4  1  0
  4  5  2  0
  6  5  1  0
  1  7  1  0
  3  8  1  0
  5  9  1  0
 10 11  1  0
 11 12  1  0
 12 13  1  0
 13 14  1  0
 12 15  1  0
 15 16  1  0
 15 17  1  0
 17 18  1  0
 17 19  1  0
 19 20  1  0
 19 10  1  0
 10 21  1  1
 12 22  1  6
 13 23  1  0
 13 24  1  0
 14 25  1  0
 15 26  1  1
 16 27  1  0
 17 28  1  6
 18 29  1  0
 19 30  1  1
 20 31  1  0
  2 10  1  0
M  END
>  <Score>  (1) 
-7.65265

$$$$

     RDKit          3D

 22 23  0  0  0  0  0  0  0  0999 V2000
   11.6893    9.2568   -4.3241 C   0  0  0  0  0  0  0  0  0  0  0  0
   11.3437    8.0942   -5.0389 C   0  0  0  0  0  0  0  0  0  0  0  0
   11.4159    6.8642   -4.3634 C   0  0  0  0  0  0  0  0  0  0  0  0
   11.8164    6.8723   -3.0563 N   0  0  0  0  0  0  0  0  0  0  0  0
   12.1388    8.0057   -2.4069 C   0  0  0  0  0  0  0  0  0  0  0  0
   12.0759    9.1947   -3.0375 N   0  0  0  0  0  0  0  0  0  0  0  0
   11.6451   10.2292   -4.8167 H   0  0  0  0  0  0  0  0  0  0  0  0
   11.1577    5.9684   -4.8880 H   0  0  0  0  0  0  0  0  0  0  0  0
   12.4559    8.0157   -1.3735 H   0  0  0  0  0  0  0  0  0  0  0  0
    9.1388    5.0924   -8.3545 H   0  0  0  0  0  0  0  0  0  0  0  0
    9.2759    5.9703   -8.9635 C   0  0  0  0  0  0  0  0  0  0  0  0
    8.8899    5.9630  -10.1555 O   0  0  0  0  0  0  0  0  0  0  0  0
    9.9131    7.1245   -8.3431 C   0  0  0  0  0  0  0  0  0  0  0  0
   10.3276    7.1037   -7.0307 C   0  0  0  0  0  0  0  0  0  0  0  0
   10.9327    8.1767   -6.4136 C   0  0  0  0  0  0  0  0  0  0  0  0
   11.1176    9.3131   -7.1764 C   0  0  0  0  0  0  0  0  0  0  0  0
   10.7189    9.3868   -8.5015 C   0  0  0  0  0  0  0  0  0  0  0  0
   10.1161    8.2928   -9.0870 C   0  0  0  0  0  0  0  0  0  0  0  0
    9.7071    8.3087  -10.3760 F   0  0  0  0  0  0  0  0  0  0  0  0
   10.1790    6.2093   -6.4398 H   0  0  0  0  0  0  0  0  0  0  0  0
   11.5881   10.1787   -6.7324 H   0  0  0  0  0  0  0  0  0  0  0  0
   10.8773   10.2973   -9.0805 H   0  0  0  0  0  0  0  0  0  0  0  0
  1  6  2  0
  2  3  2  0
  2  1  1  0
  3  4  1  0
  4  5  2  0
  6  5  1  0
  1  7  1  0
  3  8  1  0
  5  9  1  0
 10 11  1  0
 11 12  2  0
 11 13  1  0
 13 14  2  0
 14 15  1  0
 15 16  2  0
 16 17  1  0
 17 18  2  0
 18 19  1  0
 18 13  1  0
 14 20  1  0
 16 21  1  0
 17 22  1  0
  2 15  1  0
M  END
>  <Score>  (1) 
-7.64963

$$$$

     RDKit          3D

 32 33  0  0  0  0  0  0  0  0999 V2000
   11.6872    9.2539   -4.3300 C   0  0  0  0  0  0  0  0  0  0  0  0
   11.3450    8.0973   -5.0360 C   0  0  0  0  0  0  0  0  0  0  0  0
   11.4159    6.8639   -4.3633 C   0  0  0  0  0  0  0  0  0  0  0  0
   11.8151    6.8689   -3.0594 N   0  0  0  0  0  0  0  0  0  0  0  0
   12.1399    8.0107   -2.4050 C   0  0  0  0  0  0  0  0  0  0  0  0
   12.0770    9.1933   -3.0334 N   0  0  0  0  0  0  0  0  0  0  0  0
   11.6277   10.1783   -4.8549 H   0  0  0  0  0  0  0  0  0  0  0  0
   11.1577    5.9478   -4.8805 H   0  0  0  0  0  0  0  0  0  0  0  0
   12.4450    7.9128   -1.3719 H   0  0  0  0  0  0  0  0  0  0  0  0
   10.9460    8.0721   -6.3321 O   0  0  0  0  0  0  0  0  0  0  0  0
   10.8633    6.9793   -7.1826 C   0  0  1  0  0  0  0  0  0  0  0  0
    9.5639    6.8219   -7.7060 O   0  0  0  0  0  0  0  0  0  0  0  0
    9.5310    5.6134   -8.3580 C   0  0  1  0  0  0  0  0  0  0  0  0
    8.1336    5.0799   -8.5506 C   0  0  0  0  0  0  0  0  0  0  0  0
    7.5331    4.9060   -7.3061 O   0  0  0  0  0  0  0  0  0  0  0  0
   10.2818    5.7365   -9.6587 C   0  0  1  0  0  0  0  0  0  0  0  0
    9.8262    6.7978  -10.4350 O   0  0  0  0  0  0  0  0  0  0  0  0
   11.7287    6.0215   -9.3112 C   0  0  1  0  0  0  0  0  0  0  0  0
   12.4835    6.2885  -10.4299 O   0  0  0  0  0  0  0  0  0  0  0  0
   11.7564    7.2360   -8.3967 C   0  0  1  0  0  0  0  0  0  0  0  0
   11.2748    8.3705   -9.0459 O   0  0  0  0  0  0  0  0  0  0  0  0
   11.1539    6.0168   -6.7625 H   0  0  0  0  0  0  0  0  0  0  0  0
   10.0950    4.8815   -7.7335 H   0  0  0  0  0  0  0  0  0  0  0  0
    7.5193    5.7055   -9.2010 H   0  0  0  0  0  0  0  0  0  0  0  0
    8.2040    4.0761   -9.0132 H   0  0  0  0  0  0  0  0  0  0  0  0
    7.0493    5.7408   -7.0441 H   0  0  0  0  0  0  0  0  0  0  0  0
   10.1963    4.7865  -10.2272 H   0  0  0  0  0  0  0  0  0  0  0  0
   10.5404    6.9474  -11.1271 H   0  0  0  0  0  0  0  0  0  0  0  0
   12.0994    5.1714   -8.7092 H   0  0  0  0  0  0  0  0  0  0  0  0
   13.4114    6.4256  -10.1805 H   0  0  0  0  0  0  0  0  0  0  0  0
   12.8030    7.4131   -8.0520 H   0  0  0  0  0  0  0  0  0  0  0  0
   11.4817    9.1415   -8.4501 H   0  0  0  0  0  0  0  0  0  0  0  0
  1  6  2  0
  2  3  2  0
  2  1  1  0
  3  4  1  0
  4  5  2  0
  6  5  1  0
  1  7  1  0
  3  8  1  0
  5  9  1  0
 10 11  1  0
 11 12  1  0
 12 13  1  0
 13 14  1  0
 14 15  1  0
 13 16  1  0
 16 17  1  0
 16 18  1  0
 18 19  1  0
 18 20  1  0
 20 21  1  0
 20 11  1  0
 11 22  1  1
 13 23  1  1
 14 24  1  0
 14 25  1  0
 15 26  1  0
 16 27  1  6
 17 28  1  0
 18 29  1  1
 19 30  1  0
 20 31  1  1
 21 32  1  0
  2 10  1  0
M  END
>  <Score>  (1) 
-7.64701

$$$$

     RDKit          3D

 20 21  0  0  0  0  0  0  0  0999 V2000
   11.6897    9.2582   -4.3234 C   0  0  0  0  0  0  0  0  0  0  0  0
   11.3435    8.0921   -5.0390 C   0  0  0  0  0  0  0  0  0  0  0  0
   11.4159    6.8648   -4.3636 C   0  0  0  0  0  0  0  0  0  0  0  0
   11.8155    6.8701   -3.0585 N   0  0  0  0  0  0  0  0  0  0  0  0
   12.1396    8.0081   -2.4049 C   0  0  0  0  0  0  0  0  0  0  0  0
   12.0758    9.1948   -3.0376 N   0  0  0  0  0  0  0  0  0  0  0  0
   11.6318   10.2097   -4.8529 H   0  0  0  0  0  0  0  0  0  0  0  0
   11.1572    5.9622   -4.8873 H   0  0  0  0  0  0  0  0  0  0  0  0
   12.4529    7.9747   -1.3682 H   0  0  0  0  0  0  0  0  0  0  0  0
   10.9266    8.1495   -6.4234 C   0  0  0  0  0  0  0  0  0  0  0  0
   11.1643    7.0994   -7.3042 C   0  0  0  0  0  0  0  0  0  0  0  0
   10.7599    7.1668   -8.6280 C   0  0  0  0  0  0  0  0  0  0  0  0
   11.0164    6.1068   -9.4583 F   0  0  0  0  0  0  0  0  0  0  0  0
   10.1092    8.2822   -9.1049 C   0  0  0  0  0  0  0  0  0  0  0  0
    9.8739    9.3237   -8.2298 C   0  0  0  0  0  0  0  0  0  0  0  0
   10.2749    9.2594   -6.9129 C   0  0  0  0  0  0  0  0  0  0  0  0
   10.0240   10.2947   -6.1033 F   0  0  0  0  0  0  0  0  0  0  0  0
   11.6795    6.2331   -6.8990 H   0  0  0  0  0  0  0  0  0  0  0  0
    9.7868    8.3392  -10.1549 H   0  0  0  0  0  0  0  0  0  0  0  0
    9.3602   10.1856   -8.6371 H   0  0  0  0  0  0  0  0  0  0  0  0
  1  6  2  0
  2  3  2  0
  2  1  1  0
  3  4  1  0
  4  5  2  0
  6  5  1  0
  1  7  1  0
  3  8  1  0
  5  9  1  0
 10 11  2  0
 11 12  1  0
 12 13  1  0
 12 14  2  0
 14 15  1  0
 15 16  2  0
 16 17  1  0
 16 10  1  0
 11 18  1  0
 14 19  1  0
 15 20  1  0
  2 10  1  0
M  END
>  <Score>  (1) 
-7.64241

$$$$

     RDKit          3D

 28 30  0  0  0  0  0  0  0  0999 V2000
   11.6895    9.2581   -4.3239 C   0  0  0  0  0  0  0  0  0  0  0  0
   11.3435    8.0923   -5.0389 C   0  0  0  0  0  0  0  0  0  0  0  0
   11.4160    6.8645   -4.3632 C   0  0  0  0  0  0  0  0  0  0  0  0
   11.8154    6.8702   -3.0589 N   0  0  0  0  0  0  0  0  0  0  0  0
   12.1396    8.0085   -2.4050 C   0  0  0  0  0  0  0  0  0  0  0  0
   12.0760    9.1944   -3.0370 N   0  0  0  0  0  0  0  0  0  0  0  0
   11.6364   10.2183   -4.8408 H   0  0  0  0  0  0  0  0  0  0  0  0
   11.1592    5.9656   -4.8819 H   0  0  0  0  0  0  0  0  0  0  0  0
   12.4424    7.8912   -1.3727 H   0  0  0  0  0  0  0  0  0  0  0  0
   10.9264    8.1664   -6.4297 C   0  0  0  0  0  0  0  0  0  0  0  0
   11.1029    9.2565   -7.2430 C   0  0  0  0  0  0  0  0  0  0  0  0
   10.5924    8.9725   -8.4765 N   0  0  0  0  0  0  0  0  0  0  0  0
   10.6050    9.8713   -9.5606 C   0  0  0  0  0  0  0  0  0  0  0  0
   11.1654   11.1492   -9.4138 N   0  0  0  0  0  0  0  0  0  0  0  0
   10.1194    9.5386  -10.6559 O   0  0  0  0  0  0  0  0  0  0  0  0
   10.0892    7.7195   -8.4764 C   0  0  0  0  0  0  0  0  0  0  0  0
    9.4828    6.9956   -9.4587 C   0  0  0  0  0  0  0  0  0  0  0  0
    9.0579    5.7016   -9.1638 C   0  0  0  0  0  0  0  0  0  0  0  0
    9.2543    5.1817   -7.9030 C   0  0  0  0  0  0  0  0  0  0  0  0
    9.8739    5.9450   -6.9288 C   0  0  0  0  0  0  0  0  0  0  0  0
   10.2979    7.2257   -7.2100 C   0  0  0  0  0  0  0  0  0  0  0  0
   11.5670   10.1891   -6.9642 H   0  0  0  0  0  0  0  0  0  0  0  0
   10.7485   11.8252   -8.7463 H   0  0  0  0  0  0  0  0  0  0  0  0
   11.9886   11.4330   -9.9590 H   0  0  0  0  0  0  0  0  0  0  0  0
    9.3116    7.3763  -10.4672 H   0  0  0  0  0  0  0  0  0  0  0  0
    8.5779    5.1260   -9.9382 H   0  0  0  0  0  0  0  0  0  0  0  0
    8.9357    4.1728   -7.6333 H   0  0  0  0  0  0  0  0  0  0  0  0
   10.0170    5.5155   -5.9469 H   0  0  0  0  0  0  0  0  0  0  0  0
  1  6  2  0
  2  3  2  0
  2  1  1  0
  3  4  1  0
  4  5  2  0
  6  5  1  0
  1  7  1  0
  3  8  1  0
  5  9  1  0
 10 11  2  0
 11 12  1  0
 12 13  1  0
 13 14  1  0
 13 15  2  0
 12 16  1  0
 16 17  2  0
 17 18  1  0
 18 19  2  0
 19 20  1  0
 20 21  2  0
 21 10  1  0
 21 16  1  0
 11 22  1  0
 14 23  1  0
 14 24  1  0
 17 25  1  0
 18 26  1  0
 19 27  1  0
 20 28  1  0
  2 10  1  0
M  END
>  <Score>  (1) 
-7.6419

$$$$

     RDKit          3D

 31 32  0  0  0  0  0  0  0  0999 V2000
   11.6897    9.2584   -4.3233 C   0  0  0  0  0  0  0  0  0  0  0  0
   11.3435    8.0917   -5.0390 C   0  0  0  0  0  0  0  0  0  0  0  0
   11.4159    6.8649   -4.3636 C   0  0  0  0  0  0  0  0  0  0  0  0
   11.8155    6.8702   -3.0585 N   0  0  0  0  0  0  0  0  0  0  0  0
   12.1396    8.0079   -2.4048 C   0  0  0  0  0  0  0  0  0  0  0  0
   12.0758    9.1948   -3.0378 N   0  0  0  0  0  0  0  0  0  0  0  0
   11.6234   10.1801   -4.8696 H   0  0  0  0  0  0  0  0  0  0  0  0
   11.1647    5.9507   -4.8586 H   0  0  0  0  0  0  0  0  0  0  0  0
   12.4486    7.9408   -1.3702 H   0  0  0  0  0  0  0  0  0  0  0  0
   10.9253    8.1833   -6.4394 C   0  0  2  0  0  0  0  0  0  0  0  0
   11.7825    7.4520   -7.2388 O   0  0  0  0  0  0  0  0  0  0  0  0
   11.3276    7.2962   -8.5384 C   0  0  1  0  0  0  0  0  0  0  0  0
   10.2417    6.2301   -8.6327 C   0  0  0  0  0  0  0  0  0  0  0  0
   10.7779    5.0202   -8.1919 O   0  0  0  0  0  0  0  0  0  0  0  0
   10.9163    8.5775   -9.1898 C   0  0  1  0  0  0  0  0  0  0  0  0
   10.1735    8.2671  -10.3386 O   0  0  0  0  0  0  0  0  0  0  0  0
   10.1643    9.5116   -8.3103 C   0  0  1  0  0  0  0  0  0  0  0  0
    8.8414    9.1552   -8.1080 O   0  0  0  0  0  0  0  0  0  0  0  0
   10.8795    9.5905   -6.9725 C   0  0  2  0  0  0  0  0  0  0  0  0
   12.1707   10.0774   -7.2573 O   0  0  0  0  0  0  0  0  0  0  0  0
    9.8991    7.7690   -6.5284 H   0  0  0  0  0  0  0  0  0  0  0  0
   12.1837    6.8855   -9.1190 H   0  0  0  0  0  0  0  0  0  0  0  0
    9.3701    6.4598   -8.0160 H   0  0  0  0  0  0  0  0  0  0  0  0
   10.0167    6.1006   -9.7078 H   0  0  0  0  0  0  0  0  0  0  0  0
   10.2836    4.2754   -8.6358 H   0  0  0  0  0  0  0  0  0  0  0  0
   11.8313    9.1005   -9.5451 H   0  0  0  0  0  0  0  0  0  0  0  0
   10.6778    7.6341  -10.8924 H   0  0  0  0  0  0  0  0  0  0  0  0
   10.1891   10.5235   -8.7755 H   0  0  0  0  0  0  0  0  0  0  0  0
    8.4668    8.6096   -8.8402 H   0  0  0  0  0  0  0  0  0  0  0  0
   10.3515   10.2650   -6.2647 H   0  0  0  0  0  0  0  0  0  0  0  0
   12.0744   11.0510   -7.4173 H   0  0  0  0  0  0  0  0  0  0  0  0
  1  6  2  0
  2  3  2  0
  2  1  1  0
  3  4  1  0
  4  5  2  0
  6  5  1  0
  1  7  1  0
  3  8  1  0
  5  9  1  0
 10 11  1  0
 11 12  1  0
 12 13  1  0
 13 14  1  0
 12 15  1  0
 15 16  1  0
 15 17  1  0
 17 18  1  0
 17 19  1  0
 19 20  1  0
 19 10  1  0
 10 21  1  1
 12 22  1  6
 13 23  1  0
 13 24  1  0
 14 25  1  0
 15 26  1  6
 16 27  1  0
 17 28  1  6
 18 29  1  0
 19 30  1  1
 20 31  1  0
  2 10  1  0
M  END
>  <Score>  (1) 
-7.63994

$$$$

     RDKit          3D

 32 33  0  0  0  0  0  0  0  0999 V2000
   11.6885    9.2553   -4.3261 C   0  0  0  0  0  0  0  0  0  0  0  0
   11.3436    8.0953   -5.0399 C   0  0  0  0  0  0  0  0  0  0  0  0
   11.4150    6.8644   -4.3662 C   0  0  0  0  0  0  0  0  0  0  0  0
   11.8175    6.8733   -3.0530 N   0  0  0  0  0  0  0  0  0  0  0  0
   12.1388    8.0065   -2.4070 C   0  0  0  0  0  0  0  0  0  0  0  0
   12.0765    9.1933   -3.0348 N   0  0  0  0  0  0  0  0  0  0  0  0
   11.6259   10.1922   -4.8658 H   0  0  0  0  0  0  0  0  0  0  0  0
   11.1620    5.9676   -4.8735 H   0  0  0  0  0  0  0  0  0  0  0  0
   12.4538    7.9942   -1.3723 H   0  0  0  0  0  0  0  0  0  0  0  0
   10.9568    8.2106   -6.3460 O   0  0  0  0  0  0  0  0  0  0  0  0
   10.5773    9.3649   -7.0209 C   0  0  1  0  0  0  0  0  0  0  0  0
   11.4294    9.4772   -8.1454 O   0  0  0  0  0  0  0  0  0  0  0  0
   11.5768    8.2421   -8.7414 C   0  0  2  0  0  0  0  0  0  0  0  0
   12.6787    8.2759   -9.7576 C   0  0  0  0  0  0  0  0  0  0  0  0
   13.8575    8.6208   -9.1221 O   0  0  0  0  0  0  0  0  0  0  0  0
   10.2729    7.7365   -9.3393 C   0  0  2  0  0  0  0  0  0  0  0  0
    9.8453    8.6158  -10.3290 O   0  0  0  0  0  0  0  0  0  0  0  0
    9.2715    7.6882   -8.1921 C   0  0  2  0  0  0  0  0  0  0  0  0
    8.0487    7.1919   -8.5783 O   0  0  0  0  0  0  0  0  0  0  0  0
    9.1899    9.0879   -7.6218 C   0  0  2  0  0  0  0  0  0  0  0  0
    8.9575   10.0462   -8.5903 O   0  0  0  0  0  0  0  0  0  0  0  0
   10.5867   10.2896   -6.4493 H   0  0  0  0  0  0  0  0  0  0  0  0
   11.8746    7.4739   -7.9727 H   0  0  0  0  0  0  0  0  0  0  0  0
   12.5011    9.0163  -10.5586 H   0  0  0  0  0  0  0  0  0  0  0  0
   12.8261    7.2521  -10.1868 H   0  0  0  0  0  0  0  0  0  0  0  0
   14.1206    9.5567   -9.2487 H   0  0  0  0  0  0  0  0  0  0  0  0
   10.4249    6.7128   -9.6861 H   0  0  0  0  0  0  0  0  0  0  0  0
    9.2557    8.1823  -10.9678 H   0  0  0  0  0  0  0  0  0  0  0  0
    9.7478    7.0499   -7.4090 H   0  0  0  0  0  0  0  0  0  0  0  0
    8.0024    6.2412   -8.2840 H   0  0  0  0  0  0  0  0  0  0  0  0
    8.4805    9.1531   -6.7755 H   0  0  0  0  0  0  0  0  0  0  0  0
    9.2346   10.9218   -8.1911 H   0  0  0  0  0  0  0  0  0  0  0  0
  1  6  2  0
  2  3  2  0
  2  1  1  0
  3  4  1  0
  4  5  2  0
  6  5  1  0
  1  7  1  0
  3  8  1  0
  5  9  1  0
 10 11  1  0
 11 12  1  0
 12 13  1  0
 13 14  1  0
 14 15  1  0
 13 16  1  0
 16 17  1  0
 16 18  1  0
 18 19  1  0
 18 20  1  0
 20 21  1  0
 20 11  1  0
 11 22  1  1
 13 23  1  1
 14 24  1  0
 14 25  1  0
 15 26  1  0
 16 27  1  6
 17 28  1  0
 18 29  1  1
 19 30  1  0
 20 31  1  1
 21 32  1  0
  2 10  1  0
M  END
>  <Score>  (1) 
-7.63765

$$$$

     RDKit          3D

 25 27  0  0  0  0  0  0  0  0999 V2000
   11.6880    9.2528   -4.3268 C   0  0  0  0  0  0  0  0  0  0  0  0
   11.3416    8.0862   -5.0428 C   0  0  0  0  0  0  0  0  0  0  0  0
   11.4148    6.8763   -4.3717 C   0  0  0  0  0  0  0  0  0  0  0  0
   11.8189    6.8772   -3.0497 N   0  0  0  0  0  0  0  0  0  0  0  0
   12.1393    8.0082   -2.4057 C   0  0  0  0  0  0  0  0  0  0  0  0
   12.0773    9.1874   -3.0303 N   0  0  0  0  0  0  0  0  0  0  0  0
   11.6265   10.1763   -4.8541 H   0  0  0  0  0  0  0  0  0  0  0  0
   11.1789    5.9317   -4.8323 H   0  0  0  0  0  0  0  0  0  0  0  0
   12.4580    8.0272   -1.3697 H   0  0  0  0  0  0  0  0  0  0  0  0
   10.9607    8.2141   -6.3861 N   0  0  0  0  0  0  0  0  0  0  0  0
   10.8163    9.3971   -7.1291 C   0  0  0  0  0  0  0  0  0  0  0  0
   11.0750   10.6026   -6.5991 N   0  0  0  0  0  0  0  0  0  0  0  0
   10.9658   11.7600   -7.2722 C   0  0  0  0  0  0  0  0  0  0  0  0
   11.2030   12.6694   -6.7337 H   0  0  0  0  0  0  0  0  0  0  0  0
   10.5837   11.7957   -8.5445 N   0  0  0  0  0  0  0  0  0  0  0  0
   10.3068   10.6159   -9.1414 C   0  0  0  0  0  0  0  0  0  0  0  0
    9.9052   10.6182  -10.4654 C   0  0  0  0  0  0  0  0  0  0  0  0
    9.6322    9.4696  -11.0538 N   0  0  0  0  0  0  0  0  0  0  0  0
    9.7278    8.2740  -10.4147 C   0  0  0  0  0  0  0  0  0  0  0  0
   10.1233    8.2255   -9.0982 C   0  0  0  0  0  0  0  0  0  0  0  0
   10.4170    9.3969   -8.4481 C   0  0  0  0  0  0  0  0  0  0  0  0
   10.7550    7.3174   -6.8995 H   0  0  0  0  0  0  0  0  0  0  0  0
    9.8216   11.5614  -10.9963 H   0  0  0  0  0  0  0  0  0  0  0  0
    9.4959    7.3436  -10.9271 H   0  0  0  0  0  0  0  0  0  0  0  0
   10.1858    7.2686   -8.6284 H   0  0  0  0  0  0  0  0  0  0  0  0
  1  6  2  0
  2  3  2  0
  2  1  1  0
  3  4  1  0
  4  5  2  0
  6  5  1  0
  1  7  1  0
  3  8  1  0
  5  9  1  0
 10 11  1  0
 11 12  2  0
 12 13  1  0
 13 14  1  0
 13 15  2  0
 15 16  1  0
 16 17  2  0
 17 18  1  0
 18 19  2  0
 19 20  1  0
 20 21  2  0
 21 11  1  0
 21 16  1  0
 10 22  1  0
 17 23  1  0
 19 24  1  0
 20 25  1  0
  2 10  1  0
M  END
>  <Score>  (1) 
-7.63662

$$$$

     RDKit          3D

 23 24  0  0  0  0  0  0  0  0999 V2000
   11.6894    9.2556   -4.3235 C   0  0  0  0  0  0  0  0  0  0  0  0
   11.3440    8.0971   -5.0388 C   0  0  0  0  0  0  0  0  0  0  0  0
   11.4160    6.8620   -4.3622 C   0  0  0  0  0  0  0  0  0  0  0  0
   11.8158    6.8701   -3.0575 N   0  0  0  0  0  0  0  0  0  0  0  0
   12.1389    8.0078   -2.4070 C   0  0  0  0  0  0  0  0  0  0  0  0
   12.0758    9.1955   -3.0380 N   0  0  0  0  0  0  0  0  0  0  0  0
   11.6167   10.1719   -4.8887 H   0  0  0  0  0  0  0  0  0  0  0  0
   11.1568    5.9644   -4.8890 H   0  0  0  0  0  0  0  0  0  0  0  0
   12.4563    7.9820   -1.3602 H   0  0  0  0  0  0  0  0  0  0  0  0
    8.6294    5.5665   -8.6874 H   0  0  0  0  0  0  0  0  0  0  0  0
    8.2800    6.6129   -8.6327 C   0  0  0  0  0  0  0  0  0  0  0  0
    9.4440    7.4454   -8.2096 C   0  0  0  0  0  0  0  0  0  0  0  0
   10.1171    8.2505   -9.1003 C   0  0  0  0  0  0  0  0  0  0  0  0
   11.1847    8.9952   -8.6458 C   0  0  0  0  0  0  0  0  0  0  0  0
   11.5937    8.9523   -7.3211 C   0  0  0  0  0  0  0  0  0  0  0  0
   10.9275    8.1494   -6.4190 C   0  0  0  0  0  0  0  0  0  0  0  0
    9.8609    7.4123   -6.8968 C   0  0  0  0  0  0  0  0  0  0  0  0
    7.4561    6.6384   -7.8730 H   0  0  0  0  0  0  0  0  0  0  0  0
    7.8937    7.0025   -9.5966 H   0  0  0  0  0  0  0  0  0  0  0  0
    9.7845    8.2733  -10.1337 H   0  0  0  0  0  0  0  0  0  0  0  0
   11.7172    9.6292   -9.3392 H   0  0  0  0  0  0  0  0  0  0  0  0
   12.4323    9.5317   -6.9444 H   0  0  0  0  0  0  0  0  0  0  0  0
    9.3108    6.7639   -6.2027 H   0  0  0  0  0  0  0  0  0  0  0  0
  1  6  2  0
  2  3  2  0
  2  1  1  0
  3  4  1  0
  4  5  2  0
  6  5  1  0
  1  7  1  0
  3  8  1  0
  5  9  1  0
 10 11  1  0
 11 12  1  0
 12 13  2  0
 13 14  1  0
 14 15  2  0
 15 16  1  0
 16 17  2  0
 17 12  1  0
 11 18  1  0
 11 19  1  0
 13 20  1  0
 14 21  1  0
 15 22  1  0
 17 23  1  0
  2 16  1  0
M  END
>  <Score>  (1) 
-7.62992

$$$$

     RDKit          3D

 26 27  0  0  0  0  0  0  0  0999 V2000
   12.3019    8.1208   -2.3029 C   0  0  0  0  0  0  0  0  0  0  0  0
   12.0230    6.8847   -2.9089 C   0  0  0  0  0  0  0  0  0  0  0  0
   11.5231    6.8998   -4.2285 C   0  0  0  0  0  0  0  0  0  0  0  0
   11.3432    8.1071   -4.8290 N   0  0  0  0  0  0  0  0  0  0  0  0
   11.6242    9.2781   -4.2107 C   0  0  0  0  0  0  0  0  0  0  0  0
   12.0995    9.2806   -2.9579 N   0  0  0  0  0  0  0  0  0  0  0  0
   12.6845    8.1354   -1.2957 H   0  0  0  0  0  0  0  0  0  0  0  0
   12.1720    5.9536   -2.4188 H   0  0  0  0  0  0  0  0  0  0  0  0
   11.2896    5.9853   -4.7485 H   0  0  0  0  0  0  0  0  0  0  0  0
   11.4004   10.5345   -4.9322 C   0  0  0  0  0  0  0  0  0  0  0  0
   10.1285   10.8516   -5.3785 C   0  0  0  0  0  0  0  0  0  0  0  0
    9.8425   12.0013   -6.0564 C   0  0  0  0  0  0  0  0  0  0  0  0
   10.8860   12.8725   -6.2961 C   0  0  0  0  0  0  0  0  0  0  0  0
   12.1668   12.6154   -5.8799 C   0  0  0  0  0  0  0  0  0  0  0  0
   13.2990   13.5734   -6.1468 C   0  0  0  0  0  0  0  0  0  0  0  0
   12.3931   11.4309   -5.1964 C   0  0  0  0  0  0  0  0  0  0  0  0
   13.7882   11.1489   -4.7421 C   0  0  0  0  0  0  0  0  0  0  0  0
    9.3248   10.1489   -5.1770 H   0  0  0  0  0  0  0  0  0  0  0  0
    8.8541   12.2442   -6.4013 H   0  0  0  0  0  0  0  0  0  0  0  0
   10.7149   13.8099   -6.8352 H   0  0  0  0  0  0  0  0  0  0  0  0
   13.8093   13.8781   -5.2328 H   0  0  0  0  0  0  0  0  0  0  0  0
   12.8387   14.4867   -6.5868 H   0  0  0  0  0  0  0  0  0  0  0  0
   13.9659   13.1614   -6.9332 H   0  0  0  0  0  0  0  0  0  0  0  0
   13.8836   11.0822   -3.6559 H   0  0  0  0  0  0  0  0  0  0  0  0
   14.4851   11.9604   -5.0672 H   0  0  0  0  0  0  0  0  0  0  0  0
   14.1265   10.2439   -5.2931 H   0  0  0  0  0  0  0  0  0  0  0  0
  2  1  2  0
  3  2  1  0
  4  3  2  0
  4  5  1  0
  5  6  2  0
  6  1  1  0
  1  7  1  0
  2  8  1  0
  3  9  1  0
 10 11  2  0
 11 12  1  0
 12 13  2  0
 13 14  1  0
 14 15  1  0
 14 16  2  0
 16 17  1  0
 16 10  1  0
 11 18  1  0
 12 19  1  0
 13 20  1  0
 15 21  1  0
 15 22  1  0
 15 23  1  0
 17 24  1  0
 17 25  1  0
 17 26  1  0
  5 10  1  0
M  END
>  <Score>  (1) 
-7.53038

$$$$

     RDKit          3D

 26 28  0  0  0  0  0  0  0  0999 V2000
   11.6889    9.2523   -4.3244 C   0  0  0  0  0  0  0  0  0  0  0  0
   11.3437    8.0964   -5.0393 C   0  0  0  0  0  0  0  0  0  0  0  0
   11.4169    6.8670   -4.3612 C   0  0  0  0  0  0  0  0  0  0  0  0
   11.8149    6.8682   -3.0601 N   0  0  0  0  0  0  0  0  0  0  0  0
   12.1402    8.0090   -2.4033 C   0  0  0  0  0  0  0  0  0  0  0  0
   12.0755    9.1951   -3.0387 N   0  0  0  0  0  0  0  0  0  0  0  0
   11.6574   10.2264   -4.8076 H   0  0  0  0  0  0  0  0  0  0  0  0
   11.1662    5.9372   -4.8495 H   0  0  0  0  0  0  0  0  0  0  0  0
   12.4413    7.8998   -1.3788 H   0  0  0  0  0  0  0  0  0  0  0  0
   10.9519    8.1125   -6.4262 C   0  0  0  0  0  0  0  0  0  0  0  0
   11.4780    9.0339   -7.3121 C   0  0  0  0  0  0  0  0  0  0  0  0
   11.0644    9.0539   -8.6250 C   0  0  0  0  0  0  0  0  0  0  0  0
   10.1254    8.1618   -9.0753 C   0  0  0  0  0  0  0  0  0  0  0  0
    9.5870    7.2331   -8.2102 C   0  0  0  0  0  0  0  0  0  0  0  0
    8.6500    6.3457   -8.7076 C   0  0  0  0  0  0  0  0  0  0  0  0
    8.0866    5.3905   -7.8927 C   0  0  0  0  0  0  0  0  0  0  0  0
    8.4966    5.3635   -6.5792 C   0  0  0  0  0  0  0  0  0  0  0  0
    9.4354    6.2483   -6.0685 C   0  0  0  0  0  0  0  0  0  0  0  0
   10.0076    7.2123   -6.8751 C   0  0  0  0  0  0  0  0  0  0  0  0
   12.2076    9.7265   -6.9619 H   0  0  0  0  0  0  0  0  0  0  0  0
   11.4659    9.7746   -9.3481 H   0  0  0  0  0  0  0  0  0  0  0  0
    9.8023    8.1818  -10.1109 H   0  0  0  0  0  0  0  0  0  0  0  0
    8.3410    6.3878   -9.7560 H   0  0  0  0  0  0  0  0  0  0  0  0
    7.3531    4.6895   -8.2645 H   0  0  0  0  0  0  0  0  0  0  0  0
    8.0467    4.6024   -5.9347 H   0  0  0  0  0  0  0  0  0  0  0  0
    9.7260    6.1659   -5.0231 H   0  0  0  0  0  0  0  0  0  0  0  0
  1  6  2  0
  2  3  2  0
  2  1  1  0
  3  4  1  0
  4  5  2  0
  6  5  1  0
  1  7  1  0
  3  8  1  0
  5  9  1  0
 10 11  2  0
 11 12  1  0
 12 13  2  0
 13 14  1  0
 14 15  2  0
 15 16  1  0
 16 17  2  0
 17 18  1  0
 18 19  2  0
 19 10  1  0
 19 14  1  0
 11 20  1  0
 12 21  1  0
 13 22  1  0
 15 23  1  0
 16 24  1  0
 17 25  1  0
 18 26  1  0
  2 10  1  0
M  END
>  <Score>  (1) 
-7.6111

$$$$

     RDKit          3D

 26 27  0  0  0  0  0  0  0  0999 V2000
   11.6897    9.2566   -4.3229 C   0  0  0  0  0  0  0  0  0  0  0  0
   11.3433    8.0925   -5.0397 C   0  0  0  0  0  0  0  0  0  0  0  0
   11.4161    6.8652   -4.3632 C   0  0  0  0  0  0  0  0  0  0  0  0
   11.8153    6.8714   -3.0595 N   0  0  0  0  0  0  0  0  0  0  0  0
   12.1400    8.0090   -2.4040 C   0  0  0  0  0  0  0  0  0  0  0  0
   12.0756    9.1932   -3.0378 N   0  0  0  0  0  0  0  0  0  0  0  0
   11.6387   10.2236   -4.8354 H   0  0  0  0  0  0  0  0  0  0  0  0
   11.1611    5.9324   -4.8635 H   0  0  0  0  0  0  0  0  0  0  0  0
   12.4562    7.9929   -1.3642 H   0  0  0  0  0  0  0  0  0  0  0  0
   10.9281    8.1603   -6.4217 C   0  0  0  0  0  0  0  0  0  0  0  0
    9.6181    7.9905   -6.8100 C   0  0  0  0  0  0  0  0  0  0  0  0
    9.2397    8.0600   -8.1482 C   0  0  0  0  0  0  0  0  0  0  0  0
   10.2359    8.3063   -9.0660 C   0  0  0  0  0  0  0  0  0  0  0  0
    9.8729    8.3884  -10.5094 C   0  0  0  0  0  0  0  0  0  0  0  0
    9.9625    7.0353  -11.1563 C   0  0  0  0  0  0  0  0  0  0  0  0
   11.5341    8.4787   -8.7225 C   0  0  0  0  0  0  0  0  0  0  0  0
   11.8866    8.4048   -7.3810 C   0  0  0  0  0  0  0  0  0  0  0  0
    8.8468    7.7972   -6.0729 H   0  0  0  0  0  0  0  0  0  0  0  0
    8.2152    7.9274   -8.4555 H   0  0  0  0  0  0  0  0  0  0  0  0
   10.6056    9.0459  -11.0299 H   0  0  0  0  0  0  0  0  0  0  0  0
    8.8428    8.7510  -10.5716 H   0  0  0  0  0  0  0  0  0  0  0  0
    9.2053    6.9367  -11.9655 H   0  0  0  0  0  0  0  0  0  0  0  0
   10.9587    6.9137  -11.6745 H   0  0  0  0  0  0  0  0  0  0  0  0
    9.8527    6.2377  -10.3773 H   0  0  0  0  0  0  0  0  0  0  0  0
   12.3026    8.6720   -9.4628 H   0  0  0  0  0  0  0  0  0  0  0  0
   12.9161    8.5381   -7.0747 H   0  0  0  0  0  0  0  0  0  0  0  0
  1  6  2  0
  2  3  2  0
  2  1  1  0
  3  4  1  0
  4  5  2  0
  6  5  1  0
  1  7  1  0
  3  8  1  0
  5  9  1  0
 10 11  2  0
 11 12  1  0
 12 13  2  0
 13 14  1  0
 14 15  1  0
 13 16  1  0
 16 17  2  0
 17 10  1  0
 11 18  1  0
 12 19  1  0
 14 20  1  0
 14 21  1  0
 15 22  1  0
 15 23  1  0
 15 24  1  0
 16 25  1  0
 17 26  1  0
  2 10  1  0
M  END
>  <Score>  (1) 
-7.60336

$$$$

     RDKit          3D

 22 23  0  0  0  0  0  0  0  0999 V2000
   11.6880    9.2563   -4.3283 C   0  0  0  0  0  0  0  0  0  0  0  0
   11.3444    8.0937   -5.0367 C   0  0  0  0  0  0  0  0  0  0  0  0
   11.4156    6.8650   -4.3648 C   0  0  0  0  0  0  0  0  0  0  0  0
   11.8152    6.8692   -3.0590 N   0  0  0  0  0  0  0  0  0  0  0  0
   12.1401    8.0116   -2.4047 C   0  0  0  0  0  0  0  0  0  0  0  0
   12.0768    9.1922   -3.0334 N   0  0  0  0  0  0  0  0  0  0  0  0
   11.6197   10.1660   -4.8778 H   0  0  0  0  0  0  0  0  0  0  0  0
   11.1561    5.9891   -4.9007 H   0  0  0  0  0  0  0  0  0  0  0  0
   12.4515    7.9344   -1.3587 H   0  0  0  0  0  0  0  0  0  0  0  0
   10.9271    8.1554   -6.4242 C   0  0  0  0  0  0  0  0  0  0  0  0
   11.6545    7.4305   -7.3779 C   0  0  0  0  0  0  0  0  0  0  0  0
   11.3118    7.4457   -8.7105 C   0  0  0  0  0  0  0  0  0  0  0  0
   10.2253    8.1953   -9.1052 C   0  0  0  0  0  0  0  0  0  0  0  0
    9.5085    8.9123   -8.1508 C   0  0  0  0  0  0  0  0  0  0  0  0
    8.3915    9.6749   -8.5993 N   0  0  0  0  0  0  0  0  0  0  0  0
    9.8586    8.8912   -6.8209 C   0  0  0  0  0  0  0  0  0  0  0  0
   12.5098    6.8366   -7.0878 H   0  0  0  0  0  0  0  0  0  0  0  0
   11.9009    6.8663   -9.4401 H   0  0  0  0  0  0  0  0  0  0  0  0
    9.9437    8.2167  -10.1522 H   0  0  0  0  0  0  0  0  0  0  0  0
    8.1191   10.5967   -8.1911 H   0  0  0  0  0  0  0  0  0  0  0  0
    7.7721    9.3388   -9.3822 H   0  0  0  0  0  0  0  0  0  0  0  0
    9.2657    9.4646   -6.1388 H   0  0  0  0  0  0  0  0  0  0  0  0
  1  6  2  0
  2  3  2  0
  2  1  1  0
  3  4  1  0
  4  5  2  0
  6  5  1  0
  1  7  1  0
  3  8  1  0
  5  9  1  0
 10 11  2  0
 11 12  1  0
 12 13  2  0
 13 14  1  0
 14 15  1  0
 14 16  2  0
 16 10  1  0
 11 17  1  0
 12 18  1  0
 13 19  1  0
 15 20  1  0
 15 21  1  0
 16 22  1  0
  2 10  1  0
M  END
>  <Score>  (1) 
-7.5916

$$$$

     RDKit          3D

 20 21  0  0  0  0  0  0  0  0999 V2000
   11.6892    9.2576   -4.3247 C   0  0  0  0  0  0  0  0  0  0  0  0
   11.3438    8.0928   -5.0384 C   0  0  0  0  0  0  0  0  0  0  0  0
   11.4159    6.8646   -4.3636 C   0  0  0  0  0  0  0  0  0  0  0  0
   11.8155    6.8702   -3.0585 N   0  0  0  0  0  0  0  0  0  0  0  0
   12.1396    8.0083   -2.4051 C   0  0  0  0  0  0  0  0  0  0  0  0
   12.0761    9.1945   -3.0367 N   0  0  0  0  0  0  0  0  0  0  0  0
   11.6223   10.1865   -4.8755 H   0  0  0  0  0  0  0  0  0  0  0  0
   11.1565    5.9810   -4.8964 H   0  0  0  0  0  0  0  0  0  0  0  0
   12.4476    7.9405   -1.3734 H   0  0  0  0  0  0  0  0  0  0  0  0
   10.9312    8.1922   -6.4233 C   0  0  0  0  0  0  0  0  0  0  0  0
   10.5871    7.0435   -7.1382 C   0  0  0  0  0  0  0  0  0  0  0  0
   10.1894    7.0819   -8.4521 C   0  0  0  0  0  0  0  0  0  0  0  0
   10.1262    8.2824   -9.0874 C   0  0  0  0  0  0  0  0  0  0  0  0
    9.7379    8.3412  -10.3781 F   0  0  0  0  0  0  0  0  0  0  0  0
   10.4561    9.4406   -8.4221 C   0  0  0  0  0  0  0  0  0  0  0  0
   10.8521    9.3897   -7.1090 C   0  0  0  0  0  0  0  0  0  0  0  0
   11.1690   10.5378   -6.4824 F   0  0  0  0  0  0  0  0  0  0  0  0
   10.6370    6.0954   -6.6367 H   0  0  0  0  0  0  0  0  0  0  0  0
    9.9236    6.1872   -9.0022 H   0  0  0  0  0  0  0  0  0  0  0  0
   10.4029   10.3768   -8.9302 H   0  0  0  0  0  0  0  0  0  0  0  0
  1  6  2  0
  2  3  2  0
  2  1  1  0
  3  4  1  0
  4  5  2  0
  6  5  1  0
  1  7  1  0
  3  8  1  0
  5  9  1  0
 10 11  2  0
 11 12  1  0
 12 13  2  0
 13 14  1  0
 13 15  1  0
 15 16  2  0
 16 17  1  0
 16 10  1  0
 11 18  1  0
 12 19  1  0
 15 20  1  0
  2 10  1  0
M  END
>  <Score>  (1) 
-7.59159

$$$$

     RDKit          3D

 21 22  0  0  0  0  0  0  0  0999 V2000
   11.6906    9.2597   -4.3209 C   0  0  0  0  0  0  0  0  0  0  0  0
   11.3434    8.0902   -5.0385 C   0  0  0  0  0  0  0  0  0  0  0  0
   11.4169    6.8656   -4.3607 C   0  0  0  0  0  0  0  0  0  0  0  0
   11.8143    6.8686   -3.0621 N   0  0  0  0  0  0  0  0  0  0  0  0
   12.1399    8.0063   -2.4033 C   0  0  0  0  0  0  0  0  0  0  0  0
   12.0749    9.1975   -3.0416 N   0  0  0  0  0  0  0  0  0  0  0  0
   11.6444   10.2189   -4.8181 H   0  0  0  0  0  0  0  0  0  0  0  0
   11.1626    5.9558   -4.8682 H   0  0  0  0  0  0  0  0  0  0  0  0
   12.4485    7.9226   -1.3629 H   0  0  0  0  0  0  0  0  0  0  0  0
   10.9264    8.1311   -6.4159 C   0  0  0  0  0  0  0  0  0  0  0  0
   10.8371    9.3534   -7.0570 C   0  0  0  0  0  0  0  0  0  0  0  0
   10.4476    9.4828   -8.3756 C   0  0  0  0  0  0  0  0  0  0  0  0
   10.1350    8.3374   -9.0783 C   0  0  0  0  0  0  0  0  0  0  0  0
    9.8187    8.3870  -10.1323 H   0  0  0  0  0  0  0  0  0  0  0  0
   10.2065    7.0880   -8.4880 C   0  0  0  0  0  0  0  0  0  0  0  0
    9.8738    5.8960   -9.2462 C   0  0  0  0  0  0  0  0  0  0  0  0
    9.6064    4.9381   -9.8637 N   0  0  0  0  0  0  0  0  0  0  0  0
   10.6001    7.0233   -7.1741 C   0  0  0  0  0  0  0  0  0  0  0  0
   11.0859   10.2400   -6.4929 H   0  0  0  0  0  0  0  0  0  0  0  0
   10.3771   10.4411   -8.8799 H   0  0  0  0  0  0  0  0  0  0  0  0
   10.6587    6.0370   -6.6971 H   0  0  0  0  0  0  0  0  0  0  0  0
  1  6  2  0
  2  3  2  0
  2  1  1  0
  3  4  1  0
  4  5  2  0
  6  5  1  0
  1  7  1  0
  3  8  1  0
  5  9  1  0
 10 11  2  0
 11 12  1  0
 12 13  2  0
 13 14  1  0
 13 15  1  0
 15 16  1  0
 16 17  3  0
 15 18  2  0
 18 10  1  0
 11 19  1  0
 12 20  1  0
 18 21  1  0
  2 10  1  0
M  END
>  <Score>  (1) 
-7.59077

$$$$

     RDKit          3D

 32 33  0  0  0  0  0  0  0  0999 V2000
   11.6882    9.2565   -4.3276 C   0  0  0  0  0  0  0  0  0  0  0  0
   11.3434    8.0938   -5.0399 C   0  0  0  0  0  0  0  0  0  0  0  0
   11.4174    6.8673   -4.3596 C   0  0  0  0  0  0  0  0  0  0  0  0
   11.8144    6.8688   -3.0615 N   0  0  0  0  0  0  0  0  0  0  0  0
   12.1402    8.0114   -2.4041 C   0  0  0  0  0  0  0  0  0  0  0  0
   12.0763    9.1903   -3.0344 N   0  0  0  0  0  0  0  0  0  0  0  0
   11.6292   10.1979   -4.8571 H   0  0  0  0  0  0  0  0  0  0  0  0
   11.1577    5.9592   -4.8846 H   0  0  0  0  0  0  0  0  0  0  0  0
   12.4559    8.0034   -1.3688 H   0  0  0  0  0  0  0  0  0  0  0  0
   10.9623    8.2236   -6.3330 O   0  0  0  0  0  0  0  0  0  0  0  0
   11.0928    9.2790   -7.2112 C   0  0  2  0  0  0  0  0  0  0  0  0
    9.8415    9.7155   -7.5976 O   0  0  0  0  0  0  0  0  0  0  0  0
    9.7904   10.7416   -8.4654 C   0  0  2  0  0  0  0  0  0  0  0  0
    8.4736   10.6215   -9.2496 C   0  0  0  0  0  0  0  0  0  0  0  0
    8.3476   11.6564  -10.1746 O   0  0  0  0  0  0  0  0  0  0  0  0
   10.8795   10.9269   -9.4305 C   0  0  1  0  0  0  0  0  0  0  0  0
   11.0840   12.3041   -9.6786 O   0  0  0  0  0  0  0  0  0  0  0  0
   12.1900   10.2997   -9.0724 C   0  0  2  0  0  0  0  0  0  0  0  0
   12.9881   10.1010  -10.1928 O   0  0  0  0  0  0  0  0  0  0  0  0
   11.8499    8.9486   -8.4742 C   0  0  1  0  0  0  0  0  0  0  0  0
   12.9343    8.1471   -8.2904 O   0  0  0  0  0  0  0  0  0  0  0  0
   11.6002   10.1292   -6.7180 H   0  0  0  0  0  0  0  0  0  0  0  0
    9.6693   11.6986   -7.8778 H   0  0  0  0  0  0  0  0  0  0  0  0
    7.6028   10.6208   -8.5731 H   0  0  0  0  0  0  0  0  0  0  0  0
    8.4818    9.6676   -9.8447 H   0  0  0  0  0  0  0  0  0  0  0  0
    8.5277   11.3493  -11.1016 H   0  0  0  0  0  0  0  0  0  0  0  0
   10.5840   10.5026  -10.4328 H   0  0  0  0  0  0  0  0  0  0  0  0
   10.4752   12.5961  -10.4021 H   0  0  0  0  0  0  0  0  0  0  0  0
   12.7393   10.8574   -8.2754 H   0  0  0  0  0  0  0  0  0  0  0  0
   13.8315    9.7187   -9.9032 H   0  0  0  0  0  0  0  0  0  0  0  0
   11.1052    8.4673   -9.1649 H   0  0  0  0  0  0  0  0  0  0  0  0
   12.7658    7.2675   -8.7138 H   0  0  0  0  0  0  0  0  0  0  0  0
  1  6  2  0
  2  3  2  0
  2  1  1  0
  3  4  1  0
  4  5  2  0
  6  5  1  0
  1  7  1  0
  3  8  1  0
  5  9  1  0
 10 11  1  0
 11 12  1  0
 12 13  1  0
 13 14  1  0
 14 15  1  0
 13 16  1  0
 16 17  1  0
 16 18  1  0
 18 19  1  0
 18 20  1  0
 20 21  1  0
 20 11  1  0
 11 22  1  1
 13 23  1  1
 14 24  1  0
 14 25  1  0
 15 26  1  0
 16 27  1  6
 17 28  1  0
 18 29  1  1
 19 30  1  0
 20 31  1  6
 21 32  1  0
  2 10  1  0
M  END
>  <Score>  (1) 
-7.59062

$$$$

     RDKit          3D

 21 22  0  0  0  0  0  0  0  0999 V2000
   11.6894    9.2576   -4.3242 C   0  0  0  0  0  0  0  0  0  0  0  0
   11.3438    8.0928   -5.0383 C   0  0  0  0  0  0  0  0  0  0  0  0
   11.4168    6.8647   -4.3605 C   0  0  0  0  0  0  0  0  0  0  0  0
   11.8142    6.8691   -3.0622 N   0  0  0  0  0  0  0  0  0  0  0  0
   12.1399    8.0081   -2.4039 C   0  0  0  0  0  0  0  0  0  0  0  0
   12.0758    9.1957   -3.0380 N   0  0  0  0  0  0  0  0  0  0  0  0
   11.6230   10.1861   -4.8731 H   0  0  0  0  0  0  0  0  0  0  0  0
   11.1700    5.9499   -4.8409 H   0  0  0  0  0  0  0  0  0  0  0  0
   12.4515    7.9875   -1.3774 H   0  0  0  0  0  0  0  0  0  0  0  0
   10.9241    8.1532   -6.4332 C   0  0  0  0  0  0  0  0  0  0  0  0
   11.7358    8.6806   -7.4157 C   0  0  0  0  0  0  0  0  0  0  0  0
   11.3139    8.7264   -8.7330 C   0  0  0  0  0  0  0  0  0  0  0  0
   10.0785    8.2541   -9.1247 C   0  0  0  0  0  0  0  0  0  0  0  0
    9.2707    7.7273   -8.1365 C   0  0  0  0  0  0  0  0  0  0  0  0
    8.0081    7.2402   -8.5122 O   0  0  0  0  0  0  0  0  0  0  0  0
    9.6879    7.6800   -6.8221 C   0  0  0  0  0  0  0  0  0  0  0  0
   12.7059    9.0487   -7.0919 H   0  0  0  0  0  0  0  0  0  0  0  0
   11.9973    9.1510   -9.4484 H   0  0  0  0  0  0  0  0  0  0  0  0
    9.7955    8.3117  -10.1620 H   0  0  0  0  0  0  0  0  0  0  0  0
    8.0043    6.2432   -8.7734 H   0  0  0  0  0  0  0  0  0  0  0  0
    9.0406    7.2594   -6.0389 H   0  0  0  0  0  0  0  0  0  0  0  0
  1  6  2  0
  2  3  2  0
  2  1  1  0
  3  4  1  0
  4  5  2  0
  6  5  1  0
  1  7  1  0
  3  8  1  0
  5  9  1  0
 10 11  2  0
 11 12  1  0
 12 13  2  0
 13 14  1  0
 14 15  1  0
 14 16  2  0
 16 10  1  0
 11 17  1  0
 12 18  1  0
 13 19  1  0
 15 20  1  0
 16 21  1  0
  2 10  1  0
M  END
>  <Score>  (1) 
-7.583

$$$$

     RDKit          3D

 23 25  0  0  0  0  0  0  0  0999 V2000
   11.6886    9.2566   -4.3263 C   0  0  0  0  0  0  0  0  0  0  0  0
   11.3440    8.0931   -5.0375 C   0  0  0  0  0  0  0  0  0  0  0  0
   11.4160    6.8653   -4.3633 C   0  0  0  0  0  0  0  0  0  0  0  0
   11.8149    6.8687   -3.0599 N   0  0  0  0  0  0  0  0  0  0  0  0
   12.1399    8.0109   -2.4050 C   0  0  0  0  0  0  0  0  0  0  0  0
   12.0765    9.1934   -3.0349 N   0  0  0  0  0  0  0  0  0  0  0  0
   11.6345   10.2028   -4.8415 H   0  0  0  0  0  0  0  0  0  0  0  0
   11.1561    5.9635   -4.8914 H   0  0  0  0  0  0  0  0  0  0  0  0
   12.4476    7.9272   -1.3687 H   0  0  0  0  0  0  0  0  0  0  0  0
   10.9284    8.1577   -6.4201 C   0  0  0  0  0  0  0  0  0  0  0  0
   11.3414    7.3608   -7.3900 N   0  0  0  0  0  0  0  0  0  0  0  0
   10.7487    7.7076   -8.5465 C   0  0  0  0  0  0  0  0  0  0  0  0
   10.8609    7.1756   -9.8187 C   0  0  0  0  0  0  0  0  0  0  0  0
   11.5068    6.3360  -10.0348 H   0  0  0  0  0  0  0  0  0  0  0  0
   10.1133    7.7554  -10.8224 C   0  0  0  0  0  0  0  0  0  0  0  0
    9.2835    8.8263  -10.5696 C   0  0  0  0  0  0  0  0  0  0  0  0
    9.2059    9.3248   -9.2723 C   0  0  0  0  0  0  0  0  0  0  0  0
    9.9303    8.7747   -8.2621 C   0  0  0  0  0  0  0  0  0  0  0  0
   10.0677    9.0258   -6.9342 N   0  0  0  0  0  0  0  0  0  0  0  0
   10.1909    7.3482  -11.8277 H   0  0  0  0  0  0  0  0  0  0  0  0
    8.6850    9.2988  -11.3466 H   0  0  0  0  0  0  0  0  0  0  0  0
    8.5410   10.1774   -9.0875 H   0  0  0  0  0  0  0  0  0  0  0  0
    9.5440    9.8049   -6.4449 H   0  0  0  0  0  0  0  0  0  0  0  0
  1  6  2  0
  2  3  2  0
  2  1  1  0
  3  4  1  0
  4  5  2  0
  6  5  1  0
  1  7  1  0
  3  8  1  0
  5  9  1  0
 10 11  2  0
 11 12  1  0
 12 13  2  0
 13 14  1  0
 13 15  1  0
 15 16  2  0
 16 17  1  0
 17 18  2  0
 18 19  1  0
 19 10  1  0
 18 12  1  0
 15 20  1  0
 16 21  1  0
 17 22  1  0
 19 23  1  0
  2 10  1  0
M  END
>  <Score>  (1) 
-7.57586

$$$$

     RDKit          3D

 31 32  0  0  0  0  0  0  0  0999 V2000
   11.6892    9.2577   -4.3247 C   0  0  0  0  0  0  0  0  0  0  0  0
   11.3439    8.0913   -5.0375 C   0  0  0  0  0  0  0  0  0  0  0  0
   11.4155    6.8661   -4.3653 C   0  0  0  0  0  0  0  0  0  0  0  0
   11.8159    6.8706   -3.0573 N   0  0  0  0  0  0  0  0  0  0  0  0
   12.1395    8.0070   -2.4049 C   0  0  0  0  0  0  0  0  0  0  0  0
   12.0760    9.1953   -3.0373 N   0  0  0  0  0  0  0  0  0  0  0  0
   11.6222   10.1917   -4.8775 H   0  0  0  0  0  0  0  0  0  0  0  0
   11.1566    5.9850   -4.8975 H   0  0  0  0  0  0  0  0  0  0  0  0
   12.4441    7.9038   -1.3719 H   0  0  0  0  0  0  0  0  0  0  0  0
   10.9168    8.1436   -6.4529 C   0  0  2  0  0  0  0  0  0  0  0  0
    9.8410    7.3690   -6.6383 O   0  0  0  0  0  0  0  0  0  0  0  0
    9.5317    6.8570   -7.8264 C   0  0  1  0  0  0  0  0  0  0  0  0
    8.2781    7.5693   -8.3603 C   0  0  0  0  0  0  0  0  0  0  0  0
    7.2387    7.3757   -7.4802 O   0  0  0  0  0  0  0  0  0  0  0  0
   10.5389    6.8850   -8.9149 C   0  0  2  0  0  0  0  0  0  0  0  0
   11.3632    5.7576   -8.8323 O   0  0  0  0  0  0  0  0  0  0  0  0
   11.4821    8.0886   -8.7777 C   0  0  2  0  0  0  0  0  0  0  0  0
   12.4130    8.1180   -9.7761 O   0  0  0  0  0  0  0  0  0  0  0  0
   12.0746    7.8863   -7.3954 C   0  0  1  0  0  0  0  0  0  0  0  0
   13.0961    8.7738   -7.1265 O   0  0  0  0  0  0  0  0  0  0  0  0
   10.6248    9.2196   -6.6432 H   0  0  0  0  0  0  0  0  0  0  0  0
    9.2012    5.7832   -7.7018 H   0  0  0  0  0  0  0  0  0  0  0  0
    8.0391    7.2050   -9.3978 H   0  0  0  0  0  0  0  0  0  0  0  0
    8.5575    8.6626   -8.3892 H   0  0  0  0  0  0  0  0  0  0  0  0
    7.2688    6.4585   -7.1440 H   0  0  0  0  0  0  0  0  0  0  0  0
   10.0908    6.8784   -9.9255 H   0  0  0  0  0  0  0  0  0  0  0  0
   12.2551    5.9054   -9.2284 H   0  0  0  0  0  0  0  0  0  0  0  0
   10.8095    8.9887   -8.7579 H   0  0  0  0  0  0  0  0  0  0  0  0
   12.2080    7.4961  -10.5069 H   0  0  0  0  0  0  0  0  0  0  0  0
   12.4469    6.8634   -7.2557 H   0  0  0  0  0  0  0  0  0  0  0  0
   12.8019    9.6993   -6.9894 H   0  0  0  0  0  0  0  0  0  0  0  0
  1  6  2  0
  2  3  2  0
  2  1  1  0
  3  4  1  0
  4  5  2  0
  6  5  1  0
  1  7  1  0
  3  8  1  0
  5  9  1  0
 10 11  1  0
 11 12  1  0
 12 13  1  0
 13 14  1  0
 12 15  1  0
 15 16  1  0
 15 17  1  0
 17 18  1  0
 17 19  1  0
 19 20  1  0
 19 10  1  0
 10 21  1  6
 12 22  1  1
 13 23  1  0
 13 24  1  0
 14 25  1  0
 15 26  1  6
 16 27  1  0
 17 28  1  1
 18 29  1  0
 19 30  1  6
 20 31  1  0
  2 10  1  0
M  END
>  <Score>  (1) 
-7.57224

$$$$

     RDKit          3D

 22 24  0  0  0  0  0  0  0  0999 V2000
   11.6884    9.2561   -4.3268 C   0  0  0  0  0  0  0  0  0  0  0  0
   11.3444    8.0904   -5.0356 C   0  0  0  0  0  0  0  0  0  0  0  0
   11.4147    6.8686   -4.3689 C   0  0  0  0  0  0  0  0  0  0  0  0
   11.8167    6.8708   -3.0548 N   0  0  0  0  0  0  0  0  0  0  0  0
   12.1394    8.0070   -2.4051 C   0  0  0  0  0  0  0  0  0  0  0  0
   12.0764    9.1950   -3.0358 N   0  0  0  0  0  0  0  0  0  0  0  0
   11.6345   10.2022   -4.8412 H   0  0  0  0  0  0  0  0  0  0  0  0
   11.1639    5.9473   -4.8599 H   0  0  0  0  0  0  0  0  0  0  0  0
   12.4435    7.8951   -1.3705 H   0  0  0  0  0  0  0  0  0  0  0  0
   10.9269    8.1676   -6.4284 C   0  0  0  0  0  0  0  0  0  0  0  0
   10.0547    9.0672   -6.9090 N   0  0  0  0  0  0  0  0  0  0  0  0
    9.8832    8.8697   -8.2345 C   0  0  0  0  0  0  0  0  0  0  0  0
    9.1385    9.4658   -9.2110 C   0  0  0  0  0  0  0  0  0  0  0  0
    9.2152    8.9827  -10.4966 C   0  0  0  0  0  0  0  0  0  0  0  0
   10.0120    7.9166  -10.8608 C   0  0  0  0  0  0  0  0  0  0  0  0
   10.7483    7.3453   -9.8361 C   0  0  0  0  0  0  0  0  0  0  0  0
   10.6937    7.8034   -8.5447 C   0  0  0  0  0  0  0  0  0  0  0  0
   11.2817    7.4373   -7.4305 O   0  0  0  0  0  0  0  0  0  0  0  0
    8.4901   10.3197   -8.9594 H   0  0  0  0  0  0  0  0  0  0  0  0
    8.6283    9.4486  -11.2792 H   0  0  0  0  0  0  0  0  0  0  0  0
   10.0388    7.5730  -11.8850 H   0  0  0  0  0  0  0  0  0  0  0  0
   11.3770    6.5074  -10.1125 H   0  0  0  0  0  0  0  0  0  0  0  0
  1  6  2  0
  2  3  2  0
  2  1  1  0
  3  4  1  0
  4  5  2  0
  6  5  1  0
  1  7  1  0
  3  8  1  0
  5  9  1  0
 10 11  2  0
 11 12  1  0
 12 13  2  0
 13 14  1  0
 14 15  2  0
 15 16  1  0
 16 17  2  0
 17 18  1  0
 18 10  1  0
 17 12  1  0
 13 19  1  0
 14 20  1  0
 15 21  1  0
 16 22  1  0
  2 10  1  0
M  END
>  <Score>  (1) 
-7.56753

$$$$

     RDKit          3D

 26 27  0  0  0  0  0  0  0  0999 V2000
   12.3029    8.1217   -2.3004 C   0  0  0  0  0  0  0  0  0  0  0  0
   12.0204    6.8830   -2.9156 C   0  0  0  0  0  0  0  0  0  0  0  0
   11.5254    6.8974   -4.2222 C   0  0  0  0  0  0  0  0  0  0  0  0
   11.3425    8.1096   -4.8313 N   0  0  0  0  0  0  0  0  0  0  0  0
   11.6245    9.2764   -4.2097 C   0  0  0  0  0  0  0  0  0  0  0  0
   12.0993    9.2829   -2.9587 N   0  0  0  0  0  0  0  0  0  0  0  0
   12.6868    8.1320   -1.2895 H   0  0  0  0  0  0  0  0  0  0  0  0
   12.1833    5.9525   -2.3889 H   0  0  0  0  0  0  0  0  0  0  0  0
   11.2961    5.9962   -4.7326 H   0  0  0  0  0  0  0  0  0  0  0  0
   11.4097   10.5528   -4.9097 C   0  0  0  0  0  0  0  0  0  0  0  0
   11.0881   11.6818   -4.1927 C   0  0  0  0  0  0  0  0  0  0  0  0
   10.8832   12.8869   -4.8329 C   0  0  0  0  0  0  0  0  0  0  0  0
   10.5393   14.0931   -4.0640 C   0  0  0  0  0  0  0  0  0  0  0  0
   11.0024   12.9603   -6.2085 C   0  0  0  0  0  0  0  0  0  0  0  0
   11.3235   11.8473   -6.9574 C   0  0  0  0  0  0  0  0  0  0  0  0
   11.4477   11.9448   -8.4378 C   0  0  0  0  0  0  0  0  0  0  0  0
   11.5202   10.6592   -6.2724 C   0  0  0  0  0  0  0  0  0  0  0  0
   10.9969   11.6097   -3.1043 H   0  0  0  0  0  0  0  0  0  0  0  0
    9.4454   14.2906   -4.2236 H   0  0  0  0  0  0  0  0  0  0  0  0
   10.6738   13.9398   -2.9793 H   0  0  0  0  0  0  0  0  0  0  0  0
   11.1671   14.9515   -4.3932 H   0  0  0  0  0  0  0  0  0  0  0  0
   10.8476   13.8999   -6.7585 H   0  0  0  0  0  0  0  0  0  0  0  0
   10.4276   12.2606   -8.8063 H   0  0  0  0  0  0  0  0  0  0  0  0
   11.6499   10.9281   -8.8345 H   0  0  0  0  0  0  0  0  0  0  0  0
   12.2005   12.6853   -8.7395 H   0  0  0  0  0  0  0  0  0  0  0  0
   11.7692    9.7871   -6.8314 H   0  0  0  0  0  0  0  0  0  0  0  0
  2  1  2  0
  3  2  1  0
  4  3  2  0
  4  5  1  0
  5  6  2  0
  6  1  1  0
  1  7  1  0
  2  8  1  0
  3  9  1  0
 10 11  2  0
 11 12  1  0
 12 13  1  0
 12 14  2  0
 14 15  1  0
 15 16  1  0
 15 17  2  0
 17 10  1  0
 11 18  1  0
 13 19  1  0
 13 20  1  0
 13 21  1  0
 14 22  1  0
 16 23  1  0
 16 24  1  0
 16 25  1  0
 17 26  1  0
  5 10  1  0
M  END
>  <Score>  (1) 
-7.52974

$$$$

     RDKit          3D

 23 25  0  0  0  0  0  0  0  0999 V2000
   11.6883    9.2528   -4.3258 C   0  0  0  0  0  0  0  0  0  0  0  0
   11.3450    8.0946   -5.0352 C   0  0  0  0  0  0  0  0  0  0  0  0
   11.4153    6.8671   -4.3663 C   0  0  0  0  0  0  0  0  0  0  0  0
   11.8160    6.8702   -3.0566 N   0  0  0  0  0  0  0  0  0  0  0  0
   12.1395    8.0064   -2.4047 C   0  0  0  0  0  0  0  0  0  0  0  0
   12.0759    9.1968   -3.0384 N   0  0  0  0  0  0  0  0  0  0  0  0
   11.6393   10.2177   -4.8089 H   0  0  0  0  0  0  0  0  0  0  0  0
   11.1554    5.9933   -4.9037 H   0  0  0  0  0  0  0  0  0  0  0  0
   12.4447    7.9087   -1.3719 H   0  0  0  0  0  0  0  0  0  0  0  0
   10.9119    8.1186   -6.4260 C   0  0  0  0  0  0  0  0  0  0  0  0
   11.2010    9.2117   -7.2529 C   0  0  0  0  0  0  0  0  0  0  0  0
   10.7955    9.2078   -8.5619 C   0  0  0  0  0  0  0  0  0  0  0  0
   10.1011    8.1365   -9.0845 C   0  0  0  0  0  0  0  0  0  0  0  0
    9.8030    7.0479   -8.2928 C   0  0  0  0  0  0  0  0  0  0  0  0
    9.1635    5.8800   -8.4654 N   0  0  0  0  0  0  0  0  0  0  0  0
    9.1636    5.1910   -7.3413 N   0  0  0  0  0  0  0  0  0  0  0  0
    9.8080    5.8800   -6.3716 C   0  0  0  0  0  0  0  0  0  0  0  0
   10.2162    7.0581   -6.9688 C   0  0  0  0  0  0  0  0  0  0  0  0
   11.7450   10.0175   -6.7891 H   0  0  0  0  0  0  0  0  0  0  0  0
   11.0438   10.0783   -9.1619 H   0  0  0  0  0  0  0  0  0  0  0  0
    9.7810    8.1314  -10.1151 H   0  0  0  0  0  0  0  0  0  0  0  0
    8.7430    5.6056   -9.3844 H   0  0  0  0  0  0  0  0  0  0  0  0
    9.9710    5.5818   -5.3412 H   0  0  0  0  0  0  0  0  0  0  0  0
  1  6  2  0
  2  3  2  0
  2  1  1  0
  3  4  1  0
  4  5  2  0
  6  5  1  0
  1  7  1  0
  3  8  1  0
  5  9  1  0
 10 11  2  0
 11 12  1  0
 12 13  2  0
 13 14  1  0
 14 15  1  0
 15 16  1  0
 16 17  2  0
 17 18  1  0
 18 10  1  0
 18 14  2  0
 11 19  1  0
 12 20  1  0
 13 21  1  0
 15 22  1  0
 17 23  1  0
  2 10  1  0
M  END
>  <Score>  (1) 
-7.56752

$$$$

     RDKit          3D

 22 23  0  0  0  0  0  0  0  0999 V2000
   11.6906    9.2598   -4.3212 C   0  0  0  0  0  0  0  0  0  0  0  0
   11.3434    8.0902   -5.0385 C   0  0  0  0  0  0  0  0  0  0  0  0
   11.4150    6.8656   -4.3668 C   0  0  0  0  0  0  0  0  0  0  0  0
   11.8169    6.8709   -3.0542 N   0  0  0  0  0  0  0  0  0  0  0  0
   12.1388    8.0080   -2.4077 C   0  0  0  0  0  0  0  0  0  0  0  0
   12.0754    9.1936   -3.0387 N   0  0  0  0  0  0  0  0  0  0  0  0
   11.6185   10.1823   -4.8842 H   0  0  0  0  0  0  0  0  0  0  0  0
   11.1615    5.9494   -4.8675 H   0  0  0  0  0  0  0  0  0  0  0  0
   12.4453    7.9383   -1.3800 H   0  0  0  0  0  0  0  0  0  0  0  0
   10.9282    8.1747   -6.4259 C   0  0  0  0  0  0  0  0  0  0  0  0
   10.3098    9.2940   -6.8989 C   0  0  0  0  0  0  0  0  0  0  0  0
    9.9077    9.3918   -8.2179 C   0  0  0  0  0  0  0  0  0  0  0  0
   10.1257    8.3521   -9.0862 C   0  0  0  0  0  0  0  0  0  0  0  0
   10.7501    7.2336   -8.5901 C   0  0  0  0  0  0  0  0  0  0  0  0
   10.9776    6.1507   -9.4942 N   0  0  0  0  0  4  0  0  0  0  0  0
   10.6313    6.2004  -10.6836 O   0  0  0  0  0  0  0  0  0  0  0  0
   11.5973    4.9865   -9.0891 O   0  0  0  0  0  1  0  0  0  0  0  0
   11.1563    7.1263   -7.2717 C   0  0  0  0  0  0  0  0  0  0  0  0
   10.1222   10.1305   -6.2472 H   0  0  0  0  0  0  0  0  0  0  0  0
    9.4202   10.2861   -8.5711 H   0  0  0  0  0  0  0  0  0  0  0  0
    9.8035    8.4477  -10.1165 H   0  0  0  0  0  0  0  0  0  0  0  0
   11.6432    6.2262   -6.9298 H   0  0  0  0  0  0  0  0  0  0  0  0
  1  6  2  0
  2  3  2  0
  2  1  1  0
  3  4  1  0
  4  5  2  0
  6  5  1  0
  1  7  1  0
  3  8  1  0
  5  9  1  0
 10 11  2  0
 11 12  1  0
 12 13  2  0
 13 14  1  0
 14 15  1  0
 15 16  2  0
 15 17  1  0
 14 18  2  0
 18 10  1  0
 11 19  1  0
 12 20  1  0
 13 21  1  0
 18 22  1  0
  2 10  1  0
M  CHG  2  15   1  17  -1
M  END
>  <Score>  (1) 
-7.56451

$$$$

     RDKit          3D

 20 21  0  0  0  0  0  0  0  0999 V2000
   11.6884    9.2549   -4.3265 C   0  0  0  0  0  0  0  0  0  0  0  0
   11.3440    8.0903   -5.0366 C   0  0  0  0  0  0  0  0  0  0  0  0
   11.4159    6.8692   -4.3652 C   0  0  0  0  0  0  0  0  0  0  0  0
   11.8150    6.8694   -3.0597 N   0  0  0  0  0  0  0  0  0  0  0  0
   12.1400    8.0098   -2.4041 C   0  0  0  0  0  0  0  0  0  0  0  0
   12.0766    9.1944   -3.0349 N   0  0  0  0  0  0  0  0  0  0  0  0
   11.6560   10.2232   -4.7785 H   0  0  0  0  0  0  0  0  0  0  0  0
   11.1615    5.9348   -4.8667 H   0  0  0  0  0  0  0  0  0  0  0  0
   12.4562    8.0218   -1.3742 H   0  0  0  0  0  0  0  0  0  0  0  0
   10.9342    8.1847   -6.4066 C   0  0  0  0  0  0  0  0  0  0  0  0
   10.0335    7.2679   -6.9142 C   0  0  0  0  0  0  0  0  0  0  0  0
    9.5954    7.2997   -8.2195 C   0  0  0  0  0  0  0  0  0  0  0  0
   10.0882    8.2937   -9.0329 C   0  0  0  0  0  0  0  0  0  0  0  0
    9.6618    8.3288  -10.3128 F   0  0  0  0  0  0  0  0  0  0  0  0
   10.9945    9.2175   -8.5252 C   0  0  0  0  0  0  0  0  0  0  0  0
   11.4329    9.1846   -7.2168 C   0  0  0  0  0  0  0  0  0  0  0  0
   12.5784   10.3824   -6.6485 Cl  0  0  0  0  0  0  0  0  0  0  0  0
    9.6182    6.4613   -6.2974 H   0  0  0  0  0  0  0  0  0  0  0  0
    8.8919    6.5689   -8.5834 H   0  0  0  0  0  0  0  0  0  0  0  0
   11.3640    9.9831   -9.1799 H   0  0  0  0  0  0  0  0  0  0  0  0
  1  6  2  0
  2  3  2  0
  2  1  1  0
  3  4  1  0
  4  5  2  0
  6  5  1  0
  1  7  1  0
  3  8  1  0
  5  9  1  0
 10 11  2  0
 11 12  1  0
 12 13  2  0
 13 14  1  0
 13 15  1  0
 15 16  2  0
 16 17  1  0
 16 10  1  0
 11 18  1  0
 12 19  1  0
 15 20  1  0
  2 10  1  0
M  END
>  <Score>  (1) 
-7.56211

$$$$

     RDKit          3D

 22 24  0  0  0  0  0  0  0  0999 V2000
   11.6887    9.2547   -4.3254 C   0  0  0  0  0  0  0  0  0  0  0  0
   11.3439    8.0887   -5.0365 C   0  0  0  0  0  0  0  0  0  0  0  0
   11.4152    6.8719   -4.3684 C   0  0  0  0  0  0  0  0  0  0  0  0
   11.8164    6.8699   -3.0556 N   0  0  0  0  0  0  0  0  0  0  0  0
   12.1397    8.0066   -2.4042 C   0  0  0  0  0  0  0  0  0  0  0  0
   12.0762    9.1962   -3.0369 N   0  0  0  0  0  0  0  0  0  0  0  0
   11.6287   10.1942   -4.8572 H   0  0  0  0  0  0  0  0  0  0  0  0
   11.1682    5.9604   -4.8505 H   0  0  0  0  0  0  0  0  0  0  0  0
   12.4562    8.0283   -1.3766 H   0  0  0  0  0  0  0  0  0  0  0  0
   10.9308    8.2026   -6.4284 C   0  0  0  0  0  0  0  0  0  0  0  0
   10.8732    7.1134   -7.2634 C   0  0  0  0  0  0  0  0  0  0  0  0
   10.4791    7.2177   -8.5942 C   0  0  0  0  0  0  0  0  0  0  0  0
   10.3358    6.3117   -9.6256 C   0  0  0  0  0  0  0  0  0  0  0  0
   10.5422    5.2554   -9.5101 H   0  0  0  0  0  0  0  0  0  0  0  0
    9.9180    7.0130  -10.6931 N   0  0  0  0  0  0  0  0  0  0  0  0
    9.7956    8.2949  -10.3812 N   0  0  0  0  0  0  0  0  0  0  0  0
   10.1358    8.4608   -9.0843 C   0  0  0  0  0  0  0  0  0  0  0  0
   10.1986    9.5476   -8.2320 C   0  0  0  0  0  0  0  0  0  0  0  0
   10.5882    9.3933   -6.9467 N   0  0  0  0  0  0  0  0  0  0  0  0
   11.1280    6.1311   -6.9345 H   0  0  0  0  0  0  0  0  0  0  0  0
    9.4915    9.0639  -11.0083 H   0  0  0  0  0  0  0  0  0  0  0  0
    9.9267   10.5041   -8.6366 H   0  0  0  0  0  0  0  0  0  0  0  0
  1  6  2  0
  2  3  2  0
  2  1  1  0
  3  4  1  0
  4  5  2  0
  6  5  1  0
  1  7  1  0
  3  8  1  0
  5  9  1  0
 10 11  2  0
 11 12  1  0
 12 13  1  0
 13 14  1  0
 13 15  2  0
 15 16  1  0
 16 17  1  0
 17 18  1  0
 18 19  2  0
 19 10  1  0
 17 12  2  0
 11 20  1  0
 16 21  1  0
 18 22  1  0
  2 10  1  0
M  END
>  <Score>  (1) 
-7.55554

$$$$

     RDKit          3D

 22 24  0  0  0  0  0  0  0  0999 V2000
   11.6897    9.2535   -4.3217 C   0  0  0  0  0  0  0  0  0  0  0  0
   11.3439    8.0885   -5.0365 C   0  0  0  0  0  0  0  0  0  0  0  0
   11.4139    6.8703   -4.3721 C   0  0  0  0  0  0  0  0  0  0  0  0
   11.8177    6.8735   -3.0523 N   0  0  0  0  0  0  0  0  0  0  0  0
   12.1390    8.0067   -2.4066 C   0  0  0  0  0  0  0  0  0  0  0  0
   12.0759    9.1955   -3.0378 N   0  0  0  0  0  0  0  0  0  0  0  0
   11.6316   10.1941   -4.8477 H   0  0  0  0  0  0  0  0  0  0  0  0
   11.1644    5.9510   -4.8597 H   0  0  0  0  0  0  0  0  0  0  0  0
   12.4542    7.9947   -1.3712 H   0  0  0  0  0  0  0  0  0  0  0  0
   10.9289    8.1754   -6.4249 C   0  0  0  0  0  0  0  0  0  0  0  0
   11.1264    7.1969   -7.3627 C   0  0  0  0  0  0  0  0  0  0  0  0
   10.7216    7.3090   -8.6702 C   0  0  0  0  0  0  0  0  0  0  0  0
   10.8205    6.4793   -9.7192 N   0  0  0  0  0  0  0  0  0  0  0  0
   10.2653    7.0743  -10.7605 N   0  0  0  0  0  0  0  0  0  0  0  0
    9.7944    8.2954  -10.4211 C   0  0  0  0  0  0  0  0  0  0  0  0
    9.2895    9.0315  -11.0350 H   0  0  0  0  0  0  0  0  0  0  0  0
   10.0837    8.4534   -9.0803 C   0  0  0  0  0  0  0  0  0  0  0  0
    9.8839    9.4406   -8.1360 C   0  0  0  0  0  0  0  0  0  0  0  0
   10.2992    9.2970   -6.8431 N   0  0  0  0  0  0  0  0  0  0  0  0
   11.6242    6.2861   -7.0731 H   0  0  0  0  0  0  0  0  0  0  0  0
   11.2626    5.5160   -9.7254 H   0  0  0  0  0  0  0  0  0  0  0  0
    9.3816   10.3449   -8.4535 H   0  0  0  0  0  0  0  0  0  0  0  0
  1  6  2  0
  2  3  2  0
  2  1  1  0
  3  4  1  0
  4  5  2  0
  6  5  1  0
  1  7  1  0
  3  8  1  0
  5  9  1  0
 10 11  2  0
 11 12  1  0
 12 13  1  0
 13 14  1  0
 14 15  2  0
 15 16  1  0
 15 17  1  0
 17 18  1  0
 18 19  2  0
 19 10  1  0
 17 12  2  0
 11 20  1  0
 13 21  1  0
 18 22  1  0
  2 10  1  0
M  END
>  <Score>  (1) 
-7.54948

$$$$

     RDKit          3D

 23 24  0  0  0  0  0  0  0  0999 V2000
   11.6879    9.2545   -4.3276 C   0  0  0  0  0  0  0  0  0  0  0  0
   11.3446    8.0948   -5.0364 C   0  0  0  0  0  0  0  0  0  0  0  0
   11.4157    6.8655   -4.3643 C   0  0  0  0  0  0  0  0  0  0  0  0
   11.8158    6.8711   -3.0578 N   0  0  0  0  0  0  0  0  0  0  0  0
   12.1395    8.0061   -2.4048 C   0  0  0  0  0  0  0  0  0  0  0  0
   12.0764    9.1960   -3.0360 N   0  0  0  0  0  0  0  0  0  0  0  0
   11.6313   10.2098   -4.8548 H   0  0  0  0  0  0  0  0  0  0  0  0
   11.1567    5.9800   -4.8964 H   0  0  0  0  0  0  0  0  0  0  0  0
   12.4494    7.9334   -1.3661 H   0  0  0  0  0  0  0  0  0  0  0  0
   10.1848    9.3626  -11.3170 H   0  0  0  0  0  0  0  0  0  0  0  0
    9.5970    8.2450  -10.7698 S   0  0  0  0  0  6  0  0  0  0  0  0
    8.0901    8.3828  -10.8462 O   0  0  0  0  0  0  0  0  0  0  0  0
   10.0653    6.9824  -11.4391 O   0  0  0  0  0  0  0  0  0  0  0  0
   10.0848    8.1907   -9.0802 C   0  0  0  0  0  0  0  0  0  0  0  0
    9.2284    7.7072   -8.1069 C   0  0  0  0  0  0  0  0  0  0  0  0
    9.6681    7.6883   -6.7938 C   0  0  0  0  0  0  0  0  0  0  0  0
   10.9227    8.1331   -6.4314 C   0  0  0  0  0  0  0  0  0  0  0  0
   11.7275    8.6022   -7.4459 C   0  0  0  0  0  0  0  0  0  0  0  0
   11.3564    8.6493   -8.7654 C   0  0  0  0  0  0  0  0  0  0  0  0
    8.2331    7.3520   -8.3793 H   0  0  0  0  0  0  0  0  0  0  0  0
    8.9913    7.3061   -6.0237 H   0  0  0  0  0  0  0  0  0  0  0  0
   12.7180    8.9593   -7.2012 H   0  0  0  0  0  0  0  0  0  0  0  0
   11.9887    9.0170   -9.5550 H   0  0  0  0  0  0  0  0  0  0  0  0
  1  6  2  0
  2  3  2  0
  2  1  1  0
  3  4  1  0
  4  5  2  0
  6  5  1  0
  1  7  1  0
  3  8  1  0
  5  9  1  0
 10 11  1  0
 11 12  2  0
 11 13  2  0
 11 14  1  0
 14 15  2  0
 15 16  1  0
 16 17  2  0
 17 18  1  0
 18 19  2  0
 19 14  1  0
 15 20  1  0
 16 21  1  0
 18 22  1  0
 19 23  1  0
  2 17  1  0
M  END
>  <Score>  (1) 
-7.5489

$$$$

     RDKit          3D

 23 24  0  0  0  0  0  0  0  0999 V2000
   11.6894    9.2594   -4.3247 C   0  0  0  0  0  0  0  0  0  0  0  0
   11.3441    8.0896   -5.0362 C   0  0  0  0  0  0  0  0  0  0  0  0
   11.4155    6.8682   -4.3660 C   0  0  0  0  0  0  0  0  0  0  0  0
   11.8160    6.8691   -3.0563 N   0  0  0  0  0  0  0  0  0  0  0  0
   12.1391    8.0113   -2.4077 C   0  0  0  0  0  0  0  0  0  0  0  0
   12.0759    9.1905   -3.0360 N   0  0  0  0  0  0  0  0  0  0  0  0
   11.6203   10.1772   -4.8786 H   0  0  0  0  0  0  0  0  0  0  0  0
   11.1615    5.9468   -4.8676 H   0  0  0  0  0  0  0  0  0  0  0  0
   12.4413    7.8900   -1.3761 H   0  0  0  0  0  0  0  0  0  0  0  0
   10.9192    8.0853   -6.4237 C   0  0  0  0  0  0  0  0  0  0  0  0
   11.9531    8.2888   -7.4205 C   0  0  0  0  0  0  0  0  0  0  0  0
   11.6029    8.2934   -8.7491 C   0  0  0  0  0  0  0  0  0  0  0  0
   10.3071    8.1104   -9.1322 F   0  0  0  0  0  0  0  0  0  0  0  0
   12.5280    8.4808   -9.7620 C   0  0  0  0  0  0  0  0  0  0  0  0
   13.8590    8.6707   -9.4124 C   0  0  0  0  0  0  0  0  0  0  0  0
   14.2457    8.6722   -8.0948 C   0  0  0  0  0  0  0  0  0  0  0  0
   13.2733    8.4788   -7.1136 C   0  0  0  0  0  0  0  0  0  0  0  0
   13.7056    8.4892   -5.8375 F   0  0  0  0  0  0  0  0  0  0  0  0
   10.3549    7.1322   -6.6256 H   0  0  0  0  0  0  0  0  0  0  0  0
   10.1454    8.8891   -6.5594 H   0  0  0  0  0  0  0  0  0  0  0  0
   12.2837    8.4895  -10.8118 H   0  0  0  0  0  0  0  0  0  0  0  0
   14.6008    8.8203  -10.2098 H   0  0  0  0  0  0  0  0  0  0  0  0
   15.2925    8.8235   -7.8648 H   0  0  0  0  0  0  0  0  0  0  0  0
  1  6  2  0
  2  3  2  0
  2  1  1  0
  3  4  1  0
  4  5  2  0
  6  5  1  0
  1  7  1  0
  3  8  1  0
  5  9  1  0
 10 11  1  0
 11 12  2  0
 12 13  1  0
 12 14  1  0
 14 15  2  0
 15 16  1  0
 16 17  2  0
 17 18  1  0
 17 11  1  0
 10 19  1  0
 10 20  1  0
 14 21  1  0
 15 22  1  0
 16 23  1  0
  2 10  1  0
M  END
>  <Score>  (1) 
-7.54842

$$$$

     RDKit          3D

 20 21  0  0  0  0  0  0  0  0999 V2000
   11.6906    9.2596   -4.3211 C   0  0  0  0  0  0  0  0  0  0  0  0
   11.3425    8.0847   -5.0396 C   0  0  0  0  0  0  0  0  0  0  0  0
   11.4161    6.8716   -4.3648 C   0  0  0  0  0  0  0  0  0  0  0  0
   11.8157    6.8696   -3.0582 N   0  0  0  0  0  0  0  0  0  0  0  0
   12.1394    8.0070   -2.4050 C   0  0  0  0  0  0  0  0  0  0  0  0
   12.0757    9.1955   -3.0383 N   0  0  0  0  0  0  0  0  0  0  0  0
   11.6413   10.2079   -4.8320 H   0  0  0  0  0  0  0  0  0  0  0  0
   11.1537    5.9670   -4.8893 H   0  0  0  0  0  0  0  0  0  0  0  0
   12.4576    8.0322   -1.3730 H   0  0  0  0  0  0  0  0  0  0  0  0
   10.9301    8.1903   -6.4338 C   0  0  0  0  0  0  0  0  0  0  0  0
   10.8868    9.3974   -7.1034 C   0  0  0  0  0  0  0  0  0  0  0  0
   10.4881    9.4482   -8.4270 C   0  0  0  0  0  0  0  0  0  0  0  0
   10.1227    8.2950   -9.1116 C   0  0  0  0  0  0  0  0  0  0  0  0
    9.7263    8.3248  -10.4141 F   0  0  0  0  0  0  0  0  0  0  0  0
   10.1603    7.0830   -8.4581 C   0  0  0  0  0  0  0  0  0  0  0  0
    9.8042    5.9532   -9.1253 F   0  0  0  0  0  0  0  0  0  0  0  0
   10.5629    7.0585   -7.1353 C   0  0  0  0  0  0  0  0  0  0  0  0
   11.1765   10.2825   -6.5403 H   0  0  0  0  0  0  0  0  0  0  0  0
   10.4535   10.3817   -8.9512 H   0  0  0  0  0  0  0  0  0  0  0  0
   10.5773    6.0830   -6.6592 H   0  0  0  0  0  0  0  0  0  0  0  0
  1  6  2  0
  2  3  2  0
  2  1  1  0
  3  4  1  0
  4  5  2  0
  6  5  1  0
  1  7  1  0
  3  8  1  0
  5  9  1  0
 10 11  2  0
 11 12  1  0
 12 13  2  0
 13 14  1  0
 13 15  1  0
 15 16  1  0
 15 17  2  0
 17 10  1  0
 11 18  1  0
 12 19  1  0
 17 20  1  0
  2 10  1  0
M  END
>  <Score>  (1) 
-7.5374

$$$$

     RDKit          3D

 31 33  0  0  0  0  0  0  0  0999 V2000
   11.6878    9.2516   -4.3272 C   0  0  0  0  0  0  0  0  0  0  0  0
   11.3422    8.0877   -5.0417 C   0  0  0  0  0  0  0  0  0  0  0  0
   11.4148    6.8754   -4.3711 C   0  0  0  0  0  0  0  0  0  0  0  0
   11.8183    6.8760   -3.0515 N   0  0  0  0  0  0  0  0  0  0  0  0
   12.1399    8.0084   -2.4041 C   0  0  0  0  0  0  0  0  0  0  0  0
   12.0771    9.1889   -3.0314 N   0  0  0  0  0  0  0  0  0  0  0  0
   11.6265   10.1758   -4.8578 H   0  0  0  0  0  0  0  0  0  0  0  0
   11.1654    5.9572   -4.8587 H   0  0  0  0  0  0  0  0  0  0  0  0
   12.4499    7.9478   -1.3685 H   0  0  0  0  0  0  0  0  0  0  0  0
   10.9410    8.2060   -6.3960 N   0  0  0  0  0  0  0  0  0  0  0  0
    9.8374    8.9425   -6.8741 C   0  0  0  0  0  0  0  0  0  0  0  0
    8.9251    9.6815   -6.2427 N   0  0  0  0  0  0  0  0  0  0  0  0
    8.0488   10.2104   -7.0633 N   0  0  0  0  0  0  0  0  0  0  0  0
    8.3698    9.8214   -8.3033 C   0  0  0  0  0  0  0  0  0  0  0  0
    9.4826    9.0273   -8.2284 C   0  0  0  0  0  0  0  0  0  0  0  0
    9.8346    8.5984   -9.6203 C   0  0  0  0  0  0  0  0  0  0  0  0
    8.5679    8.6734  -10.2910 N   0  0  0  0  0  0  0  0  0  0  0  0
    8.6454    8.7212  -11.3292 H   0  0  0  0  0  0  0  0  0  0  0  0
    8.0054    9.9009   -9.7397 C   0  0  0  0  0  0  0  0  0  0  0  0
    6.5138    9.9059   -9.9490 C   0  0  0  0  0  0  0  0  0  0  0  0
    8.5979   11.1139  -10.3805 C   0  0  0  0  0  0  0  0  0  0  0  0
   11.5227    7.6925   -7.1322 H   0  0  0  0  0  0  0  0  0  0  0  0
    7.2302   10.8349   -6.8008 H   0  0  0  0  0  0  0  0  0  0  0  0
   10.2174    7.5373   -9.6036 H   0  0  0  0  0  0  0  0  0  0  0  0
   10.6110    9.2355  -10.0523 H   0  0  0  0  0  0  0  0  0  0  0  0
    6.0504    9.2679   -9.1418 H   0  0  0  0  0  0  0  0  0  0  0  0
    6.3080    9.4870  -10.9544 H   0  0  0  0  0  0  0  0  0  0  0  0
    6.1294   10.9386   -9.8216 H   0  0  0  0  0  0  0  0  0  0  0  0
    8.3460   11.0583  -11.4785 H   0  0  0  0  0  0  0  0  0  0  0  0
    9.6843   11.1942  -10.2817 H   0  0  0  0  0  0  0  0  0  0  0  0
    8.0396   12.0013  -10.0097 H   0  0  0  0  0  0  0  0  0  0  0  0
  1  6  2  0
  2  3  2  0
  2  1  1  0
  3  4  1  0
  4  5  2  0
  6  5  1  0
  1  7  1  0
  3  8  1  0
  5  9  1  0
 10 11  1  0
 11 12  2  0
 12 13  1  0
 13 14  1  0
 14 15  2  0
 15 16  1  0
 16 17  1  0
 17 18  1  0
 17 19  1  0
 19 20  1  0
 19 21  1  0
 15 11  1  0
 19 14  1  0
 10 22  1  0
 13 23  1  0
 16 24  1  0
 16 25  1  0
 20 26  1  0
 20 27  1  0
 20 28  1  0
 21 29  1  0
 21 30  1  0
 21 31  1  0
  2 10  1  0
M  END
>  <Score>  (1) 
-7.5353

$$$$

     RDKit          3D

 31 32  0  0  0  0  0  0  0  0999 V2000
   11.6883    9.2562   -4.3271 C   0  0  0  0  0  0  0  0  0  0  0  0
   11.3441    8.0955   -5.0381 C   0  0  0  0  0  0  0  0  0  0  0  0
   11.4163    6.8634   -4.3618 C   0  0  0  0  0  0  0  0  0  0  0  0
   11.8148    6.8691   -3.0604 N   0  0  0  0  0  0  0  0  0  0  0  0
   12.1399    8.0106   -2.4050 C   0  0  0  0  0  0  0  0  0  0  0  0
   12.0766    9.1932   -3.0346 N   0  0  0  0  0  0  0  0  0  0  0  0
   11.6372   10.2137   -4.8364 H   0  0  0  0  0  0  0  0  0  0  0  0
   11.1584    5.9586   -4.8821 H   0  0  0  0  0  0  0  0  0  0  0  0
   12.4434    7.9010   -1.3729 H   0  0  0  0  0  0  0  0  0  0  0  0
   10.9244    8.1659   -6.4362 C   0  0  1  0  0  0  0  0  0  0  0  0
    9.7856    7.3674   -6.6893 O   0  0  0  0  0  0  0  0  0  0  0  0
    9.9257    6.9915   -8.0390 C   0  0  1  0  0  0  0  0  0  0  0  0
    8.7173    6.1609   -8.4190 C   0  0  0  0  0  0  0  0  0  0  0  0
    8.7913    5.7573   -9.7370 O   0  0  0  0  0  0  0  0  0  0  0  0
   10.1882    8.1290   -8.9433 C   0  0  1  0  0  0  0  0  0  0  0  0
    9.2282    8.1261   -9.9824 O   0  0  0  0  0  0  0  0  0  0  0  0
   10.2017    9.4782   -8.3445 C   0  0  2  0  0  0  0  0  0  0  0  0
   11.1426   10.2828   -9.0306 O   0  0  0  0  0  0  0  0  0  0  0  0
   10.5481    9.5442   -6.8959 C   0  0  2  0  0  0  0  0  0  0  0  0
   11.5700   10.4490   -6.6105 O   0  0  0  0  0  0  0  0  0  0  0  0
   11.7746    7.8306   -7.0802 H   0  0  0  0  0  0  0  0  0  0  0  0
   10.7932    6.2669   -8.0328 H   0  0  0  0  0  0  0  0  0  0  0  0
    7.7663    6.6455   -8.1759 H   0  0  0  0  0  0  0  0  0  0  0  0
    8.7708    5.2205   -7.7979 H   0  0  0  0  0  0  0  0  0  0  0  0
    8.6791    4.7700   -9.8542 H   0  0  0  0  0  0  0  0  0  0  0  0
   11.1688    7.9592   -9.4745 H   0  0  0  0  0  0  0  0  0  0  0  0
    9.5978    8.7159  -10.6998 H   0  0  0  0  0  0  0  0  0  0  0  0
    9.2186   10.0076   -8.5147 H   0  0  0  0  0  0  0  0  0  0  0  0
   11.9211    9.7407   -9.3133 H   0  0  0  0  0  0  0  0  0  0  0  0
    9.6579    9.9050   -6.3048 H   0  0  0  0  0  0  0  0  0  0  0  0
   12.2411   10.3742   -7.3261 H   0  0  0  0  0  0  0  0  0  0  0  0
  1  6  2  0
  2  3  2  0
  2  1  1  0
  3  4  1  0
  4  5  2  0
  6  5  1  0
  1  7  1  0
  3  8  1  0
  5  9  1  0
 10 11  1  0
 11 12  1  0
 12 13  1  0
 13 14  1  0
 12 15  1  0
 15 16  1  0
 15 17  1  0
 17 18  1  0
 17 19  1  0
 19 20  1  0
 19 10  1  0
 10 21  1  6
 12 22  1  1
 13 23  1  0
 13 24  1  0
 14 25  1  0
 15 26  1  6
 16 27  1  0
 17 28  1  1
 18 29  1  0
 19 30  1  1
 20 31  1  0
  2 10  1  0
M  END
>  <Score>  (1) 
-7.52756

$$$$

     RDKit          3D

 24 25  0  0  0  0  0  0  0  0999 V2000
   12.3015    8.1239   -2.3044 C   0  0  0  0  0  0  0  0  0  0  0  0
   12.0192    6.8810   -2.9185 C   0  0  0  0  0  0  0  0  0  0  0  0
   11.5257    6.9022   -4.2218 C   0  0  0  0  0  0  0  0  0  0  0  0
   11.3482    8.1109   -4.8162 N   0  0  0  0  0  0  0  0  0  0  0  0
   11.6189    9.2764   -4.2244 C   0  0  0  0  0  0  0  0  0  0  0  0
   12.1013    9.2767   -2.9526 N   0  0  0  0  0  0  0  0  0  0  0  0
   12.6885    8.1469   -1.2864 H   0  0  0  0  0  0  0  0  0  0  0  0
   12.1746    5.9563   -2.4121 H   0  0  0  0  0  0  0  0  0  0  0  0
   11.3117    5.9589   -4.6875 H   0  0  0  0  0  0  0  0  0  0  0  0
   12.2065    9.5017  -10.6422 H   0  0  0  0  0  0  0  0  0  0  0  0
   12.1698    9.2023   -9.6084 C   0  0  0  0  0  0  0  0  0  0  0  0
   12.4082    8.0010   -9.3403 O   0  0  0  0  0  0  0  0  0  0  0  0
   11.8480   10.2122   -8.6107 C   0  0  0  0  0  0  0  0  0  0  0  0
   11.5977   11.5128   -8.9789 C   0  0  0  0  0  0  0  0  0  0  0  0
   11.2957   12.4457   -8.0109 C   0  0  0  0  0  0  0  0  0  0  0  0
   11.2419   12.0921   -6.6822 C   0  0  0  0  0  0  0  0  0  0  0  0
   11.4900   10.7773   -6.2602 C   0  0  0  0  0  0  0  0  0  0  0  0
   11.4166   10.4910   -4.8849 N   0  0  0  0  0  0  0  0  0  0  0  0
   11.7847    9.8932   -7.2638 C   0  0  0  0  0  0  0  0  0  0  0  0
   11.6438   11.7813  -10.0403 H   0  0  0  0  0  0  0  0  0  0  0  0
   11.1000   13.4744   -8.3250 H   0  0  0  0  0  0  0  0  0  0  0  0
   11.0006   12.8541   -5.9454 H   0  0  0  0  0  0  0  0  0  0  0  0
   11.1712   11.3177   -4.2492 H   0  0  0  0  0  0  0  0  0  0  0  0
   11.9838    8.8764   -7.0101 H   0  0  0  0  0  0  0  0  0  0  0  0
  2  1  2  0
  3  2  1  0
  4  3  2  0
  4  5  1  0
  5  6  2  0
  6  1  1  0
  1  7  1  0
  2  8  1  0
  3  9  1  0
 10 11  1  0
 11 12  2  0
 11 13  1  0
 13 14  2  0
 14 15  1  0
 15 16  2  0
 16 17  1  0
 17 18  1  0
 17 19  2  0
 19 13  1  0
 14 20  1  0
 15 21  1  0
 16 22  1  0
 18 23  1  0
 19 24  1  0
  5 18  1  0
M  END
>  <Score>  (1) 
-7.5297

$$$$

     RDKit          3D

 20 21  0  0  0  0  0  0  0  0999 V2000
   11.6888    9.2581   -4.3261 C   0  0  0  0  0  0  0  0  0  0  0  0
   11.3442    8.0930   -5.0370 C   0  0  0  0  0  0  0  0  0  0  0  0
   11.4155    6.8646   -4.3650 C   0  0  0  0  0  0  0  0  0  0  0  0
   11.8149    6.8678   -3.0594 N   0  0  0  0  0  0  0  0  0  0  0  0
   12.1405    8.0129   -2.4036 C   0  0  0  0  0  0  0  0  0  0  0  0
   12.0761    9.1916   -3.0359 N   0  0  0  0  0  0  0  0  0  0  0  0
   11.6404   10.2171   -4.8276 H   0  0  0  0  0  0  0  0  0  0  0  0
   11.1573    5.9813   -4.8926 H   0  0  0  0  0  0  0  0  0  0  0  0
   12.4472    7.9436   -1.3749 H   0  0  0  0  0  0  0  0  0  0  0  0
   10.9255    8.1561   -6.4307 C   0  0  0  0  0  0  0  0  0  0  0  0
   11.5904    8.9453   -7.3445 C   0  0  0  0  0  0  0  0  0  0  0  0
   11.2033    9.0128   -8.6666 C   0  0  0  0  0  0  0  0  0  0  0  0
   11.8919    9.8068   -9.5269 F   0  0  0  0  0  0  0  0  0  0  0  0
   10.1254    8.2863   -9.1298 C   0  0  0  0  0  0  0  0  0  0  0  0
    9.4553    7.4907   -8.2077 C   0  0  0  0  0  0  0  0  0  0  0  0
    8.3867    6.7529   -8.6003 F   0  0  0  0  0  0  0  0  0  0  0  0
    9.8468    7.4263   -6.8845 C   0  0  0  0  0  0  0  0  0  0  0  0
   12.4418    9.5384   -7.0455 H   0  0  0  0  0  0  0  0  0  0  0  0
    9.8108    8.3280  -10.1610 H   0  0  0  0  0  0  0  0  0  0  0  0
    9.2881    6.7908   -6.2131 H   0  0  0  0  0  0  0  0  0  0  0  0
  1  6  2  0
  2  3  2  0
  2  1  1  0
  3  4  1  0
  4  5  2  0
  6  5  1  0
  1  7  1  0
  3  8  1  0
  5  9  1  0
 10 11  2  0
 11 12  1  0
 12 13  1  0
 12 14  2  0
 14 15  1  0
 15 16  1  0
 15 17  2  0
 17 10  1  0
 11 18  1  0
 14 19  1  0
 17 20  1  0
  2 10  1  0
M  END
>  <Score>  (1) 
-7.52678

$$$$

     RDKit          3D

 31 32  0  0  0  0  0  0  0  0999 V2000
   11.6896    9.2572   -4.3233 C   0  0  0  0  0  0  0  0  0  0  0  0
   11.3437    8.0937   -5.0389 C   0  0  0  0  0  0  0  0  0  0  0  0
   11.4160    6.8640   -4.3628 C   0  0  0  0  0  0  0  0  0  0  0  0
   11.8153    6.8700   -3.0590 N   0  0  0  0  0  0  0  0  0  0  0  0
   12.1397    8.0078   -2.4045 C   0  0  0  0  0  0  0  0  0  0  0  0
   12.0757    9.1953   -3.0384 N   0  0  0  0  0  0  0  0  0  0  0  0
   11.6378   10.2025   -4.8305 H   0  0  0  0  0  0  0  0  0  0  0  0
   11.1612    5.9562   -4.8719 H   0  0  0  0  0  0  0  0  0  0  0  0
   12.4512    7.9845   -1.3773 H   0  0  0  0  0  0  0  0  0  0  0  0
   10.9278    8.1816   -6.4307 C   0  0  1  0  0  0  0  0  0  0  0  0
   10.3041    7.0013   -6.8902 O   0  0  0  0  0  0  0  0  0  0  0  0
   10.4360    6.9948   -8.2642 C   0  0  1  0  0  0  0  0  0  0  0  0
    9.9970    5.6827   -8.8234 C   0  0  0  0  0  0  0  0  0  0  0  0
   10.1226    5.6563  -10.2094 O   0  0  0  0  0  0  0  0  0  0  0  0
    9.7455    8.1390   -8.9419 C   0  0  2  0  0  0  0  0  0  0  0  0
   10.3178    8.2471  -10.2295 O   0  0  0  0  0  0  0  0  0  0  0  0
    9.9867    9.4483   -8.2536 C   0  0  1  0  0  0  0  0  0  0  0  0
    9.1106   10.4221   -8.6674 O   0  0  0  0  0  0  0  0  0  0  0  0
    9.9817    9.2985   -6.7353 C   0  0  2  0  0  0  0  0  0  0  0  0
   10.3538   10.5068   -6.1653 O   0  0  0  0  0  0  0  0  0  0  0  0
   11.8379    8.3360   -7.0656 H   0  0  0  0  0  0  0  0  0  0  0  0
   11.5357    7.1021   -8.4872 H   0  0  0  0  0  0  0  0  0  0  0  0
    9.0066    5.3535   -8.4673 H   0  0  0  0  0  0  0  0  0  0  0  0
   10.7215    4.9064   -8.4415 H   0  0  0  0  0  0  0  0  0  0  0  0
   10.1720    4.7203  -10.5187 H   0  0  0  0  0  0  0  0  0  0  0  0
    8.6650    7.9510   -9.1199 H   0  0  0  0  0  0  0  0  0  0  0  0
   11.3020    8.3428  -10.0563 H   0  0  0  0  0  0  0  0  0  0  0  0
   11.0237    9.7714   -8.5170 H   0  0  0  0  0  0  0  0  0  0  0  0
    8.2257   10.0825   -8.9528 H   0  0  0  0  0  0  0  0  0  0  0  0
    8.9497    9.0145   -6.4427 H   0  0  0  0  0  0  0  0  0  0  0  0
    9.5610   11.0934   -6.1766 H   0  0  0  0  0  0  0  0  0  0  0  0
  1  6  2  0
  2  3  2  0
  2  1  1  0
  3  4  1  0
  4  5  2  0
  6  5  1  0
  1  7  1  0
  3  8  1  0
  5  9  1  0
 10 11  1  0
 11 12  1  0
 12 13  1  0
 13 14  1  0
 12 15  1  0
 15 16  1  0
 15 17  1  0
 17 18  1  0
 17 19  1  0
 19 20  1  0
 19 10  1  0
 10 21  1  6
 12 22  1  1
 13 23  1  0
 13 24  1  0
 14 25  1  0
 15 26  1  6
 16 27  1  0
 17 28  1  6
 18 29  1  0
 19 30  1  1
 20 31  1  0
  2 10  1  0
M  END
>  <Score>  (1) 
-7.52219

$$$$

     RDKit          3D

 22 23  0  0  0  0  0  0  0  0999 V2000
   11.6904    9.2581   -4.3210 C   0  0  0  0  0  0  0  0  0  0  0  0
   11.3431    8.0924   -5.0405 C   0  0  0  0  0  0  0  0  0  0  0  0
   11.4157    6.8641   -4.3640 C   0  0  0  0  0  0  0  0  0  0  0  0
   11.8165    6.8748   -3.0566 N   0  0  0  0  0  0  0  0  0  0  0  0
   12.1394    8.0051   -2.4047 C   0  0  0  0  0  0  0  0  0  0  0  0
   12.0749    9.1935   -3.0401 N   0  0  0  0  0  0  0  0  0  0  0  0
   11.6294   10.1928   -4.8543 H   0  0  0  0  0  0  0  0  0  0  0  0
   11.1577    5.9827   -4.8930 H   0  0  0  0  0  0  0  0  0  0  0  0
   12.4419    7.9012   -1.3781 H   0  0  0  0  0  0  0  0  0  0  0  0
    9.4706    5.9704  -10.2477 H   0  0  0  0  0  0  0  0  0  0  0  0
    9.7784    5.9055   -9.2165 C   0  0  0  0  0  0  0  0  0  0  0  0
    9.7946    4.7695   -8.6831 O   0  0  0  0  0  0  0  0  0  0  0  0
   10.1652    7.0874   -8.4555 C   0  0  0  0  0  0  0  0  0  0  0  0
   10.1389    8.3311   -9.0674 C   0  0  0  0  0  0  0  0  0  0  0  0
   10.5000    9.4772   -8.3752 C   0  0  0  0  0  0  0  0  0  0  0  0
   10.8987    9.4018   -7.0434 C   0  0  0  0  0  0  0  0  0  0  0  0
   10.9275    8.1677   -6.4270 C   0  0  0  0  0  0  0  0  0  0  0  0
   10.5604    7.0458   -7.1493 C   0  0  0  0  0  0  0  0  0  0  0  0
    9.8309    8.4187  -10.1083 H   0  0  0  0  0  0  0  0  0  0  0  0
   10.4721   10.4361   -8.8720 H   0  0  0  0  0  0  0  0  0  0  0  0
   11.1793   10.3068   -6.5118 H   0  0  0  0  0  0  0  0  0  0  0  0
   10.5801    6.0678   -6.6710 H   0  0  0  0  0  0  0  0  0  0  0  0
  1  6  2  0
  2  3  2  0
  2  1  1  0
  3  4  1  0
  4  5  2  0
  6  5  1  0
  1  7  1  0
  3  8  1  0
  5  9  1  0
 10 11  1  0
 11 12  2  0
 11 13  1  0
 13 14  2  0
 14 15  1  0
 15 16  2  0
 16 17  1  0
 17 18  2  0
 18 13  1  0
 14 19  1  0
 15 20  1  0
 16 21  1  0
 18 22  1  0
  2 17  1  0
M  END
>  <Score>  (1) 
-7.51947

$$$$

     RDKit          3D

 27 29  0  0  0  0  0  0  0  0999 V2000
   11.6886    9.2560   -4.3262 C   0  0  0  0  0  0  0  0  0  0  0  0
   11.3439    8.0940   -5.0383 C   0  0  0  0  0  0  0  0  0  0  0  0
   11.4161    6.8651   -4.3629 C   0  0  0  0  0  0  0  0  0  0  0  0
   11.8151    6.8691   -3.0595 N   0  0  0  0  0  0  0  0  0  0  0  0
   12.1399    8.0102   -2.4049 C   0  0  0  0  0  0  0  0  0  0  0  0
   12.0765    9.1937   -3.0352 N   0  0  0  0  0  0  0  0  0  0  0  0
   11.6333   10.1889   -4.8403 H   0  0  0  0  0  0  0  0  0  0  0  0
   11.1586    5.9678   -4.8847 H   0  0  0  0  0  0  0  0  0  0  0  0
   12.4429    7.8905   -1.3709 H   0  0  0  0  0  0  0  0  0  0  0  0
   10.9223    8.1896   -6.4516 C   0  0  0  0  0  0  0  0  0  0  0  0
   11.2696    6.9293   -7.1754 C   0  0  0  0  0  0  0  0  0  0  0  0
    9.9866    6.1434   -7.1947 C   0  0  0  0  0  0  0  0  0  0  0  0
    9.7693    4.8131   -7.4874 C   0  0  0  0  0  0  0  0  0  0  0  0
    8.5111    4.2488   -7.4564 C   0  0  0  0  0  0  0  0  0  0  0  0
    7.4581    5.0722   -7.1172 C   0  0  0  0  0  0  0  0  0  0  0  0
    7.6828    6.4014   -6.8258 C   0  0  0  0  0  0  0  0  0  0  0  0
    8.9392    6.9668   -6.8563 C   0  0  0  0  0  0  0  0  0  0  0  0
    9.4230    8.3475   -6.5869 C   0  0  0  0  0  0  0  0  0  0  0  0
   11.4245    9.0516   -6.9049 H   0  0  0  0  0  0  0  0  0  0  0  0
   11.6414    7.0845   -8.2044 H   0  0  0  0  0  0  0  0  0  0  0  0
   12.0578    6.3691   -6.6070 H   0  0  0  0  0  0  0  0  0  0  0  0
   10.5999    4.1477   -7.7588 H   0  0  0  0  0  0  0  0  0  0  0  0
    8.3580    3.1865   -7.6928 H   0  0  0  0  0  0  0  0  0  0  0  0
    6.4668    4.6410   -7.0896 H   0  0  0  0  0  0  0  0  0  0  0  0
    6.8405    7.0423   -6.5588 H   0  0  0  0  0  0  0  0  0  0  0  0
    9.0562    8.7187   -5.5982 H   0  0  0  0  0  0  0  0  0  0  0  0
    9.1262    9.0671   -7.3554 H   0  0  0  0  0  0  0  0  0  0  0  0
  1  6  2  0
  2  3  2  0
  2  1  1  0
  3  4  1  0
  4  5  2  0
  6  5  1  0
  1  7  1  0
  3  8  1  0
  5  9  1  0
 10 11  1  0
 11 12  1  0
 12 13  2  0
 13 14  1  0
 14 15  2  0
 15 16  1  0
 16 17  2  0
 17 18  1  0
 18 10  1  0
 17 12  1  0
 10 19  1  0
 11 20  1  0
 11 21  1  0
 13 22  1  0
 14 23  1  0
 15 24  1  0
 16 25  1  0
 18 26  1  0
 18 27  1  0
  2 10  1  0
M  END
>  <Score>  (1) 
-7.51368

$$$$

     RDKit          3D

 25 26  0  0  0  0  0  0  0  0999 V2000
   11.6895    9.2591   -4.3242 C   0  0  0  0  0  0  0  0  0  0  0  0
   11.3438    8.0875   -5.0368 C   0  0  0  0  0  0  0  0  0  0  0  0
   11.4152    6.8691   -4.3669 C   0  0  0  0  0  0  0  0  0  0  0  0
   11.8163    6.8705   -3.0562 N   0  0  0  0  0  0  0  0  0  0  0  0
   12.1393    8.0062   -2.4056 C   0  0  0  0  0  0  0  0  0  0  0  0
   12.0759    9.1955   -3.0373 N   0  0  0  0  0  0  0  0  0  0  0  0
   11.6554   10.2250   -4.7805 H   0  0  0  0  0  0  0  0  0  0  0  0
   11.1484    5.9551   -4.8794 H   0  0  0  0  0  0  0  0  0  0  0  0
   12.4528    7.9530   -1.3619 H   0  0  0  0  0  0  0  0  0  0  0  0
   11.7507   10.6479   -5.3451 H   0  0  0  0  0  0  0  0  0  0  0  0
   11.4879   10.6532   -6.4169 C   0  0  0  0  0  0  0  0  0  0  0  0
   11.5652   11.7164   -7.0881 O   0  0  0  0  0  0  0  0  0  0  0  0
   11.0445    9.4445   -7.0903 C   0  0  0  0  0  0  0  0  0  0  0  0
   10.6871    9.5453   -8.4253 C   0  0  0  0  0  0  0  0  0  0  0  0
   10.2314    8.4637   -9.1300 C   0  0  0  0  0  0  0  0  0  0  0  0
    9.8554    8.6096  -10.5676 C   0  0  0  0  0  0  0  0  0  0  0  0
   10.1347    7.2635   -8.4788 C   0  0  0  0  0  0  0  0  0  0  0  0
   10.4817    7.1308   -7.1554 C   0  0  0  0  0  0  0  0  0  0  0  0
   10.9494    8.2266   -6.4229 C   0  0  0  0  0  0  0  0  0  0  0  0
   10.7545   10.4863   -8.9652 H   0  0  0  0  0  0  0  0  0  0  0  0
   10.6497    8.2235  -11.2425 H   0  0  0  0  0  0  0  0  0  0  0  0
    8.9070    8.0639  -10.7336 H   0  0  0  0  0  0  0  0  0  0  0  0
    9.6833    9.6872  -10.7786 H   0  0  0  0  0  0  0  0  0  0  0  0
    9.7739    6.4071   -9.0346 H   0  0  0  0  0  0  0  0  0  0  0  0
   10.4003    6.1708   -6.6487 H   0  0  0  0  0  0  0  0  0  0  0  0
  1  6  2  0
  2  3  2  0
  2  1  1  0
  3  4  1  0
  4  5  2  0
  6  5  1  0
  1  7  1  0
  3  8  1  0
  5  9  1  0
 10 11  1  0
 11 12  2  0
 11 13  1  0
 13 14  2  0
 14 15  1  0
 15 16  1  0
 15 17  2  0
 17 18  1  0
 18 19  2  0
 19 13  1  0
 14 20  1  0
 16 21  1  0
 16 22  1  0
 16 23  1  0
 17 24  1  0
 18 25  1  0
  2 19  1  0
M  END
>  <Score>  (1) 
-7.51024

$$$$

     RDKit          3D

 30 32  0  0  0  0  0  0  0  0999 V2000
   11.6906    9.2589   -4.3210 C   0  0  0  0  0  0  0  0  0  0  0  0
   11.3414    8.0807   -5.0405 C   0  0  0  0  0  0  0  0  0  0  0  0
   11.4141    6.8711   -4.3728 C   0  0  0  0  0  0  0  0  0  0  0  0
   11.8177    6.8771   -3.0533 N   0  0  0  0  0  0  0  0  0  0  0  0
   12.1388    8.0096   -2.4075 C   0  0  0  0  0  0  0  0  0  0  0  0
   12.0773    9.1906   -3.0320 N   0  0  0  0  0  0  0  0  0  0  0  0
   11.6240   10.1699   -4.8650 H   0  0  0  0  0  0  0  0  0  0  0  0
   11.1868    5.9439   -4.8581 H   0  0  0  0  0  0  0  0  0  0  0  0
   12.4539    8.0001   -1.3723 H   0  0  0  0  0  0  0  0  0  0  0  0
   10.9776    8.2195   -6.4027 N   0  0  0  0  0  0  0  0  0  0  0  0
   11.1686    9.3187   -7.2409 C   0  0  0  0  0  0  0  0  0  0  0  0
   11.9179   10.4359   -6.9999 C   0  0  0  0  0  0  0  0  0  0  0  0
   11.8418   11.2129   -8.1094 N   0  0  0  0  0  0  0  0  0  0  0  0
   12.5170   12.4674   -8.1915 C   0  0  0  0  0  0  0  0  0  0  0  0
   12.4031   13.2375   -9.3736 N   0  0  0  0  0  0  0  0  0  0  0  0
   13.2164   12.9409   -7.2711 O   0  0  0  0  0  0  0  0  0  0  0  0
   11.0731   10.6389   -9.0553 C   0  0  0  0  0  0  0  0  0  0  0  0
   10.7045   11.0417  -10.3352 C   0  0  0  0  0  0  0  0  0  0  0  0
    9.8856   10.1933  -11.0544 C   0  0  0  0  0  0  0  0  0  0  0  0
    9.4338    8.9854  -10.5491 C   0  0  0  0  0  0  0  0  0  0  0  0
    9.8163    8.6222   -9.2875 C   0  0  0  0  0  0  0  0  0  0  0  0
   10.6451    9.4480   -8.5200 C   0  0  0  0  0  0  0  0  0  0  0  0
   10.4896    7.3656   -6.8582 H   0  0  0  0  0  0  0  0  0  0  0  0
   12.5056   10.7139   -6.1202 H   0  0  0  0  0  0  0  0  0  0  0  0
   11.5815   13.9005   -9.4319 H   0  0  0  0  0  0  0  0  0  0  0  0
   13.0625   13.1942  -10.1732 H   0  0  0  0  0  0  0  0  0  0  0  0
   11.0384   11.9772  -10.7606 H   0  0  0  0  0  0  0  0  0  0  0  0
    9.5961   10.5058  -12.0550 H   0  0  0  0  0  0  0  0  0  0  0  0
    8.7884    8.3568  -11.1644 H   0  0  0  0  0  0  0  0  0  0  0  0
    9.4896    7.6826   -8.8416 H   0  0  0  0  0  0  0  0  0  0  0  0
  1  6  2  0
  2  3  2  0
  2  1  1  0
  3  4  1  0
  4  5  2  0
  6  5  1  0
  1  7  1  0
  3  8  1  0
  5  9  1  0
 10 11  1  0
 11 12  2  0
 12 13  1  0
 13 14  1  0
 14 15  1  0
 14 16  2  0
 13 17  1  0
 17 18  2  0
 18 19  1  0
 19 20  2  0
 20 21  1  0
 21 22  2  0
 22 11  1  0
 22 17  1  0
 10 23  1  0
 12 24  1  0
 15 25  1  0
 15 26  1  0
 18 27  1  0
 19 28  1  0
 20 29  1  0
 21 30  1  0
  2 10  1  0
M  END
>  <Score>  (1) 
-7.50443

$$$$

     RDKit          3D

 32 34  0  0  0  0  0  0  0  0999 V2000
   11.6898    9.2608   -4.3237 C   0  0  0  0  0  0  0  0  0  0  0  0
   11.3433    8.0835   -5.0370 C   0  0  0  0  0  0  0  0  0  0  0  0
   11.4143    6.8708   -4.3706 C   0  0  0  0  0  0  0  0  0  0  0  0
   11.8174    6.8749   -3.0541 N   0  0  0  0  0  0  0  0  0  0  0  0
   12.1394    8.0071   -2.4057 C   0  0  0  0  0  0  0  0  0  0  0  0
   12.0759    9.1909   -3.0359 N   0  0  0  0  0  0  0  0  0  0  0  0
   11.6199   10.1846   -4.8821 H   0  0  0  0  0  0  0  0  0  0  0  0
   11.1517    5.9892   -4.8868 H   0  0  0  0  0  0  0  0  0  0  0  0
   12.4441    7.8926   -1.3685 H   0  0  0  0  0  0  0  0  0  0  0  0
   10.9022    8.1251   -6.4364 C   0  0  2  0  0  0  0  0  0  0  0  0
    9.4727    8.5015   -6.6113 C   0  0  0  0  0  0  0  0  0  0  0  0
    9.1089    8.8868   -5.6186 H   0  0  0  0  0  0  0  0  0  0  0  0
    8.5500    7.4015   -7.0081 C   0  0  0  0  0  0  0  0  0  0  0  0
    9.1580    6.4204   -7.9848 C   0  0  2  0  0  0  0  0  0  0  0  0
    9.5687    5.1897   -7.2178 C   0  0  0  0  0  0  0  0  0  0  0  0
   10.8859    5.5944   -6.5934 C   0  0  0  0  0  0  0  0  0  0  0  0
   11.2133    6.8946   -7.2450 C   0  0  1  0  0  0  0  0  0  0  0  0
   10.3902    6.9677   -8.4444 N   0  0  0  0  0  0  0  0  0  0  0  0
   10.9756    6.2382   -9.5455 C   0  0  0  0  0  0  0  0  0  0  0  0
   11.5152    8.9389   -6.9630 H   0  0  0  0  0  0  0  0  0  0  0  0
    9.3387    9.3910   -7.2955 H   0  0  0  0  0  0  0  0  0  0  0  0
    8.0633    6.8621   -6.1777 H   0  0  0  0  0  0  0  0  0  0  0  0
    7.6880    7.8874   -7.5572 H   0  0  0  0  0  0  0  0  0  0  0  0
    8.4470    6.1802   -8.8063 H   0  0  0  0  0  0  0  0  0  0  0  0
    9.6461    4.2939   -7.8713 H   0  0  0  0  0  0  0  0  0  0  0  0
    8.8197    4.9212   -6.4415 H   0  0  0  0  0  0  0  0  0  0  0  0
   11.6112    4.7792   -6.9015 H   0  0  0  0  0  0  0  0  0  0  0  0
   10.8005    5.6134   -5.4985 H   0  0  0  0  0  0  0  0  0  0  0  0
   12.2961    6.8686   -7.5504 H   0  0  0  0  0  0  0  0  0  0  0  0
   12.0189    6.6102   -9.6655 H   0  0  0  0  0  0  0  0  0  0  0  0
   10.4298    6.5494  -10.4615 H   0  0  0  0  0  0  0  0  0  0  0  0
   10.9254    5.1412   -9.4040 H   0  0  0  0  0  0  0  0  0  0  0  0
  1  6  2  0
  2  3  2  0
  2  1  1  0
  3  4  1  0
  4  5  2  0
  6  5  1  0
  1  7  1  0
  3  8  1  0
  5  9  1  0
 10 11  1  0
 11 12  1  0
 11 13  1  0
 13 14  1  0
 14 15  1  0
 15 16  1  0
 16 17  1  0
 17 18  1  0
 18 19  1  0
 17 10  1  0
 18 14  1  0
 10 20  1  6
 11 21  1  0
 13 22  1  0
 13 23  1  0
 14 24  1  6
 15 25  1  0
 15 26  1  0
 16 27  1  0
 16 28  1  0
 17 29  1  6
 19 30  1  0
 19 31  1  0
 19 32  1  0
  2 10  1  0
M  END
>  <Score>  (1) 
-7.50413

$$$$

     RDKit          3D

 31 32  0  0  0  0  0  0  0  0999 V2000
   11.6905    9.2569   -4.3203 C   0  0  0  0  0  0  0  0  0  0  0  0
   11.3431    8.0892   -5.0394 C   0  0  0  0  0  0  0  0  0  0  0  0
   11.4162    6.8711   -4.3649 C   0  0  0  0  0  0  0  0  0  0  0  0
   11.8159    6.8696   -3.0568 N   0  0  0  0  0  0  0  0  0  0  0  0
   12.1399    8.0063   -2.4032 C   0  0  0  0  0  0  0  0  0  0  0  0
   12.0744    9.1950   -3.0424 N   0  0  0  0  0  0  0  0  0  0  0  0
   11.6230   10.1755   -4.8692 H   0  0  0  0  0  0  0  0  0  0  0  0
   11.1622    5.9421   -4.8635 H   0  0  0  0  0  0  0  0  0  0  0  0
   12.4446    7.9034   -1.3700 H   0  0  0  0  0  0  0  0  0  0  0  0
   10.9228    8.0951   -6.4208 C   0  0  1  0  0  0  0  0  0  0  0  0
    9.5609    7.9109   -6.6217 O   0  0  0  0  0  0  0  0  0  0  0  0
    9.4027    7.6732   -7.9899 C   0  0  1  0  0  0  0  0  0  0  0  0
    8.1027    6.9693   -8.2975 C   0  0  0  0  0  0  0  0  0  0  0  0
    8.1017    5.7537   -7.6274 O   0  0  0  0  0  0  0  0  0  0  0  0
    9.5856    8.9306   -8.8014 C   0  0  1  0  0  0  0  0  0  0  0  0
    8.3621    9.4334   -9.2437 O   0  0  0  0  0  0  0  0  0  0  0  0
   10.2996    9.9630   -7.9821 C   0  0  2  0  0  0  0  0  0  0  0  0
   10.9672   10.8606   -8.8476 O   0  0  0  0  0  0  0  0  0  0  0  0
   11.3352    9.4024   -7.0606 C   0  0  1  0  0  0  0  0  0  0  0  0
   11.5749   10.3424   -6.0589 O   0  0  0  0  0  0  0  0  0  0  0  0
   11.4237    7.2704   -6.9657 H   0  0  0  0  0  0  0  0  0  0  0  0
   10.2186    6.9792   -8.2870 H   0  0  0  0  0  0  0  0  0  0  0  0
    8.1032    6.7488   -9.3804 H   0  0  0  0  0  0  0  0  0  0  0  0
    7.2150    7.5598   -8.0013 H   0  0  0  0  0  0  0  0  0  0  0  0
    8.6540    5.0954   -8.1302 H   0  0  0  0  0  0  0  0  0  0  0  0
   10.1934    8.7470   -9.7184 H   0  0  0  0  0  0  0  0  0  0  0  0
    8.3678   10.4153   -9.2926 H   0  0  0  0  0  0  0  0  0  0  0  0
    9.5787   10.6086   -7.4069 H   0  0  0  0  0  0  0  0  0  0  0  0
   10.4191   11.6427   -9.0622 H   0  0  0  0  0  0  0  0  0  0  0  0
   12.2790    9.2475   -7.6339 H   0  0  0  0  0  0  0  0  0  0  0  0
   10.8135   10.9602   -5.9340 H   0  0  0  0  0  0  0  0  0  0  0  0
  1  6  2  0
  2  3  2  0
  2  1  1  0
  3  4  1  0
  4  5  2  0
  6  5  1  0
  1  7  1  0
  3  8  1  0
  5  9  1  0
 10 11  1  0
 11 12  1  0
 12 13  1  0
 13 14  1  0
 12 15  1  0
 15 16  1  0
 15 17  1  0
 17 18  1  0
 17 19  1  0
 19 20  1  0
 19 10  1  0
 10 21  1  6
 12 22  1  6
 13 23  1  0
 13 24  1  0
 14 25  1  0
 15 26  1  6
 16 27  1  0
 17 28  1  1
 18 29  1  0
 19 30  1  6
 20 31  1  0
  2 10  1  0
M  END
>  <Score>  (1) 
-7.50156

$$$$

     RDKit          3D

 23 24  0  0  0  0  0  0  0  0999 V2000
   11.6903    9.2574   -4.3211 C   0  0  0  0  0  0  0  0  0  0  0  0
   11.3436    8.0876   -5.0372 C   0  0  0  0  0  0  0  0  0  0  0  0
   11.4143    6.8684   -4.3700 C   0  0  0  0  0  0  0  0  0  0  0  0
   11.8171    6.8730   -3.0542 N   0  0  0  0  0  0  0  0  0  0  0  0
   12.1394    8.0044   -2.4044 C   0  0  0  0  0  0  0  0  0  0  0  0
   12.0754    9.1972   -3.0400 N   0  0  0  0  0  0  0  0  0  0  0  0
   11.6252   10.1747   -4.8616 H   0  0  0  0  0  0  0  0  0  0  0  0
   11.1577    5.9679   -4.8781 H   0  0  0  0  0  0  0  0  0  0  0  0
   12.4460    7.9121   -1.3688 H   0  0  0  0  0  0  0  0  0  0  0  0
   12.7573   10.5983   -6.9262 H   0  0  0  0  0  0  0  0  0  0  0  0
   11.7020   10.5227   -6.6324 C   0  0  0  0  0  0  0  0  0  0  0  0
   11.0871    9.3052   -7.2122 C   0  0  0  0  0  0  0  0  0  0  0  0
   10.6823    9.3321   -8.5227 C   0  0  0  0  0  0  0  0  0  0  0  0
   10.1030    8.2008   -9.0688 C   0  0  0  0  0  0  0  0  0  0  0  0
    9.9240    7.0480   -8.3250 C   0  0  0  0  0  0  0  0  0  0  0  0
   10.3425    7.0662   -7.0227 C   0  0  0  0  0  0  0  0  0  0  0  0
   10.9321    8.1856   -6.4311 C   0  0  0  0  0  0  0  0  0  0  0  0
   11.1966   11.4395   -7.0634 H   0  0  0  0  0  0  0  0  0  0  0  0
   11.5485   10.5563   -5.5195 H   0  0  0  0  0  0  0  0  0  0  0  0
   10.8277   10.2385   -9.0927 H   0  0  0  0  0  0  0  0  0  0  0  0
    9.7792    8.2122  -10.1055 H   0  0  0  0  0  0  0  0  0  0  0  0
    9.4633    6.1753   -8.7897 H   0  0  0  0  0  0  0  0  0  0  0  0
   10.2160    6.1857   -6.4221 H   0  0  0  0  0  0  0  0  0  0  0  0
  1  6  2  0
  2  3  2  0
  2  1  1  0
  3  4  1  0
  4  5  2  0
  6  5  1  0
  1  7  1  0
  3  8  1  0
  5  9  1  0
 10 11  1  0
 11 12  1  0
 12 13  2  0
 13 14  1  0
 14 15  2  0
 15 16  1  0
 16 17  2  0
 17 12  1  0
 11 18  1  0
 11 19  1  0
 13 20  1  0
 14 21  1  0
 15 22  1  0
 16 23  1  0
  2 17  1  0
M  END
>  <Score>  (1) 
-7.49791

$$$$

     RDKit          3D

 27 28  0  0  0  0  0  0  0  0999 V2000
   11.6897    9.2590   -4.3237 C   0  0  0  0  0  0  0  0  0  0  0  0
   11.3432    8.0891   -5.0389 C   0  0  0  0  0  0  0  0  0  0  0  0
   11.4169    6.8672   -4.3612 C   0  0  0  0  0  0  0  0  0  0  0  0
   11.8138    6.8671   -3.0630 N   0  0  0  0  0  0  0  0  0  0  0  0
   12.1403    8.0118   -2.4040 C   0  0  0  0  0  0  0  0  0  0  0  0
   12.0762    9.1937   -3.0362 N   0  0  0  0  0  0  0  0  0  0  0  0
   11.6334   10.2021   -4.8448 H   0  0  0  0  0  0  0  0  0  0  0  0
   11.1746    5.9370   -4.8214 H   0  0  0  0  0  0  0  0  0  0  0  0
   12.4418    7.8917   -1.3749 H   0  0  0  0  0  0  0  0  0  0  0  0
   10.9208    8.1414   -6.4394 C   0  0  1  0  0  0  0  0  0  0  0  0
   10.6192    6.9202   -6.9869 O   0  0  0  0  0  0  0  0  0  0  0  0
    9.6540    7.0755   -7.9455 C   0  0  2  0  0  0  0  0  0  0  0  0
    9.9719    6.4260   -9.2608 C   0  0  0  0  0  0  0  0  0  0  0  0
   10.1287    5.0467   -9.0009 O   0  0  0  0  0  0  0  0  0  0  0  0
    9.3167    8.5310   -8.0603 C   0  0  2  0  0  0  0  0  0  0  0  0
   10.1518    9.2384   -8.8949 O   0  0  0  0  0  0  0  0  0  0  0  0
    9.6529    8.9847   -6.6289 C   0  0  2  0  0  0  0  0  0  0  0  0
    9.9024   10.3286   -6.5567 O   0  0  0  0  0  0  0  0  0  0  0  0
   11.7291    8.5954   -7.0338 H   0  0  0  0  0  0  0  0  0  0  0  0
    8.7247    6.5636   -7.5582 H   0  0  0  0  0  0  0  0  0  0  0  0
    9.0997    6.5213   -9.9113 H   0  0  0  0  0  0  0  0  0  0  0  0
   10.9172    6.7583   -9.7043 H   0  0  0  0  0  0  0  0  0  0  0  0
    9.4388    4.7265   -8.3649 H   0  0  0  0  0  0  0  0  0  0  0  0
    8.2643    8.7364   -8.2984 H   0  0  0  0  0  0  0  0  0  0  0  0
   10.9186    8.7456   -9.2392 H   0  0  0  0  0  0  0  0  0  0  0  0
    8.8855    8.6361   -5.9262 H   0  0  0  0  0  0  0  0  0  0  0  0
    9.0863   10.7558   -6.1465 H   0  0  0  0  0  0  0  0  0  0  0  0
  1  6  2  0
  2  3  2  0
  2  1  1  0
  3  4  1  0
  4  5  2  0
  6  5  1  0
  1  7  1  0
  3  8  1  0
  5  9  1  0
 10 11  1  0
 11 12  1  0
 12 13  1  0
 13 14  1  0
 12 15  1  0
 15 16  1  0
 15 17  1  0
 17 18  1  0
 17 10  1  0
 10 19  1  6
 12 20  1  1
 13 21  1  0
 13 22  1  0
 14 23  1  0
 15 24  1  6
 16 25  1  0
 17 26  1  1
 18 27  1  0
  2 10  1  0
M  END
>  <Score>  (1) 
-7.49431

$$$$

     RDKit          3D

 32 33  0  0  0  0  0  0  0  0999 V2000
   12.3028    8.1231   -2.3010 C   0  0  0  0  0  0  0  0  0  0  0  0
   12.0213    6.8829   -2.9133 C   0  0  0  0  0  0  0  0  0  0  0  0
   11.5244    6.8970   -4.2248 C   0  0  0  0  0  0  0  0  0  0  0  0
   11.3428    8.1105   -4.8306 N   0  0  0  0  0  0  0  0  0  0  0  0
   11.6237    9.2762   -4.2120 C   0  0  0  0  0  0  0  0  0  0  0  0
   12.1001    9.2814   -2.9564 N   0  0  0  0  0  0  0  0  0  0  0  0
   12.6860    8.1133   -1.2896 H   0  0  0  0  0  0  0  0  0  0  0  0
   12.1787    5.9582   -2.4015 H   0  0  0  0  0  0  0  0  0  0  0  0
   11.2898    5.9915   -4.7485 H   0  0  0  0  0  0  0  0  0  0  0  0
   11.3980   10.4471   -4.9296 O   0  0  0  0  0  0  0  0  0  0  0  0
   11.2001   10.4608   -6.3071 C   0  0  2  0  0  0  0  0  0  0  0  0
   12.1467   11.1653   -7.0166 O   0  0  0  0  0  0  0  0  0  0  0  0
   11.7781   12.4480   -7.3352 C   0  0  1  0  0  0  0  0  0  0  0  0
   12.9755   13.2503   -7.7771 C   0  0  0  0  0  0  0  0  0  0  0  0
   12.5651   14.5598   -8.0965 O   0  0  0  0  0  0  0  0  0  0  0  0
   10.7021   12.4251   -8.4064 C   0  0  1  0  0  0  0  0  0  0  0  0
   11.2470   12.4088   -9.6695 O   0  0  0  0  0  0  0  0  0  0  0  0
    9.8592   11.1629   -8.2080 C   0  0  1  0  0  0  0  0  0  0  0  0
   10.6022   10.0962   -8.7601 O   0  0  0  0  0  0  0  0  0  0  0  0
    9.8147   10.9392   -6.6983 C   0  0  1  0  0  0  0  0  0  0  0  0
    8.8362    9.9974   -6.3671 O   0  0  0  0  0  0  0  0  0  0  0  0
   11.2615    9.3921   -6.6675 H   0  0  0  0  0  0  0  0  0  0  0  0
   11.3999   12.9350   -6.4034 H   0  0  0  0  0  0  0  0  0  0  0  0
   13.6644   13.3464   -6.9283 H   0  0  0  0  0  0  0  0  0  0  0  0
   13.4326   12.8327   -8.6827 H   0  0  0  0  0  0  0  0  0  0  0  0
   11.7240   14.7603   -7.5823 H   0  0  0  0  0  0  0  0  0  0  0  0
   10.0072   13.2716   -8.2906 H   0  0  0  0  0  0  0  0  0  0  0  0
   10.6400   12.8032  -10.3468 H   0  0  0  0  0  0  0  0  0  0  0  0
    8.8673   11.2454   -8.6516 H   0  0  0  0  0  0  0  0  0  0  0  0
   10.2660    9.2277   -8.4683 H   0  0  0  0  0  0  0  0  0  0  0  0
    9.5350   11.8803   -6.2211 H   0  0  0  0  0  0  0  0  0  0  0  0
    8.1768    9.9758   -7.1126 H   0  0  0  0  0  0  0  0  0  0  0  0
  2  1  2  0
  3  2  1  0
  4  3  2  0
  4  5  1  0
  5  6  2  0
  6  1  1  0
  1  7  1  0
  2  8  1  0
  3  9  1  0
 10 11  1  0
 11 12  1  0
 12 13  1  0
 13 14  1  0
 14 15  1  0
 13 16  1  0
 16 17  1  0
 16 18  1  0
 18 19  1  0
 18 20  1  0
 20 21  1  0
 20 11  1  0
 11 22  1  6
 13 23  1  1
 14 24  1  0
 14 25  1  0
 15 26  1  0
 16 27  1  6
 17 28  1  0
 18 29  1  6
 19 30  1  0
 20 31  1  1
 21 32  1  0
  5 10  1  0
M  END
>  <Score>  (1) 
-7.52673

$$$$

     RDKit          3D

 31 32  0  0  0  0  0  0  0  0999 V2000
   11.6894    9.2582   -4.3244 C   0  0  0  0  0  0  0  0  0  0  0  0
   11.3437    8.0908   -5.0377 C   0  0  0  0  0  0  0  0  0  0  0  0
   11.4154    6.8662   -4.3656 C   0  0  0  0  0  0  0  0  0  0  0  0
   11.8159    6.8704   -3.0571 N   0  0  0  0  0  0  0  0  0  0  0  0
   12.1395    8.0080   -2.4054 C   0  0  0  0  0  0  0  0  0  0  0  0
   12.0761    9.1945   -3.0367 N   0  0  0  0  0  0  0  0  0  0  0  0
   11.6213   10.1742   -4.8745 H   0  0  0  0  0  0  0  0  0  0  0  0
   11.1598    5.9681   -4.8808 H   0  0  0  0  0  0  0  0  0  0  0  0
   12.4563    8.0176   -1.3726 H   0  0  0  0  0  0  0  0  0  0  0  0
   10.9162    8.1640   -6.4625 C   0  0  1  0  0  0  0  0  0  0  0  0
   11.7812    7.4297   -7.2032 O   0  0  0  0  0  0  0  0  0  0  0  0
   11.4454    7.0256   -8.4288 C   0  0  2  0  0  0  0  0  0  0  0  0
   12.3653    7.6477   -9.4725 C   0  0  0  0  0  0  0  0  0  0  0  0
   13.6857    7.2666   -9.2185 O   0  0  0  0  0  0  0  0  0  0  0  0
   10.0363    7.2687   -8.8679 C   0  0  2  0  0  0  0  0  0  0  0  0
    9.8373    8.5481   -9.3342 O   0  0  0  0  0  0  0  0  0  0  0  0
    9.0959    6.9780   -7.7251 C   0  0  2  0  0  0  0  0  0  0  0  0
    7.8077    7.3051   -8.1573 O   0  0  0  0  0  0  0  0  0  0  0  0
    9.4793    7.8201   -6.5580 C   0  0  1  0  0  0  0  0  0  0  0  0
    9.0386    7.1443   -5.3952 O   0  0  0  0  0  0  0  0  0  0  0  0
   11.0315    9.2422   -6.7605 H   0  0  0  0  0  0  0  0  0  0  0  0
   11.6266    5.9128   -8.5094 H   0  0  0  0  0  0  0  0  0  0  0  0
   12.0276    7.2074  -10.4550 H   0  0  0  0  0  0  0  0  0  0  0  0
   12.2255    8.7287   -9.5028 H   0  0  0  0  0  0  0  0  0  0  0  0
   14.2051    7.1248  -10.0491 H   0  0  0  0  0  0  0  0  0  0  0  0
    9.7922    6.5646   -9.6948 H   0  0  0  0  0  0  0  0  0  0  0  0
   10.1014    8.6904  -10.2668 H   0  0  0  0  0  0  0  0  0  0  0  0
    9.0792    5.8974   -7.4817 H   0  0  0  0  0  0  0  0  0  0  0  0
    7.8277    8.0115   -8.8552 H   0  0  0  0  0  0  0  0  0  0  0  0
    8.8353    8.7486   -6.5908 H   0  0  0  0  0  0  0  0  0  0  0  0
    8.0393    7.1183   -5.4765 H   0  0  0  0  0  0  0  0  0  0  0  0
  1  6  2  0
  2  3  2  0
  2  1  1  0
  3  4  1  0
  4  5  2  0
  6  5  1  0
  1  7  1  0
  3  8  1  0
  5  9  1  0
 10 11  1  0
 11 12  1  0
 12 13  1  0
 13 14  1  0
 12 15  1  0
 15 16  1  0
 15 17  1  0
 17 18  1  0
 17 19  1  0
 19 20  1  0
 19 10  1  0
 10 21  1  6
 12 22  1  1
 13 23  1  0
 13 24  1  0
 14 25  1  0
 15 26  1  6
 16 27  1  0
 17 28  1  1
 18 29  1  0
 19 30  1  6
 20 31  1  0
  2 10  1  0
M  END
>  <Score>  (1) 
-7.48955

$$$$

     RDKit          3D

 31 32  0  0  0  0  0  0  0  0999 V2000
   11.6897    9.2584   -4.3233 C   0  0  0  0  0  0  0  0  0  0  0  0
   11.3435    8.0914   -5.0389 C   0  0  0  0  0  0  0  0  0  0  0  0
   11.4158    6.8651   -4.3641 C   0  0  0  0  0  0  0  0  0  0  0  0
   11.8156    6.8703   -3.0582 N   0  0  0  0  0  0  0  0  0  0  0  0
   12.1396    8.0080   -2.4050 C   0  0  0  0  0  0  0  0  0  0  0  0
   12.0758    9.1947   -3.0377 N   0  0  0  0  0  0  0  0  0  0  0  0
   11.6436   10.2091   -4.8139 H   0  0  0  0  0  0  0  0  0  0  0  0
   11.1626    5.9495   -4.8651 H   0  0  0  0  0  0  0  0  0  0  0  0
   12.4564    8.0058   -1.3679 H   0  0  0  0  0  0  0  0  0  0  0  0
   10.9189    8.1734   -6.4568 C   0  0  1  0  0  0  0  0  0  0  0  0
    9.6245    8.6669   -6.5143 O   0  0  0  0  0  0  0  0  0  0  0  0
    9.0433    8.5055   -7.7645 C   0  0  2  0  0  0  0  0  0  0  0  0
    8.0875    7.3389   -7.8120 C   0  0  0  0  0  0  0  0  0  0  0  0
    8.6845    6.1367   -7.5178 O   0  0  0  0  0  0  0  0  0  0  0  0
   10.0937    8.4315   -8.8481 C   0  0  1  0  0  0  0  0  0  0  0  0
    9.5660    8.6385  -10.1026 O   0  0  0  0  0  0  0  0  0  0  0  0
   11.1211    9.5119   -8.4878 C   0  0  2  0  0  0  0  0  0  0  0  0
   11.9115    9.8567   -9.5488 O   0  0  0  0  0  0  0  0  0  0  0  0
   11.8780    9.0026   -7.2935 C   0  0  1  0  0  0  0  0  0  0  0  0
   12.4153   10.0575   -6.5722 O   0  0  0  0  0  0  0  0  0  0  0  0
   10.8973    7.1474   -6.8583 H   0  0  0  0  0  0  0  0  0  0  0  0
    8.4431    9.4183   -7.9647 H   0  0  0  0  0  0  0  0  0  0  0  0
    7.3083    7.5294   -7.0442 H   0  0  0  0  0  0  0  0  0  0  0  0
    7.5808    7.3560   -8.7924 H   0  0  0  0  0  0  0  0  0  0  0  0
    8.7692    6.0754   -6.5225 H   0  0  0  0  0  0  0  0  0  0  0  0
   10.6198    7.4550   -8.8630 H   0  0  0  0  0  0  0  0  0  0  0  0
    9.7292    9.5153  -10.4853 H   0  0  0  0  0  0  0  0  0  0  0  0
   10.5457   10.4166   -8.1569 H   0  0  0  0  0  0  0  0  0  0  0  0
   11.6013   10.7178   -9.9659 H   0  0  0  0  0  0  0  0  0  0  0  0
   12.6818    8.3401   -7.6418 H   0  0  0  0  0  0  0  0  0  0  0  0
   12.5918   10.7937   -7.2043 H   0  0  0  0  0  0  0  0  0  0  0  0
  1  6  2  0
  2  3  2  0
  2  1  1  0
  3  4  1  0
  4  5  2  0
  6  5  1  0
  1  7  1  0
  3  8  1  0
  5  9  1  0
 10 11  1  0
 11 12  1  0
 12 13  1  0
 13 14  1  0
 12 15  1  0
 15 16  1  0
 15 17  1  0
 17 18  1  0
 17 19  1  0
 19 20  1  0
 19 10  1  0
 10 21  1  6
 12 22  1  6
 13 23  1  0
 13 24  1  0
 14 25  1  0
 15 26  1  6
 16 27  1  0
 17 28  1  1
 18 29  1  0
 19 30  1  6
 20 31  1  0
  2 10  1  0
M  END
>  <Score>  (1) 
-7.48149

$$$$

     RDKit          3D

 32 33  0  0  0  0  0  0  0  0999 V2000
   11.6874    9.2554   -4.3297 C   0  0  0  0  0  0  0  0  0  0  0  0
   11.3451    8.0933   -5.0342 C   0  0  0  0  0  0  0  0  0  0  0  0
   11.4159    6.8669   -4.3645 C   0  0  0  0  0  0  0  0  0  0  0  0
   11.8144    6.8667   -3.0609 N   0  0  0  0  0  0  0  0  0  0  0  0
   12.1404    8.0131   -2.4043 C   0  0  0  0  0  0  0  0  0  0  0  0
   12.0769    9.1925   -3.0334 N   0  0  0  0  0  0  0  0  0  0  0  0
   11.6380   10.2123   -4.8334 H   0  0  0  0  0  0  0  0  0  0  0  0
   11.1590    5.9627   -4.8816 H   0  0  0  0  0  0  0  0  0  0  0  0
   12.4523    7.9790   -1.3716 H   0  0  0  0  0  0  0  0  0  0  0  0
   10.9638    8.2369   -6.3329 O   0  0  0  0  0  0  0  0  0  0  0  0
   11.7286    8.2195   -7.4842 C   0  0  1  0  0  0  0  0  0  0  0  0
   11.3579    7.2441   -8.4039 O   0  0  0  0  0  0  0  0  0  0  0  0
   12.4270    7.0315   -9.2744 C   0  0  1  0  0  0  0  0  0  0  0  0
   12.1351    5.7512  -10.0011 C   0  0  0  0  0  0  0  0  0  0  0  0
   13.1179    5.3999  -10.9138 O   0  0  0  0  0  0  0  0  0  0  0  0
   12.5256    8.2235  -10.1735 C   0  0  2  0  0  0  0  0  0  0  0  0
   13.6443    8.1382  -11.0212 O   0  0  0  0  0  0  0  0  0  0  0  0
   12.7510    9.4471   -9.3080 C   0  0  2  0  0  0  0  0  0  0  0  0
   13.9575    9.2434   -8.6346 O   0  0  0  0  0  0  0  0  0  0  0  0
   11.6524    9.5444   -8.2559 C   0  0  1  0  0  0  0  0  0  0  0  0
   10.4344    9.5848   -8.9473 O   0  0  0  0  0  0  0  0  0  0  0  0
   12.8022    8.0624   -7.2598 H   0  0  0  0  0  0  0  0  0  0  0  0
   13.3361    6.9440   -8.6619 H   0  0  0  0  0  0  0  0  0  0  0  0
   11.1492    5.7771  -10.4711 H   0  0  0  0  0  0  0  0  0  0  0  0
   12.1092    4.9421   -9.2350 H   0  0  0  0  0  0  0  0  0  0  0  0
   13.9982    5.4830  -10.4854 H   0  0  0  0  0  0  0  0  0  0  0  0
   11.6129    8.3652  -10.7628 H   0  0  0  0  0  0  0  0  0  0  0  0
   13.4701    7.5961  -11.8195 H   0  0  0  0  0  0  0  0  0  0  0  0
   12.8135   10.3796   -9.9074 H   0  0  0  0  0  0  0  0  0  0  0  0
   14.6753    9.8162   -8.9513 H   0  0  0  0  0  0  0  0  0  0  0  0
   11.8100   10.4086   -7.6166 H   0  0  0  0  0  0  0  0  0  0  0  0
    9.8052    8.8924   -8.6438 H   0  0  0  0  0  0  0  0  0  0  0  0
  1  6  2  0
  2  3  2  0
  2  1  1  0
  3  4  1  0
  4  5  2  0
  6  5  1  0
  1  7  1  0
  3  8  1  0
  5  9  1  0
 10 11  1  0
 11 12  1  0
 12 13  1  0
 13 14  1  0
 14 15  1  0
 13 16  1  0
 16 17  1  0
 16 18  1  0
 18 19  1  0
 18 20  1  0
 20 21  1  0
 20 11  1  0
 11 22  1  1
 13 23  1  1
 14 24  1  0
 14 25  1  0
 15 26  1  0
 16 27  1  6
 17 28  1  0
 18 29  1  6
 19 30  1  0
 20 31  1  1
 21 32  1  0
  2 10  1  0
M  END
>  <Score>  (1) 
-7.48009

$$$$

     RDKit          3D

 29 31  0  0  0  0  0  0  0  0999 V2000
   11.6888    9.2507   -4.3237 C   0  0  0  0  0  0  0  0  0  0  0  0
   11.3435    8.0875   -5.0368 C   0  0  0  0  0  0  0  0  0  0  0  0
   11.4142    6.8736   -4.3729 C   0  0  0  0  0  0  0  0  0  0  0  0
   11.8182    6.8798   -3.0529 N   0  0  0  0  0  0  0  0  0  0  0  0
   12.1393    8.0096   -2.4062 C   0  0  0  0  0  0  0  0  0  0  0  0
   12.0760    9.1868   -3.0346 N   0  0  0  0  0  0  0  0  0  0  0  0
   11.6366   10.2182   -4.8362 H   0  0  0  0  0  0  0  0  0  0  0  0
   11.1781    5.9599   -4.8544 H   0  0  0  0  0  0  0  0  0  0  0  0
   12.4460    7.9078   -1.3669 H   0  0  0  0  0  0  0  0  0  0  0  0
   10.9677    8.2276   -6.4052 N   0  0  0  0  0  0  0  0  0  0  0  0
   11.8561    8.4017   -7.4743 C   0  0  0  0  0  0  0  0  0  0  0  0
   13.2056    8.3733   -7.3005 N   0  0  0  0  0  0  0  0  0  0  0  0
   14.0962    8.4968   -8.2788 C   0  0  0  0  0  0  0  0  0  0  0  0
   15.1666    8.4689   -8.0995 H   0  0  0  0  0  0  0  0  0  0  0  0
   13.6368    8.6665   -9.5676 C   0  0  0  0  0  0  0  0  0  0  0  0
   12.2935    8.7073   -9.8338 C   0  0  0  0  0  0  0  0  0  0  0  0
   11.8245    8.8779  -11.0855 N   0  0  0  0  0  0  0  0  0  0  0  0
   10.5191    8.9289  -11.3818 C   0  0  0  0  0  0  0  0  0  0  0  0
    9.6390    8.8042  -10.3842 N   0  0  0  0  0  0  0  0  0  0  0  0
    8.2009    8.8536  -10.6567 C   0  0  0  0  0  0  0  0  0  0  0  0
   10.0725    8.6302   -9.1065 C   0  0  0  0  0  0  0  0  0  0  0  0
    9.1906    8.5264   -8.2549 O   0  0  0  0  0  0  0  0  0  0  0  0
   11.4033    8.5714   -8.7587 C   0  0  0  0  0  0  0  0  0  0  0  0
    9.9493    8.1880   -6.5616 H   0  0  0  0  0  0  0  0  0  0  0  0
   14.3151    8.7720  -10.4032 H   0  0  0  0  0  0  0  0  0  0  0  0
   10.1522    9.0656  -12.3858 H   0  0  0  0  0  0  0  0  0  0  0  0
    7.8007    9.8822  -10.5335 H   0  0  0  0  0  0  0  0  0  0  0  0
    8.0848    8.4728  -11.6989 H   0  0  0  0  0  0  0  0  0  0  0  0
    7.6777    8.2137   -9.9439 H   0  0  0  0  0  0  0  0  0  0  0  0
  1  6  2  0
  2  3  2  0
  2  1  1  0
  3  4  1  0
  4  5  2  0
  6  5  1  0
  1  7  1  0
  3  8  1  0
  5  9  1  0
 10 11  1  0
 11 12  2  0
 12 13  1  0
 13 14  1  0
 13 15  2  0
 15 16  1  0
 16 17  1  0
 17 18  2  0
 18 19  1  0
 19 20  1  0
 19 21  1  0
 21 22  2  0
 21 23  1  0
 23 11  1  0
 23 16  2  0
 10 24  1  0
 15 25  1  0
 18 26  1  0
 20 27  1  0
 20 28  1  0
 20 29  1  0
  2 10  1  0
M  END
>  <Score>  (1) 
-7.46908

$$$$

     RDKit          3D

 28 29  0  0  0  0  0  0  0  0999 V2000
   11.6901    9.2586   -4.3220 C   0  0  0  0  0  0  0  0  0  0  0  0
   11.3432    8.0889   -5.0387 C   0  0  0  0  0  0  0  0  0  0  0  0
   11.4157    6.8677   -4.3652 C   0  0  0  0  0  0  0  0  0  0  0  0
   11.8158    6.8704   -3.0576 N   0  0  0  0  0  0  0  0  0  0  0  0
   12.1396    8.0065   -2.4045 C   0  0  0  0  0  0  0  0  0  0  0  0
   12.0755    9.1960   -3.0390 N   0  0  0  0  0  0  0  0  0  0  0  0
   11.6427   10.2139   -4.8186 H   0  0  0  0  0  0  0  0  0  0  0  0
   11.1560    5.9914   -4.9015 H   0  0  0  0  0  0  0  0  0  0  0  0
   12.4529    8.0081   -1.3802 H   0  0  0  0  0  0  0  0  0  0  0  0
   10.9253    8.1939   -6.4431 C   0  0  2  0  0  0  0  0  0  0  0  0
   11.2998    6.8989   -7.1467 C   0  0  0  0  0  0  0  0  0  0  0  0
   10.8100    7.0252   -8.5789 C   0  0  0  0  0  0  0  0  0  0  0  0
   11.5788    8.1737   -9.2091 C   0  0  0  0  0  0  0  0  0  0  0  0
   11.1008    9.4417   -8.5283 C   0  0  0  0  0  0  0  0  0  0  0  0
   11.5936    9.3821   -7.0899 C   0  0  1  0  0  0  0  0  0  0  0  0
   11.1547   10.5772   -6.4235 N   0  0  0  0  0  0  0  0  0  0  0  0
    9.8420    8.3271   -6.4956 H   0  0  0  0  0  0  0  0  0  0  0  0
   10.7672    6.0765   -6.6624 H   0  0  0  0  0  0  0  0  0  0  0  0
   12.3884    6.7460   -7.1120 H   0  0  0  0  0  0  0  0  0  0  0  0
   10.8753    6.0995   -9.1466 H   0  0  0  0  0  0  0  0  0  0  0  0
    9.7452    7.3661   -8.5184 H   0  0  0  0  0  0  0  0  0  0  0  0
   11.4272    8.2259  -10.3011 H   0  0  0  0  0  0  0  0  0  0  0  0
   12.6643    8.0585   -8.9368 H   0  0  0  0  0  0  0  0  0  0  0  0
    9.9788    9.4144   -8.4583 H   0  0  0  0  0  0  0  0  0  0  0  0
   11.4272   10.3542   -9.0416 H   0  0  0  0  0  0  0  0  0  0  0  0
   12.6907    9.2853   -7.1223 H   0  0  0  0  0  0  0  0  0  0  0  0
   11.9819   11.1900   -6.1537 H   0  0  0  0  0  0  0  0  0  0  0  0
   10.5459   11.1769   -7.0032 H   0  0  0  0  0  0  0  0  0  0  0  0
  1  6  2  0
  2  3  2  0
  2  1  1  0
  3  4  1  0
  4  5  2  0
  6  5  1  0
  1  7  1  0
  3  8  1  0
  5  9  1  0
 10 11  1  0
 11 12  1  0
 12 13  1  0
 13 14  1  0
 14 15  1  0
 15 16  1  0
 15 10  1  0
 10 17  1  1
 11 18  1  0
 11 19  1  0
 12 20  1  0
 12 21  1  0
 13 22  1  0
 13 23  1  0
 14 24  1  0
 14 25  1  0
 15 26  1  6
 16 27  1  0
 16 28  1  0
  2 10  1  0
M  END
>  <Score>  (1) 
-7.46894

$$$$

     RDKit          3D

 20 21  0  0  0  0  0  0  0  0999 V2000
   11.6891    9.2576   -4.3250 C   0  0  0  0  0  0  0  0  0  0  0  0
   11.3437    8.0937   -5.0389 C   0  0  0  0  0  0  0  0  0  0  0  0
   11.4161    6.8638   -4.3626 C   0  0  0  0  0  0  0  0  0  0  0  0
   11.8153    6.8705   -3.0593 N   0  0  0  0  0  0  0  0  0  0  0  0
   12.1397    8.0093   -2.4051 C   0  0  0  0  0  0  0  0  0  0  0  0
   12.0761    9.1932   -3.0361 N   0  0  0  0  0  0  0  0  0  0  0  0
   11.6286   10.1899   -4.8561 H   0  0  0  0  0  0  0  0  0  0  0  0
   11.1600    5.9423   -4.8709 H   0  0  0  0  0  0  0  0  0  0  0  0
   12.4438    7.8946   -1.3693 H   0  0  0  0  0  0  0  0  0  0  0  0
   10.9265    8.1566   -6.4261 C   0  0  0  0  0  0  0  0  0  0  0  0
   10.5942    6.9877   -7.0958 C   0  0  0  0  0  0  0  0  0  0  0  0
   10.2013    7.0715   -8.4114 C   0  0  0  0  0  0  0  0  0  0  0  0
   10.1342    8.2813   -9.0629 C   0  0  0  0  0  0  0  0  0  0  0  0
   10.4636    9.4422   -8.3994 C   0  0  0  0  0  0  0  0  0  0  0  0
   10.4077   10.6400   -9.0100 F   0  0  0  0  0  0  0  0  0  0  0  0
   10.8573    9.3615   -7.0828 C   0  0  0  0  0  0  0  0  0  0  0  0
   11.1904   10.5038   -6.4012 F   0  0  0  0  0  0  0  0  0  0  0  0
   10.6398    6.0156   -6.5993 H   0  0  0  0  0  0  0  0  0  0  0  0
    9.9447    6.1360   -8.9166 H   0  0  0  0  0  0  0  0  0  0  0  0
    9.8151    8.2896  -10.1095 H   0  0  0  0  0  0  0  0  0  0  0  0
  1  6  2  0
  2  3  2  0
  2  1  1  0
  3  4  1  0
  4  5  2  0
  6  5  1  0
  1  7  1  0
  3  8  1  0
  5  9  1  0
 10 11  2  0
 11 12  1  0
 12 13  2  0
 13 14  1  0
 14 15  1  0
 14 16  2  0
 16 17  1  0
 16 10  1  0
 11 18  1  0
 12 19  1  0
 13 20  1  0
  2 10  1  0
M  END
>  <Score>  (1) 
-7.4676

$$$$

     RDKit          3D

 23 24  0  0  0  0  0  0  0  0999 V2000
   11.6885    9.2578   -4.3265 C   0  0  0  0  0  0  0  0  0  0  0  0
   11.3439    8.0912   -5.0374 C   0  0  0  0  0  0  0  0  0  0  0  0
   11.4155    6.8660   -4.3657 C   0  0  0  0  0  0  0  0  0  0  0  0
   11.8162    6.8718   -3.0562 N   0  0  0  0  0  0  0  0  0  0  0  0
   12.1391    8.0054   -2.4059 C   0  0  0  0  0  0  0  0  0  0  0  0
   12.0767    9.1959   -3.0354 N   0  0  0  0  0  0  0  0  0  0  0  0
   11.6442   10.2310   -4.8113 H   0  0  0  0  0  0  0  0  0  0  0  0
   11.1620    5.9381   -4.8655 H   0  0  0  0  0  0  0  0  0  0  0  0
   12.4550    7.9799   -1.3705 H   0  0  0  0  0  0  0  0  0  0  0  0
   10.9255    8.1671   -6.4259 C   0  0  0  0  0  0  0  0  0  0  0  0
   11.4582    7.3136   -7.3389 C   0  0  0  0  0  0  0  0  0  0  0  0
   11.0625    7.3816   -8.6579 C   0  0  0  0  0  0  0  0  0  0  0  0
   10.1365    8.3020   -9.0590 C   0  0  0  0  0  0  0  0  0  0  0  0
    9.6556    8.4381  -10.4670 C   0  0  0  0  0  0  0  0  0  0  0  0
    9.5937    9.1761   -8.1144 C   0  0  0  0  0  0  0  0  0  0  0  0
    8.8458    9.9254   -8.4081 H   0  0  0  0  0  0  0  0  0  0  0  0
    9.9893    9.1084   -6.7948 C   0  0  0  0  0  0  0  0  0  0  0  0
   12.2008    6.5686   -7.0572 H   0  0  0  0  0  0  0  0  0  0  0  0
   11.4861    6.7022   -9.3941 H   0  0  0  0  0  0  0  0  0  0  0  0
   10.1975    9.2921  -10.9187 H   0  0  0  0  0  0  0  0  0  0  0  0
    9.8066    7.5045  -11.0254 H   0  0  0  0  0  0  0  0  0  0  0  0
    8.5539    8.6587  -10.3849 H   0  0  0  0  0  0  0  0  0  0  0  0
    9.5731    9.7867   -6.0347 H   0  0  0  0  0  0  0  0  0  0  0  0
  1  6  2  0
  2  3  2  0
  2  1  1  0
  3  4  1  0
  4  5  2  0
  6  5  1  0
  1  7  1  0
  3  8  1  0
  5  9  1  0
 10 11  2  0
 11 12  1  0
 12 13  2  0
 13 14  1  0
 13 15  1  0
 15 16  1  0
 15 17  2  0
 17 10  1  0
 11 18  1  0
 12 19  1  0
 14 20  1  0
 14 21  1  0
 14 22  1  0
 17 23  1  0
  2 10  1  0
M  END
>  <Score>  (1) 
-7.46701

$$$$

     RDKit          3D

 26 27  0  0  0  0  0  0  0  0999 V2000
   11.6900    9.2572   -4.3219 C   0  0  0  0  0  0  0  0  0  0  0  0
   11.3435    8.0906   -5.0383 C   0  0  0  0  0  0  0  0  0  0  0  0
   11.4149    6.8669   -4.3678 C   0  0  0  0  0  0  0  0  0  0  0  0
   11.8168    6.8718   -3.0549 N   0  0  0  0  0  0  0  0  0  0  0  0
   12.1395    8.0076   -2.4052 C   0  0  0  0  0  0  0  0  0  0  0  0
   12.0754    9.1939   -3.0389 N   0  0  0  0  0  0  0  0  0  0  0  0
   11.6391   10.2064   -4.8291 H   0  0  0  0  0  0  0  0  0  0  0  0
   11.1592    5.9440   -4.8745 H   0  0  0  0  0  0  0  0  0  0  0  0
   12.4530    7.9809   -1.3689 H   0  0  0  0  0  0  0  0  0  0  0  0
   10.9280    8.1341   -6.4150 C   0  0  0  0  0  0  0  0  0  0  0  0
   11.7497    8.6585   -7.4006 C   0  0  0  0  0  0  0  0  0  0  0  0
   11.3282    8.6865   -8.7004 C   0  0  0  0  0  0  0  0  0  0  0  0
   12.1815    9.2405   -9.7789 C   0  0  0  0  0  0  0  0  0  0  0  0
   10.0894    8.1968   -9.0434 C   0  0  0  0  0  0  0  0  0  0  0  0
    9.2562    7.6728   -8.0904 C   0  0  0  0  0  0  0  0  0  0  0  0
    7.8995    7.1263   -8.4021 C   0  0  0  0  0  0  0  0  0  0  0  0
    9.6895    7.6485   -6.7821 C   0  0  0  0  0  0  0  0  0  0  0  0
   12.7359    9.0424   -7.0934 H   0  0  0  0  0  0  0  0  0  0  0  0
   11.8448    8.8517  -10.7731 H   0  0  0  0  0  0  0  0  0  0  0  0
   13.2359    8.9549   -9.6637 H   0  0  0  0  0  0  0  0  0  0  0  0
   12.0427   10.3556   -9.7394 H   0  0  0  0  0  0  0  0  0  0  0  0
    9.7314    8.2064  -10.0608 H   0  0  0  0  0  0  0  0  0  0  0  0
    7.8363    6.1248   -7.9811 H   0  0  0  0  0  0  0  0  0  0  0  0
    7.1032    7.7371   -7.9311 H   0  0  0  0  0  0  0  0  0  0  0  0
    7.7126    7.1031   -9.4815 H   0  0  0  0  0  0  0  0  0  0  0  0
    9.0426    7.2402   -6.0339 H   0  0  0  0  0  0  0  0  0  0  0  0
  1  6  2  0
  2  3  2  0
  2  1  1  0
  3  4  1  0
  4  5  2  0
  6  5  1  0
  1  7  1  0
  3  8  1  0
  5  9  1  0
 10 11  2  0
 11 12  1  0
 12 13  1  0
 12 14  2  0
 14 15  1  0
 15 16  1  0
 15 17  2  0
 17 10  1  0
 11 18  1  0
 13 19  1  0
 13 20  1  0
 13 21  1  0
 14 22  1  0
 16 23  1  0
 16 24  1  0
 16 25  1  0
 17 26  1  0
  2 10  1  0
M  END
>  <Score>  (1) 
-7.46195

$$$$

     RDKit          3D

 24 26  0  0  0  0  0  0  0  0999 V2000
   11.6895    9.2592   -4.3245 C   0  0  0  0  0  0  0  0  0  0  0  0
   11.3435    8.0906   -5.0385 C   0  0  0  0  0  0  0  0  0  0  0  0
   11.4156    6.8654   -4.3646 C   0  0  0  0  0  0  0  0  0  0  0  0
   11.8160    6.8730   -3.0580 N   0  0  0  0  0  0  0  0  0  0  0  0
   12.1396    8.0088   -2.4053 C   0  0  0  0  0  0  0  0  0  0  0  0
   12.0759    9.1911   -3.0362 N   0  0  0  0  0  0  0  0  0  0  0  0
   11.6338   10.2048   -4.8445 H   0  0  0  0  0  0  0  0  0  0  0  0
   11.1566    5.9838   -4.8967 H   0  0  0  0  0  0  0  0  0  0  0  0
   12.4554    7.9675   -1.3575 H   0  0  0  0  0  0  0  0  0  0  0  0
   10.9370    8.1218   -6.3793 N   0  0  0  0  0  0  0  0  0  0  0  0
   11.1228    9.1694   -7.1999 C   0  0  0  0  0  0  0  0  0  0  0  0
   10.6136    8.8933   -8.4539 C   0  0  0  0  0  0  0  0  0  0  0  0
   10.6047    9.5306   -9.3427 H   0  0  0  0  0  0  0  0  0  0  0  0
   10.0962    7.6149   -8.3810 C   0  0  0  0  0  0  0  0  0  0  0  0
    9.4655    6.8029   -9.2998 C   0  0  0  0  0  0  0  0  0  0  0  0
    9.0430    5.5274   -8.9279 C   0  0  0  0  0  0  0  0  0  0  0  0
    9.2744    5.1228   -7.6422 C   0  0  0  0  0  0  0  0  0  0  0  0
    9.9014    5.9006   -6.6891 C   0  0  0  0  0  0  0  0  0  0  0  0
   10.3091    7.1615   -7.0887 C   0  0  0  0  0  0  0  0  0  0  0  0
   11.6004   10.1063   -6.9387 H   0  0  0  0  0  0  0  0  0  0  0  0
    9.2941    7.1514  -10.3179 H   0  0  0  0  0  0  0  0  0  0  0  0
    8.5447    4.8656   -9.6261 H   0  0  0  0  0  0  0  0  0  0  0  0
    8.9402    4.1295   -7.3690 H   0  0  0  0  0  0  0  0  0  0  0  0
   10.0711    5.5528   -5.6777 H   0  0  0  0  0  0  0  0  0  0  0  0
  1  6  2  0
  2  3  2  0
  2  1  1  0
  3  4  1  0
  4  5  2  0
  6  5  1  0
  1  7  1  0
  3  8  1  0
  5  9  1  0
 10 11  1  0
 11 12  2  0
 12 13  1  0
 12 14  1  0
 14 15  2  0
 15 16  1  0
 16 17  2  0
 17 18  1  0
 18 19  2  0
 19 10  1  0
 19 14  1  0
 11 20  1  0
 15 21  1  0
 16 22  1  0
 17 23  1  0
 18 24  1  0
  2 10  1  0
M  END
>  <Score>  (1) 
-7.46133

$$$$

     RDKit          3D

 20 21  0  0  0  0  0  0  0  0999 V2000
   11.6886    9.2564   -4.3264 C   0  0  0  0  0  0  0  0  0  0  0  0
   11.3442    8.0931   -5.0369 C   0  0  0  0  0  0  0  0  0  0  0  0
   11.4153    6.8649   -4.3655 C   0  0  0  0  0  0  0  0  0  0  0  0
   11.8162    6.8715   -3.0566 N   0  0  0  0  0  0  0  0  0  0  0  0
   12.1391    8.0060   -2.4058 C   0  0  0  0  0  0  0  0  0  0  0  0
   12.0765    9.1961   -3.0359 N   0  0  0  0  0  0  0  0  0  0  0  0
   11.6419   10.2168   -4.8222 H   0  0  0  0  0  0  0  0  0  0  0  0
   11.1619    5.9467   -4.8666 H   0  0  0  0  0  0  0  0  0  0  0  0
   12.4556    8.0226   -1.3764 H   0  0  0  0  0  0  0  0  0  0  0  0
   10.9283    8.1738   -6.4257 C   0  0  0  0  0  0  0  0  0  0  0  0
   10.8422    9.3887   -7.0623 C   0  0  0  0  0  0  0  0  0  0  0  0
   10.4503    9.4869   -8.3781 C   0  0  0  0  0  0  0  0  0  0  0  0
   10.1249    8.3644   -9.1203 C   0  0  0  0  0  0  0  0  0  0  0  0
   10.2079    7.1394   -8.4907 C   0  0  0  0  0  0  0  0  0  0  0  0
    9.7639    5.5807   -9.4960 Br  0  0  0  0  0  0  0  0  0  0  0  0
   10.6037    7.0479   -7.1642 C   0  0  0  0  0  0  0  0  0  0  0  0
   11.0997   10.2752   -6.4748 H   0  0  0  0  0  0  0  0  0  0  0  0
   10.3870   10.4548   -8.8674 H   0  0  0  0  0  0  0  0  0  0  0  0
    9.8158    8.4290  -10.1539 H   0  0  0  0  0  0  0  0  0  0  0  0
   10.6711    6.0783   -6.6615 H   0  0  0  0  0  0  0  0  0  0  0  0
  1  6  2  0
  2  3  2  0
  2  1  1  0
  3  4  1  0
  4  5  2  0
  6  5  1  0
  1  7  1  0
  3  8  1  0
  5  9  1  0
 10 11  2  0
 11 12  1  0
 12 13  2  0
 13 14  1  0
 14 15  1  0
 14 16  2  0
 16 10  1  0
 11 17  1  0
 12 18  1  0
 13 19  1  0
 16 20  1  0
  2 10  1  0
M  END
>  <Score>  (1) 
-7.46097

$$$$

     RDKit          3D

 23 24  0  0  0  0  0  0  0  0999 V2000
   12.3016    8.1202   -2.3038 C   0  0  0  0  0  0  0  0  0  0  0  0
   12.0209    6.8839   -2.9143 C   0  0  0  0  0  0  0  0  0  0  0  0
   11.5262    6.8973   -4.2200 C   0  0  0  0  0  0  0  0  0  0  0  0
   11.3420    8.1105   -4.8325 N   0  0  0  0  0  0  0  0  0  0  0  0
   11.6230    9.2768   -4.2137 C   0  0  0  0  0  0  0  0  0  0  0  0
   12.1012    9.2823   -2.9536 N   0  0  0  0  0  0  0  0  0  0  0  0
   12.6814    8.0563   -1.2957 H   0  0  0  0  0  0  0  0  0  0  0  0
   12.1854    5.9495   -2.3829 H   0  0  0  0  0  0  0  0  0  0  0  0
   11.3042    5.9721   -4.7087 H   0  0  0  0  0  0  0  0  0  0  0  0
   11.4041   10.5597   -4.9252 C   0  0  0  0  0  0  0  0  0  0  0  0
   10.8798   10.3662   -6.2873 C   0  0  0  0  0  0  0  0  0  0  0  0
   10.6386   11.5006   -7.0422 C   0  0  0  0  0  0  0  0  0  0  0  0
   10.8795   12.7295   -6.5365 F   0  0  0  0  0  0  0  0  0  0  0  0
   10.1476   11.4354   -8.3300 C   0  0  0  0  0  0  0  0  0  0  0  0
    9.8847   10.2040   -8.8936 C   0  0  0  0  0  0  0  0  0  0  0  0
   10.1276    9.0784   -8.1345 C   0  0  0  0  0  0  0  0  0  0  0  0
   10.6158    9.1363   -6.8538 C   0  0  0  0  0  0  0  0  0  0  0  0
   10.8580    8.0361   -6.0996 F   0  0  0  0  0  0  0  0  0  0  0  0
   12.3509   11.1651   -4.9914 H   0  0  0  0  0  0  0  0  0  0  0  0
   10.6722   11.2166   -4.3808 H   0  0  0  0  0  0  0  0  0  0  0  0
    9.9486   12.3017   -8.9455 H   0  0  0  0  0  0  0  0  0  0  0  0
    9.4972   10.0908   -9.9032 H   0  0  0  0  0  0  0  0  0  0  0  0
    9.9205    8.0994   -8.5779 H   0  0  0  0  0  0  0  0  0  0  0  0
  2  1  2  0
  3  2  1  0
  4  3  2  0
  4  5  1  0
  5  6  2  0
  6  1  1  0
  1  7  1  0
  2  8  1  0
  3  9  1  0
 10 11  1  0
 11 12  2  0
 12 13  1  0
 12 14  1  0
 14 15  2  0
 15 16  1  0
 16 17  2  0
 17 18  1  0
 17 11  1  0
 10 19  1  0
 10 20  1  0
 14 21  1  0
 15 22  1  0
 16 23  1  0
  5 10  1  0
M  END
>  <Score>  (1) 
-7.52612

$$$$

     RDKit          3D

 31 32  0  0  0  0  0  0  0  0999 V2000
   11.6895    9.2583   -4.3241 C   0  0  0  0  0  0  0  0  0  0  0  0
   11.3435    8.0917   -5.0389 C   0  0  0  0  0  0  0  0  0  0  0  0
   11.4156    6.8649   -4.3647 C   0  0  0  0  0  0  0  0  0  0  0  0
   11.8162    6.8723   -3.0571 N   0  0  0  0  0  0  0  0  0  0  0  0
   12.1394    8.0075   -2.4055 C   0  0  0  0  0  0  0  0  0  0  0  0
   12.0759    9.1932   -3.0368 N   0  0  0  0  0  0  0  0  0  0  0  0
   11.6217   10.1909   -4.8789 H   0  0  0  0  0  0  0  0  0  0  0  0
   11.1580    5.9717   -4.8881 H   0  0  0  0  0  0  0  0  0  0  0  0
   12.4562    8.0103   -1.3701 H   0  0  0  0  0  0  0  0  0  0  0  0
   10.9194    8.1342   -6.4412 C   0  0  2  0  0  0  0  0  0  0  0  0
   10.9795    6.8476   -6.9565 O   0  0  0  0  0  0  0  0  0  0  0  0
   10.4937    6.7405   -8.2371 C   0  0  1  0  0  0  0  0  0  0  0  0
    9.3940    5.7080   -8.3487 C   0  0  0  0  0  0  0  0  0  0  0  0
    8.3122    6.0131   -7.5358 O   0  0  0  0  0  0  0  0  0  0  0  0
   10.0987    8.0623   -8.8470 C   0  0  2  0  0  0  0  0  0  0  0  0
    9.8285    7.8636  -10.1971 O   0  0  0  0  0  0  0  0  0  0  0  0
   11.3042    8.9738   -8.7142 C   0  0  1  0  0  0  0  0  0  0  0  0
   11.0703   10.2341   -9.2510 O   0  0  0  0  0  0  0  0  0  0  0  0
   11.8038    9.0234   -7.2975 C   0  0  1  0  0  0  0  0  0  0  0  0
   11.7730   10.3041   -6.7960 O   0  0  0  0  0  0  0  0  0  0  0  0
    9.8853    8.5410   -6.4763 H   0  0  0  0  0  0  0  0  0  0  0  0
   11.3433    6.3498   -8.8713 H   0  0  0  0  0  0  0  0  0  0  0  0
    9.8213    4.7503   -7.9676 H   0  0  0  0  0  0  0  0  0  0  0  0
    9.1050    5.5907   -9.3968 H   0  0  0  0  0  0  0  0  0  0  0  0
    7.7096    6.6183   -8.0427 H   0  0  0  0  0  0  0  0  0  0  0  0
    9.1901    8.4889   -8.3955 H   0  0  0  0  0  0  0  0  0  0  0  0
   10.5393    8.2471  -10.7489 H   0  0  0  0  0  0  0  0  0  0  0  0
   12.1099    8.5090   -9.3372 H   0  0  0  0  0  0  0  0  0  0  0  0
   11.9411   10.6757   -9.3664 H   0  0  0  0  0  0  0  0  0  0  0  0
   12.8609    8.6385   -7.2125 H   0  0  0  0  0  0  0  0  0  0  0  0
   12.5291   10.8540   -7.1412 H   0  0  0  0  0  0  0  0  0  0  0  0
  1  6  2  0
  2  3  2  0
  2  1  1  0
  3  4  1  0
  4  5  2  0
  6  5  1  0
  1  7  1  0
  3  8  1  0
  5  9  1  0
 10 11  1  0
 11 12  1  0
 12 13  1  0
 13 14  1  0
 12 15  1  0
 15 16  1  0
 15 17  1  0
 17 18  1  0
 17 19  1  0
 19 20  1  0
 19 10  1  0
 10 21  1  1
 12 22  1  6
 13 23  1  0
 13 24  1  0
 14 25  1  0
 15 26  1  1
 16 27  1  0
 17 28  1  6
 18 29  1  0
 19 30  1  6
 20 31  1  0
  2 10  1  0
M  END
>  <Score>  (1) 
-7.45514

$$$$

     RDKit          3D

 32 33  0  0  0  0  0  0  0  0999 V2000
   11.6895    9.2565   -4.3235 C   0  0  0  0  0  0  0  0  0  0  0  0
   11.3441    8.0875   -5.0353 C   0  0  0  0  0  0  0  0  0  0  0  0
   11.4147    6.8717   -4.3698 C   0  0  0  0  0  0  0  0  0  0  0  0
   11.8166    6.8702   -3.0548 N   0  0  0  0  0  0  0  0  0  0  0  0
   12.1397    8.0058   -2.4038 C   0  0  0  0  0  0  0  0  0  0  0  0
   12.0753    9.1963   -3.0398 N   0  0  0  0  0  0  0  0  0  0  0  0
   11.6248   10.1951   -4.8705 H   0  0  0  0  0  0  0  0  0  0  0  0
   11.1767    5.9374   -4.8147 H   0  0  0  0  0  0  0  0  0  0  0  0
   12.4531    7.9654   -1.3644 H   0  0  0  0  0  0  0  0  0  0  0  0
   10.9576    8.1820   -6.3333 O   0  0  0  0  0  0  0  0  0  0  0  0
   10.3109    7.2051   -7.1086 C   0  0  2  0  0  0  0  0  0  0  0  0
   11.1244    7.0073   -8.2312 O   0  0  0  0  0  0  0  0  0  0  0  0
   10.4713    6.4183   -9.2840 C   0  0  1  0  0  0  0  0  0  0  0  0
    9.9463    5.0352   -8.9383 C   0  0  0  0  0  0  0  0  0  0  0  0
    9.2899    4.4572  -10.0134 O   0  0  0  0  0  0  0  0  0  0  0  0
    9.3937    7.3047   -9.8699 C   0  0  1  0  0  0  0  0  0  0  0  0
    8.1725    6.6349   -9.9485 O   0  0  0  0  0  0  0  0  0  0  0  0
    9.2393    8.4740   -8.8876 C   0  0  2  0  0  0  0  0  0  0  0  0
   10.4628    9.1231   -8.8185 O   0  0  0  0  0  0  0  0  0  0  0  0
    8.9786    7.8395   -7.5379 C   0  0  2  0  0  0  0  0  0  0  0  0
    8.6390    8.8967   -6.6705 O   0  0  0  0  0  0  0  0  0  0  0  0
   10.1095    6.2701   -6.5741 H   0  0  0  0  0  0  0  0  0  0  0  0
   11.2245    6.2641  -10.0884 H   0  0  0  0  0  0  0  0  0  0  0  0
    9.2736    5.0462   -8.0678 H   0  0  0  0  0  0  0  0  0  0  0  0
   10.8215    4.3955   -8.7128 H   0  0  0  0  0  0  0  0  0  0  0  0
    8.8659    3.6239   -9.6761 H   0  0  0  0  0  0  0  0  0  0  0  0
    9.6524    7.7301  -10.8395 H   0  0  0  0  0  0  0  0  0  0  0  0
    8.0439    6.3575  -10.8895 H   0  0  0  0  0  0  0  0  0  0  0  0
    8.4200    9.1340   -9.2174 H   0  0  0  0  0  0  0  0  0  0  0  0
   10.4399    9.9899   -9.3189 H   0  0  0  0  0  0  0  0  0  0  0  0
    8.1640    7.1115   -7.5614 H   0  0  0  0  0  0  0  0  0  0  0  0
    9.2486    9.6645   -6.8241 H   0  0  0  0  0  0  0  0  0  0  0  0
  1  6  2  0
  2  3  2  0
  2  1  1  0
  3  4  1  0
  4  5  2  0
  6  5  1  0
  1  7  1  0
  3  8  1  0
  5  9  1  0
 10 11  1  0
 11 12  1  0
 12 13  1  0
 13 14  1  0
 14 15  1  0
 13 16  1  0
 16 17  1  0
 16 18  1  0
 18 19  1  0
 18 20  1  0
 20 21  1  0
 20 11  1  0
 11 22  1  1
 13 23  1  6
 14 24  1  0
 14 25  1  0
 15 26  1  0
 16 27  1  6
 17 28  1  0
 18 29  1  6
 19 30  1  0
 20 31  1  6
 21 32  1  0
  2 10  1  0
M  END
>  <Score>  (1) 
-7.4476

$$$$

     RDKit          3D

 32 33  0  0  0  0  0  0  0  0999 V2000
   11.6874    9.2550   -4.3297 C   0  0  0  0  0  0  0  0  0  0  0  0
   11.3451    8.0922   -5.0340 C   0  0  0  0  0  0  0  0  0  0  0  0
   11.4154    6.8672   -4.3661 C   0  0  0  0  0  0  0  0  0  0  0  0
   11.8151    6.8694   -3.0596 N   0  0  0  0  0  0  0  0  0  0  0  0
   12.1400    8.0104   -2.4045 C   0  0  0  0  0  0  0  0  0  0  0  0
   12.0771    9.1937   -3.0332 N   0  0  0  0  0  0  0  0  0  0  0  0
   11.6386   10.2012   -4.8276 H   0  0  0  0  0  0  0  0  0  0  0  0
   11.1661    5.9373   -4.8491 H   0  0  0  0  0  0  0  0  0  0  0  0
   12.4521    7.9489   -1.3615 H   0  0  0  0  0  0  0  0  0  0  0  0
   10.9463    8.0650   -6.3285 O   0  0  0  0  0  0  0  0  0  0  0  0
    9.8207    8.7073   -6.8950 C   0  0  1  0  0  0  0  0  0  0  0  0
   10.3145    9.5799   -7.8467 O   0  0  0  0  0  0  0  0  0  0  0  0
    9.3806   10.0893   -8.7106 C   0  0  2  0  0  0  0  0  0  0  0  0
    8.4254   11.0645   -8.0641 C   0  0  0  0  0  0  0  0  0  0  0  0
    7.5460   11.4890   -9.0631 O   0  0  0  0  0  0  0  0  0  0  0  0
    8.5602    9.0413   -9.4175 C   0  0  1  0  0  0  0  0  0  0  0  0
    8.6205    9.1849  -10.8168 O   0  0  0  0  0  0  0  0  0  0  0  0
    9.0645    7.6785   -8.9937 C   0  0  2  0  0  0  0  0  0  0  0  0
    8.2642    6.7063   -9.5872 O   0  0  0  0  0  0  0  0  0  0  0  0
    8.9569    7.6183   -7.4912 C   0  0  2  0  0  0  0  0  0  0  0  0
    7.6278    7.7683   -7.0974 O   0  0  0  0  0  0  0  0  0  0  0  0
    9.2217    9.2835   -6.1904 H   0  0  0  0  0  0  0  0  0  0  0  0
    9.9256   10.6539   -9.4970 H   0  0  0  0  0  0  0  0  0  0  0  0
    7.8321   10.5286   -7.2787 H   0  0  0  0  0  0  0  0  0  0  0  0
    8.9425   11.9089   -7.5779 H   0  0  0  0  0  0  0  0  0  0  0  0
    7.7456   12.4441   -9.3179 H   0  0  0  0  0  0  0  0  0  0  0  0
    7.4835    9.0855   -9.1518 H   0  0  0  0  0  0  0  0  0  0  0  0
    8.8585    8.3065  -11.1972 H   0  0  0  0  0  0  0  0  0  0  0  0
   10.1366    7.5583   -9.2745 H   0  0  0  0  0  0  0  0  0  0  0  0
    8.7152    6.2603  -10.3597 H   0  0  0  0  0  0  0  0  0  0  0  0
    9.2709    6.6004   -7.1605 H   0  0  0  0  0  0  0  0  0  0  0  0
    7.5363    8.3137   -6.2764 H   0  0  0  0  0  0  0  0  0  0  0  0
  1  6  2  0
  2  3  2  0
  2  1  1  0
  3  4  1  0
  4  5  2  0
  6  5  1  0
  1  7  1  0
  3  8  1  0
  5  9  1  0
 10 11  1  0
 11 12  1  0
 12 13  1  0
 13 14  1  0
 14 15  1  0
 13 16  1  0
 16 17  1  0
 16 18  1  0
 18 19  1  0
 18 20  1  0
 20 21  1  0
 20 11  1  0
 11 22  1  1
 13 23  1  6
 14 24  1  0
 14 25  1  0
 15 26  1  0
 16 27  1  1
 17 28  1  0
 18 29  1  1
 19 30  1  0
 20 31  1  1
 21 32  1  0
  2 10  1  0
M  END
>  <Score>  (1) 
-7.44471

$$$$

     RDKit          3D

 29 30  0  0  0  0  0  0  0  0999 V2000
   11.6888    9.2563   -4.3255 C   0  0  0  0  0  0  0  0  0  0  0  0
   11.3438    8.0921   -5.0381 C   0  0  0  0  0  0  0  0  0  0  0  0
   11.4159    6.8668   -4.3643 C   0  0  0  0  0  0  0  0  0  0  0  0
   11.8153    6.8689   -3.0587 N   0  0  0  0  0  0  0  0  0  0  0  0
   12.1399    8.0100   -2.4047 C   0  0  0  0  0  0  0  0  0  0  0  0
   12.0763    9.1938   -3.0356 N   0  0  0  0  0  0  0  0  0  0  0  0
   11.6373   10.2141   -4.8365 H   0  0  0  0  0  0  0  0  0  0  0  0
   11.1759    5.9379   -4.8172 H   0  0  0  0  0  0  0  0  0  0  0  0
   12.4451    7.9243   -1.3759 H   0  0  0  0  0  0  0  0  0  0  0  0
    9.3480    7.9364  -10.8409 H   0  0  0  0  0  0  0  0  0  0  0  0
    9.7746    8.5571  -10.0370 C   0  0  0  0  0  0  0  0  0  0  0  0
   10.8743    7.7995   -9.2778 C   0  0  1  0  0  0  0  0  0  0  0  0
   11.8460    8.7422   -8.7008 C   0  0  0  0  0  0  0  0  0  0  0  0
   11.8125    9.0076   -7.2597 C   0  0  0  0  0  0  0  0  0  0  0  0
   10.9196    8.1302   -6.4391 C   0  0  1  0  0  0  0  0  0  0  0  0
   10.9723    6.7329   -7.0597 C   0  0  0  0  0  0  0  0  0  0  0  0
   10.1985    6.8669   -8.3438 C   0  0  0  0  0  0  0  0  0  0  0  0
   10.1983    9.4941  -10.4312 H   0  0  0  0  0  0  0  0  0  0  0  0
    8.9505    8.8435   -9.3424 H   0  0  0  0  0  0  0  0  0  0  0  0
   11.3653    7.1632  -10.0734 H   0  0  0  0  0  0  0  0  0  0  0  0
   11.7422    9.7280   -9.2469 H   0  0  0  0  0  0  0  0  0  0  0  0
   12.8912    8.4130   -8.9814 H   0  0  0  0  0  0  0  0  0  0  0  0
   11.5015   10.0706   -7.0314 H   0  0  0  0  0  0  0  0  0  0  0  0
   12.8378    8.9326   -6.7879 H   0  0  0  0  0  0  0  0  0  0  0  0
    9.8997    8.5061   -6.5104 H   0  0  0  0  0  0  0  0  0  0  0  0
   12.0181    6.4288   -7.2720 H   0  0  0  0  0  0  0  0  0  0  0  0
   10.4686    5.9906   -6.4187 H   0  0  0  0  0  0  0  0  0  0  0  0
   10.0732    5.8349   -8.7545 H   0  0  0  0  0  0  0  0  0  0  0  0
    9.1798    7.2290   -8.1024 H   0  0  0  0  0  0  0  0  0  0  0  0
  1  6  2  0
  2  3  2  0
  2  1  1  0
  3  4  1  0
  4  5  2  0
  6  5  1  0
  1  7  1  0
  3  8  1  0
  5  9  1  0
 10 11  1  0
 11 12  1  0
 12 13  1  0
 13 14  1  0
 14 15  1  0
 15 16  1  0
 16 17  1  0
 17 12  1  0
 11 18  1  0
 11 19  1  0
 12 20  1  6
 13 21  1  0
 13 22  1  0
 14 23  1  0
 14 24  1  0
 15 25  1  1
 16 26  1  0
 16 27  1  0
 17 28  1  0
 17 29  1  0
  2 15  1  0
M  END
>  <Score>  (1) 
-7.44219

$$$$

     RDKit          3D

 26 28  0  0  0  0  0  0  0  0999 V2000
   11.6870    9.2532   -4.3301 C   0  0  0  0  0  0  0  0  0  0  0  0
   11.3450    8.1003   -5.0375 C   0  0  0  0  0  0  0  0  0  0  0  0
   11.4168    6.8617   -4.3595 C   0  0  0  0  0  0  0  0  0  0  0  0
   11.8141    6.8683   -3.0623 N   0  0  0  0  0  0  0  0  0  0  0  0
   12.1403    8.0125   -2.4045 C   0  0  0  0  0  0  0  0  0  0  0  0
   12.0770    9.1921   -3.0331 N   0  0  0  0  0  0  0  0  0  0  0  0
   11.6382   10.2107   -4.8020 H   0  0  0  0  0  0  0  0  0  0  0  0
   11.1599    5.9549   -4.8752 H   0  0  0  0  0  0  0  0  0  0  0  0
   12.4550    7.9954   -1.3695 H   0  0  0  0  0  0  0  0  0  0  0  0
   10.9454    8.0856   -6.3771 N   0  0  0  0  0  0  0  0  0  0  0  0
   10.0003    8.9908   -7.0552 C   0  0  0  0  0  0  0  0  0  0  0  0
   10.8316    9.2337   -8.3242 C   0  0  0  0  0  0  0  0  0  0  0  0
   11.2936    7.8511   -8.6234 C   0  0  0  0  0  0  0  0  0  0  0  0
   11.6374    7.1889   -9.7883 C   0  0  0  0  0  0  0  0  0  0  0  0
   12.0271    5.8822   -9.7074 C   0  0  0  0  0  0  0  0  0  0  0  0
   12.0941    5.1835   -8.5007 C   0  0  0  0  0  0  0  0  0  0  0  0
   11.7485    5.8567   -7.3500 C   0  0  0  0  0  0  0  0  0  0  0  0
   11.3522    7.1783   -7.4109 C   0  0  0  0  0  0  0  0  0  0  0  0
    9.8533    9.9168   -6.4988 H   0  0  0  0  0  0  0  0  0  0  0  0
    9.0507    8.4882   -7.2856 H   0  0  0  0  0  0  0  0  0  0  0  0
   10.2099    9.6572   -9.1288 H   0  0  0  0  0  0  0  0  0  0  0  0
   11.7074    9.8246   -8.0675 H   0  0  0  0  0  0  0  0  0  0  0  0
   11.5932    7.7137  -10.7446 H   0  0  0  0  0  0  0  0  0  0  0  0
   12.3046    5.3270  -10.5937 H   0  0  0  0  0  0  0  0  0  0  0  0
   12.4100    4.1431   -8.4831 H   0  0  0  0  0  0  0  0  0  0  0  0
   11.7870    5.3358   -6.4083 H   0  0  0  0  0  0  0  0  0  0  0  0
  1  6  2  0
  2  3  2  0
  2  1  1  0
  3  4  1  0
  4  5  2  0
  6  5  1  0
  1  7  1  0
  3  8  1  0
  5  9  1  0
 10 11  1  0
 11 12  1  0
 12 13  1  0
 13 14  2  0
 14 15  1  0
 15 16  2  0
 16 17  1  0
 17 18  2  0
 18 10  1  0
 18 13  1  0
 11 19  1  0
 11 20  1  0
 12 21  1  0
 12 22  1  0
 14 23  1  0
 15 24  1  0
 16 25  1  0
 17 26  1  0
  2 10  1  0
M  END
>  <Score>  (1) 
-7.44203

$$$$

     RDKit          3D

 29 30  0  0  0  0  0  0  0  0999 V2000
   11.6903    9.2593   -4.3217 C   0  0  0  0  0  0  0  0  0  0  0  0
   11.3433    8.0894   -5.0388 C   0  0  0  0  0  0  0  0  0  0  0  0
   11.4154    6.8663   -4.3658 C   0  0  0  0  0  0  0  0  0  0  0  0
   11.8162    6.8713   -3.0564 N   0  0  0  0  0  0  0  0  0  0  0  0
   12.1394    8.0056   -2.4049 C   0  0  0  0  0  0  0  0  0  0  0  0
   12.0754    9.1961   -3.0395 N   0  0  0  0  0  0  0  0  0  0  0  0
   11.6412   10.2158   -4.8243 H   0  0  0  0  0  0  0  0  0  0  0  0
   11.1618    5.9566   -4.8702 H   0  0  0  0  0  0  0  0  0  0  0  0
   12.4518    7.9678   -1.3694 H   0  0  0  0  0  0  0  0  0  0  0  0
   11.8433   10.1945  -10.2129 H   0  0  0  0  0  0  0  0  0  0  0  0
   11.6793    9.1274  -10.4417 C   0  0  0  0  0  0  0  0  0  0  0  0
   10.9358    8.4200   -9.3007 C   0  0  1  0  0  0  0  0  0  0  0  0
   11.8634    7.4459   -8.6687 C   0  0  0  0  0  0  0  0  0  0  0  0
   11.5138    7.0404   -7.2813 C   0  0  0  0  0  0  0  0  0  0  0  0
   10.9186    8.1423   -6.4468 C   0  0  2  0  0  0  0  0  0  0  0  0
   11.2501    9.4509   -7.1200 C   0  0  0  0  0  0  0  0  0  0  0  0
   10.4167    9.4819   -8.3924 C   0  0  0  0  0  0  0  0  0  0  0  0
   12.6733    8.6751  -10.5900 H   0  0  0  0  0  0  0  0  0  0  0  0
   11.1237    9.0414  -11.3808 H   0  0  0  0  0  0  0  0  0  0  0  0
   10.0698    7.8908   -9.7528 H   0  0  0  0  0  0  0  0  0  0  0  0
   12.9318    7.7990   -8.7495 H   0  0  0  0  0  0  0  0  0  0  0  0
   11.8445    6.5101   -9.3023 H   0  0  0  0  0  0  0  0  0  0  0  0
   10.8862    6.1238   -7.2418 H   0  0  0  0  0  0  0  0  0  0  0  0
   12.4775    6.7489   -6.7690 H   0  0  0  0  0  0  0  0  0  0  0  0
    9.8068    7.9865   -6.4648 H   0  0  0  0  0  0  0  0  0  0  0  0
   11.0764   10.3235   -6.4853 H   0  0  0  0  0  0  0  0  0  0  0  0
   12.3238    9.4082   -7.4129 H   0  0  0  0  0  0  0  0  0  0  0  0
   10.4151   10.4887   -8.8544 H   0  0  0  0  0  0  0  0  0  0  0  0
    9.3519    9.2712   -8.1059 H   0  0  0  0  0  0  0  0  0  0  0  0
  1  6  2  0
  2  3  2  0
  2  1  1  0
  3  4  1  0
  4  5  2  0
  6  5  1  0
  1  7  1  0
  3  8  1  0
  5  9  1  0
 10 11  1  0
 11 12  1  0
 12 13  1  0
 13 14  1  0
 14 15  1  0
 15 16  1  0
 16 17  1  0
 17 12  1  0
 11 18  1  0
 11 19  1  0
 12 20  1  6
 13 21  1  0
 13 22  1  0
 14 23  1  0
 14 24  1  0
 15 25  1  1
 16 26  1  0
 16 27  1  0
 17 28  1  0
 17 29  1  0
  2 15  1  0
M  END
>  <Score>  (1) 
-7.44169

$$$$

     RDKit          3D

 20 21  0  0  0  0  0  0  0  0999 V2000
   11.6887    9.2583   -4.3269 C   0  0  0  0  0  0  0  0  0  0  0  0
   11.3436    8.0939   -5.0397 C   0  0  0  0  0  0  0  0  0  0  0  0
   11.4174    6.8667   -4.3588 C   0  0  0  0  0  0  0  0  0  0  0  0
   11.8151    6.8673   -3.0592 N   0  0  0  0  0  0  0  0  0  0  0  0
   12.1390    8.0073   -2.4066 C   0  0  0  0  0  0  0  0  0  0  0  0
   12.0762    9.1946   -3.0359 N   0  0  0  0  0  0  0  0  0  0  0  0
   11.6432   10.2129   -4.8198 H   0  0  0  0  0  0  0  0  0  0  0  0
   11.1793    5.9373   -4.8032 H   0  0  0  0  0  0  0  0  0  0  0  0
   12.4391    7.9091   -1.3814 H   0  0  0  0  0  0  0  0  0  0  0  0
   10.9255    8.1257   -6.4215 C   0  0  0  0  0  0  0  0  0  0  0  0
   11.5210    8.8808   -7.3852 C   0  0  0  0  0  0  0  0  0  0  0  0
   11.1100    8.8977   -8.7030 C   0  0  0  0  0  0  0  0  0  0  0  0
   10.0249    8.0860   -9.0253 C   0  0  0  0  0  0  0  0  0  0  0  0
    9.3807    7.2995   -8.0924 C   0  0  0  0  0  0  0  0  0  0  0  0
    8.0190    6.2866   -8.5202 Cl  0  0  0  0  0  0  0  0  0  0  0  0
    9.8534    7.3400   -6.7982 C   0  0  0  0  0  0  0  0  0  0  0  0
   12.3586    9.5048   -7.1239 H   0  0  0  0  0  0  0  0  0  0  0  0
   11.5810    9.4976   -9.4623 H   0  0  0  0  0  0  0  0  0  0  0  0
    9.6572    8.0586  -10.0452 H   0  0  0  0  0  0  0  0  0  0  0  0
    9.3480    6.7187   -6.0580 H   0  0  0  0  0  0  0  0  0  0  0  0
  1  6  2  0
  2  3  2  0
  2  1  1  0
  3  4  1  0
  4  5  2  0
  6  5  1  0
  1  7  1  0
  3  8  1  0
  5  9  1  0
 10 11  2  0
 11 12  1  0
 12 13  2  0
 13 14  1  0
 14 15  1  0
 14 16  2  0
 16 10  1  0
 11 17  1  0
 12 18  1  0
 13 19  1  0
 16 20  1  0
  2 10  1  0
M  END
>  <Score>  (1) 
-7.43999

$$$$

     RDKit          3D

 22 23  0  0  0  0  0  0  0  0999 V2000
   11.6907    9.2590   -4.3202 C   0  0  0  0  0  0  0  0  0  0  0  0
   11.3437    8.0912   -5.0382 C   0  0  0  0  0  0  0  0  0  0  0  0
   11.4163    6.8649   -4.3622 C   0  0  0  0  0  0  0  0  0  0  0  0
   11.8143    6.8688   -3.0619 N   0  0  0  0  0  0  0  0  0  0  0  0
   12.1405    8.0091   -2.4025 C   0  0  0  0  0  0  0  0  0  0  0  0
   12.0745    9.1950   -3.0420 N   0  0  0  0  0  0  0  0  0  0  0  0
   11.6301   10.1837   -4.8487 H   0  0  0  0  0  0  0  0  0  0  0  0
   11.1604    5.9486   -4.8717 H   0  0  0  0  0  0  0  0  0  0  0  0
   12.4578    7.9974   -1.3617 H   0  0  0  0  0  0  0  0  0  0  0  0
   10.9280    8.1540   -6.4198 C   0  0  0  0  0  0  0  0  0  0  0  0
   10.9128    9.4184   -7.0063 C   0  0  0  0  0  0  0  0  0  0  0  0
   10.5259    9.5561   -8.3239 C   0  0  0  0  0  0  0  0  0  0  0  0
   10.1514    8.4535   -9.0742 C   0  0  0  0  0  0  0  0  0  0  0  0
    9.7492    8.5630  -10.4291 N   0  0  0  0  0  4  0  0  0  0  0  0
    9.4099    7.5856  -11.1106 O   0  0  0  0  0  0  0  0  0  0  0  0
    9.7354    9.8023  -11.0068 O   0  0  0  0  0  1  0  0  0  0  0  0
   10.1579    7.1800   -8.5124 C   0  0  0  0  0  0  0  0  0  0  0  0
   10.5542    7.0968   -7.1878 C   0  0  0  0  0  0  0  0  0  0  0  0
   11.1915   10.3058   -6.4770 H   0  0  0  0  0  0  0  0  0  0  0  0
   10.4956   10.5111   -8.8299 H   0  0  0  0  0  0  0  0  0  0  0  0
    9.8649    6.3316   -9.1047 H   0  0  0  0  0  0  0  0  0  0  0  0
   10.5633    6.1134   -6.7399 H   0  0  0  0  0  0  0  0  0  0  0  0
  1  6  2  0
  2  3  2  0
  2  1  1  0
  3  4  1  0
  4  5  2  0
  6  5  1  0
  1  7  1  0
  3  8  1  0
  5  9  1  0
 10 11  2  0
 11 12  1  0
 12 13  2  0
 13 14  1  0
 14 15  2  0
 14 16  1  0
 13 17  1  0
 17 18  2  0
 18 10  1  0
 11 19  1  0
 12 20  1  0
 17 21  1  0
 18 22  1  0
  2 10  1  0
M  CHG  2  14   1  16  -1
M  END
>  <Score>  (1) 
-7.43568

$$$$

     RDKit          3D

 29 31  0  0  0  0  0  0  0  0999 V2000
   11.6904    9.2585   -4.3210 C   0  0  0  0  0  0  0  0  0  0  0  0
   11.3438    8.0871   -5.0361 C   0  0  0  0  0  0  0  0  0  0  0  0
   11.4146    6.8667   -4.3684 C   0  0  0  0  0  0  0  0  0  0  0  0
   11.8164    6.8746   -3.0570 N   0  0  0  0  0  0  0  0  0  0  0  0
   12.1393    8.0032   -2.4041 C   0  0  0  0  0  0  0  0  0  0  0  0
   12.0753    9.1980   -3.0404 N   0  0  0  0  0  0  0  0  0  0  0  0
   11.6376   10.2129   -4.8349 H   0  0  0  0  0  0  0  0  0  0  0  0
   11.1655    5.9289   -4.8471 H   0  0  0  0  0  0  0  0  0  0  0  0
   12.4423    7.9075   -1.3789 H   0  0  0  0  0  0  0  0  0  0  0  0
   10.9402    8.1540   -6.3788 N   0  0  0  0  0  0  0  0  0  0  0  0
   10.8260    9.3735   -7.1546 C   0  0  2  0  0  0  0  0  0  0  0  0
    9.5748    9.1219   -8.0033 C   0  0  0  0  0  0  0  0  0  0  0  0
    9.2430    7.6581   -7.8275 C   0  0  0  0  0  0  0  0  0  0  0  0
   10.5539    7.1051   -7.2999 C   0  0  1  0  0  0  0  0  0  0  0  0
   11.4924    6.9906   -8.4687 C   0  0  0  0  0  0  0  0  0  0  0  0
   11.9771    8.2813   -9.0087 C   0  0  0  0  0  0  0  0  0  0  0  0
   13.0219    8.1110   -9.4051 H   0  0  0  0  0  0  0  0  0  0  0  0
   12.0614    9.4020   -8.0332 C   0  0  0  0  0  0  0  0  0  0  0  0
   10.6813   10.2755   -6.5652 H   0  0  0  0  0  0  0  0  0  0  0  0
    9.7277    9.3727   -9.0555 H   0  0  0  0  0  0  0  0  0  0  0  0
    8.7225    9.6985   -7.5904 H   0  0  0  0  0  0  0  0  0  0  0  0
    8.4938    7.4941   -7.0153 H   0  0  0  0  0  0  0  0  0  0  0  0
    8.9429    7.1809   -8.7801 H   0  0  0  0  0  0  0  0  0  0  0  0
   10.4381    6.1248   -6.8330 H   0  0  0  0  0  0  0  0  0  0  0  0
   10.9509    6.4514   -9.2751 H   0  0  0  0  0  0  0  0  0  0  0  0
   12.3348    6.2979   -8.1764 H   0  0  0  0  0  0  0  0  0  0  0  0
   11.3999    8.5954   -9.9272 H   0  0  0  0  0  0  0  0  0  0  0  0
   12.9480    9.2374   -7.3884 H   0  0  0  0  0  0  0  0  0  0  0  0
   12.1959   10.3520   -8.5547 H   0  0  0  0  0  0  0  0  0  0  0  0
  1  6  2  0
  2  3  2  0
  2  1  1  0
  3  4  1  0
  4  5  2  0
  6  5  1  0
  1  7  1  0
  3  8  1  0
  5  9  1  0
 10 11  1  0
 11 12  1  0
 12 13  1  0
 13 14  1  0
 14 15  1  0
 15 16  1  0
 16 17  1  0
 16 18  1  0
 14 10  1  0
 18 11  1  0
 11 19  1  1
 12 20  1  0
 12 21  1  0
 13 22  1  0
 13 23  1  0
 14 24  1  1
 15 25  1  0
 15 26  1  0
 16 27  1  0
 18 28  1  0
 18 29  1  0
  2 10  1  0
M  END
>  <Score>  (1) 
-7.43118

$$$$

     RDKit          3D

 28 29  0  0  0  0  0  0  0  0999 V2000
   11.6895    9.2571   -4.3234 C   0  0  0  0  0  0  0  0  0  0  0  0
   11.3433    8.0928   -5.0398 C   0  0  0  0  0  0  0  0  0  0  0  0
   11.4152    6.8649   -4.3658 C   0  0  0  0  0  0  0  0  0  0  0  0
   11.8171    6.8716   -3.0537 N   0  0  0  0  0  0  0  0  0  0  0  0
   12.1385    8.0057   -2.4076 C   0  0  0  0  0  0  0  0  0  0  0  0
   12.0762    9.1959   -3.0367 N   0  0  0  0  0  0  0  0  0  0  0  0
   11.6332   10.2042   -4.8453 H   0  0  0  0  0  0  0  0  0  0  0  0
   11.1619    5.9365   -4.8615 H   0  0  0  0  0  0  0  0  0  0  0  0
   12.4484    7.9473   -1.3738 H   0  0  0  0  0  0  0  0  0  0  0  0
   10.9238    8.1491   -6.4271 C   0  0  0  0  0  0  0  0  0  0  0  0
   10.0577    7.1644   -6.8696 C   0  0  0  0  0  0  0  0  0  0  0  0
    9.6256    7.1708   -8.1790 C   0  0  0  0  0  0  0  0  0  0  0  0
    8.7578    6.1672   -8.5845 O   0  0  0  0  0  0  0  0  0  0  0  0
    8.2548    6.0797   -9.9012 C   0  0  0  0  0  0  0  0  0  0  0  0
   10.0710    8.1589   -9.0053 C   0  0  0  0  0  0  0  0  0  0  0  0
   10.9376    9.1659   -8.6104 C   0  0  0  0  0  0  0  0  0  0  0  0
   11.3397   10.1331   -9.5212 O   0  0  0  0  0  0  0  0  0  0  0  0
   12.2168   11.1766   -9.1791 C   0  0  0  0  0  0  0  0  0  0  0  0
   11.3537    9.1353   -7.2959 C   0  0  0  0  0  0  0  0  0  0  0  0
    9.7250    6.3955   -6.1861 H   0  0  0  0  0  0  0  0  0  0  0  0
    9.1167    6.1342  -10.5900 H   0  0  0  0  0  0  0  0  0  0  0  0
    7.5084    6.8891  -10.0924 H   0  0  0  0  0  0  0  0  0  0  0  0
    7.7146    5.1211  -10.0188 H   0  0  0  0  0  0  0  0  0  0  0  0
    9.7356    8.1694  -10.0331 H   0  0  0  0  0  0  0  0  0  0  0  0
   12.9781   10.8642   -8.4481 H   0  0  0  0  0  0  0  0  0  0  0  0
   11.6060   12.0109   -8.7425 H   0  0  0  0  0  0  0  0  0  0  0  0
   12.6878   11.6116  -10.1055 H   0  0  0  0  0  0  0  0  0  0  0  0
   12.0196    9.8862   -6.9409 H   0  0  0  0  0  0  0  0  0  0  0  0
  1  6  2  0
  2  3  2  0
  2  1  1  0
  3  4  1  0
  4  5  2  0
  6  5  1  0
  1  7  1  0
  3  8  1  0
  5  9  1  0
 10 11  2  0
 11 12  1  0
 12 13  1  0
 13 14  1  0
 12 15  2  0
 15 16  1  0
 16 17  1  0
 17 18  1  0
 16 19  2  0
 19 10  1  0
 11 20  1  0
 14 21  1  0
 14 22  1  0
 14 23  1  0
 15 24  1  0
 18 25  1  0
 18 26  1  0
 18 27  1  0
 19 28  1  0
  2 10  1  0
M  END
>  <Score>  (1) 
-7.42505

$$$$

     RDKit          3D

 22 23  0  0  0  0  0  0  0  0999 V2000
   12.3020    8.1259   -2.3033 C   0  0  0  0  0  0  0  0  0  0  0  0
   12.0191    6.8837   -2.9192 C   0  0  0  0  0  0  0  0  0  0  0  0
   11.5255    6.9014   -4.2223 C   0  0  0  0  0  0  0  0  0  0  0  0
   11.3485    8.1137   -4.8158 N   0  0  0  0  0  0  0  0  0  0  0  0
   11.6184    9.2733   -4.2254 C   0  0  0  0  0  0  0  0  0  0  0  0
   12.1015    9.2730   -2.9520 N   0  0  0  0  0  0  0  0  0  0  0  0
   12.6855    8.1263   -1.2923 H   0  0  0  0  0  0  0  0  0  0  0  0
   12.1734    5.9494   -2.4147 H   0  0  0  0  0  0  0  0  0  0  0  0
   11.3089    5.9710   -4.6961 H   0  0  0  0  0  0  0  0  0  0  0  0
   11.4410   10.5381   -4.8252 N   0  0  0  0  0  0  0  0  0  0  0  0
   12.4388   11.5139   -5.0615 C   0  0  0  0  0  0  0  0  0  0  0  0
   13.7610   11.3996   -4.7036 C   0  0  0  0  0  0  0  0  0  0  0  0
   14.7165   12.3863   -4.9581 C   0  0  0  0  0  0  0  0  0  0  0  0
   14.3445   13.5468   -5.6003 C   0  0  0  0  0  0  0  0  0  0  0  0
   15.0790   14.3332   -5.8094 H   0  0  0  0  0  0  0  0  0  0  0  0
   13.0334   13.6941   -5.9715 C   0  0  0  0  0  0  0  0  0  0  0  0
   12.6373   14.8157   -6.6005 F   0  0  0  0  0  0  0  0  0  0  0  0
   12.1140   12.7112   -5.7104 C   0  0  0  0  0  0  0  0  0  0  0  0
   10.4556   10.8316   -5.1518 H   0  0  0  0  0  0  0  0  0  0  0  0
   14.1236   10.5326   -4.2027 H   0  0  0  0  0  0  0  0  0  0  0  0
   15.7459   12.2449   -4.6544 H   0  0  0  0  0  0  0  0  0  0  0  0
   11.0802   12.8396   -6.0092 H   0  0  0  0  0  0  0  0  0  0  0  0
  2  1  2  0
  3  2  1  0
  4  3  2  0
  4  5  1  0
  5  6  2  0
  6  1  1  0
  1  7  1  0
  2  8  1  0
  3  9  1  0
 10 11  1  0
 11 12  2  0
 12 13  1  0
 13 14  2  0
 14 15  1  0
 14 16  1  0
 16 17  1  0
 16 18  2  0
 18 11  1  0
 10 19  1  0
 12 20  1  0
 13 21  1  0
 18 22  1  0
  5 10  1  0
M  END
>  <Score>  (1) 
-7.52165

$$$$

     RDKit          3D

 25 27  0  0  0  0  0  0  0  0999 V2000
   11.6897    9.2566   -4.3227 C   0  0  0  0  0  0  0  0  0  0  0  0
   11.3436    8.0910   -5.0382 C   0  0  0  0  0  0  0  0  0  0  0  0
   11.4154    6.8674   -4.3662 C   0  0  0  0  0  0  0  0  0  0  0  0
   11.8164    6.8711   -3.0557 N   0  0  0  0  0  0  0  0  0  0  0  0
   12.1392    8.0061   -2.4056 C   0  0  0  0  0  0  0  0  0  0  0  0
   12.0757    9.1960   -3.0386 N   0  0  0  0  0  0  0  0  0  0  0  0
   11.6370   10.2032   -4.8333 H   0  0  0  0  0  0  0  0  0  0  0  0
   11.1570    5.9820   -4.8951 H   0  0  0  0  0  0  0  0  0  0  0  0
   12.4481    7.9674   -1.3814 H   0  0  0  0  0  0  0  0  0  0  0  0
   10.9414    8.1793   -6.3854 N   0  0  0  0  0  0  0  0  0  0  0  0
   10.5496    9.3992   -7.0473 C   0  0  0  0  0  0  0  0  0  0  0  0
   10.6501    9.0620   -8.4801 C   0  0  0  0  0  0  0  0  0  0  0  0
   10.5909    9.8845   -9.6198 C   0  0  0  0  0  0  0  0  0  0  0  0
   10.7140    9.3111  -10.8629 C   0  0  0  0  0  0  0  0  0  0  0  0
   10.8874    7.9836  -10.9642 N   0  0  0  0  0  0  0  0  0  0  0  0
   10.9498    7.1643   -9.9116 C   0  0  0  0  0  0  0  0  0  0  0  0
   10.8274    7.7188   -8.6247 C   0  0  0  0  0  0  0  0  0  0  0  0
   10.8568    7.0756   -7.3129 C   0  0  0  0  0  0  0  0  0  0  0  0
   11.3352   10.1877   -6.8571 H   0  0  0  0  0  0  0  0  0  0  0  0
    9.5453    9.7584   -6.7515 H   0  0  0  0  0  0  0  0  0  0  0  0
   10.4483   10.9517   -9.4608 H   0  0  0  0  0  0  0  0  0  0  0  0
   10.6683    9.9507  -11.7588 H   0  0  0  0  0  0  0  0  0  0  0  0
   11.0903    6.0883   -9.9891 H   0  0  0  0  0  0  0  0  0  0  0  0
   11.6886    6.3547   -7.1878 H   0  0  0  0  0  0  0  0  0  0  0  0
    9.9003    6.5419   -7.0975 H   0  0  0  0  0  0  0  0  0  0  0  0
  1  6  2  0
  2  3  2  0
  2  1  1  0
  3  4  1  0
  4  5  2  0
  6  5  1  0
  1  7  1  0
  3  8  1  0
  5  9  1  0
 10 11  1  0
 11 12  1  0
 12 13  2  0
 13 14  1  0
 14 15  2  0
 15 16  1  0
 16 17  2  0
 17 18  1  0
 18 10  1  0
 17 12  1  0
 11 19  1  0
 11 20  1  0
 13 21  1  0
 14 22  1  0
 16 23  1  0
 18 24  1  0
 18 25  1  0
  2 10  1  0
M  END
>  <Score>  (1) 
-7.41583

$$$$

     RDKit          3D

 31 32  0  0  0  0  0  0  0  0999 V2000
   11.6892    9.2575   -4.3247 C   0  0  0  0  0  0  0  0  0  0  0  0
   11.3438    8.0929   -5.0384 C   0  0  0  0  0  0  0  0  0  0  0  0
   11.4158    6.8646   -4.3637 C   0  0  0  0  0  0  0  0  0  0  0  0
   11.8155    6.8701   -3.0585 N   0  0  0  0  0  0  0  0  0  0  0  0
   12.1397    8.0087   -2.4050 C   0  0  0  0  0  0  0  0  0  0  0  0
   12.0761    9.1942   -3.0367 N   0  0  0  0  0  0  0  0  0  0  0  0
   11.6208   10.1757   -4.8764 H   0  0  0  0  0  0  0  0  0  0  0  0
   11.1573    5.9820   -4.8938 H   0  0  0  0  0  0  0  0  0  0  0  0
   12.4558    8.0024   -1.3685 H   0  0  0  0  0  0  0  0  0  0  0  0
   10.9174    8.1666   -6.4592 C   0  0  2  0  0  0  0  0  0  0  0  0
    9.6313    7.6469   -6.5273 O   0  0  0  0  0  0  0  0  0  0  0  0
    9.1027    7.6631   -7.8046 C   0  0  1  0  0  0  0  0  0  0  0  0
    8.0269    8.7323   -7.9555 C   0  0  0  0  0  0  0  0  0  0  0  0
    7.0018    8.4699   -7.0527 O   0  0  0  0  0  0  0  0  0  0  0  0
   10.1215    7.8901   -8.8787 C   0  0  2  0  0  0  0  0  0  0  0  0
    9.5224    7.6393  -10.1051 O   0  0  0  0  0  0  0  0  0  0  0  0
   11.2899    6.9509   -8.6176 C   0  0  1  0  0  0  0  0  0  0  0  0
   12.1848    7.0787   -9.6611 O   0  0  0  0  0  0  0  0  0  0  0  0
   11.9007    7.4068   -7.2909 C   0  0  2  0  0  0  0  0  0  0  0  0
   12.4943    6.3495   -6.6223 O   0  0  0  0  0  0  0  0  0  0  0  0
   10.8930    9.2246   -6.7625 H   0  0  0  0  0  0  0  0  0  0  0  0
    8.5902    6.6892   -7.9585 H   0  0  0  0  0  0  0  0  0  0  0  0
    7.6717    8.7192   -8.9963 H   0  0  0  0  0  0  0  0  0  0  0  0
    8.5204    9.7138   -7.7696 H   0  0  0  0  0  0  0  0  0  0  0  0
    6.1808    8.1452   -7.4921 H   0  0  0  0  0  0  0  0  0  0  0  0
   10.4570    8.9604   -8.7822 H   0  0  0  0  0  0  0  0  0  0  0  0
    8.8777    6.8862   -9.9658 H   0  0  0  0  0  0  0  0  0  0  0  0
   10.8994    5.9291   -8.5225 H   0  0  0  0  0  0  0  0  0  0  0  0
   12.8000    6.3137   -9.6911 H   0  0  0  0  0  0  0  0  0  0  0  0
   12.7390    8.1018   -7.5865 H   0  0  0  0  0  0  0  0  0  0  0  0
   13.1123    5.9145   -7.2620 H   0  0  0  0  0  0  0  0  0  0  0  0
  1  6  2  0
  2  3  2  0
  2  1  1  0
  3  4  1  0
  4  5  2  0
  6  5  1  0
  1  7  1  0
  3  8  1  0
  5  9  1  0
 10 11  1  0
 11 12  1  0
 12 13  1  0
 13 14  1  0
 12 15  1  0
 15 16  1  0
 15 17  1  0
 17 18  1  0
 17 19  1  0
 19 20  1  0
 19 10  1  0
 10 21  1  6
 12 22  1  6
 13 23  1  0
 13 24  1  0
 14 25  1  0
 15 26  1  6
 16 27  1  0
 17 28  1  1
 18 29  1  0
 19 30  1  6
 20 31  1  0
  2 10  1  0
M  END
>  <Score>  (1) 
-7.41437

$$$$

     RDKit          3D

 22 23  0  0  0  0  0  0  0  0999 V2000
   11.6895    9.2577   -4.3239 C   0  0  0  0  0  0  0  0  0  0  0  0
   11.3436    8.0925   -5.0387 C   0  0  0  0  0  0  0  0  0  0  0  0
   11.4159    6.8648   -4.3635 C   0  0  0  0  0  0  0  0  0  0  0  0
   11.8154    6.8699   -3.0587 N   0  0  0  0  0  0  0  0  0  0  0  0
   12.1397    8.0083   -2.4049 C   0  0  0  0  0  0  0  0  0  0  0  0
   12.0759    9.1948   -3.0374 N   0  0  0  0  0  0  0  0  0  0  0  0
   11.6269   10.1863   -4.8603 H   0  0  0  0  0  0  0  0  0  0  0  0
   11.1569    5.9640   -4.8890 H   0  0  0  0  0  0  0  0  0  0  0  0
   12.4520    7.9884   -1.3760 H   0  0  0  0  0  0  0  0  0  0  0  0
   10.1817    9.2038  -11.0566 H   0  0  0  0  0  0  0  0  0  0  0  0
    9.7804    8.4125  -10.4479 C   0  0  0  0  0  0  0  0  0  0  0  0
    8.9847    7.5950  -10.9602 O   0  0  0  0  0  0  0  0  0  0  0  0
   10.1931    8.3439   -9.0563 C   0  0  0  0  0  0  0  0  0  0  0  0
    9.6854    7.3241   -8.2439 C   0  0  0  0  0  0  0  0  0  0  0  0
   10.0485    7.2189   -6.9169 C   0  0  0  0  0  0  0  0  0  0  0  0
   10.9289    8.1524   -6.4167 C   0  0  0  0  0  0  0  0  0  0  0  0
   11.4300    9.1573   -7.2147 C   0  0  0  0  0  0  0  0  0  0  0  0
   12.3229   10.0912   -6.6778 O   0  0  0  0  0  0  0  0  0  0  0  0
   13.1924   10.3296   -7.1518 H   0  0  0  0  0  0  0  0  0  0  0  0
   11.0483    9.2215   -8.5035 N   0  0  0  0  0  0  0  0  0  0  0  0
    8.9987    6.6262   -8.7032 H   0  0  0  0  0  0  0  0  0  0  0  0
    9.6391    6.4202   -6.3161 H   0  0  0  0  0  0  0  0  0  0  0  0
  1  6  2  0
  2  3  2  0
  2  1  1  0
  3  4  1  0
  4  5  2  0
  6  5  1  0
  1  7  1  0
  3  8  1  0
  5  9  1  0
 10 11  1  0
 11 12  2  0
 11 13  1  0
 13 14  2  0
 14 15  1  0
 15 16  2  0
 16 17  1  0
 17 18  1  0
 18 19  1  0
 17 20  2  0
 20 13  1  0
 14 21  1  0
 15 22  1  0
  2 16  1  0
M  END
>  <Score>  (1) 
-7.41098

$$$$

     RDKit          3D

 27 28  0  0  0  0  0  0  0  0999 V2000
   11.6890    9.2572   -4.3251 C   0  0  0  0  0  0  0  0  0  0  0  0
   11.3438    8.0940   -5.0388 C   0  0  0  0  0  0  0  0  0  0  0  0
   11.4162    6.8637   -4.3622 C   0  0  0  0  0  0  0  0  0  0  0  0
   11.8150    6.8697   -3.0598 N   0  0  0  0  0  0  0  0  0  0  0  0
   12.1397    8.0094   -2.4050 C   0  0  0  0  0  0  0  0  0  0  0  0
   12.0762    9.1940   -3.0361 N   0  0  0  0  0  0  0  0  0  0  0  0
   11.6533   10.2204   -4.7862 H   0  0  0  0  0  0  0  0  0  0  0  0
   11.1572    5.9721   -4.8908 H   0  0  0  0  0  0  0  0  0  0  0  0
   12.4550    7.9780   -1.3625 H   0  0  0  0  0  0  0  0  0  0  0  0
   10.9181    8.1731   -6.4593 C   0  0  2  0  0  0  0  0  0  0  0  0
    9.5392    7.5969   -6.6809 C   0  0  0  0  0  0  0  0  0  0  0  0
    9.1847    7.8991   -8.1115 C   0  0  0  0  0  0  0  0  0  0  0  0
   10.1090    7.2598   -9.0860 C   0  0  1  0  0  0  0  0  0  0  0  0
    9.9360    7.9383  -10.3176 O   0  0  0  0  0  0  0  0  0  0  0  0
   11.5320    7.2231   -8.7145 C   0  0  0  0  0  0  0  0  0  0  0  0
   11.8866    7.3947   -7.2934 C   0  0  0  0  0  0  0  0  0  0  0  0
   10.9438    9.2252   -6.7513 H   0  0  0  0  0  0  0  0  0  0  0  0
    8.7969    8.1046   -6.0237 H   0  0  0  0  0  0  0  0  0  0  0  0
    9.5668    6.5088   -6.5249 H   0  0  0  0  0  0  0  0  0  0  0  0
    8.1429    7.5734   -8.3004 H   0  0  0  0  0  0  0  0  0  0  0  0
    9.1771    9.0120   -8.2209 H   0  0  0  0  0  0  0  0  0  0  0  0
    9.7129    6.2234   -9.2907 H   0  0  0  0  0  0  0  0  0  0  0  0
   10.8209    7.9686  -10.7596 H   0  0  0  0  0  0  0  0  0  0  0  0
   12.0893    7.9827   -9.3376 H   0  0  0  0  0  0  0  0  0  0  0  0
   11.9635    6.2400   -9.0636 H   0  0  0  0  0  0  0  0  0  0  0  0
   12.0153    6.3957   -6.7917 H   0  0  0  0  0  0  0  0  0  0  0  0
   12.8713    7.9025   -7.2163 H   0  0  0  0  0  0  0  0  0  0  0  0
  1  6  2  0
  2  3  2  0
  2  1  1  0
  3  4  1  0
  4  5  2  0
  6  5  1  0
  1  7  1  0
  3  8  1  0
  5  9  1  0
 10 11  1  0
 11 12  1  0
 12 13  1  0
 13 14  1  0
 13 15  1  0
 15 16  1  0
 16 10  1  0
 10 17  1  6
 11 18  1  0
 11 19  1  0
 12 20  1  0
 12 21  1  0
 13 22  1  6
 14 23  1  0
 15 24  1  0
 15 25  1  0
 16 26  1  0
 16 27  1  0
  2 10  1  0
M  END
>  <Score>  (1) 
-7.40781

$$$$

     RDKit          3D

 27 29  0  0  0  0  0  0  0  0999 V2000
   11.6878    9.2485   -4.3260 C   0  0  0  0  0  0  0  0  0  0  0  0
   11.3429    8.0975   -5.0427 C   0  0  0  0  0  0  0  0  0  0  0  0
   11.4171    6.8688   -4.3610 C   0  0  0  0  0  0  0  0  0  0  0  0
   11.8156    6.8707   -3.0584 N   0  0  0  0  0  0  0  0  0  0  0  0
   12.1400    8.0090   -2.4040 C   0  0  0  0  0  0  0  0  0  0  0  0
   12.0765    9.1935   -3.0349 N   0  0  0  0  0  0  0  0  0  0  0  0
   11.6250   10.1623   -4.8588 H   0  0  0  0  0  0  0  0  0  0  0  0
   11.1628    5.9404   -4.8611 H   0  0  0  0  0  0  0  0  0  0  0  0
   12.4433    7.8912   -1.3698 H   0  0  0  0  0  0  0  0  0  0  0  0
   10.9191    8.0882   -6.4240 C   0  0  2  0  0  0  0  0  0  0  0  0
   10.0059    9.2730   -6.7901 C   0  0  0  0  0  0  0  0  0  0  0  0
    9.1851    8.6298   -7.8883 C   0  0  1  0  0  0  0  0  0  0  0  0
   10.0493    8.0427   -8.9794 C   0  0  0  0  0  0  0  0  0  0  0  0
   10.6018    6.7254   -8.4111 C   0  0  0  0  0  0  0  0  0  0  0  0
   10.2445    6.8737   -6.9209 C   0  0  2  0  0  0  0  0  0  0  0  0
    8.7966    7.3447   -7.1340 C   0  0  0  0  0  0  0  0  0  0  0  0
   11.8269    8.2672   -7.0740 H   0  0  0  0  0  0  0  0  0  0  0  0
    9.3471    9.4239   -5.9275 H   0  0  0  0  0  0  0  0  0  0  0  0
   10.5722   10.1428   -7.1140 H   0  0  0  0  0  0  0  0  0  0  0  0
    8.3392    9.1987   -8.2220 H   0  0  0  0  0  0  0  0  0  0  0  0
   10.8824    8.7207   -9.2570 H   0  0  0  0  0  0  0  0  0  0  0  0
    9.4011    7.7795   -9.8262 H   0  0  0  0  0  0  0  0  0  0  0  0
   10.0834    5.8551   -8.8330 H   0  0  0  0  0  0  0  0  0  0  0  0
   11.6942    6.6904   -8.4707 H   0  0  0  0  0  0  0  0  0  0  0  0
   10.3297    5.9672   -6.3627 H   0  0  0  0  0  0  0  0  0  0  0  0
    8.2588    7.5347   -6.2152 H   0  0  0  0  0  0  0  0  0  0  0  0
    8.2644    6.6663   -7.8402 H   0  0  0  0  0  0  0  0  0  0  0  0
  1  6  2  0
  2  3  2  0
  2  1  1  0
  3  4  1  0
  4  5  2  0
  6  5  1  0
  1  7  1  0
  3  8  1  0
  5  9  1  0
 10 11  1  0
 11 12  1  0
 12 13  1  0
 13 14  1  0
 14 15  1  0
 15 16  1  0
 15 10  1  0
 16 12  1  0
 10 17  1  6
 11 18  1  0
 11 19  1  0
 12 20  1  6
 13 21  1  0
 13 22  1  0
 14 23  1  0
 14 24  1  0
 15 25  1  1
 16 26  1  0
 16 27  1  0
  2 10  1  0
M  END
>  <Score>  (1) 
-7.40243

$$$$

     RDKit          3D

 32 33  0  0  0  0  0  0  0  0999 V2000
   11.6914    9.2602   -4.3186 C   0  0  0  0  0  0  0  0  0  0  0  0
   11.3423    8.0860   -5.0407 C   0  0  0  0  0  0  0  0  0  0  0  0
   11.4158    6.8693   -4.3656 C   0  0  0  0  0  0  0  0  0  0  0  0
   11.8162    6.8711   -3.0564 N   0  0  0  0  0  0  0  0  0  0  0  0
   12.1395    8.0051   -2.4044 C   0  0  0  0  0  0  0  0  0  0  0  0
   12.0749    9.1963   -3.0412 N   0  0  0  0  0  0  0  0  0  0  0  0
   11.6345   10.2124   -4.8447 H   0  0  0  0  0  0  0  0  0  0  0  0
   11.1615    5.9751   -4.8779 H   0  0  0  0  0  0  0  0  0  0  0  0
   12.4485    7.9447   -1.3720 H   0  0  0  0  0  0  0  0  0  0  0  0
   10.9621    8.2347   -6.3373 O   0  0  0  0  0  0  0  0  0  0  0  0
   11.1318    7.3065   -7.3840 C   0  0  1  0  0  0  0  0  0  0  0  0
    9.8774    6.9268   -7.9157 O   0  0  0  0  0  0  0  0  0  0  0  0
   10.1487    5.8787   -8.7893 C   0  0  1  0  0  0  0  0  0  0  0  0
    8.9153    5.0772   -9.1192 C   0  0  0  0  0  0  0  0  0  0  0  0
    8.4178    4.5588   -7.9336 O   0  0  0  0  0  0  0  0  0  0  0  0
   10.7435    6.4670  -10.0407 C   0  0  1  0  0  0  0  0  0  0  0  0
    9.8026    7.2414  -10.7198 O   0  0  0  0  0  0  0  0  0  0  0  0
   11.9713    7.2588   -9.7516 C   0  0  1  0  0  0  0  0  0  0  0  0
   12.1560    8.1964  -10.7693 O   0  0  0  0  0  0  0  0  0  0  0  0
   11.9685    7.9737   -8.4470 C   0  0  2  0  0  0  0  0  0  0  0  0
   13.2827    8.0204   -7.9454 O   0  0  0  0  0  0  0  0  0  0  0  0
   11.6262    6.3708   -7.0971 H   0  0  0  0  0  0  0  0  0  0  0  0
   10.8829    5.1842   -8.3490 H   0  0  0  0  0  0  0  0  0  0  0  0
    9.2090    4.2535   -9.7729 H   0  0  0  0  0  0  0  0  0  0  0  0
    8.1308    5.7360   -9.5721 H   0  0  0  0  0  0  0  0  0  0  0  0
    8.7827    3.6389   -7.7514 H   0  0  0  0  0  0  0  0  0  0  0  0
   11.0011    5.6113  -10.7289 H   0  0  0  0  0  0  0  0  0  0  0  0
   10.1918    7.4706  -11.6146 H   0  0  0  0  0  0  0  0  0  0  0  0
   12.8613    6.5852   -9.7868 H   0  0  0  0  0  0  0  0  0  0  0  0
   11.6155    9.0075  -10.5316 H   0  0  0  0  0  0  0  0  0  0  0  0
   11.6090    9.0191   -8.5387 H   0  0  0  0  0  0  0  0  0  0  0  0
   13.6707    7.1007   -8.0634 H   0  0  0  0  0  0  0  0  0  0  0  0
  1  6  2  0
  2  3  2  0
  2  1  1  0
  3  4  1  0
  4  5  2  0
  6  5  1  0
  1  7  1  0
  3  8  1  0
  5  9  1  0
 10 11  1  0
 11 12  1  0
 12 13  1  0
 13 14  1  0
 14 15  1  0
 13 16  1  0
 16 17  1  0
 16 18  1  0
 18 19  1  0
 18 20  1  0
 20 21  1  0
 20 11  1  0
 11 22  1  1
 13 23  1  1
 14 24  1  0
 14 25  1  0
 15 26  1  0
 16 27  1  6
 17 28  1  0
 18 29  1  1
 19 30  1  0
 20 31  1  6
 21 32  1  0
  2 10  1  0
M  END
>  <Score>  (1) 
-7.40101

$$$$

     RDKit          3D

 24 26  0  0  0  0  0  0  0  0999 V2000
   11.6877    9.2543   -4.3281 C   0  0  0  0  0  0  0  0  0  0  0  0
   11.3447    8.0980   -5.0376 C   0  0  0  0  0  0  0  0  0  0  0  0
   11.4162    6.8625   -4.3616 C   0  0  0  0  0  0  0  0  0  0  0  0
   11.8147    6.8688   -3.0603 N   0  0  0  0  0  0  0  0  0  0  0  0
   12.1400    8.0108   -2.4048 C   0  0  0  0  0  0  0  0  0  0  0  0
   12.0766    9.1935   -3.0346 N   0  0  0  0  0  0  0  0  0  0  0  0
   11.6478   10.2323   -4.7851 H   0  0  0  0  0  0  0  0  0  0  0  0
   11.1609    5.9385   -4.8662 H   0  0  0  0  0  0  0  0  0  0  0  0
   12.4536    7.9724   -1.3656 H   0  0  0  0  0  0  0  0  0  0  0  0
   10.9336    8.1534   -6.4313 C   0  0  0  0  0  0  0  0  0  0  0  0
    9.7399    8.6380   -6.7287 N   0  0  0  0  0  0  0  0  0  0  0  0
    9.3175    8.7048   -7.9919 C   0  0  0  0  0  0  0  0  0  0  0  0
   10.1053    8.2785   -8.9754 N   0  0  0  0  0  0  0  0  0  0  0  0
   11.2976    7.7931   -8.6910 N   0  0  0  0  0  0  0  0  0  0  0  0
   12.2955    7.2899   -9.4768 C   0  0  0  0  0  0  0  0  0  0  0  0
   12.1642    7.2120  -10.9527 C   0  0  0  0  0  0  0  0  0  0  0  0
   13.3279    6.9138   -8.7070 N   0  0  0  0  0  0  0  0  0  0  0  0
   13.0324    7.1583   -7.4280 C   0  0  0  0  0  0  0  0  0  0  0  0
   13.6310    6.9752   -6.5520 H   0  0  0  0  0  0  0  0  0  0  0  0
   11.7683    7.7060   -7.4210 C   0  0  0  0  0  0  0  0  0  0  0  0
    8.3164    9.1157   -8.1913 H   0  0  0  0  0  0  0  0  0  0  0  0
   11.3416    6.4794  -11.1556 H   0  0  0  0  0  0  0  0  0  0  0  0
   11.7864    8.1844  -11.3781 H   0  0  0  0  0  0  0  0  0  0  0  0
   13.1022    6.9553  -11.4476 H   0  0  0  0  0  0  0  0  0  0  0  0
  1  6  2  0
  2  3  2  0
  2  1  1  0
  3  4  1  0
  4  5  2  0
  6  5  1  0
  1  7  1  0
  3  8  1  0
  5  9  1  0
 10 11  2  0
 11 12  1  0
 12 13  2  0
 13 14  1  0
 14 15  1  0
 15 16  1  0
 15 17  2  0
 17 18  1  0
 18 19  1  0
 18 20  2  0
 20 10  1  0
 20 14  1  0
 12 21  1  0
 16 22  1  0
 16 23  1  0
 16 24  1  0
  2 10  1  0
M  END
>  <Score>  (1) 
-7.40009

$$$$

     RDKit          3D

 23 25  0  0  0  0  0  0  0  0999 V2000
   11.6877    9.2547   -4.3288 C   0  0  0  0  0  0  0  0  0  0  0  0
   11.3445    8.0961   -5.0373 C   0  0  0  0  0  0  0  0  0  0  0  0
   11.4161    6.8643   -4.3628 C   0  0  0  0  0  0  0  0  0  0  0  0
   11.8150    6.8690   -3.0596 N   0  0  0  0  0  0  0  0  0  0  0  0
   12.1399    8.0108   -2.4050 C   0  0  0  0  0  0  0  0  0  0  0  0
   12.0769    9.1931   -3.0335 N   0  0  0  0  0  0  0  0  0  0  0  0
   11.6442   10.2127   -4.8133 H   0  0  0  0  0  0  0  0  0  0  0  0
   11.1646    5.9580   -4.8616 H   0  0  0  0  0  0  0  0  0  0  0  0
   12.4467    7.9339   -1.3740 H   0  0  0  0  0  0  0  0  0  0  0  0
   10.9265    8.1532   -6.4250 C   0  0  0  0  0  0  0  0  0  0  0  0
   10.0429    9.0218   -7.0090 C   0  0  0  0  0  0  0  0  0  0  0  0
    9.9849    8.6766   -8.3103 N   0  0  0  0  0  0  0  0  0  0  0  0
    9.2785    9.1873   -9.3545 C   0  0  0  0  0  0  0  0  0  0  0  0
    9.3643    8.6781  -10.6326 C   0  0  0  0  0  0  0  0  0  0  0  0
   10.1943    7.6057  -10.8904 C   0  0  0  0  0  0  0  0  0  0  0  0
   10.2846    7.1826  -11.8811 H   0  0  0  0  0  0  0  0  0  0  0  0
   10.9033    7.0939   -9.8400 C   0  0  0  0  0  0  0  0  0  0  0  0
   10.7830    7.6430   -8.5664 C   0  0  0  0  0  0  0  0  0  0  0  0
   11.3662    7.3239   -7.3824 N   0  0  0  0  0  0  0  0  0  0  0  0
    9.4895    9.8286   -6.5487 H   0  0  0  0  0  0  0  0  0  0  0  0
    8.6363   10.0187   -9.1498 H   0  0  0  0  0  0  0  0  0  0  0  0
    8.7648    9.1397  -11.4295 H   0  0  0  0  0  0  0  0  0  0  0  0
   11.5680    6.2576   -9.9760 H   0  0  0  0  0  0  0  0  0  0  0  0
  1  6  2  0
  2  3  2  0
  2  1  1  0
  3  4  1  0
  4  5  2  0
  6  5  1  0
  1  7  1  0
  3  8  1  0
  5  9  1  0
 10 11  2  0
 11 12  1  0
 12 13  1  0
 13 14  2  0
 14 15  1  0
 15 16  1  0
 15 17  2  0
 17 18  1  0
 18 19  2  0
 19 10  1  0
 18 12  1  0
 11 20  1  0
 13 21  1  0
 14 22  1  0
 17 23  1  0
  2 10  1  0
M  END
>  <Score>  (1) 
-7.39959

$$$$

     RDKit          3D

 20 21  0  0  0  0  0  0  0  0999 V2000
   11.6901    9.2584   -4.3219 C   0  0  0  0  0  0  0  0  0  0  0  0
   11.3434    8.0916   -5.0393 C   0  0  0  0  0  0  0  0  0  0  0  0
   11.4159    6.8648   -4.3637 C   0  0  0  0  0  0  0  0  0  0  0  0
   11.8157    6.8708   -3.0580 N   0  0  0  0  0  0  0  0  0  0  0  0
   12.1395    8.0065   -2.4047 C   0  0  0  0  0  0  0  0  0  0  0  0
   12.0754    9.1959   -3.0393 N   0  0  0  0  0  0  0  0  0  0  0  0
   11.6243   10.1884   -4.8697 H   0  0  0  0  0  0  0  0  0  0  0  0
   11.1579    5.9634   -4.8853 H   0  0  0  0  0  0  0  0  0  0  0  0
   12.4513    7.9646   -1.3700 H   0  0  0  0  0  0  0  0  0  0  0  0
   10.9277    8.1505   -6.4200 C   0  0  0  0  0  0  0  0  0  0  0  0
    9.8348    7.4268   -6.8318 C   0  0  0  0  0  0  0  0  0  0  0  0
    9.3939    7.4514   -8.1577 C   0  0  0  0  0  0  0  0  0  0  0  0
   10.1071    8.2361   -9.0338 C   0  0  0  0  0  0  0  0  0  0  0  0
   11.2036    8.9615   -8.6181 C   0  0  0  0  0  0  0  0  0  0  0  0
   12.1056    9.9574   -9.7393 Cl  0  0  0  0  0  0  0  0  0  0  0  0
   11.6424    8.9353   -7.2927 C   0  0  0  0  0  0  0  0  0  0  0  0
   12.7263    9.6570   -6.8988 F   0  0  0  0  0  0  0  0  0  0  0  0
    9.2753    6.8114   -6.1454 H   0  0  0  0  0  0  0  0  0  0  0  0
    8.5355    6.8833   -8.4817 H   0  0  0  0  0  0  0  0  0  0  0  0
    9.7917    8.2810  -10.0819 H   0  0  0  0  0  0  0  0  0  0  0  0
  1  6  2  0
  2  3  2  0
  2  1  1  0
  3  4  1  0
  4  5  2  0
  6  5  1  0
  1  7  1  0
  3  8  1  0
  5  9  1  0
 10 11  2  0
 11 12  1  0
 12 13  2  0
 13 14  1  0
 14 15  1  0
 14 16  2  0
 16 17  1  0
 16 10  1  0
 11 18  1  0
 12 19  1  0
 13 20  1  0
  2 10  1  0
M  END
>  <Score>  (1) 
-7.39642

$$$$

     RDKit          3D

 26 27  0  0  0  0  0  0  0  0999 V2000
   11.6881    9.2569   -4.3281 C   0  0  0  0  0  0  0  0  0  0  0  0
   11.3445    8.0923   -5.0355 C   0  0  0  0  0  0  0  0  0  0  0  0
   11.4168    6.8674   -4.3615 C   0  0  0  0  0  0  0  0  0  0  0  0
   11.8146    6.8685   -3.0608 N   0  0  0  0  0  0  0  0  0  0  0  0
   12.1393    8.0080   -2.4059 C   0  0  0  0  0  0  0  0  0  0  0  0
   12.0766    9.1950   -3.0351 N   0  0  0  0  0  0  0  0  0  0  0  0
   11.6516   10.2211   -4.7996 H   0  0  0  0  0  0  0  0  0  0  0  0
   11.1705    5.9330   -4.8334 H   0  0  0  0  0  0  0  0  0  0  0  0
   12.4489    7.9237   -1.3629 H   0  0  0  0  0  0  0  0  0  0  0  0
   10.9268    8.1354   -6.4295 C   0  0  0  0  0  0  0  0  0  0  0  0
   10.0735    7.1717   -6.9304 C   0  0  0  0  0  0  0  0  0  0  0  0
    9.6624    7.1900   -8.2623 C   0  0  0  0  0  0  0  0  0  0  0  0
   10.1126    8.1877   -9.1036 C   0  0  0  0  0  0  0  0  0  0  0  0
   10.9683    9.1544   -8.6017 C   0  0  0  0  0  0  0  0  0  0  0  0
   11.4521   10.2366   -9.5290 C   0  0  0  0  0  0  0  0  0  0  0  0
   11.3716    9.1282   -7.2765 C   0  0  0  0  0  0  0  0  0  0  0  0
   12.2873   10.2091   -6.8283 C   0  0  0  0  0  0  0  0  0  0  0  0
    9.7392    6.4013   -6.2384 H   0  0  0  0  0  0  0  0  0  0  0  0
    9.0044    6.4211   -8.5900 H   0  0  0  0  0  0  0  0  0  0  0  0
    9.8070    8.2254  -10.1485 H   0  0  0  0  0  0  0  0  0  0  0  0
   11.5622    9.7549  -10.5391 H   0  0  0  0  0  0  0  0  0  0  0  0
   10.6945   11.0247   -9.6565 H   0  0  0  0  0  0  0  0  0  0  0  0
   12.4464   10.6043   -9.2486 H   0  0  0  0  0  0  0  0  0  0  0  0
   12.0007   11.1824   -7.3271 H   0  0  0  0  0  0  0  0  0  0  0  0
   13.3370   10.0442   -7.1481 H   0  0  0  0  0  0  0  0  0  0  0  0
   12.2002   10.4280   -5.7447 H   0  0  0  0  0  0  0  0  0  0  0  0
  1  6  2  0
  2  3  2  0
  2  1  1  0
  3  4  1  0
  4  5  2  0
  6  5  1  0
  1  7  1  0
  3  8  1  0
  5  9  1  0
 10 11  2  0
 11 12  1  0
 12 13  2  0
 13 14  1  0
 14 15  1  0
 14 16  2  0
 16 17  1  0
 16 10  1  0
 11 18  1  0
 12 19  1  0
 13 20  1  0
 15 21  1  0
 15 22  1  0
 15 23  1  0
 17 24  1  0
 17 25  1  0
 17 26  1  0
  2 10  1  0
M  END
>  <Score>  (1) 
-7.39453

$$$$

     RDKit          3D

 24 26  0  0  0  0  0  0  0  0999 V2000
   12.3028    8.1241   -2.3010 C   0  0  0  0  0  0  0  0  0  0  0  0
   12.0210    6.8824   -2.9140 C   0  0  0  0  0  0  0  0  0  0  0  0
   11.5246    6.8974   -4.2244 C   0  0  0  0  0  0  0  0  0  0  0  0
   11.3427    8.1092   -4.8307 N   0  0  0  0  0  0  0  0  0  0  0  0
   11.6238    9.2771   -4.2118 C   0  0  0  0  0  0  0  0  0  0  0  0
   12.1002    9.2808   -2.9560 N   0  0  0  0  0  0  0  0  0  0  0  0
   12.6799    8.0569   -1.2998 H   0  0  0  0  0  0  0  0  0  0  0  0
   12.1840    5.9526   -2.3868 H   0  0  0  0  0  0  0  0  0  0  0  0
   11.3075    5.9722   -4.7000 H   0  0  0  0  0  0  0  0  0  0  0  0
   11.4133   10.5531   -4.9001 C   0  0  0  0  0  0  0  0  0  0  0  0
   11.3722   11.8123   -4.3439 C   0  0  0  0  0  0  0  0  0  0  0  0
   11.1592   12.7480   -5.2840 N   0  0  0  0  0  0  0  0  0  0  0  0
   11.0590   12.0978   -6.4711 C   0  0  0  0  0  0  0  0  0  0  0  0
   10.8445   12.5420   -7.7585 C   0  0  0  0  0  0  0  0  0  0  0  0
   10.7753   11.6984   -8.8476 C   0  0  0  0  0  0  0  0  0  0  0  0
   10.9290   10.3437   -8.6347 C   0  0  0  0  0  0  0  0  0  0  0  0
   11.1457    9.8841   -7.3418 C   0  0  0  0  0  0  0  0  0  0  0  0
   11.2146   10.7290   -6.2533 C   0  0  0  0  0  0  0  0  0  0  0  0
   11.4950   12.0180   -3.2927 H   0  0  0  0  0  0  0  0  0  0  0  0
   11.0855   13.7846   -5.1219 H   0  0  0  0  0  0  0  0  0  0  0  0
   10.7254   13.6011   -7.9169 H   0  0  0  0  0  0  0  0  0  0  0  0
   10.6029   12.1118   -9.8442 H   0  0  0  0  0  0  0  0  0  0  0  0
   10.8792    9.6597   -9.4708 H   0  0  0  0  0  0  0  0  0  0  0  0
   11.2658    8.8261   -7.1747 H   0  0  0  0  0  0  0  0  0  0  0  0
  2  1  2  0
  3  2  1  0
  4  3  2  0
  4  5  1  0
  5  6  2  0
  6  1  1  0
  1  7  1  0
  2  8  1  0
  3  9  1  0
 10 11  2  0
 11 12  1  0
 12 13  1  0
 13 14  2  0
 14 15  1  0
 15 16  2  0
 16 17  1  0
 17 18  2  0
 18 10  1  0
 18 13  1  0
 11 19  1  0
 12 20  1  0
 14 21  1  0
 15 22  1  0
 16 23  1  0
 17 24  1  0
  5 10  1  0
M  END
>  <Score>  (1) 
-7.51924

$$$$

     RDKit          3D

 22 24  0  0  0  0  0  0  0  0999 V2000
   11.6903    9.2588   -4.3215 C   0  0  0  0  0  0  0  0  0  0  0  0
   11.3423    8.0825   -5.0394 C   0  0  0  0  0  0  0  0  0  0  0  0
   11.4146    6.8722   -4.3705 C   0  0  0  0  0  0  0  0  0  0  0  0
   11.8174    6.8744   -3.0538 N   0  0  0  0  0  0  0  0  0  0  0  0
   12.1392    8.0049   -2.4053 C   0  0  0  0  0  0  0  0  0  0  0  0
   12.0762    9.1952   -3.0365 N   0  0  0  0  0  0  0  0  0  0  0  0
   11.6251   10.1896   -4.8673 H   0  0  0  0  0  0  0  0  0  0  0  0
   11.1631    5.9665   -4.8693 H   0  0  0  0  0  0  0  0  0  0  0  0
   12.4559    8.0262   -1.3771 H   0  0  0  0  0  0  0  0  0  0  0  0
   10.9358    8.2304   -6.4220 C   0  0  0  0  0  0  0  0  0  0  0  0
    9.6239    8.1226   -6.8038 C   0  0  0  0  0  0  0  0  0  0  0  0
    9.2506    8.2696   -8.1517 C   0  0  0  0  0  0  0  0  0  0  0  0
   10.1784    8.5193   -9.0903 N   0  0  0  0  0  0  0  0  0  0  0  0
   10.0672    8.6928  -10.3952 N   0  0  0  0  0  0  0  0  0  0  0  0
   11.2925    8.9176  -10.9030 C   0  0  0  0  0  0  0  0  0  0  0  0
   12.1684    8.8753   -9.8516 C   0  0  0  0  0  0  0  0  0  0  0  0
   13.2573    9.0196   -9.9167 H   0  0  0  0  0  0  0  0  0  0  0  0
   11.4631    8.6217   -8.6933 C   0  0  0  0  0  0  0  0  0  0  0  0
   11.8303    8.4827   -7.4075 N   0  0  0  0  0  0  0  0  0  0  0  0
    8.8591    7.9217   -6.0647 H   0  0  0  0  0  0  0  0  0  0  0  0
    8.1822    8.1727   -8.3987 H   0  0  0  0  0  0  0  0  0  0  0  0
   11.5445    9.1002  -11.9584 H   0  0  0  0  0  0  0  0  0  0  0  0
  1  6  2  0
  2  3  2  0
  2  1  1  0
  3  4  1  0
  4  5  2  0
  6  5  1  0
  1  7  1  0
  3  8  1  0
  5  9  1  0
 10 11  1  0
 11 12  2  0
 12 13  1  0
 13 14  1  0
 14 15  2  0
 15 16  1  0
 16 17  1  0
 16 18  2  0
 18 19  1  0
 19 10  2  0
 18 13  1  0
 11 20  1  0
 12 21  1  0
 15 22  1  0
  2 10  1  0
M  END
>  <Score>  (1) 
-7.39043

$$$$

     RDKit          3D

 27 29  0  0  0  0  0  0  0  0999 V2000
   11.6917    9.2583   -4.3168 C   0  0  0  0  0  0  0  0  0  0  0  0
   11.3414    8.0846   -5.0433 C   0  0  0  0  0  0  0  0  0  0  0  0
   11.4153    6.8709   -4.3674 C   0  0  0  0  0  0  0  0  0  0  0  0
   11.8172    6.8747   -3.0545 N   0  0  0  0  0  0  0  0  0  0  0  0
   12.1394    8.0051   -2.4047 C   0  0  0  0  0  0  0  0  0  0  0  0
   12.0750    9.1945   -3.0403 N   0  0  0  0  0  0  0  0  0  0  0  0
   11.6395   10.2177   -4.8298 H   0  0  0  0  0  0  0  0  0  0  0  0
   11.1553    5.9839   -4.8824 H   0  0  0  0  0  0  0  0  0  0  0  0
   12.4563    8.0145   -1.3718 H   0  0  0  0  0  0  0  0  0  0  0  0
   10.9201    8.1908   -6.4279 C   0  0  2  0  0  0  0  0  0  0  0  0
   11.2179    7.0220   -7.3025 C   0  0  0  0  0  0  0  0  0  0  0  0
   11.6637    7.6156   -8.6324 C   0  0  2  0  0  0  0  0  0  0  0  0
   13.0722    8.0738   -8.4635 C   0  0  0  0  0  0  0  0  0  0  0  0
   12.9223    9.2781   -7.5307 C   0  0  0  0  0  0  0  0  0  0  0  0
   11.4623    9.3590   -7.2047 C   0  0  1  0  0  0  0  0  0  0  0  0
   10.9156    8.9588   -8.5975 C   0  0  0  0  0  0  0  0  0  0  0  0
    9.7974    8.3539   -6.4333 H   0  0  0  0  0  0  0  0  0  0  0  0
   10.3483    6.3670   -7.4209 H   0  0  0  0  0  0  0  0  0  0  0  0
   12.0766    6.4104   -6.9442 H   0  0  0  0  0  0  0  0  0  0  0  0
   11.4385    7.0192   -9.4902 H   0  0  0  0  0  0  0  0  0  0  0  0
   13.7514    7.3138   -8.0437 H   0  0  0  0  0  0  0  0  0  0  0  0
   13.4355    8.4398   -9.4667 H   0  0  0  0  0  0  0  0  0  0  0  0
   13.1511   10.2203   -8.1102 H   0  0  0  0  0  0  0  0  0  0  0  0
   13.6091    9.2783   -6.6959 H   0  0  0  0  0  0  0  0  0  0  0  0
   11.1085   10.3260   -6.8946 H   0  0  0  0  0  0  0  0  0  0  0  0
    9.8365    8.8178   -8.5595 H   0  0  0  0  0  0  0  0  0  0  0  0
   11.2683    9.6456   -9.3681 H   0  0  0  0  0  0  0  0  0  0  0  0
  1  6  2  0
  2  3  2  0
  2  1  1  0
  3  4  1  0
  4  5  2  0
  6  5  1  0
  1  7  1  0
  3  8  1  0
  5  9  1  0
 10 11  1  0
 11 12  1  0
 12 13  1  0
 13 14  1  0
 14 15  1  0
 15 16  1  0
 15 10  1  0
 16 12  1  0
 10 17  1  1
 11 18  1  0
 11 19  1  0
 12 20  1  6
 13 21  1  0
 13 22  1  0
 14 23  1  0
 14 24  1  0
 15 25  1  1
 16 26  1  0
 16 27  1  0
  2 10  1  0
M  END
>  <Score>  (1) 
-7.38063

$$$$

     RDKit          3D

 21 23  0  0  0  0  0  0  0  0999 V2000
   11.6898    9.2553   -4.3219 C   0  0  0  0  0  0  0  0  0  0  0  0
   11.3431    8.0882   -5.0390 C   0  0  0  0  0  0  0  0  0  0  0  0
   11.4153    6.8715   -4.3679 C   0  0  0  0  0  0  0  0  0  0  0  0
   11.8168    6.8710   -3.0546 N   0  0  0  0  0  0  0  0  0  0  0  0
   12.1395    8.0048   -2.4042 C   0  0  0  0  0  0  0  0  0  0  0  0
   12.0756    9.1971   -3.0393 N   0  0  0  0  0  0  0  0  0  0  0  0
   11.6256   10.1781   -4.8617 H   0  0  0  0  0  0  0  0  0  0  0  0
   11.1699    5.9584   -4.8444 H   0  0  0  0  0  0  0  0  0  0  0  0
   12.4554    8.0052   -1.3710 H   0  0  0  0  0  0  0  0  0  0  0  0
   10.9350    8.1937   -6.4114 C   0  0  0  0  0  0  0  0  0  0  0  0
   11.1439    9.3119   -7.1460 C   0  0  0  0  0  0  0  0  0  0  0  0
   10.7116    9.3226   -8.4757 C   0  0  0  0  0  0  0  0  0  0  0  0
   10.0893    8.2438   -9.0486 C   0  0  0  0  0  0  0  0  0  0  0  0
    9.5707    7.9188  -10.2301 N   0  0  0  0  0  0  0  0  0  0  0  0
    9.0775    6.6859  -10.2207 N   0  0  0  0  0  0  0  0  0  0  0  0
    9.2918    6.2100   -8.9848 C   0  0  0  0  0  0  0  0  0  0  0  0
    9.0027    5.2245   -8.6571 H   0  0  0  0  0  0  0  0  0  0  0  0
    9.9120    7.1542   -8.2530 N   0  0  0  0  0  0  0  0  0  0  0  0
   10.3211    7.1587   -7.0126 N   0  0  0  0  0  0  0  0  0  0  0  0
   11.6154   10.1807   -6.7749 H   0  0  0  0  0  0  0  0  0  0  0  0
   10.8686   10.2065   -9.0812 H   0  0  0  0  0  0  0  0  0  0  0  0
  1  6  2  0
  2  3  2  0
  2  1  1  0
  3  4  1  0
  4  5  2  0
  6  5  1  0
  1  7  1  0
  3  8  1  0
  5  9  1  0
 10 11  1  0
 11 12  2  0
 12 13  1  0
 13 14  2  0
 14 15  1  0
 15 16  2  0
 16 17  1  0
 16 18  1  0
 18 19  1  0
 19 10  2  0
 18 13  1  0
 11 20  1  0
 12 21  1  0
  2 10  1  0
M  END
>  <Score>  (1) 
-7.37392

$$$$

     RDKit          3D

 26 27  0  0  0  0  0  0  0  0999 V2000
   11.6888    9.2544   -4.3248 C   0  0  0  0  0  0  0  0  0  0  0  0
   11.3446    8.0949   -5.0363 C   0  0  0  0  0  0  0  0  0  0  0  0
   11.4156    6.8667   -4.3653 C   0  0  0  0  0  0  0  0  0  0  0  0
   11.8160    6.8699   -3.0568 N   0  0  0  0  0  0  0  0  0  0  0  0
   12.1398    8.0064   -2.4037 C   0  0  0  0  0  0  0  0  0  0  0  0
   12.0752    9.1957   -3.0401 N   0  0  0  0  0  0  0  0  0  0  0  0
   11.6402   10.2226   -4.8298 H   0  0  0  0  0  0  0  0  0  0  0  0
   11.1666    5.9366   -4.8472 H   0  0  0  0  0  0  0  0  0  0  0  0
   12.4560    8.0278   -1.3770 H   0  0  0  0  0  0  0  0  0  0  0  0
   10.9356    8.1305   -6.3869 N   0  0  0  0  0  0  0  0  0  0  0  0
   11.4821    9.3209   -7.5034 S   0  0  0  0  0  6  0  0  0  0  0  0
   11.1154   10.6826   -6.9777 O   0  0  0  0  0  0  0  0  0  0  0  0
   10.7913    9.1064   -8.8203 O   0  0  0  0  0  0  0  0  0  0  0  0
   13.2137    9.2661   -7.7301 C   0  0  0  0  0  0  0  0  0  0  0  0
   14.0640   10.0118   -6.9351 C   0  0  0  0  0  0  0  0  0  0  0  0
   15.4333    9.9833   -7.0969 C   0  0  0  0  0  0  0  0  0  0  0  0
   15.9710    9.1840   -8.0849 C   0  0  0  0  0  0  0  0  0  0  0  0
   17.0295    9.1148   -8.2656 H   0  0  0  0  0  0  0  0  0  0  0  0
   15.1530    8.4164   -8.9087 C   0  0  0  0  0  0  0  0  0  0  0  0
   15.7414    7.5944   -9.9282 C   0  0  0  0  0  0  0  0  0  0  0  0
   16.2321    6.9145  -10.7455 N   0  0  0  0  0  0  0  0  0  0  0  0
   13.7900    8.4801   -8.7061 C   0  0  0  0  0  0  0  0  0  0  0  0
   10.2602    7.3725   -6.6895 H   0  0  0  0  0  0  0  0  0  0  0  0
   13.6527   10.6413   -6.1580 H   0  0  0  0  0  0  0  0  0  0  0  0
   16.1219   10.5589   -6.4862 H   0  0  0  0  0  0  0  0  0  0  0  0
   13.1480    7.8880   -9.3405 H   0  0  0  0  0  0  0  0  0  0  0  0
  1  6  2  0
  2  3  2  0
  2  1  1  0
  3  4  1  0
  4  5  2  0
  6  5  1  0
  1  7  1  0
  3  8  1  0
  5  9  1  0
 10 11  1  0
 11 12  2  0
 11 13  2  0
 11 14  1  0
 14 15  2  0
 15 16  1  0
 16 17  2  0
 17 18  1  0
 17 19  1  0
 19 20  1  0
 20 21  3  0
 19 22  2  0
 22 14  1  0
 10 23  1  0
 15 24  1  0
 16 25  1  0
 22 26  1  0
  2 10  1  0
M  END
>  <Score>  (1) 
-7.36775

$$$$

     RDKit          3D

 20 21  0  0  0  0  0  0  0  0999 V2000
   11.6887    9.2582   -4.3269 C   0  0  0  0  0  0  0  0  0  0  0  0
   11.3442    8.0910   -5.0359 C   0  0  0  0  0  0  0  0  0  0  0  0
   11.4146    6.8667   -4.3685 C   0  0  0  0  0  0  0  0  0  0  0  0
   11.8168    6.8710   -3.0547 N   0  0  0  0  0  0  0  0  0  0  0  0
   12.1393    8.0093   -2.4061 C   0  0  0  0  0  0  0  0  0  0  0  0
   12.0764    9.1918   -3.0349 N   0  0  0  0  0  0  0  0  0  0  0  0
   11.6181   10.1803   -4.8810 H   0  0  0  0  0  0  0  0  0  0  0  0
   11.1621    5.9726   -4.8819 H   0  0  0  0  0  0  0  0  0  0  0  0
   12.4473    7.9037   -1.3612 H   0  0  0  0  0  0  0  0  0  0  0  0
   10.9243    8.1432   -6.4199 C   0  0  0  0  0  0  0  0  0  0  0  0
   11.2078    7.0756   -7.2638 C   0  0  0  0  0  0  0  0  0  0  0  0
   10.8369    7.0661   -8.5748 C   0  0  0  0  0  0  0  0  0  0  0  0
   10.1643    8.1229   -9.1076 C   0  0  0  0  0  0  0  0  0  0  0  0
    9.6655    8.0611  -10.9532 Br  0  0  0  0  0  0  0  0  0  0  0  0
    9.8625    9.2033   -8.3059 C   0  0  0  0  0  0  0  0  0  0  0  0
   10.2435    9.2007   -6.9806 C   0  0  0  0  0  0  0  0  0  0  0  0
   11.7444    6.2273   -6.8497 H   0  0  0  0  0  0  0  0  0  0  0  0
   11.1079    6.1749   -9.1597 H   0  0  0  0  0  0  0  0  0  0  0  0
    9.3241   10.0353   -8.7541 H   0  0  0  0  0  0  0  0  0  0  0  0
    9.9953   10.0587   -6.3711 H   0  0  0  0  0  0  0  0  0  0  0  0
  1  6  2  0
  2  3  2  0
  2  1  1  0
  3  4  1  0
  4  5  2  0
  6  5  1  0
  1  7  1  0
  3  8  1  0
  5  9  1  0
 10 11  2  0
 11 12  1  0
 12 13  2  0
 13 14  1  0
 13 15  1  0
 15 16  2  0
 16 10  1  0
 11 17  1  0
 12 18  1  0
 15 19  1  0
 16 20  1  0
  2 10  1  0
M  END
>  <Score>  (1) 
-7.36561

$$$$

     RDKit          3D

 25 26  0  0  0  0  0  0  0  0999 V2000
   11.6898    9.2585   -4.3232 C   0  0  0  0  0  0  0  0  0  0  0  0
   11.3435    8.0912   -5.0387 C   0  0  0  0  0  0  0  0  0  0  0  0
   11.4156    6.8653   -4.3647 C   0  0  0  0  0  0  0  0  0  0  0  0
   11.8158    6.8710   -3.0576 N   0  0  0  0  0  0  0  0  0  0  0  0
   12.1395    8.0081   -2.4052 C   0  0  0  0  0  0  0  0  0  0  0  0
   12.0757    9.1940   -3.0377 N   0  0  0  0  0  0  0  0  0  0  0  0
   11.6191   10.1826   -4.8844 H   0  0  0  0  0  0  0  0  0  0  0  0
   11.1597    5.9590   -4.8778 H   0  0  0  0  0  0  0  0  0  0  0  0
   12.4434    7.9097   -1.3762 H   0  0  0  0  0  0  0  0  0  0  0  0
   10.9264    8.1347   -6.4189 C   0  0  0  0  0  0  0  0  0  0  0  0
   11.3926    7.2372   -7.3538 C   0  0  0  0  0  0  0  0  0  0  0  0
   11.0189    7.2495   -8.6682 C   0  0  0  0  0  0  0  0  0  0  0  0
   10.1277    8.2009   -9.1116 C   0  0  0  0  0  0  0  0  0  0  0  0
    9.7474    8.2135  -10.4498 O   0  0  0  0  0  0  0  0  0  0  0  0
    9.6319    9.1222   -8.2142 C   0  0  0  0  0  0  0  0  0  0  0  0
    8.7213   10.0877   -8.6866 O   0  0  0  0  0  0  0  0  0  0  0  0
    8.1841   11.0526   -7.8117 C   0  0  0  0  0  0  0  0  0  0  0  0
   10.0254    9.0894   -6.8880 C   0  0  0  0  0  0  0  0  0  0  0  0
   12.0959    6.4870   -7.0019 H   0  0  0  0  0  0  0  0  0  0  0  0
   11.4489    6.4961   -9.3136 H   0  0  0  0  0  0  0  0  0  0  0  0
   10.0731    7.5760  -11.1337 H   0  0  0  0  0  0  0  0  0  0  0  0
    7.7986   11.9173   -8.4207 H   0  0  0  0  0  0  0  0  0  0  0  0
    9.0245   11.4663   -7.2246 H   0  0  0  0  0  0  0  0  0  0  0  0
    7.4274   10.6483   -7.1249 H   0  0  0  0  0  0  0  0  0  0  0  0
    9.6328    9.8108   -6.2004 H   0  0  0  0  0  0  0  0  0  0  0  0
  1  6  2  0
  2  3  2  0
  2  1  1  0
  3  4  1  0
  4  5  2  0
  6  5  1  0
  1  7  1  0
  3  8  1  0
  5  9  1  0
 10 11  2  0
 11 12  1  0
 12 13  2  0
 13 14  1  0
 13 15  1  0
 15 16  1  0
 16 17  1  0
 15 18  2  0
 18 10  1  0
 11 19  1  0
 12 20  1  0
 14 21  1  0
 17 22  1  0
 17 23  1  0
 17 24  1  0
 18 25  1  0
  2 10  1  0
M  END
>  <Score>  (1) 
-7.36334

$$$$

     RDKit          3D

 27 29  0  0  0  0  0  0  0  0999 V2000
   11.6883    9.2524   -4.3259 C   0  0  0  0  0  0  0  0  0  0  0  0
   11.3428    8.0931   -5.0418 C   0  0  0  0  0  0  0  0  0  0  0  0
   11.4173    6.8698   -4.3607 C   0  0  0  0  0  0  0  0  0  0  0  0
   11.8146    6.8687   -3.0609 N   0  0  0  0  0  0  0  0  0  0  0  0
   12.1403    8.0113   -2.4039 C   0  0  0  0  0  0  0  0  0  0  0  0
   12.0768    9.1927   -3.0338 N   0  0  0  0  0  0  0  0  0  0  0  0
   11.6195   10.1686   -4.8783 H   0  0  0  0  0  0  0  0  0  0  0  0
   11.1596    5.9384   -4.8709 H   0  0  0  0  0  0  0  0  0  0  0  0
   12.4475    7.9180   -1.3656 H   0  0  0  0  0  0  0  0  0  0  0  0
   10.9212    8.0989   -6.4228 C   0  0  1  0  0  0  0  0  0  0  0  0
   10.0803    9.3545   -6.7051 C   0  0  0  0  0  0  0  0  0  0  0  0
   10.3426    9.4871   -8.2019 C   0  0  2  0  0  0  0  0  0  0  0  0
   10.1806    8.1636   -8.9042 C   0  0  0  0  0  0  0  0  0  0  0  0
   11.4829    7.3807   -8.6630 C   0  0  0  0  0  0  0  0  0  0  0  0
   12.0024    8.1718   -7.4485 C   0  0  1  0  0  0  0  0  0  0  0  0
   11.8808    9.5600   -8.1088 C   0  0  0  0  0  0  0  0  0  0  0  0
   10.2254    7.2561   -6.6127 H   0  0  0  0  0  0  0  0  0  0  0  0
    9.0387    9.2228   -6.4570 H   0  0  0  0  0  0  0  0  0  0  0  0
   10.6028   10.1844   -6.2131 H   0  0  0  0  0  0  0  0  0  0  0  0
    9.8988   10.3346   -8.6678 H   0  0  0  0  0  0  0  0  0  0  0  0
    9.3718    7.5391   -8.4532 H   0  0  0  0  0  0  0  0  0  0  0  0
    9.9621    8.2691   -9.9639 H   0  0  0  0  0  0  0  0  0  0  0  0
   12.2047    7.5593   -9.4742 H   0  0  0  0  0  0  0  0  0  0  0  0
   11.2950    6.3398   -8.4209 H   0  0  0  0  0  0  0  0  0  0  0  0
   12.9930    7.9175   -7.1522 H   0  0  0  0  0  0  0  0  0  0  0  0
   12.3242    9.5489   -9.1178 H   0  0  0  0  0  0  0  0  0  0  0  0
   12.2127   10.3672   -7.4646 H   0  0  0  0  0  0  0  0  0  0  0  0
  1  6  2  0
  2  3  2  0
  2  1  1  0
  3  4  1  0
  4  5  2  0
  6  5  1  0
  1  7  1  0
  3  8  1  0
  5  9  1  0
 10 11  1  0
 11 12  1  0
 12 13  1  0
 13 14  1  0
 14 15  1  0
 15 16  1  0
 15 10  1  0
 16 12  1  0
 10 17  1  6
 11 18  1  0
 11 19  1  0
 12 20  1  6
 13 21  1  0
 13 22  1  0
 14 23  1  0
 14 24  1  0
 15 25  1  1
 16 26  1  0
 16 27  1  0
  2 10  1  0
M  END
>  <Score>  (1) 
-7.36119

$$$$

     RDKit          3D

 24 26  0  0  0  0  0  0  0  0999 V2000
   11.6892    9.2576   -4.3247 C   0  0  0  0  0  0  0  0  0  0  0  0
   11.3436    8.0933   -5.0389 C   0  0  0  0  0  0  0  0  0  0  0  0
   11.4161    6.8640   -4.3626 C   0  0  0  0  0  0  0  0  0  0  0  0
   11.8152    6.8702   -3.0593 N   0  0  0  0  0  0  0  0  0  0  0  0
   12.1397    8.0090   -2.4049 C   0  0  0  0  0  0  0  0  0  0  0  0
   12.0761    9.1938   -3.0365 N   0  0  0  0  0  0  0  0  0  0  0  0
   11.6174   10.1738   -4.8869 H   0  0  0  0  0  0  0  0  0  0  0  0
   11.1597    5.9435   -4.8722 H   0  0  0  0  0  0  0  0  0  0  0  0
   12.4516    7.9489   -1.3633 H   0  0  0  0  0  0  0  0  0  0  0  0
   10.9393    8.1727   -6.3898 N   0  0  0  0  0  0  0  0  0  0  0  0
   10.7775    9.2951   -7.0997 C   0  0  0  0  0  0  0  0  0  0  0  0
   10.9637   10.4654   -6.6652 O   0  0  0  0  0  0  0  0  0  0  0  0
   10.3887    9.0330   -8.3463 N   0  0  0  0  0  0  0  0  0  0  0  0
   10.2835    7.7064   -8.4884 C   0  0  0  0  0  0  0  0  0  0  0  0
    9.9313    6.8711   -9.5249 C   0  0  0  0  0  0  0  0  0  0  0  0
    9.9260    5.5164   -9.3317 C   0  0  0  0  0  0  0  0  0  0  0  0
   10.2690    4.9731   -8.1119 C   0  0  0  0  0  0  0  0  0  0  0  0
   10.6217    5.8080   -7.0740 C   0  0  0  0  0  0  0  0  0  0  0  0
   10.6351    7.1786   -7.2425 C   0  0  0  0  0  0  0  0  0  0  0  0
   10.1797    9.6922   -9.1406 H   0  0  0  0  0  0  0  0  0  0  0  0
    9.6674    7.3103  -10.4668 H   0  0  0  0  0  0  0  0  0  0  0  0
    9.6528    4.8079  -10.1262 H   0  0  0  0  0  0  0  0  0  0  0  0
   10.2752    3.9095   -7.9261 H   0  0  0  0  0  0  0  0  0  0  0  0
   10.8940    5.3952   -6.1080 H   0  0  0  0  0  0  0  0  0  0  0  0
  1  6  2  0
  2  3  2  0
  2  1  1  0
  3  4  1  0
  4  5  2  0
  6  5  1  0
  1  7  1  0
  3  8  1  0
  5  9  1  0
 10 11  1  0
 11 12  2  0
 11 13  1  0
 13 14  1  0
 14 15  2  0
 15 16  1  0
 16 17  2  0
 17 18  1  0
 18 19  2  0
 19 10  1  0
 19 14  1  0
 13 20  1  0
 15 21  1  0
 16 22  1  0
 17 23  1  0
 18 24  1  0
  2 10  1  0
M  END
>  <Score>  (1) 
-7.3524

$$$$

     RDKit          3D

 31 32  0  0  0  0  0  0  0  0999 V2000
   11.6900    9.2591   -4.3227 C   0  0  0  0  0  0  0  0  0  0  0  0
   11.3433    8.0900   -5.0389 C   0  0  0  0  0  0  0  0  0  0  0  0
   11.4159    6.8660   -4.3640 C   0  0  0  0  0  0  0  0  0  0  0  0
   11.8154    6.8698   -3.0588 N   0  0  0  0  0  0  0  0  0  0  0  0
   12.1397    8.0083   -2.4048 C   0  0  0  0  0  0  0  0  0  0  0  0
   12.0758    9.1947   -3.0378 N   0  0  0  0  0  0  0  0  0  0  0  0
   11.6407   10.2201   -4.8273 H   0  0  0  0  0  0  0  0  0  0  0  0
   11.1678    5.9291   -4.8408 H   0  0  0  0  0  0  0  0  0  0  0  0
   12.4466    7.9209   -1.3696 H   0  0  0  0  0  0  0  0  0  0  0  0
   10.9184    8.1418   -6.4471 C   0  0  2  0  0  0  0  0  0  0  0  0
   11.5474    9.2258   -7.0489 O   0  0  0  0  0  0  0  0  0  0  0  0
   11.3061    9.1736   -8.4189 C   0  0  2  0  0  0  0  0  0  0  0  0
   12.2216   10.1196   -9.1744 C   0  0  0  0  0  0  0  0  0  0  0  0
   13.5352    9.7467   -8.9292 O   0  0  0  0  0  0  0  0  0  0  0  0
    9.8514    9.5420   -8.6213 C   0  0  2  0  0  0  0  0  0  0  0  0
    9.6097   10.7539   -7.9906 O   0  0  0  0  0  0  0  0  0  0  0  0
    9.0305    8.4087   -8.0125 C   0  0  1  0  0  0  0  0  0  0  0  0
    9.3447    7.2563   -8.7362 O   0  0  0  0  0  0  0  0  0  0  0  0
    9.4321    8.1649   -6.5898 C   0  0  2  0  0  0  0  0  0  0  0  0
    8.8069    9.0164   -5.6870 O   0  0  0  0  0  0  0  0  0  0  0  0
   11.2859    7.2053   -6.9329 H   0  0  0  0  0  0  0  0  0  0  0  0
   11.4909    8.1475   -8.8290 H   0  0  0  0  0  0  0  0  0  0  0  0
   12.0607   11.1671   -8.8957 H   0  0  0  0  0  0  0  0  0  0  0  0
   12.0333    9.9570  -10.2512 H   0  0  0  0  0  0  0  0  0  0  0  0
   13.7965    8.9319   -9.4407 H   0  0  0  0  0  0  0  0  0  0  0  0
    9.5898    9.6621   -9.6818 H   0  0  0  0  0  0  0  0  0  0  0  0
    8.6671   11.0265   -8.1329 H   0  0  0  0  0  0  0  0  0  0  0  0
    7.9557    8.6028   -8.1284 H   0  0  0  0  0  0  0  0  0  0  0  0
    9.3910    7.4187   -9.7057 H   0  0  0  0  0  0  0  0  0  0  0  0
    9.0648    7.1283   -6.3294 H   0  0  0  0  0  0  0  0  0  0  0  0
    8.7913    9.9491   -5.9522 H   0  0  0  0  0  0  0  0  0  0  0  0
  1  6  2  0
  2  3  2  0
  2  1  1  0
  3  4  1  0
  4  5  2  0
  6  5  1  0
  1  7  1  0
  3  8  1  0
  5  9  1  0
 10 11  1  0
 11 12  1  0
 12 13  1  0
 13 14  1  0
 12 15  1  0
 15 16  1  0
 15 17  1  0
 17 18  1  0
 17 19  1  0
 19 20  1  0
 19 10  1  0
 10 21  1  6
 12 22  1  6
 13 23  1  0
 13 24  1  0
 14 25  1  0
 15 26  1  6
 16 27  1  0
 17 28  1  1
 18 29  1  0
 19 30  1  1
 20 31  1  0
  2 10  1  0
M  END
>  <Score>  (1) 
-7.34616

$$$$

     RDKit          3D

 21 22  0  0  0  0  0  0  0  0999 V2000
   11.6894    9.2579   -4.3241 C   0  0  0  0  0  0  0  0  0  0  0  0
   11.3436    8.0925   -5.0386 C   0  0  0  0  0  0  0  0  0  0  0  0
   11.4160    6.8647   -4.3633 C   0  0  0  0  0  0  0  0  0  0  0  0
   11.8154    6.8703   -3.0588 N   0  0  0  0  0  0  0  0  0  0  0  0
   12.1397    8.0083   -2.4049 C   0  0  0  0  0  0  0  0  0  0  0  0
   12.0759    9.1943   -3.0372 N   0  0  0  0  0  0  0  0  0  0  0  0
   11.6220   10.1934   -4.8788 H   0  0  0  0  0  0  0  0  0  0  0  0
   11.1561    5.9852   -4.8989 H   0  0  0  0  0  0  0  0  0  0  0  0
   12.4569    7.9981   -1.3637 H   0  0  0  0  0  0  0  0  0  0  0  0
   10.9259    8.1730   -6.4338 C   0  0  0  0  0  0  0  0  0  0  0  0
   10.8677    7.0698   -7.2633 C   0  0  0  0  0  0  0  0  0  0  0  0
   10.4734    7.1394   -8.5837 C   0  0  0  0  0  0  0  0  0  0  0  0
   10.1179    8.3619   -9.1135 C   0  0  0  0  0  0  0  0  0  0  0  0
   10.1637    9.4923   -8.3112 C   0  0  0  0  0  0  0  0  0  0  0  0
   10.5610    9.3969   -6.9951 C   0  0  0  0  0  0  0  0  0  0  0  0
   10.5973   10.5339   -6.2220 O   0  0  0  0  0  0  0  0  0  0  0  0
   11.1554    6.1227   -6.8105 H   0  0  0  0  0  0  0  0  0  0  0  0
   10.4357    6.2543   -9.2184 H   0  0  0  0  0  0  0  0  0  0  0  0
    9.8099    8.3965  -10.1564 H   0  0  0  0  0  0  0  0  0  0  0  0
    9.8742   10.4218   -8.7805 H   0  0  0  0  0  0  0  0  0  0  0  0
   10.3420   11.4116   -6.6029 H   0  0  0  0  0  0  0  0  0  0  0  0
  1  6  2  0
  2  3  2  0
  2  1  1  0
  3  4  1  0
  4  5  2  0
  6  5  1  0
  1  7  1  0
  3  8  1  0
  5  9  1  0
 10 11  2  0
 11 12  1  0
 12 13  2  0
 13 14  1  0
 14 15  2  0
 15 16  1  0
 15 10  1  0
 11 17  1  0
 12 18  1  0
 13 19  1  0
 14 20  1  0
 16 21  1  0
  2 10  1  0
M  END
>  <Score>  (1) 
-7.33596

$$$$

     RDKit          3D

 26 27  0  0  0  0  0  0  0  0999 V2000
   12.3025    8.1241   -2.3016 C   0  0  0  0  0  0  0  0  0  0  0  0
   12.0213    6.8829   -2.9134 C   0  0  0  0  0  0  0  0  0  0  0  0
   11.5243    6.8978   -4.2250 C   0  0  0  0  0  0  0  0  0  0  0  0
   11.3424    8.1086   -4.8313 N   0  0  0  0  0  0  0  0  0  0  0  0
   11.6234    9.2766   -4.2128 C   0  0  0  0  0  0  0  0  0  0  0  0
   12.1010    9.2810   -2.9539 N   0  0  0  0  0  0  0  0  0  0  0  0
   12.6857    8.0669   -1.2855 H   0  0  0  0  0  0  0  0  0  0  0  0
   12.1812    5.9559   -2.3947 H   0  0  0  0  0  0  0  0  0  0  0  0
   11.2936    5.9680   -4.7360 H   0  0  0  0  0  0  0  0  0  0  0  0
   11.4175   10.5824   -4.8921 C   0  0  0  0  0  0  0  0  0  0  0  0
   10.5715   10.4499   -6.1031 C   0  0  0  0  0  0  0  0  0  0  0  0
   11.0862   10.1988   -7.3580 C   0  0  0  0  0  0  0  0  0  0  0  0
   10.2625   10.0807   -8.4711 C   0  0  0  0  0  0  0  0  0  0  0  0
    8.9001   10.2143   -8.3374 C   0  0  0  0  0  0  0  0  0  0  0  0
    8.0325   10.0838   -9.5470 C   0  0  0  0  0  0  0  0  0  0  0  0
    8.3657   10.4651   -7.0944 C   0  0  0  0  0  0  0  0  0  0  0  0
    9.2031   10.5781   -6.0046 C   0  0  0  0  0  0  0  0  0  0  0  0
   10.9071   11.2586   -4.1822 H   0  0  0  0  0  0  0  0  0  0  0  0
   12.3956   11.0707   -5.1247 H   0  0  0  0  0  0  0  0  0  0  0  0
   12.1395   10.0876   -7.5084 H   0  0  0  0  0  0  0  0  0  0  0  0
   10.6545    9.8843   -9.4581 H   0  0  0  0  0  0  0  0  0  0  0  0
    7.0061   10.3480   -9.2637 H   0  0  0  0  0  0  0  0  0  0  0  0
    8.3681   10.7795  -10.3451 H   0  0  0  0  0  0  0  0  0  0  0  0
    8.0512    9.0744   -9.9700 H   0  0  0  0  0  0  0  0  0  0  0  0
    7.2919   10.5713   -6.9841 H   0  0  0  0  0  0  0  0  0  0  0  0
    8.7975   10.7762   -5.0139 H   0  0  0  0  0  0  0  0  0  0  0  0
  2  1  2  0
  3  2  1  0
  4  3  2  0
  4  5  1  0
  5  6  2  0
  6  1  1  0
  1  7  1  0
  2  8  1  0
  3  9  1  0
 10 11  1  0
 11 12  2  0
 12 13  1  0
 13 14  2  0
 14 15  1  0
 14 16  1  0
 16 17  2  0
 17 11  1  0
 10 18  1  0
 10 19  1  0
 12 20  1  0
 13 21  1  0
 15 22  1  0
 15 23  1  0
 15 24  1  0
 16 25  1  0
 17 26  1  0
  5 10  1  0
M  END
>  <Score>  (1) 
-7.51677

$$$$

     RDKit          3D

 25 27  0  0  0  0  0  0  0  0999 V2000
   12.3043    8.1255   -2.2971 C   0  0  0  0  0  0  0  0  0  0  0  0
   12.0196    6.8806   -2.9174 C   0  0  0  0  0  0  0  0  0  0  0  0
   11.5263    6.9064   -4.2208 C   0  0  0  0  0  0  0  0  0  0  0  0
   11.3432    8.1015   -4.8286 N   0  0  0  0  0  0  0  0  0  0  0  0
   11.6267    9.2863   -4.2051 C   0  0  0  0  0  0  0  0  0  0  0  0
   12.0949    9.2706   -2.9690 N   0  0  0  0  0  0  0  0  0  0  0  0
   12.6875    8.0980   -1.2840 H   0  0  0  0  0  0  0  0  0  0  0  0
   12.1873    5.9583   -2.3790 H   0  0  0  0  0  0  0  0  0  0  0  0
   11.3039    5.9698   -4.7091 H   0  0  0  0  0  0  0  0  0  0  0  0
   11.4162   10.4831   -4.9168 N   0  0  0  0  0  0  0  0  0  0  0  0
   11.2250   10.6295   -6.3105 C   0  0  0  0  0  0  0  0  0  0  0  0
   10.7870   11.8606   -6.8219 C   0  0  0  0  0  0  0  0  0  0  0  0
   10.5916   12.0794   -8.1674 C   0  0  0  0  0  0  0  0  0  0  0  0
   10.8224   11.0800   -9.0833 C   0  0  0  0  0  0  0  0  0  0  0  0
   10.7159   11.0205  -10.4196 N   0  0  0  0  0  0  0  0  0  0  0  0
   11.0655    9.7928  -10.8408 N   0  0  0  0  0  0  0  0  0  0  0  0
   11.3922    9.0853   -9.7489 C   0  0  0  0  0  0  0  0  0  0  0  0
   11.2532    9.8564   -8.6247 C   0  0  0  0  0  0  0  0  0  0  0  0
   11.4474    9.6505   -7.2504 C   0  0  0  0  0  0  0  0  0  0  0  0
   11.4014   11.4015   -4.3443 H   0  0  0  0  0  0  0  0  0  0  0  0
   10.6063   12.6456   -6.0811 H   0  0  0  0  0  0  0  0  0  0  0  0
   10.2465   13.0688   -8.5050 H   0  0  0  0  0  0  0  0  0  0  0  0
   10.4143   11.7870  -11.0462 H   0  0  0  0  0  0  0  0  0  0  0  0
   11.7149    8.0632   -9.7613 H   0  0  0  0  0  0  0  0  0  0  0  0
   11.7958    8.6724   -6.9348 H   0  0  0  0  0  0  0  0  0  0  0  0
  2  1  2  0
  3  2  1  0
  4  3  2  0
  4  5  1  0
  5  6  2  0
  6  1  1  0
  1  7  1  0
  2  8  1  0
  3  9  1  0
 10 11  1  0
 11 12  2  0
 12 13  1  0
 13 14  2  0
 14 15  1  0
 15 16  1  0
 16 17  2  0
 17 18  1  0
 18 19  2  0
 19 11  1  0
 18 14  1  0
 10 20  1  0
 12 21  1  0
 13 22  1  0
 15 23  1  0
 17 24  1  0
 19 25  1  0
  5 10  1  0
M  END
>  <Score>  (1) 
-8.32909

$$$$
