Mol: 197_24 - SminaDock
     RDKit          3D

 49 56  0  0  0  0  0  0  0  0999 V2000
    2.3507   -1.2238  -14.0081 H   0  0  0  0  0  0  0  0  0  0  0  0
    2.6776   -0.8655  -14.8848 O   0  0  0  0  0  0  0  0  0  0  0  0
    4.0126   -0.7451  -15.2401 C   0  0  0  0  0  0  0  0  0  0  0  0
    4.6021   -1.5900  -16.0903 N   0  0  0  0  0  0  0  0  0  0  0  0
    5.8880   -1.4972  -16.4508 C   0  0  0  0  0  0  0  0  0  0  0  0
    6.7076   -0.4811  -15.9420 C   0  0  0  0  0  0  0  0  0  0  0  0
    6.1561    0.4116  -15.0655 C   0  0  0  0  0  0  0  0  0  0  0  0
    6.8944    1.4447  -14.5243 C   0  0  0  0  0  0  0  0  0  0  0  0
    6.2940    2.3474  -13.6450 C   0  0  0  0  0  0  0  0  0  0  0  0
    4.9710    2.2290  -13.2932 C   0  0  0  0  0  0  0  0  0  0  0  0
    4.2354    1.1706  -13.8486 C   0  0  0  0  0  0  0  0  0  0  0  0
    4.8001    0.2717  -14.7191 C   0  0  0  0  0  0  0  0  0  0  0  0
    7.0690    3.4923  -13.1845 C   0  0  0  0  0  0  0  0  0  0  0  0
    6.4989    4.3711  -12.2766 C   0  0  0  0  0  0  0  0  0  0  0  0
    7.2262    5.4612  -11.7908 C   0  0  0  0  0  0  0  0  0  0  0  0
    8.5124    5.6922  -12.1935 C   0  0  0  0  0  0  0  0  0  0  0  0
    9.0832    4.8221  -13.0958 C   0  0  0  0  0  0  0  0  0  0  0  0
    8.3747    3.7198  -13.5990 C   0  0  0  0  0  0  0  0  0  0  0  0
    9.0019    2.8386  -14.6117 C   0  0  1  0  0  0  0  0  0  0  0  0
    8.3205    1.5357  -14.7660 C   0  0  0  0  0  0  0  0  0  0  0  0
    9.0173    0.5515  -15.1006 O   0  0  0  0  0  0  0  0  0  0  0  0
    8.8709    3.5593  -15.9656 C   0  0  0  0  0  0  0  0  0  0  0  0
   10.0090    4.3441  -16.1842 O   0  0  0  0  0  0  0  0  0  0  0  0
   11.0059    3.4861  -16.6942 C   0  0  2  0  0  0  0  0  0  0  0  0
   12.2278    4.3288  -16.9457 C   0  0  0  0  0  0  0  0  0  0  0  0
   10.5412    2.9236  -18.0359 C   0  0  0  0  0  0  0  0  0  0  0  0
   11.1980    2.3920  -15.6963 C   0  0  0  0  0  0  0  0  0  0  0  0
   10.4838    2.6252  -14.3887 C   0  0  0  0  0  0  0  0  0  0  0  0
    9.2686    6.8184  -11.6945 N   0  0  0  0  0  0  0  0  0  0  0  0
    9.5893    6.8408  -10.4332 C   0  0  0  0  0  0  0  0  0  0  0  0
    9.2270    5.8274   -9.5819 C   0  0  0  0  0  0  0  0  0  0  0  0
    9.5698    5.8797   -8.2546 C   0  0  0  0  0  0  0  0  0  0  0  0
   10.2824    6.9404   -7.7366 C   0  0  0  0  0  0  0  0  0  0  0  0
   10.6320    7.0035   -6.3944 C   0  0  0  0  0  0  0  0  0  0  0  0
   11.3449    8.0922   -5.9272 C   0  0  0  0  0  0  0  0  0  0  0  0
   11.6935    9.0939   -6.8074 C   0  0  0  0  0  0  0  0  0  0  0  0
   11.3357    9.0105   -8.1369 C   0  0  0  0  0  0  0  0  0  0  0  0
   10.6169    7.9300   -8.6493 C   0  0  0  0  0  0  0  0  0  0  0  0
   10.2807    7.8753   -9.9431 N   0  0  0  0  0  0  0  0  0  0  0  0
   10.5695    8.6648  -10.5848 H   0  0  0  0  0  0  0  0  0  0  0  0
   11.6972    8.1304   -4.5209 C   0  0  0  0  0  0  0  0  0  0  0  0
   12.1109    7.0017   -3.8303 C   0  0  0  0  0  0  0  0  0  0  0  0
   12.4472    7.0348   -2.4986 C   0  0  0  0  0  0  0  0  0  0  0  0
   12.3797    8.2174   -1.8041 C   0  0  0  0  0  0  0  0  0  0  0  0
   11.9702    9.3626   -2.4650 C   0  0  0  0  0  0  0  0  0  0  0  0
   11.6344    9.3119   -3.8090 C   0  0  0  0  0  0  0  0  0  0  0  0
   11.2255   10.5346   -4.4062 N   0  0  0  0  0  0  0  0  0  0  0  0
   11.9563   11.2625   -4.5403 H   0  0  0  0  0  0  0  0  0  0  0  0
   10.2485   10.7350   -4.7105 H   0  0  0  0  0  0  0  0  0  0  0  0
  1  2  1  0
  2  3  1  0
  3  4  2  0
  4  5  1  0
  5  6  2  0
  6  7  1  0
  7  8  2  0
  8  9  1  0
  9 10  2  0
 10 11  1  0
 11 12  2  0
  9 13  1  0
 13 14  2  0
 14 15  1  0
 15 16  2  0
 16 29  1  0
 29 30  2  0
 30 31  1  0
 31 32  2  0
 32 33  1  0
 33 34  2  0
 34 35  1  0
 35 41  1  0
 41 42  2  0
 42 43  1  0
 43 44  2  0
 44 45  1  0
 45 46  2  0
 46 47  1  0
 47 48  1  0
 47 49  1  0
 35 36  2  0
 36 37  1  0
 37 38  2  0
 38 39  1  0
 39 40  1  0
 16 17  1  0
 17 18  2  0
 18 19  1  0
 19 20  1  0
 20 21  2  0
 19 22  1  6
 22 23  1  0
 23 24  1  0
 24 25  1  6
 24 26  1  0
 24 27  1  0
 27 28  1  0
 12  3  1  0
 18 13  1  0
 28 19  1  0
 12  7  1  0
 39 30  1  0
 20  8  1  0
 38 33  1  0
 46 41  1  0
M  END
>  <minimizedAffinity>  (1) 
-18.79461

$$$$
Mol: 119_39 - SminaDock
     RDKit          3D

 47 54  0  0  0  0  0  0  0  0999 V2000
    8.2569    5.1910  -12.4322 C   0  0  0  0  0  0  0  0  0  0  0  0
    7.0035    5.0720  -11.8702 C   0  0  0  0  0  0  0  0  0  0  0  0
    6.0880    4.1356  -12.2583 C   0  0  0  0  0  0  0  0  0  0  0  0
    6.3891    3.2205  -13.2798 C   0  0  0  0  0  0  0  0  0  0  0  0
    7.6482    3.3262  -13.8550 C   0  0  0  0  0  0  0  0  0  0  0  0
    8.5528    4.2945  -13.4343 C   0  0  0  0  0  0  0  0  0  0  0  0
    8.2089    2.5141  -14.8775 N   0  0  0  0  0  0  0  0  0  0  0  0
    9.5545    2.1851  -14.7569 C   0  0  0  0  0  0  0  0  0  0  0  0
   10.2456    2.4397  -13.7564 O   0  0  0  0  0  0  0  0  0  0  0  0
    7.4843    1.9343  -16.0060 C   0  0  0  0  0  0  0  0  0  0  0  0
    6.4425    0.9844  -15.4289 C   0  0  0  0  0  0  0  0  0  0  0  0
    6.4749   -0.2295  -16.0730 C   0  0  0  0  0  0  0  0  0  0  0  0
    5.6296   -1.2478  -15.7036 C   0  0  0  0  0  0  0  0  0  0  0  0
    4.7256   -1.0770  -14.6743 C   0  0  0  0  0  0  0  0  0  0  0  0
    4.7130    0.1422  -14.0492 C   0  0  0  0  0  0  0  0  0  0  0  0
    5.5681    1.2030  -14.4084 C   0  0  0  0  0  0  0  0  0  0  0  0
    5.2466    2.3283  -13.5447 C   0  0  0  0  0  0  0  0  0  0  0  0
   11.3138    7.6502   -6.3148 C   0  0  0  0  0  0  0  0  0  0  0  0
   11.9028    8.4384   -7.2766 C   0  0  0  0  0  0  0  0  0  0  0  0
   11.5919    8.3027   -8.6195 C   0  0  0  0  0  0  0  0  0  0  0  0
   10.6695    7.3613   -9.0502 C   0  0  0  0  0  0  0  0  0  0  0  0
   10.0776    6.5708   -8.0928 C   0  0  0  0  0  0  0  0  0  0  0  0
    9.1521    5.6239   -8.5414 C   0  0  0  0  0  0  0  0  0  0  0  0
    8.8771    5.5176   -9.8557 N   0  0  0  0  0  0  0  0  0  0  0  0
    9.4614    6.2930  -10.7708 C   0  0  0  0  0  0  0  0  0  0  0  0
    9.1940    6.1696  -12.0043 N   0  0  0  0  0  0  0  0  0  0  0  0
   10.3507    7.2068  -10.3629 N   0  0  0  0  0  0  0  0  0  0  0  0
   10.8233    7.8280  -11.0628 H   0  0  0  0  0  0  0  0  0  0  0  0
   10.3874    6.7062   -6.7563 C   0  0  0  0  0  0  0  0  0  0  0  0
   12.3011    8.1495   -2.2255 C   0  0  0  0  0  0  0  0  0  0  0  0
   11.9109    6.8878   -2.6783 C   0  0  0  0  0  0  0  0  0  0  0  0
   11.5930    6.7436   -4.0127 C   0  0  0  0  0  0  0  0  0  0  0  0
   11.6496    7.7985   -4.8987 C   0  0  0  0  0  0  0  0  0  0  0  0
   12.0351    9.0534   -4.4597 C   0  0  0  0  0  0  0  0  0  0  0  0
   12.3506    9.1894   -3.1284 C   0  0  0  0  0  0  0  0  0  0  0  0
   10.2294    1.4989  -15.8496 C   0  0  0  0  0  0  0  0  0  0  0  0
    9.9967    0.1345  -16.0217 C   0  0  0  0  0  0  0  0  0  0  0  0
   10.5960   -0.5805  -17.0220 C   0  0  0  0  0  0  0  0  0  0  0  0
   11.4516    0.0444  -17.8883 C   0  0  0  0  0  0  0  0  0  0  0  0
   12.0649   -0.6835  -18.9113 C   0  0  0  0  0  0  0  0  0  0  0  0
   12.9196   -0.0732  -19.7822 C   0  0  0  0  0  0  0  0  0  0  0  0
   13.1624    1.2444  -19.6392 N   0  0  0  0  0  0  0  0  0  0  0  0
   14.0782    1.8443  -20.5918 C   0  0  0  0  0  0  0  0  0  0  0  0
   12.5769    1.9702  -18.6523 C   0  0  0  0  0  0  0  0  0  0  0  0
   12.8352    3.1815  -18.5654 O   0  0  0  0  0  0  0  0  0  0  0  0
   11.7100    1.3851  -17.7571 C   0  0  0  0  0  0  0  0  0  0  0  0
   11.0907    2.1042  -16.7300 C   0  0  0  0  0  0  0  0  0  0  0  0
 30 31  2  0
 31 32  1  0
 32 33  2  0
 33 18  1  0
 18 19  2  0
 19 20  1  0
 20 21  2  0
 21 22  1  0
 22 23  1  0
 23 24  2  0
 24 25  1  0
 25 26  2  0
 26  1  1  0
  1  2  2  0
  2  3  1  0
  3  4  2  0
  4  5  1  0
  5  6  2  0
  5  7  1  0
  7  8  1  0
  8  9  2  0
  8 36  1  0
 36 37  2  0
 37 38  1  0
 38 39  2  0
 39 40  1  0
 40 41  2  0
 41 42  1  0
 42 43  1  0
 42 44  1  0
 44 45  2  0
 44 46  1  0
 46 47  2  0
  7 10  1  0
 10 11  1  0
 11 12  2  0
 12 13  1  0
 13 14  2  0
 14 15  1  0
 15 16  2  0
 16 17  1  0
 25 27  1  0
 27 28  1  0
 22 29  2  0
 33 34  1  0
 34 35  2  0
 35 30  1  0
 29 18  1  0
 27 21  1  0
  6  1  1  0
 47 36  1  0
 16 11  1  0
 17  4  1  0
 46 39  1  0
M  END
>  <minimizedAffinity>  (2) 
-18.65711

$$$$
Mol: 199_46 - SminaDock
     RDKit          3D

 51 60  0  0  0  0  0  0  0  0999 V2000
    8.0218    4.8060  -12.7760 C   0  0  0  0  0  0  0  0  0  0  0  0
    6.9523    4.1868  -12.1872 C   0  0  0  0  0  0  0  0  0  0  0  0
    6.3516    3.0415  -12.7245 C   0  0  0  0  0  0  0  0  0  0  0  0
    6.8463    2.4873  -13.9138 C   0  0  0  0  0  0  0  0  0  0  0  0
    7.9285    3.0984  -14.5073 C   0  0  0  0  0  0  0  0  0  0  0  0
    8.4882    4.2227  -13.9503 C   0  0  0  0  0  0  0  0  0  0  0  0
    8.5910    2.4171  -15.6667 C   0  0  1  0  0  0  0  0  0  0  0  0
    9.4639    3.2553  -16.3294 O   0  0  0  0  0  0  0  0  0  0  0  0
   10.7800    2.9027  -16.3402 C   0  0  1  0  0  0  0  0  0  0  0  0
   11.0779    1.5059  -16.8664 C   0  0  0  0  0  0  0  0  0  0  0  0
   10.0663    0.5989  -16.2647 C   0  0  0  0  0  0  0  0  0  0  0  0
    9.4197   -0.4909  -16.1514 N   0  0  0  0  0  0  0  0  0  0  0  0
    8.6715   -0.0132  -15.0993 O   0  0  0  0  0  0  0  0  0  0  0  0
    9.3362    1.2144  -15.0926 C   0  0  2  0  0  0  0  0  0  0  0  0
   11.5664    3.9464  -17.0935 C   0  0  0  0  0  0  0  0  0  0  0  0
   11.4308    4.7183  -18.0552 O   0  0  0  0  0  0  0  0  0  0  0  0
   12.6396    3.6944  -16.2003 N   0  0  0  0  0  0  0  0  0  0  0  0
   11.6520    3.3287  -15.2330 C   0  0  0  0  0  0  0  0  0  0  0  0
   11.7012    3.4153  -13.9742 O   0  0  0  0  0  0  0  0  0  0  0  0
    7.5391    1.8294  -16.5252 C   0  0  0  0  0  0  0  0  0  0  0  0
    7.6293    1.9531  -17.8024 O   0  0  0  0  0  0  0  0  0  0  0  0
    6.4298    1.1344  -15.9006 C   0  0  0  0  0  0  0  0  0  0  0  0
    6.0491    1.4526  -14.5859 C   0  0  0  0  0  0  0  0  0  0  0  0
    4.9955    0.8365  -13.9687 C   0  0  0  0  0  0  0  0  0  0  0  0
    4.3087   -0.1158  -14.6804 C   0  0  0  0  0  0  0  0  0  0  0  0
    4.6537   -0.4585  -15.9779 C   0  0  0  0  0  0  0  0  0  0  0  0
    3.9275   -1.4173  -16.6347 C   0  0  0  0  0  0  0  0  0  0  0  0
    4.2679   -1.7564  -17.9138 C   0  0  0  0  0  0  0  0  0  0  0  0
    5.3283   -1.1428  -18.5388 C   0  0  0  0  0  0  0  0  0  0  0  0
    6.0719   -0.1748  -17.8950 C   0  0  0  0  0  0  0  0  0  0  0  0
    5.7420    0.1766  -16.6131 C   0  0  0  0  0  0  0  0  0  0  0  0
   13.6745    3.7489  -16.2269 H   0  0  0  0  0  0  0  0  0  0  0  0
    8.6531    5.9854  -12.3288 N   0  0  0  0  0  0  0  0  0  0  0  0
    8.7981    6.7620  -13.0604 H   0  0  0  0  0  0  0  0  0  0  0  0
   11.0731    7.7559   -6.6328 C   0  0  0  0  0  0  0  0  0  0  0  0
   11.4912    8.6304   -7.6130 C   0  0  0  0  0  0  0  0  0  0  0  0
   11.1130    8.4555   -8.9506 C   0  0  0  0  0  0  0  0  0  0  0  0
   10.3083    7.4027   -9.3385 C   0  0  0  0  0  0  0  0  0  0  0  0
    9.9104    7.2244  -10.6177 N   0  0  0  0  0  0  0  0  0  0  0  0
    9.1146    6.2249  -10.9983 C   0  0  0  0  0  0  0  0  0  0  0  0
    8.7016    5.3542  -10.0213 N   0  0  0  0  0  0  0  0  0  0  0  0
    9.0734    5.4942   -8.7439 C   0  0  0  0  0  0  0  0  0  0  0  0
    9.8935    6.5288   -8.3532 C   0  0  0  0  0  0  0  0  0  0  0  0
   10.2735    6.7109   -7.0392 C   0  0  0  0  0  0  0  0  0  0  0  0
   11.3262   10.3842   -5.4518 C   0  0  0  0  0  0  0  0  0  0  0  0
   11.5470    9.1788   -4.6454 C   0  0  0  0  0  0  0  0  0  0  0  0
   11.8745    9.2598   -3.3054 C   0  0  0  0  0  0  0  0  0  0  0  0
   12.1114    8.1214   -2.5660 C   0  0  0  0  0  0  0  0  0  0  0  0
   12.0273    6.8703   -3.1416 C   0  0  0  0  0  0  0  0  0  0  0  0
   11.7012    6.8084   -4.4704 C   0  0  0  0  0  0  0  0  0  0  0  0
   11.4607    7.9357   -5.2268 C   0  0  0  0  0  0  0  0  0  0  0  0
 45 46  1  0
 46 47  2  0
 47 48  1  0
 48 49  2  0
 49 50  1  0
 50 51  2  0
 51 35  1  0
 35 36  2  0
 36 37  1  0
 37 38  2  0
 38 39  1  0
 39 40  2  0
 40 33  1  0
 33  1  1  0
  1  2  2  0
  2  3  1  0
  3  4  2  0
  4  5  1  0
  5  6  2  0
  5  7  1  0
  7  8  1  6
  8  9  1  0
  9 10  1  6
 10 11  1  0
 11 12  2  0
 12 13  1  0
 14 13  1  6
  9 15  1  0
 15 16  2  0
 15 17  1  0
 17 18  1  0
 18 19  2  0
  7 20  1  0
 20 21  2  0
 20 22  1  0
 22 23  2  0
 23 24  1  0
 24 25  2  0
 25 26  1  0
 26 27  2  0
 27 28  1  0
 28 29  2  0
 29 30  1  0
 30 31  2  0
 40 41  1  0
 41 42  2  0
 42 43  1  0
 43 44  2  0
 51 46  1  0
 44 35  1  0
 43 38  1  0
  6  1  1  0
 14  7  1  0
 31 22  1  0
 23  4  1  0
 31 26  1  0
 18  9  1  0
 14 11  1  0
 33 34  1  0
 17 32  1  0
M  END
>  <minimizedAffinity>  (3) 
-18.74582

$$$$
Mol: 125_37 - SminaDock
     RDKit          3D

 43 50  0  0  0  0  0  0  0  0999 V2000
    9.2175    5.5593  -13.6143 N   0  0  0  0  0  0  0  0  0  0  0  0
    9.5745    6.0136  -12.4720 C   0  0  0  0  0  0  0  0  0  0  0  0
    9.0970    5.5048  -11.3289 N   0  0  0  0  0  0  0  0  0  0  0  0
    9.5161    6.0318  -10.1742 C   0  0  0  0  0  0  0  0  0  0  0  0
    9.0451    5.5321   -8.9921 C   0  0  0  0  0  0  0  0  0  0  0  0
    9.4593    6.0558   -7.7750 C   0  0  0  0  0  0  0  0  0  0  0  0
   10.3477    7.0821   -7.7627 C   0  0  0  0  0  0  0  0  0  0  0  0
   10.8168    7.5794   -8.9485 C   0  0  0  0  0  0  0  0  0  0  0  0
   10.4251    7.0819  -10.1556 C   0  0  0  0  0  0  0  0  0  0  0  0
   10.8627    7.5434  -11.3322 N   0  0  0  0  0  0  0  0  0  0  0  0
   10.4612    7.0374  -12.4690 N   0  0  0  0  0  0  0  0  0  0  0  0
   10.8206    7.4187  -13.3725 H   0  0  0  0  0  0  0  0  0  0  0  0
    4.0425   -0.4682  -14.2961 C   0  0  0  0  0  0  0  0  0  0  0  0
    4.6940   -1.1582  -15.2732 C   0  0  0  0  0  0  0  0  0  0  0  0
    5.8708   -0.6779  -15.7751 C   0  0  0  0  0  0  0  0  0  0  0  0
    6.3986    0.5379  -15.2687 C   0  0  0  0  0  0  0  0  0  0  0  0
    5.7341    1.2138  -14.2923 C   0  0  0  0  0  0  0  0  0  0  0  0
    4.5428    0.7163  -13.7925 C   0  0  0  0  0  0  0  0  0  0  0  0
    6.5092    2.4067  -13.9784 C   0  0  0  0  0  0  0  0  0  0  0  0
    6.2749    3.4351  -13.0509 C   0  0  0  0  0  0  0  0  0  0  0  0
    7.1687    4.4707  -12.9343 C   0  0  0  0  0  0  0  0  0  0  0  0
    8.2887    4.4829  -13.7355 C   0  0  0  0  0  0  0  0  0  0  0  0
    8.5628    3.5037  -14.6555 C   0  0  0  0  0  0  0  0  0  0  0  0
    7.6331    2.4514  -14.7588 C   0  0  0  0  0  0  0  0  0  0  0  0
    7.6261    1.2780  -15.6211 C   0  0  1  0  0  0  0  0  0  0  0  0
    8.7496    0.3957  -15.2197 C   0  0  0  0  0  0  0  0  0  0  0  0
    9.0283    0.4296  -13.9763 O   0  0  0  0  0  0  0  0  0  0  0  0
    9.5781   -0.4842  -15.9590 N   0  0  0  0  0  0  0  0  0  0  0  0
    9.8199   -0.4542  -17.3757 C   0  0  0  0  0  0  0  0  0  0  0  0
   10.4368   -1.4458  -17.8269 O   0  0  0  0  0  0  0  0  0  0  0  0
    9.4308    0.5596  -18.2410 O   0  0  0  0  0  0  0  0  0  0  0  0
    8.8069    1.7736  -17.8215 C   0  0  0  0  0  0  0  0  0  0  0  0
    7.5517    1.5747  -17.0816 C   0  0  0  0  0  0  0  0  0  0  0  0
   10.8017    7.6533   -6.5147 C   0  0  0  0  0  0  0  0  0  0  0  0
   10.8604    9.0111   -6.3613 N   0  0  0  0  0  0  0  0  0  0  0  0
   11.2696    9.5900   -5.2365 C   0  0  0  0  0  0  0  0  0  0  0  0
   11.6660    8.8464   -4.1385 C   0  0  0  0  0  0  0  0  0  0  0  0
   12.0883    9.4292   -2.9775 C   0  0  0  0  0  0  0  0  0  0  0  0
   12.4770    8.6450   -1.9006 C   0  0  0  0  0  0  0  0  0  0  0  0
   12.4354    7.2788   -2.0070 C   0  0  0  0  0  0  0  0  0  0  0  0
   12.0135    6.7050   -3.1669 C   0  0  0  0  0  0  0  0  0  0  0  0
   11.6222    7.4822   -4.2509 C   0  0  0  0  0  0  0  0  0  0  0  0
   11.1927    6.9006   -5.4320 C   0  0  0  0  0  0  0  0  0  0  0  0
 13 14  2  0
 14 15  1  0
 15 16  2  0
 16 17  1  0
 17 18  2  0
 17 19  1  0
 19 20  2  0
 20 21  1  0
 21 22  2  0
 22  1  1  0
  1  2  2  0
  2  3  1  0
  3  4  2  0
  4  5  1  0
  5  6  2  0
  6  7  1  0
  7 34  1  0
 34 35  2  0
 35 36  1  0
 36 37  2  0
 37 38  1  0
 38 39  2  0
 39 40  1  0
 40 41  2  0
 41 42  1  0
 42 43  2  0
  7  8  2  0
  8  9  1  0
  9 10  2  0
 10 11  1  0
 11 12  1  0
 22 23  1  0
 23 24  2  0
 24 25  1  0
 25 26  1  0
 26 27  2  0
 26 28  1  0
 28 29  1  0
 29 30  2  0
 29 31  1  0
 31 32  1  0
 32 33  1  0
 18 13  1  0
 24 19  1  0
 25 33  1  6
 25 16  1  0
 11  2  1  0
  9  4  1  0
 43 34  1  0
 42 37  1  0
M  CHG  1  28  -1
M  END
>  <minimizedAffinity>  (4) 
-18.62251

$$$$
Mol: 199_39 - SminaDock
     RDKit          3D

 41 48  0  0  0  0  0  0  0  0999 V2000
    8.7502    5.9123  -12.3423 C   0  0  0  0  0  0  0  0  0  0  0  0
    9.3640    5.3262  -13.4278 C   0  0  0  0  0  0  0  0  0  0  0  0
    8.7617    4.2202  -14.0251 C   0  0  0  0  0  0  0  0  0  0  0  0
    7.5647    3.7231  -13.5330 C   0  0  0  0  0  0  0  0  0  0  0  0
    6.9452    4.2971  -12.4562 C   0  0  0  0  0  0  0  0  0  0  0  0
    7.5557    5.4146  -11.8521 C   0  0  0  0  0  0  0  0  0  0  0  0
    5.6990    3.5828  -12.1327 C   0  0  0  0  0  0  0  0  0  0  0  0
    5.6135    2.5046  -13.1350 C   0  0  0  0  0  0  0  0  0  0  0  0
    4.6482    1.5006  -13.3405 C   0  0  0  0  0  0  0  0  0  0  0  0
    4.8259    0.6149  -14.3691 C   0  0  0  0  0  0  0  0  0  0  0  0
    5.9266    0.7005  -15.1891 C   0  0  0  0  0  0  0  0  0  0  0  0
    6.8867    1.6976  -14.9843 C   0  0  0  0  0  0  0  0  0  0  0  0
    6.7130    2.5944  -13.9497 C   0  0  0  0  0  0  0  0  0  0  0  0
    6.1209   -0.2414  -16.3031 C   0  0  2  0  0  0  0  0  0  0  0  0
    7.4843   -0.3581  -16.6048 O   0  0  0  0  0  0  0  0  0  0  0  0
    7.5832   -0.5578  -17.9672 C   0  0  0  0  0  0  0  0  0  0  0  0
    6.2043   -0.3516  -18.5258 C   0  0  2  0  0  0  0  0  0  0  0  0
    6.2219    0.5014  -19.7754 C   0  0  0  0  0  0  0  0  0  0  0  0
    5.5211    0.2394  -17.4879 O   0  0  0  0  0  0  0  0  0  0  0  0
    5.5116   -1.5527  -16.0151 C   0  0  0  0  0  0  0  0  0  0  0  0
    5.8232   -2.5969  -16.6949 O   0  0  0  0  0  0  0  0  0  0  0  0
    4.5842   -1.6433  -14.9838 O   0  0  0  0  0  0  0  0  0  0  0  0
    3.8150   -0.4814  -14.6269 C   0  0  0  0  0  0  0  0  0  0  0  0
   11.3109    8.0676   -5.8622 C   0  0  0  0  0  0  0  0  0  0  0  0
   11.4483    9.1920   -6.6442 C   0  0  0  0  0  0  0  0  0  0  0  0
   11.0577    9.1760   -7.9821 C   0  0  0  0  0  0  0  0  0  0  0  0
   10.5237    8.0357   -8.5600 C   0  0  0  0  0  0  0  0  0  0  0  0
   10.3873    6.9085   -7.7727 C   0  0  0  0  0  0  0  0  0  0  0  0
   10.7790    6.9362   -6.4441 C   0  0  0  0  0  0  0  0  0  0  0  0
    9.8528    5.7899   -8.3754 C   0  0  0  0  0  0  0  0  0  0  0  0
    9.4746    5.8135   -9.7146 C   0  0  0  0  0  0  0  0  0  0  0  0
    9.6383    6.9642  -10.4339 C   0  0  0  0  0  0  0  0  0  0  0  0
    9.3076    7.0487  -11.6761 N   0  0  0  0  0  0  0  0  0  0  0  0
   10.1605    8.0601   -9.8480 N   0  0  0  0  0  0  0  0  0  0  0  0
   10.2913    8.9546  -10.3964 H   0  0  0  0  0  0  0  0  0  0  0  0
   12.4585    7.9825   -1.8021 C   0  0  0  0  0  0  0  0  0  0  0  0
   12.4261    9.1704   -2.4986 C   0  0  0  0  0  0  0  0  0  0  0  0
   12.0546    9.2301   -3.8271 C   0  0  0  0  0  0  0  0  0  0  0  0
   11.7123    8.0405   -4.4410 C   0  0  0  0  0  0  0  0  0  0  0  0
   11.7342    6.8294   -3.7692 C   0  0  0  0  0  0  0  0  0  0  0  0
   12.1102    6.8068   -2.4429 C   0  0  0  0  0  0  0  0  0  0  0  0
 36 37  2  0
 37 38  1  0
 38 39  2  0
 39 24  1  0
 24 25  2  0
 25 26  1  0
 26 27  2  0
 27 28  1  0
 28 29  2  0
 28 30  1  0
 30 31  2  0
 31 32  1  0
 32 33  2  0
 33  1  1  0
  1  2  2  0
  2  3  1  0
  3  4  2  0
  4  5  1  0
  5  6  2  0
  5  7  1  0
  7  8  1  0
  8  9  2  0
  9 10  1  0
 10 11  2  0
 11 12  1  0
 12 13  2  0
 11 14  1  0
 14 15  1  6
 15 16  1  0
 16 17  1  0
 17 18  1  6
 17 19  1  0
 14 20  1  0
 20 21  2  0
 20 22  1  0
 22 23  1  0
 32 34  1  0
 34 35  1  0
 39 40  1  0
 40 41  2  0
 41 36  1  0
 29 24  1  0
  6  1  1  0
 13  8  1  0
 19 14  1  0
 34 27  1  0
 13  4  1  0
 23 10  1  0
M  END
>  <minimizedAffinity>  (5) 
-18.51841

$$$$
Mol: 190_62 - SminaDock
     RDKit          3D

 47 54  0  0  0  0  0  0  0  0999 V2000
    8.2140    4.9186  -12.6766 C   0  0  0  0  0  0  0  0  0  0  0  0
    6.9785    4.8286  -12.0818 C   0  0  0  0  0  0  0  0  0  0  0  0
    6.0955    3.8186  -12.3850 C   0  0  0  0  0  0  0  0  0  0  0  0
    6.5017    2.8665  -13.3366 C   0  0  0  0  0  0  0  0  0  0  0  0
    7.7161    2.9300  -13.9405 C   0  0  0  0  0  0  0  0  0  0  0  0
    8.5951    3.9776  -13.6063 C   0  0  0  0  0  0  0  0  0  0  0  0
    7.8471    1.8014  -14.8900 C   0  0  1  0  0  0  0  0  0  0  0  0
    6.5801    1.0635  -14.7628 C   0  0  0  0  0  0  0  0  0  0  0  0
    5.7826    1.6882  -13.8549 C   0  0  0  0  0  0  0  0  0  0  0  0
    4.5262    1.2306  -13.5211 C   0  0  0  0  0  0  0  0  0  0  0  0
    4.0412    0.1010  -14.1166 C   0  0  0  0  0  0  0  0  0  0  0  0
    4.8153   -0.5577  -15.0371 C   0  0  0  0  0  0  0  0  0  0  0  0
    4.6284   -1.6304  -15.7497 O   0  0  0  0  0  0  0  0  0  0  0  0
    5.6763   -1.8735  -16.5019 C   0  0  0  0  0  0  0  0  0  0  0  0
    5.7542   -2.9853  -17.3876 N   0  0  0  0  0  0  0  0  0  0  0  0
    5.6083   -3.9722  -17.0719 H   0  0  0  0  0  0  0  0  0  0  0  0
    5.9637   -2.8424  -18.3982 H   0  0  0  0  0  0  0  0  0  0  0  0
    6.5794   -0.9091  -16.2598 N   0  0  0  0  0  0  0  0  0  0  0  0
    6.0674   -0.0877  -15.3594 C   0  0  0  0  0  0  0  0  0  0  0  0
    8.0716    2.3081  -16.2959 C   0  0  0  0  0  0  0  0  0  0  0  0
    8.8522    1.4248  -17.1969 C   0  0  0  0  0  0  0  0  0  0  0  0
   10.0400    0.7531  -16.5962 C   0  0  2  0  0  0  0  0  0  0  0  0
   11.3414    1.1781  -17.2980 C   0  0  0  0  0  0  0  0  0  0  0  0
    9.8785   -0.6815  -16.7005 N   0  0  1  0  0  0  0  0  0  0  0  0
    9.7094   -1.1497  -15.7829 H   0  0  0  0  0  0  0  0  0  0  0  0
    9.1343   -0.8768  -17.3977 H   0  0  0  0  0  0  0  0  0  0  0  0
   10.7658   -1.0826  -17.1310 H   0  0  0  0  0  0  0  0  0  0  0  0
   10.1977    1.1040  -15.1270 C   0  0  0  0  0  0  0  0  0  0  0  0
    8.9349    0.9102  -14.3714 C   0  0  0  0  0  0  0  0  0  0  0  0
   11.3170    7.7180   -6.6937 C   0  0  0  0  0  0  0  0  0  0  0  0
   11.7790    8.5540   -7.6748 C   0  0  0  0  0  0  0  0  0  0  0  0
   11.4222    8.3747   -9.0179 C   0  0  0  0  0  0  0  0  0  0  0  0
   10.5892    7.3436   -9.3921 C   0  0  0  0  0  0  0  0  0  0  0  0
   10.1160    6.4936   -8.4147 C   0  0  0  0  0  0  0  0  0  0  0  0
   10.4767    6.6807   -7.0849 C   0  0  0  0  0  0  0  0  0  0  0  0
    9.2816    5.4618   -8.7833 C   0  0  0  0  0  0  0  0  0  0  0  0
    8.9510    5.3190  -10.1191 C   0  0  0  0  0  0  0  0  0  0  0  0
    9.4267    6.1707  -11.0903 C   0  0  0  0  0  0  0  0  0  0  0  0
    9.0844    5.9931  -12.3164 N   0  0  0  0  0  0  0  0  0  0  0  0
   10.2361    7.1621  -10.6904 N   0  0  0  0  0  0  0  0  0  0  0  0
   10.6176    7.8313  -11.4105 H   0  0  0  0  0  0  0  0  0  0  0  0
   12.4845    9.1751   -3.5158 C   0  0  0  0  0  0  0  0  0  0  0  0
   12.1685    9.0248   -4.8074 N   0  0  0  0  0  0  0  0  0  0  0  0
   11.6518    7.8555   -5.2746 C   0  0  0  0  0  0  0  0  0  0  0  0
   11.4651    6.8343   -4.3763 C   0  0  0  0  0  0  0  0  0  0  0  0
   11.7840    6.9566   -3.0198 C   0  0  0  0  0  0  0  0  0  0  0  0
   12.3013    8.1566   -2.6052 C   0  0  0  0  0  0  0  0  0  0  0  0
 42 43  2  0
 43 44  1  0
 44 30  1  0
 30 31  2  0
 31 32  1  0
 32 33  2  0
 33 34  1  0
 34 35  2  0
 34 36  1  0
 36 37  2  0
 37 38  1  0
 38 39  2  0
 39  1  1  0
  1  2  2  0
  2  3  1  0
  3  4  2  0
  4  5  1  0
  5  6  2  0
  5  7  1  0
  7  8  1  0
  8  9  2  0
  9 10  1  0
 10 11  2  0
 11 12  1  0
 12 13  1  0
 13 14  1  0
 14 15  1  0
 15 16  1  0
 15 17  1  0
 14 18  2  0
 18 19  1  0
  7 20  1  6
 20 21  1  0
 21 22  1  0
 22 23  1  6
 22 24  1  0
 24 25  1  1
 24 26  1  0
 24 27  1  0
 22 28  1  0
 28 29  1  0
 38 40  1  0
 40 41  1  0
 44 45  2  0
 45 46  1  0
 46 47  2  0
 47 42  1  0
 35 30  1  0
  6  1  1  0
 29  7  1  0
 40 33  1  0
  9  4  1  0
 19 12  2  0
 19  8  1  0
M  CHG  1  24   1
M  END
>  <minimizedAffinity>  (6) 
-18.51442

$$$$
Mol: 193_5 - SminaDock
     RDKit          3D

 44 51  0  0  0  0  0  0  0  0999 V2000
    8.3767   -1.0899  -17.2116 H   0  0  0  0  0  0  0  0  0  0  0  0
    7.7555   -0.5766  -16.6511 O   0  0  0  0  0  0  0  0  0  0  0  0
    6.5128   -0.4016  -17.2899 C   0  0  1  0  0  0  0  0  0  0  0  0
    6.3431   -1.7029  -18.1042 C   0  0  1  0  0  0  0  0  0  0  0  0
    7.5655   -2.1022  -18.6400 O   0  0  0  0  0  0  0  0  0  0  0  0
    7.7052   -1.6522  -19.5053 H   0  0  0  0  0  0  0  0  0  0  0  0
    5.7869   -2.7012  -17.1384 C   0  0  0  0  0  0  0  0  0  0  0  0
    5.7202   -1.9845  -15.7808 C   0  0  0  0  0  0  0  0  0  0  0  0
    5.4444   -0.5609  -16.2695 C   0  0  2  0  0  0  0  0  0  0  0  0
    4.0678   -0.6246  -16.8547 C   0  0  0  0  0  0  0  0  0  0  0  0
    3.8161   -0.3740  -18.0397 O   0  0  0  0  0  0  0  0  0  0  0  0
    3.0749   -0.9948  -15.9428 O   0  0  0  0  0  0  0  0  0  0  0  0
    3.1662   -0.5894  -14.5902 C   0  0  0  0  0  0  0  0  0  0  0  0
    4.2761    0.4080  -14.3792 C   0  0  0  0  0  0  0  0  0  0  0  0
    4.2141    1.3354  -13.3674 C   0  0  0  0  0  0  0  0  0  0  0  0
    5.2020    2.2690  -13.1421 C   0  0  0  0  0  0  0  0  0  0  0  0
    6.2994    2.2654  -13.9750 C   0  0  0  0  0  0  0  0  0  0  0  0
    6.3963    1.3369  -15.0145 C   0  0  0  0  0  0  0  0  0  0  0  0
    5.3907    0.4276  -15.2005 C   0  0  0  0  0  0  0  0  0  0  0  0
    7.1790    3.3227  -13.5386 C   0  0  0  0  0  0  0  0  0  0  0  0
    8.4143    3.7292  -14.0475 C   0  0  0  0  0  0  0  0  0  0  0  0
    9.0774    4.8012  -13.4308 C   0  0  0  0  0  0  0  0  0  0  0  0
    8.5317    5.4418  -12.3513 C   0  0  0  0  0  0  0  0  0  0  0  0
    7.3191    5.0226  -11.8731 C   0  0  0  0  0  0  0  0  0  0  0  0
    6.6285    3.9622  -12.4567 C   0  0  0  0  0  0  0  0  0  0  0  0
    5.3428    3.3512  -12.1229 C   0  0  0  0  0  0  0  0  0  0  0  0
    9.2020    6.5112  -11.7405 N   0  0  0  0  0  0  0  0  0  0  0  0
    9.5357    6.5760  -10.5158 C   0  0  0  0  0  0  0  0  0  0  0  0
    9.2439    5.5421   -9.6638 C   0  0  0  0  0  0  0  0  0  0  0  0
    9.6088    5.6040   -8.3082 C   0  0  0  0  0  0  0  0  0  0  0  0
   10.2675    6.7190   -7.8343 C   0  0  0  0  0  0  0  0  0  0  0  0
   10.6503    6.8347   -6.5125 C   0  0  0  0  0  0  0  0  0  0  0  0
   11.3101    7.9463   -6.0275 C   0  0  0  0  0  0  0  0  0  0  0  0
   11.5790    8.9569   -6.9263 C   0  0  0  0  0  0  0  0  0  0  0  0
   11.1965    8.8446   -8.2540 C   0  0  0  0  0  0  0  0  0  0  0  0
   10.5388    7.7318   -8.7280 C   0  0  0  0  0  0  0  0  0  0  0  0
   10.1741    7.6505  -10.0449 N   0  0  0  0  0  0  0  0  0  0  0  0
   10.4128    8.4503  -10.6507 H   0  0  0  0  0  0  0  0  0  0  0  0
   11.6953    8.0245   -4.6229 C   0  0  0  0  0  0  0  0  0  0  0  0
   11.7199    6.8753   -3.8558 C   0  0  0  0  0  0  0  0  0  0  0  0
   12.0841    6.9329   -2.5185 C   0  0  0  0  0  0  0  0  0  0  0  0
   12.4292    8.1260   -1.9194 C   0  0  0  0  0  0  0  0  0  0  0  0
   12.4112    9.2986   -2.6752 C   0  0  0  0  0  0  0  0  0  0  0  0
   12.0453    9.2014   -3.9955 C   0  0  0  0  0  0  0  0  0  0  0  0
  1  2  1  0
  3  2  1  1
  3  4  1  0
  4  5  1  1
  5  6  1  0
  4  7  1  0
  7  8  1  0
  9  8  1  1
  9 10  1  0
 10 11  2  0
 10 12  1  0
 12 13  1  0
 13 14  1  0
 14 15  2  0
 15 16  1  0
 16 17  2  0
 17 18  1  0
 18 19  2  0
 17 20  1  0
 20 21  2  0
 21 22  1  0
 22 23  2  0
 23 27  1  0
 27 28  2  0
 28 29  1  0
 29 30  2  0
 30 31  1  0
 31 32  2  0
 32 33  1  0
 33 39  1  0
 39 40  2  0
 40 41  1  0
 41 42  2  0
 42 43  1  0
 43 44  2  0
 33 34  2  0
 34 35  1  0
 35 36  2  0
 36 37  1  0
 37 38  1  0
 23 24  1  0
 24 25  2  0
 25 26  1  0
  9  3  1  0
 19 14  1  0
 25 20  1  0
 19  9  1  0
 37 28  1  0
 26 16  1  0
 36 31  1  0
 44 39  1  0
M  END
>  <minimizedAffinity>  (7) 
-18.36121

$$$$
Mol: 199_4 - SminaDock
     RDKit          3D

 44 51  0  0  0  0  0  0  0  0999 V2000
    5.3256   -1.9926  -16.7780 C   0  0  0  0  0  0  0  0  0  0  0  0
    6.3817   -1.4485  -17.3943 N   0  0  0  0  0  0  0  0  0  0  0  0
    6.9546   -0.2920  -16.9482 C   0  0  0  0  0  0  0  0  0  0  0  0
    7.9325    0.1468  -17.5610 O   0  0  0  0  0  0  0  0  0  0  0  0
    6.4140    0.3023  -15.8469 C   0  0  0  0  0  0  0  0  0  0  0  0
    6.9345    1.4521  -15.3363 C   0  0  0  0  0  0  0  0  0  0  0  0
    6.4006    2.0658  -14.1762 C   0  0  0  0  0  0  0  0  0  0  0  0
    5.3198    1.5251  -13.5229 C   0  0  0  0  0  0  0  0  0  0  0  0
    4.8046    0.3673  -14.0605 C   0  0  0  0  0  0  0  0  0  0  0  0
    5.3031   -0.2557  -15.1810 C   0  0  0  0  0  0  0  0  0  0  0  0
    4.7598   -1.4215  -15.6649 C   0  0  0  0  0  0  0  0  0  0  0  0
    7.1461    3.2078  -13.6607 C   0  0  0  0  0  0  0  0  0  0  0  0
    6.5982    3.8940  -12.5696 C   0  0  0  0  0  0  0  0  0  0  0  0
    7.2032    5.0181  -12.0757 C   0  0  0  0  0  0  0  0  0  0  0  0
    8.3711    5.4827  -12.6617 C   0  0  0  0  0  0  0  0  0  0  0  0
    8.9198    4.8156  -13.7346 C   0  0  0  0  0  0  0  0  0  0  0  0
    8.3052    3.6629  -14.2439 C   0  0  0  0  0  0  0  0  0  0  0  0
    8.9556    2.9491  -15.3263 C   0  0  2  0  0  0  0  0  0  0  0  0
    7.9389    2.1992  -16.0764 C   0  0  0  0  0  0  0  0  0  0  0  0
    7.9297    2.2074  -17.3092 O   0  0  0  0  0  0  0  0  0  0  0  0
    9.8798    1.9185  -14.6571 C   0  0  0  0  0  0  0  0  0  0  0  0
   10.8533    1.3184  -15.6072 C   0  0  0  0  0  0  0  0  0  0  0  0
   11.6696    2.2023  -16.2655 O   0  0  0  0  0  0  0  0  0  0  0  0
   11.2965    3.4967  -15.9410 C   0  0  0  0  0  0  0  0  0  0  0  0
    9.8323    3.7595  -16.2198 C   0  0  0  0  0  0  0  0  0  0  0  0
    9.0419    6.6433  -12.1937 N   0  0  0  0  0  0  0  0  0  0  0  0
    9.3866    6.7028  -10.9322 C   0  0  0  0  0  0  0  0  0  0  0  0
    9.1088    5.6832  -10.1007 N   0  0  0  0  0  0  0  0  0  0  0  0
    9.4312    5.6732   -8.7956 C   0  0  0  0  0  0  0  0  0  0  0  0
   10.0878    6.7683   -8.2598 C   0  0  0  0  0  0  0  0  0  0  0  0
   10.4413    6.8108   -6.9306 C   0  0  0  0  0  0  0  0  0  0  0  0
   11.0947    7.9033   -6.4030 C   0  0  0  0  0  0  0  0  0  0  0  0
   11.3791    8.9563   -7.2718 C   0  0  0  0  0  0  0  0  0  0  0  0
   11.0223    8.9054   -8.5987 C   0  0  0  0  0  0  0  0  0  0  0  0
   10.3684    7.8139   -9.1302 C   0  0  0  0  0  0  0  0  0  0  0  0
   10.0213    7.7685  -10.4283 N   0  0  0  0  0  0  0  0  0  0  0  0
   10.2409    8.5658  -11.0694 H   0  0  0  0  0  0  0  0  0  0  0  0
   11.4773    7.9690   -5.0013 C   0  0  0  0  0  0  0  0  0  0  0  0
   11.6668    6.8228   -4.2370 C   0  0  0  0  0  0  0  0  0  0  0  0
   12.0269    6.8841   -2.9176 C   0  0  0  0  0  0  0  0  0  0  0  0
   12.2078    8.1078   -2.3260 C   0  0  0  0  0  0  0  0  0  0  0  0
   12.0268    9.2856   -3.0610 C   0  0  0  0  0  0  0  0  0  0  0  0
   11.6601    9.1885   -4.4026 C   0  0  0  0  0  0  0  0  0  0  0  0
   11.4799   10.3009   -5.1307 F   0  0  0  0  0  0  0  0  0  0  0  0
  1  2  1  0
  2  3  1  0
  3  4  2  0
  3  5  1  0
  5  6  2  0
  6  7  1  0
  7  8  2  0
  8  9  1  0
  9 10  2  0
 10 11  1  0
  7 12  1  0
 12 13  2  0
 13 14  1  0
 14 15  2  0
 15 26  1  0
 26 27  2  0
 27 28  1  0
 28 29  2  0
 29 30  1  0
 30 31  2  0
 31 32  1  0
 32 38  1  0
 38 39  2  0
 39 40  1  0
 40 41  2  0
 41 42  1  0
 42 43  2  0
 43 44  1  0
 32 33  2  0
 33 34  1  0
 34 35  2  0
 35 36  1  0
 36 37  1  0
 15 16  1  0
 16 17  2  0
 17 18  1  0
 18 19  1  0
 19 20  2  0
 18 21  1  1
 21 22  1  0
 22 23  1  0
 23 24  1  0
 24 25  1  0
 11  1  2  0
 17 12  1  0
 25 18  1  0
 10  5  1  0
 36 27  1  0
 19  6  1  0
 35 30  1  0
 43 38  1  0
M  CHG  1   2  -1
M  END
>  <minimizedAffinity>  (8) 
-18.35414

$$$$
Mol: 117_35 - SminaDock
     RDKit          3D

 50 57  0  0  0  0  0  0  0  0999 V2000
   13.2120    5.1132  -15.4599 N   0  0  0  0  0  0  0  0  0  0  0  0
   12.1804    5.5400  -14.5985 C   0  0  0  0  0  0  0  0  0  0  0  0
   12.3500    6.7449  -13.9489 C   0  0  0  0  0  0  0  0  0  0  0  0
   11.3436    7.1546  -13.1075 C   0  0  0  0  0  0  0  0  0  0  0  0
   10.1745    6.4253  -12.8801 C   0  0  0  0  0  0  0  0  0  0  0  0
   10.0467    5.2459  -13.5379 C   0  0  0  0  0  0  0  0  0  0  0  0
   11.0655    4.7905  -14.4136 C   0  0  0  0  0  0  0  0  0  0  0  0
   14.1699    4.9275  -15.0994 H   0  0  0  0  0  0  0  0  0  0  0  0
   13.0210    4.9802  -16.4677 H   0  0  0  0  0  0  0  0  0  0  0  0
    8.8544    4.4317  -13.3800 C   0  0  0  0  0  0  0  0  0  0  0  0
    7.7906    4.7059  -12.5541 C   0  0  0  0  0  0  0  0  0  0  0  0
    6.6883    3.8872  -12.4846 C   0  0  0  0  0  0  0  0  0  0  0  0
    6.6060    2.7319  -13.2605 C   0  0  0  0  0  0  0  0  0  0  0  0
    7.6317    2.4313  -14.0830 C   0  0  0  0  0  0  0  0  0  0  0  0
    8.7486    3.2848  -14.1345 C   0  0  0  0  0  0  0  0  0  0  0  0
    7.8741    1.2948  -15.0400 C   0  0  1  0  0  0  0  0  0  0  0  0
    7.4407    0.0244  -14.2854 C   0  0  0  0  0  0  0  0  0  0  0  0
    5.9737   -0.0999  -14.3249 C   0  0  0  0  0  0  0  0  0  0  0  0
    5.5652   -1.2049  -14.9955 C   0  0  0  0  0  0  0  0  0  0  0  0
    4.2096   -1.5025  -15.1700 C   0  0  0  0  0  0  0  0  0  0  0  0
    3.3301   -0.6132  -14.6251 C   0  0  0  0  0  0  0  0  0  0  0  0
    3.7515    0.5241  -13.9351 C   0  0  0  0  0  0  0  0  0  0  0  0
    5.1028    0.8090  -13.7671 C   0  0  0  0  0  0  0  0  0  0  0  0
    5.3193    2.0419  -13.0119 C   0  0  0  0  0  0  0  0  0  0  0  0
    7.0927    1.4337  -16.2724 C   0  0  0  0  0  0  0  0  0  0  0  0
    5.8487    1.2091  -16.3602 O   0  0  0  0  0  0  0  0  0  0  0  0
    7.7290    1.8446  -17.4979 N   0  0  0  0  0  0  0  0  0  0  0  0
    9.1284    1.9097  -17.6349 C   0  0  0  0  0  0  0  0  0  0  0  0
    9.6404    2.2794  -18.7395 O   0  0  0  0  0  0  0  0  0  0  0  0
    9.9245    1.5573  -16.5281 N   0  0  0  0  0  0  0  0  0  0  0  0
    9.3116    1.1555  -15.3314 C   0  0  0  0  0  0  0  0  0  0  0  0
   10.0256    0.6247  -14.4061 O   0  0  0  0  0  0  0  0  0  0  0  0
    9.2032    6.9431  -11.9928 N   0  0  0  0  0  0  0  0  0  0  0  0
    8.2871    7.2847  -12.2481 H   0  0  0  0  0  0  0  0  0  0  0  0
    9.5564    6.9768  -10.5904 C   0  0  0  0  0  0  0  0  0  0  0  0
    9.3428    5.8723   -9.7718 C   0  0  0  0  0  0  0  0  0  0  0  0
    9.6929    5.8538   -8.4439 C   0  0  0  0  0  0  0  0  0  0  0  0
   10.2828    6.9951   -7.9142 C   0  0  0  0  0  0  0  0  0  0  0  0
   10.6633    7.0673   -6.6374 N   0  0  0  0  0  0  0  0  0  0  0  0
   11.2444    8.1339   -6.0642 C   0  0  0  0  0  0  0  0  0  0  0  0
   11.4599    9.2320   -6.8594 C   0  0  0  0  0  0  0  0  0  0  0  0
   11.0855    9.2097   -8.1836 C   0  0  0  0  0  0  0  0  0  0  0  0
   10.4859    8.0812   -8.7382 C   0  0  0  0  0  0  0  0  0  0  0  0
   10.1274    8.0654  -10.0482 N   0  0  0  0  0  0  0  0  0  0  0  0
   11.6482    8.0971   -4.6568 C   0  0  0  0  0  0  0  0  0  0  0  0
   11.6140    6.8815   -4.0028 C   0  0  0  0  0  0  0  0  0  0  0  0
   11.9782    6.7096   -2.6864 C   0  0  0  0  0  0  0  0  0  0  0  0
   12.4062    7.8510   -1.9896 C   0  0  0  0  0  0  0  0  0  0  0  0
   12.4421    9.0544   -2.6259 C   0  0  0  0  0  0  0  0  0  0  0  0
   12.0661    9.1895   -3.9568 C   0  0  0  0  0  0  0  0  0  0  0  0
  1  2  1  0
  2  3  2  0
  3  4  1  0
  4  5  2  0
  5 33  1  0
 33 35  1  0
 35 36  2  0
 36 37  1  0
 37 38  2  0
 38 39  1  0
 39 40  2  0
 40 45  1  0
 45 46  2  0
 46 47  1  0
 47 48  2  0
 48 49  1  0
 49 50  2  0
 40 41  1  0
 41 42  2  0
 42 43  1  0
 43 44  2  0
  5  6  1  0
  6 10  1  0
 10 11  2  0
 11 12  1  0
 12 13  2  0
 13 14  1  0
 14 15  2  0
 14 16  1  0
 16 17  1  1
 17 18  1  0
 18 19  2  0
 19 20  1  0
 20 21  2  0
 21 22  1  0
 22 23  2  0
 23 24  1  0
 16 25  1  0
 25 26  2  0
 25 27  1  0
 27 28  1  0
 28 29  2  0
 28 30  1  0
 30 31  1  0
 31 32  2  0
  6  7  2  0
  7  2  1  0
 44 35  1  0
 15 10  1  0
 31 16  1  0
 43 38  1  0
 24 13  1  0
 50 45  1  0
 23 18  1  0
  1  8  1  0
  1  9  1  0
 33 34  1  0
M  CHG  2  27  -1  30  -1
M  END
>  <minimizedAffinity>  (9) 
-18.26179

$$$$
Mol: 144_62 - SminaDock
     RDKit          3D

 43 49  0  0  0  0  0  0  0  0999 V2000
    2.4835   -1.2717  -17.6618 H   0  0  0  0  0  0  0  0  0  0  0  0
    3.0759   -1.9923  -18.0624 O   0  0  0  0  0  0  0  0  0  0  0  0
    4.3542   -1.7708  -18.5091 N   0  0  0  0  0  0  0  0  0  0  0  0
    5.2701   -1.5301  -17.6454 C   0  0  0  0  0  0  0  0  0  0  0  0
    4.9593   -1.4910  -16.1964 C   0  0  0  0  0  0  0  0  0  0  0  0
    5.5623   -0.2792  -15.5633 C   0  0  0  0  0  0  0  0  0  0  0  0
    4.9769    0.3535  -14.4944 C   0  0  0  0  0  0  0  0  0  0  0  0
    5.5241    1.4869  -13.8852 C   0  0  0  0  0  0  0  0  0  0  0  0
    6.7038    1.9618  -14.4083 C   0  0  0  0  0  0  0  0  0  0  0  0
    7.2926    1.3310  -15.4778 C   0  0  0  0  0  0  0  0  0  0  0  0
    6.7426    0.1927  -16.0891 C   0  0  0  0  0  0  0  0  0  0  0  0
    7.3788   -0.4311  -17.1943 N   0  0  0  0  0  0  0  0  0  0  0  0
    8.6957   -0.2440  -17.4166 O   0  0  0  0  0  0  0  0  0  0  0  0
    8.7681    0.5866  -17.9748 H   0  0  0  0  0  0  0  0  0  0  0  0
    6.6546   -1.2887  -18.1273 C   0  0  1  0  0  0  0  0  0  0  0  0
    7.3499   -2.4548  -18.3790 O   0  0  0  0  0  0  0  0  0  0  0  0
    7.1001   -2.8522  -19.2508 H   0  0  0  0  0  0  0  0  0  0  0  0
    7.2791    3.1511  -13.7940 C   0  0  0  0  0  0  0  0  0  0  0  0
    8.4804    3.6521  -14.2831 C   0  0  0  0  0  0  0  0  0  0  0  0
    9.0658    4.7893  -13.6996 C   0  0  0  0  0  0  0  0  0  0  0  0
    8.4446    5.4055  -12.6416 C   0  0  0  0  0  0  0  0  0  0  0  0
    7.2653    4.9225  -12.1540 C   0  0  0  0  0  0  0  0  0  0  0  0
    6.6764    3.7887  -12.7319 C   0  0  0  0  0  0  0  0  0  0  0  0
    5.3956    3.3188  -12.1751 C   0  0  0  0  0  0  0  0  0  0  0  0
    4.8162    2.0875  -12.7272 C   0  0  0  0  0  0  0  0  0  0  0  0
    9.0393    6.5471  -12.0607 N   0  0  0  0  0  0  0  0  0  0  0  0
    9.4094    6.5628  -10.8286 C   0  0  0  0  0  0  0  0  0  0  0  0
    9.2356    5.4602  -10.0348 C   0  0  0  0  0  0  0  0  0  0  0  0
    9.6470    5.5269   -8.7307 C   0  0  0  0  0  0  0  0  0  0  0  0
   10.2325    6.6890   -8.2108 C   0  0  0  0  0  0  0  0  0  0  0  0
   10.6505    6.7675   -6.9018 C   0  0  0  0  0  0  0  0  0  0  0  0
   11.2277    7.9019   -6.3782 C   0  0  0  0  0  0  0  0  0  0  0  0
   11.3829    8.9967   -7.2250 C   0  0  0  0  0  0  0  0  0  0  0  0
   10.9637    8.9142   -8.5328 C   0  0  0  0  0  0  0  0  0  0  0  0
   10.3835    7.7690   -9.0536 C   0  0  0  0  0  0  0  0  0  0  0  0
    9.9749    7.6942  -10.3379 N   0  0  0  0  0  0  0  0  0  0  0  0
   10.0923    8.5169  -10.9715 H   0  0  0  0  0  0  0  0  0  0  0  0
   11.6489    7.9287   -4.9954 C   0  0  0  0  0  0  0  0  0  0  0  0
   11.3495    6.9023   -4.1394 C   0  0  0  0  0  0  0  0  0  0  0  0
   11.7445    6.9106   -2.8118 C   0  0  0  0  0  0  0  0  0  0  0  0
   12.4605    7.9759   -2.3225 C   0  0  0  0  0  0  0  0  0  0  0  0
   12.7707    9.0214   -3.1771 C   0  0  0  0  0  0  0  0  0  0  0  0
   12.3650    9.0003   -4.5181 C   0  0  0  0  0  0  0  0  0  0  0  0
  1  2  1  0
  2  3  1  0
  3  4  2  0
  4  5  1  0
  5  6  1  0
  6  7  2  0
  7  8  1  0
  8  9  2  0
  9 10  1  0
 10 11  2  0
 11 12  1  0
 12 13  1  0
 13 14  1  0
 12 15  1  0
 15 16  1  1
 16 17  1  0
  9 18  1  0
 18 19  2  0
 19 20  1  0
 20 21  2  0
 21 26  1  0
 26 27  2  0
 27 28  1  0
 28 29  2  0
 29 30  1  0
 30 31  2  0
 31 32  1  0
 32 38  1  0
 38 39  2  0
 39 40  1  0
 40 41  2  0
 41 42  1  0
 42 43  2  0
 32 33  2  0
 33 34  1  0
 34 35  2  0
 35 36  1  0
 36 37  1  0
 21 22  1  0
 22 23  2  0
 23 24  1  0
 24 25  1  0
 15  4  1  0
 23 18  1  0
 11  6  1  0
 36 27  1  0
 25  8  1  0
 35 30  1  0
 43 38  1  0
M  END
>  <minimizedAffinity>  (10) 
-18.25427

$$$$
Mol: 133_50 - SminaDock
     RDKit          3D

 45 52  0  0  0  0  0  0  0  0999 V2000
   11.0241    2.8473  -17.1798 H   0  0  0  0  0  0  0  0  0  0  0  0
   11.1821    2.1997  -16.4022 O   0  0  0  0  0  0  0  0  0  0  0  0
   10.0787    1.6519  -15.7310 C   0  0  0  0  0  0  0  0  0  0  0  0
    8.8847    2.0182  -15.9550 N   0  0  0  0  0  0  0  0  0  0  0  0
    7.9345    1.2865  -15.1196 C   0  0  1  0  0  0  0  0  0  0  0  0
    8.8231    0.3914  -14.3361 C   0  0  0  0  0  0  0  0  0  0  0  0
    8.5342   -0.4622  -13.4567 O   0  0  0  0  0  0  0  0  0  0  0  0
   10.1606    0.6497  -14.7476 N   0  0  0  0  0  0  0  0  0  0  0  0
    7.2477    2.2760  -14.2723 C   0  0  0  0  0  0  0  0  0  0  0  0
    7.9348    3.4533  -14.1028 C   0  0  0  0  0  0  0  0  0  0  0  0
    7.5739    4.5848  -13.4282 C   0  0  0  0  0  0  0  0  0  0  0  0
    6.4636    4.7818  -12.6251 C   0  0  0  0  0  0  0  0  0  0  0  0
    6.2995    5.9531  -12.1983 O   0  0  0  0  0  0  0  0  0  0  0  0
    5.5006    3.8307  -12.2312 C   0  0  0  0  0  0  0  0  0  0  0  0
    5.3924    2.5158  -12.6145 C   0  0  0  0  0  0  0  0  0  0  0  0
    6.0065    1.9652  -13.7251 C   0  0  0  0  0  0  0  0  0  0  0  0
    5.2163    0.9102  -14.3313 C   0  0  0  0  0  0  0  0  0  0  0  0
    3.9926    0.6011  -13.8111 C   0  0  0  0  0  0  0  0  0  0  0  0
    3.2518   -0.4153  -14.4134 C   0  0  0  0  0  0  0  0  0  0  0  0
    3.7384   -1.0873  -15.5014 C   0  0  0  0  0  0  0  0  0  0  0  0
    4.9683   -0.7838  -16.0348 C   0  0  0  0  0  0  0  0  0  0  0  0
    5.7114    0.2177  -15.4497 C   0  0  0  0  0  0  0  0  0  0  0  0
    7.0187    0.5413  -16.0238 C   0  0  0  0  0  0  0  0  0  0  0  0
    8.4667    5.6927  -13.5831 N   0  0  0  0  0  0  0  0  0  0  0  0
    9.0118    6.1511  -12.4965 C   0  0  0  0  0  0  0  0  0  0  0  0
    9.8594    7.1863  -12.5531 N   0  0  0  0  0  0  0  0  0  0  0  0
   10.4529    7.7059  -11.4819 C   0  0  0  0  0  0  0  0  0  0  0  0
   10.1928    7.1639  -10.2493 C   0  0  0  0  0  0  0  0  0  0  0  0
   10.7864    7.6668   -9.0863 C   0  0  0  0  0  0  0  0  0  0  0  0
   10.5207    7.1215   -7.8714 C   0  0  0  0  0  0  0  0  0  0  0  0
    9.6452    6.0437   -7.7668 C   0  0  0  0  0  0  0  0  0  0  0  0
    9.0636    5.5513   -8.9081 C   0  0  0  0  0  0  0  0  0  0  0  0
    9.3211    6.0905  -10.1435 C   0  0  0  0  0  0  0  0  0  0  0  0
    8.7691    5.6329  -11.2794 N   0  0  0  0  0  0  0  0  0  0  0  0
    8.1212    4.8357  -11.2048 H   0  0  0  0  0  0  0  0  0  0  0  0
   11.1277    7.6323   -6.6632 C   0  0  0  0  0  0  0  0  0  0  0  0
   11.0002    6.9235   -5.4991 N   0  0  0  0  0  0  0  0  0  0  0  0
   11.5493    7.3707   -4.3702 C   0  0  0  0  0  0  0  0  0  0  0  0
   11.4197    6.6542   -3.1966 C   0  0  0  0  0  0  0  0  0  0  0  0
   11.9812    7.1148   -2.0505 C   0  0  0  0  0  0  0  0  0  0  0  0
   12.6830    8.2935   -2.0393 C   0  0  0  0  0  0  0  0  0  0  0  0
   12.8254    9.0195   -3.1846 C   0  0  0  0  0  0  0  0  0  0  0  0
   12.2523    8.5522   -4.3611 C   0  0  0  0  0  0  0  0  0  0  0  0
   12.4054    9.2931   -5.4992 C   0  0  0  0  0  0  0  0  0  0  0  0
   11.8236    8.8124   -6.6784 C   0  0  0  0  0  0  0  0  0  0  0  0
  1  2  1  0
  2  3  1  0
  3  4  2  0
  4  5  1  0
  5  6  1  0
  6  7  2  0
  6  8  1  0
  5  9  1  0
  9 10  1  0
 10 11  2  0
 11 24  1  0
 24 25  2  0
 25 26  1  0
 26 27  2  0
 27 28  1  0
 28 29  2  0
 29 30  1  0
 30 36  1  0
 36 37  2  0
 37 38  1  0
 38 39  2  0
 39 40  1  0
 40 41  2  0
 41 42  1  0
 42 43  2  0
 43 44  1  0
 44 45  2  0
 30 31  2  0
 31 32  1  0
 32 33  2  0
 33 34  1  0
 34 35  1  0
 11 12  1  0
 12 13  2  0
 12 14  1  0
 14 15  2  0
 15 16  1  0
 16 17  1  0
 17 18  2  0
 18 19  1  0
 19 20  2  0
 20 21  1  0
 21 22  2  0
 22 23  1  0
  8  3  1  0
 16  9  2  0
 22 17  1  0
  5 23  1  6
 34 25  1  0
 33 28  1  0
 45 36  1  0
 43 38  1  0
M  CHG  1   8  -1
M  END
>  <minimizedAffinity>  (11) 
-18.32620

$$$$
Mol: 129_41 - SminaDock
     RDKit          3D

 47 54  0  0  0  0  0  0  0  0999 V2000
    9.0227    7.5209  -12.0640 C   0  0  0  0  0  0  0  0  0  0  0  0
    8.0790    8.5138  -12.1148 C   0  0  0  0  0  0  0  0  0  0  0  0
    6.7940    8.2081  -12.4851 C   0  0  0  0  0  0  0  0  0  0  0  0
    6.4499    6.8949  -12.8078 C   0  0  0  0  0  0  0  0  0  0  0  0
    7.3899    5.9006  -12.7581 C   0  0  0  0  0  0  0  0  0  0  0  0
    8.6841    6.2066  -12.3857 C   0  0  0  0  0  0  0  0  0  0  0  0
    6.9893    4.5336  -13.1048 C   0  0  0  0  0  0  0  0  0  0  0  0
    5.8339    4.0286  -12.5644 C   0  0  0  0  0  0  0  0  0  0  0  0
    5.4810    2.7432  -12.9064 C   0  0  0  0  0  0  0  0  0  0  0  0
    6.2309    1.9617  -13.7536 C   0  0  0  0  0  0  0  0  0  0  0  0
    7.3995    2.5158  -14.2783 C   0  0  0  0  0  0  0  0  0  0  0  0
    7.8008    3.7854  -13.9779 C   0  0  0  0  0  0  0  0  0  0  0  0
    8.2825    1.8067  -15.1787 C   0  0  1  0  0  0  0  0  0  0  0  0
    9.6286    2.2529  -15.4496 C   0  0  0  0  0  0  0  0  0  0  0  0
   10.2689    3.1297  -14.8778 O   0  0  0  0  0  0  0  0  0  0  0  0
   10.2748    1.5346  -16.5546 N   0  0  0  0  0  0  0  0  0  0  0  0
    9.9832    0.1290  -16.7114 C   0  0  0  0  0  0  0  0  0  0  0  0
   10.4863   -0.5628  -17.6200 O   0  0  0  0  0  0  0  0  0  0  0  0
    9.0820   -0.4363  -15.7666 N   0  0  0  0  0  0  0  0  0  0  0  0
    8.5075    0.3506  -14.7311 C   0  0  0  0  0  0  0  0  0  0  0  0
    8.2088   -0.0343  -13.5966 O   0  0  0  0  0  0  0  0  0  0  0  0
    7.4642    1.6150  -16.4785 C   0  0  0  0  0  0  0  0  0  0  0  0
    6.6347    0.4028  -16.2700 C   0  0  0  0  0  0  0  0  0  0  0  0
    6.7137   -0.4451  -17.3673 C   0  0  0  0  0  0  0  0  0  0  0  0
    6.0361   -1.6427  -17.4132 C   0  0  0  0  0  0  0  0  0  0  0  0
    5.2494   -2.0343  -16.3514 C   0  0  0  0  0  0  0  0  0  0  0  0
    5.1615   -1.2103  -15.2643 C   0  0  0  0  0  0  0  0  0  0  0  0
    5.8421   -0.0087  -15.2202 C   0  0  0  0  0  0  0  0  0  0  0  0
    5.5435    0.6646  -13.9300 C   0  0  0  0  0  0  0  0  0  0  0  0
   11.1647    7.7969   -5.5312 C   0  0  0  0  0  0  0  0  0  0  0  0
    9.8421    7.5610   -5.7942 C   0  0  0  0  0  0  0  0  0  0  0  0
    9.3942    7.5025   -7.1126 C   0  0  0  0  0  0  0  0  0  0  0  0
   10.2477    7.6762   -8.1718 C   0  0  0  0  0  0  0  0  0  0  0  0
   11.5781    7.9131   -7.8898 C   0  0  0  0  0  0  0  0  0  0  0  0
   12.4641    8.0913   -8.8786 N   0  0  0  0  0  0  0  0  0  0  0  0
   12.0777    8.0433  -10.1614 C   0  0  0  0  0  0  0  0  0  0  0  0
   10.7561    7.8083  -10.4651 C   0  0  0  0  0  0  0  0  0  0  0  0
   10.3730    7.7598  -11.6899 N   0  0  0  0  0  0  0  0  0  0  0  0
    9.8902    7.6335   -9.4554 N   0  0  0  0  0  0  0  0  0  0  0  0
    8.8638    7.4501   -9.6297 H   0  0  0  0  0  0  0  0  0  0  0  0
   12.0494    7.9763   -6.5911 C   0  0  0  0  0  0  0  0  0  0  0  0
   12.7562    7.9976   -1.6201 C   0  0  0  0  0  0  0  0  0  0  0  0
   12.4238    6.7689   -2.1523 C   0  0  0  0  0  0  0  0  0  0  0  0
   11.9085    6.7242   -3.4235 C   0  0  0  0  0  0  0  0  0  0  0  0
   11.7140    7.8729   -4.1833 C   0  0  0  0  0  0  0  0  0  0  0  0
   12.0449    9.0899   -3.6524 C   0  0  0  0  0  0  0  0  0  0  0  0
   12.5670    9.1443   -2.3666 C   0  0  0  0  0  0  0  0  0  0  0  0
 42 43  2  0
 43 44  1  0
 44 45  2  0
 45 30  1  0
 30 31  2  0
 31 32  1  0
 32 33  2  0
 33 34  1  0
 34 35  1  0
 35 36  2  0
 36 37  1  0
 37 38  2  0
 38  1  1  0
  1  2  2  0
  2  3  1  0
  3  4  2  0
  4  5  1  0
  5  7  1  0
  7  8  2  0
  8  9  1  0
  9 10  2  0
 10 11  1  0
 11 12  2  0
 11 13  1  0
 13 14  1  0
 14 15  2  0
 14 16  1  0
 16 17  1  0
 17 18  2  0
 17 19  1  0
 19 20  1  0
 20 21  2  0
 13 22  1  6
 22 23  1  0
 23 24  2  0
 24 25  1  0
 25 26  2  0
 26 27  1  0
 27 28  2  0
 28 29  1  0
  5  6  2  0
 37 39  1  0
 39 40  1  0
 34 41  2  0
 45 46  1  0
 46 47  2  0
 47 42  1  0
 41 30  1  0
 39 33  1  0
  6  1  1  0
 12  7  1  0
 20 13  1  0
 28 23  1  0
 29 10  1  0
M  CHG  2  16  -1  19  -1
M  END
>  <minimizedAffinity>  (12) 
-18.29139

$$$$
Mol: 187_51 - SminaDock
     RDKit          3D

 49 57  0  0  0  0  0  0  0  0999 V2000
    8.5285    5.7355  -12.2532 C   0  0  0  0  0  0  0  0  0  0  0  0
    7.2840    5.3902  -11.7736 C   0  0  0  0  0  0  0  0  0  0  0  0
    6.6017    4.3008  -12.2695 C   0  0  0  0  0  0  0  0  0  0  0  0
    7.1620    3.5318  -13.2647 C   0  0  0  0  0  0  0  0  0  0  0  0
    8.4048    3.8699  -13.7491 C   0  0  0  0  0  0  0  0  0  0  0  0
    9.0937    4.9661  -13.2518 C   0  0  0  0  0  0  0  0  0  0  0  0
    8.9808    3.1041  -14.7517 C   0  0  0  0  0  0  0  0  0  0  0  0
   10.2218    3.4501  -15.2279 C   0  0  0  0  0  0  0  0  0  0  0  0
   10.7800    2.6620  -16.2376 C   0  0  0  0  0  0  0  0  0  0  0  0
   10.1074    1.5918  -16.7239 C   0  0  0  0  0  0  0  0  0  0  0  0
    8.8354    1.2468  -16.2279 C   0  0  0  0  0  0  0  0  0  0  0  0
    8.2700    1.9986  -15.2439 C   0  0  0  0  0  0  0  0  0  0  0  0
    7.0120    1.6683  -14.7435 C   0  0  0  0  0  0  0  0  0  0  0  0
    6.1188    0.6621  -15.0393 C   0  0  0  0  0  0  0  0  0  0  0  0
    6.0729   -0.3975  -15.9052 C   0  0  0  0  0  0  0  0  0  0  0  0
    4.9551   -1.2278  -15.9142 C   0  0  0  0  0  0  0  0  0  0  0  0
    4.9324   -2.3223  -16.8246 N   0  0  0  0  0  0  0  0  0  0  0  0
    5.6965   -3.0159  -16.7918 H   0  0  0  0  0  0  0  0  0  0  0  0
    4.1505   -2.4192  -17.5163 H   0  0  0  0  0  0  0  0  0  0  0  0
    3.8784   -1.0355  -15.0853 C   0  0  0  0  0  0  0  0  0  0  0  0
    3.9174    0.0182  -14.2197 C   0  0  0  0  0  0  0  0  0  0  0  0
    5.0349    0.8550  -14.2053 C   0  0  0  0  0  0  0  0  0  0  0  0
    5.2447    1.9260  -13.4318 N   0  0  0  0  0  0  0  0  0  0  0  0
    4.6243    2.3385  -12.7001 H   0  0  0  0  0  0  0  0  0  0  0  0
    6.4521    2.4542  -13.7340 C   0  0  0  0  0  0  0  0  0  0  0  0
   10.8542    0.9725  -17.7086 O   0  0  0  0  0  0  0  0  0  0  0  0
   12.0616    1.6615  -17.9521 C   0  0  1  0  0  0  0  0  0  0  0  0
   12.0162    2.2222  -19.2957 N   0  0  0  0  0  0  0  0  0  0  0  0
   11.5616    3.1517  -19.3192 H   0  0  0  0  0  0  0  0  0  0  0  0
   11.5207    1.5825  -19.9496 H   0  0  0  0  0  0  0  0  0  0  0  0
   12.0779    2.7769  -16.9433 C   0  0  0  0  0  0  0  0  0  0  0  0
   11.3229    8.0602   -5.9594 C   0  0  0  0  0  0  0  0  0  0  0  0
   11.5846    9.1349   -6.7777 C   0  0  0  0  0  0  0  0  0  0  0  0
   11.2073    9.1117   -8.1045 C   0  0  0  0  0  0  0  0  0  0  0  0
   10.5653    8.0326   -8.6567 C   0  0  0  0  0  0  0  0  0  0  0  0
   10.2970    6.9463   -7.8436 C   0  0  0  0  0  0  0  0  0  0  0  0
    9.6516    5.8611   -8.3978 C   0  0  0  0  0  0  0  0  0  0  0  0
    9.2708    5.8093   -9.6915 N   0  0  0  0  0  0  0  0  0  0  0  0
    9.5478    6.8916  -10.4667 C   0  0  0  0  0  0  0  0  0  0  0  0
    9.1954    6.8722  -11.7088 N   0  0  0  0  0  0  0  0  0  0  0  0
   10.1804    7.9623   -9.9348 N   0  0  0  0  0  0  0  0  0  0  0  0
   10.3696    8.7688  -10.5751 H   0  0  0  0  0  0  0  0  0  0  0  0
   10.6797    6.9743   -6.5042 C   0  0  0  0  0  0  0  0  0  0  0  0
   12.4424    7.9950   -1.8951 C   0  0  0  0  0  0  0  0  0  0  0  0
   12.4501    9.2131   -2.5446 C   0  0  0  0  0  0  0  0  0  0  0  0
   12.0779    9.2134   -3.8828 C   0  0  0  0  0  0  0  0  0  0  0  0
   11.7168    8.0656   -4.5431 C   0  0  0  0  0  0  0  0  0  0  0  0
   11.7294    6.8830   -3.8401 C   0  0  0  0  0  0  0  0  0  0  0  0
   12.0895    6.8081   -2.5035 C   0  0  0  0  0  0  0  0  0  0  0  0
 44 45  2  0
 45 46  1  0
 46 47  2  0
 47 32  1  0
 32 33  2  0
 33 34  1  0
 34 35  2  0
 35 36  1  0
 36 37  1  0
 37 38  2  0
 38 39  1  0
 39 40  2  0
 40  1  1  0
  1  2  2  0
  2  3  1  0
  3  4  2  0
  4  5  1  0
  5  6  2  0
  5  7  1  0
  7  8  2  0
  8  9  1  0
  9 10  2  0
 10 11  1  0
 11 12  2  0
 12 13  1  0
 13 14  1  0
 14 15  2  0
 15 16  1  0
 16 17  1  0
 17 18  1  0
 17 19  1  0
 16 20  2  0
 20 21  1  0
 21 22  2  0
 22 23  1  0
 23 24  1  0
 23 25  1  0
 10 26  1  0
 26 27  1  0
 27 28  1  6
 28 29  1  0
 28 30  1  0
 27 31  1  0
 39 41  1  0
 41 42  1  0
 36 43  2  0
 47 48  1  0
 48 49  2  0
 49 44  1  0
 43 32  1  0
 41 35  1  0
  6  1  1  0
 12  7  1  0
 25 13  2  0
 25  4  1  0
 31  9  1  0
 22 14  1  0
M  END
>  <minimizedAffinity>  (13) 
-18.27808

$$$$
Mol: 129_62 - SminaDock
     RDKit          3D

 44 51  0  0  0  0  0  0  0  0999 V2000
    6.7495    3.5012  -13.5162 C   0  0  0  0  0  0  0  0  0  0  0  0
    7.7246    4.4216  -13.5403 N   0  0  0  0  0  0  0  0  0  0  0  0
    8.8333    4.2676  -14.2620 C   0  0  0  0  0  0  0  0  0  0  0  0
    9.0371    3.1490  -15.0250 C   0  0  0  0  0  0  0  0  0  0  0  0
    8.0342    2.1764  -15.0150 C   0  0  0  0  0  0  0  0  0  0  0  0
    6.8820    2.3307  -14.2685 C   0  0  0  0  0  0  0  0  0  0  0  0
    5.8483    1.3086  -14.2719 C   0  0  0  0  0  0  0  0  0  0  0  0
    4.7064    1.5052  -13.5051 C   0  0  0  0  0  0  0  0  0  0  0  0
    3.7182    0.5170  -13.5133 C   0  0  0  0  0  0  0  0  0  0  0  0
    3.8768   -0.6243  -14.2660 C   0  0  0  0  0  0  0  0  0  0  0  0
    5.0174   -0.7852  -15.0113 C   0  0  0  0  0  0  0  0  0  0  0  0
    6.0272    0.1841  -15.0266 C   0  0  0  0  0  0  0  0  0  0  0  0
    7.2121   -0.0440  -15.8377 C   0  0  0  0  0  0  0  0  0  0  0  0
    8.2681    0.9728  -15.8424 C   0  0  2  0  0  0  0  0  0  0  0  0
    9.5619    0.3126  -15.4333 C   0  0  0  0  0  0  0  0  0  0  0  0
   10.0551    0.6505  -14.3448 O   0  0  0  0  0  0  0  0  0  0  0  0
   10.1135   -0.6381  -16.3171 N   0  0  0  0  0  0  0  0  0  0  0  0
    9.8837   -0.5355  -17.7153 C   0  0  0  0  0  0  0  0  0  0  0  0
   10.3604   -1.3671  -18.5400 O   0  0  0  0  0  0  0  0  0  0  0  0
    9.0822    0.5571  -18.1700 N   0  0  0  0  0  0  0  0  0  0  0  0
    8.5487    1.4904  -17.2320 C   0  0  0  0  0  0  0  0  0  0  0  0
    8.3313    2.6812  -17.5707 O   0  0  0  0  0  0  0  0  0  0  0  0
    9.7909    5.3217  -14.1992 N   0  0  0  0  0  0  0  0  0  0  0  0
   10.0836    5.8518  -13.0704 C   0  0  0  0  0  0  0  0  0  0  0  0
    9.4924    5.4176  -11.9530 N   0  0  0  0  0  0  0  0  0  0  0  0
    9.7702    5.9493  -10.7359 C   0  0  0  0  0  0  0  0  0  0  0  0
    9.1721    5.5150   -9.5785 C   0  0  0  0  0  0  0  0  0  0  0  0
    9.4976    6.0971   -8.3714 C   0  0  0  0  0  0  0  0  0  0  0  0
   10.4161    7.1195   -8.2591 C   0  0  0  0  0  0  0  0  0  0  0  0
   11.0064    7.5398   -9.4453 C   0  0  0  0  0  0  0  0  0  0  0  0
   10.6936    6.9713  -10.6545 C   0  0  0  0  0  0  0  0  0  0  0  0
   11.2822    7.3891  -11.8434 C   0  0  0  0  0  0  0  0  0  0  0  0
   10.9849    6.8435  -13.0209 N   0  0  0  0  0  0  0  0  0  0  0  0
   11.4528    7.1874  -13.9032 H   0  0  0  0  0  0  0  0  0  0  0  0
   10.7773    7.7495   -7.0019 C   0  0  0  0  0  0  0  0  0  0  0  0
   10.7777    9.1132   -6.8649 C   0  0  0  0  0  0  0  0  0  0  0  0
   11.1366    9.6336   -5.6277 C   0  0  0  0  0  0  0  0  0  0  0  0
   11.4819    8.8269   -4.5675 C   0  0  0  0  0  0  0  0  0  0  0  0
   11.8366    9.3835   -3.3409 C   0  0  0  0  0  0  0  0  0  0  0  0
   12.1762    8.5670   -2.3008 C   0  0  0  0  0  0  0  0  0  0  0  0
   12.1772    7.1909   -2.4343 C   0  0  0  0  0  0  0  0  0  0  0  0
   11.8289    6.6449   -3.6388 C   0  0  0  0  0  0  0  0  0  0  0  0
   11.4808    7.4512   -4.7082 C   0  0  0  0  0  0  0  0  0  0  0  0
   11.1225    6.9417   -5.9422 C   0  0  0  0  0  0  0  0  0  0  0  0
  1  2  2  0
  2  3  1  0
  3 23  1  0
 23 24  2  0
 24 25  1  0
 25 26  2  0
 26 27  1  0
 27 28  2  0
 28 29  1  0
 29 35  1  0
 35 36  2  0
 36 37  1  0
 37 38  2  0
 38 39  1  0
 39 40  2  0
 40 41  1  0
 41 42  2  0
 42 43  1  0
 43 44  2  0
 29 30  2  0
 30 31  1  0
 31 32  2  0
 32 33  1  0
 33 34  1  0
  3  4  2  0
  4  5  1  0
  5  6  2  0
  6  7  1  0
  7  8  2  0
  8  9  1  0
  9 10  2  0
 10 11  1  0
 11 12  2  0
 12 13  1  0
 14 13  1  6
 14 15  1  0
 15 16  2  0
 15 17  1  0
 17 18  1  0
 18 19  2  0
 18 20  1  0
 20 21  1  0
 21 22  2  0
  6  1  1  0
 12  7  1  0
 21 14  1  0
 33 24  1  0
 14  5  1  0
 31 26  1  0
 44 35  1  0
 43 38  1  0
M  CHG  2  17  -1  20  -1
M  END
>  <minimizedAffinity>  (14) 
-18.28222

$$$$
Mol: 196_47 - SminaDock
     RDKit          3D

 42 49  0  0  0  0  0  0  0  0999 V2000
    2.2574   -1.5382  -14.4550 H   0  0  0  0  0  0  0  0  0  0  0  0
    2.9664   -0.9591  -13.9800 O   0  0  0  0  0  0  0  0  0  0  0  0
    4.0630   -0.4904  -14.7190 C   0  0  0  0  0  0  0  0  0  0  0  0
    4.5146   -0.9711  -15.8242 N   0  0  0  0  0  0  0  0  0  0  0  0
    5.6586   -0.2381  -16.3050 C   0  0  1  0  0  0  0  0  0  0  0  0
    6.8011   -1.0149  -16.3731 O   0  0  0  0  0  0  0  0  0  0  0  0
    7.2551   -1.2174  -17.6718 C   0  0  0  0  0  0  0  0  0  0  0  0
    6.0828   -1.5906  -18.5402 C   0  0  1  0  0  0  0  0  0  0  0  0
    5.4982   -2.8738  -18.0117 C   0  0  0  0  0  0  0  0  0  0  0  0
    5.1519   -0.5574  -18.6011 O   0  0  0  0  0  0  0  0  0  0  0  0
    5.3308    0.4043  -17.6368 C   0  0  0  0  0  0  0  0  0  0  0  0
    5.8603    0.8232  -15.2817 C   0  0  0  0  0  0  0  0  0  0  0  0
    6.7626    1.8397  -15.1398 C   0  0  0  0  0  0  0  0  0  0  0  0
    6.6768    2.6881  -14.0302 C   0  0  0  0  0  0  0  0  0  0  0  0
    5.6946    2.5092  -13.0820 C   0  0  0  0  0  0  0  0  0  0  0  0
    4.7884    1.4814  -13.2326 C   0  0  0  0  0  0  0  0  0  0  0  0
    4.8783    0.6505  -14.3263 C   0  0  0  0  0  0  0  0  0  0  0  0
    5.8698    3.5525  -12.0490 C   0  0  0  0  0  0  0  0  0  0  0  0
    7.0438    4.3466  -12.4952 C   0  0  0  0  0  0  0  0  0  0  0  0
    7.7165    5.4457  -11.9869 C   0  0  0  0  0  0  0  0  0  0  0  0
    8.8085    6.0311  -12.5833 C   0  0  0  0  0  0  0  0  0  0  0  0
    9.2564    5.4809  -13.7656 C   0  0  0  0  0  0  0  0  0  0  0  0
    8.6259    4.3877  -14.3168 C   0  0  0  0  0  0  0  0  0  0  0  0
    7.5303    3.8293  -13.6842 C   0  0  0  0  0  0  0  0  0  0  0  0
    9.4653    7.1681  -12.0136 N   0  0  0  0  0  0  0  0  0  0  0  0
    9.7537    7.1034  -10.7366 C   0  0  0  0  0  0  0  0  0  0  0  0
   10.3700    8.1328  -10.1345 N   0  0  0  0  0  0  0  0  0  0  0  0
   10.6829    8.1062   -8.8279 C   0  0  0  0  0  0  0  0  0  0  0  0
   11.3151    9.1496   -8.1867 C   0  0  0  0  0  0  0  0  0  0  0  0
   11.6079    9.0580   -6.8429 C   0  0  0  0  0  0  0  0  0  0  0  0
   11.2926    7.9486   -6.0898 C   0  0  0  0  0  0  0  0  0  0  0  0
   10.6657    6.9091   -6.7164 C   0  0  0  0  0  0  0  0  0  0  0  0
   10.3599    6.9785   -8.0723 C   0  0  0  0  0  0  0  0  0  0  0  0
    9.7313    5.9338   -8.6963 C   0  0  0  0  0  0  0  0  0  0  0  0
    9.4466    6.0233  -10.0034 N   0  0  0  0  0  0  0  0  0  0  0  0
    8.9559    5.1926  -10.4629 H   0  0  0  0  0  0  0  0  0  0  0  0
   11.6372    7.9296   -4.6675 C   0  0  0  0  0  0  0  0  0  0  0  0
   11.6225    6.7785   -3.9071 C   0  0  0  0  0  0  0  0  0  0  0  0
   11.9509    6.7774   -2.5631 C   0  0  0  0  0  0  0  0  0  0  0  0
   12.3105    7.9509   -1.9293 C   0  0  0  0  0  0  0  0  0  0  0  0
   12.3292    9.1084   -2.6783 C   0  0  0  0  0  0  0  0  0  0  0  0
   12.0006    9.1016   -4.0173 C   0  0  0  0  0  0  0  0  0  0  0  0
  1  2  1  0
  2  3  1  0
  3  4  2  0
  4  5  1  0
  5  6  1  0
  6  7  1  0
  7  8  1  0
  8  9  1  1
  8 10  1  0
 10 11  1  0
  5 12  1  0
 12 13  2  0
 13 14  1  0
 14 15  2  0
 15 16  1  0
 16 17  2  0
 15 18  1  0
 18 19  1  0
 19 20  2  0
 20 21  1  0
 21 25  1  0
 25 26  2  0
 26 27  1  0
 27 28  2  0
 28 29  1  0
 29 30  2  0
 30 31  1  0
 31 37  1  0
 37 38  2  0
 38 39  1  0
 39 40  2  0
 40 41  1  0
 41 42  2  0
 31 32  2  0
 32 33  1  0
 33 34  2  0
 34 35  1  0
 35 36  1  0
 21 22  2  0
 22 23  1  0
 23 24  2  0
 17  3  1  0
 24 19  1  0
  5 11  1  6
 17 12  1  0
 35 26  1  0
 24 14  1  0
 33 28  1  0
 42 37  1  0
M  END
>  <minimizedAffinity>  (15) 
-18.21274

$$$$
Mol: 141_18 - SminaDock
     RDKit          3D

 44 50  0  0  0  0  0  0  0  0999 V2000
    9.3122    0.5342  -17.5476 H   0  0  0  0  0  0  0  0  0  0  0  0
    8.7512    0.7871  -16.7620 O   0  0  0  0  0  0  0  0  0  0  0  0
    7.5425    0.1884  -16.4980 C   0  0  0  0  0  0  0  0  0  0  0  0
    6.7916    0.7622  -15.5598 C   0  0  0  0  0  0  0  0  0  0  0  0
    7.4112    1.8977  -15.0199 C   0  0  0  0  0  0  0  0  0  0  0  0
    6.8098    2.6321  -14.0414 C   0  0  0  0  0  0  0  0  0  0  0  0
    5.5594    2.2820  -13.5428 C   0  0  0  0  0  0  0  0  0  0  0  0
    4.9442    1.1642  -14.0705 C   0  0  0  0  0  0  0  0  0  0  0  0
    5.5626    0.4235  -15.0644 C   0  0  0  0  0  0  0  0  0  0  0  0
    4.7074   -0.7173  -15.4337 C   0  0  0  0  0  0  0  0  0  0  0  0
    4.5911   -0.8307  -16.9214 C   0  0  2  0  0  0  0  0  0  0  0  0
    3.4533   -1.6159  -17.3251 N   0  0  0  0  0  0  0  0  0  0  0  0
    2.7088   -1.6542  -16.5972 H   0  0  0  0  0  0  0  0  0  0  0  0
    3.7325   -2.5311  -17.7056 H   0  0  0  0  0  0  0  0  0  0  0  0
    5.8372   -1.4645  -17.4507 C   0  0  0  0  0  0  0  0  0  0  0  0
    5.7621   -2.4859  -18.1431 O   0  0  0  0  0  0  0  0  0  0  0  0
    7.1639   -0.9911  -17.2292 N   0  0  0  0  0  0  0  0  0  0  0  0
    7.9648   -1.5087  -17.6110 H   0  0  0  0  0  0  0  0  0  0  0  0
    4.9610    2.9885  -12.5891 C   0  0  0  0  0  0  0  0  0  0  0  0
    5.5311    4.1770  -11.9751 C   0  0  0  0  0  0  0  0  0  0  0  0
    6.8575    4.5299  -12.5171 C   0  0  0  0  0  0  0  0  0  0  0  0
    7.4888    5.6389  -12.0039 C   0  0  0  0  0  0  0  0  0  0  0  0
    8.7348    6.0532  -12.4456 C   0  0  0  0  0  0  0  0  0  0  0  0
    9.3365    5.3052  -13.4363 C   0  0  0  0  0  0  0  0  0  0  0  0
    8.7315    4.1665  -13.9904 C   0  0  0  0  0  0  0  0  0  0  0  0
    7.4926    3.8072  -13.5080 C   0  0  0  0  0  0  0  0  0  0  0  0
    9.3938    7.1979  -11.9202 N   0  0  0  0  0  0  0  0  0  0  0  0
    9.7175    7.1627  -10.6599 C   0  0  0  0  0  0  0  0  0  0  0  0
   10.3505    8.2163  -10.0790 N   0  0  0  0  0  0  0  0  0  0  0  0
   10.6793    8.1660   -8.7752 C   0  0  0  0  0  0  0  0  0  0  0  0
   11.3262    9.2225   -8.1472 C   0  0  0  0  0  0  0  0  0  0  0  0
   11.6602    9.1641   -6.8105 C   0  0  0  0  0  0  0  0  0  0  0  0
   11.3711    8.0610   -6.0331 C   0  0  0  0  0  0  0  0  0  0  0  0
   10.7288    7.0092   -6.6521 C   0  0  0  0  0  0  0  0  0  0  0  0
   10.3952    7.0689   -7.9895 C   0  0  0  0  0  0  0  0  0  0  0  0
    9.7675    6.0432   -8.5974 N   0  0  0  0  0  0  0  0  0  0  0  0
    9.4468    6.0997   -9.8819 N   0  0  0  0  0  0  0  0  0  0  0  0
    8.9541    5.2972  -10.3636 H   0  0  0  0  0  0  0  0  0  0  0  0
   11.7271    8.0020   -4.6144 C   0  0  0  0  0  0  0  0  0  0  0  0
   12.1071    9.1558   -3.9735 C   0  0  0  0  0  0  0  0  0  0  0  0
   12.4511    9.1490   -2.6377 C   0  0  0  0  0  0  0  0  0  0  0  0
   12.4262    7.9854   -1.8969 C   0  0  0  0  0  0  0  0  0  0  0  0
   12.0456    6.8249   -2.5349 C   0  0  0  0  0  0  0  0  0  0  0  0
   11.7012    6.8377   -3.8768 C   0  0  0  0  0  0  0  0  0  0  0  0
  1  2  1  0
  2  3  1  0
  3  4  2  0
  4  5  1  0
  5  6  2  0
  6  7  1  0
  7  8  1  0
  8  9  2  0
  9 10  1  0
 10 11  1  0
 11 12  1  1
 12 13  1  0
 12 14  1  0
 11 15  1  0
 15 16  2  0
 15 17  1  0
 17 18  1  0
  7 19  2  0
 19 20  1  0
 20 21  1  0
 21 22  2  0
 22 23  1  0
 23 27  1  0
 27 28  2  0
 28 29  1  0
 29 30  2  0
 30 31  1  0
 31 32  2  0
 32 33  1  0
 33 39  1  0
 39 40  2  0
 40 41  1  0
 41 42  2  0
 42 43  1  0
 43 44  2  0
 33 34  2  0
 34 35  1  0
 35 36  2  0
 36 37  1  0
 37 38  1  0
 23 24  2  0
 24 25  1  0
 25 26  2  0
 17  3  1  0
 26 21  1  0
  9  4  1  0
 37 28  1  0
 26  6  1  0
 35 30  1  0
 44 39  1  0
M  END
>  <minimizedAffinity>  (16) 
-18.20215

$$$$
Mol: 198_27 - SminaDock
     RDKit          3D

 41 48  0  0  0  0  0  0  0  0999 V2000
    1.7098   -1.3773  -14.4396 H   0  0  0  0  0  0  0  0  0  0  0  0
    2.4893   -0.9310  -13.9404 O   0  0  0  0  0  0  0  0  0  0  0  0
    3.6238   -0.5346  -14.6385 C   0  0  0  0  0  0  0  0  0  0  0  0
    4.0815   -1.0614  -15.7059 N   0  0  0  0  0  0  0  0  0  0  0  0
    5.2696   -0.4059  -16.1620 C   0  0  1  0  0  0  0  0  0  0  0  0
    6.2899   -1.3572  -16.1595 O   0  0  0  0  0  0  0  0  0  0  0  0
    5.7269   -2.5305  -16.6805 C   0  0  0  0  0  0  0  0  0  0  0  0
    5.0201   -2.1428  -17.9529 C   0  0  0  0  0  0  0  0  0  0  0  0
    5.3868   -0.9068  -18.4392 O   0  0  0  0  0  0  0  0  0  0  0  0
    5.1229    0.1388  -17.5692 C   0  0  0  0  0  0  0  0  0  0  0  0
    5.5032    0.6626  -15.1766 C   0  0  0  0  0  0  0  0  0  0  0  0
    6.5061    1.6350  -15.0824 C   0  0  0  0  0  0  0  0  0  0  0  0
    6.4619    2.5256  -14.0185 C   0  0  0  0  0  0  0  0  0  0  0  0
    5.4567    2.4433  -13.0920 C   0  0  0  0  0  0  0  0  0  0  0  0
    4.4512    1.4699  -13.1848 C   0  0  0  0  0  0  0  0  0  0  0  0
    4.5003    0.5898  -14.2416 C   0  0  0  0  0  0  0  0  0  0  0  0
    5.6734    3.5081  -12.0948 C   0  0  0  0  0  0  0  0  0  0  0  0
    6.8863    4.2039  -12.5302 C   0  0  0  0  0  0  0  0  0  0  0  0
    7.5520    5.3006  -11.9524 C   0  0  0  0  0  0  0  0  0  0  0  0
    8.6880    5.8101  -12.5233 C   0  0  0  0  0  0  0  0  0  0  0  0
    9.1758    5.2411  -13.6694 C   0  0  0  0  0  0  0  0  0  0  0  0
    8.5173    4.1498  -14.2482 C   0  0  0  0  0  0  0  0  0  0  0  0
    7.3741    3.6327  -13.6787 C   0  0  0  0  0  0  0  0  0  0  0  0
    9.3384    6.9080  -11.9293 N   0  0  0  0  0  0  0  0  0  0  0  0
    9.6386    6.8700  -10.6848 C   0  0  0  0  0  0  0  0  0  0  0  0
    9.3184    5.7530   -9.9508 C   0  0  0  0  0  0  0  0  0  0  0  0
    9.6568    5.7353   -8.5973 C   0  0  0  0  0  0  0  0  0  0  0  0
   10.2955    6.8008   -7.9962 C   0  0  0  0  0  0  0  0  0  0  0  0
   10.6384    6.7968   -6.6499 C   0  0  0  0  0  0  0  0  0  0  0  0
   11.2772    7.8700   -6.0626 C   0  0  0  0  0  0  0  0  0  0  0  0
   11.5633    8.9529   -6.8686 C   0  0  0  0  0  0  0  0  0  0  0  0
   11.2225    8.9619   -8.2153 C   0  0  0  0  0  0  0  0  0  0  0  0
   10.5842    7.8863   -8.7971 C   0  0  0  0  0  0  0  0  0  0  0  0
   10.2644    7.9215  -10.1083 N   0  0  0  0  0  0  0  0  0  0  0  0
   10.4752    8.7345  -10.7282 H   0  0  0  0  0  0  0  0  0  0  0  0
   11.6431    7.8757   -4.6446 C   0  0  0  0  0  0  0  0  0  0  0  0
   11.6504    6.7365   -3.8719 C   0  0  0  0  0  0  0  0  0  0  0  0
   12.0090    6.8395   -2.5451 C   0  0  0  0  0  0  0  0  0  0  0  0
   12.3604    8.0482   -1.9676 C   0  0  0  0  0  0  0  0  0  0  0  0
   12.3530    9.1965   -2.7465 C   0  0  0  0  0  0  0  0  0  0  0  0
   11.9952    9.0739   -4.0580 C   0  0  0  0  0  0  0  0  0  0  0  0
  1  2  1  0
  2  3  1  0
  3  4  2  0
  4  5  1  0
  5  6  1  0
  6  7  1  0
  7  8  1  0
  8  9  1  0
  9 10  1  0
  5 11  1  0
 11 12  2  0
 12 13  1  0
 13 14  2  0
 14 15  1  0
 15 16  2  0
 14 17  1  0
 17 18  1  0
 18 19  2  0
 19 20  1  0
 20 24  1  0
 24 25  2  0
 25 26  1  0
 26 27  2  0
 27 28  1  0
 28 29  2  0
 29 30  1  0
 30 36  1  0
 36 37  2  0
 37 38  1  0
 38 39  2  0
 39 40  1  0
 40 41  2  0
 30 31  2  0
 31 32  1  0
 32 33  2  0
 33 34  1  0
 34 35  1  0
 20 21  2  0
 21 22  1  0
 22 23  2  0
 16  3  1  0
 23 18  1  0
  5 10  1  6
 16 11  1  0
 34 25  1  0
 23 13  1  0
 33 28  1  0
 41 36  1  0
M  END
>  <minimizedAffinity>  (17) 
-18.24552

$$$$
Mol: 199_28 - SminaDock
     RDKit          3D

 41 48  0  0  0  0  0  0  0  0999 V2000
    8.6819    5.7475  -12.3330 C   0  0  0  0  0  0  0  0  0  0  0  0
    9.2377    5.1273  -13.4392 C   0  0  0  0  0  0  0  0  0  0  0  0
    8.5933    4.0649  -14.0333 C   0  0  0  0  0  0  0  0  0  0  0  0
    7.3759    3.5659  -13.5668 C   0  0  0  0  0  0  0  0  0  0  0  0
    6.8290    4.1830  -12.4707 C   0  0  0  0  0  0  0  0  0  0  0  0
    7.4815    5.2603  -11.8677 C   0  0  0  0  0  0  0  0  0  0  0  0
    5.5606    3.4849  -12.1724 C   0  0  0  0  0  0  0  0  0  0  0  0
    5.4239    2.4204  -13.1840 C   0  0  0  0  0  0  0  0  0  0  0  0
    4.4385    1.4469  -13.4080 C   0  0  0  0  0  0  0  0  0  0  0  0
    4.5387    0.5433  -14.4427 C   0  0  0  0  0  0  0  0  0  0  0  0
    5.6329    0.6062  -15.2678 C   0  0  0  0  0  0  0  0  0  0  0  0
    6.5991    1.5644  -15.0443 C   0  0  0  0  0  0  0  0  0  0  0  0
    6.5165    2.4791  -14.0122 C   0  0  0  0  0  0  0  0  0  0  0  0
    5.8065   -0.3334  -16.4006 C   0  0  2  0  0  0  0  0  0  0  0  0
    7.1231   -0.4533  -16.7722 O   0  0  0  0  0  0  0  0  0  0  0  0
    7.2401   -0.2005  -18.0750 N   0  0  0  0  0  0  0  0  0  0  0  0
    5.9894    0.1172  -18.6730 C   0  0  0  0  0  0  0  0  0  0  0  0
    5.6966    0.3091  -19.8779 O   0  0  0  0  0  0  0  0  0  0  0  0
    5.0202    0.1896  -17.5608 C   0  0  0  0  0  0  0  0  0  0  0  0
    5.2966   -1.6675  -15.9561 C   0  0  0  0  0  0  0  0  0  0  0  0
    5.8696   -2.7386  -16.2670 O   0  0  0  0  0  0  0  0  0  0  0  0
    4.1527   -1.6622  -15.1789 O   0  0  0  0  0  0  0  0  0  0  0  0
    3.5251   -0.4948  -14.7114 C   0  0  0  0  0  0  0  0  0  0  0  0
   11.3755    7.9905   -5.9372 C   0  0  0  0  0  0  0  0  0  0  0  0
   11.6478    9.0625   -6.7630 C   0  0  0  0  0  0  0  0  0  0  0  0
   11.2908    9.0461   -8.1011 C   0  0  0  0  0  0  0  0  0  0  0  0
   10.6511    7.9374   -8.6171 C   0  0  0  0  0  0  0  0  0  0  0  0
   10.3598    6.8461   -7.8299 C   0  0  0  0  0  0  0  0  0  0  0  0
   10.7349    6.9041   -6.4957 C   0  0  0  0  0  0  0  0  0  0  0  0
    9.7170    5.7338   -8.3516 C   0  0  0  0  0  0  0  0  0  0  0  0
    9.3847    5.7735   -9.6924 C   0  0  0  0  0  0  0  0  0  0  0  0
    9.6726    6.8618  -10.4871 C   0  0  0  0  0  0  0  0  0  0  0  0
    9.3450    6.8479  -11.7150 N   0  0  0  0  0  0  0  0  0  0  0  0
   10.2967    7.9071   -9.9205 N   0  0  0  0  0  0  0  0  0  0  0  0
   10.5094    8.7350  -10.5492 H   0  0  0  0  0  0  0  0  0  0  0  0
   12.4639    8.0106   -1.8053 C   0  0  0  0  0  0  0  0  0  0  0  0
   12.4458    9.1658   -2.5585 C   0  0  0  0  0  0  0  0  0  0  0  0
   12.0946    9.1728   -3.8991 C   0  0  0  0  0  0  0  0  0  0  0  0
   11.7464    7.9979   -4.5284 C   0  0  0  0  0  0  0  0  0  0  0  0
   11.7623    6.8412   -3.7829 C   0  0  0  0  0  0  0  0  0  0  0  0
   12.1146    6.8353   -2.4387 C   0  0  0  0  0  0  0  0  0  0  0  0
 36 37  2  0
 37 38  1  0
 38 39  2  0
 39 24  1  0
 24 25  2  0
 25 26  1  0
 26 27  2  0
 27 28  1  0
 28 29  2  0
 28 30  1  0
 30 31  2  0
 31 32  1  0
 32 33  2  0
 33  1  1  0
  1  2  2  0
  2  3  1  0
  3  4  2  0
  4  5  1  0
  5  6  2  0
  5  7  1  0
  7  8  1  0
  8  9  2  0
  9 10  1  0
 10 11  2  0
 11 12  1  0
 12 13  2  0
 11 14  1  0
 14 15  1  0
 15 16  1  0
 16 17  1  0
 17 18  2  0
 17 19  1  0
 14 20  1  0
 20 21  2  0
 20 22  1  0
 22 23  1  0
 32 34  1  0
 34 35  1  0
 39 40  1  0
 40 41  2  0
 41 36  1  0
 29 24  1  0
  6  1  1  0
 13  8  1  0
 14 19  1  6
 34 27  1  0
 13  4  1  0
 23 10  1  0
M  CHG  1  16  -1
M  END
>  <minimizedAffinity>  (18) 
-18.18464

$$$$
Mol: 200_9 - SminaDock
     RDKit          3D

 43 50  0  0  0  0  0  0  0  0999 V2000
    2.8133   -1.6774  -13.3330 H   0  0  0  0  0  0  0  0  0  0  0  0
    2.9125   -0.8091  -13.8368 O   0  0  0  0  0  0  0  0  0  0  0  0
    3.8874   -0.5843  -14.7900 C   0  0  0  0  0  0  0  0  0  0  0  0
    3.9622   -1.3309  -15.8640 C   0  0  0  0  0  0  0  0  0  0  0  0
    4.9761   -1.1257  -16.8730 C   0  0  0  0  0  0  0  0  0  0  0  0
    4.9928   -1.9288  -17.9018 O   0  0  0  0  0  0  0  0  0  0  0  0
    5.9781   -0.0580  -16.7828 C   0  0  1  0  0  0  0  0  0  0  0  0
    5.8020    0.7228  -15.5325 C   0  0  0  0  0  0  0  0  0  0  0  0
    6.6895    1.7781  -15.2923 C   0  0  0  0  0  0  0  0  0  0  0  0
    6.6386    2.5824  -14.1768 C   0  0  0  0  0  0  0  0  0  0  0  0
    5.6494    2.3373  -13.2281 C   0  0  0  0  0  0  0  0  0  0  0  0
    4.7713    1.3055  -13.4501 C   0  0  0  0  0  0  0  0  0  0  0  0
    4.8420    0.4976  -14.5961 C   0  0  0  0  0  0  0  0  0  0  0  0
    5.8020    3.3189  -12.1405 C   0  0  0  0  0  0  0  0  0  0  0  0
    6.9602    4.1506  -12.5375 C   0  0  0  0  0  0  0  0  0  0  0  0
    7.5648    5.2174  -11.9164 C   0  0  0  0  0  0  0  0  0  0  0  0
    8.6633    5.8840  -12.4530 C   0  0  0  0  0  0  0  0  0  0  0  0
    9.1383    5.4265  -13.6613 C   0  0  0  0  0  0  0  0  0  0  0  0
    8.5279    4.3448  -14.2945 C   0  0  0  0  0  0  0  0  0  0  0  0
    7.4474    3.7186  -13.7280 C   0  0  0  0  0  0  0  0  0  0  0  0
    7.3959   -0.6401  -16.7771 C   0  0  0  0  0  0  0  0  0  0  0  0
    7.9470   -0.6958  -18.1518 C   0  0  0  0  0  0  0  0  0  0  0  0
    7.0201   -0.9190  -19.1398 O   0  0  0  0  0  0  0  0  0  0  0  0
    6.0873    0.0992  -19.2396 C   0  0  0  0  0  0  0  0  0  0  0  0
    5.8904    0.8631  -17.9857 C   0  0  0  0  0  0  0  0  0  0  0  0
    9.2475    6.9816  -11.7592 N   0  0  0  0  0  0  0  0  0  0  0  0
    9.5631    6.8951  -10.5327 C   0  0  0  0  0  0  0  0  0  0  0  0
    9.3756    5.7532   -9.7643 C   0  0  0  0  0  0  0  0  0  0  0  0
    9.7470    5.7256   -8.4240 C   0  0  0  0  0  0  0  0  0  0  0  0
   10.3121    6.8303   -7.8171 C   0  0  0  0  0  0  0  0  0  0  0  0
   10.6952    6.8362   -6.4782 C   0  0  0  0  0  0  0  0  0  0  0  0
   11.2589    7.9508   -5.8895 C   0  0  0  0  0  0  0  0  0  0  0  0
   11.4293    9.0680   -6.6873 C   0  0  0  0  0  0  0  0  0  0  0  0
   11.0499    9.0608   -8.0119 C   0  0  0  0  0  0  0  0  0  0  0  0
   10.4833    7.9458   -8.6096 C   0  0  0  0  0  0  0  0  0  0  0  0
   10.1212    7.9634   -9.9049 N   0  0  0  0  0  0  0  0  0  0  0  0
   10.2605    8.8273  -10.4945 H   0  0  0  0  0  0  0  0  0  0  0  0
   11.6693    7.9926   -4.4931 C   0  0  0  0  0  0  0  0  0  0  0  0
   11.9625    9.1638   -3.8311 C   0  0  0  0  0  0  0  0  0  0  0  0
   12.3537    9.2244   -2.5128 C   0  0  0  0  0  0  0  0  0  0  0  0
   12.4620    8.0489   -1.8025 C   0  0  0  0  0  0  0  0  0  0  0  0
   12.1750    6.8583   -2.4377 C   0  0  0  0  0  0  0  0  0  0  0  0
   11.7845    6.8293   -3.7627 C   0  0  0  0  0  0  0  0  0  0  0  0
  1  2  1  0
  2  3  1  0
  3  4  2  0
  4  5  1  0
  5  6  2  0
  5  7  1  0
  7  8  1  0
  8  9  2  0
  9 10  1  0
 10 11  2  0
 11 12  1  0
 12 13  2  0
 11 14  1  0
 14 15  1  0
 15 16  2  0
 16 17  1  0
 17 26  1  0
 26 27  2  0
 27 28  1  0
 28 29  2  0
 29 30  1  0
 30 31  2  0
 31 32  1  0
 32 38  1  0
 38 39  2  0
 39 40  1  0
 40 41  2  0
 41 42  1  0
 42 43  2  0
 32 33  2  0
 33 34  1  0
 34 35  2  0
 35 36  1  0
 36 37  1  0
 17 18  2  0
 18 19  1  0
 19 20  2  0
  7 21  1  1
 21 22  1  0
 22 23  1  0
 23 24  1  0
 24 25  1  0
 13  3  1  0
 20 15  1  0
 25  7  1  0
 13  8  1  0
 36 27  1  0
 20 10  1  0
 35 30  1  0
 43 38  1  0
M  END
>  <minimizedAffinity>  (19) 
-18.18105

$$$$
Mol: 152_4 - SminaDock
     RDKit          3D

 44 50  0  0  0  0  0  0  0  0999 V2000
    8.7563    5.8678  -12.3507 C   0  0  0  0  0  0  0  0  0  0  0  0
    9.4532    5.0927  -13.2461 C   0  0  0  0  0  0  0  0  0  0  0  0
    8.8344    3.9770  -13.7663 C   0  0  0  0  0  0  0  0  0  0  0  0
    7.5269    3.6364  -13.3948 C   0  0  0  0  0  0  0  0  0  0  0  0
    6.8556    4.4245  -12.5017 C   0  0  0  0  0  0  0  0  0  0  0  0
    7.4746    5.5584  -11.9685 C   0  0  0  0  0  0  0  0  0  0  0  0
    5.4961    4.1535  -12.0445 C   0  0  0  0  0  0  0  0  0  0  0  0
    4.7920    2.9796  -12.6190 C   0  0  0  0  0  0  0  0  0  0  0  0
    5.5804    2.1626  -13.5671 C   0  0  0  0  0  0  0  0  0  0  0  0
    4.9727    1.0292  -14.1034 C   0  0  0  0  0  0  0  0  0  0  0  0
    5.6631    0.2330  -14.9995 C   0  0  0  0  0  0  0  0  0  0  0  0
    6.9493    0.5176  -15.3920 C   0  0  0  0  0  0  0  0  0  0  0  0
    7.5571    1.6610  -14.8480 C   0  0  0  0  0  0  0  0  0  0  0  0
    6.8706    2.4516  -13.9574 C   0  0  0  0  0  0  0  0  0  0  0  0
    7.8556   -0.1807  -16.3245 C   0  0  0  0  0  0  0  0  0  0  0  0
    9.2220    0.0402  -16.1488 N   0  0  0  0  0  0  0  0  0  0  0  0
    9.7511    0.7733  -16.6694 H   0  0  0  0  0  0  0  0  0  0  0  0
    9.7422   -0.5541  -15.4652 H   0  0  0  0  0  0  0  0  0  0  0  0
    7.5250   -0.9709  -17.2867 N   0  0  0  0  0  0  0  0  0  0  0  0
    8.2468   -1.4090  -17.8817 H   0  0  0  0  0  0  0  0  0  0  0  0
    6.2057   -1.3255  -17.6425 N   0  0  0  0  0  0  0  0  0  0  0  0
    6.0768   -1.8096  -18.5672 H   0  0  0  0  0  0  0  0  0  0  0  0
    5.0156   -1.1081  -16.9001 C   0  0  0  0  0  0  0  0  0  0  0  0
    3.9686   -1.0610  -17.5780 O   0  0  0  0  0  0  0  0  0  0  0  0
    4.8703   -0.9363  -15.4622 C   0  0  2  0  0  0  0  0  0  0  0  0
    3.4341   -0.8964  -15.0065 C   0  0  0  0  0  0  0  0  0  0  0  0
   11.3228    8.0542   -6.0045 C   0  0  0  0  0  0  0  0  0  0  0  0
   11.5881    9.1537   -6.7938 C   0  0  0  0  0  0  0  0  0  0  0  0
   11.2493    9.1704   -8.1357 C   0  0  0  0  0  0  0  0  0  0  0  0
   10.6341    8.0835   -8.7245 C   0  0  0  0  0  0  0  0  0  0  0  0
   10.3699    6.9860   -7.9345 C   0  0  0  0  0  0  0  0  0  0  0  0
    9.7561    5.8674   -8.4672 C   0  0  0  0  0  0  0  0  0  0  0  0
    9.4404    5.9121   -9.7668 N   0  0  0  0  0  0  0  0  0  0  0  0
    9.6993    6.9939  -10.5511 C   0  0  0  0  0  0  0  0  0  0  0  0
    9.3862    7.0192  -11.8093 N   0  0  0  0  0  0  0  0  0  0  0  0
   10.2925    8.0778  -10.0413 N   0  0  0  0  0  0  0  0  0  0  0  0
   10.5016    8.9212  -10.6236 H   0  0  0  0  0  0  0  0  0  0  0  0
   10.7086    6.9715   -6.5968 C   0  0  0  0  0  0  0  0  0  0  0  0
   12.3818    7.9450   -1.8622 C   0  0  0  0  0  0  0  0  0  0  0  0
   12.3843    9.1305   -2.5597 C   0  0  0  0  0  0  0  0  0  0  0  0
   12.0451    9.2027   -3.9088 C   0  0  0  0  0  0  0  0  0  0  0  0
   11.6910    8.0634   -4.5925 C   0  0  0  0  0  0  0  0  0  0  0  0
   11.6918    6.8648   -3.8740 C   0  0  0  0  0  0  0  0  0  0  0  0
   12.0285    6.8043   -2.5417 C   0  0  0  0  0  0  0  0  0  0  0  0
 39 40  2  0
 40 41  1  0
 41 42  2  0
 42 27  1  0
 27 28  2  0
 28 29  1  0
 29 30  2  0
 30 31  1  0
 31 32  1  0
 32 33  2  0
 33 34  1  0
 34 35  2  0
 35  1  1  0
  1  2  2  0
  2  3  1  0
  3  4  2  0
  4  5  1  0
  5  6  2  0
  5  7  1  0
  7  8  1  0
  8  9  1  0
  9 10  2  0
 10 11  1  0
 11 12  2  0
 12 13  1  0
 13 14  2  0
 12 15  1  0
 15 16  1  0
 16 17  1  0
 16 18  1  0
 15 19  2  0
 19 20  1  0
 19 21  1  0
 21 22  1  0
 21 23  1  0
 23 24  2  0
 23 25  1  0
 25 26  1  6
 34 36  1  0
 36 37  1  0
 31 38  2  0
 42 43  1  0
 43 44  2  0
 44 39  1  0
 38 27  1  0
 36 30  1  0
  6  1  1  0
 14  9  1  0
 14  4  1  0
 25 11  1  0
M  CHG  1  19   1
M  END
>  <minimizedAffinity>  (20) 
-18.24736

$$$$
Mol: 197_58 - SminaDock
     RDKit          3D

 49 58  0  0  0  0  0  0  0  0999 V2000
    9.5183   -1.3219  -18.5282 C   0  0  0  0  0  0  0  0  0  0  0  0
    8.2160   -1.2418  -18.8104 C   0  0  0  0  0  0  0  0  0  0  0  0
    7.2768   -2.2331  -19.1547 N   0  0  0  0  0  0  0  0  0  0  0  0
    7.4323   -3.1466  -20.1254 C   0  0  0  0  0  0  0  0  0  0  0  0
    6.3673   -3.9457  -20.1687 N   0  0  0  0  0  0  0  0  0  0  0  0
    5.5717   -3.5169  -19.2275 N   0  0  0  0  0  0  0  0  0  0  0  0
    6.0982   -2.4668  -18.5841 C   0  0  0  0  0  0  0  0  0  0  0  0
    5.4354   -1.7828  -17.4694 C   0  0  0  0  0  0  0  0  0  0  0  0
    6.0526   -1.2383  -16.4323 O   0  0  0  0  0  0  0  0  0  0  0  0
    6.3938   -0.1169  -15.7483 C   0  0  0  0  0  0  0  0  0  0  0  0
    5.6513    0.5036  -14.7521 C   0  0  0  0  0  0  0  0  0  0  0  0
    6.0764    1.6477  -14.1037 C   0  0  0  0  0  0  0  0  0  0  0  0
    7.2873    2.1966  -14.4565 C   0  0  0  0  0  0  0  0  0  0  0  0
    8.0768    1.6390  -15.4327 C   0  0  0  0  0  0  0  0  0  0  0  0
    7.6469    0.4918  -16.0825 C   0  0  0  0  0  0  0  0  0  0  0  0
    8.3901   -0.1143  -17.0827 C   0  0  2  0  0  0  0  0  0  0  0  0
    9.8047   -0.2910  -17.3931 C   0  0  0  0  0  0  0  0  0  0  0  0
    7.9564    0.1755  -18.5274 C   0  0  1  0  0  0  0  0  0  0  0  0
    9.0464    0.9556  -19.2942 C   0  0  0  0  0  0  0  0  0  0  0  0
    8.3534    1.4318  -20.5867 C   0  0  0  0  0  0  0  0  0  0  0  0
    7.3526    0.5674  -20.9891 O   0  0  0  0  0  0  0  0  0  0  0  0
    6.2295    0.6341  -20.1660 C   0  0  0  0  0  0  0  0  0  0  0  0
    6.7561    0.8710  -18.7648 C   0  0  0  0  0  0  0  0  0  0  0  0
    7.7297    3.3752  -13.7205 C   0  0  0  0  0  0  0  0  0  0  0  0
    8.9168    4.0211  -14.0667 C   0  0  0  0  0  0  0  0  0  0  0  0
    9.3473    5.1799  -13.4235 C   0  0  0  0  0  0  0  0  0  0  0  0
    8.5964    5.7234  -12.4132 C   0  0  0  0  0  0  0  0  0  0  0  0
    7.4336    5.1046  -12.0610 C   0  0  0  0  0  0  0  0  0  0  0  0
    6.9909    3.9285  -12.7080 C   0  0  0  0  0  0  0  0  0  0  0  0
    5.7485    3.2949  -12.2269 C   0  0  0  0  0  0  0  0  0  0  0  0
    5.2020    2.2692  -13.0902 C   0  0  0  0  0  0  0  0  0  0  0  0
    9.0361    6.9279  -11.7407 N   0  0  0  0  0  0  0  0  0  0  0  0
    9.4284    6.8852  -10.5064 C   0  0  0  0  0  0  0  0  0  0  0  0
    9.4512    5.7579   -9.7958 N   0  0  0  0  0  0  0  0  0  0  0  0
    9.8578    5.7273   -8.5280 C   0  0  0  0  0  0  0  0  0  0  0  0
   10.2806    6.8877   -7.8877 C   0  0  0  0  0  0  0  0  0  0  0  0
   10.7051    6.8716   -6.5756 C   0  0  0  0  0  0  0  0  0  0  0  0
   11.1166    8.0404   -5.9766 C   0  0  0  0  0  0  0  0  0  0  0  0
   11.0837    9.1995   -6.7370 C   0  0  0  0  0  0  0  0  0  0  0  0
   10.6611    9.2087   -8.0391 C   0  0  0  0  0  0  0  0  0  0  0  0
   10.2417    8.0301   -8.6569 C   0  0  0  0  0  0  0  0  0  0  0  0
    9.8263    8.0316   -9.9349 N   0  0  0  0  0  0  0  0  0  0  0  0
    9.8220    8.9413  -10.4646 H   0  0  0  0  0  0  0  0  0  0  0  0
   11.5778    8.0830   -4.5891 C   0  0  0  0  0  0  0  0  0  0  0  0
   11.8856    9.2641   -3.9886 C   0  0  0  0  0  0  0  0  0  0  0  0
   12.3227    9.2953   -2.6721 C   0  0  0  0  0  0  0  0  0  0  0  0
   12.4512    8.1341   -1.9547 C   0  0  0  0  0  0  0  0  0  0  0  0
   12.1400    6.9201   -2.5560 C   0  0  0  0  0  0  0  0  0  0  0  0
   11.7005    6.9071   -3.8851 C   0  0  0  0  0  0  0  0  0  0  0  0
  1  2  2  0
  2  3  1  0
  3  4  1  0
  4  5  2  0
  5  6  1  0
  6  7  2  0
  7  8  1  0
  8  9  1  0
  9 10  1  0
 10 11  2  0
 11 12  1  0
 12 13  2  0
 13 14  1  0
 14 15  2  0
 15 16  1  0
 16 17  1  6
 16 18  1  0
 18 19  1  6
 19 20  1  0
 20 21  1  0
 21 22  1  0
 22 23  1  0
 13 24  1  0
 24 25  2  0
 25 26  1  0
 26 27  2  0
 27 32  1  0
 32 33  2  0
 33 34  1  0
 34 35  2  0
 35 36  1  0
 36 37  2  0
 37 38  1  0
 38 44  1  0
 44 45  2  0
 45 46  1  0
 46 47  2  0
 47 48  1  0
 48 49  2  0
 38 39  2  0
 39 40  1  0
 40 41  2  0
 41 42  1  0
 42 43  1  0
 27 28  1  0
 28 29  2  0
 29 30  1  0
 30 31  1  0
 17  1  1  0
 23 18  1  0
 29 24  1  0
 18  2  1  0
 42 33  1  0
  7  3  1  0
 15 10  1  0
 41 36  1  0
 31 12  1  0
 49 44  1  0
M  END
>  <minimizedAffinity>  (21) 
-18.18209

$$$$
Mol: 199_17 - SminaDock
     RDKit          3D

 44 51  0  0  0  0  0  0  0  0999 V2000
    5.4373   -0.8462  -18.0607 H   0  0  0  0  0  0  0  0  0  0  0  0
    5.7119   -1.2378  -17.1554 O   0  0  0  0  0  0  0  0  0  0  0  0
    5.1351   -0.6733  -16.0180 C   0  0  0  0  0  0  0  0  0  0  0  0
    3.9809   -1.2116  -15.4898 C   0  0  0  0  0  0  0  0  0  0  0  0
    3.4504   -0.6085  -14.3558 C   0  0  0  0  0  0  0  0  0  0  0  0
    4.0374    0.4894  -13.7609 C   0  0  0  0  0  0  0  0  0  0  0  0
    5.1999    0.9906  -14.3356 C   0  0  0  0  0  0  0  0  0  0  0  0
    5.7797    2.1023  -13.7188 C   0  0  0  0  0  0  0  0  0  0  0  0
    6.9223    2.6327  -14.2443 C   0  0  0  0  0  0  0  0  0  0  0  0
    7.4735    2.0595  -15.3695 C   0  0  0  0  0  0  0  0  0  0  0  0
    6.9190    0.9489  -16.0079 C   0  0  0  0  0  0  0  0  0  0  0  0
    5.7678    0.4352  -15.4553 C   0  0  0  0  0  0  0  0  0  0  0  0
    8.6665    2.6532  -15.9463 C   0  0  0  0  0  0  0  0  0  0  0  0
    9.0284    2.2380  -17.1192 O   0  0  0  0  0  0  0  0  0  0  0  0
    9.4525    3.6847  -15.2552 C   0  0  2  0  0  0  0  0  0  0  0  0
    8.7371    4.2634  -14.1084 C   0  0  0  0  0  0  0  0  0  0  0  0
    9.3270    5.3745  -13.4984 C   0  0  0  0  0  0  0  0  0  0  0  0
    8.7675    5.9741  -12.4056 C   0  0  0  0  0  0  0  0  0  0  0  0
    7.5954    5.4782  -11.8874 C   0  0  0  0  0  0  0  0  0  0  0  0
    6.9927    4.3844  -12.4700 C   0  0  0  0  0  0  0  0  0  0  0  0
    7.5561    3.7773  -13.5745 C   0  0  0  0  0  0  0  0  0  0  0  0
    9.8122    4.7335  -16.2864 C   0  0  0  0  0  0  0  0  0  0  0  0
   11.2766    4.8684  -16.5161 C   0  0  0  0  0  0  0  0  0  0  0  0
   11.9377    3.6875  -16.7099 O   0  0  0  0  0  0  0  0  0  0  0  0
   11.5955    2.6653  -15.8687 C   0  0  0  0  0  0  0  0  0  0  0  0
   10.7215    3.0175  -14.7182 C   0  0  0  0  0  0  0  0  0  0  0  0
    9.3955    7.0993  -11.8141 N   0  0  0  0  0  0  0  0  0  0  0  0
    9.7035    7.0656  -10.5821 C   0  0  0  0  0  0  0  0  0  0  0  0
   10.2974    8.1120   -9.9944 N   0  0  0  0  0  0  0  0  0  0  0  0
   10.6455    8.1315   -8.6943 C   0  0  0  0  0  0  0  0  0  0  0  0
   11.2570    9.2102   -8.0917 C   0  0  0  0  0  0  0  0  0  0  0  0
   11.6074    9.2132   -6.7569 C   0  0  0  0  0  0  0  0  0  0  0  0
   11.3523    8.1053   -5.9497 C   0  0  0  0  0  0  0  0  0  0  0  0
   10.7397    7.0371   -6.5731 C   0  0  0  0  0  0  0  0  0  0  0  0
   10.3868    7.0263   -7.9055 C   0  0  0  0  0  0  0  0  0  0  0  0
    9.7751    5.9622   -8.5325 C   0  0  0  0  0  0  0  0  0  0  0  0
    9.4428    5.9835   -9.8379 N   0  0  0  0  0  0  0  0  0  0  0  0
    8.9797    5.1765  -10.3101 H   0  0  0  0  0  0  0  0  0  0  0  0
   11.7145    8.0904   -4.5404 C   0  0  0  0  0  0  0  0  0  0  0  0
   12.0725    9.1997   -3.8083 C   0  0  0  0  0  0  0  0  0  0  0  0
   12.4085    9.1224   -2.4622 C   0  0  0  0  0  0  0  0  0  0  0  0
   12.3828    7.8928   -1.8382 C   0  0  0  0  0  0  0  0  0  0  0  0
   12.0292    6.7688   -2.5449 C   0  0  0  0  0  0  0  0  0  0  0  0
   11.7008    6.8785   -3.8804 C   0  0  0  0  0  0  0  0  0  0  0  0
  1  2  1  0
  2  3  1  0
  3  4  2  0
  4  5  1  0
  5  6  2  0
  6  7  1  0
  7  8  2  0
  8  9  1  0
  9 10  2  0
 10 11  1  0
 11 12  2  0
 10 13  1  0
 13 14  2  0
 13 15  1  0
 15 16  1  0
 16 17  2  0
 17 18  1  0
 18 27  1  0
 27 28  2  0
 28 29  1  0
 29 30  2  0
 30 31  1  0
 31 32  2  0
 32 33  1  0
 33 39  1  0
 39 40  2  0
 40 41  1  0
 41 42  2  0
 42 43  1  0
 43 44  2  0
 33 34  2  0
 34 35  1  0
 35 36  2  0
 36 37  1  0
 37 38  1  0
 18 19  2  0
 19 20  1  0
 20 21  2  0
 15 22  1  6
 22 23  1  0
 23 24  1  0
 24 25  1  0
 25 26  1  0
 12  3  1  0
 26 15  1  0
 12  7  1  0
 21 16  1  0
 21  9  1  0
 37 28  1  0
 35 30  1  0
 44 39  1  0
M  END
>  <minimizedAffinity>  (22) 
-18.23939

$$$$
Mol: 132_2 - SminaDock
     RDKit          3D

 53 61  0  0  0  0  0  0  0  0999 V2000
    4.9529   -1.5840  -14.9850 O   0  0  0  0  0  0  0  0  0  0  0  0
    5.4334   -0.3800  -15.1835 C   0  0  0  0  0  0  0  0  0  0  0  0
    5.1938    0.2215  -16.4384 N   0  0  0  0  0  0  0  0  0  0  0  0
    6.2133    0.7247  -17.3343 C   0  0  0  0  0  0  0  0  0  0  0  0
    5.8902    0.9131  -18.5333 O   0  0  0  0  0  0  0  0  0  0  0  0
    7.4902    0.9757  -16.8269 C   0  0  2  0  0  0  0  0  0  0  0  0
    8.3852    2.0105  -17.5511 C   0  0  0  0  0  0  0  0  0  0  0  0
    9.3149    1.3046  -16.6805 N   0  0  0  0  0  0  0  0  0  0  0  0
    8.7327    0.2065  -17.2829 C   0  0  0  0  0  0  0  0  0  0  0  0
    9.3870   -0.8332  -17.8688 C   0  0  0  0  0  0  0  0  0  0  0  0
   10.5361   -0.7904  -18.6448 C   0  0  0  0  0  0  0  0  0  0  0  0
   10.8504    0.3640  -19.2711 C   0  0  0  0  0  0  0  0  0  0  0  0
   10.7849    1.4645  -20.1796 N   0  0  0  0  0  0  0  0  0  0  0  0
   11.7714    1.3956  -19.2308 C   0  0  0  0  0  0  0  0  0  0  0  0
   12.8790    1.8042  -18.5385 C   0  0  0  0  0  0  0  0  0  0  0  0
   13.1516    3.1499  -18.2818 C   0  0  0  0  0  0  0  0  0  0  0  0
   12.3433    4.2400  -18.1191 C   0  0  0  0  0  0  0  0  0  0  0  0
   11.4712    4.5592  -17.1019 C   0  0  0  0  0  0  0  0  0  0  0  0
   11.0995    3.8458  -15.9376 C   0  0  0  0  0  0  0  0  0  0  0  0
   11.1826    2.4635  -15.7840 C   0  0  0  0  0  0  0  0  0  0  0  0
   10.1520    1.5399  -15.7847 C   0  0  0  0  0  0  0  0  0  0  0  0
   10.1945    0.8922  -14.5871 O   0  0  0  0  0  0  0  0  0  0  0  0
   10.6393    4.7856  -14.8605 C   0  0  0  0  0  0  0  0  0  0  0  0
   11.5246    5.8323  -14.5343 C   0  0  0  0  0  0  0  0  0  0  0  0
   11.3173    6.7676  -13.5498 C   0  0  0  0  0  0  0  0  0  0  0  0
   10.1772    6.7294  -12.7950 C   0  0  0  0  0  0  0  0  0  0  0  0
    9.2787    5.7011  -13.1022 C   0  0  0  0  0  0  0  0  0  0  0  0
    9.4916    4.7520  -14.1064 C   0  0  0  0  0  0  0  0  0  0  0  0
    8.2866    3.9028  -14.2964 C   0  0  0  0  0  0  0  0  0  0  0  0
    7.8054    3.0491  -13.1936 C   0  0  0  0  0  0  0  0  0  0  0  0
    6.3441    2.7164  -13.5762 C   0  0  2  0  0  0  0  0  0  0  0  0
    5.4471    2.3153  -12.5218 C   0  0  0  0  0  0  0  0  0  0  0  0
    5.9219    1.3899  -13.4260 C   0  0  0  0  0  0  0  0  0  0  0  0
    6.1415    0.1687  -14.0841 N   0  0  0  0  0  0  0  0  0  0  0  0
    6.9411   -0.4510  -13.7045 H   0  0  0  0  0  0  0  0  0  0  0  0
    9.8694    7.6324  -11.7594 N   0  0  0  0  0  0  0  0  0  0  0  0
    9.4117    8.5582  -12.0114 H   0  0  0  0  0  0  0  0  0  0  0  0
   10.1186    7.4112  -10.4015 C   0  0  0  0  0  0  0  0  0  0  0  0
    9.7870    6.3307   -9.6917 N   0  0  0  0  0  0  0  0  0  0  0  0
   10.0347    6.1819   -8.3826 C   0  0  0  0  0  0  0  0  0  0  0  0
   10.6669    7.1650   -7.6566 C   0  0  0  0  0  0  0  0  0  0  0  0
   10.9345    7.0595   -6.3118 C   0  0  0  0  0  0  0  0  0  0  0  0
   11.5641    8.0688   -5.6154 C   0  0  0  0  0  0  0  0  0  0  0  0
   11.9217    9.2019   -6.3207 C   0  0  0  0  0  0  0  0  0  0  0  0
   11.6558    9.3106   -7.6606 C   0  0  0  0  0  0  0  0  0  0  0  0
   11.0204    8.2981   -8.3723 C   0  0  0  0  0  0  0  0  0  0  0  0
   10.7552    8.4030   -9.6736 N   0  0  0  0  0  0  0  0  0  0  0  0
   11.8599    8.0172   -4.2054 C   0  0  0  0  0  0  0  0  0  0  0  0
   11.8903    6.8181   -3.5156 C   0  0  0  0  0  0  0  0  0  0  0  0
   12.1786    6.7458   -2.1802 C   0  0  0  0  0  0  0  0  0  0  0  0
   12.4461    7.9090   -1.4964 C   0  0  0  0  0  0  0  0  0  0  0  0
   12.4310    9.1609   -2.1332 C   0  0  0  0  0  0  0  0  0  0  0  0
   12.1345    9.1467   -3.4730 C   0  0  0  0  0  0  0  0  0  0  0  0
  1  2  2  0
  2  3  1  0
  3  4  1  0
  4  5  2  0
  6  4  1  6
  6  7  1  0
  7  8  1  0
  8  9  1  0
  9 10  2  0
 10 11  1  0
 11 12  2  0
 12 13  1  0
 13 14  2  0
 14 15  1  0
 15 16  2  0
 16 17  1  0
 17 18  2  0
 18 19  1  0
 19 20  2  0
 20 21  1  0
 21 22  2  0
 19 23  1  0
 23 24  2  0
 24 25  1  0
 25 26  2  0
 26 36  1  0
 36 38  1  0
 38 39  2  0
 39 40  1  0
 40 41  2  0
 41 42  1  0
 42 43  2  0
 43 48  1  0
 48 49  2  0
 49 50  1  0
 50 51  2  0
 51 52  1  0
 52 53  2  0
 43 44  1  0
 44 45  2  0
 45 46  1  0
 46 47  2  0
 26 27  1  0
 27 28  2  0
 28 29  1  0
 29 30  1  0
 31 30  1  1
 31 32  1  0
 32 33  2  0
 33 34  1  0
 34  2  1  0
  9  6  1  0
 14 12  1  0
 28 23  1  0
 33 31  1  0
 21  8  1  0
 47 38  1  0
 46 41  1  0
 53 48  1  0
 36 37  1  0
 34 35  1  0
M  CHG  1   3  -1
M  END
>  <minimizedAffinity>  (23) 
-18.17280

$$$$
Mol: 122_36 - SminaDock
     RDKit          3D

 42 49  0  0  0  0  0  0  0  0999 V2000
    9.1399    7.5558  -12.1337 C   0  0  0  0  0  0  0  0  0  0  0  0
    8.2772    8.6388  -12.1417 C   0  0  0  0  0  0  0  0  0  0  0  0
    6.9338    8.4474  -12.3807 C   0  0  0  0  0  0  0  0  0  0  0  0
    6.4421    7.1655  -12.6142 C   0  0  0  0  0  0  0  0  0  0  0  0
    7.2840    6.0751  -12.6105 C   0  0  0  0  0  0  0  0  0  0  0  0
    8.6214    6.2937  -12.3693 C   0  0  0  0  0  0  0  0  0  0  0  0
    6.7345    4.7518  -12.8599 C   0  0  0  0  0  0  0  0  0  0  0  0
    5.6245    4.3385  -12.2008 C   0  0  0  0  0  0  0  0  0  0  0  0
    5.1263    3.0763  -12.4551 C   0  0  0  0  0  0  0  0  0  0  0  0
    5.7230    2.2023  -13.3697 C   0  0  0  0  0  0  0  0  0  0  0  0
    6.8509    2.6382  -14.0315 C   0  0  0  0  0  0  0  0  0  0  0  0
    7.3490    3.8937  -13.7806 C   0  0  0  0  0  0  0  0  0  0  0  0
    7.6037    1.8734  -15.0147 C   0  0  2  0  0  0  0  0  0  0  0  0
    8.2365    0.5904  -14.4472 C   0  0  0  0  0  0  0  0  0  0  0  0
    9.3402    1.4108  -14.1120 O   0  0  0  0  0  0  0  0  0  0  0  0
    9.0284    2.1305  -15.2640 C   0  0  0  0  0  0  0  0  0  0  0  0
    6.7190    1.5804  -16.2006 C   0  0  0  0  0  0  0  0  0  0  0  0
    5.6359    0.6244  -15.9244 C   0  0  0  0  0  0  0  0  0  0  0  0
    5.3570   -0.0850  -17.0907 C   0  0  0  0  0  0  0  0  0  0  0  0
    4.3962   -1.0543  -17.1766 C   0  0  0  0  0  0  0  0  0  0  0  0
    3.6792   -1.3252  -16.0335 C   0  0  0  0  0  0  0  0  0  0  0  0
    3.9272   -0.6464  -14.8676 C   0  0  0  0  0  0  0  0  0  0  0  0
    4.9178    0.3452  -14.7998 C   0  0  0  0  0  0  0  0  0  0  0  0
    4.9899    0.9202  -13.4447 C   0  0  0  0  0  0  0  0  0  0  0  0
   11.3274    7.8852   -5.7247 C   0  0  0  0  0  0  0  0  0  0  0  0
    9.9925    7.7069   -6.0257 C   0  0  0  0  0  0  0  0  0  0  0  0
    9.5954    7.6456   -7.3489 C   0  0  0  0  0  0  0  0  0  0  0  0
   10.4966    7.7578   -8.3793 C   0  0  0  0  0  0  0  0  0  0  0  0
   11.8257    7.9353   -8.0740 C   0  0  0  0  0  0  0  0  0  0  0  0
   12.7302    8.0485   -9.1081 C   0  0  0  0  0  0  0  0  0  0  0  0
   12.2618    7.9789  -10.3805 N   0  0  0  0  0  0  0  0  0  0  0  0
   10.9835    7.8080  -10.6850 C   0  0  0  0  0  0  0  0  0  0  0  0
   10.5273    7.7408  -11.8878 N   0  0  0  0  0  0  0  0  0  0  0  0
   10.1114    7.6991   -9.6571 N   0  0  0  0  0  0  0  0  0  0  0  0
    9.0995    7.5637   -9.8847 H   0  0  0  0  0  0  0  0  0  0  0  0
   12.2639    8.0019   -6.7512 C   0  0  0  0  0  0  0  0  0  0  0  0
   12.4694    7.9951   -1.6557 C   0  0  0  0  0  0  0  0  0  0  0  0
   12.1394    6.8115   -2.2765 C   0  0  0  0  0  0  0  0  0  0  0  0
   11.7690    6.7838   -3.5993 C   0  0  0  0  0  0  0  0  0  0  0  0
   11.7230    7.9490   -4.3264 C   0  0  0  0  0  0  0  0  0  0  0  0
   12.0545    9.1314   -3.6993 C   0  0  0  0  0  0  0  0  0  0  0  0
   12.4236    9.1615   -2.3823 C   0  0  0  0  0  0  0  0  0  0  0  0
 37 38  2  0
 38 39  1  0
 39 40  2  0
 40 25  1  0
 25 26  2  0
 26 27  1  0
 27 28  2  0
 28 29  1  0
 29 30  1  0
 30 31  2  0
 31 32  1  0
 32 33  2  0
 33  1  1  0
  1  2  2  0
  2  3  1  0
  3  4  2  0
  4  5  1  0
  5  7  1  0
  7  8  2  0
  8  9  1  0
  9 10  2  0
 10 11  1  0
 11 12  2  0
 11 13  1  0
 13 14  1  1
 14 15  1  0
 15 16  1  0
 13 17  1  0
 17 18  1  0
 18 19  2  0
 19 20  1  0
 20 21  2  0
 21 22  1  0
 22 23  2  0
 23 24  1  0
  5  6  2  0
 32 34  1  0
 34 35  1  0
 29 36  2  0
 40 41  1  0
 41 42  2  0
 42 37  1  0
 36 25  1  0
 34 28  1  0
  6  1  1  0
 12  7  1  0
 16 13  1  0
 23 18  1  0
 24 10  1  0
M  END
>  <minimizedAffinity>  (24) 
-18.08646

$$$$
Mol: 193_42 - SminaDock
     RDKit          3D

 41 48  0  0  0  0  0  0  0  0999 V2000
    8.6575    5.8840  -12.3106 C   0  0  0  0  0  0  0  0  0  0  0  0
    9.2159    5.3599  -13.4826 C   0  0  0  0  0  0  0  0  0  0  0  0
    8.6455    4.2787  -14.1196 C   0  0  0  0  0  0  0  0  0  0  0  0
    7.5065    3.6886  -13.6123 C   0  0  0  0  0  0  0  0  0  0  0  0
    6.9452    4.1900  -12.4628 C   0  0  0  0  0  0  0  0  0  0  0  0
    7.5128    5.2861  -11.8058 C   0  0  0  0  0  0  0  0  0  0  0  0
    5.7476    3.3995  -12.1248 C   0  0  0  0  0  0  0  0  0  0  0  0
    5.6449    2.3844  -13.1758 C   0  0  0  0  0  0  0  0  0  0  0  0
    4.7428    1.3431  -13.4320 C   0  0  0  0  0  0  0  0  0  0  0  0
    4.9485    0.5425  -14.5568 C   0  0  0  0  0  0  0  0  0  0  0  0
    5.9836    0.7082  -15.4361 C   0  0  0  0  0  0  0  0  0  0  0  0
    6.8660    1.7536  -15.1550 C   0  0  0  0  0  0  0  0  0  0  0  0
    6.6783    2.5460  -14.0576 C   0  0  0  0  0  0  0  0  0  0  0  0
    6.1656   -0.1530  -16.6269 C   0  0  1  0  0  0  0  0  0  0  0  0
    5.5816   -1.4934  -16.4027 C   0  0  0  0  0  0  0  0  0  0  0  0
    5.7650   -2.4783  -17.1701 O   0  0  0  0  0  0  0  0  0  0  0  0
    4.7537   -1.6870  -15.2419 N   0  0  0  0  0  0  0  0  0  0  0  0
    4.7182   -2.5817  -14.7418 H   0  0  0  0  0  0  0  0  0  0  0  0
    3.9382   -0.5594  -14.7661 C   0  0  0  0  0  0  0  0  0  0  0  0
    5.4813    0.4428  -17.8440 C   0  0  0  0  0  0  0  0  0  0  0  0
    6.0362   -0.4243  -18.9592 C   0  0  0  0  0  0  0  0  0  0  0  0
    7.4228   -0.8230  -18.5095 C   0  0  0  0  0  0  0  0  0  0  0  0
    7.5742   -0.3241  -17.0729 C   0  0  0  0  0  0  0  0  0  0  0  0
   11.3339    8.0655   -5.8637 C   0  0  0  0  0  0  0  0  0  0  0  0
   11.5310    9.1814   -6.6560 C   0  0  0  0  0  0  0  0  0  0  0  0
   11.1520    9.1849   -7.9845 C   0  0  0  0  0  0  0  0  0  0  0  0
   10.5649    8.0884   -8.5809 C   0  0  0  0  0  0  0  0  0  0  0  0
   10.3645    6.9708   -7.7974 C   0  0  0  0  0  0  0  0  0  0  0  0
    9.7757    5.8781   -8.4024 C   0  0  0  0  0  0  0  0  0  0  0  0
    9.4201    5.9227   -9.7031 N   0  0  0  0  0  0  0  0  0  0  0  0
    9.6214    7.0169  -10.4522 C   0  0  0  0  0  0  0  0  0  0  0  0
    9.2568    6.9871  -11.6840 N   0  0  0  0  0  0  0  0  0  0  0  0
   10.1917    8.0885   -9.8837 N   0  0  0  0  0  0  0  0  0  0  0  0
   10.3675    8.9720  -10.4454 H   0  0  0  0  0  0  0  0  0  0  0  0
   10.7456    6.9721   -6.4674 C   0  0  0  0  0  0  0  0  0  0  0  0
   12.4866    7.9203   -1.7452 C   0  0  0  0  0  0  0  0  0  0  0  0
   12.1296    6.7755   -2.4437 C   0  0  0  0  0  0  0  0  0  0  0  0
   11.7589    6.8505   -3.7779 C   0  0  0  0  0  0  0  0  0  0  0  0
   11.7305    8.0436   -4.4532 C   0  0  0  0  0  0  0  0  0  0  0  0
   12.0853    9.1848   -3.7581 C   0  0  0  0  0  0  0  0  0  0  0  0
   12.4618    9.1343   -2.4152 C   0  0  0  0  0  0  0  0  0  0  0  0
 36 37  2  0
 37 38  1  0
 38 39  2  0
 39 24  1  0
 24 25  2  0
 25 26  1  0
 26 27  2  0
 27 28  1  0
 28 29  1  0
 29 30  2  0
 30 31  1  0
 31 32  2  0
 32  1  1  0
  1  2  2  0
  2  3  1  0
  3  4  2  0
  4  5  1  0
  5  6  2  0
  5  7  1  0
  7  8  1  0
  8  9  2  0
  9 10  1  0
 10 11  2  0
 11 12  1  0
 12 13  2  0
 11 14  1  0
 14 15  1  0
 15 16  2  0
 15 17  1  0
 17 18  1  0
 17 19  1  0
 14 20  1  6
 20 21  1  0
 21 22  1  0
 22 23  1  0
 31 33  1  0
 33 34  1  0
 28 35  2  0
 39 40  1  0
 40 41  2  0
 41 36  1  0
 35 24  1  0
 33 27  1  0
  6  1  1  0
 13  8  1  0
 23 14  1  0
 13  4  1  0
 19 10  1  0
M  END
>  <minimizedAffinity>  (25) 
-18.07452

$$$$
Mol: 198_11 - SminaDock
     RDKit          3D

 43 50  0  0  0  0  0  0  0  0999 V2000
    8.5933    5.7417  -12.3279 C   0  0  0  0  0  0  0  0  0  0  0  0
    7.4545    5.2334  -11.7618 C   0  0  0  0  0  0  0  0  0  0  0  0
    6.8011    4.1292  -12.2696 C   0  0  0  0  0  0  0  0  0  0  0  0
    7.2806    3.4674  -13.4056 C   0  0  0  0  0  0  0  0  0  0  0  0
    8.4244    3.9831  -13.9668 C   0  0  0  0  0  0  0  0  0  0  0  0
    9.0770    5.1082  -13.4377 C   0  0  0  0  0  0  0  0  0  0  0  0
    9.0232    3.3329  -15.1399 C   0  0  1  0  0  0  0  0  0  0  0  0
    9.2345    4.2759  -16.2061 O   0  0  0  0  0  0  0  0  0  0  0  0
   10.1108    3.6164  -17.0904 C   0  0  0  0  0  0  0  0  0  0  0  0
   10.1976    3.7239  -18.3334 O   0  0  0  0  0  0  0  0  0  0  0  0
   10.9524    2.7359  -16.2905 C   0  0  0  0  0  0  0  0  0  0  0  0
   11.8917    1.9732  -16.6103 O   0  0  0  0  0  0  0  0  0  0  0  0
   10.4599    2.9106  -14.8836 C   0  0  0  0  0  0  0  0  0  0  0  0
    8.2288    2.2402  -15.7313 C   0  0  0  0  0  0  0  0  0  0  0  0
    8.6629    1.8009  -16.8109 O   0  0  0  0  0  0  0  0  0  0  0  0
    7.0383    1.7235  -15.1041 C   0  0  0  0  0  0  0  0  0  0  0  0
    6.5383    2.3275  -13.9308 C   0  0  0  0  0  0  0  0  0  0  0  0
    5.4137    1.8868  -13.2895 C   0  0  0  0  0  0  0  0  0  0  0  0
    4.7502    0.8044  -13.8238 C   0  0  0  0  0  0  0  0  0  0  0  0
    5.2285    0.2073  -14.9663 C   0  0  0  0  0  0  0  0  0  0  0  0
    4.5388   -0.8849  -15.4798 C   0  0  0  0  0  0  0  0  0  0  0  0
    4.9547   -1.5387  -16.6170 C   0  0  0  0  0  0  0  0  0  0  0  0
    6.0755   -1.0918  -17.2468 C   0  0  0  0  0  0  0  0  0  0  0  0
    6.8058    0.0048  -16.7696 C   0  0  0  0  0  0  0  0  0  0  0  0
    6.3744    0.6397  -15.6382 C   0  0  0  0  0  0  0  0  0  0  0  0
   11.3075    8.0009   -5.9578 C   0  0  0  0  0  0  0  0  0  0  0  0
   11.5661    9.0941   -6.7847 C   0  0  0  0  0  0  0  0  0  0  0  0
   11.2095    9.1005   -8.1168 C   0  0  0  0  0  0  0  0  0  0  0  0
   10.5731    7.9876   -8.6583 C   0  0  0  0  0  0  0  0  0  0  0  0
   10.2988    6.8836   -7.8721 C   0  0  0  0  0  0  0  0  0  0  0  0
   10.6752    6.9302   -6.5531 C   0  0  0  0  0  0  0  0  0  0  0  0
    9.6598    5.7673   -8.4183 C   0  0  0  0  0  0  0  0  0  0  0  0
    9.3144    5.7898   -9.7357 C   0  0  0  0  0  0  0  0  0  0  0  0
    9.5940    6.8969  -10.5075 C   0  0  0  0  0  0  0  0  0  0  0  0
    9.2513    6.8951  -11.7737 N   0  0  0  0  0  0  0  0  0  0  0  0
   10.2042    7.9381   -9.9459 N   0  0  0  0  0  0  0  0  0  0  0  0
   10.4000    8.7604  -10.5629 H   0  0  0  0  0  0  0  0  0  0  0  0
   12.4017    7.9135   -1.8518 C   0  0  0  0  0  0  0  0  0  0  0  0
   12.3684    9.1128   -2.5261 C   0  0  0  0  0  0  0  0  0  0  0  0
   12.0103    9.1451   -3.8720 C   0  0  0  0  0  0  0  0  0  0  0  0
   11.6843    7.9979   -4.5567 C   0  0  0  0  0  0  0  0  0  0  0  0
   11.7201    6.8057   -3.8765 C   0  0  0  0  0  0  0  0  0  0  0  0
   12.0773    6.7588   -2.5274 C   0  0  0  0  0  0  0  0  0  0  0  0
 38 39  2  0
 39 40  1  0
 40 41  2  0
 41 26  1  0
 26 27  2  0
 27 28  1  0
 28 29  2  0
 29 30  1  0
 30 31  2  0
 30 32  1  0
 32 33  2  0
 33 34  1  0
 34 35  2  0
 35  1  1  0
  1  2  2  0
  2  3  1  0
  3  4  2  0
  4  5  1  0
  5  6  2  0
  5  7  1  0
  7  8  1  0
  8  9  1  0
  9 10  2  0
  9 11  1  0
 11 12  2  0
 11 13  1  0
  7 14  1  0
 14 15  2  0
 14 16  1  0
 16 17  2  0
 17 18  1  0
 18 19  2  0
 19 20  1  0
 20 21  2  0
 21 22  1  0
 22 23  2  0
 23 24  1  0
 24 25  2  0
 34 36  1  0
 36 37  1  0
 41 42  1  0
 42 43  2  0
 43 38  1  0
 31 26  1  0
  6  1  1  0
  7 13  1  1
 25 16  1  0
 36 29  1  0
 17  4  1  0
 25 20  1  0
M  END
>  <minimizedAffinity>  (26) 
-18.06348

$$$$
Mol: 194_19 - SminaDock
     RDKit          3D

 43 50  0  0  0  0  0  0  0  0999 V2000
    9.8022    2.2928  -20.0125 H   0  0  0  0  0  0  0  0  0  0  0  0
    9.9693    2.0552  -19.0442 O   0  0  0  0  0  0  0  0  0  0  0  0
    9.0730    1.2548  -18.3075 C   0  0  0  0  0  0  0  0  0  0  0  0
    9.1843    0.3393  -17.3593 C   0  0  0  0  0  0  0  0  0  0  0  0
    7.7145    0.2157  -17.3692 C   0  0  1  0  0  0  0  0  0  0  0  0
    7.6892    1.2086  -18.3886 O   0  0  0  0  0  0  0  0  0  0  0  0
    7.1727   -1.0506  -17.8473 C   0  0  0  0  0  0  0  0  0  0  0  0
    7.8962   -1.8566  -18.4753 O   0  0  0  0  0  0  0  0  0  0  0  0
    5.8619   -1.3475  -17.6010 O   0  0  0  0  0  0  0  0  0  0  0  0
    5.2454   -1.0382  -16.4012 C   0  0  2  0  0  0  0  0  0  0  0  0
    3.7598   -0.7863  -16.5383 C   0  0  0  0  0  0  0  0  0  0  0  0
    5.8722    0.1534  -15.7316 C   0  0  0  0  0  0  0  0  0  0  0  0
    5.2832    0.6982  -14.6158 C   0  0  0  0  0  0  0  0  0  0  0  0
    5.8393    1.8171  -13.9532 C   0  0  0  0  0  0  0  0  0  0  0  0
    6.9925    2.3886  -14.4173 C   0  0  0  0  0  0  0  0  0  0  0  0
    7.5869    1.8499  -15.5316 C   0  0  0  0  0  0  0  0  0  0  0  0
    7.0230    0.7368  -16.1806 C   0  0  0  0  0  0  0  0  0  0  0  0
    7.5674    3.5474  -13.7458 C   0  0  0  0  0  0  0  0  0  0  0  0
    8.7414    4.0970  -14.2339 C   0  0  0  0  0  0  0  0  0  0  0  0
    9.2434    5.1880  -13.5504 C   0  0  0  0  0  0  0  0  0  0  0  0
    8.6224    5.7162  -12.4388 C   0  0  0  0  0  0  0  0  0  0  0  0
    7.4555    5.1585  -11.9658 C   0  0  0  0  0  0  0  0  0  0  0  0
    6.9410    4.0722  -12.6331 C   0  0  0  0  0  0  0  0  0  0  0  0
    5.6854    3.5009  -12.1095 C   0  0  0  0  0  0  0  0  0  0  0  0
    5.1375    2.3180  -12.7632 C   0  0  0  0  0  0  0  0  0  0  0  0
    9.1482    6.8425  -11.7386 N   0  0  0  0  0  0  0  0  0  0  0  0
    9.5018    6.7975  -10.5076 C   0  0  0  0  0  0  0  0  0  0  0  0
    9.3835    5.6242   -9.7945 C   0  0  0  0  0  0  0  0  0  0  0  0
    9.7829    5.6401   -8.4739 C   0  0  0  0  0  0  0  0  0  0  0  0
   10.2891    6.7920   -7.8690 C   0  0  0  0  0  0  0  0  0  0  0  0
   10.6852    6.7981   -6.5523 C   0  0  0  0  0  0  0  0  0  0  0  0
   11.1806    7.9510   -5.9869 C   0  0  0  0  0  0  0  0  0  0  0  0
   11.2651    9.0932   -6.7841 C   0  0  0  0  0  0  0  0  0  0  0  0
   10.8645    9.0696   -8.0995 C   0  0  0  0  0  0  0  0  0  0  0  0
   10.3643    7.9202   -8.6838 C   0  0  0  0  0  0  0  0  0  0  0  0
    9.9834    7.9265   -9.9635 N   0  0  0  0  0  0  0  0  0  0  0  0
   10.0680    8.8227  -10.5282 H   0  0  0  0  0  0  0  0  0  0  0  0
   11.6146    8.0158   -4.5959 C   0  0  0  0  0  0  0  0  0  0  0  0
   11.6514    6.8514   -3.8662 C   0  0  0  0  0  0  0  0  0  0  0  0
   12.0522    6.8418   -2.5473 C   0  0  0  0  0  0  0  0  0  0  0  0
   12.4171    8.0363   -1.9761 C   0  0  0  0  0  0  0  0  0  0  0  0
   12.3873    9.2006   -2.6825 C   0  0  0  0  0  0  0  0  0  0  0  0
   11.9831    9.2009   -4.0077 C   0  0  0  0  0  0  0  0  0  0  0  0
  1  2  1  0
  2  3  1  0
  3  4  2  0
  4  5  1  0
  5  6  1  6
  5  7  1  0
  7  8  2  0
  7  9  1  0
  9 10  1  0
 10 11  1  6
 10 12  1  0
 12 13  2  0
 13 14  1  0
 14 15  2  0
 15 16  1  0
 16 17  2  0
 15 18  1  0
 18 19  2  0
 19 20  1  0
 20 21  2  0
 21 26  1  0
 26 27  2  0
 27 28  1  0
 28 29  2  0
 29 30  1  0
 30 31  2  0
 31 32  1  0
 32 38  1  0
 38 39  2  0
 39 40  1  0
 40 41  2  0
 41 42  1  0
 42 43  2  0
 32 33  2  0
 33 34  1  0
 34 35  2  0
 35 36  1  0
 36 37  1  0
 21 22  1  0
 22 23  2  0
 23 24  1  0
 24 25  1  0
  6  3  1  0
 17 12  1  0
 23 18  1  0
 17  5  1  0
 36 27  1  0
 25 14  1  0
 35 30  1  0
 43 38  1  0
M  END
>  <minimizedAffinity>  (27) 
-18.05176

$$$$
Mol: 194_32 - SminaDock
     RDKit          3D

 41 48  0  0  0  0  0  0  0  0999 V2000
    2.0476   -1.7423  -14.4047 H   0  0  0  0  0  0  0  0  0  0  0  0
    2.6554   -1.0558  -13.9478 O   0  0  0  0  0  0  0  0  0  0  0  0
    3.7413   -0.5958  -14.7103 C   0  0  0  0  0  0  0  0  0  0  0  0
    4.1320   -1.0904  -15.8349 N   0  0  0  0  0  0  0  0  0  0  0  0
    5.2731   -0.3758  -16.3387 C   0  0  2  0  0  0  0  0  0  0  0  0
    5.5290    0.6582  -15.3247 C   0  0  0  0  0  0  0  0  0  0  0  0
    6.4626    1.6642  -15.1937 C   0  0  0  0  0  0  0  0  0  0  0  0
    6.4439    2.5096  -14.0818 C   0  0  0  0  0  0  0  0  0  0  0  0
    5.5076    2.3746  -13.0882 C   0  0  0  0  0  0  0  0  0  0  0  0
    4.5737    1.3673  -13.2204 C   0  0  0  0  0  0  0  0  0  0  0  0
    4.5915    0.5242  -14.3280 C   0  0  0  0  0  0  0  0  0  0  0  0
    5.7109    3.3900  -12.0351 C   0  0  0  0  0  0  0  0  0  0  0  0
    6.8944    4.1818  -12.4933 C   0  0  0  0  0  0  0  0  0  0  0  0
    7.5469    5.2540  -11.9277 C   0  0  0  0  0  0  0  0  0  0  0  0
    8.6281    5.7962  -12.5781 C   0  0  0  0  0  0  0  0  0  0  0  0
    9.0400    5.2642  -13.7756 C   0  0  0  0  0  0  0  0  0  0  0  0
    8.3878    4.1988  -14.3327 C   0  0  0  0  0  0  0  0  0  0  0  0
    7.2890    3.6308  -13.6934 C   0  0  0  0  0  0  0  0  0  0  0  0
    4.9166    0.2134  -17.6873 C   0  0  0  0  0  0  0  0  0  0  0  0
    4.2709   -0.8800  -18.5021 C   0  0  0  0  0  0  0  0  0  0  0  0
    4.7657   -2.1137  -18.1111 O   0  0  0  0  0  0  0  0  0  0  0  0
    6.1245   -2.0861  -17.8434 C   0  0  0  0  0  0  0  0  0  0  0  0
    6.4155   -1.3235  -16.5443 C   0  0  0  0  0  0  0  0  0  0  0  0
    9.3337    6.9237  -12.0109 N   0  0  0  0  0  0  0  0  0  0  0  0
    9.6283    6.8836  -10.7628 C   0  0  0  0  0  0  0  0  0  0  0  0
    9.2834    5.8038   -9.9938 C   0  0  0  0  0  0  0  0  0  0  0  0
    9.5998    5.7637   -8.6472 C   0  0  0  0  0  0  0  0  0  0  0  0
   10.2741    6.8207   -8.0528 C   0  0  0  0  0  0  0  0  0  0  0  0
   10.6124    6.8331   -6.7192 C   0  0  0  0  0  0  0  0  0  0  0  0
   11.2828    7.8837   -6.1232 C   0  0  0  0  0  0  0  0  0  0  0  0
   11.6160    8.9578   -6.9290 C   0  0  0  0  0  0  0  0  0  0  0  0
   11.2883    8.9725   -8.2736 C   0  0  0  0  0  0  0  0  0  0  0  0
   10.6085    7.8914   -8.8461 C   0  0  0  0  0  0  0  0  0  0  0  0
   10.2837    7.8941  -10.1514 N   0  0  0  0  0  0  0  0  0  0  0  0
   10.5341    8.7047  -10.7630 H   0  0  0  0  0  0  0  0  0  0  0  0
   11.6414    7.9023   -4.7152 C   0  0  0  0  0  0  0  0  0  0  0  0
   12.0043    9.0859   -4.1137 C   0  0  0  0  0  0  0  0  0  0  0  0
   12.3526    9.1155   -2.7567 C   0  0  0  0  0  0  0  0  0  0  0  0
   12.3339    7.9547   -2.0122 C   0  0  0  0  0  0  0  0  0  0  0  0
   11.9707    6.7616   -2.6081 C   0  0  0  0  0  0  0  0  0  0  0  0
   11.6313    6.7607   -3.9504 C   0  0  0  0  0  0  0  0  0  0  0  0
  1  2  1  0
  2  3  1  0
  3  4  2  0
  4  5  1  0
  5  6  1  0
  6  7  2  0
  7  8  1  0
  8  9  2  0
  9 10  1  0
 10 11  2  0
  9 12  1  0
 12 13  1  0
 13 14  2  0
 14 15  1  0
 15 24  1  0
 24 25  2  0
 25 26  1  0
 26 27  2  0
 27 28  1  0
 28 29  2  0
 29 30  1  0
 30 36  1  0
 36 37  2  0
 37 38  1  0
 38 39  2  0
 39 40  1  0
 40 41  2  0
 30 31  2  0
 31 32  1  0
 32 33  2  0
 33 34  1  0
 34 35  1  0
 15 16  2  0
 16 17  1  0
 17 18  2  0
  5 19  1  6
 19 20  1  0
 20 21  1  0
 21 22  1  0
 22 23  1  0
 11  3  1  0
 18 13  1  0
 23  5  1  0
 11  6  1  0
 34 25  1  0
 18  8  1  0
 33 28  1  0
 41 36  1  0
M  END
>  <minimizedAffinity>  (28) 
-17.96285

$$$$
Mol: 161_0 - SminaDock
     RDKit          3D

 41 47  0  0  0  0  0  0  0  0999 V2000
    8.9059   -0.8322  -17.1292 H   0  0  0  0  0  0  0  0  0  0  0  0
    8.4567   -0.4782  -16.3110 O   0  0  0  0  0  0  0  0  0  0  0  0
    7.2073   -0.0030  -16.7546 C   0  0  1  0  0  0  0  0  0  0  0  0
    7.4951    1.0176  -17.8578 C   0  0  0  0  0  0  0  0  0  0  0  0
    6.3770   -1.1044  -17.2276 C   0  0  0  0  0  0  0  0  0  0  0  0
    6.8511   -1.7923  -18.2031 O   0  0  0  0  0  0  0  0  0  0  0  0
    5.1572   -1.4438  -16.7131 O   0  0  0  0  0  0  0  0  0  0  0  0
    4.6187   -0.7236  -15.6670 C   0  0  0  0  0  0  0  0  0  0  0  0
    3.4996   -1.0674  -15.2253 O   0  0  0  0  0  0  0  0  0  0  0  0
    5.3838    0.4060  -15.1268 C   0  0  0  0  0  0  0  0  0  0  0  0
    4.8394    1.1132  -14.0894 C   0  0  0  0  0  0  0  0  0  0  0  0
    5.5293    2.2079  -13.5309 C   0  0  0  0  0  0  0  0  0  0  0  0
    6.7549    2.5500  -14.0519 C   0  0  0  0  0  0  0  0  0  0  0  0
    7.3154    1.8366  -15.1037 C   0  0  0  0  0  0  0  0  0  0  0  0
    6.6114    0.7576  -15.6350 C   0  0  0  0  0  0  0  0  0  0  0  0
    7.4061    3.7568  -13.5212 C   0  0  0  0  0  0  0  0  0  0  0  0
    8.6759    4.0464  -13.9595 C   0  0  0  0  0  0  0  0  0  0  0  0
    9.3504    5.1224  -13.4088 C   0  0  0  0  0  0  0  0  0  0  0  0
    8.7959    5.9172  -12.4347 C   0  0  0  0  0  0  0  0  0  0  0  0
    7.5259    5.5965  -12.0249 C   0  0  0  0  0  0  0  0  0  0  0  0
    6.7963    4.5200  -12.5487 C   0  0  0  0  0  0  0  0  0  0  0  0
    5.4171    4.2721  -12.1434 C   0  0  0  0  0  0  0  0  0  0  0  0
    4.9646    2.8894  -12.3604 C   0  0  0  0  0  0  0  0  0  0  0  0
    9.5273    7.0108  -11.8975 N   0  0  0  0  0  0  0  0  0  0  0  0
    9.8011    6.9839  -10.6361 C   0  0  0  0  0  0  0  0  0  0  0  0
   10.5010    8.0015  -10.0511 N   0  0  0  0  0  0  0  0  0  0  0  0
   10.7989    7.9969   -8.7395 C   0  0  0  0  0  0  0  0  0  0  0  0
   11.5058    9.0284   -8.1568 C   0  0  0  0  0  0  0  0  0  0  0  0
   11.8157    9.0325   -6.8131 C   0  0  0  0  0  0  0  0  0  0  0  0
   11.4252    7.9904   -5.9876 C   0  0  0  0  0  0  0  0  0  0  0  0
   10.7187    6.9628   -6.5782 C   0  0  0  0  0  0  0  0  0  0  0  0
   10.4066    6.9554   -7.9233 C   0  0  0  0  0  0  0  0  0  0  0  0
    9.6998    5.9337   -8.5287 C   0  0  0  0  0  0  0  0  0  0  0  0
    9.4118    5.9600   -9.8502 N   0  0  0  0  0  0  0  0  0  0  0  0
    8.8767    5.1861  -10.3065 H   0  0  0  0  0  0  0  0  0  0  0  0
   11.7482    7.9848   -4.5619 C   0  0  0  0  0  0  0  0  0  0  0  0
   11.6759    6.8438   -3.7814 C   0  0  0  0  0  0  0  0  0  0  0  0
   11.9760    6.8280   -2.4452 C   0  0  0  0  0  0  0  0  0  0  0  0
   12.3691    8.0020   -1.8448 C   0  0  0  0  0  0  0  0  0  0  0  0
   12.4540    9.1704   -2.5959 C   0  0  0  0  0  0  0  0  0  0  0  0
   12.1435    9.1465   -3.9401 C   0  0  0  0  0  0  0  0  0  0  0  0
  1  2  1  0
  3  2  1  0
  3  4  1  6
  3  5  1  0
  5  6  2  0
  5  7  1  0
  7  8  1  0
  8  9  2  0
  8 10  1  0
 10 11  2  0
 11 12  1  0
 12 13  2  0
 13 14  1  0
 14 15  2  0
 13 16  1  0
 16 17  2  0
 17 18  1  0
 18 19  2  0
 19 24  1  0
 24 25  2  0
 25 26  1  0
 26 27  2  0
 27 28  1  0
 28 29  2  0
 29 30  1  0
 30 36  1  0
 36 37  2  0
 37 38  1  0
 38 39  2  0
 39 40  1  0
 40 41  2  0
 30 31  2  0
 31 32  1  0
 32 33  2  0
 33 34  1  0
 34 35  1  0
 19 20  1  0
 20 21  2  0
 21 22  1  0
 22 23  1  0
 15  3  1  0
 21 16  1  0
 15 10  1  0
 34 25  1  0
 23 12  1  0
 32 27  1  0
 41 36  1  0
M  END
>  <minimizedAffinity>  (29) 
-17.95321

$$$$
Mol: 197_30 - SminaDock
     RDKit          3D

 41 48  0  0  0  0  0  0  0  0999 V2000
    8.7036    5.5817  -12.6591 C   0  0  0  0  0  0  0  0  0  0  0  0
    9.0628    5.0935  -13.8962 C   0  0  0  0  0  0  0  0  0  0  0  0
    8.3600    4.0383  -14.4532 C   0  0  0  0  0  0  0  0  0  0  0  0
    7.2934    3.4797  -13.7539 C   0  0  0  0  0  0  0  0  0  0  0  0
    6.9427    3.9752  -12.5184 C   0  0  0  0  0  0  0  0  0  0  0  0
    7.6522    5.0423  -11.9533 C   0  0  0  0  0  0  0  0  0  0  0  0
    5.7924    3.2129  -12.0010 C   0  0  0  0  0  0  0  0  0  0  0  0
    5.5091    2.2213  -13.0673 C   0  0  0  0  0  0  0  0  0  0  0  0
    4.5412    1.2429  -13.1345 C   0  0  0  0  0  0  0  0  0  0  0  0
    4.4591    0.4122  -14.2491 C   0  0  0  0  0  0  0  0  0  0  0  0
    5.3562    0.5816  -15.2801 C   0  0  0  0  0  0  0  0  0  0  0  0
    6.3417    1.5693  -15.2246 C   0  0  0  0  0  0  0  0  0  0  0  0
    6.3910    2.3645  -14.1159 C   0  0  0  0  0  0  0  0  0  0  0  0
    5.0441   -0.4111  -16.2987 C   0  0  2  0  0  0  0  0  0  0  0  0
    3.9518   -1.1495  -15.8514 O   0  0  0  0  0  0  0  0  0  0  0  0
    3.5717   -0.6843  -14.6138 C   0  0  0  0  0  0  0  0  0  0  0  0
    2.6170   -1.1053  -13.8750 O   0  0  0  0  0  0  0  0  0  0  0  0
    6.1978   -1.4099  -16.4942 C   0  0  0  0  0  0  0  0  0  0  0  0
    5.6507   -2.4765  -17.3503 C   0  0  0  0  0  0  0  0  0  0  0  0
    6.1409   -3.6178  -17.3375 O   0  0  0  0  0  0  0  0  0  0  0  0
    4.5841   -2.1912  -18.1687 O   0  0  0  0  0  0  0  0  0  0  0  0
    4.2751   -0.8792  -18.5832 C   0  0  0  0  0  0  0  0  0  0  0  0
    4.7471    0.1910  -17.6542 C   0  0  0  0  0  0  0  0  0  0  0  0
   11.2912    7.8784   -6.2308 C   0  0  0  0  0  0  0  0  0  0  0  0
   11.6795    8.8912   -7.0824 C   0  0  0  0  0  0  0  0  0  0  0  0
   11.3649    8.8290   -8.4427 C   0  0  0  0  0  0  0  0  0  0  0  0
   10.6647    7.7688   -8.9795 C   0  0  0  0  0  0  0  0  0  0  0  0
   10.2727    6.7473   -8.1226 C   0  0  0  0  0  0  0  0  0  0  0  0
   10.5907    6.8234   -6.7827 C   0  0  0  0  0  0  0  0  0  0  0  0
    9.5731    5.6926   -8.6776 C   0  0  0  0  0  0  0  0  0  0  0  0
    9.2599    5.6190  -10.0082 C   0  0  0  0  0  0  0  0  0  0  0  0
    9.6691    6.6555  -10.8217 C   0  0  0  0  0  0  0  0  0  0  0  0
    9.4193    6.6640  -12.0809 N   0  0  0  0  0  0  0  0  0  0  0  0
   10.3593    7.7031  -10.2924 N   0  0  0  0  0  0  0  0  0  0  0  0
   10.6574    8.4725  -10.9236 H   0  0  0  0  0  0  0  0  0  0  0  0
   12.2290    8.0052   -2.0872 C   0  0  0  0  0  0  0  0  0  0  0  0
   11.9185    6.7884   -2.6763 C   0  0  0  0  0  0  0  0  0  0  0  0
   11.6229    6.7980   -4.0162 C   0  0  0  0  0  0  0  0  0  0  0  0
   11.6159    7.9304   -4.8025 C   0  0  0  0  0  0  0  0  0  0  0  0
   11.9298    9.1320   -4.1887 C   0  0  0  0  0  0  0  0  0  0  0  0
   12.2358    9.1670   -2.8315 C   0  0  0  0  0  0  0  0  0  0  0  0
 36 37  2  0
 37 38  1  0
 38 39  2  0
 39 24  1  0
 24 25  2  0
 25 26  1  0
 26 27  2  0
 27 28  1  0
 28 29  2  0
 28 30  1  0
 30 31  2  0
 31 32  1  0
 32 33  2  0
 33  1  1  0
  1  2  2  0
  2  3  1  0
  3  4  2  0
  4  5  1  0
  5  6  2  0
  5  7  1  0
  7  8  1  0
  8  9  2  0
  9 10  1  0
 10 11  2  0
 11 12  1  0
 12 13  2  0
 11 14  1  0
 14 15  1  0
 15 16  1  0
 16 17  2  0
 14 18  1  6
 18 19  1  0
 19 20  2  0
 19 21  1  0
 21 22  1  0
 22 23  1  0
 32 34  1  0
 34 35  1  0
 39 40  1  0
 40 41  2  0
 41 36  1  0
 29 24  1  0
  6  1  1  0
 13  8  1  0
 23 14  1  0
 34 27  1  0
 13  4  1  0
 16 10  1  0
M  END
>  <minimizedAffinity>  (30) 
-18.01234

$$$$
Mol: 192_11 - SminaDock
     RDKit          3D

 42 48  0  0  0  0  0  0  0  0999 V2000
    8.7076    5.8486  -12.4487 C   0  0  0  0  0  0  0  0  0  0  0  0
    9.3521    5.2774  -13.5223 C   0  0  0  0  0  0  0  0  0  0  0  0
    8.8451    4.1829  -14.1796 C   0  0  0  0  0  0  0  0  0  0  0  0
    7.6491    3.6407  -13.7460 C   0  0  0  0  0  0  0  0  0  0  0  0
    6.9630    4.1705  -12.6839 C   0  0  0  0  0  0  0  0  0  0  0  0
    7.5243    5.2833  -12.0501 C   0  0  0  0  0  0  0  0  0  0  0  0
    5.6665    3.6429  -12.2841 C   0  0  1  0  0  0  0  0  0  0  0  0
    4.7011    4.4928  -12.8925 F   0  0  0  0  0  0  0  0  0  0  0  0
    5.3340    2.2791  -12.7215 C   0  0  0  0  0  0  0  0  0  0  0  0
    6.0097    1.8268  -13.9116 C   0  0  0  0  0  0  0  0  0  0  0  0
    7.1439    2.4229  -14.3854 C   0  0  0  0  0  0  0  0  0  0  0  0
    7.6061    1.7642  -15.4847 N   0  0  0  0  0  0  0  0  0  0  0  0
    8.4610    2.0073  -16.0459 H   0  0  0  0  0  0  0  0  0  0  0  0
    6.7914    0.7312  -15.7573 C   0  0  0  0  0  0  0  0  0  0  0  0
    6.9354   -0.1756  -16.8083 C   0  0  0  0  0  0  0  0  0  0  0  0
    6.0123   -1.0833  -17.2906 C   0  0  0  0  0  0  0  0  0  0  0  0
    4.7335   -1.3838  -16.8408 C   0  0  0  0  0  0  0  0  0  0  0  0
    3.8815   -2.0794  -17.7335 N   0  0  0  0  0  0  0  0  0  0  0  0
    4.0088   -1.9519  -18.7550 H   0  0  0  0  0  0  0  0  0  0  0  0
    3.1341   -2.7123  -17.4018 H   0  0  0  0  0  0  0  0  0  0  0  0
    4.2430   -1.0475  -15.5827 C   0  0  0  0  0  0  0  0  0  0  0  0
    4.7461   -0.1075  -14.6740 C   0  0  0  0  0  0  0  0  0  0  0  0
    4.1644   -0.0119  -13.5702 O   0  0  0  0  0  0  0  0  0  0  0  0
    5.8120    0.7536  -14.8095 C   0  0  0  0  0  0  0  0  0  0  0  0
   11.2484    8.0144   -5.9437 C   0  0  0  0  0  0  0  0  0  0  0  0
   11.3928    9.1532   -6.7029 C   0  0  0  0  0  0  0  0  0  0  0  0
   11.0169    9.1690   -8.0357 C   0  0  0  0  0  0  0  0  0  0  0  0
   10.4868    8.0376   -8.6339 C   0  0  0  0  0  0  0  0  0  0  0  0
   10.3322    6.8728   -7.8809 C   0  0  0  0  0  0  0  0  0  0  0  0
   10.7179    6.9090   -6.5716 C   0  0  0  0  0  0  0  0  0  0  0  0
    9.8028    5.7622   -8.5017 C   0  0  0  0  0  0  0  0  0  0  0  0
    9.4215    5.7513   -9.8255 C   0  0  0  0  0  0  0  0  0  0  0  0
    9.5931    6.9250  -10.5294 C   0  0  0  0  0  0  0  0  0  0  0  0
    9.2525    6.9773  -11.7869 N   0  0  0  0  0  0  0  0  0  0  0  0
   10.1124    8.0141   -9.9200 N   0  0  0  0  0  0  0  0  0  0  0  0
   10.2208    8.8658  -10.4864 H   0  0  0  0  0  0  0  0  0  0  0  0
   12.4029    7.9395   -1.8356 C   0  0  0  0  0  0  0  0  0  0  0  0
   12.3339    9.1444   -2.5293 C   0  0  0  0  0  0  0  0  0  0  0  0
   11.9604    9.1685   -3.8579 C   0  0  0  0  0  0  0  0  0  0  0  0
   11.6473    7.9911   -4.5239 C   0  0  0  0  0  0  0  0  0  0  0  0
   11.7272    6.8173   -3.8029 C   0  0  0  0  0  0  0  0  0  0  0  0
   12.0955    6.7571   -2.4792 C   0  0  0  0  0  0  0  0  0  0  0  0
 37 38  2  0
 38 39  1  0
 39 40  2  0
 40 25  1  0
 25 26  2  0
 26 27  1  0
 27 28  2  0
 28 29  1  0
 29 30  2  0
 29 31  1  0
 31 32  2  0
 32 33  1  0
 33 34  2  0
 34  1  1  0
  1  2  2  0
  2  3  1  0
  3  4  2  0
  4  5  1  0
  5  6  2  0
  5  7  1  0
  7  8  1  6
  7  9  1  0
  9 10  1  0
 10 11  2  0
 11 12  1  0
 12 13  1  0
 12 14  1  0
 14 15  1  0
 15 16  2  0
 16 17  1  0
 17 18  1  0
 18 19  1  0
 18 20  1  0
 17 21  2  0
 21 22  1  0
 22 23  2  0
 22 24  1  0
 33 35  1  0
 35 36  1  0
 40 41  1  0
 41 42  2  0
 42 37  1  0
 30 25  1  0
  6  1  1  0
 24 10  1  0
 35 28  1  0
 11  4  1  0
 24 14  2  0
M  END
>  <minimizedAffinity>  (31) 
-18.02095

$$$$
Mol: 193_43 - SminaDock
     RDKit          3D

 41 48  0  0  0  0  0  0  0  0999 V2000
    8.5680    5.4999  -12.3455 C   0  0  0  0  0  0  0  0  0  0  0  0
    9.0451    4.9190  -13.5013 C   0  0  0  0  0  0  0  0  0  0  0  0
    8.3859    3.8803  -14.1218 C   0  0  0  0  0  0  0  0  0  0  0  0
    7.2037    3.3679  -13.6080 C   0  0  0  0  0  0  0  0  0  0  0  0
    6.7214    3.9400  -12.4574 C   0  0  0  0  0  0  0  0  0  0  0  0
    7.3945    4.9958  -11.8299 C   0  0  0  0  0  0  0  0  0  0  0  0
    5.4665    3.2235  -12.1198 C   0  0  0  0  0  0  0  0  0  0  0  0
    5.2961    2.2053  -13.1834 C   0  0  0  0  0  0  0  0  0  0  0  0
    4.3295    1.2649  -13.3919 C   0  0  0  0  0  0  0  0  0  0  0  0
    4.4074    0.4183  -14.4862 C   0  0  0  0  0  0  0  0  0  0  0  0
    5.4522    0.4959  -15.3919 C   0  0  0  0  0  0  0  0  0  0  0  0
    6.4064    1.4318  -15.1771 C   0  0  0  0  0  0  0  0  0  0  0  0
    6.3403    2.2839  -14.0876 C   0  0  0  0  0  0  0  0  0  0  0  0
    5.4435   -0.4521  -16.5268 C   0  0  2  0  0  0  0  0  0  0  0  0
    4.0473   -0.5457  -17.0067 C   0  0  0  0  0  0  0  0  0  0  0  0
    3.7870   -0.4420  -18.2316 O   0  0  0  0  0  0  0  0  0  0  0  0
    3.0679   -0.7495  -16.0453 O   0  0  0  0  0  0  0  0  0  0  0  0
    3.3246   -0.5892  -14.6643 C   0  0  0  0  0  0  0  0  0  0  0  0
    5.9993   -1.7817  -16.1704 C   0  0  0  0  0  0  0  0  0  0  0  0
    6.1006   -2.2227  -15.0014 O   0  0  0  0  0  0  0  0  0  0  0  0
    6.3533   -2.3700  -17.3756 O   0  0  0  0  0  0  0  0  0  0  0  0
    6.4806   -1.4072  -18.3889 C   0  0  0  0  0  0  0  0  0  0  0  0
    6.3387   -0.0710  -17.6684 C   0  0  0  0  0  0  0  0  0  0  0  0
   11.2746    7.9210   -6.1086 C   0  0  0  0  0  0  0  0  0  0  0  0
   11.6282    8.9821   -6.9317 C   0  0  0  0  0  0  0  0  0  0  0  0
   11.2715    8.8919   -8.2552 C   0  0  0  0  0  0  0  0  0  0  0  0
   10.5909    7.7822   -8.7207 C   0  0  0  0  0  0  0  0  0  0  0  0
   10.2516    6.7395   -7.8774 C   0  0  0  0  0  0  0  0  0  0  0  0
   10.6013    6.8150   -6.5518 C   0  0  0  0  0  0  0  0  0  0  0  0
    9.5714    5.6216   -8.3242 C   0  0  0  0  0  0  0  0  0  0  0  0
    9.2168    5.5472   -9.6750 C   0  0  0  0  0  0  0  0  0  0  0  0
    9.5747    6.6117  -10.4870 C   0  0  0  0  0  0  0  0  0  0  0  0
    9.2683    6.5761  -11.7190 N   0  0  0  0  0  0  0  0  0  0  0  0
   10.2330    7.6748  -10.0129 N   0  0  0  0  0  0  0  0  0  0  0  0
   10.4799    8.4562  -10.6760 H   0  0  0  0  0  0  0  0  0  0  0  0
   12.3355    8.1397   -2.0670 C   0  0  0  0  0  0  0  0  0  0  0  0
   12.3526    9.2723   -2.8402 C   0  0  0  0  0  0  0  0  0  0  0  0
   12.0038    9.2167   -4.1814 C   0  0  0  0  0  0  0  0  0  0  0  0
   11.6434    7.9977   -4.7043 C   0  0  0  0  0  0  0  0  0  0  0  0
   11.6187    6.8545   -3.9538 C   0  0  0  0  0  0  0  0  0  0  0  0
   11.9717    6.9310   -2.6116 C   0  0  0  0  0  0  0  0  0  0  0  0
 36 37  2  0
 37 38  1  0
 38 39  2  0
 39 24  1  0
 24 25  2  0
 25 26  1  0
 26 27  2  0
 27 28  1  0
 28 29  2  0
 28 30  1  0
 30 31  2  0
 31 32  1  0
 32 33  2  0
 33  1  1  0
  1  2  2  0
  2  3  1  0
  3  4  2  0
  4  5  1  0
  5  6  2  0
  5  7  1  0
  7  8  1  0
  8  9  2  0
  9 10  1  0
 10 11  2  0
 11 12  1  0
 12 13  2  0
 11 14  1  0
 14 15  1  0
 15 16  2  0
 15 17  1  0
 17 18  1  0
 14 19  1  0
 19 20  2  0
 19 21  1  0
 21 22  1  0
 22 23  1  0
 32 34  1  0
 34 35  1  0
 39 40  1  0
 40 41  2  0
 41 36  1  0
 29 24  1  0
  6  1  1  0
 13  8  1  0
 14 23  1  6
 34 27  1  0
 13  4  1  0
 18 10  1  0
M  END
>  <minimizedAffinity>  (32) 
-17.85039

$$$$
Mol: 193_61 - SminaDock
     RDKit          3D

 47 54  0  0  0  0  0  0  0  0999 V2000
   10.7153   -0.5995  -16.1559 H   0  0  0  0  0  0  0  0  0  0  0  0
   10.3276   -0.1159  -15.3222 N   0  0  0  0  0  0  0  0  0  0  0  0
   10.2133    1.1547  -15.3148 C   0  0  0  0  0  0  0  0  0  0  0  0
   10.6137    1.9009  -16.4396 O   0  0  0  0  0  0  0  0  0  0  0  0
   10.3947    3.3145  -16.2899 C   0  0  0  0  0  0  0  0  0  0  0  0
    8.9272    3.4662  -15.9546 C   0  0  0  0  0  0  0  0  0  0  0  0
    8.6409    2.8066  -14.6378 C   0  0  1  0  0  0  0  0  0  0  0  0
    8.3878    3.8534  -13.6265 C   0  0  0  0  0  0  0  0  0  0  0  0
    9.2062    4.8942  -13.1782 C   0  0  0  0  0  0  0  0  0  0  0  0
    8.7464    5.7539  -12.2133 C   0  0  0  0  0  0  0  0  0  0  0  0
    7.4777    5.5750  -11.6999 C   0  0  0  0  0  0  0  0  0  0  0  0
    6.6815    4.5463  -12.1496 C   0  0  0  0  0  0  0  0  0  0  0  0
    7.1269    3.6553  -13.1334 C   0  0  0  0  0  0  0  0  0  0  0  0
    6.4700    2.5032  -13.7605 C   0  0  0  0  0  0  0  0  0  0  0  0
    7.3932    2.0201  -14.6513 C   0  0  0  0  0  0  0  0  0  0  0  0
    7.0362    0.9088  -15.4030 C   0  0  0  0  0  0  0  0  0  0  0  0
    5.7997    0.3228  -15.2507 C   0  0  0  0  0  0  0  0  0  0  0  0
    5.4858   -0.7796  -16.0165 C   0  0  0  0  0  0  0  0  0  0  0  0
    6.4492   -1.2689  -16.9354 N   0  0  0  0  0  0  0  0  0  0  0  0
    6.6890   -2.2895  -16.8707 H   0  0  0  0  0  0  0  0  0  0  0  0
    6.9151   -0.6713  -17.6527 H   0  0  0  0  0  0  0  0  0  0  0  0
    4.2421   -1.3440  -15.8413 C   0  0  0  0  0  0  0  0  0  0  0  0
    3.3072   -0.8659  -14.9481 C   0  0  0  0  0  0  0  0  0  0  0  0
    3.6393    0.2353  -14.1929 C   0  0  0  0  0  0  0  0  0  0  0  0
    4.8835    0.8440  -14.3310 C   0  0  0  0  0  0  0  0  0  0  0  0
    5.2241    1.9498  -13.5757 C   0  0  0  0  0  0  0  0  0  0  0  0
    9.6933    1.8944  -14.2160 N   0  0  1  0  0  0  0  0  0  0  0  0
    9.3399    1.1906  -13.5302 H   0  0  0  0  0  0  0  0  0  0  0  0
   10.4948    2.3929  -13.7749 H   0  0  0  0  0  0  0  0  0  0  0  0
    9.5351    6.8460  -11.7045 N   0  0  0  0  0  0  0  0  0  0  0  0
    9.8262    6.8890  -10.4498 C   0  0  0  0  0  0  0  0  0  0  0  0
    9.3847    5.8975   -9.6073 C   0  0  0  0  0  0  0  0  0  0  0  0
    9.6999    5.9493   -8.2812 N   0  0  0  0  0  0  0  0  0  0  0  0
   10.4413    6.9637   -7.7851 C   0  0  0  0  0  0  0  0  0  0  0  0
   10.7766    7.0386   -6.4437 C   0  0  0  0  0  0  0  0  0  0  0  0
   11.5342    8.0713   -5.9360 C   0  0  0  0  0  0  0  0  0  0  0  0
   11.9811    9.0718   -6.7802 C   0  0  0  0  0  0  0  0  0  0  0  0
   11.6423    8.9875   -8.1105 C   0  0  0  0  0  0  0  0  0  0  0  0
   10.8874    7.9674   -8.6423 C   0  0  0  0  0  0  0  0  0  0  0  0
   10.5589    7.8838   -9.9368 N   0  0  0  0  0  0  0  0  0  0  0  0
   10.8937    8.6377  -10.5807 H   0  0  0  0  0  0  0  0  0  0  0  0
   11.8402    8.0719   -4.5133 C   0  0  0  0  0  0  0  0  0  0  0  0
   12.1720    9.2307   -3.8425 C   0  0  0  0  0  0  0  0  0  0  0  0
   12.4512    9.1526   -2.4815 C   0  0  0  0  0  0  0  0  0  0  0  0
   12.4007    7.9533   -1.8101 C   0  0  0  0  0  0  0  0  0  0  0  0
   12.0713    6.8046   -2.4767 C   0  0  0  0  0  0  0  0  0  0  0  0
   11.7944    6.8773   -3.8232 C   0  0  0  0  0  0  0  0  0  0  0  0
  1  2  1  0
  2  3  2  0
  3  4  1  0
  4  5  1  0
  5  6  1  0
  7  6  1  6
  7  8  1  0
  8  9  2  0
  9 10  1  0
 10 30  1  0
 30 31  2  0
 31 32  1  0
 32 33  2  0
 33 34  1  0
 34 35  2  0
 35 36  1  0
 36 42  1  0
 42 43  2  0
 43 44  1  0
 44 45  2  0
 45 46  1  0
 46 47  2  0
 36 37  2  0
 37 38  1  0
 38 39  2  0
 39 40  1  0
 40 41  1  0
 10 11  2  0
 11 12  1  0
 12 13  2  0
 13 14  1  0
 14 15  2  0
 15 16  1  0
 16 17  2  0
 17 18  1  0
 18 19  1  0
 19 20  1  0
 19 21  1  0
 18 22  2  0
 22 23  1  0
 23 24  2  0
 24 25  1  0
 25 26  2  0
  7 27  1  0
 27 28  1  1
 27 29  1  0
 27  3  1  0
 15  7  1  0
 25 17  1  0
 13  8  1  0
 26 14  1  0
 40 31  1  0
 39 34  1  0
 47 42  1  0
M  CHG  1  27   1
M  END
>  <minimizedAffinity>  (33) 
-17.88359

$$$$
Mol: 125_52 - SminaDock
     RDKit          3D

 47 53  0  0  0  0  0  0  0  0999 V2000
   10.4900    1.2528  -18.5658 O   0  0  0  0  0  0  0  0  0  0  0  0
    9.8426    1.4119  -17.4869 C   0  0  0  0  0  0  0  0  0  0  0  0
    8.4425    1.5403  -17.5555 N   0  0  0  0  0  0  0  0  0  0  0  0
    7.7046    1.7170  -16.3778 C   0  0  0  0  0  0  0  0  0  0  0  0
    6.4818    1.9829  -16.4545 O   0  0  0  0  0  0  0  0  0  0  0  0
    8.2827    1.6093  -15.0012 C   0  0  2  0  0  0  0  0  0  0  0  0
    7.9259    0.2114  -14.5295 C   0  0  0  0  0  0  0  0  0  0  0  0
    6.4688   -0.0123  -14.5434 C   0  0  0  0  0  0  0  0  0  0  0  0
    6.0138   -0.9730  -15.4172 C   0  0  0  0  0  0  0  0  0  0  0  0
    4.6738   -1.2528  -15.5037 C   0  0  0  0  0  0  0  0  0  0  0  0
    3.7184   -0.5966  -14.7309 C   0  0  0  0  0  0  0  0  0  0  0  0
    4.1820    0.3637  -13.8588 C   0  0  0  0  0  0  0  0  0  0  0  0
    5.5254    0.6445  -13.7717 C   0  0  0  0  0  0  0  0  0  0  0  0
    5.8361    1.7032  -12.7825 C   0  0  0  0  0  0  0  0  0  0  0  0
    6.6867    2.7709  -13.3423 C   0  0  0  0  0  0  0  0  0  0  0  0
    7.7812    2.6901  -14.1608 C   0  0  0  0  0  0  0  0  0  0  0  0
    8.7983    3.6145  -14.4843 C   0  0  0  0  0  0  0  0  0  0  0  0
    9.2876    4.7791  -13.9409 C   0  0  0  0  0  0  0  0  0  0  0  0
    8.7549    5.6937  -13.0245 C   0  0  0  0  0  0  0  0  0  0  0  0
    7.4607    5.9843  -12.6523 C   0  0  0  0  0  0  0  0  0  0  0  0
    6.3618    5.1477  -12.4254 C   0  0  0  0  0  0  0  0  0  0  0  0
    5.4712    5.7126  -11.7473 O   0  0  0  0  0  0  0  0  0  0  0  0
    6.0017    3.8459  -12.7599 C   0  0  0  0  0  0  0  0  0  0  0  0
    4.8134    3.5344  -12.4963 O   0  0  0  0  0  0  0  0  0  0  0  0
    9.7673    1.6378  -15.0494 C   0  0  0  0  0  0  0  0  0  0  0  0
   10.3883    1.8281  -13.9810 O   0  0  0  0  0  0  0  0  0  0  0  0
   10.5030    1.4602  -16.2423 N   0  0  0  0  0  0  0  0  0  0  0  0
    7.9456    1.5035  -18.4941 H   0  0  0  0  0  0  0  0  0  0  0  0
   11.5481    1.3597  -16.2448 H   0  0  0  0  0  0  0  0  0  0  0  0
    9.7087    6.4758  -12.3734 N   0  0  0  0  0  0  0  0  0  0  0  0
   10.3415    7.0759  -12.9879 H   0  0  0  0  0  0  0  0  0  0  0  0
    9.9467    6.5779  -10.9839 C   0  0  0  0  0  0  0  0  0  0  0  0
    9.3494    5.7137  -10.1062 N   0  0  0  0  0  0  0  0  0  0  0  0
    9.5369    5.7810   -8.7803 C   0  0  0  0  0  0  0  0  0  0  0  0
   10.3595    6.7491   -8.2455 C   0  0  0  0  0  0  0  0  0  0  0  0
   10.5831    6.8561   -6.8882 C   0  0  0  0  0  0  0  0  0  0  0  0
   11.4021    7.8176   -6.3477 C   0  0  0  0  0  0  0  0  0  0  0  0
   12.0130    8.6978   -7.2139 C   0  0  0  0  0  0  0  0  0  0  0  0
   11.7992    8.6032   -8.5731 C   0  0  0  0  0  0  0  0  0  0  0  0
   10.9634    7.6190   -9.1005 C   0  0  0  0  0  0  0  0  0  0  0  0
   10.7342    7.4955  -10.3979 N   0  0  0  0  0  0  0  0  0  0  0  0
   11.6243    7.9108   -4.9102 C   0  0  0  0  0  0  0  0  0  0  0  0
   11.8698    9.1089   -4.2718 C   0  0  0  0  0  0  0  0  0  0  0  0
   12.0792    9.1766   -2.8997 C   0  0  0  0  0  0  0  0  0  0  0  0
   12.0482    8.0353   -2.1217 C   0  0  0  0  0  0  0  0  0  0  0  0
   11.8050    6.8353   -2.7428 C   0  0  0  0  0  0  0  0  0  0  0  0
   11.5967    6.7743   -4.1124 C   0  0  0  0  0  0  0  0  0  0  0  0
  1  2  2  0
  2  3  1  0
  3  4  1  0
  4  5  2  0
  4  6  1  0
  6  7  1  1
  7  8  1  0
  8  9  2  0
  9 10  1  0
 10 11  2  0
 11 12  1  0
 12 13  2  0
 13 14  1  0
 14 15  1  0
 15 16  2  0
 16 17  1  0
 17 18  2  0
 18 19  1  0
 19 30  1  0
 30 32  1  0
 32 33  2  0
 33 34  1  0
 34 35  2  0
 35 36  1  0
 36 37  2  0
 37 42  1  0
 42 43  2  0
 43 44  1  0
 44 45  2  0
 45 46  1  0
 46 47  2  0
 37 38  1  0
 38 39  2  0
 39 40  1  0
 40 41  2  0
 19 20  2  0
 20 21  1  0
 21 22  2  0
 21 23  1  0
 23 24  2  0
  6 25  1  0
 25 26  2  0
 25 27  1  0
 27  2  1  0
 16  6  1  0
 41 32  1  0
 13  8  1  0
 23 15  1  0
 40 35  1  0
 47 42  1  0
  3 28  1  0
 30 31  1  0
 27 29  1  0
M  END
>  <minimizedAffinity>  (34) 
-17.90338

$$$$
Mol: 108_40 - SminaDock
     RDKit          3D

 40 46  0  0  0  0  0  0  0  0999 V2000
    8.4083    5.3661  -12.6689 C   0  0  0  0  0  0  0  0  0  0  0  0
    9.1776    4.4956  -13.4498 C   0  0  0  0  0  0  0  0  0  0  0  0
    8.4874    3.4552  -13.9866 C   0  0  0  0  0  0  0  0  0  0  0  0
    7.1311    3.2099  -13.8061 C   0  0  0  0  0  0  0  0  0  0  0  0
    6.4034    4.0404  -13.0617 C   0  0  0  0  0  0  0  0  0  0  0  0
    4.9569    3.7656  -12.8815 C   0  0  0  0  0  0  0  0  0  0  0  0
    7.0358    5.1404  -12.4783 C   0  0  0  0  0  0  0  0  0  0  0  0
    6.4652    1.9558  -14.3395 C   0  0  0  0  0  0  0  0  0  0  0  0
    7.2007    0.8865  -13.7042 N   0  0  0  0  0  0  0  0  0  0  0  0
    6.2385   -0.1927  -13.4522 C   0  0  0  0  0  0  0  0  0  0  0  0
    8.3502    0.3512  -14.2901 C   0  0  0  0  0  0  0  0  0  0  0  0
    9.3428    1.2441  -14.9074 C   0  0  0  0  0  0  0  0  0  0  0  0
   10.2879    0.6428  -15.6795 C   0  0  0  0  0  0  0  0  0  0  0  0
   11.2285    1.4150  -16.3599 C   0  0  0  0  0  0  0  0  0  0  0  0
   11.2075    2.7858  -16.2596 C   0  0  0  0  0  0  0  0  0  0  0  0
   10.2529    3.4647  -15.4784 C   0  0  0  0  0  0  0  0  0  0  0  0
    9.3692    2.6483  -14.8351 C   0  0  0  0  0  0  0  0  0  0  0  0
   10.1002    4.9187  -15.4937 C   0  0  0  0  0  0  0  0  0  0  0  0
   10.2595    5.1684  -17.0132 C   0  0  0  0  0  0  0  0  0  0  0  0
    9.4593    5.8301  -17.6226 O   0  0  0  0  0  0  0  0  0  0  0  0
   11.3829    4.6106  -17.7521 C   0  0  0  0  0  0  0  0  0  0  0  0
   12.2024    3.6106  -16.9701 C   0  0  0  0  0  0  0  0  0  0  0  0
   11.1978    7.7747   -6.4072 C   0  0  0  0  0  0  0  0  0  0  0  0
   11.4503    8.8178   -7.2747 C   0  0  0  0  0  0  0  0  0  0  0  0
   11.0876    8.7995   -8.6016 C   0  0  0  0  0  0  0  0  0  0  0  0
   10.4432    7.7081   -9.1182 C   0  0  0  0  0  0  0  0  0  0  0  0
   10.1739    6.6464   -8.2809 C   0  0  0  0  0  0  0  0  0  0  0  0
   10.5520    6.6884   -6.9374 C   0  0  0  0  0  0  0  0  0  0  0  0
    9.5174    5.5012   -8.7487 C   0  0  0  0  0  0  0  0  0  0  0  0
    9.1329    5.4319  -10.0687 C   0  0  0  0  0  0  0  0  0  0  0  0
    9.4297    6.5239  -10.8554 C   0  0  0  0  0  0  0  0  0  0  0  0
    9.0728    6.4658  -12.0916 N   0  0  0  0  0  0  0  0  0  0  0  0
   10.0584    7.6190  -10.4046 N   0  0  0  0  0  0  0  0  0  0  0  0
   10.2817    8.4503  -11.0130 H   0  0  0  0  0  0  0  0  0  0  0  0
   12.3920    8.0112   -2.3430 C   0  0  0  0  0  0  0  0  0  0  0  0
   11.7352    6.8958   -2.8158 C   0  0  0  0  0  0  0  0  0  0  0  0
   11.3472    6.8168   -4.1332 C   0  0  0  0  0  0  0  0  0  0  0  0
   11.5947    7.8274   -5.0104 C   0  0  0  0  0  0  0  0  0  0  0  0
   12.2621    8.9532   -4.5160 C   0  0  0  0  0  0  0  0  0  0  0  0
   12.6614    9.0629   -3.2114 C   0  0  0  0  0  0  0  0  0  0  0  0
 35 36  2  0
 36 37  1  0
 37 38  2  0
 38 23  1  0
 23 24  2  0
 24 25  1  0
 25 26  2  0
 26 27  1  0
 27 28  2  0
 27 29  1  0
 29 30  2  0
 30 31  1  0
 31 32  2  0
 32  1  1  0
  1  2  2  0
  2  3  1  0
  3  4  2  0
  4  5  1  0
  5  6  1  0
  5  7  2  0
  4  8  1  0
  8  9  1  0
  9 10  1  0
  9 11  1  0
 11 12  1  0
 12 13  2  0
 13 14  1  0
 14 15  2  0
 15 16  1  0
 16 17  2  0
 16 18  1  0
 18 19  1  0
 19 20  2  0
 19 21  1  0
 21 22  1  0
 31 33  1  0
 33 34  1  0
 38 39  1  0
 39 40  2  0
 40 35  1  0
 28 23  1  0
  7  1  1  0
 17 12  1  0
 33 26  1  0
 17  3  1  0
 22 15  1  0
M  END
>  <minimizedAffinity>  (35) 
-17.92115

$$$$
Mol: 151_3 - SminaDock
     RDKit          3D

 40 46  0  0  0  0  0  0  0  0999 V2000
    7.1465   -1.4127  -17.1515 H   0  0  0  0  0  0  0  0  0  0  0  0
    6.2162   -1.5761  -16.7631 N   0  0  0  0  0  0  0  0  0  0  0  0
    5.5953   -0.8928  -15.8903 C   0  0  0  0  0  0  0  0  0  0  0  0
    4.3369   -1.3137  -15.5195 C   0  0  0  0  0  0  0  0  0  0  0  0
    3.6466   -0.5920  -14.5782 C   0  0  0  0  0  0  0  0  0  0  0  0
    2.3911   -0.9890  -14.1905 O   0  0  0  0  0  0  0  0  0  0  0  0
    2.2494   -1.7534  -13.5390 H   0  0  0  0  0  0  0  0  0  0  0  0
    4.1817    0.5025  -14.0266 N   0  0  0  0  0  0  0  0  0  0  0  0
    5.4223    0.9621  -14.3575 C   0  0  0  0  0  0  0  0  0  0  0  0
    5.9340    2.0983  -13.7605 C   0  0  0  0  0  0  0  0  0  0  0  0
    7.1837    2.5281  -14.1194 C   0  0  0  0  0  0  0  0  0  0  0  0
    7.9366    1.8534  -15.0591 C   0  0  0  0  0  0  0  0  0  0  0  0
    7.3788    0.7187  -15.6293 C   0  0  0  0  0  0  0  0  0  0  0  0
    6.1226    0.2342  -15.3092 C   0  0  0  0  0  0  0  0  0  0  0  0
    7.7259    3.7371  -13.4817 C   0  0  0  0  0  0  0  0  0  0  0  0
    8.9823    4.1681  -13.8443 C   0  0  0  0  0  0  0  0  0  0  0  0
    9.4840    5.3179  -13.2308 C   0  0  0  0  0  0  0  0  0  0  0  0
    8.7515    6.0063  -12.2906 C   0  0  0  0  0  0  0  0  0  0  0  0
    7.5031    5.5553  -11.9480 C   0  0  0  0  0  0  0  0  0  0  0  0
    6.9649    4.3984  -12.5467 C   0  0  0  0  0  0  0  0  0  0  0  0
    5.6115    3.9606  -12.1340 C   0  0  0  0  0  0  0  0  0  0  0  0
    5.0731    2.7561  -12.7752 C   0  0  0  0  0  0  0  0  0  0  0  0
    9.3148    7.1713  -11.6996 N   0  0  0  0  0  0  0  0  0  0  0  0
    9.6503    7.1022  -10.4562 C   0  0  0  0  0  0  0  0  0  0  0  0
   10.1886    8.1738   -9.8429 N   0  0  0  0  0  0  0  0  0  0  0  0
   10.5599    8.1628   -8.5423 C   0  0  0  0  0  0  0  0  0  0  0  0
   11.1098    9.2592   -7.9174 C   0  0  0  0  0  0  0  0  0  0  0  0
   11.4828    9.2293   -6.5888 C   0  0  0  0  0  0  0  0  0  0  0  0
   11.3187    8.0900   -5.8261 C   0  0  0  0  0  0  0  0  0  0  0  0
   10.7674    6.9911   -6.4534 C   0  0  0  0  0  0  0  0  0  0  0  0
   10.3916    7.0195   -7.7897 C   0  0  0  0  0  0  0  0  0  0  0  0
    9.8404    5.9232   -8.4192 C   0  0  0  0  0  0  0  0  0  0  0  0
    9.4849    5.9847   -9.7238 N   0  0  0  0  0  0  0  0  0  0  0  0
    9.0716    5.1197  -10.1454 H   0  0  0  0  0  0  0  0  0  0  0  0
   11.7229    8.0893   -4.4247 C   0  0  0  0  0  0  0  0  0  0  0  0
   12.0819    9.2401   -3.7535 C   0  0  0  0  0  0  0  0  0  0  0  0
   12.4618    9.2034   -2.4180 C   0  0  0  0  0  0  0  0  0  0  0  0
   12.4938    8.0167   -1.7158 C   0  0  0  0  0  0  0  0  0  0  0  0
   12.1359    6.8693   -2.3849 C   0  0  0  0  0  0  0  0  0  0  0  0
   11.7553    6.9021   -3.7206 C   0  0  0  0  0  0  0  0  0  0  0  0
  1  2  1  0
  2  3  2  0
  3  4  1  0
  4  5  2  0
  5  6  1  0
  6  7  1  0
  5  8  1  0
  8  9  1  0
  9 10  2  0
 10 11  1  0
 11 12  2  0
 12 13  1  0
 13 14  2  0
 11 15  1  0
 15 16  2  0
 16 17  1  0
 17 18  2  0
 18 23  1  0
 23 24  2  0
 24 25  1  0
 25 26  2  0
 26 27  1  0
 27 28  2  0
 28 29  1  0
 29 35  1  0
 35 36  2  0
 36 37  1  0
 37 38  2  0
 38 39  1  0
 39 40  2  0
 29 30  2  0
 30 31  1  0
 31 32  2  0
 32 33  1  0
 33 34  1  0
 18 19  1  0
 19 20  2  0
 20 21  1  0
 21 22  1  0
 14  3  1  0
 20 15  1  0
 14  9  1  0
 33 24  1  0
 22 10  1  0
 31 26  1  0
 40 35  1  0
M  CHG  1   8  -1
M  END
>  <minimizedAffinity>  (36) 
-17.88196

$$$$
Mol: 200_17 - SminaDock
     RDKit          3D

 41 48  0  0  0  0  0  0  0  0999 V2000
    8.1121    0.3393  -19.7253 H   0  0  0  0  0  0  0  0  0  0  0  0
    8.0089   -0.4373  -19.0880 O   0  0  0  0  0  0  0  0  0  0  0  0
    7.2100   -0.3712  -17.9307 C   0  0  0  0  0  0  0  0  0  0  0  0
    6.0826    0.2857  -17.7557 C   0  0  0  0  0  0  0  0  0  0  0  0
    6.0436   -0.2272  -16.3642 C   0  0  2  0  0  0  0  0  0  0  0  0
    7.2501   -0.8915  -16.6508 O   0  0  0  0  0  0  0  0  0  0  0  0
    4.8926   -1.0650  -16.0695 C   0  0  0  0  0  0  0  0  0  0  0  0
    4.4527   -2.0830  -16.7136 O   0  0  0  0  0  0  0  0  0  0  0  0
    4.2643   -0.5604  -14.8659 C   0  0  0  0  0  0  0  0  0  0  0  0
    3.2290   -1.0027  -14.2670 O   0  0  0  0  0  0  0  0  0  0  0  0
    5.0719    0.6020  -14.4449 C   0  0  0  0  0  0  0  0  0  0  0  0
    4.9016    1.4464  -13.3481 C   0  0  0  0  0  0  0  0  0  0  0  0
    5.7783    2.4887  -13.1279 C   0  0  0  0  0  0  0  0  0  0  0  0
    6.8278    2.7040  -13.9882 C   0  0  0  0  0  0  0  0  0  0  0  0
    6.9764    1.8612  -15.0609 C   0  0  0  0  0  0  0  0  0  0  0  0
    6.1039    0.7903  -15.3164 C   0  0  0  0  0  0  0  0  0  0  0  0
    7.5894    3.8572  -13.5279 C   0  0  0  0  0  0  0  0  0  0  0  0
    8.7323    4.4945  -14.0268 C   0  0  0  0  0  0  0  0  0  0  0  0
    9.2687    5.5869  -13.3981 C   0  0  0  0  0  0  0  0  0  0  0  0
    8.6969    6.0926  -12.2517 C   0  0  0  0  0  0  0  0  0  0  0  0
    7.5750    5.4749  -11.7535 C   0  0  0  0  0  0  0  0  0  0  0  0
    7.0136    4.3559  -12.3850 C   0  0  0  0  0  0  0  0  0  0  0  0
    5.8416    3.5213  -12.0704 C   0  0  0  0  0  0  0  0  0  0  0  0
    9.2735    7.2321  -11.6149 N   0  0  0  0  0  0  0  0  0  0  0  0
    9.6281    7.1732  -10.3790 C   0  0  0  0  0  0  0  0  0  0  0  0
    9.4575    6.0157   -9.6566 C   0  0  0  0  0  0  0  0  0  0  0  0
    9.8509    5.9963   -8.3370 C   0  0  0  0  0  0  0  0  0  0  0  0
   10.4093    7.1010   -7.7214 C   0  0  0  0  0  0  0  0  0  0  0  0
   10.7797    7.0139   -6.4032 C   0  0  0  0  0  0  0  0  0  0  0  0
   11.3401    8.1130   -5.7753 C   0  0  0  0  0  0  0  0  0  0  0  0
   11.5042    9.2650   -6.5132 C   0  0  0  0  0  0  0  0  0  0  0  0
   11.1211    9.3375   -7.8576 C   0  0  0  0  0  0  0  0  0  0  0  0
   10.5640    8.2421   -8.4787 C   0  0  0  0  0  0  0  0  0  0  0  0
   10.1746    8.2629   -9.7865 N   0  0  0  0  0  0  0  0  0  0  0  0
   10.3131    9.1503  -10.3153 H   0  0  0  0  0  0  0  0  0  0  0  0
   11.7451    8.0571   -4.3783 C   0  0  0  0  0  0  0  0  0  0  0  0
   12.1075    9.1939   -3.6849 C   0  0  0  0  0  0  0  0  0  0  0  0
   12.4885    9.1413   -2.3705 C   0  0  0  0  0  0  0  0  0  0  0  0
   12.5246    7.9557   -1.6917 C   0  0  0  0  0  0  0  0  0  0  0  0
   12.1634    6.7902   -2.3675 C   0  0  0  0  0  0  0  0  0  0  0  0
   11.7849    6.8579   -3.6809 C   0  0  0  0  0  0  0  0  0  0  0  0
  1  2  1  0
  2  3  1  0
  3  4  2  0
  4  5  1  0
  5  6  1  1
  5  7  1  0
  7  8  2  0
  7  9  1  0
  9 10  2  0
  9 11  1  0
 11 12  2  0
 12 13  1  0
 13 14  2  0
 14 15  1  0
 15 16  2  0
 14 17  1  0
 17 18  2  0
 18 19  1  0
 19 20  2  0
 20 24  1  0
 24 25  2  0
 25 26  1  0
 26 27  2  0
 27 28  1  0
 28 29  2  0
 29 30  1  0
 30 36  1  0
 36 37  2  0
 37 38  1  0
 38 39  2  0
 39 40  1  0
 40 41  2  0
 30 31  2  0
 31 32  1  0
 32 33  2  0
 33 34  1  0
 34 35  1  0
 20 21  1  0
 21 22  2  0
 22 23  1  0
  6  3  1  0
 16 11  1  0
 22 17  1  0
 16  5  1  0
 34 25  1  0
 23 13  1  0
 33 28  1  0
 41 36  1  0
M  END
>  <minimizedAffinity>  (37) 
-17.86825

$$$$
Mol: 131_52 - SminaDock
     RDKit          3D

 40 46  0  0  0  0  0  0  0  0999 V2000
    8.6673    5.9884  -12.2004 C   0  0  0  0  0  0  0  0  0  0  0  0
    7.4280    5.7214  -11.6771 C   0  0  0  0  0  0  0  0  0  0  0  0
    6.7085    4.6316  -12.1814 C   0  0  0  0  0  0  0  0  0  0  0  0
    7.2513    3.8350  -13.2002 C   0  0  0  0  0  0  0  0  0  0  0  0
    8.4817    4.1090  -13.7195 C   0  0  0  0  0  0  0  0  0  0  0  0
    9.1773    5.1991  -13.1967 C   0  0  0  0  0  0  0  0  0  0  0  0
    9.0126    3.3732  -14.8741 C   0  0  0  0  0  0  0  0  0  0  0  0
    8.6118    1.9395  -15.0229 C   0  0  0  0  0  0  0  0  0  0  0  0
    7.2614    1.7759  -14.5437 C   0  0  0  0  0  0  0  0  0  0  0  0
    6.5851    2.6033  -13.6366 C   0  0  0  0  0  0  0  0  0  0  0  0
    5.3263    2.3474  -13.1977 C   0  0  0  0  0  0  0  0  0  0  0  0
    4.6316    1.2257  -13.6409 C   0  0  0  0  0  0  0  0  0  0  0  0
    5.2375    0.3942  -14.5184 C   0  0  0  0  0  0  0  0  0  0  0  0
    4.4132   -0.6591  -14.8723 C   0  0  0  0  0  0  0  0  0  0  0  0
    3.4755   -0.8658  -14.0951 O   0  0  0  0  0  0  0  0  0  0  0  0
    4.5760   -1.4389  -15.9783 N   0  0  0  0  0  0  0  0  0  0  0  0
    5.5178   -1.4110  -16.9433 C   0  0  0  0  0  0  0  0  0  0  0  0
    5.2193   -1.9395  -18.0490 O   0  0  0  0  0  0  0  0  0  0  0  0
    6.7731   -0.8659  -16.8499 N   0  0  0  0  0  0  0  0  0  0  0  0
    7.2652   -0.1298  -15.8144 C   0  0  0  0  0  0  0  0  0  0  0  0
    8.4896   -0.1535  -15.5784 O   0  0  0  0  0  0  0  0  0  0  0  0
    6.5369    0.6705  -14.9594 C   0  0  0  0  0  0  0  0  0  0  0  0
   11.4308    8.2119   -5.8971 C   0  0  0  0  0  0  0  0  0  0  0  0
   11.7483    9.2813   -6.6997 C   0  0  0  0  0  0  0  0  0  0  0  0
   11.4101    9.3171   -8.0487 C   0  0  0  0  0  0  0  0  0  0  0  0
   10.7360    8.2456   -8.5940 C   0  0  0  0  0  0  0  0  0  0  0  0
   10.3723    8.2018   -9.8902 N   0  0  0  0  0  0  0  0  0  0  0  0
    9.7199    7.1683  -10.4236 C   0  0  0  0  0  0  0  0  0  0  0  0
    9.3624    7.1020  -11.6559 N   0  0  0  0  0  0  0  0  0  0  0  0
    9.4151    6.1278   -9.6272 N   0  0  0  0  0  0  0  0  0  0  0  0
    8.9036    5.2875   -9.9895 H   0  0  0  0  0  0  0  0  0  0  0  0
    9.7440    6.0958   -8.3208 C   0  0  0  0  0  0  0  0  0  0  0  0
   10.4205    7.1779   -7.7868 C   0  0  0  0  0  0  0  0  0  0  0  0
   10.7551    7.1402   -6.4476 C   0  0  0  0  0  0  0  0  0  0  0  0
   12.4105    7.8999   -1.8171 C   0  0  0  0  0  0  0  0  0  0  0  0
   12.0613    6.7659   -2.5201 C   0  0  0  0  0  0  0  0  0  0  0  0
   11.7486    6.9252   -3.8581 C   0  0  0  0  0  0  0  0  0  0  0  0
   11.7818    8.1613   -4.4711 C   0  0  0  0  0  0  0  0  0  0  0  0
   12.1322    9.2586   -3.7415 C   0  0  0  0  0  0  0  0  0  0  0  0
   12.4511    9.1565   -2.4130 C   0  0  0  0  0  0  0  0  0  0  0  0
 35 36  2  0
 36 37  1  0
 37 38  2  0
 38 23  1  0
 23 24  1  0
 24 25  2  0
 25 26  1  0
 26 27  2  0
 27 28  1  0
 28 29  2  0
 29  1  1  0
  1  2  2  0
  2  3  1  0
  3  4  2  0
  4  5  1  0
  5  6  2  0
  5  7  1  0
  7  8  1  0
  8  9  1  0
  9 10  2  0
 10 11  1  0
 11 12  2  0
 12 13  1  0
 13 14  1  0
 14 15  2  0
 14 16  1  0
 16 17  1  0
 17 18  2  0
 17 19  1  0
 19 20  1  0
 20 21  2  0
 20 22  1  0
 28 30  1  0
 30 31  1  0
 30 32  1  0
 32 33  2  0
 33 34  1  0
 38 39  1  0
 39 40  2  0
 40 35  1  0
 34 23  2  0
 33 26  1  0
  6  1  1  0
 22  9  1  0
 10  4  1  0
 22 13  2  0
M  CHG  2  16  -1  19  -1
M  END
>  <minimizedAffinity>  (38) 
-17.88807

$$$$
Mol: 188_16 - SminaDock
     RDKit          3D

 45 52  0  0  0  0  0  0  0  0999 V2000
    8.5530    5.8327  -12.1582 C   0  0  0  0  0  0  0  0  0  0  0  0
    7.2157    5.8964  -11.8023 C   0  0  0  0  0  0  0  0  0  0  0  0
    6.3494    4.9298  -12.2670 C   0  0  0  0  0  0  0  0  0  0  0  0
    6.8556    3.9111  -13.0873 C   0  0  0  0  0  0  0  0  0  0  0  0
    8.1599    3.8475  -13.4386 C   0  0  0  0  0  0  0  0  0  0  0  0
    9.0396    4.8359  -12.9608 C   0  0  0  0  0  0  0  0  0  0  0  0
    8.6875    2.8542  -14.3685 C   0  0  2  0  0  0  0  0  0  0  0  0
    7.7601    1.7139  -14.5851 C   0  0  0  0  0  0  0  0  0  0  0  0
    8.2474    0.5806  -15.2126 C   0  0  0  0  0  0  0  0  0  0  0  0
    7.4669   -0.4709  -15.5064 C   0  0  0  0  0  0  0  0  0  0  0  0
    6.1359   -0.4239  -15.1728 C   0  0  0  0  0  0  0  0  0  0  0  0
    5.3027   -1.4875  -15.4682 C   0  0  0  0  0  0  0  0  0  0  0  0
    5.7984   -2.4928  -16.0423 O   0  0  0  0  0  0  0  0  0  0  0  0
    3.9973   -1.4760  -15.1627 N   0  0  0  0  0  0  0  0  0  0  0  0
    3.3628   -2.2915  -15.3901 H   0  0  0  0  0  0  0  0  0  0  0  0
    3.4767   -0.4027  -14.5521 C   0  0  0  0  0  0  0  0  0  0  0  0
    4.2576    0.7221  -14.2167 C   0  0  0  0  0  0  0  0  0  0  0  0
    5.5865    0.6897  -14.5362 C   0  0  0  0  0  0  0  0  0  0  0  0
    6.4279    1.7629  -14.2442 C   0  0  0  0  0  0  0  0  0  0  0  0
    5.8985    2.8773  -13.4693 C   0  0  0  0  0  0  0  0  0  0  0  0
    4.7197    2.9882  -13.1304 O   0  0  0  0  0  0  0  0  0  0  0  0
   10.0610    2.3937  -14.0078 C   0  0  0  0  0  0  0  0  0  0  0  0
   11.1808    2.7363  -14.8816 C   0  0  0  0  0  0  0  0  0  0  0  0
   10.9288    2.6054  -16.3584 C   0  0  2  0  0  0  0  0  0  0  0  0
   11.8084    3.5863  -17.1023 C   0  0  0  0  0  0  0  0  0  0  0  0
    9.4999    2.9209  -16.7158 C   0  0  0  0  0  0  0  0  0  0  0  0
    8.7532    3.6299  -15.6819 C   0  0  0  0  0  0  0  0  0  0  0  0
   11.5234    7.8878   -5.8814 C   0  0  0  0  0  0  0  0  0  0  0  0
   12.1200    8.7649   -6.7800 C   0  0  0  0  0  0  0  0  0  0  0  0
   11.8186    8.7087   -8.1248 C   0  0  0  0  0  0  0  0  0  0  0  0
   10.9240    7.7938   -8.6383 C   0  0  0  0  0  0  0  0  0  0  0  0
   10.3282    6.9206   -7.7530 C   0  0  0  0  0  0  0  0  0  0  0  0
    9.4514    6.0219   -8.2478 N   0  0  0  0  0  0  0  0  0  0  0  0
    9.1672    5.9834   -9.5829 C   0  0  0  0  0  0  0  0  0  0  0  0
    9.7644    6.8560  -10.4577 C   0  0  0  0  0  0  0  0  0  0  0  0
    9.4869    6.8058  -11.7040 N   0  0  0  0  0  0  0  0  0  0  0  0
   10.6363    7.7494   -9.9651 N   0  0  0  0  0  0  0  0  0  0  0  0
   11.1321    8.4516  -10.5875 H   0  0  0  0  0  0  0  0  0  0  0  0
   10.6308    6.9774   -6.4052 C   0  0  0  0  0  0  0  0  0  0  0  0
   12.4731    8.0798   -1.7135 C   0  0  0  0  0  0  0  0  0  0  0  0
   12.1388    6.8808   -2.3149 C   0  0  0  0  0  0  0  0  0  0  0  0
   11.8315    6.8256   -3.6676 C   0  0  0  0  0  0  0  0  0  0  0  0
   11.8466    7.9525   -4.4604 C   0  0  0  0  0  0  0  0  0  0  0  0
   12.1823    9.1485   -3.8501 C   0  0  0  0  0  0  0  0  0  0  0  0
   12.4872    9.2062   -2.5105 C   0  0  0  0  0  0  0  0  0  0  0  0
 40 41  2  0
 41 42  1  0
 42 43  2  0
 43 28  1  0
 28 29  2  0
 29 30  1  0
 30 31  2  0
 31 32  1  0
 32 33  1  0
 33 34  2  0
 34 35  1  0
 35 36  2  0
 36  1  1  0
  1  2  2  0
  2  3  1  0
  3  4  2  0
  4  5  1  0
  5  6  2  0
  5  7  1  0
  7  8  1  0
  8  9  2  0
  9 10  1  0
 10 11  2  0
 11 12  1  0
 12 13  2  0
 12 14  1  0
 14 15  1  0
 14 16  1  0
 16 17  2  0
 17 18  1  0
 18 19  2  0
 19 20  1  0
 20 21  2  0
  7 22  1  1
 22 23  1  0
 23 24  1  0
 24 25  1  6
 24 26  1  0
 26 27  1  0
 35 37  1  0
 37 38  1  0
 32 39  2  0
 43 44  1  0
 44 45  2  0
 45 40  1  0
 39 28  1  0
 37 31  1  0
  6  1  1  0
 27  7  1  0
 20  4  1  0
 19  8  1  0
 18 11  1  0
M  END
>  <minimizedAffinity>  (39) 
-17.93760

$$$$
Mol: 151_53 - SminaDock
     RDKit          3D

 42 48  0  0  0  0  0  0  0  0999 V2000
    8.6928    5.8523  -12.5455 C   0  0  0  0  0  0  0  0  0  0  0  0
    9.2395    5.1444  -13.5905 C   0  0  0  0  0  0  0  0  0  0  0  0
    8.6110    4.0573  -14.1456 C   0  0  0  0  0  0  0  0  0  0  0  0
    7.3744    3.6564  -13.6315 C   0  0  0  0  0  0  0  0  0  0  0  0
    6.7997    4.3408  -12.5917 C   0  0  0  0  0  0  0  0  0  0  0  0
    7.4882    5.4323  -12.0738 C   0  0  0  0  0  0  0  0  0  0  0  0
    5.4764    3.9905  -12.0648 C   0  0  0  0  0  0  0  0  0  0  0  0
    4.9626    2.6655  -12.4159 C   0  0  0  0  0  0  0  0  0  0  0  0
    5.5550    2.0254  -13.6181 C   0  0  0  0  0  0  0  0  0  0  0  0
    4.9259    0.9169  -14.1815 C   0  0  0  0  0  0  0  0  0  0  0  0
    5.4787    0.2778  -15.2635 C   0  0  0  0  0  0  0  0  0  0  0  0
    6.6607    0.6903  -15.8376 C   0  0  0  0  0  0  0  0  0  0  0  0
    7.2907    1.8128  -15.2627 C   0  0  0  0  0  0  0  0  0  0  0  0
    6.7336    2.4502  -14.1803 C   0  0  0  0  0  0  0  0  0  0  0  0
    7.3663    0.1510  -16.9468 N   0  0  0  0  0  0  0  0  0  0  0  0
    8.6982    0.6563  -17.1676 C   0  0  0  0  0  0  0  0  0  0  0  0
    6.8352   -0.8693  -17.8662 C   0  0  0  0  0  0  0  0  0  0  0  0
    5.4029   -0.5459  -18.1098 C   0  0  0  0  0  0  0  0  0  0  0  0
    5.1139   -0.0878  -19.1979 O   0  0  0  0  0  0  0  0  0  0  0  0
    4.2553   -0.7117  -17.1809 C   0  0  1  0  0  0  0  0  0  0  0  0
    3.4991   -1.8614  -17.6383 N   0  0  0  0  0  0  0  0  0  0  0  0
    4.0827   -2.5821  -18.0911 H   0  0  0  0  0  0  0  0  0  0  0  0
    2.9210   -2.3007  -16.9132 H   0  0  0  0  0  0  0  0  0  0  0  0
    4.6780   -0.8876  -15.7405 C   0  0  0  0  0  0  0  0  0  0  0  0
   11.3147    8.0001   -6.1190 C   0  0  0  0  0  0  0  0  0  0  0  0
   11.6376    9.0790   -6.9151 C   0  0  0  0  0  0  0  0  0  0  0  0
   11.3054    9.0779   -8.2572 C   0  0  0  0  0  0  0  0  0  0  0  0
   10.6495    8.0226   -8.8550 C   0  0  0  0  0  0  0  0  0  0  0  0
   10.3252    6.9396   -8.0564 C   0  0  0  0  0  0  0  0  0  0  0  0
    9.6696    5.8957   -8.6754 C   0  0  0  0  0  0  0  0  0  0  0  0
    9.3523    5.9092   -9.9860 N   0  0  0  0  0  0  0  0  0  0  0  0
    9.6762    6.9697  -10.7423 C   0  0  0  0  0  0  0  0  0  0  0  0
    9.3799    6.9909  -11.9835 N   0  0  0  0  0  0  0  0  0  0  0  0
   10.3224    8.0114  -10.1575 N   0  0  0  0  0  0  0  0  0  0  0  0
   10.5695    8.8294  -10.7516 H   0  0  0  0  0  0  0  0  0  0  0  0
   10.6576    6.9442   -6.7199 C   0  0  0  0  0  0  0  0  0  0  0  0
   12.3023    7.9243   -1.9931 C   0  0  0  0  0  0  0  0  0  0  0  0
   11.9613    6.7486   -2.6309 C   0  0  0  0  0  0  0  0  0  0  0  0
   11.6492    6.8093   -3.9592 C   0  0  0  0  0  0  0  0  0  0  0  0
   11.6581    7.9792   -4.6882 C   0  0  0  0  0  0  0  0  0  0  0  0
   12.0031    9.1410   -4.0240 C   0  0  0  0  0  0  0  0  0  0  0  0
   12.3233    9.1232   -2.6907 C   0  0  0  0  0  0  0  0  0  0  0  0
 37 38  2  0
 38 39  1  0
 39 40  2  0
 40 25  1  0
 25 26  2  0
 26 27  1  0
 27 28  2  0
 28 29  1  0
 29 30  1  0
 30 31  2  0
 31 32  1  0
 32 33  2  0
 33  1  1  0
  1  2  2  0
  2  3  1  0
  3  4  2  0
  4  5  1  0
  5  6  2  0
  5  7  1  0
  7  8  1  0
  8  9  1  0
  9 10  2  0
 10 11  1  0
 11 12  2  0
 12 13  1  0
 13 14  2  0
 12 15  1  0
 15 16  1  0
 15 17  1  0
 17 18  1  0
 18 19  2  0
 18 20  1  0
 20 21  1  6
 21 22  1  0
 21 23  1  0
 20 24  1  0
 32 34  1  0
 34 35  1  0
 29 36  2  0
 40 41  1  0
 41 42  2  0
 42 37  1  0
 36 25  1  0
 34 28  1  0
  6  1  1  0
 14  9  1  0
 14  4  1  0
 24 11  1  0
M  END
>  <minimizedAffinity>  (40) 
-17.87373

$$$$
Mol: 199_48 - SminaDock
     RDKit          3D

 45 52  0  0  0  0  0  0  0  0999 V2000
    6.0549   -2.5139  -17.9959 H   0  0  0  0  0  0  0  0  0  0  0  0
    6.0713   -1.9524  -17.1521 O   0  0  0  0  0  0  0  0  0  0  0  0
    6.9520   -0.8729  -17.0646 C   0  0  0  0  0  0  0  0  0  0  0  0
    7.9226   -0.6471  -17.8647 N   0  0  0  0  0  0  0  0  0  0  0  0
    8.6653    0.5476  -17.5271 C   0  0  1  0  0  0  0  0  0  0  0  0
    7.9806    1.0573  -16.3381 C   0  0  0  0  0  0  0  0  0  0  0  0
    8.2303    2.1821  -15.5474 C   0  0  0  0  0  0  0  0  0  0  0  0
    7.3918    2.3760  -14.4882 C   0  0  0  0  0  0  0  0  0  0  0  0
    6.3346    1.5143  -14.1949 C   0  0  0  0  0  0  0  0  0  0  0  0
    6.1083    0.4280  -14.9740 C   0  0  0  0  0  0  0  0  0  0  0  0
    6.9386    0.1858  -16.0651 C   0  0  0  0  0  0  0  0  0  0  0  0
    5.3572    1.6851  -13.1028 C   0  0  0  0  0  0  0  0  0  0  0  0
    4.7838    0.6217  -12.7577 O   0  0  0  0  0  0  0  0  0  0  0  0
    5.0435    2.9120  -12.4562 N   0  0  0  0  0  0  0  0  0  0  0  0
    4.4649    2.8287  -11.5982 H   0  0  0  0  0  0  0  0  0  0  0  0
    5.4157    4.2606  -12.8257 C   0  0  0  0  0  0  0  0  0  0  0  0
    6.8794    4.4027  -13.0006 C   0  0  0  0  0  0  0  0  0  0  0  0
    7.4058    5.4822  -12.3449 C   0  0  0  0  0  0  0  0  0  0  0  0
    8.7605    5.7542  -12.3691 C   0  0  0  0  0  0  0  0  0  0  0  0
    9.5769    4.9030  -13.0757 C   0  0  0  0  0  0  0  0  0  0  0  0
    9.1017    3.7898  -13.7617 C   0  0  0  0  0  0  0  0  0  0  0  0
    7.7586    3.5611  -13.7129 C   0  0  0  0  0  0  0  0  0  0  0  0
   10.0569    0.0877  -17.1432 C   0  0  0  0  0  0  0  0  0  0  0  0
   11.1321    1.0720  -17.4651 C   0  0  0  0  0  0  0  0  0  0  0  0
   11.0087    1.5601  -18.7684 O   0  0  0  0  0  0  0  0  0  0  0  0
    9.8708    2.3853  -18.7421 C   0  0  0  0  0  0  0  0  0  0  0  0
    8.6624    1.5204  -18.6743 C   0  0  0  0  0  0  0  0  0  0  0  0
    9.2969    6.8988  -11.6729 N   0  0  0  0  0  0  0  0  0  0  0  0
    9.6312    6.8659  -10.4363 C   0  0  0  0  0  0  0  0  0  0  0  0
    9.4918    5.7182   -9.7031 C   0  0  0  0  0  0  0  0  0  0  0  0
    9.8619    5.7266   -8.3848 C   0  0  0  0  0  0  0  0  0  0  0  0
   10.3605    6.8868   -7.8435 C   0  0  0  0  0  0  0  0  0  0  0  0
   10.7482    6.9364   -6.5084 C   0  0  0  0  0  0  0  0  0  0  0  0
   11.2505    8.0934   -5.9526 C   0  0  0  0  0  0  0  0  0  0  0  0
   11.3581    9.1999   -6.7553 C   0  0  0  0  0  0  0  0  0  0  0  0
   10.9818    9.1865   -8.0885 C   0  0  0  0  0  0  0  0  0  0  0  0
   10.4766    8.0040   -8.6276 C   0  0  0  0  0  0  0  0  0  0  0  0
   10.1212    8.0124   -9.9116 N   0  0  0  0  0  0  0  0  0  0  0  0
   10.2202    8.8906  -10.4992 H   0  0  0  0  0  0  0  0  0  0  0  0
   11.6418    8.0813   -4.5383 C   0  0  0  0  0  0  0  0  0  0  0  0
   12.0154    9.2595   -3.9257 C   0  0  0  0  0  0  0  0  0  0  0  0
   12.3801    9.2339   -2.5975 C   0  0  0  0  0  0  0  0  0  0  0  0
   12.3800    8.0553   -1.8662 C   0  0  0  0  0  0  0  0  0  0  0  0
   12.0097    6.8825   -2.4703 C   0  0  0  0  0  0  0  0  0  0  0  0
   11.6474    6.9215   -3.7977 C   0  0  0  0  0  0  0  0  0  0  0  0
  1  2  1  0
  2  3  1  0
  3  4  2  0
  4  5  1  0
  5  6  1  0
  6  7  2  0
  7  8  1  0
  8  9  2  0
  9 10  1  0
 10 11  2  0
  9 12  1  0
 12 13  2  0
 12 14  1  0
 14 15  1  0
 14 16  1  0
 16 17  1  0
 17 18  2  0
 18 19  1  0
 19 28  1  0
 28 29  2  0
 29 30  1  0
 30 31  2  0
 31 32  1  0
 32 33  2  0
 33 34  1  0
 34 40  1  0
 40 41  2  0
 41 42  1  0
 42 43  2  0
 43 44  1  0
 44 45  2  0
 34 35  2  0
 35 36  1  0
 36 37  2  0
 37 38  1  0
 38 39  1  0
 19 20  2  0
 20 21  1  0
 21 22  2  0
  5 23  1  1
 23 24  1  0
 24 25  1  0
 25 26  1  0
 26 27  1  0
 11  3  1  0
 22 17  1  0
 27  5  1  0
 11  6  1  0
 38 29  1  0
 22  8  1  0
 37 32  1  0
 45 40  1  0
M  END
>  <minimizedAffinity>  (41) 
-17.85052

$$$$
Mol: 135_50 - SminaDock
     RDKit          3D

 43 50  0  0  0  0  0  0  0  0999 V2000
    8.5063    2.7849  -19.1358 H   0  0  0  0  0  0  0  0  0  0  0  0
    7.9535    2.4112  -18.3843 O   0  0  0  0  0  0  0  0  0  0  0  0
    8.2962    1.2669  -17.6745 C   0  0  0  0  0  0  0  0  0  0  0  0
    9.5132    0.8603  -17.5937 N   0  0  0  0  0  0  0  0  0  0  0  0
    9.6033   -0.3186  -16.8214 C   0  0  0  0  0  0  0  0  0  0  0  0
   10.6951   -0.9056  -16.6006 O   0  0  0  0  0  0  0  0  0  0  0  0
    8.3312   -0.6194  -16.4217 O   0  0  0  0  0  0  0  0  0  0  0  0
    7.4515    0.3391  -16.9232 C   0  0  1  0  0  0  0  0  0  0  0  0
    6.8125    1.0012  -15.7645 C   0  0  0  0  0  0  0  0  0  0  0  0
    7.4407    2.1020  -15.2028 C   0  0  0  0  0  0  0  0  0  0  0  0
    6.9067    2.7666  -14.1255 C   0  0  0  0  0  0  0  0  0  0  0  0
    5.7014    2.3104  -13.5943 C   0  0  0  0  0  0  0  0  0  0  0  0
    5.0635    1.2102  -14.1478 C   0  0  0  0  0  0  0  0  0  0  0  0
    5.6268    0.5497  -15.2448 C   0  0  0  0  0  0  0  0  0  0  0  0
    4.9975   -0.5597  -15.8140 O   0  0  0  0  0  0  0  0  0  0  0  0
    5.5684   -1.2313  -16.9371 C   0  0  0  0  0  0  0  0  0  0  0  0
    6.3652   -0.2792  -17.7910 C   0  0  0  0  0  0  0  0  0  0  0  0
    5.0473    2.9518  -12.4324 C   0  0  0  0  0  0  0  0  0  0  0  0
    5.7000    4.1324  -11.8656 C   0  0  0  0  0  0  0  0  0  0  0  0
    6.9848    4.5819  -12.4408 C   0  0  0  0  0  0  0  0  0  0  0  0
    7.6309    5.6961  -11.8753 C   0  0  0  0  0  0  0  0  0  0  0  0
    8.8113    6.1360  -12.3888 C   0  0  0  0  0  0  0  0  0  0  0  0
    9.3702    5.4917  -13.4586 C   0  0  0  0  0  0  0  0  0  0  0  0
    8.7250    4.3959  -14.0066 C   0  0  0  0  0  0  0  0  0  0  0  0
    7.5292    3.9225  -13.5132 C   0  0  0  0  0  0  0  0  0  0  0  0
    9.4565    7.2742  -11.7997 N   0  0  0  0  0  0  0  0  0  0  0  0
    9.7471    7.1821  -10.5470 C   0  0  0  0  0  0  0  0  0  0  0  0
   10.3568    8.2605   -9.9945 N   0  0  0  0  0  0  0  0  0  0  0  0
   10.6644    8.1726   -8.6859 C   0  0  0  0  0  0  0  0  0  0  0  0
   11.2868    9.2430   -8.0723 C   0  0  0  0  0  0  0  0  0  0  0  0
   11.6163    9.1783   -6.7186 C   0  0  0  0  0  0  0  0  0  0  0  0
   11.3259    8.0494   -5.9785 C   0  0  0  0  0  0  0  0  0  0  0  0
   10.7077    6.9772   -6.5734 C   0  0  0  0  0  0  0  0  0  0  0  0
   10.3927    7.0693   -7.9164 C   0  0  0  0  0  0  0  0  0  0  0  0
    9.7766    6.0029   -8.5128 C   0  0  0  0  0  0  0  0  0  0  0  0
    9.4737    6.0931   -9.8071 N   0  0  0  0  0  0  0  0  0  0  0  0
    9.0031    5.2830  -10.2695 H   0  0  0  0  0  0  0  0  0  0  0  0
   11.6974    8.0459   -4.5647 C   0  0  0  0  0  0  0  0  0  0  0  0
   11.6732    6.8488   -3.8894 C   0  0  0  0  0  0  0  0  0  0  0  0
   12.0142    6.7717   -2.5425 C   0  0  0  0  0  0  0  0  0  0  0  0
   12.3843    7.9190   -1.8694 C   0  0  0  0  0  0  0  0  0  0  0  0
   12.4013    9.1092   -2.5674 C   0  0  0  0  0  0  0  0  0  0  0  0
   12.0620    9.1895   -3.9102 C   0  0  0  0  0  0  0  0  0  0  0  0
  1  2  1  0
  2  3  1  0
  3  4  2  0
  4  5  1  0
  5  6  2  0
  5  7  1  0
  8  7  1  0
  8  9  1  0
  9 10  2  0
 10 11  1  0
 11 12  2  0
 12 13  1  0
 13 14  2  0
 14 15  1  0
 15 16  1  0
 16 17  1  0
 12 18  1  0
 18 19  1  0
 19 20  1  0
 20 21  2  0
 21 22  1  0
 22 26  1  0
 26 27  2  0
 27 28  1  0
 28 29  2  0
 29 30  1  0
 30 31  2  0
 31 32  1  0
 32 38  1  0
 38 39  2  0
 39 40  1  0
 40 41  2  0
 41 42  1  0
 42 43  2  0
 32 33  2  0
 33 34  1  0
 34 35  2  0
 35 36  1  0
 36 37  1  0
 22 23  2  0
 23 24  1  0
 24 25  2  0
  8  3  1  0
 14  9  1  0
 25 20  1  0
  8 17  1  6
 36 27  1  0
 25 11  1  0
 34 29  1  0
 43 38  1  0
M  END
>  <minimizedAffinity>  (42) 
-17.86904

$$$$
Mol: 190_15 - SminaDock
     RDKit          3D

 45 52  0  0  0  0  0  0  0  0999 V2000
    5.0992   -3.6185  -17.4904 H   0  0  0  0  0  0  0  0  0  0  0  0
    5.7862   -2.8518  -17.3220 N   0  0  0  0  0  0  0  0  0  0  0  0
    5.5715   -1.8987  -16.4885 C   0  0  0  0  0  0  0  0  0  0  0  0
    4.5150   -1.7182  -15.7376 O   0  0  0  0  0  0  0  0  0  0  0  0
    4.6759   -0.6254  -15.0197 C   0  0  0  0  0  0  0  0  0  0  0  0
    3.8708   -0.0192  -14.0989 C   0  0  0  0  0  0  0  0  0  0  0  0
    4.2935    1.1293  -13.4921 C   0  0  0  0  0  0  0  0  0  0  0  0
    5.5306    1.6557  -13.8232 C   0  0  0  0  0  0  0  0  0  0  0  0
    6.3521    1.0624  -14.7443 C   0  0  0  0  0  0  0  0  0  0  0  0
    5.8989   -0.1059  -15.3479 C   0  0  0  0  0  0  0  0  0  0  0  0
    6.4390   -0.9046  -16.2563 N   0  0  0  0  0  0  0  0  0  0  0  0
    7.3913   -0.7705  -16.7115 H   0  0  0  0  0  0  0  0  0  0  0  0
    7.5732    1.8715  -14.8595 C   0  0  1  0  0  0  0  0  0  0  0  0
    8.6545    1.0782  -14.3891 O   0  0  0  0  0  0  0  0  0  0  0  0
    9.9286    1.3640  -14.8763 C   0  0  0  0  0  0  0  0  0  0  0  0
   10.9515    1.3542  -14.1119 O   0  0  0  0  0  0  0  0  0  0  0  0
   10.0384    1.6779  -16.3151 C   0  0  1  0  0  0  0  0  0  0  0  0
   10.6716    3.0339  -16.4895 C   0  0  0  0  0  0  0  0  0  0  0  0
   10.9467    0.6419  -16.9457 C   0  0  0  0  0  0  0  0  0  0  0  0
    8.7930    1.5679  -16.8994 O   0  0  0  0  0  0  0  0  0  0  0  0
    7.8217    2.3412  -16.2796 C   0  0  0  0  0  0  0  0  0  0  0  0
    7.4000    2.9788  -13.9239 C   0  0  0  0  0  0  0  0  0  0  0  0
    8.2358    4.0554  -13.6027 C   0  0  0  0  0  0  0  0  0  0  0  0
    7.7994    4.9528  -12.6750 C   0  0  0  0  0  0  0  0  0  0  0  0
    6.5706    4.8412  -12.0431 C   0  0  0  0  0  0  0  0  0  0  0  0
    5.7495    3.7870  -12.3560 C   0  0  0  0  0  0  0  0  0  0  0  0
    6.1828    2.8524  -13.3098 C   0  0  0  0  0  0  0  0  0  0  0  0
    8.6110    6.0600  -12.3165 N   0  0  0  0  0  0  0  0  0  0  0  0
    9.0066    6.1594  -11.0902 C   0  0  0  0  0  0  0  0  0  0  0  0
    8.6801    5.2590  -10.1470 N   0  0  0  0  0  0  0  0  0  0  0  0
    9.0934    5.3639   -8.8708 C   0  0  0  0  0  0  0  0  0  0  0  0
    9.8939    6.4453   -8.4950 C   0  0  0  0  0  0  0  0  0  0  0  0
   10.3402    6.5918   -7.1969 C   0  0  0  0  0  0  0  0  0  0  0  0
   11.1308    7.6630   -6.8340 C   0  0  0  0  0  0  0  0  0  0  0  0
   11.4422    8.5651   -7.8366 C   0  0  0  0  0  0  0  0  0  0  0  0
   10.9999    8.4253   -9.1359 C   0  0  0  0  0  0  0  0  0  0  0  0
   10.2078    7.3480   -9.4901 C   0  0  0  0  0  0  0  0  0  0  0  0
    9.7848    7.2262  -10.7618 N   0  0  0  0  0  0  0  0  0  0  0  0
   10.0249    7.9115  -11.5116 H   0  0  0  0  0  0  0  0  0  0  0  0
   11.6162    7.8410   -5.4673 C   0  0  0  0  0  0  0  0  0  0  0  0
   11.3597    6.8513   -4.5430 C   0  0  0  0  0  0  0  0  0  0  0  0
   11.7849    6.9478   -3.2361 C   0  0  0  0  0  0  0  0  0  0  0  0
   12.4893    8.0449   -2.7944 C   0  0  0  0  0  0  0  0  0  0  0  0
   12.7511    9.0442   -3.7180 C   0  0  0  0  0  0  0  0  0  0  0  0
   12.3203    8.9452   -5.0395 C   0  0  0  0  0  0  0  0  0  0  0  0
  1  2  1  0
  2  3  2  0
  3  4  1  0
  4  5  1  0
  5  6  2  0
  6  7  1  0
  7  8  2  0
  8  9  1  0
  9 10  2  0
 10 11  1  0
 11 12  1  0
  9 13  1  0
 13 14  1  0
 14 15  1  0
 15 16  2  0
 15 17  1  0
 17 18  1  1
 17 19  1  0
 17 20  1  0
 20 21  1  0
 13 22  1  0
 22 23  2  0
 23 24  1  0
 24 28  1  0
 28 29  2  0
 29 30  1  0
 30 31  2  0
 31 32  1  0
 32 33  2  0
 33 34  1  0
 34 40  1  0
 40 41  2  0
 41 42  1  0
 42 43  2  0
 43 44  1  0
 44 45  2  0
 34 35  2  0
 35 36  1  0
 36 37  2  0
 37 38  1  0
 38 39  1  0
 24 25  2  0
 25 26  1  0
 26 27  2  0
 11  3  1  0
 13 21  1  6
 27 22  1  0
 10  5  1  0
 38 29  1  0
 27  8  1  0
 37 32  1  0
 45 40  1  0
M  END
>  <minimizedAffinity>  (43) 
-17.92462

$$$$
Mol: 160_18 - SminaDock
     RDKit          3D

 44 50  0  0  0  0  0  0  0  0999 V2000
    4.6321   -3.0679  -18.3353 H   0  0  0  0  0  0  0  0  0  0  0  0
    4.5735   -2.5448  -17.4482 O   0  0  0  0  0  0  0  0  0  0  0  0
    5.5030   -1.5729  -17.1335 C   0  0  0  0  0  0  0  0  0  0  0  0
    6.4335   -1.3396  -17.9960 N   0  0  0  0  0  0  0  0  0  0  0  0
    6.4121   -2.1027  -19.1842 N   0  0  0  0  0  0  0  0  0  0  0  0
    6.6001   -3.1354  -19.1860 H   0  0  0  0  0  0  0  0  0  0  0  0
    6.2021   -1.6385  -20.1097 H   0  0  0  0  0  0  0  0  0  0  0  0
    7.4920   -0.3993  -17.8956 C   0  0  0  0  0  0  0  0  0  0  0  0
    7.9114    0.0123  -19.0209 O   0  0  0  0  0  0  0  0  0  0  0  0
    8.1947    0.1878  -16.7398 C   0  0  0  0  0  0  0  0  0  0  0  0
    7.2755    0.7372  -15.7144 C   0  0  0  0  0  0  0  0  0  0  0  0
    7.8379    1.8757  -15.1356 C   0  0  0  0  0  0  0  0  0  0  0  0
    7.1229    2.5309  -14.1433 C   0  0  0  0  0  0  0  0  0  0  0  0
    5.8983    2.0972  -13.7225 C   0  0  0  0  0  0  0  0  0  0  0  0
    5.3619    0.9391  -14.3341 C   0  0  0  0  0  0  0  0  0  0  0  0
    6.0457    0.2728  -15.3160 C   0  0  0  0  0  0  0  0  0  0  0  0
    5.3419   -0.8917  -15.8355 C   0  0  0  0  0  0  0  0  0  0  0  0
    4.4841   -1.3588  -15.0463 O   0  0  0  0  0  0  0  0  0  0  0  0
    5.0861    2.7413  -12.6767 C   0  0  0  0  0  0  0  0  0  0  0  0
    5.6606    3.9448  -12.0646 C   0  0  0  0  0  0  0  0  0  0  0  0
    6.9751    4.3779  -12.5368 C   0  0  0  0  0  0  0  0  0  0  0  0
    7.5083    5.5012  -11.9506 C   0  0  0  0  0  0  0  0  0  0  0  0
    8.7325    5.9969  -12.3164 C   0  0  0  0  0  0  0  0  0  0  0  0
    9.4399    5.3486  -13.2957 C   0  0  0  0  0  0  0  0  0  0  0  0
    8.9339    4.2031  -13.9170 C   0  0  0  0  0  0  0  0  0  0  0  0
    7.7013    3.7367  -13.5218 C   0  0  0  0  0  0  0  0  0  0  0  0
    9.2986    7.1646  -11.7111 N   0  0  0  0  0  0  0  0  0  0  0  0
    9.6467    7.1128  -10.4659 C   0  0  0  0  0  0  0  0  0  0  0  0
    9.4784    5.9869   -9.7632 N   0  0  0  0  0  0  0  0  0  0  0  0
    9.8396    5.9240   -8.4524 C   0  0  0  0  0  0  0  0  0  0  0  0
   10.3883    7.0203   -7.8154 C   0  0  0  0  0  0  0  0  0  0  0  0
   10.7689    7.0018   -6.4862 C   0  0  0  0  0  0  0  0  0  0  0  0
   11.3133    8.1159   -5.8827 C   0  0  0  0  0  0  0  0  0  0  0  0
   11.4530    9.2361   -6.6768 C   0  0  0  0  0  0  0  0  0  0  0  0
   11.0875    9.2859   -7.9896 C   0  0  0  0  0  0  0  0  0  0  0  0
   10.5417    8.1625   -8.5881 C   0  0  0  0  0  0  0  0  0  0  0  0
   10.1802    8.2101   -9.8827 N   0  0  0  0  0  0  0  0  0  0  0  0
   10.3022    9.0888  -10.4623 H   0  0  0  0  0  0  0  0  0  0  0  0
   11.7102    8.0854   -4.4805 C   0  0  0  0  0  0  0  0  0  0  0  0
   12.0861    9.2278   -3.7821 C   0  0  0  0  0  0  0  0  0  0  0  0
   12.4579    9.1748   -2.4572 C   0  0  0  0  0  0  0  0  0  0  0  0
   12.4737    7.9843   -1.7637 C   0  0  0  0  0  0  0  0  0  0  0  0
   12.1024    6.8340   -2.4418 C   0  0  0  0  0  0  0  0  0  0  0  0
   11.7298    6.8990   -3.7754 C   0  0  0  0  0  0  0  0  0  0  0  0
  1  2  1  0
  2  3  1  0
  3  4  2  0
  4  5  1  0
  5  6  1  0
  5  7  1  0
  4  8  1  0
  8  9  2  0
  8 10  1  0
 10 11  1  0
 11 12  2  0
 12 13  1  0
 13 14  2  0
 14 15  1  0
 15 16  2  0
 16 17  1  0
 17 18  2  0
 14 19  1  0
 19 20  1  0
 20 21  1  0
 21 22  2  0
 22 23  1  0
 23 27  1  0
 27 28  2  0
 28 29  1  0
 29 30  2  0
 30 31  1  0
 31 32  2  0
 32 33  1  0
 33 39  1  0
 39 40  2  0
 40 41  1  0
 41 42  2  0
 42 43  1  0
 43 44  2  0
 33 34  2  0
 34 35  1  0
 35 36  2  0
 36 37  1  0
 37 38  1  0
 23 24  2  0
 24 25  1  0
 25 26  2  0
 17  3  1  0
 26 21  1  0
 16 11  1  0
 37 28  1  0
 26 13  1  0
 36 31  1  0
 44 39  1  0
M  CHG  1   4   1
M  END
>  <minimizedAffinity>  (44) 
-17.79529

$$$$
Mol: 197_51 - SminaDock
     RDKit          3D

 39 45  0  0  0  0  0  0  0  0999 V2000
    8.9070    6.4331  -12.3719 C   0  0  0  0  0  0  0  0  0  0  0  0
    7.7924    7.1599  -12.0858 C   0  0  0  0  0  0  0  0  0  0  0  0
    6.5622    6.5875  -12.2816 C   0  0  0  0  0  0  0  0  0  0  0  0
    6.4481    5.3147  -12.7563 C   0  0  0  0  0  0  0  0  0  0  0  0
    7.5992    4.5718  -13.0481 C   0  0  0  0  0  0  0  0  0  0  0  0
    8.8331    5.1124  -12.8609 C   0  0  0  0  0  0  0  0  0  0  0  0
    7.4782    3.1570  -13.3710 C   0  0  0  0  0  0  0  0  0  0  0  0
    8.5596    2.4958  -13.8971 C   0  0  0  0  0  0  0  0  0  0  0  0
    9.9113    3.0290  -14.1058 C   0  0  0  0  0  0  0  0  0  0  0  0
    8.2880    1.2244  -14.3697 N   0  0  0  0  0  0  0  0  0  0  0  0
    7.0945    0.6537  -14.3412 C   0  0  0  0  0  0  0  0  0  0  0  0
    6.9295   -0.6138  -14.8437 C   0  0  0  0  0  0  0  0  0  0  0  0
    5.6620   -1.1913  -14.8066 C   0  0  0  0  0  0  0  0  0  0  0  0
    4.5888   -0.5199  -14.2816 C   0  0  0  0  0  0  0  0  0  0  0  0
    3.4399   -1.0462  -14.2494 O   0  0  0  0  0  0  0  0  0  0  0  0
    4.7849    0.7447  -13.7873 N   0  0  0  0  0  0  0  0  0  0  0  0
    3.9544    1.2323  -13.4003 H   0  0  0  0  0  0  0  0  0  0  0  0
    5.9879    1.3003  -13.8189 C   0  0  0  0  0  0  0  0  0  0  0  0
    6.2058    2.5462  -13.3389 C   0  0  0  0  0  0  0  0  0  0  0  0
    5.1467    3.2800  -12.6309 C   0  0  0  0  0  0  0  0  0  0  0  0
    5.1275    4.7094  -13.0684 C   0  0  0  0  0  0  0  0  0  0  0  0
   11.1376    7.5889   -6.0365 C   0  0  0  0  0  0  0  0  0  0  0  0
    9.9176    6.9955   -6.2830 C   0  0  0  0  0  0  0  0  0  0  0  0
    9.4705    6.7641   -7.5613 C   0  0  0  0  0  0  0  0  0  0  0  0
   10.2694    7.1382   -8.6484 C   0  0  0  0  0  0  0  0  0  0  0  0
   11.4841    7.7294   -8.3798 C   0  0  0  0  0  0  0  0  0  0  0  0
   11.9415    7.9658   -7.0888 C   0  0  0  0  0  0  0  0  0  0  0  0
   12.2754    8.0993   -9.4618 C   0  0  0  0  0  0  0  0  0  0  0  0
   11.8105    7.8589  -10.7350 C   0  0  0  0  0  0  0  0  0  0  0  0
   10.5739    7.2579  -10.9457 C   0  0  0  0  0  0  0  0  0  0  0  0
   10.1828    7.0530  -12.1600 N   0  0  0  0  0  0  0  0  0  0  0  0
    9.8140    6.9026   -9.9064 N   0  0  0  0  0  0  0  0  0  0  0  0
    8.8786    6.4492  -10.0073 H   0  0  0  0  0  0  0  0  0  0  0  0
   12.4506    8.1501   -2.0244 C   0  0  0  0  0  0  0  0  0  0  0  0
   12.1223    6.8825   -2.4772 C   0  0  0  0  0  0  0  0  0  0  0  0
   11.7053    6.7609   -3.7790 C   0  0  0  0  0  0  0  0  0  0  0  0
   11.5964    7.8252   -4.6539 C   0  0  0  0  0  0  0  0  0  0  0  0
   11.9235    9.0849   -4.2011 C   0  0  0  0  0  0  0  0  0  0  0  0
   12.3488    9.2262   -2.8819 C   0  0  0  0  0  0  0  0  0  0  0  0
 34 35  2  0
 35 36  1  0
 36 37  2  0
 37 22  1  0
 22 23  2  0
 23 24  1  0
 24 25  2  0
 25 26  1  0
 26 27  2  0
 26 28  1  0
 28 29  2  0
 29 30  1  0
 30 31  2  0
 31  1  1  0
  1  2  2  0
  2  3  1  0
  3  4  2  0
  4  5  1  0
  5  6  2  0
  5  7  1  0
  7  8  2  0
  8  9  1  0
  8 10  1  0
 10 11  2  0
 11 12  1  0
 12 13  2  0
 13 14  1  0
 14 15  2  0
 14 16  1  0
 16 17  1  0
 16 18  1  0
 18 19  2  0
 19 20  1  0
 20 21  1  0
 30 32  1  0
 32 33  1  0
 37 38  1  0
 38 39  2  0
 39 34  1  0
 27 22  1  0
  6  1  1  0
 19  7  1  0
 32 25  1  0
 21  4  1  0
 18 11  1  0
M  END
>  <minimizedAffinity>  (45) 
-17.79022

$$$$
Mol: 194_37 - SminaDock
     RDKit          3D

 41 48  0  0  0  0  0  0  0  0999 V2000
    8.7224    5.9988  -12.4747 C   0  0  0  0  0  0  0  0  0  0  0  0
    9.1364    5.5310  -13.6996 C   0  0  0  0  0  0  0  0  0  0  0  0
    8.5546    4.4579  -14.3278 C   0  0  0  0  0  0  0  0  0  0  0  0
    7.4795    3.7910  -13.7083 C   0  0  0  0  0  0  0  0  0  0  0  0
    7.0467    4.2334  -12.4935 C   0  0  0  0  0  0  0  0  0  0  0  0
    7.6690    5.3331  -11.8833 C   0  0  0  0  0  0  0  0  0  0  0  0
    5.9183    3.3783  -12.0349 C   0  0  0  0  0  0  0  0  0  0  0  0
    5.7335    2.3843  -13.1067 C   0  0  0  0  0  0  0  0  0  0  0  0
    4.8339    1.3185  -13.2584 C   0  0  0  0  0  0  0  0  0  0  0  0
    4.8424    0.5115  -14.3642 C   0  0  0  0  0  0  0  0  0  0  0  0
    5.7780    0.7836  -15.3391 C   0  0  0  0  0  0  0  0  0  0  0  0
    6.6728    1.8301  -15.2055 C   0  0  0  0  0  0  0  0  0  0  0  0
    6.6660    2.6489  -14.0856 C   0  0  0  0  0  0  0  0  0  0  0  0
    5.7740   -0.0794  -16.5503 C   0  0  1  0  0  0  0  0  0  0  0  0
    4.3816   -0.3265  -16.8989 C   0  0  0  0  0  0  0  0  0  0  0  0
    4.0090   -0.3095  -18.0880 O   0  0  0  0  0  0  0  0  0  0  0  0
    3.4532   -0.5847  -15.9035 O   0  0  0  0  0  0  0  0  0  0  0  0
    3.8793   -0.6264  -14.5252 C   0  0  0  0  0  0  0  0  0  0  0  0
    6.6556    0.3876  -17.6519 C   0  0  0  0  0  0  0  0  0  0  0  0
    7.0814    1.3463  -18.2219 O   0  0  0  0  0  0  0  0  0  0  0  0
    6.8906   -1.0873  -17.8654 C   0  0  0  0  0  0  0  0  0  0  0  0
    6.6217   -1.2555  -16.4319 N   0  0  0  0  0  0  0  0  0  0  0  0
    6.1646   -2.1303  -16.1628 H   0  0  0  0  0  0  0  0  0  0  0  0
   11.2643    8.0167   -5.9750 C   0  0  0  0  0  0  0  0  0  0  0  0
   11.5398    9.1065   -6.7822 C   0  0  0  0  0  0  0  0  0  0  0  0
   11.2008    9.1149   -8.1285 C   0  0  0  0  0  0  0  0  0  0  0  0
   10.5825    8.0359   -8.6908 C   0  0  0  0  0  0  0  0  0  0  0  0
   10.2940    6.9448   -7.9239 C   0  0  0  0  0  0  0  0  0  0  0  0
    9.6684    5.8750   -8.5349 C   0  0  0  0  0  0  0  0  0  0  0  0
    9.3661    5.9338   -9.8450 N   0  0  0  0  0  0  0  0  0  0  0  0
    9.6477    6.9958  -10.5996 C   0  0  0  0  0  0  0  0  0  0  0  0
    9.3872    7.1190  -11.8498 N   0  0  0  0  0  0  0  0  0  0  0  0
   10.2584    8.0411   -9.9990 N   0  0  0  0  0  0  0  0  0  0  0  0
   10.4957    8.8908  -10.5398 H   0  0  0  0  0  0  0  0  0  0  0  0
   10.6329    6.9389   -6.5844 C   0  0  0  0  0  0  0  0  0  0  0  0
   12.3781    7.9357   -1.9445 C   0  0  0  0  0  0  0  0  0  0  0  0
   12.0444    6.7576   -2.5591 C   0  0  0  0  0  0  0  0  0  0  0  0
   11.6774    6.8328   -3.8888 C   0  0  0  0  0  0  0  0  0  0  0  0
   11.6405    8.0150   -4.5787 C   0  0  0  0  0  0  0  0  0  0  0  0
   11.9743    9.1722   -3.9517 C   0  0  0  0  0  0  0  0  0  0  0  0
   12.3492    9.1272   -2.6147 C   0  0  0  0  0  0  0  0  0  0  0  0
 36 37  2  0
 37 38  1  0
 38 39  2  0
 39 24  1  0
 24 25  2  0
 25 26  1  0
 26 27  2  0
 27 28  1  0
 28 29  1  0
 29 30  2  0
 30 31  1  0
 31 32  2  0
 32  1  1  0
  1  2  2  0
  2  3  1  0
  3  4  2  0
  4  5  1  0
  5  6  2  0
  5  7  1  0
  7  8  1  0
  8  9  2  0
  9 10  1  0
 10 11  2  0
 11 12  1  0
 12 13  2  0
 11 14  1  0
 14 15  1  0
 15 16  2  0
 15 17  1  0
 17 18  1  0
 14 19  1  0
 19 20  2  0
 19 21  1  0
 21 22  1  0
 22 23  1  0
 31 33  1  0
 33 34  1  0
 28 35  2  0
 39 40  1  0
 40 41  2  0
 41 36  1  0
 35 24  1  0
 33 27  1  0
  6  1  1  0
 13  8  1  0
 14 22  1  1
 13  4  1  0
 18 10  1  0
M  END
>  <minimizedAffinity>  (46) 
-17.84996

$$$$
Mol: 197_0 - SminaDock
     RDKit          3D

 40 47  0  0  0  0  0  0  0  0999 V2000
    8.7920    6.2388  -12.3291 C   0  0  0  0  0  0  0  0  0  0  0  0
    9.4096    5.6829  -13.4109 C   0  0  0  0  0  0  0  0  0  0  0  0
    8.8194    4.5685  -13.9770 C   0  0  0  0  0  0  0  0  0  0  0  0
    7.6337    4.0219  -13.4692 C   0  0  0  0  0  0  0  0  0  0  0  0
    7.0458    4.6138  -12.3785 C   0  0  0  0  0  0  0  0  0  0  0  0
    7.6279    5.7472  -11.7868 C   0  0  0  0  0  0  0  0  0  0  0  0
    5.8285    3.8429  -12.0613 C   0  0  0  0  0  0  0  0  0  0  0  0
    5.7678    2.7636  -13.0580 C   0  0  0  0  0  0  0  0  0  0  0  0
    4.8765    1.7151  -13.2972 C   0  0  0  0  0  0  0  0  0  0  0  0
    5.0735    0.8281  -14.3333 C   0  0  0  0  0  0  0  0  0  0  0  0
    6.1594    0.9405  -15.1753 C   0  0  0  0  0  0  0  0  0  0  0  0
    7.0404    1.9728  -14.9427 C   0  0  0  0  0  0  0  0  0  0  0  0
    6.8468    2.8747  -13.8954 C   0  0  0  0  0  0  0  0  0  0  0  0
    6.1546   -0.1095  -16.1941 C   0  0  2  0  0  0  0  0  0  0  0  0
    7.3358   -0.8228  -16.3998 O   0  0  0  0  0  0  0  0  0  0  0  0
    7.0771   -0.8789  -17.7643 C   0  0  0  0  0  0  0  0  0  0  0  0
    7.4356   -1.6944  -18.6491 O   0  0  0  0  0  0  0  0  0  0  0  0
    6.2697    0.3612  -17.6268 C   0  0  0  0  0  0  0  0  0  0  0  0
    4.9409   -0.9073  -15.9056 C   0  0  0  0  0  0  0  0  0  0  0  0
    4.5901   -1.9022  -16.5653 O   0  0  0  0  0  0  0  0  0  0  0  0
    4.2606   -0.3285  -14.7462 C   0  0  0  0  0  0  0  0  0  0  0  0
    3.2091   -0.7684  -14.2529 O   0  0  0  0  0  0  0  0  0  0  0  0
   11.3520    8.1888   -5.8859 C   0  0  0  0  0  0  0  0  0  0  0  0
   11.5429    9.3494   -6.6207 C   0  0  0  0  0  0  0  0  0  0  0  0
   11.1898    9.4453   -7.9470 C   0  0  0  0  0  0  0  0  0  0  0  0
   10.6234    8.3587   -8.5888 C   0  0  0  0  0  0  0  0  0  0  0  0
   10.2657    8.3999   -9.8647 N   0  0  0  0  0  0  0  0  0  0  0  0
    9.7097    7.3263  -10.4854 C   0  0  0  0  0  0  0  0  0  0  0  0
    9.3683    7.3828  -11.7233 N   0  0  0  0  0  0  0  0  0  0  0  0
    9.5136    6.1984   -9.8072 N   0  0  0  0  0  0  0  0  0  0  0  0
    9.0879    5.3569  -10.2592 H   0  0  0  0  0  0  0  0  0  0  0  0
    9.8495    6.0903   -8.5261 C   0  0  0  0  0  0  0  0  0  0  0  0
   10.4166    7.1745   -7.8802 C   0  0  0  0  0  0  0  0  0  0  0  0
   10.7809    7.1151   -6.5594 C   0  0  0  0  0  0  0  0  0  0  0  0
   12.4288    7.8595   -1.8263 C   0  0  0  0  0  0  0  0  0  0  0  0
   12.0648    6.7328   -2.5376 C   0  0  0  0  0  0  0  0  0  0  0  0
   11.7194    6.8695   -3.8567 C   0  0  0  0  0  0  0  0  0  0  0  0
   11.7263    8.0913   -4.4843 C   0  0  0  0  0  0  0  0  0  0  0  0
   12.0842    9.2141   -3.7928 C   0  0  0  0  0  0  0  0  0  0  0  0
   12.4338    9.0782   -2.4591 C   0  0  0  0  0  0  0  0  0  0  0  0
 35 36  2  0
 36 37  1  0
 37 38  2  0
 38 23  1  0
 23 24  1  0
 24 25  2  0
 25 26  1  0
 26 27  2  0
 27 28  1  0
 28 29  2  0
 29  1  1  0
  1  2  2  0
  2  3  1  0
  3  4  2  0
  4  5  1  0
  5  6  2  0
  5  7  1  0
  7  8  1  0
  8  9  2  0
  9 10  1  0
 10 11  2  0
 11 12  1  0
 12 13  2  0
 11 14  1  0
 14 15  1  0
 15 16  1  0
 16 17  2  0
 16 18  1  0
 14 19  1  0
 19 20  2  0
 19 21  1  0
 21 22  2  0
 28 30  1  0
 30 31  1  0
 30 32  1  0
 32 33  2  0
 33 34  1  0
 38 39  1  0
 39 40  2  0
 40 35  1  0
 34 23  2  0
 33 26  1  0
  6  1  1  0
 13  8  1  0
 14 18  1  6
 13  4  1  0
 21 10  1  0
M  END
>  <minimizedAffinity>  (47) 
-17.81084

$$$$
Mol: 197_59 - SminaDock
     RDKit          3D

 39 45  0  0  0  0  0  0  0  0999 V2000
    3.8816   -2.9946  -16.6592 H   0  0  0  0  0  0  0  0  0  0  0  0
    4.5572   -2.3109  -16.9772 O   0  0  0  0  0  0  0  0  0  0  0  0
    4.9158   -1.2270  -16.1881 C   0  0  0  0  0  0  0  0  0  0  0  0
    4.3094   -0.7485  -15.1149 C   0  0  0  0  0  0  0  0  0  0  0  0
    3.1450   -1.2644  -14.5486 O   0  0  0  0  0  0  0  0  0  0  0  0
    2.8758   -0.9506  -13.6497 H   0  0  0  0  0  0  0  0  0  0  0  0
    5.0546    0.4189  -14.6055 C   0  0  0  0  0  0  0  0  0  0  0  0
    4.8661    1.2703  -13.5396 C   0  0  0  0  0  0  0  0  0  0  0  0
    5.7228    2.3272  -13.2503 C   0  0  0  0  0  0  0  0  0  0  0  0
    6.8016    2.5079  -14.0849 C   0  0  0  0  0  0  0  0  0  0  0  0
    7.0395    1.6786  -15.1748 C   0  0  0  0  0  0  0  0  0  0  0  0
    6.1518    0.6494  -15.4055 C   0  0  0  0  0  0  0  0  0  0  0  0
    6.1069   -0.3878  -16.4432 C   0  0  0  0  0  0  0  0  0  0  0  0
    6.9802   -0.5233  -17.4120 C   0  0  0  0  0  0  0  0  0  0  0  0
    7.5172    3.6634  -13.5589 C   0  0  0  0  0  0  0  0  0  0  0  0
    8.6682    4.2657  -14.0227 C   0  0  0  0  0  0  0  0  0  0  0  0
    9.2106    5.3646  -13.3919 C   0  0  0  0  0  0  0  0  0  0  0  0
    8.5987    5.8716  -12.2832 C   0  0  0  0  0  0  0  0  0  0  0  0
    7.4526    5.2787  -11.8141 C   0  0  0  0  0  0  0  0  0  0  0  0
    6.9105    4.1812  -12.4438 C   0  0  0  0  0  0  0  0  0  0  0  0
    5.7040    3.3365  -12.1803 C   0  0  0  0  0  0  0  0  0  0  0  0
    9.1953    7.0027  -11.6708 N   0  0  0  0  0  0  0  0  0  0  0  0
    9.5558    6.9908  -10.4336 C   0  0  0  0  0  0  0  0  0  0  0  0
    9.3457    5.8383   -9.7097 C   0  0  0  0  0  0  0  0  0  0  0  0
    9.7146    5.7746   -8.3812 C   0  0  0  0  0  0  0  0  0  0  0  0
   10.2987    6.8998   -7.8045 C   0  0  0  0  0  0  0  0  0  0  0  0
   10.7007    6.9338   -6.4880 C   0  0  0  0  0  0  0  0  0  0  0  0
   11.2792    8.0328   -5.8995 C   0  0  0  0  0  0  0  0  0  0  0  0
   11.4607    9.1643   -6.6945 C   0  0  0  0  0  0  0  0  0  0  0  0
   11.0619    9.1465   -8.0203 C   0  0  0  0  0  0  0  0  0  0  0  0
   10.4840    8.0294   -8.5841 C   0  0  0  0  0  0  0  0  0  0  0  0
   10.1258    8.0951   -9.8790 N   0  0  0  0  0  0  0  0  0  0  0  0
   10.2601    8.9321  -10.4665 H   0  0  0  0  0  0  0  0  0  0  0  0
   11.7033    8.0642   -4.5050 C   0  0  0  0  0  0  0  0  0  0  0  0
   12.0608    9.2396   -3.8907 C   0  0  0  0  0  0  0  0  0  0  0  0
   12.4509    9.1904   -2.5710 C   0  0  0  0  0  0  0  0  0  0  0  0
   12.4949    8.0164   -1.8524 C   0  0  0  0  0  0  0  0  0  0  0  0
   12.1258    6.8549   -2.5116 C   0  0  0  0  0  0  0  0  0  0  0  0
   11.7339    6.8689   -3.8206 C   0  0  0  0  0  0  0  0  0  0  0  0
  1  2  1  0
  2  3  1  0
  3  4  2  0
  4  5  1  0
  5  6  1  0
  4  7  1  0
  7  8  2  0
  8  9  1  0
  9 10  2  0
 10 11  1  0
 11 12  2  0
 12 13  1  0
 13 14  2  0
 10 15  1  0
 15 16  2  0
 16 17  1  0
 17 18  2  0
 18 22  1  0
 22 23  2  0
 23 24  1  0
 24 25  2  0
 25 26  1  0
 26 27  2  0
 27 28  1  0
 28 34  1  0
 34 35  2  0
 35 36  1  0
 36 37  2  0
 37 38  1  0
 38 39  2  0
 28 29  2  0
 29 30  1  0
 30 31  2  0
 31 32  1  0
 32 33  1  0
 18 19  1  0
 19 20  2  0
 20 21  1  0
 13  3  1  0
 20 15  1  0
 12  7  1  0
 32 23  1  0
 21  9  1  0
 31 26  1  0
 39 34  1  0
M  END
>  <minimizedAffinity>  (48) 
-17.78385

$$$$
Mol: 200_10 - SminaDock
     RDKit          3D

 44 51  0  0  0  0  0  0  0  0999 V2000
    4.1413   -2.1391  -16.8756 H   0  0  0  0  0  0  0  0  0  0  0  0
    4.5583   -1.6365  -16.0887 O   0  0  0  0  0  0  0  0  0  0  0  0
    5.6764   -0.8163  -16.2781 C   0  0  0  0  0  0  0  0  0  0  0  0
    6.5652   -0.9654  -17.1729 N   0  0  0  0  0  0  0  0  0  0  0  0
    7.5918    0.0513  -17.1016 C   0  0  1  0  0  0  0  0  0  0  0  0
    7.1983    0.9247  -15.9554 C   0  0  0  0  0  0  0  0  0  0  0  0
    7.7729    2.0568  -15.3929 C   0  0  0  0  0  0  0  0  0  0  0  0
    7.1500    2.6467  -14.3149 C   0  0  0  0  0  0  0  0  0  0  0  0
    5.9630    2.0871  -13.8246 C   0  0  0  0  0  0  0  0  0  0  0  0
    5.4076    0.9611  -14.3980 C   0  0  0  0  0  0  0  0  0  0  0  0
    6.0335    0.3747  -15.4751 C   0  0  0  0  0  0  0  0  0  0  0  0
    5.2616    2.6714  -12.6836 C   0  0  0  0  0  0  0  0  0  0  0  0
    5.8458    3.8710  -12.0702 C   0  0  0  0  0  0  0  0  0  0  0  0
    7.0867    4.4053  -12.6279 C   0  0  0  0  0  0  0  0  0  0  0  0
    7.6369    5.5552  -12.0269 C   0  0  0  0  0  0  0  0  0  0  0  0
    8.7963    6.1025  -12.5037 C   0  0  0  0  0  0  0  0  0  0  0  0
    9.4116    5.5087  -13.5788 C   0  0  0  0  0  0  0  0  0  0  0  0
    8.9006    4.3818  -14.1918 C   0  0  0  0  0  0  0  0  0  0  0  0
    7.7272    3.8318  -13.7055 C   0  0  0  0  0  0  0  0  0  0  0  0
    8.8815   -0.5035  -16.8139 N   0  0  0  0  0  0  0  0  0  0  0  0
    9.4319    0.0328  -16.1128 H   0  0  0  0  0  0  0  0  0  0  0  0
    9.7032   -0.6919  -17.9819 C   0  0  0  0  0  0  0  0  0  0  0  0
    8.8771   -0.9604  -19.2052 C   0  0  1  0  0  0  0  0  0  0  0  0
    8.3412   -2.3904  -19.1689 C   0  0  0  0  0  0  0  0  0  0  0  0
    7.8774   -0.0433  -19.4210 O   0  0  0  0  0  0  0  0  0  0  0  0
    7.6692    0.8422  -18.3901 C   0  0  0  0  0  0  0  0  0  0  0  0
    9.3310    7.2649  -11.8783 N   0  0  0  0  0  0  0  0  0  0  0  0
    9.6729    7.2251  -10.6465 C   0  0  0  0  0  0  0  0  0  0  0  0
    9.5229    6.0617   -9.9332 C   0  0  0  0  0  0  0  0  0  0  0  0
    9.8522    5.9248   -8.6406 N   0  0  0  0  0  0  0  0  0  0  0  0
   10.3659    7.0309   -8.0276 C   0  0  0  0  0  0  0  0  0  0  0  0
   10.7347    6.9953   -6.7036 C   0  0  0  0  0  0  0  0  0  0  0  0
   11.2597    8.0628   -6.0079 C   0  0  0  0  0  0  0  0  0  0  0  0
   11.4141    9.2452   -6.7272 C   0  0  0  0  0  0  0  0  0  0  0  0
   11.0571    9.3236   -8.0551 C   0  0  0  0  0  0  0  0  0  0  0  0
   10.5288    8.2132   -8.7165 C   0  0  0  0  0  0  0  0  0  0  0  0
   10.1829    8.3040  -10.0174 N   0  0  0  0  0  0  0  0  0  0  0  0
   10.2973    9.1886  -10.5595 H   0  0  0  0  0  0  0  0  0  0  0  0
   11.6402    8.0070   -4.6203 C   0  0  0  0  0  0  0  0  0  0  0  0
   12.0167    9.1391   -3.9436 C   0  0  0  0  0  0  0  0  0  0  0  0
   12.3785    9.0741   -2.6147 C   0  0  0  0  0  0  0  0  0  0  0  0
   12.3619    7.8756   -1.9699 C   0  0  0  0  0  0  0  0  0  0  0  0
   11.9940    6.7283   -2.6067 C   0  0  0  0  0  0  0  0  0  0  0  0
   11.6312    6.8120   -3.9496 C   0  0  0  0  0  0  0  0  0  0  0  0
  1  2  1  0
  2  3  1  0
  3  4  2  0
  4  5  1  0
  5  6  1  0
  6  7  2  0
  7  8  1  0
  8  9  2  0
  9 10  1  0
 10 11  2  0
  9 12  1  0
 12 13  1  0
 13 14  1  0
 14 15  2  0
 15 16  1  0
 16 27  1  0
 27 28  2  0
 28 29  1  0
 29 30  2  0
 30 31  1  0
 31 32  2  0
 32 33  1  0
 33 39  1  0
 39 40  2  0
 40 41  1  0
 41 42  2  0
 42 43  1  0
 43 44  2  0
 33 34  2  0
 34 35  1  0
 35 36  2  0
 36 37  1  0
 37 38  1  0
 16 17  2  0
 17 18  1  0
 18 19  2  0
  5 20  1  0
 20 21  1  0
 20 22  1  0
 22 23  1  0
 23 24  1  1
 23 25  1  0
 25 26  1  0
 11  3  1  0
 19 14  1  0
  5 26  1  6
 11  6  1  0
 37 28  1  0
 19  8  1  0
 36 31  1  0
 44 39  1  0
M  END
>  <minimizedAffinity>  (49) 
-17.84501

$$$$
Mol: 97_33 - SminaDock
     RDKit          3D

 44 51  0  0  0  0  0  0  0  0999 V2000
    6.9872   -1.2897  -13.5035 H   0  0  0  0  0  0  0  0  0  0  0  0
    7.3412   -0.3328  -13.3886 O   0  0  0  0  0  0  0  0  0  0  0  0
    7.8346    0.2139  -14.6142 C   0  0  0  0  0  0  0  0  0  0  0  0
    8.8982   -0.3247  -15.1578 C   0  0  0  0  0  0  0  0  0  0  0  0
    9.4616    0.1340  -16.4044 C   0  0  0  0  0  0  0  0  0  0  0  0
   10.6297   -0.4741  -16.9191 C   0  0  0  0  0  0  0  0  0  0  0  0
   11.1468    0.0089  -18.0893 C   0  0  0  0  0  0  0  0  0  0  0  0
   10.5422    1.0579  -18.7431 C   0  0  0  0  0  0  0  0  0  0  0  0
    9.4038    1.6504  -18.2427 C   0  0  0  0  0  0  0  0  0  0  0  0
    8.8660    1.1667  -17.0499 C   0  0  0  0  0  0  0  0  0  0  0  0
    7.6415    1.7778  -16.5411 C   0  0  0  0  0  0  0  0  0  0  0  0
    7.1343    1.3671  -15.2262 C   0  0  2  0  0  0  0  0  0  0  0  0
    7.0668    2.4645  -14.2214 C   0  0  0  0  0  0  0  0  0  0  0  0
    7.9402    3.5307  -14.2964 C   0  0  0  0  0  0  0  0  0  0  0  0
    7.8889    4.5621  -13.3807 C   0  0  0  0  0  0  0  0  0  0  0  0
    6.9328    4.4868  -12.3883 C   0  0  0  0  0  0  0  0  0  0  0  0
    6.0628    3.4262  -12.3108 C   0  0  0  0  0  0  0  0  0  0  0  0
    6.1180    2.3785  -13.2444 C   0  0  0  0  0  0  0  0  0  0  0  0
    5.1336    1.2827  -13.0525 C   0  0  0  0  0  0  0  0  0  0  0  0
    5.1687    0.3297  -14.1344 N   0  0  0  0  0  0  0  0  0  0  0  0
    3.8224   -0.1375  -14.4174 C   0  0  0  0  0  0  0  0  0  0  0  0
    5.6664    0.9086  -15.3609 C   0  0  0  0  0  0  0  0  0  0  0  0
    8.7922    5.6555  -13.4721 N   0  0  0  0  0  0  0  0  0  0  0  0
    9.3005    6.1980  -12.4196 C   0  0  0  0  0  0  0  0  0  0  0  0
   10.1765    7.2584  -12.5143 C   0  0  0  0  0  0  0  0  0  0  0  0
   10.6916    7.8111  -11.3728 C   0  0  0  0  0  0  0  0  0  0  0  0
   10.3130    7.2843  -10.1648 C   0  0  0  0  0  0  0  0  0  0  0  0
   10.7846    7.7857   -8.9484 C   0  0  0  0  0  0  0  0  0  0  0  0
   10.3994    7.2554   -7.7415 C   0  0  0  0  0  0  0  0  0  0  0  0
    9.5221    6.1946   -7.6824 C   0  0  0  0  0  0  0  0  0  0  0  0
    9.0451    5.6852   -8.8779 C   0  0  0  0  0  0  0  0  0  0  0  0
    9.4317    6.2183  -10.0882 C   0  0  0  0  0  0  0  0  0  0  0  0
    8.9531    5.7082  -11.2250 N   0  0  0  0  0  0  0  0  0  0  0  0
    8.2778    4.8859  -11.1691 H   0  0  0  0  0  0  0  0  0  0  0  0
   10.8815    7.7701   -6.4666 C   0  0  0  0  0  0  0  0  0  0  0  0
   11.0429    9.1216   -6.2646 C   0  0  0  0  0  0  0  0  0  0  0  0
   11.4980    9.6330   -5.0591 C   0  0  0  0  0  0  0  0  0  0  0  0
   11.8097    8.7961   -4.0056 C   0  0  0  0  0  0  0  0  0  0  0  0
   12.2626    9.2989   -2.8045 C   0  0  0  0  0  0  0  0  0  0  0  0
   12.5698    8.4444   -1.7587 C   0  0  0  0  0  0  0  0  0  0  0  0
   12.4097    7.1007   -1.9584 C   0  0  0  0  0  0  0  0  0  0  0  0
   11.9528    6.5956   -3.1710 C   0  0  0  0  0  0  0  0  0  0  0  0
   11.6490    7.4402   -4.2052 C   0  0  0  0  0  0  0  0  0  0  0  0
   11.1942    6.9300   -5.4095 C   0  0  0  0  0  0  0  0  0  0  0  0
  1  2  1  0
  2  3  1  0
  3  4  2  0
  4  5  1  0
  5  6  2  0
  6  7  1  0
  7  8  2  0
  8  9  1  0
  9 10  2  0
 10 11  1  0
 12 11  1  6
 12 13  1  0
 13 14  2  0
 14 15  1  0
 15 23  1  0
 23 24  2  0
 24 25  1  0
 25 26  2  0
 26 27  1  0
 27 28  2  0
 28 29  1  0
 29 35  1  0
 35 36  2  0
 36 37  1  0
 37 38  2  0
 38 39  1  0
 39 40  2  0
 40 41  1  0
 41 42  2  0
 42 43  1  0
 43 44  2  0
 29 30  2  0
 30 31  1  0
 31 32  2  0
 32 33  1  0
 33 34  1  0
 15 16  2  0
 16 17  1  0
 17 18  2  0
 18 19  1  0
 19 20  1  0
 20 21  1  0
 20 22  1  0
 12  3  1  0
 18 13  1  0
 10  5  1  0
 22 12  1  0
 33 24  1  0
 32 27  1  0
 44 35  1  0
 43 38  1  0
M  END
>  <minimizedAffinity>  (50) 
-17.77932

$$$$
Mol: 194_63 - SminaDock
     RDKit          3D

 41 48  0  0  0  0  0  0  0  0999 V2000
    2.0422   -1.6808  -13.9403 H   0  0  0  0  0  0  0  0  0  0  0  0
    2.5812   -0.8703  -13.6522 O   0  0  0  0  0  0  0  0  0  0  0  0
    3.6549   -0.4486  -14.4416 C   0  0  0  0  0  0  0  0  0  0  0  0
    3.9930   -0.9837  -15.5656 N   0  0  0  0  0  0  0  0  0  0  0  0
    5.1440   -0.3134  -16.1257 C   0  0  2  0  0  0  0  0  0  0  0  0
    4.8999    0.2324  -17.3711 O   0  0  0  0  0  0  0  0  0  0  0  0
    5.3237   -0.5768  -18.4066 C   0  0  0  0  0  0  0  0  0  0  0  0
    5.2663   -2.0463  -18.0575 C   0  0  0  0  0  0  0  0  0  0  0  0
    6.0741   -2.3603  -16.9827 O   0  0  0  0  0  0  0  0  0  0  0  0
    6.3092   -1.2903  -16.1491 C   0  0  0  0  0  0  0  0  0  0  0  0
    5.4677    0.7384  -15.1520 C   0  0  0  0  0  0  0  0  0  0  0  0
    6.4109    1.7355  -15.0243 C   0  0  0  0  0  0  0  0  0  0  0  0
    6.4442    2.5953  -13.9390 C   0  0  0  0  0  0  0  0  0  0  0  0
    5.5316    2.4889  -12.9375 C   0  0  0  0  0  0  0  0  0  0  0  0
    4.5585    1.4866  -13.0348 C   0  0  0  0  0  0  0  0  0  0  0  0
    4.5392    0.6460  -14.1123 C   0  0  0  0  0  0  0  0  0  0  0  0
    5.7934    3.5218  -11.9112 C   0  0  0  0  0  0  0  0  0  0  0  0
    6.9661    4.2616  -12.4080 C   0  0  0  0  0  0  0  0  0  0  0  0
    7.6770    5.3465  -11.8752 C   0  0  0  0  0  0  0  0  0  0  0  0
    8.7607    5.8755  -12.5371 C   0  0  0  0  0  0  0  0  0  0  0  0
    9.1220    5.3038  -13.7377 C   0  0  0  0  0  0  0  0  0  0  0  0
    8.4381    4.2539  -14.2583 C   0  0  0  0  0  0  0  0  0  0  0  0
    7.3400    3.7030  -13.6073 C   0  0  0  0  0  0  0  0  0  0  0  0
    9.4795    6.9752  -11.9950 N   0  0  0  0  0  0  0  0  0  0  0  0
    9.7489    6.9359  -10.7281 C   0  0  0  0  0  0  0  0  0  0  0  0
   10.4367    7.9571  -10.1368 N   0  0  0  0  0  0  0  0  0  0  0  0
   10.7425    7.9671   -8.8276 C   0  0  0  0  0  0  0  0  0  0  0  0
   11.4369    8.9982   -8.2313 C   0  0  0  0  0  0  0  0  0  0  0  0
   11.7466    8.9981   -6.8821 C   0  0  0  0  0  0  0  0  0  0  0  0
   11.3633    7.9464   -6.0755 C   0  0  0  0  0  0  0  0  0  0  0  0
   10.6685    6.9160   -6.6753 C   0  0  0  0  0  0  0  0  0  0  0  0
   10.3594    6.9164   -8.0224 C   0  0  0  0  0  0  0  0  0  0  0  0
    9.6653    5.8886   -8.6262 C   0  0  0  0  0  0  0  0  0  0  0  0
    9.3731    5.9082   -9.9455 N   0  0  0  0  0  0  0  0  0  0  0  0
    8.8454    5.1265  -10.4029 H   0  0  0  0  0  0  0  0  0  0  0  0
   11.6901    7.9464   -4.6531 C   0  0  0  0  0  0  0  0  0  0  0  0
   12.0046    9.1261   -4.0110 C   0  0  0  0  0  0  0  0  0  0  0  0
   12.3205    9.1711   -2.6634 C   0  0  0  0  0  0  0  0  0  0  0  0
   12.3297    8.0082   -1.9065 C   0  0  0  0  0  0  0  0  0  0  0  0
   12.0172    6.8267   -2.5388 C   0  0  0  0  0  0  0  0  0  0  0  0
   11.7046    6.7986   -3.8823 C   0  0  0  0  0  0  0  0  0  0  0  0
  1  2  1  0
  2  3  1  0
  3  4  2  0
  4  5  1  0
  5  6  1  0
  6  7  1  0
  7  8  1  0
  8  9  1  0
  9 10  1  0
  5 11  1  0
 11 12  2  0
 12 13  1  0
 13 14  2  0
 14 15  1  0
 15 16  2  0
 14 17  1  0
 17 18  1  0
 18 19  2  0
 19 20  1  0
 20 24  1  0
 24 25  2  0
 25 26  1  0
 26 27  2  0
 27 28  1  0
 28 29  2  0
 29 30  1  0
 30 36  1  0
 36 37  2  0
 37 38  1  0
 38 39  2  0
 39 40  1  0
 40 41  2  0
 30 31  2  0
 31 32  1  0
 32 33  2  0
 33 34  1  0
 34 35  1  0
 20 21  2  0
 21 22  1  0
 22 23  2  0
 16  3  1  0
 23 18  1  0
  5 10  1  6
 16 11  1  0
 34 25  1  0
 23 13  1  0
 32 27  1  0
 41 36  1  0
M  END
>  <minimizedAffinity>  (51) 
-17.81429

$$$$
Mol: 196_62 - SminaDock
     RDKit          3D

 44 51  0  0  0  0  0  0  0  0999 V2000
    5.5876   -0.3872  -19.4181 O   0  0  0  0  0  0  0  0  0  0  0  0
    5.9635   -0.2854  -18.2106 C   0  0  0  0  0  0  0  0  0  0  0  0
    7.2396   -0.7283  -17.7663 N   0  0  0  0  0  0  0  0  0  0  0  0
    7.2868   -0.4483  -16.3762 C   0  0  0  0  0  0  0  0  0  0  0  0
    8.3363   -0.4628  -15.6676 O   0  0  0  0  0  0  0  0  0  0  0  0
    5.9127   -0.1456  -15.9252 C   0  0  1  0  0  0  0  0  0  0  0  0
    5.2362    0.2575  -17.1182 N   0  0  0  0  0  0  0  0  0  0  0  0
    5.2801   -1.3611  -15.3109 C   0  0  0  0  0  0  0  0  0  0  0  0
    5.6871   -2.4751  -15.7218 O   0  0  0  0  0  0  0  0  0  0  0  0
    4.3127   -1.1727  -14.3543 O   0  0  0  0  0  0  0  0  0  0  0  0
    3.7420    0.0840  -14.0525 C   0  0  0  0  0  0  0  0  0  0  0  0
    4.8770    1.0607  -13.9670 C   0  0  0  0  0  0  0  0  0  0  0  0
    4.8648    2.0474  -13.0062 C   0  0  0  0  0  0  0  0  0  0  0  0
    5.9265    2.9593  -12.9403 C   0  0  0  0  0  0  0  0  0  0  0  0
    6.9586    2.8470  -13.8397 C   0  0  0  0  0  0  0  0  0  0  0  0
    6.9279    1.8251  -14.8018 C   0  0  0  0  0  0  0  0  0  0  0  0
    5.8939    0.9194  -14.8823 C   0  0  0  0  0  0  0  0  0  0  0  0
    7.9657    3.8795  -13.6163 C   0  0  0  0  0  0  0  0  0  0  0  0
    9.1565    4.1897  -14.2303 C   0  0  0  0  0  0  0  0  0  0  0  0
    9.9285    5.2723  -13.7781 C   0  0  0  0  0  0  0  0  0  0  0  0
    9.5058    6.0358  -12.7172 C   0  0  0  0  0  0  0  0  0  0  0  0
    8.3016    5.6818  -12.1355 C   0  0  0  0  0  0  0  0  0  0  0  0
    7.5101    4.6204  -12.5525 C   0  0  0  0  0  0  0  0  0  0  0  0
    6.2061    4.0921  -12.0621 C   0  0  0  0  0  0  0  0  0  0  0  0
    8.0031   -1.1779  -18.3563 H   0  0  0  0  0  0  0  0  0  0  0  0
    4.3719    0.8373  -17.2347 H   0  0  0  0  0  0  0  0  0  0  0  0
   10.2576    7.1446  -12.2027 N   0  0  0  0  0  0  0  0  0  0  0  0
   10.5237    7.8861  -12.9211 H   0  0  0  0  0  0  0  0  0  0  0  0
   10.6639    7.3375  -10.8855 C   0  0  0  0  0  0  0  0  0  0  0  0
   11.9008    7.9797  -10.6806 C   0  0  0  0  0  0  0  0  0  0  0  0
   12.3235    8.1932   -9.3914 C   0  0  0  0  0  0  0  0  0  0  0  0
   11.5435    7.7824   -8.3205 C   0  0  0  0  0  0  0  0  0  0  0  0
   11.9949    8.0114   -7.0426 C   0  0  0  0  0  0  0  0  0  0  0  0
   11.2032    7.5949   -5.9952 C   0  0  0  0  0  0  0  0  0  0  0  0
    9.9766    6.9578   -6.1976 C   0  0  0  0  0  0  0  0  0  0  0  0
    9.5361    6.7346   -7.4851 C   0  0  0  0  0  0  0  0  0  0  0  0
   10.3267    7.1506   -8.5357 C   0  0  0  0  0  0  0  0  0  0  0  0
    9.9630    6.9678   -9.8120 N   0  0  0  0  0  0  0  0  0  0  0  0
   11.6213    7.8076   -4.6148 C   0  0  0  0  0  0  0  0  0  0  0  0
   11.9456    9.0534   -4.1295 C   0  0  0  0  0  0  0  0  0  0  0  0
   12.3434    9.2374   -2.8094 C   0  0  0  0  0  0  0  0  0  0  0  0
   12.4266    8.1723   -1.9382 C   0  0  0  0  0  0  0  0  0  0  0  0
   12.0993    6.9159   -2.4280 C   0  0  0  0  0  0  0  0  0  0  0  0
   11.6998    6.7328   -3.7550 C   0  0  0  0  0  0  0  0  0  0  0  0
  1  2  2  0
  2  3  1  0
  3  4  1  0
  4  5  2  0
  4  6  1  0
  6  7  1  6
  6  8  1  0
  8  9  2  0
  8 10  1  0
 10 11  1  0
 11 12  1  0
 12 13  2  0
 13 14  1  0
 14 15  2  0
 15 16  1  0
 16 17  2  0
 15 18  1  0
 18 19  2  0
 19 20  1  0
 20 21  2  0
 21 27  1  0
 27 29  1  0
 29 30  2  0
 30 31  1  0
 31 32  2  0
 32 33  1  0
 33 34  2  0
 34 39  1  0
 39 40  2  0
 40 41  1  0
 41 42  2  0
 42 43  1  0
 43 44  2  0
 34 35  1  0
 35 36  2  0
 36 37  1  0
 37 38  2  0
 21 22  1  0
 22 23  2  0
 23 24  1  0
  7  2  1  0
 17 12  1  0
 23 18  1  0
 17  6  1  0
 38 29  1  0
 24 14  1  0
 37 32  1  0
 44 39  1  0
  3 25  1  0
  7 26  1  0
 27 28  1  0
M  END
>  <minimizedAffinity>  (52) 
-17.78305

$$$$
Mol: 156_7 - SminaDock
     RDKit          3D

 42 48  0  0  0  0  0  0  0  0999 V2000
    8.7391    5.5497  -12.5912 C   0  0  0  0  0  0  0  0  0  0  0  0
    9.5875    4.6048  -13.1685 C   0  0  0  0  0  0  0  0  0  0  0  0
    9.0741    3.4603  -13.7171 C   0  0  0  0  0  0  0  0  0  0  0  0
    7.6806    3.2697  -13.6795 C   0  0  0  0  0  0  0  0  0  0  0  0
    6.8219    4.1746  -13.1254 C   0  0  0  0  0  0  0  0  0  0  0  0
    7.3660    5.3134  -12.5819 C   0  0  0  0  0  0  0  0  0  0  0  0
    6.5123    6.3512  -11.9535 C   0  0  0  0  0  0  0  0  0  0  0  0
    6.8045    2.1942  -14.1273 C   0  0  0  0  0  0  0  0  0  0  0  0
    5.8737    2.1038  -13.1331 C   0  0  0  0  0  0  0  0  0  0  0  0
    4.8779    1.1693  -13.2853 C   0  0  0  0  0  0  0  0  0  0  0  0
    4.8221    0.3521  -14.3988 C   0  0  0  0  0  0  0  0  0  0  0  0
    5.7773    0.4608  -15.3901 C   0  0  0  0  0  0  0  0  0  0  0  0
    6.7859    1.3817  -15.2748 C   0  0  0  0  0  0  0  0  0  0  0  0
    7.6768    1.2520  -16.4768 C   0  0  0  0  0  0  0  0  0  0  0  0
    8.9258    1.9692  -16.2555 N   0  0  2  0  0  0  0  0  0  0  0  0
    8.6662    2.9722  -16.1328 H   0  0  0  0  0  0  0  0  0  0  0  0
    9.4688    1.8685  -17.1519 H   0  0  0  0  0  0  0  0  0  0  0  0
    9.6590    1.5094  -15.1205 C   0  0  0  0  0  0  0  0  0  0  0  0
   10.2178    2.6546  -14.2807 C   0  0  0  0  0  0  0  0  0  0  0  0
    5.4988   -0.5168  -16.4647 C   0  0  0  0  0  0  0  0  0  0  0  0
    4.2969   -1.2032  -16.0156 N   0  0  0  0  0  0  0  0  0  0  0  0
    3.7823   -1.9659  -16.5017 H   0  0  0  0  0  0  0  0  0  0  0  0
    3.8758   -0.6848  -14.7602 C   0  0  0  0  0  0  0  0  0  0  0  0
    2.8823   -1.0392  -14.0784 O   0  0  0  0  0  0  0  0  0  0  0  0
   11.2347    7.9483   -6.2244 C   0  0  0  0  0  0  0  0  0  0  0  0
   11.4410    9.0389   -7.0370 C   0  0  0  0  0  0  0  0  0  0  0  0
   11.0918    8.9987   -8.3716 C   0  0  0  0  0  0  0  0  0  0  0  0
   10.5242    7.8756   -8.9534 C   0  0  0  0  0  0  0  0  0  0  0  0
   10.1833    7.8302  -10.2471 N   0  0  0  0  0  0  0  0  0  0  0  0
    9.6336    6.7267  -10.7862 C   0  0  0  0  0  0  0  0  0  0  0  0
    9.3152    6.7132  -12.0373 N   0  0  0  0  0  0  0  0  0  0  0  0
    9.4214    5.6463  -10.0116 N   0  0  0  0  0  0  0  0  0  0  0  0
    8.9938    4.8084  -10.4606 H   0  0  0  0  0  0  0  0  0  0  0  0
    9.7567    5.6712   -8.7102 C   0  0  0  0  0  0  0  0  0  0  0  0
   10.3185    6.7839   -8.1363 C   0  0  0  0  0  0  0  0  0  0  0  0
   10.6709    6.8263   -6.7922 C   0  0  0  0  0  0  0  0  0  0  0  0
   12.3169    8.0674   -2.0909 C   0  0  0  0  0  0  0  0  0  0  0  0
   12.3390    9.2028   -2.8558 C   0  0  0  0  0  0  0  0  0  0  0  0
   11.9928    9.1687   -4.1807 C   0  0  0  0  0  0  0  0  0  0  0  0
   11.6043    7.9922   -4.8148 C   0  0  0  0  0  0  0  0  0  0  0  0
   11.5866    6.8574   -4.0330 C   0  0  0  0  0  0  0  0  0  0  0  0
   11.9323    6.8696   -2.6936 C   0  0  0  0  0  0  0  0  0  0  0  0
 37 38  2  0
 38 39  1  0
 39 40  2  0
 40 25  1  0
 25 26  1  0
 26 27  2  0
 27 28  1  0
 28 29  2  0
 29 30  1  0
 30 31  2  0
 31  1  1  0
  1  2  2  0
  2  3  1  0
  3  4  2  0
  4  5  1  0
  5  6  2  0
  6  7  1  0
  4  8  1  0
  8  9  2  0
  9 10  1  0
 10 11  2  0
 11 12  1  0
 12 13  2  0
 13 14  1  0
 14 15  1  0
 15 16  1  1
 15 17  1  0
 15 18  1  0
 18 19  1  0
 12 20  1  0
 20 21  1  0
 21 22  1  0
 21 23  1  0
 23 24  2  0
 30 32  1  0
 32 33  1  0
 32 34  1  0
 34 35  2  0
 35 36  1  0
 40 41  1  0
 41 42  2  0
 42 37  1  0
 36 25  2  0
 35 28  1  0
  6  1  1  0
 13  8  1  0
 19  3  1  0
 23 11  1  0
M  CHG  1  15   1
M  END
>  <minimizedAffinity>  (53) 
-17.82137

$$$$
Mol: 138_44 - SminaDock
     RDKit          3D

 44 51  0  0  0  0  0  0  0  0999 V2000
    8.5245    5.5709  -12.3825 C   0  0  0  0  0  0  0  0  0  0  0  0
    7.3361    5.2538  -11.7606 C   0  0  0  0  0  0  0  0  0  0  0  0
    6.6061    4.1827  -12.2483 C   0  0  0  0  0  0  0  0  0  0  0  0
    7.0869    3.4753  -13.3296 C   0  0  0  0  0  0  0  0  0  0  0  0
    8.2693    3.7753  -13.9584 C   0  0  0  0  0  0  0  0  0  0  0  0
    8.9902    4.8503  -13.4624 C   0  0  0  0  0  0  0  0  0  0  0  0
    8.7753    2.9376  -15.0333 C   0  0  1  0  0  0  0  0  0  0  0  0
    7.7248    2.1748  -15.7376 C   0  0  0  0  0  0  0  0  0  0  0  0
    6.6101    1.7962  -14.9648 N   0  0  0  0  0  0  0  0  0  0  0  0
    6.2235    2.4231  -13.8659 C   0  0  0  0  0  0  0  0  0  0  0  0
    5.0362    1.8542  -13.3878 C   0  0  0  0  0  0  0  0  0  0  0  0
    4.7030    0.8360  -14.2435 C   0  0  0  0  0  0  0  0  0  0  0  0
    3.6432   -0.0459  -14.2450 C   0  0  0  0  0  0  0  0  0  0  0  0
    3.5456   -0.9857  -15.2351 C   0  0  0  0  0  0  0  0  0  0  0  0
    4.5284   -1.0173  -16.2129 C   0  0  0  0  0  0  0  0  0  0  0  0
    5.5816   -0.1314  -16.2007 C   0  0  0  0  0  0  0  0  0  0  0  0
    5.6808    0.8109  -15.2093 C   0  0  0  0  0  0  0  0  0  0  0  0
    9.5185    3.7512  -16.0913 C   0  0  0  0  0  0  0  0  0  0  0  0
   10.9909    3.5121  -16.1031 C   0  0  0  0  0  0  0  0  0  0  0  0
   11.3455    2.0524  -16.2947 C   0  0  2  0  0  0  0  0  0  0  0  0
   11.1515    1.6018  -17.6368 N   0  0  1  0  0  0  0  0  0  0  0  0
   11.9007    0.9444  -17.9417 H   0  0  0  0  0  0  0  0  0  0  0  0
   10.2542    1.0349  -17.6915 H   0  0  0  0  0  0  0  0  0  0  0  0
   11.0942    2.3798  -18.3321 H   0  0  0  0  0  0  0  0  0  0  0  0
   10.5564    1.1689  -15.3525 C   0  0  0  0  0  0  0  0  0  0  0  0
    9.7463    1.9499  -14.3784 C   0  0  0  0  0  0  0  0  0  0  0  0
   11.3317    7.9549   -6.1048 C   0  0  0  0  0  0  0  0  0  0  0  0
   11.6959    8.9728   -6.9638 C   0  0  0  0  0  0  0  0  0  0  0  0
   11.3542    8.9286   -8.3088 C   0  0  0  0  0  0  0  0  0  0  0  0
   10.6410    7.8580   -8.8057 C   0  0  0  0  0  0  0  0  0  0  0  0
   10.2842    7.7651  -10.0991 N   0  0  0  0  0  0  0  0  0  0  0  0
    9.5899    6.7293  -10.5983 C   0  0  0  0  0  0  0  0  0  0  0  0
    9.2631    6.6794  -11.8676 N   0  0  0  0  0  0  0  0  0  0  0  0
    9.2522    5.7559   -9.7322 N   0  0  0  0  0  0  0  0  0  0  0  0
    8.7128    4.9250  -10.0575 H   0  0  0  0  0  0  0  0  0  0  0  0
    9.5790    5.7924   -8.4328 C   0  0  0  0  0  0  0  0  0  0  0  0
   10.2897    6.8605   -7.9405 C   0  0  0  0  0  0  0  0  0  0  0  0
   10.6255    6.8894   -6.5849 C   0  0  0  0  0  0  0  0  0  0  0  0
   12.3984    8.0625   -1.9814 C   0  0  0  0  0  0  0  0  0  0  0  0
   12.4221    9.2251   -2.7166 C   0  0  0  0  0  0  0  0  0  0  0  0
   12.0723    9.1754   -4.0588 C   0  0  0  0  0  0  0  0  0  0  0  0
   11.7003    8.0222   -4.7023 C   0  0  0  0  0  0  0  0  0  0  0  0
   11.6841    6.8552   -3.9345 C   0  0  0  0  0  0  0  0  0  0  0  0
   12.0277    6.8743   -2.5951 C   0  0  0  0  0  0  0  0  0  0  0  0
 39 40  2  0
 40 41  1  0
 41 42  2  0
 42 27  1  0
 27 28  1  0
 28 29  2  0
 29 30  1  0
 30 31  2  0
 31 32  1  0
 32 33  2  0
 33  1  1  0
  1  2  2  0
  2  3  1  0
  3  4  2  0
  4  5  1  0
  5  6  2  0
  5  7  1  0
  7  8  1  6
  8  9  1  0
  9 10  1  0
 10 11  2  0
 11 12  1  0
 12 13  2  0
 13 14  1  0
 14 15  2  0
 15 16  1  0
 16 17  2  0
  7 18  1  0
 18 19  1  0
 20 19  1  6
 20 21  1  0
 21 22  1  6
 21 23  1  0
 21 24  1  0
 20 25  1  0
 25 26  1  0
 32 34  1  0
 34 35  1  0
 34 36  1  0
 36 37  2  0
 37 38  1  0
 42 43  1  0
 43 44  2  0
 44 39  1  0
 38 27  2  0
 37 30  1  0
  6  1  1  0
 26  7  1  0
 10  4  1  0
 17 12  1  0
 17  9  1  0
M  CHG  1  21   1
M  END
>  <minimizedAffinity>  (54) 
-17.77554

$$$$
Mol: 195_50 - SminaDock
     RDKit          3D

 40 47  0  0  0  0  0  0  0  0999 V2000
    8.7266    5.8096  -12.3575 C   0  0  0  0  0  0  0  0  0  0  0  0
    9.2841    5.1454  -13.4279 C   0  0  0  0  0  0  0  0  0  0  0  0
    8.6084    4.0821  -13.9823 C   0  0  0  0  0  0  0  0  0  0  0  0
    7.3876    3.6366  -13.5213 C   0  0  0  0  0  0  0  0  0  0  0  0
    6.8540    4.3174  -12.4520 C   0  0  0  0  0  0  0  0  0  0  0  0
    7.5179    5.3950  -11.8746 C   0  0  0  0  0  0  0  0  0  0  0  0
    5.5559    3.6575  -12.1453 C   0  0  0  0  0  0  0  0  0  0  0  0
    5.4409    2.5620  -13.1409 C   0  0  0  0  0  0  0  0  0  0  0  0
    4.4561    1.6008  -13.3597 C   0  0  0  0  0  0  0  0  0  0  0  0
    4.5787    0.6709  -14.3690 C   0  0  0  0  0  0  0  0  0  0  0  0
    5.6759    0.6486  -15.2051 C   0  0  0  0  0  0  0  0  0  0  0  0
    6.6496    1.5982  -14.9894 C   0  0  0  0  0  0  0  0  0  0  0  0
    6.5354    2.5482  -13.9663 C   0  0  0  0  0  0  0  0  0  0  0  0
    5.7279   -0.3765  -16.2591 C   0  0  2  0  0  0  0  0  0  0  0  0
    5.2219   -1.6562  -15.7046 C   0  0  0  0  0  0  0  0  0  0  0  0
    5.8430   -2.7205  -15.9537 O   0  0  0  0  0  0  0  0  0  0  0  0
    4.0722   -1.5959  -14.9312 O   0  0  0  0  0  0  0  0  0  0  0  0
    3.4946   -0.3537  -14.5717 C   0  0  0  0  0  0  0  0  0  0  0  0
    7.0731   -0.5360  -16.8955 C   0  0  0  0  0  0  0  0  0  0  0  0
    6.7420   -1.2769  -18.0536 O   0  0  0  0  0  0  0  0  0  0  0  0
    5.6349   -0.6341  -18.5952 C   0  0  0  0  0  0  0  0  0  0  0  0
    4.8526   -0.0454  -17.4496 C   0  0  0  0  0  0  0  0  0  0  0  0
   11.3889    7.9348   -5.9793 C   0  0  0  0  0  0  0  0  0  0  0  0
   11.7621    8.9645   -6.8164 C   0  0  0  0  0  0  0  0  0  0  0  0
   11.4440    8.9555   -8.1575 C   0  0  0  0  0  0  0  0  0  0  0  0
   10.7303    7.9051   -8.7301 C   0  0  0  0  0  0  0  0  0  0  0  0
   10.3567    6.8772   -7.8984 C   0  0  0  0  0  0  0  0  0  0  0  0
   10.6830    6.8933   -6.5384 C   0  0  0  0  0  0  0  0  0  0  0  0
    9.6463    5.8087   -8.4147 C   0  0  0  0  0  0  0  0  0  0  0  0
    9.3523    5.8510   -9.7760 C   0  0  0  0  0  0  0  0  0  0  0  0
    9.7421    6.8913  -10.5668 C   0  0  0  0  0  0  0  0  0  0  0  0
    9.4552    6.9002  -11.8173 N   0  0  0  0  0  0  0  0  0  0  0  0
   10.4361    7.9249  -10.0382 N   0  0  0  0  0  0  0  0  0  0  0  0
   10.7341    8.7297  -10.6660 H   0  0  0  0  0  0  0  0  0  0  0  0
   12.4249    8.0070   -1.8423 C   0  0  0  0  0  0  0  0  0  0  0  0
   12.0632    6.8289   -2.4761 C   0  0  0  0  0  0  0  0  0  0  0  0
   11.7313    6.8156   -3.8079 C   0  0  0  0  0  0  0  0  0  0  0  0
   11.7470    7.9827   -4.5646 C   0  0  0  0  0  0  0  0  0  0  0  0
   12.1044    9.1599   -3.9477 C   0  0  0  0  0  0  0  0  0  0  0  0
   12.4363    9.1585   -2.6055 C   0  0  0  0  0  0  0  0  0  0  0  0
 35 36  2  0
 36 37  1  0
 37 38  2  0
 38 23  1  0
 23 24  2  0
 24 25  1  0
 25 26  2  0
 26 27  1  0
 27 28  2  0
 27 29  1  0
 29 30  2  0
 30 31  1  0
 31 32  2  0
 32  1  1  0
  1  2  2  0
  2  3  1  0
  3  4  2  0
  4  5  1  0
  5  6  2  0
  5  7  1  0
  7  8  1  0
  8  9  2  0
  9 10  1  0
 10 11  2  0
 11 12  1  0
 12 13  2  0
 11 14  1  0
 14 15  1  0
 15 16  2  0
 15 17  1  0
 17 18  1  0
 14 19  1  6
 19 20  1  0
 20 21  1  0
 21 22  1  0
 31 33  1  0
 33 34  1  0
 38 39  1  0
 39 40  2  0
 40 35  1  0
 28 23  1  0
  6  1  1  0
 13  8  1  0
 22 14  1  0
 33 26  1  0
 13  4  1  0
 18 10  1  0
M  END
>  <minimizedAffinity>  (55) 
-17.83977

$$$$
Mol: 139_62 - SminaDock
     RDKit          3D

 41 47  0  0  0  0  0  0  0  0999 V2000
    5.8893   -1.4216  -13.8748 H   0  0  0  0  0  0  0  0  0  0  0  0
    6.4729   -0.7634  -13.3502 O   0  0  0  0  0  0  0  0  0  0  0  0
    6.4162    0.5956  -13.5815 C   0  0  0  0  0  0  0  0  0  0  0  0
    5.3594    1.3032  -13.2438 C   0  0  0  0  0  0  0  0  0  0  0  0
    5.0533    2.7415  -13.3866 C   0  0  0  0  0  0  0  0  0  0  0  0
    6.1740    3.6354  -13.0532 C   0  0  0  0  0  0  0  0  0  0  0  0
    5.8059    4.7219  -12.3013 C   0  0  0  0  0  0  0  0  0  0  0  0
    6.7391    5.6407  -11.8791 C   0  0  0  0  0  0  0  0  0  0  0  0
    8.0668    5.4886  -12.2020 C   0  0  0  0  0  0  0  0  0  0  0  0
    8.4719    4.4029  -12.9592 C   0  0  0  0  0  0  0  0  0  0  0  0
    7.5352    3.5054  -13.3703 C   0  0  0  0  0  0  0  0  0  0  0  0
    8.1061    2.4433  -14.1624 C   0  0  0  0  0  0  0  0  0  0  0  0
    9.2150    2.8563  -14.8400 C   0  0  0  0  0  0  0  0  0  0  0  0
    9.8703    1.9260  -15.6139 C   0  0  0  0  0  0  0  0  0  0  0  0
    9.4058    0.6078  -15.6966 C   0  0  0  0  0  0  0  0  0  0  0  0
    8.2797    0.2279  -14.9989 C   0  0  0  0  0  0  0  0  0  0  0  0
    7.6126    1.1470  -14.2198 C   0  0  0  0  0  0  0  0  0  0  0  0
   10.2879   -0.1456  -16.5784 C   0  0  0  0  0  0  0  0  0  0  0  0
   10.2267   -1.3554  -16.9196 O   0  0  0  0  0  0  0  0  0  0  0  0
   11.3175    0.7349  -17.0462 N   0  0  0  0  0  0  0  0  0  0  0  0
   12.1067    0.4985  -17.6952 H   0  0  0  0  0  0  0  0  0  0  0  0
   11.0586    1.9945  -16.4562 C   0  0  0  0  0  0  0  0  0  0  0  0
   11.7678    3.0218  -16.6440 O   0  0  0  0  0  0  0  0  0  0  0  0
    9.0590    6.4349  -11.7715 N   0  0  0  0  0  0  0  0  0  0  0  0
    9.3967    6.5514  -10.5309 C   0  0  0  0  0  0  0  0  0  0  0  0
   10.3135    7.4279  -10.1439 N   0  0  0  0  0  0  0  0  0  0  0  0
   10.6718    7.5552   -8.8457 C   0  0  0  0  0  0  0  0  0  0  0  0
   11.6243    8.4653   -8.4408 C   0  0  0  0  0  0  0  0  0  0  0  0
   11.9530    8.5546   -7.1027 C   0  0  0  0  0  0  0  0  0  0  0  0
   11.3458    7.7482   -6.1554 C   0  0  0  0  0  0  0  0  0  0  0  0
   10.4057    6.8491   -6.5511 C   0  0  0  0  0  0  0  0  0  0  0  0
   10.0656    6.7507   -7.9027 C   0  0  0  0  0  0  0  0  0  0  0  0
    9.1021    5.8295   -8.3090 C   0  0  0  0  0  0  0  0  0  0  0  0
    8.8037    5.7662   -9.6196 N   0  0  0  0  0  0  0  0  0  0  0  0
    8.0795    5.0695   -9.9079 H   0  0  0  0  0  0  0  0  0  0  0  0
   11.7241    7.8761   -4.7578 C   0  0  0  0  0  0  0  0  0  0  0  0
   11.7086    6.8097   -3.8858 C   0  0  0  0  0  0  0  0  0  0  0  0
   12.0674    6.9221   -2.5497 C   0  0  0  0  0  0  0  0  0  0  0  0
   12.4547    8.1383   -2.0677 C   0  0  0  0  0  0  0  0  0  0  0  0
   12.4794    9.2195   -2.9168 C   0  0  0  0  0  0  0  0  0  0  0  0
   12.1191    9.0878   -4.2410 C   0  0  0  0  0  0  0  0  0  0  0  0
  1  2  1  0
  2  3  1  0
  3  4  2  0
  4  5  1  0
  5  6  1  0
  6  7  2  0
  7  8  1  0
  8  9  2  0
  9 24  1  0
 24 25  2  0
 25 26  1  0
 26 27  2  0
 27 28  1  0
 28 29  2  0
 29 30  1  0
 30 36  1  0
 36 37  2  0
 37 38  1  0
 38 39  2  0
 39 40  1  0
 40 41  2  0
 30 31  2  0
 31 32  1  0
 32 33  2  0
 33 34  1  0
 34 35  1  0
  9 10  1  0
 10 11  2  0
 11 12  1  0
 12 13  2  0
 13 14  1  0
 14 15  2  0
 15 16  1  0
 16 17  2  0
 15 18  1  0
 18 19  2  0
 18 20  1  0
 20 21  1  0
 20 22  1  0
 22 23  2  0
 17  3  1  0
 11  6  1  0
 17 12  1  0
 34 25  1  0
 22 14  1  0
 32 27  1  0
 41 36  1  0
M  END
>  <minimizedAffinity>  (56) 
-17.78556

$$$$
Mol: 192_61 - SminaDock
     RDKit          3D

 39 45  0  0  0  0  0  0  0  0999 V2000
    6.4861   -1.4304  -14.5202 H   0  0  0  0  0  0  0  0  0  0  0  0
    6.4294   -1.5031  -15.5107 O   0  0  0  0  0  0  0  0  0  0  0  0
    5.7764   -0.3942  -16.0724 C   0  0  1  0  0  0  0  0  0  0  0  0
    6.6165    0.1270  -17.2204 C   0  0  0  0  0  0  0  0  0  0  0  0
    4.4251   -0.7700  -16.5451 C   0  0  0  0  0  0  0  0  0  0  0  0
    4.1598   -0.8410  -17.7647 O   0  0  0  0  0  0  0  0  0  0  0  0
    3.4642   -1.0404  -15.5857 O   0  0  0  0  0  0  0  0  0  0  0  0
    3.4316   -0.3862  -14.3314 C   0  0  0  0  0  0  0  0  0  0  0  0
    4.5038    0.6253  -14.1876 C   0  0  0  0  0  0  0  0  0  0  0  0
    4.3932    1.5900  -13.2131 C   0  0  0  0  0  0  0  0  0  0  0  0
    5.4007    2.5465  -13.0758 C   0  0  0  0  0  0  0  0  0  0  0  0
    6.5045    2.5502  -13.8913 C   0  0  0  0  0  0  0  0  0  0  0  0
    6.6160    1.5836  -14.8679 C   0  0  0  0  0  0  0  0  0  0  0  0
    5.6278    0.6325  -15.0147 C   0  0  0  0  0  0  0  0  0  0  0  0
    7.3709    3.6569  -13.5124 C   0  0  0  0  0  0  0  0  0  0  0  0
    8.5934    4.1272  -13.9875 C   0  0  0  0  0  0  0  0  0  0  0  0
    9.2208    5.2221  -13.4445 C   0  0  0  0  0  0  0  0  0  0  0  0
    8.6519    5.9061  -12.3908 C   0  0  0  0  0  0  0  0  0  0  0  0
    7.4480    5.4550  -11.9116 C   0  0  0  0  0  0  0  0  0  0  0  0
    6.8105    4.3439  -12.4622 C   0  0  0  0  0  0  0  0  0  0  0  0
    5.5313    3.6654  -12.1366 C   0  0  0  0  0  0  0  0  0  0  0  0
    9.3104    7.0441  -11.8307 N   0  0  0  0  0  0  0  0  0  0  0  0
    9.6480    7.0496  -10.5948 C   0  0  0  0  0  0  0  0  0  0  0  0
    9.3662    5.9465   -9.8231 C   0  0  0  0  0  0  0  0  0  0  0  0
    9.7147    5.8980   -8.4660 C   0  0  0  0  0  0  0  0  0  0  0  0
   10.3501    6.9757   -7.9010 C   0  0  0  0  0  0  0  0  0  0  0  0
   10.7074    6.9672   -6.5803 C   0  0  0  0  0  0  0  0  0  0  0  0
   11.3569    8.0454   -5.9662 C   0  0  0  0  0  0  0  0  0  0  0  0
   11.6126    9.1232   -6.7917 C   0  0  0  0  0  0  0  0  0  0  0  0
   11.2640    9.1557   -8.1202 C   0  0  0  0  0  0  0  0  0  0  0  0
   10.6222    8.0670   -8.6889 C   0  0  0  0  0  0  0  0  0  0  0  0
   10.2713    8.0855  -10.0052 N   0  0  0  0  0  0  0  0  0  0  0  0
   10.4875    8.9132  -10.5661 H   0  0  0  0  0  0  0  0  0  0  0  0
   11.7250    8.0114   -4.5670 C   0  0  0  0  0  0  0  0  0  0  0  0
   12.0809    9.1727   -3.9347 C   0  0  0  0  0  0  0  0  0  0  0  0
   12.4349    9.1742   -2.6119 C   0  0  0  0  0  0  0  0  0  0  0  0
   12.4320    7.9850   -1.9077 C   0  0  0  0  0  0  0  0  0  0  0  0
   12.0753    6.7965   -2.5263 C   0  0  0  0  0  0  0  0  0  0  0  0
   11.7192    6.8323   -3.8789 C   0  0  0  0  0  0  0  0  0  0  0  0
  1  2  1  0
  3  2  1  0
  3  4  1  6
  3  5  1  0
  5  6  2  0
  5  7  1  0
  7  8  1  0
  8  9  1  0
  9 10  2  0
 10 11  1  0
 11 12  2  0
 12 13  1  0
 13 14  2  0
 12 15  1  0
 15 16  2  0
 16 17  1  0
 17 18  2  0
 18 22  1  0
 22 23  2  0
 23 24  1  0
 24 25  2  0
 25 26  1  0
 26 27  2  0
 27 28  1  0
 28 34  1  0
 34 35  2  0
 35 36  1  0
 36 37  2  0
 37 38  1  0
 38 39  2  0
 28 29  2  0
 29 30  1  0
 30 31  2  0
 31 32  1  0
 32 33  1  0
 18 19  1  0
 19 20  2  0
 20 21  1  0
 14  3  1  0
 20 15  1  0
 14  9  1  0
 32 23  1  0
 21 11  1  0
 31 26  1  0
 39 34  1  0
M  END
>  <minimizedAffinity>  (57) 
-17.81686

$$$$
Mol: 198_10 - SminaDock
     RDKit          3D

 41 47  0  0  0  0  0  0  0  0999 V2000
    8.6226    5.6725  -12.4335 C   0  0  0  0  0  0  0  0  0  0  0  0
    9.2358    5.1677  -13.5582 C   0  0  0  0  0  0  0  0  0  0  0  0
    8.7253    4.1050  -14.2400 C   0  0  0  0  0  0  0  0  0  0  0  0
    7.5403    3.5343  -13.7538 C   0  0  0  0  0  0  0  0  0  0  0  0
    6.9215    4.0239  -12.6398 C   0  0  0  0  0  0  0  0  0  0  0  0
    7.4695    5.1222  -11.9546 C   0  0  0  0  0  0  0  0  0  0  0  0
    5.6790    3.4172  -12.1237 C   0  0  0  0  0  0  0  0  0  0  0  0
    5.0796    2.2970  -12.8581 C   0  0  0  0  0  0  0  0  0  0  0  0
    5.8075    1.8175  -14.0409 C   0  0  0  0  0  0  0  0  0  0  0  0
    6.9728    2.3925  -14.4860 C   0  0  0  0  0  0  0  0  0  0  0  0
    7.3628    1.7136  -15.5856 N   0  0  0  0  0  0  0  0  0  0  0  0
    8.2071    1.8931  -16.1670 H   0  0  0  0  0  0  0  0  0  0  0  0
    6.4950    0.7237  -15.8665 C   0  0  0  0  0  0  0  0  0  0  0  0
    6.5798   -0.1686  -16.9175 C   0  0  0  0  0  0  0  0  0  0  0  0
    5.6202   -0.9831  -17.4738 C   0  0  0  0  0  0  0  0  0  0  0  0
    4.3270   -1.2126  -17.0143 C   0  0  0  0  0  0  0  0  0  0  0  0
    3.3858   -1.7417  -17.9245 N   0  0  0  0  0  0  0  0  0  0  0  0
    3.1492   -1.2251  -18.7762 H   0  0  0  0  0  0  0  0  0  0  0  0
    2.9414   -2.6514  -17.7210 H   0  0  0  0  0  0  0  0  0  0  0  0
    3.8956   -0.9585  -15.7243 C   0  0  0  0  0  0  0  0  0  0  0  0
    4.4032   -0.0546  -14.7901 C   0  0  0  0  0  0  0  0  0  0  0  0
    3.7769    0.0061  -13.7176 O   0  0  0  0  0  0  0  0  0  0  0  0
    5.5038    0.7808  -14.8919 C   0  0  0  0  0  0  0  0  0  0  0  0
   11.2427    7.9969   -5.9975 C   0  0  0  0  0  0  0  0  0  0  0  0
   11.4299    9.0741   -6.8329 C   0  0  0  0  0  0  0  0  0  0  0  0
   11.0573    9.0374   -8.1643 C   0  0  0  0  0  0  0  0  0  0  0  0
   10.4756    7.8968   -8.7033 C   0  0  0  0  0  0  0  0  0  0  0  0
   10.2828    6.8116   -7.8775 C   0  0  0  0  0  0  0  0  0  0  0  0
   10.6657    6.8688   -6.5372 C   0  0  0  0  0  0  0  0  0  0  0  0
    9.7051    5.6695   -8.4000 C   0  0  0  0  0  0  0  0  0  0  0  0
    9.3463    5.6696   -9.7329 C   0  0  0  0  0  0  0  0  0  0  0  0
    9.5495    6.7679  -10.5385 C   0  0  0  0  0  0  0  0  0  0  0  0
    9.2203    6.7820  -11.7846 N   0  0  0  0  0  0  0  0  0  0  0  0
   10.1139    7.8597   -9.9936 N   0  0  0  0  0  0  0  0  0  0  0  0
   10.2967    8.7332  -10.5559 H   0  0  0  0  0  0  0  0  0  0  0  0
   12.3874    7.9526   -1.8913 C   0  0  0  0  0  0  0  0  0  0  0  0
   12.0603    6.8041   -2.5789 C   0  0  0  0  0  0  0  0  0  0  0  0
   11.6931    6.8480   -3.9074 C   0  0  0  0  0  0  0  0  0  0  0  0
   11.6408    8.0508   -4.5967 C   0  0  0  0  0  0  0  0  0  0  0  0
   11.9623    9.1973   -3.9277 C   0  0  0  0  0  0  0  0  0  0  0  0
   12.3307    9.1397   -2.5893 C   0  0  0  0  0  0  0  0  0  0  0  0
 36 37  2  0
 37 38  1  0
 38 39  2  0
 39 24  1  0
 24 25  2  0
 25 26  1  0
 26 27  2  0
 27 28  1  0
 28 29  2  0
 28 30  1  0
 30 31  2  0
 31 32  1  0
 32 33  2  0
 33  1  1  0
  1  2  2  0
  2  3  1  0
  3  4  2  0
  4  5  1  0
  5  6  2  0
  5  7  1  0
  7  8  1  0
  8  9  1  0
  9 10  2  0
 10 11  1  0
 11 12  1  0
 11 13  1  0
 13 14  1  0
 14 15  2  0
 15 16  1  0
 16 17  1  0
 17 18  1  0
 17 19  1  0
 16 20  2  0
 20 21  1  0
 21 22  2  0
 21 23  1  0
 32 34  1  0
 34 35  1  0
 39 40  1  0
 40 41  2  0
 41 36  1  0
 29 24  1  0
  6  1  1  0
 23  9  1  0
 34 27  1  0
 10  4  1  0
 23 13  2  0
M  END
>  <minimizedAffinity>  (58) 
-17.83070

$$$$
Mol: 197_57 - SminaDock
     RDKit          3D

 37 43  0  0  0  0  0  0  0  0999 V2000
    8.6278    5.7689  -12.4911 C   0  0  0  0  0  0  0  0  0  0  0  0
    9.2017    5.1502  -13.5725 C   0  0  0  0  0  0  0  0  0  0  0  0
    8.6540    4.0215  -14.1569 C   0  0  0  0  0  0  0  0  0  0  0  0
    7.4824    3.5437  -13.5860 C   0  0  0  0  0  0  0  0  0  0  0  0
    6.8765    4.1358  -12.5016 C   0  0  0  0  0  0  0  0  0  0  0  0
    7.4728    5.2616  -11.9623 C   0  0  0  0  0  0  0  0  0  0  0  0
    5.6511    3.4166  -12.1102 C   0  0  0  0  0  0  0  0  0  0  0  0
    5.5663    2.3039  -13.0848 C   0  0  0  0  0  0  0  0  0  0  0  0
    4.6132    1.3049  -13.1960 C   0  0  0  0  0  0  0  0  0  0  0  0
    4.7923    0.3738  -14.2288 C   0  0  0  0  0  0  0  0  0  0  0  0
    5.8476    0.4306  -15.0940 C   0  0  0  0  0  0  0  0  0  0  0  0
    6.7866    1.4569  -14.9447 C   0  0  0  0  0  0  0  0  0  0  0  0
    6.6385    2.3842  -13.9425 C   0  0  0  0  0  0  0  0  0  0  0  0
    5.7403   -0.6841  -16.0503 C   0  0  2  0  0  0  0  0  0  0  0  0
    5.5508   -0.0798  -17.4353 C   0  0  0  0  0  0  0  0  0  0  0  0
    4.5529   -1.3968  -15.6886 N   0  0  0  0  0  0  0  0  0  0  0  0
    4.1804   -2.2687  -16.1859 H   0  0  0  0  0  0  0  0  0  0  0  0
    3.9591   -0.7681  -14.5794 C   0  0  0  0  0  0  0  0  0  0  0  0
    2.9049   -1.1097  -13.9835 O   0  0  0  0  0  0  0  0  0  0  0  0
   11.2427    8.0562   -6.0891 C   0  0  0  0  0  0  0  0  0  0  0  0
   11.4069    9.1466   -6.8832 C   0  0  0  0  0  0  0  0  0  0  0  0
   11.0240    9.1186   -8.2071 C   0  0  0  0  0  0  0  0  0  0  0  0
   10.4569    7.9838   -8.7876 C   0  0  0  0  0  0  0  0  0  0  0  0
   10.2979    6.8871   -7.9671 C   0  0  0  0  0  0  0  0  0  0  0  0
   10.6831    6.9263   -6.6488 C   0  0  0  0  0  0  0  0  0  0  0  0
    9.7356    5.7503   -8.5288 C   0  0  0  0  0  0  0  0  0  0  0  0
    9.3721    5.7806   -9.8585 C   0  0  0  0  0  0  0  0  0  0  0  0
    9.5398    6.8887  -10.6627 C   0  0  0  0  0  0  0  0  0  0  0  0
    9.2017    6.9226  -11.9079 N   0  0  0  0  0  0  0  0  0  0  0  0
   10.0917    7.9810  -10.0815 N   0  0  0  0  0  0  0  0  0  0  0  0
   10.2260    8.8402  -10.6890 H   0  0  0  0  0  0  0  0  0  0  0  0
   12.3635    7.9343   -1.9514 C   0  0  0  0  0  0  0  0  0  0  0  0
   11.9878    6.7922   -2.6269 C   0  0  0  0  0  0  0  0  0  0  0  0
   11.6258    6.8319   -3.9633 C   0  0  0  0  0  0  0  0  0  0  0  0
   11.6232    8.0094   -4.6817 C   0  0  0  0  0  0  0  0  0  0  0  0
   12.0025    9.1516   -3.9933 C   0  0  0  0  0  0  0  0  0  0  0  0
   12.3634    9.1156   -2.6628 C   0  0  0  0  0  0  0  0  0  0  0  0
 32 33  2  0
 33 34  1  0
 34 35  2  0
 35 20  1  0
 20 21  2  0
 21 22  1  0
 22 23  2  0
 23 24  1  0
 24 25  2  0
 24 26  1  0
 26 27  2  0
 27 28  1  0
 28 29  2  0
 29  1  1  0
  1  2  2  0
  2  3  1  0
  3  4  2  0
  4  5  1  0
  5  6  2  0
  5  7  1  0
  7  8  1  0
  8  9  2  0
  9 10  1  0
 10 11  2  0
 11 12  1  0
 12 13  2  0
 11 14  1  0
 14 15  1  6
 14 16  1  0
 16 17  1  0
 16 18  1  0
 18 19  2  0
 28 30  1  0
 30 31  1  0
 35 36  1  0
 36 37  2  0
 37 32  1  0
 25 20  1  0
  6  1  1  0
 13  8  1  0
 30 23  1  0
 13  4  1  0
 18 10  1  0
M  END
>  <minimizedAffinity>  (59) 
-17.78788

$$$$
Mol: 125_13 - SminaDock
     RDKit          3D

 41 48  0  0  0  0  0  0  0  0999 V2000
    8.2625    5.4810  -12.9384 N   0  0  0  0  0  0  0  0  0  0  0  0
    8.7277    5.7900  -11.7537 C   0  0  0  0  0  0  0  0  0  0  0  0
    9.5041    6.8720  -11.5723 N   0  0  0  0  0  0  0  0  0  0  0  0
    9.9988    7.2188  -10.3706 C   0  0  0  0  0  0  0  0  0  0  0  0
   10.7944    8.3279  -10.1847 C   0  0  0  0  0  0  0  0  0  0  0  0
   11.3080    8.6856   -8.9303 C   0  0  0  0  0  0  0  0  0  0  0  0
   11.0282    7.9262   -7.8259 C   0  0  0  0  0  0  0  0  0  0  0  0
   10.2192    6.8011   -8.0225 C   0  0  0  0  0  0  0  0  0  0  0  0
    9.7166    6.4537   -9.2586 C   0  0  0  0  0  0  0  0  0  0  0  0
    8.9165    5.3386   -9.4460 C   0  0  0  0  0  0  0  0  0  0  0  0
    8.4484    5.0389  -10.6727 N   0  0  0  0  0  0  0  0  0  0  0  0
    7.8457    4.2016  -10.8226 H   0  0  0  0  0  0  0  0  0  0  0  0
    3.4379   -1.1459  -16.2355 C   0  0  0  0  0  0  0  0  0  0  0  0
    4.2442   -1.0463  -17.3358 C   0  0  0  0  0  0  0  0  0  0  0  0
    5.3804   -0.2721  -17.2597 C   0  0  0  0  0  0  0  0  0  0  0  0
    5.7188    0.4061  -16.0882 C   0  0  0  0  0  0  0  0  0  0  0  0
    4.8985    0.2915  -15.0023 C   0  0  0  0  0  0  0  0  0  0  0  0
    3.7468   -0.4928  -15.0784 C   0  0  0  0  0  0  0  0  0  0  0  0
    4.9775    0.8658  -13.6541 C   0  0  0  0  0  0  0  0  0  0  0  0
    5.9114    2.0083  -13.5496 C   0  0  0  0  0  0  0  0  0  0  0  0
    5.4504    3.0202  -12.7258 C   0  0  0  0  0  0  0  0  0  0  0  0
    6.2137    4.1601  -12.5204 C   0  0  0  0  0  0  0  0  0  0  0  0
    7.4438    4.3355  -13.1156 C   0  0  0  0  0  0  0  0  0  0  0  0
    7.8978    3.3101  -13.9430 C   0  0  0  0  0  0  0  0  0  0  0  0
    7.1423    2.1762  -14.1496 C   0  0  0  0  0  0  0  0  0  0  0  0
    7.7985    1.2052  -15.0672 C   0  0  1  0  0  0  0  0  0  0  0  0
    9.2452    1.3516  -15.2377 C   0  0  0  0  0  0  0  0  0  0  0  0
   10.0249    2.0698  -15.9129 O   0  0  0  0  0  0  0  0  0  0  0  0
    9.4820    0.3388  -14.3201 O   0  0  0  0  0  0  0  0  0  0  0  0
    8.1317   -0.1165  -14.4229 C   0  0  0  0  0  0  0  0  0  0  0  0
    6.9614    1.1401  -16.3008 C   0  0  0  0  0  0  0  0  0  0  0  0
   11.5104    8.2083   -6.4777 C   0  0  0  0  0  0  0  0  0  0  0  0
   11.2925    7.3584   -5.4589 N   0  0  0  0  0  0  0  0  0  0  0  0
   11.7351    7.6030   -4.1893 C   0  0  0  0  0  0  0  0  0  0  0  0
   11.4813    6.6919   -3.1809 C   0  0  0  0  0  0  0  0  0  0  0  0
   11.9049    6.8916   -1.8887 C   0  0  0  0  0  0  0  0  0  0  0  0
   12.6026    8.0527   -1.6347 C   0  0  0  0  0  0  0  0  0  0  0  0
   12.8688    8.9743   -2.6157 C   0  0  0  0  0  0  0  0  0  0  0  0
   12.4348    8.7481   -3.8915 C   0  0  0  0  0  0  0  0  0  0  0  0
   12.6805    9.6536   -4.9208 C   0  0  0  0  0  0  0  0  0  0  0  0
   12.2085    9.3519   -6.1820 C   0  0  0  0  0  0  0  0  0  0  0  0
 13 14  2  0
 14 15  1  0
 15 16  2  0
 16 17  1  0
 17 18  2  0
 17 19  1  0
 19 20  1  0
 20 21  2  0
 21 22  1  0
 22 23  2  0
 23  1  1  0
  1  2  2  0
  2  3  1  0
  3  4  2  0
  4  5  1  0
  5  6  2  0
  6  7  1  0
  7 32  1  0
 32 33  2  0
 33 34  1  0
 34 35  2  0
 35 36  1  0
 36 37  2  0
 37 38  1  0
 38 39  2  0
 39 40  1  0
 40 41  2  0
  7  8  2  0
  8  9  1  0
  9 10  2  0
 10 11  1  0
 11 12  1  0
 23 24  1  0
 24 25  2  0
 25 26  1  0
 26 27  1  0
 27 28  2  0
 27 29  1  0
 29 30  1  0
 26 31  1  6
 18 13  1  0
 25 20  1  0
 30 26  1  0
 31 16  1  0
 11  2  1  0
  9  4  1  0
 41 32  1  0
 39 34  1  0
M  END
>  <minimizedAffinity>  (60) 
-17.77643

$$$$
Mol: 129_0 - SminaDock
     RDKit          3D

 44 51  0  0  0  0  0  0  0  0999 V2000
    3.3844   -0.1432  -13.9610 C   0  0  0  0  0  0  0  0  0  0  0  0
    3.8325   -1.1987  -14.7248 C   0  0  0  0  0  0  0  0  0  0  0  0
    5.0747   -1.2263  -15.2895 C   0  0  0  0  0  0  0  0  0  0  0  0
    5.9662   -0.1443  -15.1043 C   0  0  0  0  0  0  0  0  0  0  0  0
    5.5183    0.9107  -14.3427 C   0  0  0  0  0  0  0  0  0  0  0  0
    4.2548    0.9112  -13.7823 C   0  0  0  0  0  0  0  0  0  0  0  0
    6.4337    2.0442  -14.2005 C   0  0  0  0  0  0  0  0  0  0  0  0
    6.0672    3.1290  -13.4013 C   0  0  0  0  0  0  0  0  0  0  0  0
    6.9381    4.2098  -13.2109 C   0  0  0  0  0  0  0  0  0  0  0  0
    8.1770    4.2279  -13.8079 C   0  0  0  0  0  0  0  0  0  0  0  0
    8.5033    3.1488  -14.5851 C   0  0  0  0  0  0  0  0  0  0  0  0
    7.6576    2.0525  -14.7975 C   0  0  0  0  0  0  0  0  0  0  0  0
    8.0956    0.9627  -15.6913 C   0  0  2  0  0  0  0  0  0  0  0  0
    9.5353    0.6448  -15.2808 C   0  0  0  0  0  0  0  0  0  0  0  0
    9.9919    1.0392  -14.1962 O   0  0  0  0  0  0  0  0  0  0  0  0
   10.2577   -0.1157  -16.2317 N   0  0  0  0  0  0  0  0  0  0  0  0
   11.1918   -0.4998  -15.9741 H   0  0  0  0  0  0  0  0  0  0  0  0
    9.6608   -0.3233  -17.5213 C   0  0  0  0  0  0  0  0  0  0  0  0
   10.0109   -1.3466  -18.1535 O   0  0  0  0  0  0  0  0  0  0  0  0
    8.6842    0.5966  -18.1043 C   0  0  0  0  0  0  0  0  0  0  0  0
    8.2639    1.6036  -17.0691 C   0  0  0  0  0  0  0  0  0  0  0  0
    7.3082   -0.2549  -15.7027 C   0  0  0  0  0  0  0  0  0  0  0  0
    9.0711    5.3305  -13.6157 N   0  0  0  0  0  0  0  0  0  0  0  0
    9.3460    5.6582  -12.4019 C   0  0  0  0  0  0  0  0  0  0  0  0
    8.8203    4.9986  -11.3561 N   0  0  0  0  0  0  0  0  0  0  0  0
    9.0927    5.3229  -10.0946 N   0  0  0  0  0  0  0  0  0  0  0  0
    9.9177    6.3394   -9.7827 C   0  0  0  0  0  0  0  0  0  0  0  0
   10.2090    6.6869   -8.4810 C   0  0  0  0  0  0  0  0  0  0  0  0
   11.0585    7.7338   -8.1556 C   0  0  0  0  0  0  0  0  0  0  0  0
   11.6142    8.4306   -9.2064 C   0  0  0  0  0  0  0  0  0  0  0  0
   11.3197    8.0792  -10.5305 C   0  0  0  0  0  0  0  0  0  0  0  0
   10.4729    7.0357  -10.8361 C   0  0  0  0  0  0  0  0  0  0  0  0
   10.1772    6.6824  -12.1011 N   0  0  0  0  0  0  0  0  0  0  0  0
   10.5926    7.2034  -12.8902 H   0  0  0  0  0  0  0  0  0  0  0  0
   11.3354    8.0625   -6.7584 C   0  0  0  0  0  0  0  0  0  0  0  0
   11.4826    9.3570   -6.4155 N   0  0  0  0  0  0  0  0  0  0  0  0
   11.7353    9.7805   -5.1851 C   0  0  0  0  0  0  0  0  0  0  0  0
   11.8672    8.8836   -4.1439 C   0  0  0  0  0  0  0  0  0  0  0  0
   12.1317    9.2883   -2.8426 C   0  0  0  0  0  0  0  0  0  0  0  0
   12.2594    8.3731   -1.8184 C   0  0  0  0  0  0  0  0  0  0  0  0
   12.1142    7.0255   -2.1310 C   0  0  0  0  0  0  0  0  0  0  0  0
   11.8516    6.6328   -3.4267 C   0  0  0  0  0  0  0  0  0  0  0  0
   11.7239    7.5473   -4.4507 C   0  0  0  0  0  0  0  0  0  0  0  0
   11.4575    7.1304   -5.7586 C   0  0  0  0  0  0  0  0  0  0  0  0
  1  2  2  0
  2  3  1  0
  3  4  2  0
  4  5  1  0
  5  6  2  0
  5  7  1  0
  7  8  2  0
  8  9  1  0
  9 10  2  0
 10 23  1  0
 23 24  2  0
 24 25  1  0
 25 26  2  0
 26 27  1  0
 27 28  2  0
 28 29  1  0
 29 35  1  0
 35 36  2  0
 36 37  1  0
 37 38  2  0
 38 39  1  0
 39 40  2  0
 40 41  1  0
 41 42  2  0
 42 43  1  0
 43 44  2  0
 29 30  2  0
 30 31  1  0
 31 32  2  0
 32 33  1  0
 33 34  1  0
 10 11  1  0
 11 12  2  0
 12 13  1  0
 13 14  1  0
 14 15  2  0
 14 16  1  0
 16 17  1  0
 16 18  1  0
 18 19  2  0
 18 20  1  0
 20 21  1  0
 13 22  1  6
  6  1  1  0
 12  7  1  0
 21 13  1  0
 22  4  1  0
 33 24  1  0
 32 27  1  0
 44 35  1  0
 43 38  1  0
M  END
>  <minimizedAffinity>  (61) 
-17.80402

$$$$
Mol: 159_27 - SminaDock
     RDKit          3D

 44 51  0  0  0  0  0  0  0  0999 V2000
    7.3784    5.8942  -12.6598 C   0  0  0  0  0  0  0  0  0  0  0  0
    6.4588    6.9085  -12.6183 C   0  0  0  0  0  0  0  0  0  0  0  0
    6.8199    8.2234  -12.3569 C   0  0  0  0  0  0  0  0  0  0  0  0
    8.1436    8.5279  -12.1308 C   0  0  0  0  0  0  0  0  0  0  0  0
    9.0824    7.5317  -12.1670 C   0  0  0  0  0  0  0  0  0  0  0  0
    8.6946    6.2121  -12.4328 C   0  0  0  0  0  0  0  0  0  0  0  0
    9.9608    4.0951  -16.2708 H   0  0  0  0  0  0  0  0  0  0  0  0
    9.7276    3.4621  -15.5227 O   0  0  0  0  0  0  0  0  0  0  0  0
    9.2946    2.1772  -15.6277 C   0  0  0  0  0  0  0  0  0  0  0  0
    8.2215    1.6226  -14.9541 C   0  0  0  0  0  0  0  0  0  0  0  0
    7.8744    0.3093  -15.1374 C   0  0  0  0  0  0  0  0  0  0  0  0
    8.6035   -0.4410  -15.9982 N   0  0  0  0  0  0  0  0  0  0  0  0
    9.6412    0.0362  -16.6716 C   0  0  0  0  0  0  0  0  0  0  0  0
   10.3573   -0.7883  -17.5472 C   0  0  0  0  0  0  0  0  0  0  0  0
   11.4383   -0.3029  -18.2519 C   0  0  0  0  0  0  0  0  0  0  0  0
   11.8019    1.0139  -18.0776 C   0  0  0  0  0  0  0  0  0  0  0  0
   11.0912    1.8336  -17.2082 C   0  0  0  0  0  0  0  0  0  0  0  0
   10.0013    1.3567  -16.4933 C   0  0  0  0  0  0  0  0  0  0  0  0
    6.7782   -0.3180  -14.3801 C   0  0  0  0  0  0  0  0  0  0  0  0
    5.7737    0.5684  -13.7667 C   0  0  0  0  0  0  0  0  0  0  0  0
    6.2472    1.9154  -13.4718 C   0  0  0  0  0  0  0  0  0  0  0  0
    5.4800    2.6802  -12.5843 C   0  0  0  0  0  0  0  0  0  0  0  0
    5.8846    3.9665  -12.3494 C   0  0  0  0  0  0  0  0  0  0  0  0
    6.9862    4.5323  -12.9314 C   0  0  0  0  0  0  0  0  0  0  0  0
    7.7468    3.7504  -13.8194 C   0  0  0  0  0  0  0  0  0  0  0  0
    7.3785    2.4682  -14.0782 C   0  0  0  0  0  0  0  0  0  0  0  0
   10.4444    7.8003  -11.9419 N   0  0  0  0  0  0  0  0  0  0  0  0
   10.8776    7.8686  -10.7309 C   0  0  0  0  0  0  0  0  0  0  0  0
   10.0436    7.6858   -9.6985 N   0  0  0  0  0  0  0  0  0  0  0  0
   10.4419    7.7441   -8.4100 C   0  0  0  0  0  0  0  0  0  0  0  0
    9.5657    7.5501   -7.3598 C   0  0  0  0  0  0  0  0  0  0  0  0
   10.0010    7.6128   -6.0545 C   0  0  0  0  0  0  0  0  0  0  0  0
   11.3370    7.8735   -5.7364 C   0  0  0  0  0  0  0  0  0  0  0  0
   12.1931    8.0642   -6.7981 C   0  0  0  0  0  0  0  0  0  0  0  0
   11.7597    8.0019   -8.1179 C   0  0  0  0  0  0  0  0  0  0  0  0
   12.6242    8.1915   -9.1873 C   0  0  0  0  0  0  0  0  0  0  0  0
   12.1878    8.1250  -10.4595 N   0  0  0  0  0  0  0  0  0  0  0  0
   12.8028    8.2607  -11.2832 H   0  0  0  0  0  0  0  0  0  0  0  0
   11.7440    7.9255   -4.3467 C   0  0  0  0  0  0  0  0  0  0  0  0
   11.7809    6.7675   -3.5986 C   0  0  0  0  0  0  0  0  0  0  0  0
   12.1608    6.7654   -2.2766 C   0  0  0  0  0  0  0  0  0  0  0  0
   12.5243    7.9326   -1.6387 C   0  0  0  0  0  0  0  0  0  0  0  0
   12.4902    9.1011   -2.3836 C   0  0  0  0  0  0  0  0  0  0  0  0
   12.1056    9.0968   -3.7179 C   0  0  0  0  0  0  0  0  0  0  0  0
  7  8  1  0
  8  9  1  0
  9 10  2  0
 10 11  1  0
 11 12  2  0
 12 13  1  0
 13 14  2  0
 14 15  1  0
 15 16  2  0
 16 17  1  0
 17 18  2  0
 11 19  1  0
 19 20  1  0
 20 21  1  0
 21 22  2  0
 22 23  1  0
 23 24  2  0
 24  1  1  0
  1  2  2  0
  2  3  1  0
  3  4  2  0
  4  5  1  0
  5 27  1  0
 27 28  2  0
 28 29  1  0
 29 30  2  0
 30 31  1  0
 31 32  2  0
 32 33  1  0
 33 39  1  0
 39 40  2  0
 40 41  1  0
 41 42  2  0
 42 43  1  0
 43 44  2  0
 33 34  2  0
 34 35  1  0
 35 36  2  0
 36 37  1  0
 37 38  1  0
  5  6  2  0
 24 25  1  0
 25 26  2  0
 18  9  1  0
 26 21  1  0
 26 10  1  0
 18 13  1  0
  6  1  1  0
 37 28  1  0
 35 30  1  0
 44 39  1  0
M  END
>  <minimizedAffinity>  (62) 
-17.67550

$$$$
Mol: 187_37 - SminaDock
     RDKit          3D

 43 50  0  0  0  0  0  0  0  0999 V2000
    5.2727   -2.9616  -18.5873 H   0  0  0  0  0  0  0  0  0  0  0  0
    5.8984   -2.8847  -17.7829 O   0  0  0  0  0  0  0  0  0  0  0  0
    5.7126   -1.8839  -16.8389 C   0  0  0  0  0  0  0  0  0  0  0  0
    6.5406   -0.8827  -16.4909 N   0  0  0  0  0  0  0  0  0  0  0  0
    5.9708   -0.1424  -15.5381 C   0  0  0  0  0  0  0  0  0  0  0  0
    6.4258    0.9794  -14.8700 C   0  0  0  0  0  0  0  0  0  0  0  0
    5.6112    1.5297  -13.9320 C   0  0  0  0  0  0  0  0  0  0  0  0
    4.3617    0.9596  -13.6722 C   0  0  0  0  0  0  0  0  0  0  0  0
    3.9246   -0.1478  -14.3386 C   0  0  0  0  0  0  0  0  0  0  0  0
    4.7485   -0.7147  -15.2963 C   0  0  0  0  0  0  0  0  0  0  0  0
    4.6422   -1.7483  -16.0959 O   0  0  0  0  0  0  0  0  0  0  0  0
    6.3118    2.6849  -13.3901 C   0  0  0  0  0  0  0  0  0  0  0  0
    5.8533    3.5521  -12.4131 C   0  0  0  0  0  0  0  0  0  0  0  0
    6.6845    4.5954  -12.0549 C   0  0  0  0  0  0  0  0  0  0  0  0
    7.9194    4.7792  -12.6354 C   0  0  0  0  0  0  0  0  0  0  0  0
    8.3326    3.8943  -13.6000 C   0  0  0  0  0  0  0  0  0  0  0  0
    7.5337    2.8310  -13.9930 C   0  0  0  0  0  0  0  0  0  0  0  0
    7.6882    1.7372  -14.9700 C   0  0  2  0  0  0  0  0  0  0  0  0
    7.9107    2.2634  -16.3741 C   0  0  0  0  0  0  0  0  0  0  0  0
    9.0078    1.5631  -17.1086 C   0  0  0  0  0  0  0  0  0  0  0  0
   10.3143    1.5758  -16.3555 C   0  0  2  0  0  0  0  0  0  0  0  0
   11.1409    0.6263  -16.9687 O   0  0  0  0  0  0  0  0  0  0  0  0
   11.1350   -0.2141  -16.4201 H   0  0  0  0  0  0  0  0  0  0  0  0
   10.1623    1.2179  -14.9148 C   0  0  0  0  0  0  0  0  0  0  0  0
    8.7911    0.8366  -14.4874 C   0  0  0  0  0  0  0  0  0  0  0  0
    8.7142    5.8776  -12.2114 N   0  0  0  0  0  0  0  0  0  0  0  0
    9.1005    6.0336  -10.9936 C   0  0  0  0  0  0  0  0  0  0  0  0
    8.7617    5.1400  -10.0356 N   0  0  0  0  0  0  0  0  0  0  0  0
    9.1558    5.2852   -8.7582 C   0  0  0  0  0  0  0  0  0  0  0  0
    9.9264    6.3616   -8.3805 C   0  0  0  0  0  0  0  0  0  0  0  0
   10.3550    6.5528   -7.0804 C   0  0  0  0  0  0  0  0  0  0  0  0
   11.1274    7.6339   -6.7080 C   0  0  0  0  0  0  0  0  0  0  0  0
   11.4600    8.5334   -7.7083 C   0  0  0  0  0  0  0  0  0  0  0  0
   11.0418    8.3598   -9.0115 C   0  0  0  0  0  0  0  0  0  0  0  0
   10.2698    7.2746   -9.3713 C   0  0  0  0  0  0  0  0  0  0  0  0
    9.8514    7.0896  -10.6442 N   0  0  0  0  0  0  0  0  0  0  0  0
   10.1216    7.7875  -11.3694 H   0  0  0  0  0  0  0  0  0  0  0  0
   11.5833    7.8421   -5.3377 C   0  0  0  0  0  0  0  0  0  0  0  0
   12.1764    9.0135   -4.9127 C   0  0  0  0  0  0  0  0  0  0  0  0
   12.6022    9.1915   -3.6072 C   0  0  0  0  0  0  0  0  0  0  0  0
   12.4439    8.1871   -2.6771 C   0  0  0  0  0  0  0  0  0  0  0  0
   11.8487    7.0004   -3.0870 C   0  0  0  0  0  0  0  0  0  0  0  0
   11.4299    6.8436   -4.3977 C   0  0  0  0  0  0  0  0  0  0  0  0
  1  2  1  0
  2  3  1  0
  3  4  2  0
  4  5  1  0
  5  6  2  0
  6  7  1  0
  7  8  2  0
  8  9  1  0
  9 10  2  0
 10 11  1  0
  7 12  1  0
 12 13  2  0
 13 14  1  0
 14 15  2  0
 15 26  1  0
 26 27  2  0
 27 28  1  0
 28 29  2  0
 29 30  1  0
 30 31  2  0
 31 32  1  0
 32 38  1  0
 38 39  2  0
 39 40  1  0
 40 41  2  0
 41 42  1  0
 42 43  2  0
 32 33  2  0
 33 34  1  0
 34 35  2  0
 35 36  1  0
 36 37  1  0
 15 16  1  0
 16 17  2  0
 17 18  1  0
 18 19  1  6
 19 20  1  0
 20 21  1  0
 21 22  1  6
 22 23  1  0
 21 24  1  0
 24 25  1  0
 11  3  1  0
 17 12  1  0
 25 18  1  0
 10  5  1  0
 36 27  1  0
 18  6  1  0
 35 30  1  0
 43 38  1  0
M  END
>  <minimizedAffinity>  (63) 
-17.71152

$$$$
Mol: 186_7 - SminaDock
     RDKit          3D

 41 48  0  0  0  0  0  0  0  0999 V2000
    8.8485    6.0308  -12.3520 C   0  0  0  0  0  0  0  0  0  0  0  0
    9.3809    5.4120  -13.4617 C   0  0  0  0  0  0  0  0  0  0  0  0
    8.7251    4.3391  -14.0219 C   0  0  0  0  0  0  0  0  0  0  0  0
    7.5408    3.8506  -13.5115 C   0  0  0  0  0  0  0  0  0  0  0  0
    7.0119    4.4697  -12.4045 C   0  0  0  0  0  0  0  0  0  0  0  0
    7.6781    5.5641  -11.8310 C   0  0  0  0  0  0  0  0  0  0  0  0
    5.7497    3.7920  -12.0264 C   0  0  0  0  0  0  0  0  0  0  0  0
    5.5770    2.7077  -13.0133 C   0  0  0  0  0  0  0  0  0  0  0  0
    4.5796    1.7389  -13.1671 C   0  0  0  0  0  0  0  0  0  0  0  0
    4.6451    0.8186  -14.1892 C   0  0  0  0  0  0  0  0  0  0  0  0
    5.7217    0.8804  -15.0558 C   0  0  0  0  0  0  0  0  0  0  0  0
    6.7056    1.8340  -14.9059 C   0  0  0  0  0  0  0  0  0  0  0  0
    6.6412    2.7631  -13.8753 C   0  0  0  0  0  0  0  0  0  0  0  0
    5.7791   -0.1075  -16.1470 C   0  0  1  0  0  0  0  0  0  0  0  0
    5.2987   -1.3897  -15.5709 C   0  0  0  0  0  0  0  0  0  0  0  0
    5.9318   -2.4578  -15.5401 O   0  0  0  0  0  0  0  0  0  0  0  0
    4.0122   -1.3457  -15.0236 O   0  0  0  0  0  0  0  0  0  0  0  0
    3.5525   -0.2103  -14.3150 C   0  0  0  0  0  0  0  0  0  0  0  0
    4.7743    0.2718  -17.2449 C   0  0  0  0  0  0  0  0  0  0  0  0
    4.7771   -0.8160  -18.3018 C   0  0  0  0  0  0  0  0  0  0  0  0
    5.7739   -1.7598  -18.0487 O   0  0  0  0  0  0  0  0  0  0  0  0
    7.0073   -1.1171  -18.0544 C   0  0  0  0  0  0  0  0  0  0  0  0
    7.0996   -0.2396  -16.8266 C   0  0  0  0  0  0  0  0  0  0  0  0
   11.3243    8.0371   -5.9730 C   0  0  0  0  0  0  0  0  0  0  0  0
   11.6049    9.1633   -6.6947 C   0  0  0  0  0  0  0  0  0  0  0  0
   11.2767    9.2027   -8.0302 C   0  0  0  0  0  0  0  0  0  0  0  0
   10.6698    8.0890   -8.5942 C   0  0  0  0  0  0  0  0  0  0  0  0
   10.3532    8.1380   -9.9013 N   0  0  0  0  0  0  0  0  0  0  0  0
    9.7688    7.0755  -10.4605 C   0  0  0  0  0  0  0  0  0  0  0  0
    9.4693    7.1390  -11.7246 N   0  0  0  0  0  0  0  0  0  0  0  0
    9.4939    5.9729   -9.7547 N   0  0  0  0  0  0  0  0  0  0  0  0
    9.0342    5.1728  -10.2516 H   0  0  0  0  0  0  0  0  0  0  0  0
    9.7894    5.8702   -8.4434 C   0  0  0  0  0  0  0  0  0  0  0  0
   10.3973    6.9637   -7.8425 C   0  0  0  0  0  0  0  0  0  0  0  0
   10.7217    6.9092   -6.4973 C   0  0  0  0  0  0  0  0  0  0  0  0
   12.3620    8.0353   -1.9004 C   0  0  0  0  0  0  0  0  0  0  0  0
   12.0135    6.8563   -2.5016 C   0  0  0  0  0  0  0  0  0  0  0  0
   11.6685    6.8315   -3.8400 C   0  0  0  0  0  0  0  0  0  0  0  0
   11.6844    8.0221   -4.5525 C   0  0  0  0  0  0  0  0  0  0  0  0
   12.0330    9.2041   -3.9526 C   0  0  0  0  0  0  0  0  0  0  0  0
   12.3693    9.1894   -2.6224 C   0  0  0  0  0  0  0  0  0  0  0  0
 36 37  2  0
 37 38  1  0
 38 39  2  0
 39 24  1  0
 24 25  1  0
 25 26  2  0
 26 27  1  0
 27 28  2  0
 28 29  1  0
 29 30  2  0
 30  1  1  0
  1  2  2  0
  2  3  1  0
  3  4  2  0
  4  5  1  0
  5  6  2  0
  5  7  1  0
  7  8  1  0
  8  9  2  0
  9 10  1  0
 10 11  2  0
 11 12  1  0
 12 13  2  0
 11 14  1  0
 14 15  1  0
 15 16  2  0
 15 17  1  0
 17 18  1  0
 14 19  1  6
 19 20  1  0
 20 21  1  0
 21 22  1  0
 22 23  1  0
 29 31  1  0
 31 32  1  0
 31 33  1  0
 33 34  2  0
 34 35  1  0
 39 40  1  0
 40 41  2  0
 41 36  1  0
 35 24  2  0
 34 27  1  0
  6  1  1  0
 13  8  1  0
 23 14  1  0
 13  4  1  0
 18 10  1  0
M  END
>  <minimizedAffinity>  (64) 
-17.73781

$$$$
Mol: 189_16 - SminaDock
     RDKit          3D

 43 50  0  0  0  0  0  0  0  0999 V2000
    8.4420   -0.2562  -17.0713 H   0  0  0  0  0  0  0  0  0  0  0  0
    7.6429   -0.8599  -17.1153 N   0  0  0  0  0  0  0  0  0  0  0  0
    6.5362   -0.9477  -16.5553 C   0  0  0  0  0  0  0  0  0  0  0  0
    5.9676   -0.1809  -15.5926 C   0  0  0  0  0  0  0  0  0  0  0  0
    6.4684    0.9540  -14.9178 C   0  0  0  0  0  0  0  0  0  0  0  0
    5.6369    1.4977  -13.9902 C   0  0  0  0  0  0  0  0  0  0  0  0
    4.3530    0.9905  -13.6937 C   0  0  0  0  0  0  0  0  0  0  0  0
    3.9137   -0.1114  -14.3760 C   0  0  0  0  0  0  0  0  0  0  0  0
    4.7152   -0.6907  -15.3168 C   0  0  0  0  0  0  0  0  0  0  0  0
    4.5663   -1.7649  -16.1338 N   0  0  0  0  0  0  0  0  0  0  0  0
    3.6987   -2.3646  -16.1495 H   0  0  0  0  0  0  0  0  0  0  0  0
    5.6369   -1.9286  -16.8725 N   0  0  0  0  0  0  0  0  0  0  0  0
    5.7542   -2.6881  -17.5771 H   0  0  0  0  0  0  0  0  0  0  0  0
    6.2911    2.6599  -13.3938 C   0  0  0  0  0  0  0  0  0  0  0  0
    5.8848    3.5807  -12.4204 C   0  0  0  0  0  0  0  0  0  0  0  0
    6.6831    4.6352  -12.0248 C   0  0  0  0  0  0  0  0  0  0  0  0
    7.9205    4.7774  -12.6134 C   0  0  0  0  0  0  0  0  0  0  0  0
    8.3358    3.8787  -13.5733 C   0  0  0  0  0  0  0  0  0  0  0  0
    7.5101    2.8071  -13.9668 C   0  0  0  0  0  0  0  0  0  0  0  0
    7.7049    1.7081  -14.9485 C   0  0  2  0  0  0  0  0  0  0  0  0
    7.7982    2.3977  -16.2767 C   0  0  0  0  0  0  0  0  0  0  0  0
    9.0812    2.5680  -16.9433 C   0  0  0  0  0  0  0  0  0  0  0  0
   10.3487    2.3174  -16.2225 C   0  0  0  0  0  0  0  0  0  0  0  0
   10.2618    1.5835  -14.9386 C   0  0  0  0  0  0  0  0  0  0  0  0
    8.9419    1.0230  -14.5861 C   0  0  0  0  0  0  0  0  0  0  0  0
    8.7342    5.8446  -12.2112 N   0  0  0  0  0  0  0  0  0  0  0  0
    9.1377    6.0325  -10.9987 C   0  0  0  0  0  0  0  0  0  0  0  0
    9.9161    7.0665  -10.6508 N   0  0  0  0  0  0  0  0  0  0  0  0
   10.3581    7.2920   -9.3988 C   0  0  0  0  0  0  0  0  0  0  0  0
   11.1570    8.3562   -9.0475 C   0  0  0  0  0  0  0  0  0  0  0  0
   11.5872    8.5496   -7.7483 C   0  0  0  0  0  0  0  0  0  0  0  0
   11.2315    7.6743   -6.7328 C   0  0  0  0  0  0  0  0  0  0  0  0
   10.4288    6.6077   -7.0920 C   0  0  0  0  0  0  0  0  0  0  0  0
    9.9915    6.4058   -8.3949 C   0  0  0  0  0  0  0  0  0  0  0  0
    9.1963    5.3472   -8.7423 C   0  0  0  0  0  0  0  0  0  0  0  0
    8.7850    5.1776  -10.0264 N   0  0  0  0  0  0  0  0  0  0  0  0
    8.1822    4.3637  -10.2620 H   0  0  0  0  0  0  0  0  0  0  0  0
   11.6716    7.8484   -5.3578 C   0  0  0  0  0  0  0  0  0  0  0  0
   11.3674    6.8552   -4.4493 C   0  0  0  0  0  0  0  0  0  0  0  0
   11.7652    6.9732   -3.1087 C   0  0  0  0  0  0  0  0  0  0  0  0
   12.4627    8.1046   -2.7414 C   0  0  0  0  0  0  0  0  0  0  0  0
   12.7618    9.0894   -3.6526 C   0  0  0  0  0  0  0  0  0  0  0  0
   12.3665    8.9691   -4.9771 C   0  0  0  0  0  0  0  0  0  0  0  0
  1  2  1  0
  2  3  2  0
  3  4  1  0
  4  5  2  0
  5  6  1  0
  6  7  2  0
  7  8  1  0
  8  9  2  0
  9 10  1  0
 10 11  1  0
 10 12  1  0
 12 13  1  0
  6 14  1  0
 14 15  2  0
 15 16  1  0
 16 17  2  0
 17 26  1  0
 26 27  2  0
 27 28  1  0
 28 29  2  0
 29 30  1  0
 30 31  2  0
 31 32  1  0
 32 38  1  0
 38 39  2  0
 39 40  1  0
 40 41  2  0
 41 42  1  0
 42 43  2  0
 32 33  2  0
 33 34  1  0
 34 35  2  0
 35 36  1  0
 36 37  1  0
 17 18  1  0
 18 19  2  0
 19 20  1  0
 20 21  1  6
 21 22  1  0
 22 23  1  0
 23 24  1  0
 24 25  1  0
 12  3  1  0
 19 14  1  0
 25 20  1  0
  9  4  1  0
 36 27  1  0
 20  5  1  0
 34 29  1  0
 43 38  1  0
M  END
>  <minimizedAffinity>  (65) 
-17.69463

$$$$
Mol: 199_30 - SminaDock
     RDKit          3D

 45 52  0  0  0  0  0  0  0  0999 V2000
    6.0403   -1.8142  -17.3293 O   0  0  0  0  0  0  0  0  0  0  0  0
    6.8036   -0.8222  -17.2868 C   0  0  0  0  0  0  0  0  0  0  0  0
    7.7797   -0.4397  -18.2830 C   0  0  0  0  0  0  0  0  0  0  0  0
    8.0356   -1.0452  -19.3838 O   0  0  0  0  0  0  0  0  0  0  0  0
    8.4464    0.7913  -17.8098 C   0  0  1  0  0  0  0  0  0  0  0  0
    9.8952    0.4086  -17.5814 C   0  0  0  0  0  0  0  0  0  0  0  0
   10.8466    1.5325  -17.4596 C   0  0  0  0  0  0  0  0  0  0  0  0
   10.4620    2.6649  -18.1364 O   0  0  0  0  0  0  0  0  0  0  0  0
    9.7662    2.3013  -19.2822 C   0  0  0  0  0  0  0  0  0  0  0  0
    8.3438    1.9049  -18.8402 C   0  0  0  0  0  0  0  0  0  0  0  0
    7.8320    1.1051  -16.5290 C   0  0  0  0  0  0  0  0  0  0  0  0
    8.1282    2.1893  -15.6822 C   0  0  0  0  0  0  0  0  0  0  0  0
    7.4203    2.2748  -14.5233 C   0  0  0  0  0  0  0  0  0  0  0  0
    6.4367    1.3373  -14.1823 C   0  0  0  0  0  0  0  0  0  0  0  0
    6.1765    0.2940  -15.0336 C   0  0  0  0  0  0  0  0  0  0  0  0
    6.8892    0.1765  -16.2296 C   0  0  0  0  0  0  0  0  0  0  0  0
    5.6121    1.3612  -13.0789 C   0  0  0  0  0  0  0  0  0  0  0  0
    5.2694    0.2403  -12.6804 O   0  0  0  0  0  0  0  0  0  0  0  0
    5.1827    2.4889  -12.4494 N   0  0  0  0  0  0  0  0  0  0  0  0
    5.6892    3.7479  -12.4784 C   0  0  0  0  0  0  0  0  0  0  0  0
    5.0034    4.7258  -12.1628 O   0  0  0  0  0  0  0  0  0  0  0  0
    6.9962    4.0419  -12.8550 C   0  0  0  0  0  0  0  0  0  0  0  0
    7.5208    5.1105  -12.1922 C   0  0  0  0  0  0  0  0  0  0  0  0
    8.8244    5.4975  -12.4018 C   0  0  0  0  0  0  0  0  0  0  0  0
    9.6063    4.7931  -13.2926 C   0  0  0  0  0  0  0  0  0  0  0  0
    9.1073    3.6922  -13.9926 C   0  0  0  0  0  0  0  0  0  0  0  0
    7.8137    3.3445  -13.7598 C   0  0  0  0  0  0  0  0  0  0  0  0
    9.3104    6.6017  -11.6922 N   0  0  0  0  0  0  0  0  0  0  0  0
    9.6534    6.6327  -10.4533 C   0  0  0  0  0  0  0  0  0  0  0  0
    9.5740    5.5188   -9.6484 C   0  0  0  0  0  0  0  0  0  0  0  0
    9.9463    5.5561   -8.3118 C   0  0  0  0  0  0  0  0  0  0  0  0
   10.4094    6.7448   -7.7750 C   0  0  0  0  0  0  0  0  0  0  0  0
   10.7896    6.8303   -6.4569 C   0  0  0  0  0  0  0  0  0  0  0  0
   11.2544    8.0043   -5.8996 C   0  0  0  0  0  0  0  0  0  0  0  0
   11.3251    9.1098   -6.7279 C   0  0  0  0  0  0  0  0  0  0  0  0
   10.9443    9.0305   -8.0544 C   0  0  0  0  0  0  0  0  0  0  0  0
   10.4782    7.8416   -8.6015 C   0  0  0  0  0  0  0  0  0  0  0  0
   10.1062    7.7725   -9.9059 N   0  0  0  0  0  0  0  0  0  0  0  0
   10.1823    8.6420  -10.4812 H   0  0  0  0  0  0  0  0  0  0  0  0
   11.6549    8.0786   -4.4992 C   0  0  0  0  0  0  0  0  0  0  0  0
   12.0237    9.2567   -3.8910 C   0  0  0  0  0  0  0  0  0  0  0  0
   12.3972    9.2952   -2.5652 C   0  0  0  0  0  0  0  0  0  0  0  0
   12.4016    8.1284   -1.8318 C   0  0  0  0  0  0  0  0  0  0  0  0
   12.0383    6.9321   -2.4087 C   0  0  0  0  0  0  0  0  0  0  0  0
   11.6699    6.9285   -3.7377 C   0  0  0  0  0  0  0  0  0  0  0  0
  1  2  2  0
  2  3  1  0
  3  4  2  0
  3  5  1  0
  5  6  1  1
  6  7  1  0
  7  8  1  0
  8  9  1  0
  9 10  1  0
  5 11  1  0
 11 12  2  0
 12 13  1  0
 13 14  2  0
 14 15  1  0
 15 16  2  0
 14 17  1  0
 17 18  2  0
 17 19  1  0
 19 20  1  0
 20 21  2  0
 20 22  1  0
 22 23  2  0
 23 24  1  0
 24 28  1  0
 28 29  2  0
 29 30  1  0
 30 31  2  0
 31 32  1  0
 32 33  2  0
 33 34  1  0
 34 40  1  0
 40 41  2  0
 41 42  1  0
 42 43  2  0
 43 44  1  0
 44 45  2  0
 34 35  2  0
 35 36  1  0
 36 37  2  0
 37 38  1  0
 24 25  2  0
 25 26  1  0
 26 27  2  0
 16  2  1  0
 27 22  1  0
 10  5  1  0
 16 11  1  0
 38 29  1  0
 27 13  1  0
 37 32  1  0
 45 40  1  0
 38 39  1  0
M  CHG  1  19  -1
M  END
>  <minimizedAffinity>  (66) 
-17.65726

$$$$
Mol: 192_14 - SminaDock
     RDKit          3D

 43 50  0  0  0  0  0  0  0  0999 V2000
    5.3705   -3.3478  -18.3199 H   0  0  0  0  0  0  0  0  0  0  0  0
    6.0530   -2.9784  -17.6868 O   0  0  0  0  0  0  0  0  0  0  0  0
    5.7108   -2.0293  -16.7516 C   0  0  0  0  0  0  0  0  0  0  0  0
    6.5522   -1.0261  -16.4062 N   0  0  0  0  0  0  0  0  0  0  0  0
    5.9039   -0.2930  -15.4784 C   0  0  0  0  0  0  0  0  0  0  0  0
    6.3318    0.8502  -14.8005 C   0  0  0  0  0  0  0  0  0  0  0  0
    5.4904    1.4221  -13.8972 C   0  0  0  0  0  0  0  0  0  0  0  0
    4.2268    0.8760  -13.6549 C   0  0  0  0  0  0  0  0  0  0  0  0
    3.8007   -0.2468  -14.3177 C   0  0  0  0  0  0  0  0  0  0  0  0
    4.6569   -0.8309  -15.2386 C   0  0  0  0  0  0  0  0  0  0  0  0
    4.5768   -1.9053  -16.0477 N   0  0  0  0  0  0  0  0  0  0  0  0
    3.7385   -2.5234  -16.0893 H   0  0  0  0  0  0  0  0  0  0  0  0
    6.1656    2.5723  -13.3458 C   0  0  0  0  0  0  0  0  0  0  0  0
    5.7452    3.4893  -12.3940 C   0  0  0  0  0  0  0  0  0  0  0  0
    6.5932    4.5009  -12.0453 C   0  0  0  0  0  0  0  0  0  0  0  0
    7.8575    4.6225  -12.6248 C   0  0  0  0  0  0  0  0  0  0  0  0
    8.2782    3.7142  -13.5698 C   0  0  0  0  0  0  0  0  0  0  0  0
    7.4065    2.6907  -13.9153 C   0  0  0  0  0  0  0  0  0  0  0  0
    7.6076    1.6095  -14.8812 C   0  0  2  0  0  0  0  0  0  0  0  0
    7.7297    2.1393  -16.2872 C   0  0  0  0  0  0  0  0  0  0  0  0
    8.9507    1.6472  -16.9935 C   0  0  0  0  0  0  0  0  0  0  0  0
   10.0920    1.8848  -16.1415 N   0  0  0  0  0  0  0  0  0  0  0  0
   10.9543    1.8030  -16.7003 H   0  0  0  0  0  0  0  0  0  0  0  0
   10.0685    1.1043  -14.9385 C   0  0  0  0  0  0  0  0  0  0  0  0
    8.7165    0.6671  -14.5074 C   0  0  0  0  0  0  0  0  0  0  0  0
    8.7477    5.6626  -12.2784 N   0  0  0  0  0  0  0  0  0  0  0  0
    9.1231    5.8666  -11.0592 C   0  0  0  0  0  0  0  0  0  0  0  0
    8.6919    5.1029  -10.0382 N   0  0  0  0  0  0  0  0  0  0  0  0
    9.0882    5.3216   -8.7660 C   0  0  0  0  0  0  0  0  0  0  0  0
    9.9538    6.3453   -8.4844 C   0  0  0  0  0  0  0  0  0  0  0  0
   10.3633    6.5774   -7.1943 C   0  0  0  0  0  0  0  0  0  0  0  0
   11.2408    7.6132   -6.8975 C   0  0  0  0  0  0  0  0  0  0  0  0
   11.6962    8.4091   -7.9272 C   0  0  0  0  0  0  0  0  0  0  0  0
   11.2795    8.1679   -9.2171 C   0  0  0  0  0  0  0  0  0  0  0  0
   10.4035    7.1349   -9.5177 C   0  0  0  0  0  0  0  0  0  0  0  0
    9.9835    6.8794  -10.7578 N   0  0  0  0  0  0  0  0  0  0  0  0
   10.3311    7.4848  -11.5378 H   0  0  0  0  0  0  0  0  0  0  0  0
   11.6447    7.8174   -5.5112 C   0  0  0  0  0  0  0  0  0  0  0  0
   12.3376    8.9399   -5.1160 C   0  0  0  0  0  0  0  0  0  0  0  0
   12.7108    9.1080   -3.7833 C   0  0  0  0  0  0  0  0  0  0  0  0
   12.4080    8.1743   -2.8199 C   0  0  0  0  0  0  0  0  0  0  0  0
   11.7146    7.0519   -3.2182 C   0  0  0  0  0  0  0  0  0  0  0  0
   11.3421    6.8806   -4.5384 C   0  0  0  0  0  0  0  0  0  0  0  0
  1  2  1  0
  2  3  1  0
  3  4  2  0
  4  5  1  0
  5  6  2  0
  6  7  1  0
  7  8  2  0
  8  9  1  0
  9 10  2  0
 10 11  1  0
 11 12  1  0
  7 13  1  0
 13 14  2  0
 14 15  1  0
 15 16  2  0
 16 26  1  0
 26 27  2  0
 27 28  1  0
 28 29  2  0
 29 30  1  0
 30 31  2  0
 31 32  1  0
 32 38  1  0
 38 39  2  0
 39 40  1  0
 40 41  2  0
 41 42  1  0
 42 43  2  0
 32 33  2  0
 33 34  1  0
 34 35  2  0
 35 36  1  0
 36 37  1  0
 16 17  1  0
 17 18  2  0
 18 19  1  0
 19 20  1  6
 20 21  1  0
 21 22  1  0
 22 23  1  0
 22 24  1  0
 24 25  1  0
 11  3  1  0
 18 13  1  0
 25 19  1  0
 10  5  1  0
 36 27  1  0
 19  6  1  0
 35 30  1  0
 43 38  1  0
M  END
>  <minimizedAffinity>  (67) 
-17.70177

$$$$
Mol: 154_39 - SminaDock
     RDKit          3D

 39 45  0  0  0  0  0  0  0  0999 V2000
    1.5593   -0.2927  -14.3397 H   0  0  0  0  0  0  0  0  0  0  0  0
    2.3472   -0.9188  -14.3545 O   0  0  0  0  0  0  0  0  0  0  0  0
    3.6606   -0.5178  -14.5534 C   0  0  0  0  0  0  0  0  0  0  0  0
    4.1747    0.6127  -14.0195 N   0  0  0  0  0  0  0  0  0  0  0  0
    5.4493    0.9870  -14.2219 C   0  0  0  0  0  0  0  0  0  0  0  0
    6.0072    2.1316  -13.6941 C   0  0  0  0  0  0  0  0  0  0  0  0
    7.3212    2.4906  -13.9183 C   0  0  0  0  0  0  0  0  0  0  0  0
    8.0862    1.7081  -14.6730 N   0  0  0  0  0  0  0  0  0  0  0  0
    7.5837    0.5813  -15.2093 C   0  0  0  0  0  0  0  0  0  0  0  0
    8.3368   -0.1414  -15.9222 O   0  0  0  0  0  0  0  0  0  0  0  0
    6.2593    0.1864  -15.0029 C   0  0  0  0  0  0  0  0  0  0  0  0
    5.7904   -0.9814  -15.5755 C   0  0  0  0  0  0  0  0  0  0  0  0
    4.4577   -1.3280  -15.3359 C   0  0  0  0  0  0  0  0  0  0  0  0
    7.9000    3.6846  -13.3318 C   0  0  0  0  0  0  0  0  0  0  0  0
    9.2170    4.0666  -13.5852 C   0  0  0  0  0  0  0  0  0  0  0  0
    9.7450    5.2178  -13.0470 C   0  0  0  0  0  0  0  0  0  0  0  0
    8.9801    6.0232  -12.2412 C   0  0  0  0  0  0  0  0  0  0  0  0
    7.6888    5.6623  -11.9832 C   0  0  0  0  0  0  0  0  0  0  0  0
    7.1447    4.4874  -12.5298 C   0  0  0  0  0  0  0  0  0  0  0  0
    5.7577    4.1350  -12.1899 C   0  0  0  0  0  0  0  0  0  0  0  0
    5.1239    2.9970  -12.8838 C   0  0  0  0  0  0  0  0  0  0  0  0
    9.4532    7.2193  -11.6541 N   0  0  0  0  0  0  0  0  0  0  0  0
    9.8008    7.2230  -10.4183 C   0  0  0  0  0  0  0  0  0  0  0  0
    9.7022    6.0810   -9.7196 N   0  0  0  0  0  0  0  0  0  0  0  0
   10.0466    6.0019   -8.4195 C   0  0  0  0  0  0  0  0  0  0  0  0
   10.5172    7.1296   -7.7794 C   0  0  0  0  0  0  0  0  0  0  0  0
   10.8768    7.0763   -6.4495 C   0  0  0  0  0  0  0  0  0  0  0  0
   11.3514    8.2033   -5.7954 C   0  0  0  0  0  0  0  0  0  0  0  0
   11.4446    9.3648   -6.5312 C   0  0  0  0  0  0  0  0  0  0  0  0
   11.0855    9.4232   -7.8639 C   0  0  0  0  0  0  0  0  0  0  0  0
   10.6112    8.2935   -8.5152 C   0  0  0  0  0  0  0  0  0  0  0  0
   10.2627    8.3546   -9.8126 N   0  0  0  0  0  0  0  0  0  0  0  0
   10.3321    9.2296  -10.3701 H   0  0  0  0  0  0  0  0  0  0  0  0
   11.7226    8.1107   -4.3885 C   0  0  0  0  0  0  0  0  0  0  0  0
   11.7286    6.8831   -3.7581 C   0  0  0  0  0  0  0  0  0  0  0  0
   12.0743    6.7618   -2.4296 C   0  0  0  0  0  0  0  0  0  0  0  0
   12.4217    7.8885   -1.7139 C   0  0  0  0  0  0  0  0  0  0  0  0
   12.4228    9.1261   -2.3234 C   0  0  0  0  0  0  0  0  0  0  0  0
   12.0709    9.2259   -3.6641 C   0  0  0  0  0  0  0  0  0  0  0  0
  1  2  1  0
  2  3  1  0
  3  4  2  0
  4  5  1  0
  5  6  1  0
  6  7  2  0
  7  8  1  0
  8  9  1  0
  9 10  2  0
  9 11  1  0
 11 12  1  0
 12 13  2  0
  7 14  1  0
 14 15  2  0
 15 16  1  0
 16 17  2  0
 17 22  1  0
 22 23  2  0
 23 24  1  0
 24 25  2  0
 25 26  1  0
 26 27  2  0
 27 28  1  0
 28 34  1  0
 34 35  2  0
 35 36  1  0
 36 37  2  0
 37 38  1  0
 38 39  2  0
 28 29  2  0
 29 30  1  0
 30 31  2  0
 31 32  1  0
 32 33  1  0
 17 18  1  0
 18 19  2  0
 19 20  1  0
 20 21  1  0
 13  3  1  0
 19 14  1  0
 11  5  2  0
 32 23  1  0
 21  6  1  0
 31 26  1  0
 39 34  1  0
M  CHG  1   8  -1
M  END
>  <minimizedAffinity>  (68) 
-17.71329

$$$$
Mol: 196_9 - SminaDock
     RDKit          3D

 43 50  0  0  0  0  0  0  0  0999 V2000
    5.3266   -1.7626  -14.8280 C   0  0  0  0  0  0  0  0  0  0  0  0
    4.1488   -1.2357  -14.4472 N   0  0  0  0  0  0  0  0  0  0  0  0
    4.0686    0.0543  -14.0527 C   0  0  0  0  0  0  0  0  0  0  0  0
    5.1897    0.8533  -14.0330 C   0  0  0  0  0  0  0  0  0  0  0  0
    5.1461    2.1696  -13.6358 C   0  0  0  0  0  0  0  0  0  0  0  0
    6.3344    2.9201  -13.6430 C   0  0  0  0  0  0  0  0  0  0  0  0
    7.5380    2.4074  -14.0306 C   0  0  0  0  0  0  0  0  0  0  0  0
    7.5515    1.0876  -14.4196 C   0  0  0  0  0  0  0  0  0  0  0  0
    6.3955    0.3195  -14.4212 C   0  0  0  0  0  0  0  0  0  0  0  0
    6.4769   -1.0045  -14.8259 C   0  0  0  0  0  0  0  0  0  0  0  0
    8.7957    3.2336  -14.1501 C   0  0  2  0  0  0  0  0  0  0  0  0
    8.6893    4.4422  -13.3773 C   0  0  0  0  0  0  0  0  0  0  0  0
    9.8267    5.2033  -13.0546 C   0  0  0  0  0  0  0  0  0  0  0  0
    9.7271    6.3968  -12.3999 C   0  0  0  0  0  0  0  0  0  0  0  0
    8.5137    6.9151  -12.0214 C   0  0  0  0  0  0  0  0  0  0  0  0
    7.3964    6.2149  -12.3081 C   0  0  0  0  0  0  0  0  0  0  0  0
    7.4962    4.9827  -12.9818 C   0  0  0  0  0  0  0  0  0  0  0  0
    6.2312    4.2635  -13.0889 C   0  0  0  0  0  0  0  0  0  0  0  0
    5.1351    4.7565  -12.7336 O   0  0  0  0  0  0  0  0  0  0  0  0
    8.8171    3.6965  -15.6317 C   0  0  0  0  0  0  0  0  0  0  0  0
   10.1394    4.2300  -16.0386 C   0  0  0  0  0  0  0  0  0  0  0  0
   11.3047    3.3142  -15.7378 C   0  0  2  0  0  0  0  0  0  0  0  0
   11.9859    2.9384  -17.0406 C   0  0  0  0  0  0  0  0  0  0  0  0
   10.6482    2.0199  -15.2206 C   0  0  0  0  0  0  0  0  0  0  0  0
    9.9721    2.3696  -13.9233 C   0  0  0  0  0  0  0  0  0  0  0  0
   10.9075    7.1383  -12.0929 N   0  0  0  0  0  0  0  0  0  0  0  0
   11.2088    7.3724  -10.8479 C   0  0  0  0  0  0  0  0  0  0  0  0
   12.3389    8.0838  -10.5171 C   0  0  0  0  0  0  0  0  0  0  0  0
   12.6709    8.3395   -9.2050 C   0  0  0  0  0  0  0  0  0  0  0  0
   11.8753    7.8870   -8.1721 C   0  0  0  0  0  0  0  0  0  0  0  0
   12.1633    8.1162   -6.8422 C   0  0  0  0  0  0  0  0  0  0  0  0
   11.3386    7.6454   -5.8229 C   0  0  0  0  0  0  0  0  0  0  0  0
   10.2264    6.9428   -6.2128 C   0  0  0  0  0  0  0  0  0  0  0  0
    9.9222    6.7037   -7.5439 C   0  0  0  0  0  0  0  0  0  0  0  0
   10.7352    7.1684   -8.5351 C   0  0  0  0  0  0  0  0  0  0  0  0
   10.4457    6.9397   -9.8277 N   0  0  0  0  0  0  0  0  0  0  0  0
    9.5828    6.3983  -10.0353 H   0  0  0  0  0  0  0  0  0  0  0  0
   11.6675    7.9018   -4.4431 C   0  0  0  0  0  0  0  0  0  0  0  0
   11.8779    6.8480   -3.5662 C   0  0  0  0  0  0  0  0  0  0  0  0
   12.1932    7.0501   -2.2428 C   0  0  0  0  0  0  0  0  0  0  0  0
   12.3103    8.3215   -1.7458 C   0  0  0  0  0  0  0  0  0  0  0  0
   12.1082    9.3792   -2.5879 C   0  0  0  0  0  0  0  0  0  0  0  0
   11.7888    9.1753   -3.9283 C   0  0  0  0  0  0  0  0  0  0  0  0
  1  2  2  0
  2  3  1  0
  3  4  2  0
  4  5  1  0
  5  6  2  0
  6  7  1  0
  7  8  2  0
  8  9  1  0
  9 10  2  0
  7 11  1  0
 11 12  1  0
 12 13  2  0
 13 14  1  0
 14 26  1  0
 26 27  2  0
 27 28  1  0
 28 29  2  0
 29 30  1  0
 30 31  2  0
 31 32  1  0
 32 38  1  0
 38 39  2  0
 39 40  1  0
 40 41  2  0
 41 42  1  0
 42 43  2  0
 32 33  2  0
 33 34  1  0
 34 35  2  0
 35 36  1  0
 36 37  1  0
 14 15  2  0
 15 16  1  0
 16 17  2  0
 17 18  1  0
 18 19  2  0
 11 20  1  6
 20 21  1  0
 21 22  1  0
 22 23  1  6
 22 24  1  0
 24 25  1  0
 10  1  1  0
 25 11  1  0
  9  4  1  0
 17 12  1  0
 18  6  1  0
 36 27  1  0
 35 30  1  0
 43 38  1  0
M  END
>  <minimizedAffinity>  (69) 
-17.74501

$$$$
Mol: 168_20 - SminaDock
     RDKit          3D

 46 53  0  0  0  0  0  0  0  0999 V2000
    5.2884   -2.9778  -16.9779 H   0  0  0  0  0  0  0  0  0  0  0  0
    6.0663   -2.4855  -17.4325 N   0  0  0  0  0  0  0  0  0  0  0  0
    6.4217   -1.2747  -17.0839 C   0  0  0  0  0  0  0  0  0  0  0  0
    5.7190   -0.6780  -16.0861 O   0  0  0  0  0  0  0  0  0  0  0  0
    6.2635    0.4666  -15.4815 C   0  0  0  0  0  0  0  0  0  0  0  0
    5.5504    1.0639  -14.4597 C   0  0  0  0  0  0  0  0  0  0  0  0
    6.0532    2.1861  -13.8299 C   0  0  0  0  0  0  0  0  0  0  0  0
    7.2881    2.6679  -14.2722 C   0  0  0  0  0  0  0  0  0  0  0  0
    7.9613    2.0456  -15.2884 C   0  0  0  0  0  0  0  0  0  0  0  0
    9.0655    2.4448  -15.7039 O   0  0  0  0  0  0  0  0  0  0  0  0
    7.4427    0.9302  -15.9052 N   0  0  0  0  0  0  0  0  0  0  0  0
    8.2082    0.3581  -17.0089 C   0  0  1  0  0  0  0  0  0  0  0  0
    8.5141    1.4518  -18.0147 C   0  0  0  0  0  0  0  0  0  0  0  0
    9.9341    1.4496  -18.4878 C   0  0  0  0  0  0  0  0  0  0  0  0
   10.2920    0.1281  -18.7472 O   0  0  0  0  0  0  0  0  0  0  0  0
   10.3758   -0.6519  -17.6233 C   0  0  0  0  0  0  0  0  0  0  0  0
    9.4786   -0.2909  -16.4974 C   0  0  0  0  0  0  0  0  0  0  0  0
    7.4772   -0.6461  -17.7222 N   0  0  1  0  0  0  0  0  0  0  0  0
    8.1462   -1.4359  -18.0274 H   0  0  0  0  0  0  0  0  0  0  0  0
    7.1795   -0.2611  -18.6807 H   0  0  0  0  0  0  0  0  0  0  0  0
    7.8115    3.8655  -13.6062 C   0  0  0  0  0  0  0  0  0  0  0  0
    9.0091    4.3892  -13.9880 C   0  0  0  0  0  0  0  0  0  0  0  0
    9.5019    5.5316  -13.3522 C   0  0  0  0  0  0  0  0  0  0  0  0
    8.7588    6.1045  -12.3473 C   0  0  0  0  0  0  0  0  0  0  0  0
    7.5520    5.5709  -11.9671 C   0  0  0  0  0  0  0  0  0  0  0  0
    7.0554    4.4332  -12.5961 C   0  0  0  0  0  0  0  0  0  0  0  0
    5.7613    3.9622  -12.0998 C   0  0  0  0  0  0  0  0  0  0  0  0
    5.2347    2.7604  -12.7534 C   0  0  0  0  0  0  0  0  0  0  0  0
    9.2802    7.2668  -11.7196 N   0  0  0  0  0  0  0  0  0  0  0  0
    9.6583    7.2456  -10.4932 C   0  0  0  0  0  0  0  0  0  0  0  0
    9.5557    6.1014   -9.8028 N   0  0  0  0  0  0  0  0  0  0  0  0
    9.9119    5.9823   -8.5218 C   0  0  0  0  0  0  0  0  0  0  0  0
   10.4075    7.0972   -7.8899 C   0  0  0  0  0  0  0  0  0  0  0  0
   10.7919    7.0561   -6.5693 C   0  0  0  0  0  0  0  0  0  0  0  0
   11.2936    8.1568   -5.8875 C   0  0  0  0  0  0  0  0  0  0  0  0
   11.3970    9.3351   -6.6078 C   0  0  0  0  0  0  0  0  0  0  0  0
   11.0187    9.3992   -7.9293 C   0  0  0  0  0  0  0  0  0  0  0  0
   10.5219    8.2905   -8.5860 C   0  0  0  0  0  0  0  0  0  0  0  0
   10.1401    8.3398   -9.8898 N   0  0  0  0  0  0  0  0  0  0  0  0
   10.2408    9.2627  -10.3873 H   0  0  0  0  0  0  0  0  0  0  0  0
   11.6851    8.0843   -4.5071 C   0  0  0  0  0  0  0  0  0  0  0  0
   12.0525    9.1757   -3.7837 C   0  0  0  0  0  0  0  0  0  0  0  0
   12.4189    9.0689   -2.4694 C   0  0  0  0  0  0  0  0  0  0  0  0
   12.4234    7.8346   -1.8420 C   0  0  0  0  0  0  0  0  0  0  0  0
   12.0572    6.7126   -2.5459 C   0  0  0  0  0  0  0  0  0  0  0  0
   11.6956    6.8535   -3.8605 C   0  0  0  0  0  0  0  0  0  0  0  0
  1  2  1  0
  2  3  2  0
  3  4  1  0
  4  5  1  0
  5  6  2  0
  6  7  1  0
  7  8  2  0
  8  9  1  0
  9 10  2  0
  9 11  1  0
 11 12  1  0
 12 13  1  6
 13 14  1  0
 14 15  1  0
 15 16  1  0
 16 17  1  0
 12 18  1  0
 18 19  1  6
 18 20  1  0
  8 21  1  0
 21 22  2  0
 22 23  1  0
 23 24  2  0
 24 29  1  0
 29 30  2  0
 30 31  1  0
 31 32  2  0
 32 33  1  0
 33 34  2  0
 34 35  1  0
 35 41  1  0
 41 42  2  0
 42 43  1  0
 43 44  2  0
 44 45  1  0
 45 46  2  0
 35 36  2  0
 36 37  1  0
 37 38  2  0
 38 39  1  0
 39 40  1  0
 24 25  1  0
 25 26  2  0
 26 27  1  0
 27 28  1  0
 18  3  1  0
 26 21  1  0
 11  5  1  0
 17 12  1  0
 39 30  1  0
 28  7  1  0
 38 33  1  0
 46 41  1  0
M  CHG  1  18   1
M  END
>  <minimizedAffinity>  (70) 
-17.69643

$$$$
Mol: 163_11 - SminaDock
     RDKit          3D

 49 57  0  0  0  0  0  0  0  0999 V2000
    8.5763   -1.7220  -19.8205 H   0  0  0  0  0  0  0  0  0  0  0  0
    7.9533   -2.4996  -20.1237 N   0  0  0  0  0  0  0  0  0  0  0  0
    6.8415   -2.7052  -19.5033 C   0  0  0  0  0  0  0  0  0  0  0  0
    6.3576   -1.9847  -18.4371 C   0  0  0  0  0  0  0  0  0  0  0  0
    6.8939   -0.8812  -17.7499 C   0  0  0  0  0  0  0  0  0  0  0  0
    6.1852   -0.3465  -16.6997 C   0  0  0  0  0  0  0  0  0  0  0  0
    4.9732   -0.8854  -16.3317 C   0  0  0  0  0  0  0  0  0  0  0  0
    4.4808   -1.9615  -17.0246 C   0  0  0  0  0  0  0  0  0  0  0  0
    5.1469   -2.5347  -18.0812 C   0  0  0  0  0  0  0  0  0  0  0  0
    4.9218   -3.5324  -18.8948 O   0  0  0  0  0  0  0  0  0  0  0  0
    5.9113   -3.6501  -19.7432 N   0  0  0  0  0  0  0  0  0  0  0  0
    6.0095   -4.3527  -20.5064 H   0  0  0  0  0  0  0  0  0  0  0  0
    4.2998   -0.3184  -15.2744 C   0  0  0  0  0  0  0  0  0  0  0  0
    3.1836   -0.8482  -14.9685 O   0  0  0  0  0  0  0  0  0  0  0  0
    4.7997    0.7029  -14.6395 O   0  0  0  0  0  0  0  0  0  0  0  0
    5.9548    1.2456  -14.9615 C   0  0  0  0  0  0  0  0  0  0  0  0
    6.4301    2.3397  -14.2363 C   0  0  0  0  0  0  0  0  0  0  0  0
    7.6480    2.8943  -14.5928 C   0  0  0  0  0  0  0  0  0  0  0  0
    8.3793    2.3834  -15.6383 C   0  0  0  0  0  0  0  0  0  0  0  0
    9.4736    2.8199  -16.0196 O   0  0  0  0  0  0  0  0  0  0  0  0
    7.8910    1.3175  -16.3262 N   0  0  0  0  0  0  0  0  0  0  0  0
    8.4471    0.9434  -17.1074 H   0  0  0  0  0  0  0  0  0  0  0  0
    6.7136    0.7544  -16.0077 C   0  0  0  0  0  0  0  0  0  0  0  0
    8.1212    4.0369  -13.8091 C   0  0  0  0  0  0  0  0  0  0  0  0
    9.3150    4.6213  -14.1198 C   0  0  0  0  0  0  0  0  0  0  0  0
    9.7305    5.7142  -13.3431 C   0  0  0  0  0  0  0  0  0  0  0  0
    8.9960    6.2099  -12.3012 C   0  0  0  0  0  0  0  0  0  0  0  0
    7.8054    5.5846  -12.0336 C   0  0  0  0  0  0  0  0  0  0  0  0
    7.3403    4.5125  -12.7525 C   0  0  0  0  0  0  0  0  0  0  0  0
    6.0554    3.9429  -12.3554 C   0  0  0  0  0  0  0  0  0  0  0  0
    5.5690    2.8011  -13.1474 C   0  0  0  0  0  0  0  0  0  0  0  0
    9.4633    7.3339  -11.5287 N   0  0  0  0  0  0  0  0  0  0  0  0
    9.7952    7.2443  -10.3061 C   0  0  0  0  0  0  0  0  0  0  0  0
    9.7286    6.0581   -9.6371 N   0  0  0  0  0  0  0  0  0  0  0  0
   10.0780    5.9365   -8.3451 C   0  0  0  0  0  0  0  0  0  0  0  0
   10.5156    7.0706   -7.7012 C   0  0  0  0  0  0  0  0  0  0  0  0
   10.8967    7.0486   -6.3831 C   0  0  0  0  0  0  0  0  0  0  0  0
   11.3436    8.1813   -5.7127 C   0  0  0  0  0  0  0  0  0  0  0  0
   11.3981    9.3731   -6.4265 C   0  0  0  0  0  0  0  0  0  0  0  0
   11.0146    9.3814   -7.7429 C   0  0  0  0  0  0  0  0  0  0  0  0
   10.5792    8.2669   -8.3882 C   0  0  0  0  0  0  0  0  0  0  0  0
   10.2210    8.3484   -9.6796 N   0  0  0  0  0  0  0  0  0  0  0  0
   10.2831    9.2616  -10.1568 H   0  0  0  0  0  0  0  0  0  0  0  0
   11.7488    8.1268   -4.3051 C   0  0  0  0  0  0  0  0  0  0  0  0
   12.0910    9.2500   -3.5833 C   0  0  0  0  0  0  0  0  0  0  0  0
   12.4608    9.0892   -2.2613 C   0  0  0  0  0  0  0  0  0  0  0  0
   12.5020    7.8611   -1.6374 C   0  0  0  0  0  0  0  0  0  0  0  0
   12.1539    6.7652   -2.3910 C   0  0  0  0  0  0  0  0  0  0  0  0
   11.7777    6.8807   -3.7164 C   0  0  0  0  0  0  0  0  0  0  0  0
  1  2  1  0
  2  3  2  0
  3  4  1  0
  4  5  2  0
  5  6  1  0
  6  7  2  0
  7  8  1  0
  8  9  2  0
  9 10  1  0
 10 11  1  0
 11 12  1  0
  7 13  1  0
 13 14  2  0
 13 15  1  0
 15 16  1  0
 16 17  1  0
 17 18  2  0
 18 19  1  0
 19 20  2  0
 19 21  1  0
 21 22  1  0
 21 23  1  0
 18 24  1  0
 24 25  2  0
 25 26  1  0
 26 27  2  0
 27 32  1  0
 32 33  2  0
 33 34  1  0
 34 35  2  0
 35 36  1  0
 36 37  2  0
 37 38  1  0
 38 44  1  0
 44 45  2  0
 45 46  1  0
 46 47  2  0
 47 48  1  0
 48 49  2  0
 38 39  2  0
 39 40  1  0
 40 41  2  0
 41 42  1  0
 42 43  1  0
 27 28  1  0
 28 29  2  0
 29 30  1  0
 30 31  1  0
 11  3  1  0
 23 16  2  0
 29 24  1  0
  9  4  1  0
 31 17  1  0
 23  6  1  0
 42 33  1  0
 41 36  1  0
 49 44  1  0
M  END
>  <minimizedAffinity>  (71) 
-17.65530

$$$$
Mol: 194_9 - SminaDock
     RDKit          3D

 43 50  0  0  0  0  0  0  0  0999 V2000
    3.9575   -3.3251  -17.4627 H   0  0  0  0  0  0  0  0  0  0  0  0
    4.8938   -2.9553  -17.7232 N   0  0  0  0  0  0  0  0  0  0  0  0
    5.3282   -1.9269  -17.0386 C   0  0  0  0  0  0  0  0  0  0  0  0
    4.6000   -1.3816  -16.0531 N   0  0  0  0  0  0  0  0  0  0  0  0
    4.9982   -0.3238  -15.3172 C   0  0  0  0  0  0  0  0  0  0  0  0
    4.1945    0.1993  -14.3189 C   0  0  0  0  0  0  0  0  0  0  0  0
    4.6429    1.2679  -13.6209 C   0  0  0  0  0  0  0  0  0  0  0  0
    5.8916    1.8117  -13.9194 C   0  0  0  0  0  0  0  0  0  0  0  0
    6.7285    1.3318  -14.8956 C   0  0  0  0  0  0  0  0  0  0  0  0
    6.2378    0.2269  -15.6036 C   0  0  0  0  0  0  0  0  0  0  0  0
    6.9943   -0.3167  -16.6069 C   0  0  0  0  0  0  0  0  0  0  0  0
    6.5235   -1.3835  -17.3043 N   0  0  0  0  0  0  0  0  0  0  0  0
    7.1473   -1.7495  -18.0536 H   0  0  0  0  0  0  0  0  0  0  0  0
    7.9371    2.0697  -14.9417 C   0  0  1  0  0  0  0  0  0  0  0  0
    7.7420    3.1780  -13.9405 C   0  0  0  0  0  0  0  0  0  0  0  0
    8.5162    4.2511  -13.5535 C   0  0  0  0  0  0  0  0  0  0  0  0
    8.1046    5.1231  -12.5584 C   0  0  0  0  0  0  0  0  0  0  0  0
    6.8963    4.9369  -11.9231 C   0  0  0  0  0  0  0  0  0  0  0  0
    6.1415    3.8586  -12.3281 C   0  0  0  0  0  0  0  0  0  0  0  0
    6.5506    2.9738  -13.3332 C   0  0  0  0  0  0  0  0  0  0  0  0
    9.0322    1.2417  -14.3011 C   0  0  0  0  0  0  0  0  0  0  0  0
   10.0854    0.6827  -15.1622 C   0  0  0  0  0  0  0  0  0  0  0  0
   10.3651    1.2885  -16.3453 O   0  0  0  0  0  0  0  0  0  0  0  0
    9.9250    2.6053  -16.4192 C   0  0  0  0  0  0  0  0  0  0  0  0
    8.4422    2.6949  -16.1594 C   0  0  0  0  0  0  0  0  0  0  0  0
    8.9607    6.1956  -12.2262 N   0  0  0  0  0  0  0  0  0  0  0  0
    9.3304    6.3342  -10.9998 C   0  0  0  0  0  0  0  0  0  0  0  0
   10.1564    7.3535  -10.6276 N   0  0  0  0  0  0  0  0  0  0  0  0
   10.5009    7.4379   -9.3340 C   0  0  0  0  0  0  0  0  0  0  0  0
   11.3457    8.4701   -8.9184 C   0  0  0  0  0  0  0  0  0  0  0  0
   11.7179    8.5836   -7.5957 C   0  0  0  0  0  0  0  0  0  0  0  0
   11.2816    7.6985   -6.6335 C   0  0  0  0  0  0  0  0  0  0  0  0
   10.4471    6.6756   -7.0332 C   0  0  0  0  0  0  0  0  0  0  0  0
   10.0738    6.5625   -8.3630 C   0  0  0  0  0  0  0  0  0  0  0  0
    9.2372    5.5371   -8.7631 C   0  0  0  0  0  0  0  0  0  0  0  0
    8.9052    5.4715  -10.0613 N   0  0  0  0  0  0  0  0  0  0  0  0
    8.2616    4.6748  -10.3435 H   0  0  0  0  0  0  0  0  0  0  0  0
   11.6960    7.8492   -5.2395 C   0  0  0  0  0  0  0  0  0  0  0  0
   12.4151    8.9302   -4.7763 C   0  0  0  0  0  0  0  0  0  0  0  0
   12.7864    9.0253   -3.4323 C   0  0  0  0  0  0  0  0  0  0  0  0
   12.4341    8.0279   -2.5434 C   0  0  0  0  0  0  0  0  0  0  0  0
   11.7166    6.9421   -2.9889 C   0  0  0  0  0  0  0  0  0  0  0  0
   11.3597    6.8661   -4.3174 C   0  0  0  0  0  0  0  0  0  0  0  0
  1  2  1  0
  2  3  2  0
  3  4  1  0
  4  5  2  0
  5  6  1  0
  6  7  2  0
  7  8  1  0
  8  9  2  0
  9 10  1  0
 10 11  2  0
 11 12  1  0
 12 13  1  0
  9 14  1  0
 14 15  1  0
 15 16  2  0
 16 17  1  0
 17 26  1  0
 26 27  2  0
 27 28  1  0
 28 29  2  0
 29 30  1  0
 30 31  2  0
 31 32  1  0
 32 38  1  0
 38 39  2  0
 39 40  1  0
 40 41  2  0
 41 42  1  0
 42 43  2  0
 32 33  2  0
 33 34  1  0
 34 35  2  0
 35 36  1  0
 36 37  1  0
 17 18  2  0
 18 19  1  0
 19 20  2  0
 14 21  1  1
 21 22  1  0
 22 23  1  0
 23 24  1  0
 24 25  1  0
 12  3  1  0
 25 14  1  0
 10  5  1  0
 20 15  1  0
 20  8  1  0
 36 27  1  0
 34 29  1  0
 43 38  1  0
M  END
>  <minimizedAffinity>  (72) 
-17.68710

$$$$
Mol: 99_25 - SminaDock
     RDKit          3D

 43 50  0  0  0  0  0  0  0  0999 V2000
    8.5411    5.2395  -13.4570 N   0  0  0  0  0  0  0  0  0  0  0  0
    9.0462    5.7429  -12.4135 C   0  0  0  0  0  0  0  0  0  0  0  0
    9.9291    6.7943  -12.5071 C   0  0  0  0  0  0  0  0  0  0  0  0
   10.5041    7.3709  -11.3776 C   0  0  0  0  0  0  0  0  0  0  0  0
   10.1814    6.8773  -10.1375 C   0  0  0  0  0  0  0  0  0  0  0  0
   10.7319    7.4201   -8.9704 C   0  0  0  0  0  0  0  0  0  0  0  0
   10.4095    6.9251   -7.7302 C   0  0  0  0  0  0  0  0  0  0  0  0
    9.5224    5.8720   -7.6721 C   0  0  0  0  0  0  0  0  0  0  0  0
    8.9735    5.3291   -8.8166 C   0  0  0  0  0  0  0  0  0  0  0  0
    9.2950    5.8243  -10.0709 C   0  0  0  0  0  0  0  0  0  0  0  0
    8.7512    5.2835  -11.1872 N   0  0  0  0  0  0  0  0  0  0  0  0
    8.0858    4.4897  -11.0969 H   0  0  0  0  0  0  0  0  0  0  0  0
    9.5872    1.0630  -19.4901 C   0  0  0  0  0  0  0  0  0  0  0  0
    8.8807    0.0590  -20.1360 C   0  0  0  0  0  0  0  0  0  0  0  0
    7.9181   -0.6041  -19.4471 C   0  0  0  0  0  0  0  0  0  0  0  0
    7.6076   -0.3177  -18.1111 C   0  0  0  0  0  0  0  0  0  0  0  0
    8.3083    0.6812  -17.4642 C   0  0  0  0  0  0  0  0  0  0  0  0
    9.2934    1.3535  -18.1826 C   0  0  0  0  0  0  0  0  0  0  0  0
    8.2030    1.1788  -16.0968 C   0  0  0  0  0  0  0  0  0  0  0  0
    9.1858    1.6842  -15.5663 O   0  0  0  0  0  0  0  0  0  0  0  0
    6.9828    1.1023  -15.3149 C   0  0  0  0  0  0  0  0  0  0  0  0
    6.0364    0.0464  -15.3629 C   0  0  0  0  0  0  0  0  0  0  0  0
    4.9811    0.0551  -14.4767 C   0  0  0  0  0  0  0  0  0  0  0  0
    4.8602    1.0814  -13.5656 C   0  0  0  0  0  0  0  0  0  0  0  0
    5.7833    2.1048  -13.5304 C   0  0  0  0  0  0  0  0  0  0  0  0
    5.6655    3.1439  -12.6383 C   0  0  0  0  0  0  0  0  0  0  0  0
    6.5784    4.1658  -12.6249 C   0  0  0  0  0  0  0  0  0  0  0  0
    7.6323    4.1710  -13.5082 C   0  0  0  0  0  0  0  0  0  0  0  0
    7.7835    3.1422  -14.4195 C   0  0  0  0  0  0  0  0  0  0  0  0
    6.8766    2.1288  -14.4240 C   0  0  0  0  0  0  0  0  0  0  0  0
    6.0363   -1.0558  -16.2900 C   0  0  0  0  0  0  0  0  0  0  0  0
    5.4839   -2.1048  -15.8106 O   0  0  0  0  0  0  0  0  0  0  0  0
    6.5309   -1.2125  -17.6462 C   0  0  0  0  0  0  0  0  0  0  0  0
   11.0093    7.5250   -6.5545 C   0  0  0  0  0  0  0  0  0  0  0  0
   11.5558    8.7930   -6.6144 C   0  0  0  0  0  0  0  0  0  0  0  0
   12.1236    9.3525   -5.4920 C   0  0  0  0  0  0  0  0  0  0  0  0
   12.1777    8.6907   -4.2671 C   0  0  0  0  0  0  0  0  0  0  0  0
   12.7547    9.2816   -3.1625 C   0  0  0  0  0  0  0  0  0  0  0  0
   12.7822    8.5805   -1.9706 C   0  0  0  0  0  0  0  0  0  0  0  0
   12.2294    7.3211   -1.9461 C   0  0  0  0  0  0  0  0  0  0  0  0
   11.6533    6.7281   -3.0444 C   0  0  0  0  0  0  0  0  0  0  0  0
   11.6233    7.4211   -4.2319 C   0  0  0  0  0  0  0  0  0  0  0  0
   11.0548    6.8502   -5.3391 C   0  0  0  0  0  0  0  0  0  0  0  0
 13 14  2  0
 14 15  1  0
 15 16  2  0
 16 17  1  0
 17 18  2  0
 17 19  1  0
 19 20  2  0
 19 21  1  0
 21 22  2  0
 22 23  1  0
 23 24  2  0
 24 25  1  0
 25 26  2  0
 26 27  1  0
 27 28  2  0
 28  1  1  0
  1  2  2  0
  2  3  1  0
  3  4  2  0
  4  5  1  0
  5  6  2  0
  6  7  1  0
  7 34  1  0
 34 35  2  0
 35 36  1  0
 36 37  2  0
 37 38  1  0
 38 39  2  0
 39 40  1  0
 40 41  2  0
 41 42  1  0
 42 43  2  0
  7  8  2  0
  8  9  1  0
  9 10  2  0
 10 11  1  0
 11 12  1  0
 28 29  1  0
 29 30  2  0
 22 31  1  0
 31 32  2  0
 31 33  1  0
 18 13  1  0
 30 21  1  0
 33 16  1  0
 30 25  1  0
 11  2  1  0
 10  5  1  0
 43 34  1  0
 42 37  1  0
M  END
>  <minimizedAffinity>  (73) 
-17.69587

$$$$
Mol: 190_60 - SminaDock
     RDKit          3D

 39 45  0  0  0  0  0  0  0  0999 V2000
    7.0776   -1.3542  -14.6750 H   0  0  0  0  0  0  0  0  0  0  0  0
    6.3006   -1.6108  -15.2299 O   0  0  0  0  0  0  0  0  0  0  0  0
    5.8300   -0.4944  -15.8994 C   0  0  1  0  0  0  0  0  0  0  0  0
    6.8099   -0.0900  -16.9823 C   0  0  0  0  0  0  0  0  0  0  0  0
    4.4978   -0.7672  -16.4626 C   0  0  0  0  0  0  0  0  0  0  0  0
    4.3529   -0.9625  -17.6907 O   0  0  0  0  0  0  0  0  0  0  0  0
    3.4077   -0.8057  -15.6201 O   0  0  0  0  0  0  0  0  0  0  0  0
    3.4500   -0.3626  -14.2746 C   0  0  0  0  0  0  0  0  0  0  0  0
    4.5344    0.6411  -14.1266 C   0  0  0  0  0  0  0  0  0  0  0  0
    4.4098    1.6530  -13.2024 C   0  0  0  0  0  0  0  0  0  0  0  0
    5.4227    2.6041  -13.0527 C   0  0  0  0  0  0  0  0  0  0  0  0
    6.5515    2.5181  -13.8431 C   0  0  0  0  0  0  0  0  0  0  0  0
    6.6883    1.5086  -14.7732 C   0  0  0  0  0  0  0  0  0  0  0  0
    5.6869    0.6000  -14.8947 C   0  0  0  0  0  0  0  0  0  0  0  0
    7.4070    3.6352  -13.4545 C   0  0  0  0  0  0  0  0  0  0  0  0
    8.6501    4.0015  -13.9394 C   0  0  0  0  0  0  0  0  0  0  0  0
    9.2760    5.1172  -13.4056 C   0  0  0  0  0  0  0  0  0  0  0  0
    8.6515    5.8370  -12.4069 C   0  0  0  0  0  0  0  0  0  0  0  0
    7.4131    5.4925  -11.9064 C   0  0  0  0  0  0  0  0  0  0  0  0
    6.8052    4.3676  -12.4596 C   0  0  0  0  0  0  0  0  0  0  0  0
    5.5054    3.7667  -12.1343 C   0  0  0  0  0  0  0  0  0  0  0  0
    9.3217    6.9755  -11.8817 N   0  0  0  0  0  0  0  0  0  0  0  0
    9.6359    6.9438  -10.6182 C   0  0  0  0  0  0  0  0  0  0  0  0
   10.2756    7.9877  -10.0398 N   0  0  0  0  0  0  0  0  0  0  0  0
   10.6297    8.0253   -8.7479 C   0  0  0  0  0  0  0  0  0  0  0  0
   11.2796    9.0900   -8.1672 C   0  0  0  0  0  0  0  0  0  0  0  0
   11.6356    9.1081   -6.8323 C   0  0  0  0  0  0  0  0  0  0  0  0
   11.3447    8.0339   -6.0166 C   0  0  0  0  0  0  0  0  0  0  0  0
   10.6932    6.9670   -6.5994 C   0  0  0  0  0  0  0  0  0  0  0  0
   10.3378    6.9501   -7.9349 C   0  0  0  0  0  0  0  0  0  0  0  0
    9.6856    5.8859   -8.5244 C   0  0  0  0  0  0  0  0  0  0  0  0
    9.3469    5.8906   -9.8330 N   0  0  0  0  0  0  0  0  0  0  0  0
    8.8519    5.0771  -10.2700 H   0  0  0  0  0  0  0  0  0  0  0  0
   11.7045    8.0153   -4.5981 C   0  0  0  0  0  0  0  0  0  0  0  0
   12.0865    9.1767   -3.9689 C   0  0  0  0  0  0  0  0  0  0  0  0
   12.4306    9.1803   -2.6262 C   0  0  0  0  0  0  0  0  0  0  0  0
   12.3936    8.0084   -1.8995 C   0  0  0  0  0  0  0  0  0  0  0  0
   12.0127    6.8219   -2.5058 C   0  0  0  0  0  0  0  0  0  0  0  0
   11.6814    6.8657   -3.8334 C   0  0  0  0  0  0  0  0  0  0  0  0
  1  2  1  0
  3  2  1  0
  3  4  1  6
  3  5  1  0
  5  6  2  0
  5  7  1  0
  7  8  1  0
  8  9  1  0
  9 10  2  0
 10 11  1  0
 11 12  2  0
 12 13  1  0
 13 14  2  0
 12 15  1  0
 15 16  2  0
 16 17  1  0
 17 18  2  0
 18 22  1  0
 22 23  2  0
 23 24  1  0
 24 25  2  0
 25 26  1  0
 26 27  2  0
 27 28  1  0
 28 34  1  0
 34 35  2  0
 35 36  1  0
 36 37  2  0
 37 38  1  0
 38 39  2  0
 28 29  2  0
 29 30  1  0
 30 31  2  0
 31 32  1  0
 32 33  1  0
 18 19  1  0
 19 20  2  0
 20 21  1  0
 14  3  1  0
 20 15  1  0
 14  9  1  0
 32 23  1  0
 21 11  1  0
 30 25  1  0
 39 34  1  0
M  END
>  <minimizedAffinity>  (74) 
-17.68084

$$$$
Mol: 108_37 - SminaDock
     RDKit          3D

 38 44  0  0  0  0  0  0  0  0999 V2000
    8.8089    6.2512  -12.2126 C   0  0  0  0  0  0  0  0  0  0  0  0
    7.5246    6.7330  -12.1189 C   0  0  0  0  0  0  0  0  0  0  0  0
    6.4430    5.9514  -12.5153 C   0  0  0  0  0  0  0  0  0  0  0  0
    6.6338    4.6805  -13.0092 C   0  0  0  0  0  0  0  0  0  0  0  0
    7.9495    4.2079  -13.0970 C   0  0  0  0  0  0  0  0  0  0  0  0
    9.0316    4.9626  -12.7112 C   0  0  0  0  0  0  0  0  0  0  0  0
    8.3736    2.9038  -13.5917 C   0  0  0  0  0  0  0  0  0  0  0  0
    9.5971    2.6324  -13.6288 O   0  0  0  0  0  0  0  0  0  0  0  0
    7.4809    1.8305  -14.0721 C   0  0  0  0  0  0  0  0  0  0  0  0
    8.0920    0.9473  -14.9099 C   0  0  0  0  0  0  0  0  0  0  0  0
    7.3549   -0.0828  -15.4459 C   0  0  0  0  0  0  0  0  0  0  0  0
    6.0181   -0.2400  -15.1559 C   0  0  0  0  0  0  0  0  0  0  0  0
    5.2868   -1.2774  -15.7127 C   0  0  0  0  0  0  0  0  0  0  0  0
    3.9471   -1.4265  -15.4296 C   0  0  0  0  0  0  0  0  0  0  0  0
    3.3289   -0.5366  -14.5864 C   0  0  0  0  0  0  0  0  0  0  0  0
    4.0335    0.5060  -14.0175 C   0  0  0  0  0  0  0  0  0  0  0  0
    5.3716    0.6361  -14.3124 C   0  0  0  0  0  0  0  0  0  0  0  0
    6.1177    1.6837  -13.7638 C   0  0  0  0  0  0  0  0  0  0  0  0
    5.3907    2.5640  -12.8517 C   0  0  0  0  0  0  0  0  0  0  0  0
    5.3586    3.9855  -13.3809 C   0  0  0  0  0  0  0  0  0  0  0  0
   11.1246    7.5843   -5.7299 C   0  0  0  0  0  0  0  0  0  0  0  0
    9.9742    6.8379   -5.8872 C   0  0  0  0  0  0  0  0  0  0  0  0
    9.4889    6.5560   -7.1588 C   0  0  0  0  0  0  0  0  0  0  0  0
   10.1382    7.0107   -8.2814 C   0  0  0  0  0  0  0  0  0  0  0  0
   11.2882    7.7573   -8.1324 C   0  0  0  0  0  0  0  0  0  0  0  0
   11.7479    8.0226   -6.8730 C   0  0  0  0  0  0  0  0  0  0  0  0
   11.9921    8.2467   -9.2264 C   0  0  0  0  0  0  0  0  0  0  0  0
   11.4883    7.9520  -10.4646 C   0  0  0  0  0  0  0  0  0  0  0  0
   10.3336    7.2030  -10.6347 C   0  0  0  0  0  0  0  0  0  0  0  0
    9.9475    6.9838  -11.8314 N   0  0  0  0  0  0  0  0  0  0  0  0
    9.7080    6.7645   -9.5369 N   0  0  0  0  0  0  0  0  0  0  0  0
    8.8452    6.2051   -9.6725 H   0  0  0  0  0  0  0  0  0  0  0  0
   12.5925    8.4289   -1.8202 C   0  0  0  0  0  0  0  0  0  0  0  0
   12.4205    7.1204   -2.2382 C   0  0  0  0  0  0  0  0  0  0  0  0
   11.9444    6.8661   -3.5071 C   0  0  0  0  0  0  0  0  0  0  0  0
   11.6270    7.8756   -4.3917 C   0  0  0  0  0  0  0  0  0  0  0  0
   11.7989    9.1712   -3.9734 C   0  0  0  0  0  0  0  0  0  0  0  0
   12.2785    9.4548   -2.6964 C   0  0  0  0  0  0  0  0  0  0  0  0
 33 34  2  0
 34 35  1  0
 35 36  2  0
 36 21  1  0
 21 22  2  0
 22 23  1  0
 23 24  2  0
 24 25  1  0
 25 26  2  0
 25 27  1  0
 27 28  2  0
 28 29  1  0
 29 30  2  0
 30  1  1  0
  1  2  2  0
  2  3  1  0
  3  4  2  0
  4  5  1  0
  5  6  2  0
  5  7  1  0
  7  8  2  0
  7  9  1  0
  9 10  2  0
 10 11  1  0
 11 12  2  0
 12 13  1  0
 13 14  2  0
 14 15  1  0
 15 16  2  0
 16 17  1  0
 17 18  2  0
 18 19  1  0
 19 20  1  0
 29 31  1  0
 31 32  1  0
 36 37  1  0
 37 38  2  0
 38 33  1  0
 26 21  1  0
  6  1  1  0
 18  9  1  0
 31 24  1  0
 20  4  1  0
 17 12  1  0
M  END
>  <minimizedAffinity>  (75) 
-17.69935

$$$$
Mol: 110_12 - SminaDock
     RDKit          3D

 41 47  0  0  0  0  0  0  0  0999 V2000
    7.8922    4.9556  -12.6997 C   0  0  0  0  0  0  0  0  0  0  0  0
    6.6489    4.7674  -12.1669 C   0  0  0  0  0  0  0  0  0  0  0  0
    5.9314    3.6485  -12.5091 C   0  0  0  0  0  0  0  0  0  0  0  0
    6.4245    2.7033  -13.3758 C   0  0  0  0  0  0  0  0  0  0  0  0
    7.7087    2.9223  -13.9073 C   0  0  0  0  0  0  0  0  0  0  0  0
    8.4472    4.0192  -13.5928 C   0  0  0  0  0  0  0  0  0  0  0  0
    8.3378    1.9997  -14.8233 C   0  0  1  0  0  0  0  0  0  0  0  0
    9.7719    2.0486  -15.0781 C   0  0  0  0  0  0  0  0  0  0  0  0
   10.6236    2.7061  -14.4802 O   0  0  0  0  0  0  0  0  0  0  0  0
   10.1774    1.1809  -16.1919 N   0  0  0  0  0  0  0  0  0  0  0  0
    9.5074   -0.0796  -16.3660 C   0  0  0  0  0  0  0  0  0  0  0  0
    9.8031   -0.8585  -17.2846 O   0  0  0  0  0  0  0  0  0  0  0  0
    8.4804   -0.3829  -15.4184 N   0  0  0  0  0  0  0  0  0  0  0  0
    8.1583    0.5370  -14.3655 C   0  0  0  0  0  0  0  0  0  0  0  0
    7.7888    0.2341  -13.2387 O   0  0  0  0  0  0  0  0  0  0  0  0
    7.5084    2.0463  -16.1081 C   0  0  0  0  0  0  0  0  0  0  0  0
    6.3860    1.0858  -15.9705 C   0  0  0  0  0  0  0  0  0  0  0  0
    6.2238    0.2652  -17.0672 C   0  0  0  0  0  0  0  0  0  0  0  0
    5.2228   -0.7044  -17.1167 C   0  0  0  0  0  0  0  0  0  0  0  0
    4.3724   -0.8440  -16.0366 C   0  0  0  0  0  0  0  0  0  0  0  0
    4.5488   -0.0178  -14.9533 C   0  0  0  0  0  0  0  0  0  0  0  0
    5.5298    0.9495  -14.8773 C   0  0  0  0  0  0  0  0  0  0  0  0
    5.4170    1.6478  -13.5900 C   0  0  0  0  0  0  0  0  0  0  0  0
   11.1317    7.6831   -6.8795 C   0  0  0  0  0  0  0  0  0  0  0  0
   11.5086    8.6309   -7.8219 C   0  0  0  0  0  0  0  0  0  0  0  0
   11.0788    8.4756   -9.1244 C   0  0  0  0  0  0  0  0  0  0  0  0
   10.2857    7.4025   -9.5081 C   0  0  0  0  0  0  0  0  0  0  0  0
    9.8726    7.2664  -10.7943 N   0  0  0  0  0  0  0  0  0  0  0  0
    9.1042    6.2259  -11.1641 C   0  0  0  0  0  0  0  0  0  0  0  0
    8.7031    6.0882  -12.3987 N   0  0  0  0  0  0  0  0  0  0  0  0
    8.7686    5.3380  -10.2115 N   0  0  0  0  0  0  0  0  0  0  0  0
    8.1703    4.5259  -10.4943 H   0  0  0  0  0  0  0  0  0  0  0  0
    9.1474    5.4234   -8.9312 C   0  0  0  0  0  0  0  0  0  0  0  0
    9.9411    6.4923   -8.5339 C   0  0  0  0  0  0  0  0  0  0  0  0
   10.3498    6.6116   -7.2224 C   0  0  0  0  0  0  0  0  0  0  0  0
   12.4260    8.1058   -2.8257 C   0  0  0  0  0  0  0  0  0  0  0  0
   11.8333    6.9340   -3.2448 C   0  0  0  0  0  0  0  0  0  0  0  0
   11.4276    6.8309   -4.5583 C   0  0  0  0  0  0  0  0  0  0  0  0
   11.5763    7.8229   -5.4785 C   0  0  0  0  0  0  0  0  0  0  0  0
   12.1752    9.0056   -5.0535 C   0  0  0  0  0  0  0  0  0  0  0  0
   12.5854    9.1225   -3.7433 C   0  0  0  0  0  0  0  0  0  0  0  0
 36 37  2  0
 37 38  1  0
 38 39  2  0
 39 24  1  0
 24 25  1  0
 25 26  2  0
 26 27  1  0
 27 28  2  0
 28 29  1  0
 29 30  2  0
 30  1  1  0
  1  2  2  0
  2  3  1  0
  3  4  2  0
  4  5  1  0
  5  6  2  0
  5  7  1  0
  7  8  1  0
  8  9  2  0
  8 10  1  0
 10 11  1  0
 11 12  2  0
 11 13  1  0
 13 14  1  0
 14 15  2  0
  7 16  1  6
 16 17  1  0
 17 18  2  0
 18 19  1  0
 19 20  2  0
 20 21  1  0
 21 22  2  0
 22 23  1  0
 29 31  1  0
 31 32  1  0
 31 33  1  0
 33 34  2  0
 34 35  1  0
 39 40  1  0
 40 41  2  0
 41 36  1  0
 35 24  2  0
 34 27  1  0
  6  1  1  0
 14  7  1  0
 22 17  1  0
 23  4  1  0
M  CHG  2  10  -1  13  -1
M  END
>  <minimizedAffinity>  (76) 
-17.74567

$$$$
Mol: 195_27 - SminaDock
     RDKit          3D

 37 43  0  0  0  0  0  0  0  0999 V2000
    8.8550    5.8521  -12.2328 C   0  0  0  0  0  0  0  0  0  0  0  0
    9.6385    5.0890  -13.0812 C   0  0  0  0  0  0  0  0  0  0  0  0
    9.1229    3.9522  -13.6590 C   0  0  0  0  0  0  0  0  0  0  0  0
    7.8025    3.5807  -13.3782 C   0  0  0  0  0  0  0  0  0  0  0  0
    7.0431    4.3463  -12.5381 C   0  0  0  0  0  0  0  0  0  0  0  0
    7.5606    5.5114  -11.9414 C   0  0  0  0  0  0  0  0  0  0  0  0
    5.6571    3.9965  -12.2273 C   0  0  0  0  0  0  0  0  0  0  0  0
    5.0958    2.7626  -12.7964 C   0  0  0  0  0  0  0  0  0  0  0  0
    5.9543    1.9889  -13.7036 C   0  0  0  0  0  0  0  0  0  0  0  0
    7.2446    2.3703  -13.9779 C   0  0  0  0  0  0  0  0  0  0  0  0
    7.9567    1.6024  -14.8101 N   0  0  0  0  0  0  0  0  0  0  0  0
    7.4558    0.4912  -15.3744 C   0  0  0  0  0  0  0  0  0  0  0  0
    8.1348   -0.2353  -16.1640 O   0  0  0  0  0  0  0  0  0  0  0  0
    6.1542    0.0747  -15.1202 C   0  0  0  0  0  0  0  0  0  0  0  0
    5.6448   -1.0668  -15.7021 C   0  0  0  0  0  0  0  0  0  0  0  0
    4.3499   -1.4253  -15.4103 C   0  0  0  0  0  0  0  0  0  0  0  0
    3.5553   -0.6835  -14.5613 C   0  0  0  0  0  0  0  0  0  0  0  0
    4.1055    0.4555  -13.9982 C   0  0  0  0  0  0  0  0  0  0  0  0
    5.3947    0.8457  -14.2658 C   0  0  0  0  0  0  0  0  0  0  0  0
   11.3142    8.1041   -5.7986 C   0  0  0  0  0  0  0  0  0  0  0  0
   11.4119    9.2716   -6.5622 C   0  0  0  0  0  0  0  0  0  0  0  0
   11.0324    9.2800   -7.8907 C   0  0  0  0  0  0  0  0  0  0  0  0
   10.5482    8.1310   -8.4899 C   0  0  0  0  0  0  0  0  0  0  0  0
   10.4558    6.9856   -7.7289 C   0  0  0  0  0  0  0  0  0  0  0  0
   10.8377    6.9792   -6.3941 C   0  0  0  0  0  0  0  0  0  0  0  0
    9.9691    5.8367   -8.3376 C   0  0  0  0  0  0  0  0  0  0  0  0
    9.5871    5.8317   -9.6626 C   0  0  0  0  0  0  0  0  0  0  0  0
    9.6952    6.9972  -10.3878 C   0  0  0  0  0  0  0  0  0  0  0  0
    9.3535    7.0361  -11.6150 N   0  0  0  0  0  0  0  0  0  0  0  0
   10.1760    8.1197   -9.7749 N   0  0  0  0  0  0  0  0  0  0  0  0
   10.2673    9.0249  -10.3121 H   0  0  0  0  0  0  0  0  0  0  0  0
   12.4589    8.0516   -1.7541 C   0  0  0  0  0  0  0  0  0  0  0  0
   12.4279    9.2218   -2.4459 C   0  0  0  0  0  0  0  0  0  0  0  0
   12.0590    9.2446   -3.7528 C   0  0  0  0  0  0  0  0  0  0  0  0
   11.7081    8.0784   -4.4038 C   0  0  0  0  0  0  0  0  0  0  0  0
   11.7399    6.8946   -3.7025 C   0  0  0  0  0  0  0  0  0  0  0  0
   12.1098    6.8494   -2.3811 C   0  0  0  0  0  0  0  0  0  0  0  0
 32 33  2  0
 33 34  1  0
 34 35  2  0
 35 20  1  0
 20 21  2  0
 21 22  1  0
 22 23  2  0
 23 24  1  0
 24 25  2  0
 24 26  1  0
 26 27  2  0
 27 28  1  0
 28 29  2  0
 29  1  1  0
  1  2  2  0
  2  3  1  0
  3  4  2  0
  4  5  1  0
  5  6  2  0
  5  7  1  0
  7  8  1  0
  8  9  1  0
  9 10  2  0
 10 11  1  0
 11 12  1  0
 12 13  2  0
 12 14  1  0
 14 15  2  0
 15 16  1  0
 16 17  2  0
 17 18  1  0
 18 19  2  0
 28 30  1  0
 30 31  1  0
 35 36  1  0
 36 37  2  0
 37 32  1  0
 25 20  1  0
  6  1  1  0
 19  9  1  0
 30 23  1  0
 10  4  1  0
 19 14  1  0
M  CHG  1  11  -1
M  END
>  <minimizedAffinity>  (77) 
-17.73668

$$$$
Mol: 143_1 - SminaDock
     RDKit          3D

 41 48  0  0  0  0  0  0  0  0999 V2000
    8.5522    5.7014  -12.5825 C   0  0  0  0  0  0  0  0  0  0  0  0
    7.2759    5.3511  -12.1185 C   0  0  0  0  0  0  0  0  0  0  0  0
    6.6207    4.2483  -12.6254 C   0  0  0  0  0  0  0  0  0  0  0  0
    7.2710    3.5358  -13.5790 C   0  0  0  0  0  0  0  0  0  0  0  0
    8.5333    3.8361  -14.0775 C   0  0  0  0  0  0  0  0  0  0  0  0
    9.1667    4.9355  -13.5610 C   0  0  0  0  0  0  0  0  0  0  0  0
    9.3536    3.1970  -15.1146 C   0  0  2  0  0  0  0  0  0  0  0  0
    9.9960    4.2443  -16.0341 C   0  0  0  0  0  0  0  0  0  0  0  0
    8.7997    2.1258  -15.8496 N   0  0  0  0  0  0  0  0  0  0  0  0
    7.4607    2.2956  -16.3654 C   0  0  0  0  0  0  0  0  0  0  0  0
    6.5449    1.8094  -15.3201 C   0  0  0  0  0  0  0  0  0  0  0  0
    6.4933    2.3882  -14.0244 C   0  0  0  0  0  0  0  0  0  0  0  0
    5.6853    1.9283  -13.0502 C   0  0  0  0  0  0  0  0  0  0  0  0
    4.8686    0.8390  -13.3440 C   0  0  0  0  0  0  0  0  0  0  0  0
    4.8966    0.2526  -14.6040 C   0  0  0  0  0  0  0  0  0  0  0  0
    4.1066   -0.8275  -14.9220 C   0  0  0  0  0  0  0  0  0  0  0  0
    4.1247   -1.4256  -16.1606 C   0  0  0  0  0  0  0  0  0  0  0  0
    4.9863   -0.8986  -17.1144 C   0  0  0  0  0  0  0  0  0  0  0  0
    5.7956    0.1821  -16.8405 C   0  0  0  0  0  0  0  0  0  0  0  0
    5.7491    0.7492  -15.6009 C   0  0  0  0  0  0  0  0  0  0  0  0
    8.9843    0.9002  -15.1230 C   0  0  0  0  0  0  0  0  0  0  0  0
   10.3104    1.0700  -14.4307 C   0  0  0  0  0  0  0  0  0  0  0  0
   10.5354    2.5402  -14.3922 C   0  0  0  0  0  0  0  0  0  0  0  0
   11.2529    7.9063   -6.2053 C   0  0  0  0  0  0  0  0  0  0  0  0
   11.5714    8.9782   -7.0282 C   0  0  0  0  0  0  0  0  0  0  0  0
   11.2192    8.9516   -8.3664 C   0  0  0  0  0  0  0  0  0  0  0  0
   10.5530    7.8901   -8.9357 C   0  0  0  0  0  0  0  0  0  0  0  0
   10.2111    7.8694  -10.2443 N   0  0  0  0  0  0  0  0  0  0  0  0
    9.5628    6.8374  -10.7989 C   0  0  0  0  0  0  0  0  0  0  0  0
    9.2400    6.8351  -12.0688 N   0  0  0  0  0  0  0  0  0  0  0  0
    9.2516    5.7939  -10.0027 N   0  0  0  0  0  0  0  0  0  0  0  0
    8.7480    4.9724  -10.3955 H   0  0  0  0  0  0  0  0  0  0  0  0
    9.5676    5.7630   -8.6964 C   0  0  0  0  0  0  0  0  0  0  0  0
   10.2339    6.8224   -8.1234 C   0  0  0  0  0  0  0  0  0  0  0  0
   10.5854    6.8496   -6.7893 C   0  0  0  0  0  0  0  0  0  0  0  0
   12.3149    8.0227   -2.1157 C   0  0  0  0  0  0  0  0  0  0  0  0
   11.9555    6.8101   -2.6677 C   0  0  0  0  0  0  0  0  0  0  0  0
   11.6127    6.7929   -4.0021 C   0  0  0  0  0  0  0  0  0  0  0  0
   11.6136    7.9125   -4.7933 C   0  0  0  0  0  0  0  0  0  0  0  0
   11.9783    9.1055   -4.2063 C   0  0  0  0  0  0  0  0  0  0  0  0
   12.3329    9.1831   -2.8683 C   0  0  0  0  0  0  0  0  0  0  0  0
 36 37  2  0
 37 38  1  0
 38 39  2  0
 39 24  1  0
 24 25  1  0
 25 26  2  0
 26 27  1  0
 27 28  2  0
 28 29  1  0
 29 30  2  0
 30  1  1  0
  1  2  2  0
  2  3  1  0
  3  4  2  0
  4  5  1  0
  5  6  2  0
  5  7  1  0
  7  8  1  6
  7  9  1  0
  9 10  1  0
 10 11  1  0
 11 12  2  0
 12 13  1  0
 13 14  2  0
 14 15  1  0
 15 16  2  0
 16 17  1  0
 17 18  2  0
 18 19  1  0
 19 20  2  0
  9 21  1  0
 21 22  1  0
 22 23  1  0
 29 31  1  0
 31 32  1  0
 31 33  1  0
 33 34  2  0
 34 35  1  0
 39 40  1  0
 40 41  2  0
 41 36  1  0
 35 24  2  0
 34 27  1  0
  6  1  1  0
 23  7  1  0
 12  4  1  0
 20 15  1  0
 20 11  1  0
M  END
>  <minimizedAffinity>  (78) 
-17.69983

$$$$
Mol: 148_1 - SminaDock
     RDKit          3D

 38 44  0  0  0  0  0  0  0  0999 V2000
    8.8817    5.9169  -12.2812 C   0  0  0  0  0  0  0  0  0  0  0  0
    9.6969    5.0801  -12.9968 C   0  0  0  0  0  0  0  0  0  0  0  0
    9.2521    3.8952  -13.5407 C   0  0  0  0  0  0  0  0  0  0  0  0
    7.9245    3.5371  -13.3548 C   0  0  0  0  0  0  0  0  0  0  0  0
    7.1009    4.3830  -12.6317 C   0  0  0  0  0  0  0  0  0  0  0  0
    7.5699    5.5907  -12.0819 C   0  0  0  0  0  0  0  0  0  0  0  0
    5.6675    4.0645  -12.3951 C   0  0  0  0  0  0  0  0  0  0  0  0
    5.1577    2.8061  -12.9497 C   0  0  0  0  0  0  0  0  0  0  0  0
    6.0995    1.9807  -13.7000 C   0  0  0  0  0  0  0  0  0  0  0  0
    7.4185    2.2947  -13.9111 C   0  0  0  0  0  0  0  0  0  0  0  0
    8.2499    1.4796  -14.6207 C   0  0  0  0  0  0  0  0  0  0  0  0
    7.7305    0.2890  -15.1449 C   0  0  0  0  0  0  0  0  0  0  0  0
    6.4086   -0.0635  -14.9550 C   0  0  0  0  0  0  0  0  0  0  0  0
    5.9040   -1.2064  -15.4565 N   0  0  0  0  0  0  0  0  0  0  0  0
    4.6465   -1.5532  -15.2824 N   0  0  0  0  0  0  0  0  0  0  0  0
    4.2804   -2.4526  -15.6865 H   0  0  0  0  0  0  0  0  0  0  0  0
    3.8148   -0.7548  -14.5823 C   0  0  0  0  0  0  0  0  0  0  0  0
    2.6052   -1.1334  -14.4404 O   0  0  0  0  0  0  0  0  0  0  0  0
    4.2825    0.4264  -14.0480 C   0  0  0  0  0  0  0  0  0  0  0  0
    5.5986    0.7853  -14.2325 C   0  0  0  0  0  0  0  0  0  0  0  0
   11.2932    8.2026   -5.9011 C   0  0  0  0  0  0  0  0  0  0  0  0
   11.3793    9.3746   -6.6214 C   0  0  0  0  0  0  0  0  0  0  0  0
   10.9971    9.3715   -7.9460 C   0  0  0  0  0  0  0  0  0  0  0  0
   10.5262    8.2494   -8.6052 C   0  0  0  0  0  0  0  0  0  0  0  0
   10.4493    7.0887   -7.8632 C   0  0  0  0  0  0  0  0  0  0  0  0
    9.9815    5.9465   -8.4934 C   0  0  0  0  0  0  0  0  0  0  0  0
    9.6258    6.0077   -9.7812 N   0  0  0  0  0  0  0  0  0  0  0  0
    9.7090    7.1434  -10.4801 C   0  0  0  0  0  0  0  0  0  0  0  0
    9.3472    7.1331  -11.7252 N   0  0  0  0  0  0  0  0  0  0  0  0
   10.1604    8.2683   -9.8918 N   0  0  0  0  0  0  0  0  0  0  0  0
   10.2181    9.1391  -10.4489 H   0  0  0  0  0  0  0  0  0  0  0  0
   10.8224    7.0514   -6.5351 C   0  0  0  0  0  0  0  0  0  0  0  0
   12.3963    7.8975   -1.8247 C   0  0  0  0  0  0  0  0  0  0  0  0
   12.0505    6.7805   -2.5318 C   0  0  0  0  0  0  0  0  0  0  0  0
   11.6921    6.9005   -3.8663 C   0  0  0  0  0  0  0  0  0  0  0  0
   11.6726    8.1197   -4.5103 C   0  0  0  0  0  0  0  0  0  0  0  0
   12.0218    9.2313   -3.7890 C   0  0  0  0  0  0  0  0  0  0  0  0
   12.3794    9.1190   -2.4607 C   0  0  0  0  0  0  0  0  0  0  0  0
 33 34  2  0
 34 35  1  0
 35 36  2  0
 36 21  1  0
 21 22  2  0
 22 23  1  0
 23 24  2  0
 24 25  1  0
 25 26  1  0
 26 27  2  0
 27 28  1  0
 28 29  2  0
 29  1  1  0
  1  2  2  0
  2  3  1  0
  3  4  2  0
  4  5  1  0
  5  6  2  0
  5  7  1  0
  7  8  1  0
  8  9  1  0
  9 10  2  0
 10 11  1  0
 11 12  2  0
 12 13  1  0
 13 14  2  0
 14 15  1  0
 15 16  1  0
 15 17  1  0
 17 18  2  0
 17 19  1  0
 19 20  2  0
 28 30  1  0
 30 31  1  0
 25 32  2  0
 36 37  1  0
 37 38  2  0
 38 33  1  0
 32 21  1  0
 30 24  1  0
  6  1  1  0
 20  9  1  0
 10  4  1  0
 20 13  1  0
M  END
>  <minimizedAffinity>  (79) 
-17.67721

$$$$
Mol: 199_24 - SminaDock
     RDKit          3D

 44 51  0  0  0  0  0  0  0  0999 V2000
    6.4726   -1.5638  -18.5360 H   0  0  0  0  0  0  0  0  0  0  0  0
    6.1661   -2.0648  -17.6780 O   0  0  0  0  0  0  0  0  0  0  0  0
    5.8690   -1.1868  -16.6112 C   0  0  0  0  0  0  0  0  0  0  0  0
    6.7388   -0.2517  -16.3862 N   0  0  0  0  0  0  0  0  0  0  0  0
    6.3950    0.6644  -15.3180 C   0  0  0  0  0  0  0  0  0  0  0  0
    7.2522    1.6973  -15.0187 C   0  0  0  0  0  0  0  0  0  0  0  0
    6.9776    2.6292  -13.9984 C   0  0  0  0  0  0  0  0  0  0  0  0
    5.8234    2.5222  -13.2675 C   0  0  0  0  0  0  0  0  0  0  0  0
    4.9680    1.4944  -13.5649 C   0  0  0  0  0  0  0  0  0  0  0  0
    5.2484    0.5749  -14.5787 C   0  0  0  0  0  0  0  0  0  0  0  0
    4.3030   -0.4795  -14.8467 C   0  0  0  0  0  0  0  0  0  0  0  0
    3.2396   -0.5608  -14.1963 O   0  0  0  0  0  0  0  0  0  0  0  0
    4.6207   -1.4417  -15.8912 C   0  0  0  0  0  0  0  0  0  0  0  0
    5.7676    3.6161  -12.2594 C   0  0  0  0  0  0  0  0  0  0  0  0
    7.0319    4.3679  -12.4999 C   0  0  0  0  0  0  0  0  0  0  0  0
    7.5421    5.4796  -11.8822 C   0  0  0  0  0  0  0  0  0  0  0  0
    8.7452    6.0436  -12.2445 C   0  0  0  0  0  0  0  0  0  0  0  0
    9.4341    5.4245  -13.2848 C   0  0  0  0  0  0  0  0  0  0  0  0
    8.9431    4.3045  -13.9235 C   0  0  0  0  0  0  0  0  0  0  0  0
    7.7400    3.7801  -13.5260 C   0  0  0  0  0  0  0  0  0  0  0  0
    9.2707    7.1968  -11.6007 N   0  0  0  0  0  0  0  0  0  0  0  0
    9.6263    7.1260  -10.3641 C   0  0  0  0  0  0  0  0  0  0  0  0
    9.5289    5.9798   -9.6051 C   0  0  0  0  0  0  0  0  0  0  0  0
    9.9118    5.9065   -8.2814 C   0  0  0  0  0  0  0  0  0  0  0  0
   10.4234    7.0448   -7.6748 C   0  0  0  0  0  0  0  0  0  0  0  0
   10.8231    7.0335   -6.3553 C   0  0  0  0  0  0  0  0  0  0  0  0
   11.3353    8.1636   -5.7402 C   0  0  0  0  0  0  0  0  0  0  0  0
   11.4297    9.3063   -6.5054 C   0  0  0  0  0  0  0  0  0  0  0  0
   11.0303    9.3188   -7.8249 C   0  0  0  0  0  0  0  0  0  0  0  0
   10.5166    8.1848   -8.4415 C   0  0  0  0  0  0  0  0  0  0  0  0
   10.1314    8.2177   -9.7348 N   0  0  0  0  0  0  0  0  0  0  0  0
   10.2107    9.1007  -10.3048 H   0  0  0  0  0  0  0  0  0  0  0  0
   11.7518    8.1236   -4.3400 C   0  0  0  0  0  0  0  0  0  0  0  0
   12.1168    9.2460   -3.6272 C   0  0  0  0  0  0  0  0  0  0  0  0
   12.5089    9.1738   -2.2918 C   0  0  0  0  0  0  0  0  0  0  0  0
   12.5359    7.9475   -1.6556 C   0  0  0  0  0  0  0  0  0  0  0  0
   12.1721    6.8172   -2.3611 C   0  0  0  0  0  0  0  0  0  0  0  0
   11.7850    6.9121   -3.6898 C   0  0  0  0  0  0  0  0  0  0  0  0
    7.9187   -0.1116  -17.1478 C   0  0  2  0  0  0  0  0  0  0  0  0
    9.2443   -0.1037  -16.4886 C   0  0  0  0  0  0  0  0  0  0  0  0
   10.2811   -0.3463  -17.5653 C   0  0  0  0  0  0  0  0  0  0  0  0
    9.7248   -0.8405  -18.8491 C   0  0  0  0  0  0  0  0  0  0  0  0
    8.6990    0.0296  -19.5014 C   0  0  0  0  0  0  0  0  0  0  0  0
    7.9828    0.7858  -18.3419 C   0  0  0  0  0  0  0  0  0  0  0  0
  1  2  1  0
  2  3  1  0
  3  4  2  0
 39  4  1  1
 39 40  1  0
 40 41  1  0
 41 42  1  0
 42 43  1  0
 43 44  1  0
  4  5  1  0
  5  6  2  0
  6  7  1  0
  7  8  2  0
  8  9  1  0
  9 10  2  0
 10 11  1  0
 11 12  2  0
 11 13  1  0
  8 14  1  0
 14 15  1  0
 15 16  2  0
 16 17  1  0
 17 21  1  0
 21 22  2  0
 22 23  1  0
 23 24  2  0
 24 25  1  0
 25 26  2  0
 26 27  1  0
 27 33  1  0
 33 34  2  0
 34 35  1  0
 35 36  2  0
 36 37  1  0
 37 38  2  0
 27 28  2  0
 28 29  1  0
 29 30  2  0
 30 31  1  0
 31 32  1  0
 17 18  2  0
 18 19  1  0
 19 20  2  0
 13  3  1  0
 20 15  1  0
 44 39  1  0
 10  5  1  0
 31 22  1  0
 20  7  1  0
 30 25  1  0
 38 33  1  0
M  CHG  1   4   1
M  END
>  <minimizedAffinity>  (80) 
-17.67061

$$$$
Mol: 161_51 - SminaDock
     RDKit          3D

 41 47  0  0  0  0  0  0  0  0999 V2000
    8.8091    6.0912  -12.4326 C   0  0  0  0  0  0  0  0  0  0  0  0
    9.5165    5.3839  -13.3758 C   0  0  0  0  0  0  0  0  0  0  0  0
    9.0206    4.2109  -13.9296 C   0  0  0  0  0  0  0  0  0  0  0  0
    7.7944    3.7319  -13.5359 C   0  0  0  0  0  0  0  0  0  0  0  0
    7.0764    4.4225  -12.5986 C   0  0  0  0  0  0  0  0  0  0  0  0
    7.5804    5.5970  -12.0486 C   0  0  0  0  0  0  0  0  0  0  0  0
    5.7765    3.9881  -12.1313 C   0  0  0  0  0  0  0  0  0  0  0  0
    5.1977    2.7412  -12.6747 C   0  0  0  0  0  0  0  0  0  0  0  0
    6.0431    2.0763  -13.6725 C   0  0  0  0  0  0  0  0  0  0  0  0
    7.2728    2.4901  -14.1201 C   0  0  0  0  0  0  0  0  0  0  0  0
    7.9764    1.8073  -15.0439 N   0  0  0  0  0  0  0  0  0  0  0  0
    8.9049    2.0962  -15.3987 H   0  0  0  0  0  0  0  0  0  0  0  0
    7.4956    0.6710  -15.5766 C   0  0  0  0  0  0  0  0  0  0  0  0
    8.1439    0.0223  -16.4423 O   0  0  0  0  0  0  0  0  0  0  0  0
    6.2754    0.1886  -15.1848 C   0  0  0  0  0  0  0  0  0  0  0  0
    5.7521   -0.9899  -15.7217 C   0  0  0  0  0  0  0  0  0  0  0  0
    6.4351   -1.5997  -16.5801 O   0  0  0  0  0  0  0  0  0  0  0  0
    4.5518   -1.3746  -15.2703 N   0  0  0  0  0  0  0  0  0  0  0  0
    3.8560   -0.6923  -14.3514 C   0  0  0  0  0  0  0  0  0  0  0  0
    2.7236   -1.0710  -13.9369 O   0  0  0  0  0  0  0  0  0  0  0  0
    4.3406    0.4436  -13.8218 N   0  0  0  0  0  0  0  0  0  0  0  0
    3.8343    0.9985  -13.1097 H   0  0  0  0  0  0  0  0  0  0  0  0
    5.5446    0.8842  -14.2349 C   0  0  0  0  0  0  0  0  0  0  0  0
   11.2720    8.1763   -6.0032 C   0  0  0  0  0  0  0  0  0  0  0  0
   11.3879    9.3361   -6.7324 C   0  0  0  0  0  0  0  0  0  0  0  0
   11.0247    9.4260   -8.0680 C   0  0  0  0  0  0  0  0  0  0  0  0
   10.5260    8.3138   -8.7004 C   0  0  0  0  0  0  0  0  0  0  0  0
   10.4041    7.1407   -7.9790 C   0  0  0  0  0  0  0  0  0  0  0  0
    9.9011    6.0377   -8.6345 C   0  0  0  0  0  0  0  0  0  0  0  0
    9.5575    6.1556   -9.9300 N   0  0  0  0  0  0  0  0  0  0  0  0
    9.6734    7.2881  -10.6329 C   0  0  0  0  0  0  0  0  0  0  0  0
    9.3180    7.2990  -11.8620 N   0  0  0  0  0  0  0  0  0  0  0  0
   10.1642    8.3655   -9.9938 N   0  0  0  0  0  0  0  0  0  0  0  0
   10.2445    9.2388  -10.5679 H   0  0  0  0  0  0  0  0  0  0  0  0
   10.7699    7.0699   -6.6530 C   0  0  0  0  0  0  0  0  0  0  0  0
   12.3808    7.8136   -1.8950 C   0  0  0  0  0  0  0  0  0  0  0  0
   12.3930    9.0366   -2.5199 C   0  0  0  0  0  0  0  0  0  0  0  0
   12.0383    9.1952   -3.8576 C   0  0  0  0  0  0  0  0  0  0  0  0
   11.6594    8.0980   -4.5947 C   0  0  0  0  0  0  0  0  0  0  0  0
   11.6462    6.8695   -3.9704 C   0  0  0  0  0  0  0  0  0  0  0  0
   11.9987    6.7079   -2.6389 C   0  0  0  0  0  0  0  0  0  0  0  0
 36 37  2  0
 37 38  1  0
 38 39  2  0
 39 24  1  0
 24 25  2  0
 25 26  1  0
 26 27  2  0
 27 28  1  0
 28 29  1  0
 29 30  2  0
 30 31  1  0
 31 32  2  0
 32  1  1  0
  1  2  2  0
  2  3  1  0
  3  4  2  0
  4  5  1  0
  5  6  2  0
  5  7  1  0
  7  8  1  0
  8  9  1  0
  9 10  2  0
 10 11  1  0
 11 12  1  0
 11 13  1  0
 13 14  2  0
 13 15  1  0
 15 16  1  0
 16 17  2  0
 16 18  1  0
 18 19  1  0
 19 20  2  0
 19 21  1  0
 21 22  1  0
 21 23  1  0
 31 33  1  0
 33 34  1  0
 28 35  2  0
 39 40  1  0
 40 41  2  0
 41 36  1  0
 35 24  1  0
 33 27  1  0
  6  1  1  0
 23  9  1  0
 10  4  1  0
 23 15  2  0
M  CHG  1  18  -1
M  END
>  <minimizedAffinity>  (81) 
-17.66615

$$$$
Mol: 187_8 - SminaDock
     RDKit          3D

 44 51  0  0  0  0  0  0  0  0999 V2000
    4.8664   -0.9455  -20.6241 H   0  0  0  0  0  0  0  0  0  0  0  0
    4.3977   -0.5231  -19.8353 O   0  0  0  0  0  0  0  0  0  0  0  0
    5.1526   -0.4064  -18.6520 C   0  0  0  0  0  0  0  0  0  0  0  0
    6.4088   -0.6724  -18.5220 N   0  0  0  0  0  0  0  0  0  0  0  0
    6.8166   -0.4316  -17.1728 C   0  0  0  0  0  0  0  0  0  0  0  0
    8.0330   -0.3205  -16.8680 O   0  0  0  0  0  0  0  0  0  0  0  0
    5.5839   -0.3682  -16.4014 C   0  0  1  0  0  0  0  0  0  0  0  0
    5.1301   -1.7040  -15.9065 C   0  0  0  0  0  0  0  0  0  0  0  0
    5.8004   -2.7564  -16.0896 O   0  0  0  0  0  0  0  0  0  0  0  0
    3.9173   -1.7143  -15.2285 O   0  0  0  0  0  0  0  0  0  0  0  0
    3.4279   -0.5799  -14.5357 C   0  0  0  0  0  0  0  0  0  0  0  0
    4.5178    0.4522  -14.3868 C   0  0  0  0  0  0  0  0  0  0  0  0
    4.4392    1.3121  -13.2961 C   0  0  0  0  0  0  0  0  0  0  0  0
    5.4185    2.2711  -13.1278 C   0  0  0  0  0  0  0  0  0  0  0  0
    6.4488    2.3615  -14.0332 C   0  0  0  0  0  0  0  0  0  0  0  0
    6.5345    1.5129  -15.1175 C   0  0  0  0  0  0  0  0  0  0  0  0
    5.5595    0.5587  -15.2844 C   0  0  0  0  0  0  0  0  0  0  0  0
    7.3105    3.4550  -13.5919 C   0  0  0  0  0  0  0  0  0  0  0  0
    8.4695    3.9645  -14.1308 C   0  0  0  0  0  0  0  0  0  0  0  0
    9.1011    5.0272  -13.5002 C   0  0  0  0  0  0  0  0  0  0  0  0
    8.6006    5.5980  -12.3365 C   0  0  0  0  0  0  0  0  0  0  0  0
    7.4324    5.0551  -11.8279 C   0  0  0  0  0  0  0  0  0  0  0  0
    6.7842    3.9924  -12.4420 C   0  0  0  0  0  0  0  0  0  0  0  0
    5.5416    3.2815  -12.0578 C   0  0  0  0  0  0  0  0  0  0  0  0
    4.6115    0.0325  -17.4126 N   0  0  0  0  0  0  0  0  0  0  0  0
    3.7112    0.5330  -17.2679 H   0  0  0  0  0  0  0  0  0  0  0  0
    9.2704    6.6699  -11.7329 N   0  0  0  0  0  0  0  0  0  0  0  0
    9.5936    6.7004  -10.4757 C   0  0  0  0  0  0  0  0  0  0  0  0
    9.3119    5.6946   -9.6284 N   0  0  0  0  0  0  0  0  0  0  0  0
    9.6512    5.7313   -8.3172 C   0  0  0  0  0  0  0  0  0  0  0  0
   10.3110    6.8274   -7.8005 C   0  0  0  0  0  0  0  0  0  0  0  0
   10.6787    6.9136   -6.4715 C   0  0  0  0  0  0  0  0  0  0  0  0
   11.3383    8.0099   -5.9560 C   0  0  0  0  0  0  0  0  0  0  0  0
   11.6275    9.0421   -6.8246 C   0  0  0  0  0  0  0  0  0  0  0  0
   11.2570    8.9543   -8.1625 C   0  0  0  0  0  0  0  0  0  0  0  0
   10.5974    7.8560   -8.6740 C   0  0  0  0  0  0  0  0  0  0  0  0
   10.2368    7.7688   -9.9720 N   0  0  0  0  0  0  0  0  0  0  0  0
   10.4600    8.5633  -10.6391 H   0  0  0  0  0  0  0  0  0  0  0  0
   11.7261    8.0944   -4.5404 C   0  0  0  0  0  0  0  0  0  0  0  0
   12.0700    9.2569   -3.9314 C   0  0  0  0  0  0  0  0  0  0  0  0
   12.4235    9.2644   -2.5986 C   0  0  0  0  0  0  0  0  0  0  0  0
   12.4260    8.0845   -1.8865 C   0  0  0  0  0  0  0  0  0  0  0  0
   12.0783    6.9018   -2.4978 C   0  0  0  0  0  0  0  0  0  0  0  0
   11.7297    6.9213   -3.8283 C   0  0  0  0  0  0  0  0  0  0  0  0
  1  2  1  0
  2  3  1  0
  3  4  2  0
  4  5  1  0
  5  6  2  0
  5  7  1  0
  7  8  1  0
  8  9  2  0
  8 10  1  0
 10 11  1  0
 11 12  1  0
 12 13  2  0
 13 14  1  0
 14 15  2  0
 15 16  1  0
 16 17  2  0
 15 18  1  0
 18 19  2  0
 19 20  1  0
 20 21  2  0
 21 27  1  0
 27 28  2  0
 28 29  1  0
 29 30  2  0
 30 31  1  0
 31 32  2  0
 32 33  1  0
 33 39  1  0
 39 40  2  0
 40 41  1  0
 41 42  2  0
 42 43  1  0
 43 44  2  0
 33 34  2  0
 34 35  1  0
 35 36  2  0
 36 37  1  0
 37 38  1  0
 21 22  1  0
 22 23  2  0
 23 24  1  0
  7 25  1  6
 25 26  1  0
 25  3  1  0
 17  7  1  0
 23 18  1  0
 17 12  1  0
 37 28  1  0
 24 14  1  0
 36 31  1  0
 44 39  1  0
M  END
>  <minimizedAffinity>  (82) 
-17.73616

$$$$
Mol: 191_48 - SminaDock
     RDKit          3D

 43 50  0  0  0  0  0  0  0  0999 V2000
    9.1246    5.1476  -13.4571 C   0  0  0  0  0  0  0  0  0  0  0  0
    8.5029    4.0737  -14.0595 C   0  0  0  0  0  0  0  0  0  0  0  0
    7.3042    3.5955  -13.5748 C   0  0  0  0  0  0  0  0  0  0  0  0
    6.7669    4.2302  -12.4796 C   0  0  0  0  0  0  0  0  0  0  0  0
    7.3907    5.3111  -11.8718 C   0  0  0  0  0  0  0  0  0  0  0  0
    8.5889    5.7901  -12.3554 C   0  0  0  0  0  0  0  0  0  0  0  0
    5.4830    3.5234  -12.1627 C   0  0  0  0  0  0  0  0  0  0  0  0
    5.3827    2.4619  -13.1778 C   0  0  0  0  0  0  0  0  0  0  0  0
    4.4269    1.5070  -13.3852 C   0  0  0  0  0  0  0  0  0  0  0  0
    4.5303    0.5878  -14.4207 C   0  0  0  0  0  0  0  0  0  0  0  0
    5.6183    0.6285  -15.2672 C   0  0  0  0  0  0  0  0  0  0  0  0
    6.5817    1.5739  -15.0758 C   0  0  0  0  0  0  0  0  0  0  0  0
    6.4648    2.4929  -14.0295 C   0  0  0  0  0  0  0  0  0  0  0  0
    5.6648   -0.3840  -16.3539 C   0  0  2  0  0  0  0  0  0  0  0  0
    5.1871   -1.6579  -15.7995 C   0  0  0  0  0  0  0  0  0  0  0  0
    5.8557   -2.7185  -15.8923 O   0  0  0  0  0  0  0  0  0  0  0  0
    3.9394   -1.6296  -15.1576 O   0  0  0  0  0  0  0  0  0  0  0  0
    3.4354   -0.4361  -14.5847 C   0  0  0  0  0  0  0  0  0  0  0  0
    7.0079   -0.4778  -17.0002 C   0  0  0  0  0  0  0  0  0  0  0  0
    7.0613    0.4489  -18.1743 C   0  0  0  0  0  0  0  0  0  0  0  0
    6.2978   -0.1240  -19.1976 O   0  0  0  0  0  0  0  0  0  0  0  0
    5.0544   -0.5247  -18.7721 C   0  0  0  0  0  0  0  0  0  0  0  0
    4.6702    0.0504  -17.4177 C   0  0  0  0  0  0  0  0  0  0  0  0
    9.2550    6.9054  -11.7480 N   0  0  0  0  0  0  0  0  0  0  0  0
    9.6053    6.9008  -10.5005 C   0  0  0  0  0  0  0  0  0  0  0  0
    9.3342    5.7946   -9.7249 C   0  0  0  0  0  0  0  0  0  0  0  0
    9.7260    5.8343   -8.3996 C   0  0  0  0  0  0  0  0  0  0  0  0
   10.3661    6.9698   -7.9154 C   0  0  0  0  0  0  0  0  0  0  0  0
   10.7396    6.9644   -6.5840 C   0  0  0  0  0  0  0  0  0  0  0  0
   11.3749    8.0813   -6.0879 C   0  0  0  0  0  0  0  0  0  0  0  0
   11.6330    9.1754   -6.8915 C   0  0  0  0  0  0  0  0  0  0  0  0
   11.2591    9.1758   -8.2161 C   0  0  0  0  0  0  0  0  0  0  0  0
   10.6237    8.0605   -8.7150 C   0  0  0  0  0  0  0  0  0  0  0  0
   10.2227    7.9764  -10.0029 N   0  0  0  0  0  0  0  0  0  0  0  0
   10.4084    8.7993  -10.6362 H   0  0  0  0  0  0  0  0  0  0  0  0
   11.7656    8.0632   -4.6753 C   0  0  0  0  0  0  0  0  0  0  0  0
   11.6170    6.9421   -3.8955 C   0  0  0  0  0  0  0  0  0  0  0  0
   11.9931    6.9572   -2.5742 C   0  0  0  0  0  0  0  0  0  0  0  0
   12.5265    8.1072   -2.0182 C   0  0  0  0  0  0  0  0  0  0  0  0
   12.8828    8.1616   -0.8135 O   0  0  0  0  0  0  0  0  0  0  0  0
   12.6670    9.1956   -2.7892 N   0  0  0  0  0  0  0  0  0  0  0  0
   13.0699   10.0672   -2.3727 H   0  0  0  0  0  0  0  0  0  0  0  0
   12.2993    9.1907   -4.0918 C   0  0  0  0  0  0  0  0  0  0  0  0
  1  2  2  0
  2  3  1  0
  3  4  2  0
  4  5  1  0
  5  6  2  0
  6 24  1  0
 24 25  2  0
 25 26  1  0
 26 27  2  0
 27 28  1  0
 28 29  2  0
 29 30  1  0
 30 36  1  0
 36 37  1  0
 37 38  2  0
 38 39  1  0
 39 40  2  0
 39 41  1  0
 41 42  1  0
 41 43  1  0
 30 31  2  0
 31 32  1  0
 32 33  2  0
 33 34  1  0
 34 35  1  0
  4  7  1  0
  7  8  1  0
  8  9  2  0
  9 10  1  0
 10 11  2  0
 11 12  1  0
 12 13  2  0
 11 14  1  0
 14 15  1  0
 15 16  2  0
 15 17  1  0
 17 18  1  0
 14 19  1  6
 19 20  1  0
 20 21  1  0
 21 22  1  0
 22 23  1  0
  6  1  1  0
 34 25  1  0
 13  8  1  0
 23 14  1  0
 13  3  1  0
 33 28  1  0
 18 10  1  0
 43 36  2  0
M  END
>  <minimizedAffinity>  (83) 
-17.65858

$$$$
Mol: 161_23 - SminaDock
     RDKit          3D

 40 46  0  0  0  0  0  0  0  0999 V2000
    2.1659   -0.7115  -13.6763 H   0  0  0  0  0  0  0  0  0  0  0  0
    2.6274   -0.9813  -14.5318 O   0  0  0  0  0  0  0  0  0  0  0  0
    3.9498   -0.6375  -14.8081 C   0  0  0  0  0  0  0  0  0  0  0  0
    4.4048    0.4928  -14.2220 N   0  0  0  0  0  0  0  0  0  0  0  0
    5.6572    0.9069  -14.4239 C   0  0  0  0  0  0  0  0  0  0  0  0
    6.1446    2.0600  -13.8354 C   0  0  0  0  0  0  0  0  0  0  0  0
    7.4402    2.4777  -14.0516 C   0  0  0  0  0  0  0  0  0  0  0  0
    8.2487    1.7483  -14.8527 N   0  0  0  0  0  0  0  0  0  0  0  0
    7.7778    0.6205  -15.4306 C   0  0  0  0  0  0  0  0  0  0  0  0
    8.4979   -0.0874  -16.1832 O   0  0  0  0  0  0  0  0  0  0  0  0
    6.4760    0.1779  -15.2286 C   0  0  0  0  0  0  0  0  0  0  0  0
    6.0336   -0.9778  -15.8367 C   0  0  0  0  0  0  0  0  0  0  0  0
    4.7450   -1.4061  -15.6306 C   0  0  0  0  0  0  0  0  0  0  0  0
    7.9651    3.6809  -13.4464 C   0  0  0  0  0  0  0  0  0  0  0  0
    9.2814    4.1026  -13.6672 C   0  0  0  0  0  0  0  0  0  0  0  0
    9.7701    5.2391  -13.0921 C   0  0  0  0  0  0  0  0  0  0  0  0
    8.9898    6.0162  -12.2726 C   0  0  0  0  0  0  0  0  0  0  0  0
    7.6910    5.6032  -12.0527 C   0  0  0  0  0  0  0  0  0  0  0  0
    7.1775    4.4556  -12.6255 C   0  0  0  0  0  0  0  0  0  0  0  0
    5.8008    4.0263  -12.3867 C   0  0  0  0  0  0  0  0  0  0  0  0
    5.1087    4.7482  -11.6418 O   0  0  0  0  0  0  0  0  0  0  0  0
    5.2004    2.8064  -12.9702 C   0  0  0  0  0  0  0  0  0  0  0  0
    9.4416    7.2044  -11.6476 N   0  0  0  0  0  0  0  0  0  0  0  0
    9.7882    7.1703  -10.4165 C   0  0  0  0  0  0  0  0  0  0  0  0
    9.7229    6.0250   -9.7314 N   0  0  0  0  0  0  0  0  0  0  0  0
   10.0620    5.8930   -8.4497 C   0  0  0  0  0  0  0  0  0  0  0  0
   10.5143    7.0318   -7.7860 C   0  0  0  0  0  0  0  0  0  0  0  0
   10.8859    6.9640   -6.4441 C   0  0  0  0  0  0  0  0  0  0  0  0
   11.3261    8.0813   -5.8071 C   0  0  0  0  0  0  0  0  0  0  0  0
   11.4032    9.2637   -6.4810 C   0  0  0  0  0  0  0  0  0  0  0  0
   11.0334    9.3331   -7.8180 C   0  0  0  0  0  0  0  0  0  0  0  0
   10.5757    8.2031   -8.5057 C   0  0  0  0  0  0  0  0  0  0  0  0
   10.2207    8.2814   -9.8001 N   0  0  0  0  0  0  0  0  0  0  0  0
   10.2827    9.1931  -10.3120 H   0  0  0  0  0  0  0  0  0  0  0  0
   11.7247    8.0505   -4.3969 C   0  0  0  0  0  0  0  0  0  0  0  0
   12.0985    9.2025   -3.7303 C   0  0  0  0  0  0  0  0  0  0  0  0
   12.4729    9.1578   -2.3954 C   0  0  0  0  0  0  0  0  0  0  0  0
   12.4880    7.9830   -1.6884 C   0  0  0  0  0  0  0  0  0  0  0  0
   12.1183    6.8329   -2.3419 C   0  0  0  0  0  0  0  0  0  0  0  0
   11.7460    6.8846   -3.6737 C   0  0  0  0  0  0  0  0  0  0  0  0
  1  2  1  0
  2  3  1  0
  3  4  2  0
  4  5  1  0
  5  6  1  0
  6  7  2  0
  7  8  1  0
  8  9  1  0
  9 10  2  0
  9 11  1  0
 11 12  1  0
 12 13  2  0
  7 14  1  0
 14 15  2  0
 15 16  1  0
 16 17  2  0
 17 23  1  0
 23 24  2  0
 24 25  1  0
 25 26  2  0
 26 27  1  0
 27 28  2  0
 28 29  1  0
 29 35  1  0
 35 36  2  0
 36 37  1  0
 37 38  2  0
 38 39  1  0
 39 40  2  0
 29 30  2  0
 30 31  1  0
 31 32  2  0
 32 33  1  0
 33 34  1  0
 17 18  1  0
 18 19  2  0
 19 20  1  0
 20 21  2  0
 20 22  1  0
 13  3  1  0
 19 14  1  0
 11  5  2  0
 33 24  1  0
 22  6  1  0
 32 27  1  0
 40 35  1  0
M  CHG  1   8  -1
M  END
>  <minimizedAffinity>  (84) 
-17.56816

$$$$
Mol: 158_46 - SminaDock
     RDKit          3D

 45 52  0  0  0  0  0  0  0  0999 V2000
    3.3822   -0.6461  -12.6375 H   0  0  0  0  0  0  0  0  0  0  0  0
    3.1296   -0.4608  -13.6096 O   0  0  0  0  0  0  0  0  0  0  0  0
    4.1101   -0.5202  -14.6205 C   0  0  0  0  0  0  0  0  0  0  0  0
    5.0563    0.4380  -14.5570 C   0  0  0  0  0  0  0  0  0  0  0  0
    5.0201    1.3846  -13.5560 C   0  0  0  0  0  0  0  0  0  0  0  0
    5.9891    2.3610  -13.4970 C   0  0  0  0  0  0  0  0  0  0  0  0
    6.9699    2.3262  -14.4814 C   0  0  0  0  0  0  0  0  0  0  0  0
    7.0188    1.3886  -15.4843 C   0  0  0  0  0  0  0  0  0  0  0  0
    6.0282    0.4012  -15.5337 C   0  0  0  0  0  0  0  0  0  0  0  0
    6.0686   -0.6361  -16.6124 C   0  0  0  0  0  0  0  0  0  0  0  0
    4.6834   -1.1246  -16.8540 C   0  0  2  0  0  0  0  0  0  0  0  0
    4.1069   -1.4897  -15.6107 O   0  0  0  0  0  0  0  0  0  0  0  0
    7.9769    3.2164  -14.5719 C   0  0  0  0  0  0  0  0  0  0  0  0
    8.2745    4.3695  -13.7343 C   0  0  0  0  0  0  0  0  0  0  0  0
    9.5915    4.7664  -13.8122 C   0  0  0  0  0  0  0  0  0  0  0  0
   10.0140    5.8687  -13.0598 C   0  0  0  0  0  0  0  0  0  0  0  0
    9.1555    6.5734  -12.2404 C   0  0  0  0  0  0  0  0  0  0  0  0
    7.8378    6.1372  -12.1931 C   0  0  0  0  0  0  0  0  0  0  0  0
    7.3956    5.0564  -12.9226 C   0  0  0  0  0  0  0  0  0  0  0  0
    5.9366    4.7465  -12.7309 C   0  0  0  0  0  0  0  0  0  0  0  0
    5.7941    3.2931  -12.3414 C   0  0  0  0  0  0  0  0  0  0  0  0
    9.5794    7.6955  -11.4743 N   0  0  0  0  0  0  0  0  0  0  0  0
    9.9201    7.6027  -10.2347 C   0  0  0  0  0  0  0  0  0  0  0  0
   10.3106    8.6950   -9.5673 N   0  0  0  0  0  0  0  0  0  0  0  0
   10.6644    8.5837   -8.2746 C   0  0  0  0  0  0  0  0  0  0  0  0
   11.0780    9.6962   -7.5428 C   0  0  0  0  0  0  0  0  0  0  0  0
   11.4306    9.5279   -6.2221 C   0  0  0  0  0  0  0  0  0  0  0  0
   11.3888    8.2985   -5.5987 C   0  0  0  0  0  0  0  0  0  0  0  0
   10.9848    7.2005   -6.3056 C   0  0  0  0  0  0  0  0  0  0  0  0
   10.6246    7.3593   -7.6468 C   0  0  0  0  0  0  0  0  0  0  0  0
   10.2104    6.2431   -8.3804 C   0  0  0  0  0  0  0  0  0  0  0  0
    9.8663    6.3915   -9.6632 N   0  0  0  0  0  0  0  0  0  0  0  0
    9.5572    5.5312  -10.1916 H   0  0  0  0  0  0  0  0  0  0  0  0
   11.7720    8.1361   -4.1777 C   0  0  0  0  0  0  0  0  0  0  0  0
   11.7743    6.8726   -3.6266 C   0  0  0  0  0  0  0  0  0  0  0  0
   12.1134    6.6439   -2.3306 C   0  0  0  0  0  0  0  0  0  0  0  0
   12.4690    7.7294   -1.5413 C   0  0  0  0  0  0  0  0  0  0  0  0
   12.4674    8.9951   -2.0911 C   0  0  0  0  0  0  0  0  0  0  0  0
   12.1193    9.1966   -3.4072 C   0  0  0  0  0  0  0  0  0  0  0  0
    4.6058   -2.2385  -17.8222 C   0  0  0  0  0  0  0  0  0  0  0  0
    5.5843   -3.1927  -17.9762 C   0  0  0  0  0  0  0  0  0  0  0  0
    5.4092   -4.1541  -18.8828 N   0  0  0  0  0  0  0  0  0  0  0  0
    4.3009   -4.2394  -19.6705 C   0  0  0  0  0  0  0  0  0  0  0  0
    3.2982   -3.3032  -19.5469 C   0  0  0  0  0  0  0  0  0  0  0  0
    3.4622   -2.3035  -18.6158 C   0  0  0  0  0  0  0  0  0  0  0  0
  1  2  1  0
  2  3  1  0
  3  4  2  0
  4  5  1  0
  5  6  2  0
  6  7  1  0
  7  8  1  0
  8  9  2  0
  9 10  1  0
 10 11  1  0
 11 40  1  6
 40 41  2  0
 41 42  1  0
 42 43  2  0
 43 44  1  0
 44 45  2  0
 11 12  1  0
  7 13  2  0
 13 14  1  0
 14 15  2  0
 15 16  1  0
 16 17  2  0
 17 22  1  0
 22 23  2  0
 23 24  1  0
 24 25  2  0
 25 26  1  0
 26 27  2  0
 27 28  1  0
 28 34  1  0
 34 35  2  0
 35 36  1  0
 36 37  2  0
 37 38  1  0
 38 39  2  0
 28 29  2  0
 29 30  1  0
 30 31  2  0
 31 32  1  0
 32 33  1  0
 17 18  1  0
 18 19  2  0
 19 20  1  0
 20 21  1  0
 12  3  1  0
 19 14  1  0
  9  4  1  0
 45 40  1  0
 32 23  1  0
 21  6  1  0
 30 25  1  0
 39 34  1  0
M  END
>  <minimizedAffinity>  (85) 
-17.64544

$$$$
Mol: 141_28 - SminaDock
     RDKit          3D

 40 46  0  0  0  0  0  0  0  0999 V2000
    8.6786    5.9748  -12.5050 C   0  0  0  0  0  0  0  0  0  0  0  0
    9.2945    5.2736  -13.5185 C   0  0  0  0  0  0  0  0  0  0  0  0
    8.7189    4.1153  -14.0648 C   0  0  0  0  0  0  0  0  0  0  0  0
    7.4987    3.6616  -13.5743 C   0  0  0  0  0  0  0  0  0  0  0  0
    6.8687    4.3406  -12.5688 C   0  0  0  0  0  0  0  0  0  0  0  0
    7.4779    5.4969  -12.0479 C   0  0  0  0  0  0  0  0  0  0  0  0
    5.5884    3.8805  -12.0380 C   0  0  0  0  0  0  0  0  0  0  0  0
    4.9756    2.6886  -12.6031 C   0  0  0  0  0  0  0  0  0  0  0  0
    5.6880    1.9747  -13.6864 C   0  0  0  0  0  0  0  0  0  0  0  0
    5.1113    0.8407  -14.2094 C   0  0  0  0  0  0  0  0  0  0  0  0
    5.7443    0.1247  -15.2422 C   0  0  0  0  0  0  0  0  0  0  0  0
    6.9340    0.6173  -15.6767 C   0  0  0  0  0  0  0  0  0  0  0  0
    7.5269    1.7765  -15.1439 C   0  0  0  0  0  0  0  0  0  0  0  0
    6.8982    2.4649  -14.1368 C   0  0  0  0  0  0  0  0  0  0  0  0
    7.6764   -0.0431  -16.7466 C   0  0  0  0  0  0  0  0  0  0  0  0
    8.7566    0.4250  -17.1234 O   0  0  0  0  0  0  0  0  0  0  0  0
    7.0787   -1.2085  -17.2867 N   0  0  0  0  0  0  0  0  0  0  0  0
    7.5794   -1.7282  -18.0693 H   0  0  0  0  0  0  0  0  0  0  0  0
    5.8446   -1.7184  -16.8359 C   0  0  0  0  0  0  0  0  0  0  0  0
    5.3481   -2.7646  -17.3600 O   0  0  0  0  0  0  0  0  0  0  0  0
    5.0922   -1.0837  -15.7679 C   0  0  2  0  0  0  0  0  0  0  0  0
    3.7244   -0.7055  -16.3775 C   0  0  0  0  0  0  0  0  0  0  0  0
   11.2734    8.1440   -6.1214 C   0  0  0  0  0  0  0  0  0  0  0  0
   11.4682    9.2811   -6.8711 C   0  0  0  0  0  0  0  0  0  0  0  0
   11.1045    9.3256   -8.2077 C   0  0  0  0  0  0  0  0  0  0  0  0
   10.5371    8.2277   -8.8184 C   0  0  0  0  0  0  0  0  0  0  0  0
   10.3400    7.0926   -8.0794 C   0  0  0  0  0  0  0  0  0  0  0  0
    9.7706    5.9921   -8.6928 C   0  0  0  0  0  0  0  0  0  0  0  0
    9.4350    6.0731   -9.9747 N   0  0  0  0  0  0  0  0  0  0  0  0
    9.6155    7.1712  -10.7255 C   0  0  0  0  0  0  0  0  0  0  0  0
    9.2644    7.1601  -11.9437 N   0  0  0  0  0  0  0  0  0  0  0  0
   10.1705    8.2426  -10.1259 N   0  0  0  0  0  0  0  0  0  0  0  0
   10.3209    9.1097  -10.6915 H   0  0  0  0  0  0  0  0  0  0  0  0
   10.7053    7.0540   -6.7448 C   0  0  0  0  0  0  0  0  0  0  0  0
   12.3307    7.8639   -1.9933 C   0  0  0  0  0  0  0  0  0  0  0  0
   12.3743    9.0640   -2.6681 C   0  0  0  0  0  0  0  0  0  0  0  0
   12.0267    9.1404   -4.0137 C   0  0  0  0  0  0  0  0  0  0  0  0
   11.6280    8.0216   -4.7170 C   0  0  0  0  0  0  0  0  0  0  0  0
   11.5899    6.8255   -4.0248 C   0  0  0  0  0  0  0  0  0  0  0  0
   11.9334    6.7430   -2.6900 C   0  0  0  0  0  0  0  0  0  0  0  0
 35 36  2  0
 36 37  1  0
 37 38  2  0
 38 23  1  0
 23 24  2  0
 24 25  1  0
 25 26  2  0
 26 27  1  0
 27 28  1  0
 28 29  2  0
 29 30  1  0
 30 31  2  0
 31  1  1  0
  1  2  2  0
  2  3  1  0
  3  4  2  0
  4  5  1  0
  5  6  2  0
  5  7  1  0
  7  8  1  0
  8  9  1  0
  9 10  2  0
 10 11  1  0
 11 12  2  0
 12 13  1  0
 13 14  2  0
 12 15  1  0
 15 16  2  0
 15 17  1  0
 17 18  1  0
 17 19  1  0
 19 20  2  0
 19 21  1  0
 21 22  1  6
 30 32  1  0
 32 33  1  0
 27 34  2  0
 38 39  1  0
 39 40  2  0
 40 35  1  0
 34 23  1  0
 32 26  1  0
  6  1  1  0
 14  9  1  0
 14  4  1  0
 21 11  1  0
M  END
>  <minimizedAffinity>  (86) 
-17.58820

$$$$
Mol: 161_55 - SminaDock
     RDKit          3D

 38 44  0  0  0  0  0  0  0  0999 V2000
    9.1178    6.4189  -12.3864 C   0  0  0  0  0  0  0  0  0  0  0  0
    7.8890    7.0161  -12.1645 C   0  0  0  0  0  0  0  0  0  0  0  0
    6.6995    6.3617  -12.4069 C   0  0  0  0  0  0  0  0  0  0  0  0
    6.7049    5.0579  -12.8905 C   0  0  0  0  0  0  0  0  0  0  0  0
    7.9059    4.4532  -13.1152 C   0  0  0  0  0  0  0  0  0  0  0  0
    9.1085    5.1267  -12.8658 C   0  0  0  0  0  0  0  0  0  0  0  0
    8.2460    3.1163  -13.6117 C   0  0  0  0  0  0  0  0  0  0  0  0
    7.1042    2.1874  -13.7444 C   0  0  0  0  0  0  0  0  0  0  0  0
    5.8387    2.1709  -13.2433 C   0  0  0  0  0  0  0  0  0  0  0  0
    4.9708    1.1478  -13.5461 C   0  0  0  0  0  0  0  0  0  0  0  0
    5.3648    0.1132  -14.3667 C   0  0  0  0  0  0  0  0  0  0  0  0
    4.6890   -1.0048  -14.8082 C   0  0  0  0  0  0  0  0  0  0  0  0
    3.5023   -1.3196  -14.5295 O   0  0  0  0  0  0  0  0  0  0  0  0
    5.5702   -1.6638  -15.5862 N   0  0  0  0  0  0  0  0  0  0  0  0
    6.7203   -1.0104  -15.6335 N   0  0  0  0  0  0  0  0  0  0  0  0
    7.5814   -1.2812  -16.1549 H   0  0  0  0  0  0  0  0  0  0  0  0
    6.6474    0.1071  -14.8893 C   0  0  0  0  0  0  0  0  0  0  0  0
    7.4986    1.1466  -14.5692 C   0  0  0  0  0  0  0  0  0  0  0  0
    5.2514    3.2037  -12.3474 C   0  0  0  0  0  0  0  0  0  0  0  0
    5.3531    4.5162  -13.0905 C   0  0  0  0  0  0  0  0  0  0  0  0
   11.1710    7.5695   -5.9597 C   0  0  0  0  0  0  0  0  0  0  0  0
   10.0066    6.8841   -6.2262 C   0  0  0  0  0  0  0  0  0  0  0  0
    9.5799    6.6450   -7.5334 C   0  0  0  0  0  0  0  0  0  0  0  0
   10.3546    7.1134   -8.5874 C   0  0  0  0  0  0  0  0  0  0  0  0
   10.0250    6.9312   -9.8647 N   0  0  0  0  0  0  0  0  0  0  0  0
   10.7345    7.3610  -10.9215 C   0  0  0  0  0  0  0  0  0  0  0  0
   10.3210    7.1280  -12.1240 N   0  0  0  0  0  0  0  0  0  0  0  0
   11.8715    8.0304  -10.6701 N   0  0  0  0  0  0  0  0  0  0  0  0
   12.4572    8.3841  -11.4661 H   0  0  0  0  0  0  0  0  0  0  0  0
   12.2528    8.2431   -9.3901 C   0  0  0  0  0  0  0  0  0  0  0  0
   11.5192    7.7988   -8.3118 C   0  0  0  0  0  0  0  0  0  0  0  0
   11.9400    8.0345   -7.0037 C   0  0  0  0  0  0  0  0  0  0  0  0
   12.4768    8.2502   -1.9551 C   0  0  0  0  0  0  0  0  0  0  0  0
   12.3500    9.2939   -2.8534 C   0  0  0  0  0  0  0  0  0  0  0  0
   11.9254    9.0855   -4.1621 C   0  0  0  0  0  0  0  0  0  0  0  0
   11.6169    7.8189   -4.6011 C   0  0  0  0  0  0  0  0  0  0  0  0
   11.7420    6.7748   -3.7085 C   0  0  0  0  0  0  0  0  0  0  0  0
   12.1660    6.9842   -2.4019 C   0  0  0  0  0  0  0  0  0  0  0  0
 33 34  2  0
 34 35  1  0
 35 36  2  0
 36 21  1  0
 21 22  1  0
 22 23  2  0
 23 24  1  0
 24 25  2  0
 25 26  1  0
 26 27  2  0
 27  1  1  0
  1  2  2  0
  2  3  1  0
  3  4  2  0
  4  5  1  0
  5  6  2  0
  5  7  1  0
  7  8  1  0
  8  9  2  0
  9 10  1  0
 10 11  2  0
 11 12  1  0
 12 13  2  0
 12 14  1  0
 14 15  1  0
 15 16  1  0
 15 17  1  0
 17 18  2  0
  9 19  1  0
 19 20  1  0
 26 28  1  0
 28 29  1  0
 28 30  1  0
 30 31  2  0
 31 32  1  0
 36 37  1  0
 37 38  2  0
 38 33  1  0
 32 21  2  0
 31 24  1  0
  6  1  1  0
 18  8  1  0
 20  4  1  0
 17 11  1  0
M  CHG  1  14  -1
M  END
>  <minimizedAffinity>  (87) 
-17.57583

$$$$
Mol: 147_5 - SminaDock
     RDKit          3D

 40 46  0  0  0  0  0  0  0  0999 V2000
    3.3102   -1.7046  -14.4293 H   0  0  0  0  0  0  0  0  0  0  0  0
    3.5466   -0.8935  -14.9685 O   0  0  0  0  0  0  0  0  0  0  0  0
    4.7415   -0.7125  -15.6369 C   0  0  0  0  0  0  0  0  0  0  0  0
    5.0115   -1.6400  -16.6089 C   0  0  0  0  0  0  0  0  0  0  0  0
    6.0504   -1.6636  -17.5269 C   0  0  0  0  0  0  0  0  0  0  0  0
    6.0354   -2.6455  -18.2899 O   0  0  0  0  0  0  0  0  0  0  0  0
    7.0756   -0.7707  -17.7090 C   0  0  0  0  0  0  0  0  0  0  0  0
    7.2778    0.4286  -17.0187 C   0  0  0  0  0  0  0  0  0  0  0  0
    6.6660    0.8780  -15.8794 C   0  0  0  0  0  0  0  0  0  0  0  0
    7.2915    1.9828  -15.3040 C   0  0  0  0  0  0  0  0  0  0  0  0
    6.7813    2.5480  -14.1392 C   0  0  0  0  0  0  0  0  0  0  0  0
    5.6601    2.0320  -13.5330 C   0  0  0  0  0  0  0  0  0  0  0  0
    5.0499    0.9317  -14.1232 C   0  0  0  0  0  0  0  0  0  0  0  0
    5.5436    0.3654  -15.2746 C   0  0  0  0  0  0  0  0  0  0  0  0
    5.1762    2.5704  -12.2536 C   0  0  0  0  0  0  0  0  0  0  0  0
    5.5341    3.9789  -12.0224 C   0  0  0  0  0  0  0  0  0  0  0  0
    6.8382    4.3985  -12.5322 C   0  0  0  0  0  0  0  0  0  0  0  0
    7.4925    5.5010  -11.9782 C   0  0  0  0  0  0  0  0  0  0  0  0
    8.6736    5.9634  -12.5021 C   0  0  0  0  0  0  0  0  0  0  0  0
    9.2322    5.3347  -13.5946 C   0  0  0  0  0  0  0  0  0  0  0  0
    8.6067    4.2383  -14.1631 C   0  0  0  0  0  0  0  0  0  0  0  0
    7.4178    3.7855  -13.6205 C   0  0  0  0  0  0  0  0  0  0  0  0
    9.2947    7.0905  -11.8975 N   0  0  0  0  0  0  0  0  0  0  0  0
    9.6283    7.0497  -10.6390 C   0  0  0  0  0  0  0  0  0  0  0  0
    9.3815    5.9385   -9.9226 N   0  0  0  0  0  0  0  0  0  0  0  0
    9.7215    5.8857   -8.6214 C   0  0  0  0  0  0  0  0  0  0  0  0
   10.3288    6.9529   -7.9756 C   0  0  0  0  0  0  0  0  0  0  0  0
   10.6860    6.9264   -6.6497 C   0  0  0  0  0  0  0  0  0  0  0  0
   11.2918    7.9970   -6.0147 C   0  0  0  0  0  0  0  0  0  0  0  0
   11.5228    9.1152   -6.7996 C   0  0  0  0  0  0  0  0  0  0  0  0
   11.1714    9.1664   -8.1399 C   0  0  0  0  0  0  0  0  0  0  0  0
   10.5679    8.0735   -8.7345 C   0  0  0  0  0  0  0  0  0  0  0  0
   10.2160    8.0972  -10.0364 N   0  0  0  0  0  0  0  0  0  0  0  0
   10.4017    8.9622  -10.6184 H   0  0  0  0  0  0  0  0  0  0  0  0
   11.6710    7.9672   -4.6060 C   0  0  0  0  0  0  0  0  0  0  0  0
   11.6920    6.8119   -3.8519 C   0  0  0  0  0  0  0  0  0  0  0  0
   12.0596    6.8230   -2.5047 C   0  0  0  0  0  0  0  0  0  0  0  0
   12.4128    8.0070   -1.8969 C   0  0  0  0  0  0  0  0  0  0  0  0
   12.3945    9.1690   -2.6449 C   0  0  0  0  0  0  0  0  0  0  0  0
   12.0290    9.1422   -3.9757 C   0  0  0  0  0  0  0  0  0  0  0  0
  1  2  1  0
  2  3  1  0
  3  4  2  0
  4  5  1  0
  5  6  2  0
  5  7  1  0
  7  8  2  0
  8  9  1  0
  9 10  2  0
 10 11  1  0
 11 12  2  0
 12 13  1  0
 13 14  2  0
 12 15  1  0
 15 16  1  0
 16 17  1  0
 17 18  2  0
 18 19  1  0
 19 23  1  0
 23 24  2  0
 24 25  1  0
 25 26  2  0
 26 27  1  0
 27 28  2  0
 28 29  1  0
 29 35  1  0
 35 36  2  0
 36 37  1  0
 37 38  2  0
 38 39  1  0
 39 40  2  0
 29 30  2  0
 30 31  1  0
 31 32  2  0
 32 33  1  0
 33 34  1  0
 19 20  2  0
 20 21  1  0
 21 22  2  0
 14  3  1  0
 22 17  1  0
 14  9  1  0
 33 24  1  0
 22 11  1  0
 32 27  1  0
 40 35  1  0
M  END
>  <minimizedAffinity>  (88) 
-17.57786

$$$$
Mol: 196_49 - SminaDock
     RDKit          3D

 43 50  0  0  0  0  0  0  0  0999 V2000
    8.7109    5.5111  -12.3457 C   0  0  0  0  0  0  0  0  0  0  0  0
    7.5003    5.2201  -11.8145 C   0  0  0  0  0  0  0  0  0  0  0  0
    6.7539    4.1729  -12.3690 C   0  0  0  0  0  0  0  0  0  0  0  0
    7.2327    3.4456  -13.4349 C   0  0  0  0  0  0  0  0  0  0  0  0
    8.4746    3.7451  -13.9785 C   0  0  0  0  0  0  0  0  0  0  0  0
    9.1797    4.7775  -13.4109 C   0  0  0  0  0  0  0  0  0  0  0  0
    9.0945    3.0399  -15.1074 C   0  0  1  0  0  0  0  0  0  0  0  0
    8.2124    1.9578  -15.6420 C   0  0  0  0  0  0  0  0  0  0  0  0
    8.6868    1.3589  -16.6090 O   0  0  0  0  0  0  0  0  0  0  0  0
    6.9261    1.6489  -15.0740 C   0  0  0  0  0  0  0  0  0  0  0  0
    6.4198    2.3702  -13.9834 C   0  0  0  0  0  0  0  0  0  0  0  0
    5.1943    2.0854  -13.4338 C   0  0  0  0  0  0  0  0  0  0  0  0
    4.4102    1.0738  -13.9357 C   0  0  0  0  0  0  0  0  0  0  0  0
    4.8652    0.3497  -14.9939 C   0  0  0  0  0  0  0  0  0  0  0  0
    4.1061   -0.6788  -15.5294 C   0  0  0  0  0  0  0  0  0  0  0  0
    2.9811   -0.9022  -14.9859 O   0  0  0  0  0  0  0  0  0  0  0  0
    4.5458   -1.3982  -16.5714 N   0  0  0  0  0  0  0  0  0  0  0  0
    5.7327   -1.1529  -17.1351 C   0  0  0  0  0  0  0  0  0  0  0  0
    6.5559   -0.1208  -16.6397 C   0  0  0  0  0  0  0  0  0  0  0  0
    6.1137    0.6186  -15.5756 C   0  0  0  0  0  0  0  0  0  0  0  0
    9.2158    4.0502  -16.2333 C   0  0  0  0  0  0  0  0  0  0  0  0
   10.2018    3.6221  -17.2874 C   0  0  0  0  0  0  0  0  0  0  0  0
   11.4049    3.1937  -16.7313 O   0  0  0  0  0  0  0  0  0  0  0  0
   11.2557    2.1030  -15.9101 C   0  0  0  0  0  0  0  0  0  0  0  0
   10.4095    2.4157  -14.7269 C   0  0  0  0  0  0  0  0  0  0  0  0
   11.3605    7.9314   -5.9714 C   0  0  0  0  0  0  0  0  0  0  0  0
   11.7950    8.8857   -6.8767 C   0  0  0  0  0  0  0  0  0  0  0  0
   11.4978    8.7939   -8.2195 C   0  0  0  0  0  0  0  0  0  0  0  0
   10.7494    7.7397   -8.7201 C   0  0  0  0  0  0  0  0  0  0  0  0
   10.3160    6.7896   -7.8226 C   0  0  0  0  0  0  0  0  0  0  0  0
   10.6178    6.8843   -6.4652 C   0  0  0  0  0  0  0  0  0  0  0  0
    9.5682    5.7327   -8.3120 C   0  0  0  0  0  0  0  0  0  0  0  0
    9.2937    5.6809   -9.6690 C   0  0  0  0  0  0  0  0  0  0  0  0
    9.7409    6.6402  -10.5216 C   0  0  0  0  0  0  0  0  0  0  0  0
    9.4832    6.5867  -11.7806 N   0  0  0  0  0  0  0  0  0  0  0  0
   10.4654    7.6640  -10.0459 N   0  0  0  0  0  0  0  0  0  0  0  0
   10.8121    8.4050  -10.6970 H   0  0  0  0  0  0  0  0  0  0  0  0
   12.3037    8.3305   -1.8934 C   0  0  0  0  0  0  0  0  0  0  0  0
   12.1558    9.4102   -2.6547 N   0  0  0  0  0  0  0  0  0  0  0  0
   11.8546    9.2842   -3.9578 C   0  0  0  0  0  0  0  0  0  0  0  0
   11.6894    8.0505   -4.5488 C   0  0  0  0  0  0  0  0  0  0  0  0
   11.8363    6.9145   -3.7857 C   0  0  0  0  0  0  0  0  0  0  0  0
   12.1447    7.0761   -2.4546 C   0  0  0  0  0  0  0  0  0  0  0  0
 38 39  2  0
 39 40  1  0
 40 41  2  0
 41 26  1  0
 26 27  2  0
 27 28  1  0
 28 29  2  0
 29 30  1  0
 30 31  2  0
 30 32  1  0
 32 33  2  0
 33 34  1  0
 34 35  2  0
 35  1  1  0
  1  2  2  0
  2  3  1  0
  3  4  2  0
  4  5  1  0
  5  6  2  0
  5  7  1  0
  7  8  1  0
  8  9  2  0
  8 10  1  0
 10 11  2  0
 11 12  1  0
 12 13  2  0
 13 14  1  0
 14 15  1  0
 15 16  2  0
 15 17  1  0
 17 18  1  0
 18 19  2  0
 19 20  1  0
  7 21  1  6
 21 22  1  0
 22 23  1  0
 23 24  1  0
 24 25  1  0
 34 36  1  0
 36 37  1  0
 41 42  1  0
 42 43  2  0
 43 38  1  0
 31 26  1  0
  6  1  1  0
 25  7  1  0
 36 29  1  0
 11  4  1  0
 20 14  2  0
 20 10  1  0
M  CHG  1  17  -1
M  END
>  <minimizedAffinity>  (89) 
-17.58533

$$$$
Mol: 163_12 - SminaDock
     RDKit          3D

 39 45  0  0  0  0  0  0  0  0999 V2000
    5.6211   -2.0221  -17.2859 H   0  0  0  0  0  0  0  0  0  0  0  0
    6.0927   -1.7900  -16.3984 O   0  0  0  0  0  0  0  0  0  0  0  0
    5.3592   -0.9910  -15.5351 C   0  0  0  0  0  0  0  0  0  0  0  0
    4.1136   -1.2889  -15.1894 N   0  0  0  0  0  0  0  0  0  0  0  0
    3.3538   -0.5413  -14.3493 C   0  0  0  0  0  0  0  0  0  0  0  0
    3.8547    0.6228  -13.7812 C   0  0  0  0  0  0  0  0  0  0  0  0
    5.1417    0.9473  -14.1271 C   0  0  0  0  0  0  0  0  0  0  0  0
    5.7189    2.1125  -13.5899 C   0  0  0  0  0  0  0  0  0  0  0  0
    7.0035    2.4036  -13.9565 C   0  0  0  0  0  0  0  0  0  0  0  0
    7.7512    1.6401  -14.8013 N   0  0  0  0  0  0  0  0  0  0  0  0
    7.2549    0.5101  -15.3497 C   0  0  0  0  0  0  0  0  0  0  0  0
    7.8836   -0.2287  -16.1257 O   0  0  0  0  0  0  0  0  0  0  0  0
    5.9583    0.1551  -15.0223 C   0  0  0  0  0  0  0  0  0  0  0  0
    7.6110    3.6394  -13.4306 C   0  0  0  0  0  0  0  0  0  0  0  0
    8.9237    3.9230  -13.7664 C   0  0  0  0  0  0  0  0  0  0  0  0
    9.5346    5.0602  -13.2606 C   0  0  0  0  0  0  0  0  0  0  0  0
    8.8376    5.9070  -12.4252 C   0  0  0  0  0  0  0  0  0  0  0  0
    7.5354    5.5901  -12.1163 C   0  0  0  0  0  0  0  0  0  0  0  0
    6.8812    4.4519  -12.6063 C   0  0  0  0  0  0  0  0  0  0  0  0
    5.4852    4.2061  -12.2555 C   0  0  0  0  0  0  0  0  0  0  0  0
    4.9537    2.9155  -12.6699 C   0  0  0  0  0  0  0  0  0  0  0  0
    9.4643    7.0894  -11.8957 N   0  0  0  0  0  0  0  0  0  0  0  0
    9.7821    7.1033  -10.6557 C   0  0  0  0  0  0  0  0  0  0  0  0
   10.3744    8.1706  -10.0720 N   0  0  0  0  0  0  0  0  0  0  0  0
   10.7159    8.2094   -8.7794 C   0  0  0  0  0  0  0  0  0  0  0  0
   11.3185    9.2974   -8.1915 C   0  0  0  0  0  0  0  0  0  0  0  0
   11.6473    9.2720   -6.8454 C   0  0  0  0  0  0  0  0  0  0  0  0
   11.3884    8.1730   -6.0520 C   0  0  0  0  0  0  0  0  0  0  0  0
   10.7864    7.0954   -6.6547 C   0  0  0  0  0  0  0  0  0  0  0  0
   10.4507    7.1056   -8.0033 C   0  0  0  0  0  0  0  0  0  0  0  0
    9.8549    6.0141   -8.5603 C   0  0  0  0  0  0  0  0  0  0  0  0
    9.5377    6.0446   -9.8715 N   0  0  0  0  0  0  0  0  0  0  0  0
    9.0823    5.2027  -10.2849 H   0  0  0  0  0  0  0  0  0  0  0  0
   11.7098    8.1006   -4.6417 C   0  0  0  0  0  0  0  0  0  0  0  0
   12.0896    9.2094   -3.9165 C   0  0  0  0  0  0  0  0  0  0  0  0
   12.3936    9.0837   -2.5574 C   0  0  0  0  0  0  0  0  0  0  0  0
   12.3184    7.8584   -1.9288 C   0  0  0  0  0  0  0  0  0  0  0  0
   11.9413    6.7561   -2.6480 C   0  0  0  0  0  0  0  0  0  0  0  0
   11.6469    6.9015   -3.9823 C   0  0  0  0  0  0  0  0  0  0  0  0
  1  2  1  0
  2  3  1  0
  3  4  1  0
  4  5  1  0
  5  6  2  0
  6  7  1  0
  7  8  2  0
  8  9  1  0
  9 10  2  0
 10 11  1  0
 11 12  2  0
 11 13  1  0
  9 14  1  0
 14 15  2  0
 15 16  1  0
 16 17  2  0
 17 22  1  0
 22 23  2  0
 23 24  1  0
 24 25  2  0
 25 26  1  0
 26 27  2  0
 27 28  1  0
 28 34  1  0
 34 35  2  0
 35 36  1  0
 36 37  2  0
 37 38  1  0
 38 39  2  0
 28 29  2  0
 29 30  1  0
 30 31  2  0
 31 32  1  0
 32 33  1  0
 17 18  1  0
 18 19  2  0
 19 20  1  0
 20 21  1  0
 13  3  2  0
 19 14  1  0
 13  7  1  0
 32 23  1  0
 21  8  1  0
 30 25  1  0
 39 34  1  0
M  CHG  1   4  -1
M  END
>  <minimizedAffinity>  (90) 
-17.62855

$$$$
Mol: 161_57 - SminaDock
     RDKit          3D

 42 48  0  0  0  0  0  0  0  0999 V2000
    3.2403   -2.0670  -14.4927 H   0  0  0  0  0  0  0  0  0  0  0  0
    3.7662   -1.2458  -14.3104 O   0  0  0  0  0  0  0  0  0  0  0  0
    4.8719   -0.9033  -15.0528 C   0  0  0  0  0  0  0  0  0  0  0  0
    5.5347    0.2356  -14.7956 C   0  0  0  0  0  0  0  0  0  0  0  0
    5.0703    1.0330  -13.7754 C   0  0  0  0  0  0  0  0  0  0  0  0
    5.7225    2.2194  -13.4738 C   0  0  0  0  0  0  0  0  0  0  0  0
    6.8385    2.5504  -14.2362 C   0  0  0  0  0  0  0  0  0  0  0  0
    7.2994    1.7540  -15.2504 C   0  0  0  0  0  0  0  0  0  0  0  0
    6.6439    0.5757  -15.5433 C   0  0  0  0  0  0  0  0  0  0  0  0
    7.0718   -0.1975  -16.5120 N   0  0  0  0  0  0  0  0  0  0  0  0
    8.2556    0.2186  -17.2699 C   0  0  0  0  0  0  0  0  0  0  0  0
    6.4499   -1.3862  -16.8438 N   0  0  0  0  0  0  0  0  0  0  0  0
    6.8140   -1.9776  -17.6180 H   0  0  0  0  0  0  0  0  0  0  0  0
    5.3161   -1.7431  -16.0865 N   0  0  0  0  0  0  0  0  0  0  0  0
    7.5036    3.7955  -13.8999 C   0  0  0  0  0  0  0  0  0  0  0  0
    8.5757    4.0195  -14.7377 C   0  0  0  0  0  0  0  0  0  0  0  0
    9.7874    4.6286  -14.3673 C   0  0  0  0  0  0  0  0  0  0  0  0
   10.0738    5.4018  -13.2641 C   0  0  0  0  0  0  0  0  0  0  0  0
   11.2928    5.6192  -12.9940 O   0  0  0  0  0  0  0  0  0  0  0  0
    9.1221    5.9679  -12.4157 C   0  0  0  0  0  0  0  0  0  0  0  0
    7.7770    5.6225  -12.2332 C   0  0  0  0  0  0  0  0  0  0  0  0
    7.0700    4.6317  -12.8706 C   0  0  0  0  0  0  0  0  0  0  0  0
    5.6934    4.4700  -12.3676 C   0  0  0  0  0  0  0  0  0  0  0  0
    5.2233    3.0649  -12.3723 C   0  0  0  0  0  0  0  0  0  0  0  0
    9.6322    7.0406  -11.6481 N   0  0  0  0  0  0  0  0  0  0  0  0
    9.9062    6.9441  -10.4117 C   0  0  0  0  0  0  0  0  0  0  0  0
   10.3901    8.0588   -9.8032 N   0  0  0  0  0  0  0  0  0  0  0  0
   10.7169    8.0852   -8.5033 C   0  0  0  0  0  0  0  0  0  0  0  0
   11.2097    9.2401   -7.9102 C   0  0  0  0  0  0  0  0  0  0  0  0
   11.5284    9.2078   -6.5727 C   0  0  0  0  0  0  0  0  0  0  0  0
   11.3765    8.0682   -5.7967 C   0  0  0  0  0  0  0  0  0  0  0  0
   10.8823    6.9537   -6.4454 C   0  0  0  0  0  0  0  0  0  0  0  0
   10.5487    6.9319   -7.7767 C   0  0  0  0  0  0  0  0  0  0  0  0
   10.0564    5.8147   -8.4161 C   0  0  0  0  0  0  0  0  0  0  0  0
    9.7329    5.8015   -9.7190 N   0  0  0  0  0  0  0  0  0  0  0  0
    9.3601    4.9636  -10.2139 H   0  0  0  0  0  0  0  0  0  0  0  0
   11.7255    8.0658   -4.3754 C   0  0  0  0  0  0  0  0  0  0  0  0
   11.6850    6.9043   -3.6283 C   0  0  0  0  0  0  0  0  0  0  0  0
   12.0108    6.8769   -2.2839 C   0  0  0  0  0  0  0  0  0  0  0  0
   12.3879    8.0575   -1.6791 C   0  0  0  0  0  0  0  0  0  0  0  0
   12.4277    9.2174   -2.4274 C   0  0  0  0  0  0  0  0  0  0  0  0
   12.0982    9.2258   -3.7722 C   0  0  0  0  0  0  0  0  0  0  0  0
  1  2  1  0
  2  3  1  0
  3  4  2  0
  4  5  1  0
  5  6  2  0
  6  7  1  0
  7  8  2  0
  8  9  1  0
  9 10  2  0
 10 11  1  0
 10 12  1  0
 12 13  1  0
 12 14  1  0
  7 15  1  0
 15 16  1  0
 16 17  2  0
 17 18  1  0
 18 19  2  0
 18 20  1  0
 20 25  1  0
 25 26  2  0
 26 27  1  0
 27 28  2  0
 28 29  1  0
 29 30  2  0
 30 31  1  0
 31 37  1  0
 37 38  2  0
 38 39  1  0
 39 40  2  0
 40 41  1  0
 41 42  2  0
 31 32  2  0
 32 33  1  0
 33 34  2  0
 34 35  1  0
 35 36  1  0
 20 21  2  0
 21 22  1  0
 22 23  1  0
 23 24  1  0
 14  3  1  0
 22 15  2  0
  9  4  1  0
 35 26  1  0
 24  6  1  0
 33 28  1  0
 42 37  1  0
M  CHG  2  10   1  14  -1
M  END
>  <minimizedAffinity>  (91) 
-17.58949

$$$$
Mol: 152_37 - SminaDock
     RDKit          3D

 39 45  0  0  0  0  0  0  0  0999 V2000
    6.3964   -2.4341  -17.1678 H   0  0  0  0  0  0  0  0  0  0  0  0
    6.4700   -1.4558  -16.9193 O   0  0  0  0  0  0  0  0  0  0  0  0
    5.7083   -0.8236  -15.9565 C   0  0  0  0  0  0  0  0  0  0  0  0
    4.5101   -1.2200  -15.5601 N   0  0  0  0  0  0  0  0  0  0  0  0
    3.7702   -0.5858  -14.6084 C   0  0  0  0  0  0  0  0  0  0  0  0
    2.6372   -1.0303  -14.2896 O   0  0  0  0  0  0  0  0  0  0  0  0
    4.3211    0.5089  -14.0571 N   0  0  0  0  0  0  0  0  0  0  0  0
    5.5459    0.9769  -14.4118 C   0  0  0  0  0  0  0  0  0  0  0  0
    6.0557    2.1270  -13.7902 C   0  0  0  0  0  0  0  0  0  0  0  0
    7.3028    2.5652  -14.1811 C   0  0  0  0  0  0  0  0  0  0  0  0
    8.0309    1.8940  -15.1554 C   0  0  0  0  0  0  0  0  0  0  0  0
    7.5175    0.7612  -15.7611 C   0  0  0  0  0  0  0  0  0  0  0  0
    6.2670    0.3138  -15.3754 C   0  0  0  0  0  0  0  0  0  0  0  0
    7.8225    3.7595  -13.5281 C   0  0  0  0  0  0  0  0  0  0  0  0
    9.0553    4.2603  -13.8640 C   0  0  0  0  0  0  0  0  0  0  0  0
    9.5585    5.4051  -13.2449 C   0  0  0  0  0  0  0  0  0  0  0  0
    8.7939    6.0235  -12.2896 C   0  0  0  0  0  0  0  0  0  0  0  0
    7.5536    5.5652  -11.9150 C   0  0  0  0  0  0  0  0  0  0  0  0
    7.0779    4.4146  -12.5550 C   0  0  0  0  0  0  0  0  0  0  0  0
    5.7587    3.9572  -12.1272 C   0  0  0  0  0  0  0  0  0  0  0  0
    5.2044    2.7587  -12.7785 C   0  0  0  0  0  0  0  0  0  0  0  0
    9.3679    7.1973  -11.6845 N   0  0  0  0  0  0  0  0  0  0  0  0
    9.7035    7.1354  -10.4553 C   0  0  0  0  0  0  0  0  0  0  0  0
    9.5276    6.0154   -9.7520 N   0  0  0  0  0  0  0  0  0  0  0  0
    9.8707    5.9188   -8.4343 C   0  0  0  0  0  0  0  0  0  0  0  0
   10.4118    7.0279   -7.8431 C   0  0  0  0  0  0  0  0  0  0  0  0
   10.7790    7.0039   -6.5161 C   0  0  0  0  0  0  0  0  0  0  0  0
   11.3228    8.1474   -5.9457 C   0  0  0  0  0  0  0  0  0  0  0  0
   11.5052    9.3047   -6.6702 C   0  0  0  0  0  0  0  0  0  0  0  0
   11.1287    9.3003   -7.9967 C   0  0  0  0  0  0  0  0  0  0  0  0
   10.5863    8.1795   -8.5888 C   0  0  0  0  0  0  0  0  0  0  0  0
   10.2343    8.2163   -9.8678 N   0  0  0  0  0  0  0  0  0  0  0  0
   10.3710    9.0964  -10.4263 H   0  0  0  0  0  0  0  0  0  0  0  0
   11.6880    8.0707   -4.5539 C   0  0  0  0  0  0  0  0  0  0  0  0
   12.0593    9.2018   -3.8739 C   0  0  0  0  0  0  0  0  0  0  0  0
   12.4160    9.1439   -2.5340 C   0  0  0  0  0  0  0  0  0  0  0  0
   12.3929    7.9299   -1.8904 C   0  0  0  0  0  0  0  0  0  0  0  0
   12.0246    6.7987   -2.5594 C   0  0  0  0  0  0  0  0  0  0  0  0
   11.6721    6.8722   -3.8927 C   0  0  0  0  0  0  0  0  0  0  0  0
  1  2  1  0
  2  3  1  0
  3  4  1  0
  4  5  1  0
  5  6  2  0
  5  7  1  0
  7  8  2  0
  8  9  1  0
  9 10  2  0
 10 11  1  0
 11 12  2  0
 12 13  1  0
 10 14  1  0
 14 15  2  0
 15 16  1  0
 16 17  2  0
 17 22  1  0
 22 23  2  0
 23 24  1  0
 24 25  2  0
 25 26  1  0
 26 27  2  0
 27 28  1  0
 28 34  1  0
 34 35  2  0
 35 36  1  0
 36 37  2  0
 37 38  1  0
 38 39  2  0
 28 29  2  0
 29 30  1  0
 30 31  2  0
 31 32  1  0
 32 33  1  0
 17 18  1  0
 18 19  2  0
 19 20  1  0
 20 21  1  0
 13  3  2  0
 19 14  1  0
 13  8  1  0
 32 23  1  0
 21  9  1  0
 31 26  1  0
 39 34  1  0
M  CHG  1   4  -1
M  END
>  <minimizedAffinity>  (92) 
-17.55214

$$$$
Mol: 190_32 - SminaDock
     RDKit          3D

 43 50  0  0  0  0  0  0  0  0999 V2000
   12.4083    2.8814  -15.4816 H   0  0  0  0  0  0  0  0  0  0  0  0
   11.8151    3.0095  -16.2663 O   0  0  0  0  0  0  0  0  0  0  0  0
   10.6787    2.1446  -16.1921 C   0  0  2  0  0  0  0  0  0  0  0  0
    9.5438    2.7701  -16.8996 C   0  0  0  0  0  0  0  0  0  0  0  0
    8.2134    2.7142  -16.2561 C   0  0  0  0  0  0  0  0  0  0  0  0
    8.0173    1.9262  -15.0013 C   0  0  1  0  0  0  0  0  0  0  0  0
    7.7332    3.0224  -13.9887 C   0  0  0  0  0  0  0  0  0  0  0  0
    8.5651    4.0909  -13.5970 C   0  0  0  0  0  0  0  0  0  0  0  0
    8.1596    5.0050  -12.6642 C   0  0  0  0  0  0  0  0  0  0  0  0
    6.8761    4.8376  -12.1075 C   0  0  0  0  0  0  0  0  0  0  0  0
    6.0905    3.7988  -12.5017 C   0  0  0  0  0  0  0  0  0  0  0  0
    6.5060    2.8593  -13.4603 C   0  0  0  0  0  0  0  0  0  0  0  0
    5.8392    1.7084  -14.0569 C   0  0  0  0  0  0  0  0  0  0  0  0
    4.5623    1.1890  -13.8148 C   0  0  0  0  0  0  0  0  0  0  0  0
    4.1492    0.1133  -14.5101 C   0  0  0  0  0  0  0  0  0  0  0  0
    4.9890   -0.4513  -15.4399 C   0  0  0  0  0  0  0  0  0  0  0  0
    4.5671   -1.5709  -16.1582 C   0  0  0  0  0  0  0  0  0  0  0  0
    5.4268   -2.1232  -17.0801 C   0  0  0  0  0  0  0  0  0  0  0  0
    6.6517   -1.5988  -17.2906 N   0  0  0  0  0  0  0  0  0  0  0  0
    7.0867   -0.5152  -16.6095 C   0  0  0  0  0  0  0  0  0  0  0  0
    8.2245   -0.0434  -16.8172 O   0  0  0  0  0  0  0  0  0  0  0  0
    6.2513    0.0588  -15.6811 C   0  0  0  0  0  0  0  0  0  0  0  0
    6.7262    1.1913  -14.9708 C   0  0  0  0  0  0  0  0  0  0  0  0
    9.1380    1.2115  -14.3877 C   0  0  0  0  0  0  0  0  0  0  0  0
   10.4766    1.6532  -14.8149 C   0  0  0  0  0  0  0  0  0  0  0  0
    8.9881    6.0806  -12.2679 N   0  0  0  0  0  0  0  0  0  0  0  0
    9.3696    6.2359  -11.0657 C   0  0  0  0  0  0  0  0  0  0  0  0
   10.1343    7.1778  -10.5508 N   0  0  0  0  0  0  0  0  0  0  0  0
   10.4969    7.3819   -9.2994 C   0  0  0  0  0  0  0  0  0  0  0  0
   11.3113    8.4261   -8.9180 C   0  0  0  0  0  0  0  0  0  0  0  0
   11.6534    8.5719   -7.5894 C   0  0  0  0  0  0  0  0  0  0  0  0
   11.1913    7.6735   -6.6043 C   0  0  0  0  0  0  0  0  0  0  0  0
   10.3847    6.6558   -7.0247 C   0  0  0  0  0  0  0  0  0  0  0  0
   10.0284    6.4898   -8.3379 C   0  0  0  0  0  0  0  0  0  0  0  0
    9.2194    5.4699   -8.8113 C   0  0  0  0  0  0  0  0  0  0  0  0
    8.9002    5.3412  -10.1053 N   0  0  0  0  0  0  0  0  0  0  0  0
    8.2984    4.5871  -10.4161 H   0  0  0  0  0  0  0  0  0  0  0  0
   11.6363    7.8647   -5.2309 C   0  0  0  0  0  0  0  0  0  0  0  0
   12.3133    8.9366   -4.7654 C   0  0  0  0  0  0  0  0  0  0  0  0
   12.7024    9.0364   -3.4168 C   0  0  0  0  0  0  0  0  0  0  0  0
   12.4111    8.0358   -2.5095 C   0  0  0  0  0  0  0  0  0  0  0  0
   11.7213    6.9392   -2.9742 C   0  0  0  0  0  0  0  0  0  0  0  0
   11.3369    6.8453   -4.3069 C   0  0  0  0  0  0  0  0  0  0  0  0
  1  2  1  0
  3  2  1  1
  3  4  1  0
  4  5  1  0
  6  5  1  6
  6  7  1  0
  7  8  2  0
  8  9  1  0
  9 26  1  0
 26 27  2  0
 27 28  1  0
 28 29  2  0
 29 30  1  0
 30 31  2  0
 31 32  1  0
 32 38  1  0
 38 39  2  0
 39 40  1  0
 40 41  2  0
 41 42  1  0
 42 43  2  0
 32 33  2  0
 33 34  1  0
 34 35  2  0
 35 36  1  0
 36 37  1  0
  9 10  2  0
 10 11  1  0
 11 12  2  0
 12 13  1  0
 13 14  2  0
 14 15  1  0
 15 16  2  0
 16 17  1  0
 17 18  2  0
 18 19  1  0
 19 20  1  0
 20 21  2  0
 20 22  1  0
 22 23  2  0
  6 24  1  0
 24 25  1  0
 25  3  1  0
 23  6  1  0
 12  7  1  0
 23 13  1  0
 36 27  1  0
 22 16  1  0
 34 29  1  0
 43 38  1  0
M  CHG  1  19  -1
M  END
>  <minimizedAffinity>  (93) 
-17.55632

$$$$
Mol: 191_34 - SminaDock
     RDKit          3D

 43 50  0  0  0  0  0  0  0  0999 V2000
    2.0663   -0.0843  -14.2989 H   0  0  0  0  0  0  0  0  0  0  0  0
    2.8394   -0.7067  -14.5008 O   0  0  0  0  0  0  0  0  0  0  0  0
    4.0647   -0.1052  -14.7406 C   0  0  0  0  0  0  0  0  0  0  0  0
    4.5053    0.8956  -13.9821 N   0  0  0  0  0  0  0  0  0  0  0  0
    5.7062    1.4603  -14.2425 C   0  0  0  0  0  0  0  0  0  0  0  0
    6.5609    1.0947  -15.2507 C   0  0  0  0  0  0  0  0  0  0  0  0
    6.1105    0.0405  -16.0634 C   0  0  0  0  0  0  0  0  0  0  0  0
    6.8533   -0.4092  -17.1045 C   0  0  0  0  0  0  0  0  0  0  0  0
    6.4102   -1.4537  -17.9275 C   0  0  0  0  0  0  0  0  0  0  0  0
    7.2358   -1.9364  -19.0648 C   0  0  0  0  0  0  0  0  0  0  0  0
    5.1822   -2.0193  -17.6472 C   0  0  0  0  0  0  0  0  0  0  0  0
    4.4205   -1.5671  -16.5913 C   0  0  0  0  0  0  0  0  0  0  0  0
    4.8632   -0.5265  -15.7727 C   0  0  0  0  0  0  0  0  0  0  0  0
    7.7496    1.8687  -15.2156 C   0  0  2  0  0  0  0  0  0  0  0  0
    7.5077    2.9004  -14.1318 C   0  0  0  0  0  0  0  0  0  0  0  0
    8.3115    3.9562  -13.7188 C   0  0  0  0  0  0  0  0  0  0  0  0
    7.8853    4.7425  -12.6616 C   0  0  0  0  0  0  0  0  0  0  0  0
    6.6784    4.4534  -12.0528 C   0  0  0  0  0  0  0  0  0  0  0  0
    5.9113    3.3974  -12.4939 C   0  0  0  0  0  0  0  0  0  0  0  0
    6.3282    2.5905  -13.5653 C   0  0  0  0  0  0  0  0  0  0  0  0
    8.2712    2.5690  -16.3871 C   0  0  0  0  0  0  0  0  0  0  0  0
    9.7498    2.3397  -16.5424 C   0  0  0  0  0  0  0  0  0  0  0  0
   10.1440    1.0472  -16.5257 O   0  0  0  0  0  0  0  0  0  0  0  0
    9.7596    0.2863  -15.4643 C   0  0  0  0  0  0  0  0  0  0  0  0
    8.8391    0.9970  -14.5803 C   0  0  0  0  0  0  0  0  0  0  0  0
    8.6691    5.8222  -12.2103 N   0  0  0  0  0  0  0  0  0  0  0  0
    9.0721    5.9712  -10.9882 C   0  0  0  0  0  0  0  0  0  0  0  0
    8.7671    5.0717   -9.9943 C   0  0  0  0  0  0  0  0  0  0  0  0
    9.1919    5.2229   -8.6973 C   0  0  0  0  0  0  0  0  0  0  0  0
    9.9689    6.3410   -8.3740 C   0  0  0  0  0  0  0  0  0  0  0  0
   10.4136    6.5224   -7.0737 C   0  0  0  0  0  0  0  0  0  0  0  0
   11.1735    7.6340   -6.8030 C   0  0  0  0  0  0  0  0  0  0  0  0
   11.4803    8.5366   -7.7974 C   0  0  0  0  0  0  0  0  0  0  0  0
   11.0284    8.3358   -9.0777 C   0  0  0  0  0  0  0  0  0  0  0  0
   10.2499    7.2167   -9.4036 C   0  0  0  0  0  0  0  0  0  0  0  0
    9.8169    7.0386  -10.6671 N   0  0  0  0  0  0  0  0  0  0  0  0
   10.0795    7.7586  -11.3895 H   0  0  0  0  0  0  0  0  0  0  0  0
   11.6604    7.8486   -5.4222 C   0  0  0  0  0  0  0  0  0  0  0  0
   11.4131    6.8975   -4.4597 C   0  0  0  0  0  0  0  0  0  0  0  0
   11.8501    7.0547   -3.1487 C   0  0  0  0  0  0  0  0  0  0  0  0
   12.5508    8.1823   -2.7772 C   0  0  0  0  0  0  0  0  0  0  0  0
   12.8006    9.1466   -3.7563 C   0  0  0  0  0  0  0  0  0  0  0  0
   12.3585    8.9717   -5.0518 C   0  0  0  0  0  0  0  0  0  0  0  0
  1  2  1  0
  2  3  1  0
  3  4  2  0
  4  5  1  0
  5  6  2  0
  6  7  1  0
  7  8  2  0
  8  9  1  0
  9 10  1  0
  9 11  2  0
 11 12  1  0
 12 13  2  0
  6 14  1  0
 14 15  1  0
 15 16  2  0
 16 17  1  0
 17 26  1  0
 26 27  2  0
 27 28  1  0
 28 29  2  0
 29 30  1  0
 30 31  2  0
 31 32  1  0
 32 38  1  0
 38 39  2  0
 39 40  1  0
 40 41  2  0
 41 42  1  0
 42 43  2  0
 32 33  2  0
 33 34  1  0
 34 35  2  0
 35 36  1  0
 36 37  1  0
 17 18  2  0
 18 19  1  0
 19 20  2  0
 14 21  1  6
 21 22  1  0
 22 23  1  0
 23 24  1  0
 24 25  1  0
 13  3  1  0
 25 14  1  0
 20  5  1  0
 13  7  1  0
 20 15  1  0
 36 27  1  0
 35 30  1  0
 43 38  1  0
M  END
>  <minimizedAffinity>  (94) 
-17.62969

$$$$
Mol: 51_1 - SminaDock
     RDKit          3D

 46 54  0  0  0  0  0  0  0  0999 V2000
    9.6203    4.3341  -14.1887 C   0  0  0  0  0  0  0  0  0  0  0  0
    9.4443    5.2347  -13.1991 C   0  0  0  0  0  0  0  0  0  0  0  0
    8.2881    5.1710  -12.4043 C   0  0  0  0  0  0  0  0  0  0  0  0
    7.3141    4.2076  -12.5992 C   0  0  0  0  0  0  0  0  0  0  0  0
    6.2238    4.1757  -11.8192 N   0  0  0  0  0  0  0  0  0  0  0  0
    5.3047    3.2338  -12.0300 C   0  0  0  0  0  0  0  0  0  0  0  0
    5.4391    2.2902  -13.0251 C   0  0  0  0  0  0  0  0  0  0  0  0
    4.4743    1.3228  -13.2220 C   0  0  0  0  0  0  0  0  0  0  0  0
    4.6422    0.3997  -14.2192 C   0  0  0  0  0  0  0  0  0  0  0  0
    5.7506    0.4125  -15.0320 C   0  0  0  0  0  0  0  0  0  0  0  0
    6.7331    1.3829  -14.8453 C   0  0  0  0  0  0  0  0  0  0  0  0
    6.5664    2.3075  -13.8469 C   0  0  0  0  0  0  0  0  0  0  0  0
    7.5232    3.3031  -13.6139 C   0  0  0  0  0  0  0  0  0  0  0  0
    8.6320    3.3336  -14.4072 C   0  0  0  0  0  0  0  0  0  0  0  0
   10.3763    6.2382  -12.8993 N   0  0  0  0  0  0  0  0  0  0  0  0
   10.5891    6.7343  -11.7466 C   0  0  0  0  0  0  0  0  0  0  0  0
   11.5385    7.7159  -11.6090 C   0  0  0  0  0  0  0  0  0  0  0  0
   11.8223    8.3104  -10.3873 C   0  0  0  0  0  0  0  0  0  0  0  0
   11.0898    7.8621   -9.2847 C   0  0  0  0  0  0  0  0  0  0  0  0
   11.3296    8.4242   -8.0748 C   0  0  0  0  0  0  0  0  0  0  0  0
   10.6270    8.0274   -6.9361 C   0  0  0  0  0  0  0  0  0  0  0  0
    9.7020    7.0586   -7.1015 C   0  0  0  0  0  0  0  0  0  0  0  0
    9.4461    6.4735   -8.3424 C   0  0  0  0  0  0  0  0  0  0  0  0
   10.1527    6.8884   -9.4353 C   0  0  0  0  0  0  0  0  0  0  0  0
    9.9229    6.3440  -10.6672 N   0  0  0  0  0  0  0  0  0  0  0  0
    9.1974    5.5942  -10.7244 H   0  0  0  0  0  0  0  0  0  0  0  0
   10.9782    8.6420   -5.6790 C   0  0  0  0  0  0  0  0  0  0  0  0
   11.4794    8.0936   -4.5300 C   0  0  0  0  0  0  0  0  0  0  0  0
   11.8511    6.8308   -4.1272 C   0  0  0  0  0  0  0  0  0  0  0  0
   12.3136    6.6328   -2.8292 C   0  0  0  0  0  0  0  0  0  0  0  0
   12.4210    7.6388   -1.9125 C   0  0  0  0  0  0  0  0  0  0  0  0
   12.0536    8.9002   -2.2984 C   0  0  0  0  0  0  0  0  0  0  0  0
   11.5901    9.1021   -3.5988 C   0  0  0  0  0  0  0  0  0  0  0  0
   11.1658   10.2377   -4.1614 N   0  0  0  0  0  0  0  0  0  0  0  0
   10.8058    9.9733   -5.3801 N   0  0  0  0  0  0  0  0  0  0  0  0
   10.4328   10.6467   -6.0742 H   0  0  0  0  0  0  0  0  0  0  0  0
   14.2455    7.0508  -16.9542 C   0  0  0  0  0  0  0  0  0  0  0  0
   14.7706    5.9574  -17.6037 C   0  0  0  0  0  0  0  0  0  0  0  0
   14.2031    4.7012  -17.4966 C   0  0  0  0  0  0  0  0  0  0  0  0
   13.0775    4.5820  -16.7053 C   0  0  0  0  0  0  0  0  0  0  0  0
   12.4548    3.3672  -16.5384 C   0  0  0  0  0  0  0  0  0  0  0  0
   11.3227    3.2800  -15.7259 C   0  0  0  0  0  0  0  0  0  0  0  0
   10.7759    4.3331  -15.0715 C   0  0  0  0  0  0  0  0  0  0  0  0
   11.4335    5.5248  -15.2692 N   0  0  0  0  0  0  0  0  0  0  0  0
   12.5199    5.6487  -16.0386 C   0  0  0  0  0  0  0  0  0  0  0  0
   13.1271    6.8771  -16.1814 C   0  0  0  0  0  0  0  0  0  0  0  0
 37 38  2  0
 38 39  1  0
 39 40  2  0
 40 41  1  0
 41 42  2  0
 42 43  1  0
 43  1  1  0
  1  2  1  0
  2 15  1  0
 15 16  2  0
 16 17  1  0
 17 18  2  0
 18 19  1  0
 19 20  2  0
 20 21  1  0
 21 27  1  0
 27 28  2  0
 28 29  1  0
 29 30  2  0
 30 31  1  0
 31 32  2  0
 32 33  1  0
 33 34  2  0
 34 35  1  0
 35 36  1  0
 21 22  2  0
 22 23  1  0
 23 24  2  0
 24 25  1  0
 25 26  1  0
  2  3  2  0
  3  4  1  0
  4  5  2  0
  5  6  1  0
  6  7  2  0
  7  8  1  0
  8  9  2  0
  9 10  1  0
 10 11  2  0
 11 12  1  0
 12 13  2  0
 13 14  1  0
 43 44  2  0
 44 45  1  0
 45 46  2  0
 46 37  1  0
 45 40  1  0
 14  1  2  0
 25 16  1  0
 13  4  1  0
 24 19  1  0
 12  7  1  0
 35 27  1  0
 33 28  1  0
M  END
>  <minimizedAffinity>  (95) 
-17.62145

$$$$
Mol: 190_16 - SminaDock
     RDKit          3D

 43 50  0  0  0  0  0  0  0  0999 V2000
    6.6412   -4.3972  -16.2350 H   0  0  0  0  0  0  0  0  0  0  0  0
    6.4440   -4.0360  -17.1611 O   0  0  0  0  0  0  0  0  0  0  0  0
    5.9547   -2.7462  -17.3297 C   0  0  0  0  0  0  0  0  0  0  0  0
    5.8159   -1.9218  -16.3486 N   0  0  0  0  0  0  0  0  0  0  0  0
    5.2898   -0.5994  -16.6736 C   0  0  1  0  0  0  0  0  0  0  0  0
    3.8552   -0.7861  -17.0017 C   0  0  0  0  0  0  0  0  0  0  0  0
    3.4277   -0.8642  -18.1961 O   0  0  0  0  0  0  0  0  0  0  0  0
    2.9489   -0.8783  -15.9464 O   0  0  0  0  0  0  0  0  0  0  0  0
    3.3767   -0.8577  -14.5964 C   0  0  0  0  0  0  0  0  0  0  0  0
    4.4335    0.1983  -14.4751 C   0  0  0  0  0  0  0  0  0  0  0  0
    4.4479    1.0117  -13.3639 C   0  0  0  0  0  0  0  0  0  0  0  0
    5.4219    2.0014  -13.2292 C   0  0  0  0  0  0  0  0  0  0  0  0
    6.3420    2.1192  -14.2367 C   0  0  0  0  0  0  0  0  0  0  0  0
    6.3161    1.2845  -15.3629 C   0  0  0  0  0  0  0  0  0  0  0  0
    5.3554    0.3102  -15.4931 C   0  0  0  0  0  0  0  0  0  0  0  0
    7.2860    3.1957  -13.9430 C   0  0  0  0  0  0  0  0  0  0  0  0
    8.3734    3.6898  -14.6407 C   0  0  0  0  0  0  0  0  0  0  0  0
    9.1116    4.7323  -14.1322 C   0  0  0  0  0  0  0  0  0  0  0  0
    8.7409    5.2814  -12.8978 C   0  0  0  0  0  0  0  0  0  0  0  0
    7.6546    4.7710  -12.2243 C   0  0  0  0  0  0  0  0  0  0  0  0
    6.9032    3.7190  -12.7290 C   0  0  0  0  0  0  0  0  0  0  0  0
    5.7203    3.0126  -12.2052 C   0  0  0  0  0  0  0  0  0  0  0  0
    6.0608   -0.0435  -17.8450 C   0  0  0  0  0  0  0  0  0  0  0  0
    5.8885   -0.9714  -19.0079 C   0  0  0  0  0  0  0  0  0  0  0  0
    5.5964   -2.3098  -18.5926 O   0  0  0  0  0  0  0  0  0  0  0  0
    9.4774    6.3584  -12.3384 N   0  0  0  0  0  0  0  0  0  0  0  0
    9.7386    6.4548  -11.0899 C   0  0  0  0  0  0  0  0  0  0  0  0
    9.2869    5.4699  -10.2393 C   0  0  0  0  0  0  0  0  0  0  0  0
    9.5502    5.5411   -8.8871 C   0  0  0  0  0  0  0  0  0  0  0  0
   10.2778    6.6086   -8.3496 C   0  0  0  0  0  0  0  0  0  0  0  0
   10.5567    6.7087   -7.0064 C   0  0  0  0  0  0  0  0  0  0  0  0
   11.2756    7.7710   -6.5021 C   0  0  0  0  0  0  0  0  0  0  0  0
   11.7089    8.7383   -7.4008 C   0  0  0  0  0  0  0  0  0  0  0  0
   11.4303    8.6387   -8.7425 C   0  0  0  0  0  0  0  0  0  0  0  0
   10.7080    7.5685   -9.2389 C   0  0  0  0  0  0  0  0  0  0  0  0
   10.4330    7.4668  -10.5511 N   0  0  0  0  0  0  0  0  0  0  0  0
   10.7836    8.2247  -11.1909 H   0  0  0  0  0  0  0  0  0  0  0  0
   11.5786    7.8879   -5.0695 C   0  0  0  0  0  0  0  0  0  0  0  0
   11.4026    6.8056   -4.2279 C   0  0  0  0  0  0  0  0  0  0  0  0
   11.6821    6.9028   -2.8858 C   0  0  0  0  0  0  0  0  0  0  0  0
   12.1417    8.1019   -2.3956 C   0  0  0  0  0  0  0  0  0  0  0  0
   12.3280    9.2082   -3.2225 C   0  0  0  0  0  0  0  0  0  0  0  0
   12.0387    9.0785   -4.5635 C   0  0  0  0  0  0  0  0  0  0  0  0
  1  2  1  0
  2  3  1  0
  3  4  2  0
  4  5  1  0
  5  6  1  0
  6  7  2  0
  6  8  1  0
  8  9  1  0
  9 10  1  0
 10 11  2  0
 11 12  1  0
 12 13  2  0
 13 14  1  0
 14 15  2  0
 13 16  1  0
 16 17  2  0
 17 18  1  0
 18 19  2  0
 19 26  1  0
 26 27  2  0
 27 28  1  0
 28 29  2  0
 29 30  1  0
 30 31  2  0
 31 32  1  0
 32 38  1  0
 38 39  2  0
 39 40  1  0
 40 41  2  0
 41 42  1  0
 42 43  2  0
 32 33  2  0
 33 34  1  0
 34 35  2  0
 35 36  1  0
 36 37  1  0
 19 20  1  0
 20 21  2  0
 21 22  1  0
  5 23  1  6
 23 24  1  0
 24 25  1  0
 25  3  1  0
 15  5  1  0
 21 16  1  0
 15 10  1  0
 36 27  1  0
 22 12  1  0
 35 30  1  0
 43 38  1  0
M  END
>  <minimizedAffinity>  (96) 
-17.59448

$$$$
Mol: 114_47 - SminaDock
     RDKit          3D

 53 60  0  0  0  0  0  0  0  0999 V2000
    5.1387   -4.6844  -17.1511 H   0  0  0  0  0  0  0  0  0  0  0  0
    4.9192   -4.0099  -17.8904 O   0  0  0  0  0  0  0  0  0  0  0  0
    5.5775   -2.8046  -17.9552 C   0  0  0  0  0  0  0  0  0  0  0  0
    5.5431   -1.9116  -16.9643 C   0  0  0  0  0  0  0  0  0  0  0  0
    4.8299   -2.1630  -15.8054 C   0  0  0  0  0  0  0  0  0  0  0  0
    4.8005   -1.2361  -14.7885 C   0  0  0  0  0  0  0  0  0  0  0  0
    5.4935   -0.0475  -14.9379 C   0  0  0  0  0  0  0  0  0  0  0  0
    6.2255    0.2468  -16.0910 C   0  0  0  0  0  0  0  0  0  0  0  0
    6.2210   -0.7198  -17.0811 C   0  0  0  0  0  0  0  0  0  0  0  0
    7.0176    1.4391  -16.4604 C   0  0  0  0  0  0  0  0  0  0  0  0
    7.9350    1.8709  -15.3621 C   0  0  2  0  0  0  0  0  0  0  0  0
    8.9776    2.8010  -15.8127 C   0  0  0  0  0  0  0  0  0  0  0  0
    8.7448    3.6108  -16.6893 O   0  0  0  0  0  0  0  0  0  0  0  0
   10.3397    2.7854  -15.2202 C   0  0  0  0  0  0  0  0  0  0  0  0
   10.8715    1.4467  -15.4736 N   0  0  0  0  0  0  0  0  0  0  0  0
   11.8760    1.2932  -15.6671 H   0  0  0  0  0  0  0  0  0  0  0  0
    9.9122    0.3836  -15.4350 C   0  0  0  0  0  0  0  0  0  0  0  0
   10.1844   -0.7144  -15.9853 O   0  0  0  0  0  0  0  0  0  0  0  0
    8.6320    0.6572  -14.7313 C   0  0  0  0  0  0  0  0  0  0  0  0
    7.0978    2.5630  -14.3334 C   0  0  0  0  0  0  0  0  0  0  0  0
    7.5055    3.8243  -14.0047 C   0  0  0  0  0  0  0  0  0  0  0  0
    6.8694    4.6271  -13.0761 C   0  0  0  0  0  0  0  0  0  0  0  0
    5.7530    4.1041  -12.4516 C   0  0  0  0  0  0  0  0  0  0  0  0
    5.2975    2.8306  -12.7481 C   0  0  0  0  0  0  0  0  0  0  0  0
    5.9685    2.0815  -13.6766 C   0  0  0  0  0  0  0  0  0  0  0  0
    5.3872    0.7560  -13.8942 C   0  0  0  0  0  0  0  0  0  0  0  0
    6.3174   -2.5023  -19.1147 N   0  0  0  0  0  0  0  0  0  0  0  0
    7.3200   -2.2647  -19.0500 H   0  0  0  0  0  0  0  0  0  0  0  0
    5.8548   -2.5180  -20.0375 H   0  0  0  0  0  0  0  0  0  0  0  0
    7.3393    5.9695  -12.7527 C   0  0  0  0  0  0  0  0  0  0  0  0
    6.4648    7.0359  -12.8652 C   0  0  0  0  0  0  0  0  0  0  0  0
    6.8473    8.3279  -12.5797 C   0  0  0  0  0  0  0  0  0  0  0  0
    8.1763    8.5384  -12.1626 C   0  0  0  0  0  0  0  0  0  0  0  0
    9.0766    7.5287  -12.0353 C   0  0  0  0  0  0  0  0  0  0  0  0
    8.6208    6.2314  -12.3427 C   0  0  0  0  0  0  0  0  0  0  0  0
   10.4010    7.6725  -11.6500 N   0  0  0  0  0  0  0  0  0  0  0  0
   11.1402    7.7047  -12.3988 H   0  0  0  0  0  0  0  0  0  0  0  0
   10.8414    7.7792  -10.3108 C   0  0  0  0  0  0  0  0  0  0  0  0
   12.0367    8.3927  -10.0339 N   0  0  0  0  0  0  0  0  0  0  0  0
   12.4688    8.5218   -8.7774 C   0  0  0  0  0  0  0  0  0  0  0  0
   11.7499    8.0530   -7.7010 C   0  0  0  0  0  0  0  0  0  0  0  0
   12.1685    8.1728   -6.3949 C   0  0  0  0  0  0  0  0  0  0  0  0
   11.3820    7.6740   -5.3719 C   0  0  0  0  0  0  0  0  0  0  0  0
   10.1713    7.0499   -5.6262 C   0  0  0  0  0  0  0  0  0  0  0  0
    9.7646    6.9362   -6.9290 C   0  0  0  0  0  0  0  0  0  0  0  0
   10.5366    7.4283   -7.9614 C   0  0  0  0  0  0  0  0  0  0  0  0
   10.1825    7.3426   -9.2401 N   0  0  0  0  0  0  0  0  0  0  0  0
   11.8289    7.8073   -3.9934 C   0  0  0  0  0  0  0  0  0  0  0  0
   12.0661    6.7033   -3.2080 C   0  0  0  0  0  0  0  0  0  0  0  0
   12.4909    6.8988   -1.8961 C   0  0  0  0  0  0  0  0  0  0  0  0
   12.6813    8.1525   -1.3590 C   0  0  0  0  0  0  0  0  0  0  0  0
   12.4418    9.2490   -2.1509 C   0  0  0  0  0  0  0  0  0  0  0  0
   12.0178    9.0649   -3.4612 C   0  0  0  0  0  0  0  0  0  0  0  0
  1  2  1  0
  2  3  1  0
  3  4  2  0
  4  5  1  0
  5  6  2  0
  6  7  1  0
  7  8  1  0
  8  9  2  0
  8 10  1  0
 11 10  1  6
 11 12  1  0
 12 13  2  0
 12 14  1  0
 14 15  1  0
 15 16  1  0
 15 17  1  0
 17 18  2  0
 17 19  1  0
 11 20  1  0
 20 21  2  0
 21 22  1  0
 22 30  1  0
 30 31  2  0
 31 32  1  0
 32 33  2  0
 33 34  1  0
 34 36  1  0
 36 37  1  0
 36 38  1  0
 38 39  2  0
 39 40  1  0
 40 41  2  0
 41 42  1  0
 42 43  2  0
 43 48  1  0
 48 49  2  0
 49 50  1  0
 50 51  2  0
 51 52  1  0
 52 53  2  0
 43 44  1  0
 44 45  2  0
 45 46  1  0
 46 47  2  0
 34 35  2  0
 22 23  2  0
 23 24  1  0
 24 25  2  0
 25 26  1  0
  3 27  1  0
 27 28  1  0
 27 29  1  0
  9  4  1  0
 19 11  1  0
 25 20  1  0
 26  7  2  0
 35 30  1  0
 47 38  1  0
 46 41  1  0
 53 48  1  0
M  END
>  <minimizedAffinity>  (97) 
-17.61832

$$$$
Mol: 167_58 - SminaDock
     RDKit          3D

 40 46  0  0  0  0  0  0  0  0999 V2000
    2.1611    0.0469  -13.9280 H   0  0  0  0  0  0  0  0  0  0  0  0
    3.0818    0.4307  -13.7146 O   0  0  0  0  0  0  0  0  0  0  0  0
    4.2447    0.0052  -14.3408 C   0  0  0  0  0  0  0  0  0  0  0  0
    4.3186   -1.1332  -15.0445 N   0  0  0  0  0  0  0  0  0  0  0  0
    5.4365   -1.5803  -15.6692 C   0  0  0  0  0  0  0  0  0  0  0  0
    5.4243   -2.8032  -16.3956 N   0  0  0  0  0  0  0  0  0  0  0  0
    4.5622   -3.1092  -16.8593 H   0  0  0  0  0  0  0  0  0  0  0  0
    6.2818   -3.3638  -16.4452 H   0  0  0  0  0  0  0  0  0  0  0  0
    6.5435   -0.8237  -15.5714 N   0  0  0  0  0  0  0  0  0  0  0  0
    6.5819    0.3393  -14.8891 C   0  0  0  0  0  0  0  0  0  0  0  0
    7.4915    1.2687  -14.6257 N   0  0  0  0  0  0  0  0  0  0  0  0
    7.0119    2.2773  -13.8705 C   0  0  0  0  0  0  0  0  0  0  0  0
    5.7004    2.0019  -13.6130 C   0  0  0  0  0  0  0  0  0  0  0  0
    5.3639    0.7874  -14.2316 C   0  0  0  0  0  0  0  0  0  0  0  0
    4.8664    2.8756  -12.7731 C   0  0  0  0  0  0  0  0  0  0  0  0
    5.4111    4.1932  -12.4443 C   0  0  0  0  0  0  0  0  0  0  0  0
    6.8530    4.4191  -12.6399 C   0  0  0  0  0  0  0  0  0  0  0  0
    7.4110    5.5814  -12.1121 C   0  0  0  0  0  0  0  0  0  0  0  0
    8.7552    5.7976  -12.3482 C   0  0  0  0  0  0  0  0  0  0  0  0
    9.5452    4.9125  -13.0778 C   0  0  0  0  0  0  0  0  0  0  0  0
    8.9254    3.7748  -13.5736 C   0  0  0  0  0  0  0  0  0  0  0  0
    7.5913    3.5214  -13.3608 C   0  0  0  0  0  0  0  0  0  0  0  0
    9.3794    6.9498  -11.8444 N   0  0  0  0  0  0  0  0  0  0  0  0
    9.7032    6.9628  -10.5719 C   0  0  0  0  0  0  0  0  0  0  0  0
   10.3023    8.0453  -10.0471 N   0  0  0  0  0  0  0  0  0  0  0  0
   10.6261    8.0293   -8.7245 C   0  0  0  0  0  0  0  0  0  0  0  0
   11.2452    9.1405   -8.1691 C   0  0  0  0  0  0  0  0  0  0  0  0
   11.5702    9.1218   -6.8363 C   0  0  0  0  0  0  0  0  0  0  0  0
   11.3163    8.0497   -5.9984 C   0  0  0  0  0  0  0  0  0  0  0  0
   10.7036    6.9689   -6.5803 C   0  0  0  0  0  0  0  0  0  0  0  0
   10.3639    6.9548   -7.9152 C   0  0  0  0  0  0  0  0  0  0  0  0
    9.7419    5.8502   -8.4934 C   0  0  0  0  0  0  0  0  0  0  0  0
    9.4353    5.8960   -9.7985 N   0  0  0  0  0  0  0  0  0  0  0  0
    8.9703    5.0564  -10.2067 H   0  0  0  0  0  0  0  0  0  0  0  0
   11.6710    8.0622   -4.5997 C   0  0  0  0  0  0  0  0  0  0  0  0
   11.6763    6.8518   -3.9217 C   0  0  0  0  0  0  0  0  0  0  0  0
   12.0121    6.8339   -2.5816 C   0  0  0  0  0  0  0  0  0  0  0  0
   12.3442    7.9824   -1.8890 C   0  0  0  0  0  0  0  0  0  0  0  0
   12.3331    9.1843   -2.5857 C   0  0  0  0  0  0  0  0  0  0  0  0
   11.9962    9.2199   -3.9398 C   0  0  0  0  0  0  0  0  0  0  0  0
  1  2  1  0
  2  3  1  0
  3  4  1  0
  4  5  1  0
  5  6  1  0
  6  7  1  0
  6  8  1  0
  5  9  2  0
  9 10  1  0
 10 11  2  0
 11 12  1  0
 12 13  2  0
 13 14  1  0
 13 15  1  0
 15 16  1  0
 16 17  1  0
 17 18  2  0
 18 19  1  0
 19 23  1  0
 23 24  2  0
 24 25  1  0
 25 26  2  0
 26 27  1  0
 27 28  2  0
 28 29  1  0
 29 35  1  0
 35 36  2  0
 36 37  1  0
 37 38  2  0
 38 39  1  0
 39 40  2  0
 29 30  2  0
 30 31  1  0
 31 32  2  0
 32 33  1  0
 33 34  1  0
 19 20  2  0
 20 21  1  0
 21 22  2  0
 14  3  2  0
 22 17  1  0
 14 10  1  0
 33 24  1  0
 22 12  1  0
 31 26  1  0
 40 35  1  0
M  CHG  1   4  -1
M  END
>  <minimizedAffinity>  (98) 
-17.64768

$$$$
Mol: 130_46 - SminaDock
     RDKit          3D

 42 49  0  0  0  0  0  0  0  0999 V2000
    8.5235    5.6080  -12.6510 C   0  0  0  0  0  0  0  0  0  0  0  0
    7.3440    5.1806  -12.0961 C   0  0  0  0  0  0  0  0  0  0  0  0
    6.6803    4.0716  -12.5846 C   0  0  0  0  0  0  0  0  0  0  0  0
    7.2408    3.3862  -13.6680 C   0  0  0  0  0  0  0  0  0  0  0  0
    8.4239    3.8105  -14.2266 C   0  0  0  0  0  0  0  0  0  0  0  0
    9.0666    4.9411  -13.7015 C   0  0  0  0  0  0  0  0  0  0  0  0
    9.0574    3.0780  -15.3108 C   0  0  1  0  0  0  0  0  0  0  0  0
    9.6665    4.0143  -16.3280 C   0  0  0  0  0  0  0  0  0  0  0  0
    9.4994    5.2314  -16.3656 O   0  0  0  0  0  0  0  0  0  0  0  0
   10.4937    3.4097  -17.3103 N   0  0  0  0  0  0  0  0  0  0  0  0
   11.2208    2.2125  -17.0728 C   0  0  0  0  0  0  0  0  0  0  0  0
   11.9558    1.6742  -17.9465 O   0  0  0  0  0  0  0  0  0  0  0  0
   11.0595    1.6566  -15.7625 N   0  0  0  0  0  0  0  0  0  0  0  0
   10.2322    2.2762  -14.7983 C   0  0  0  0  0  0  0  0  0  0  0  0
   10.4448    2.1787  -13.5581 O   0  0  0  0  0  0  0  0  0  0  0  0
    8.2035    2.1602  -16.0635 C   0  0  0  0  0  0  0  0  0  0  0  0
    7.0560    1.6008  -15.3364 C   0  0  0  0  0  0  0  0  0  0  0  0
    6.4563    0.4361  -15.8530 C   0  0  0  0  0  0  0  0  0  0  0  0
    5.3394   -0.0297  -15.2239 C   0  0  0  0  0  0  0  0  0  0  0  0
    4.7941    0.5897  -14.1258 C   0  0  0  0  0  0  0  0  0  0  0  0
    5.4004    1.7443  -13.6220 C   0  0  0  0  0  0  0  0  0  0  0  0
    6.5302    2.2311  -14.2412 C   0  0  0  0  0  0  0  0  0  0  0  0
    3.7272   -0.4198  -14.0554 C   0  0  0  0  0  0  0  0  0  0  0  0
    4.3063   -1.1171  -15.2550 C   0  0  0  0  0  0  0  0  0  0  0  0
   11.3202    7.9207   -6.4619 C   0  0  0  0  0  0  0  0  0  0  0  0
   11.6417    8.9792   -7.2560 C   0  0  0  0  0  0  0  0  0  0  0  0
   11.2817    8.9554   -8.5752 C   0  0  0  0  0  0  0  0  0  0  0  0
   10.5958    7.8730   -9.1163 C   0  0  0  0  0  0  0  0  0  0  0  0
   10.2788    6.8105   -8.2979 C   0  0  0  0  0  0  0  0  0  0  0  0
    9.6125    5.7443   -8.7948 N   0  0  0  0  0  0  0  0  0  0  0  0
    9.2791    5.7649  -10.0956 C   0  0  0  0  0  0  0  0  0  0  0  0
    9.5846    6.8145  -10.9329 C   0  0  0  0  0  0  0  0  0  0  0  0
    9.2279    6.7530  -12.1634 N   0  0  0  0  0  0  0  0  0  0  0  0
   10.2476    7.8680  -10.4247 N   0  0  0  0  0  0  0  0  0  0  0  0
   10.5013    8.6792  -11.0061 H   0  0  0  0  0  0  0  0  0  0  0  0
   10.6501    6.8449   -6.9562 C   0  0  0  0  0  0  0  0  0  0  0  0
   12.4030    7.9478   -2.3958 C   0  0  0  0  0  0  0  0  0  0  0  0
   11.6944    6.8708   -2.8921 C   0  0  0  0  0  0  0  0  0  0  0  0
   11.3460    6.8744   -4.2260 C   0  0  0  0  0  0  0  0  0  0  0  0
   11.7011    7.9364   -5.0451 C   0  0  0  0  0  0  0  0  0  0  0  0
   12.4071    9.0094   -4.5506 C   0  0  0  0  0  0  0  0  0  0  0  0
   12.7496    8.9941   -3.2150 C   0  0  0  0  0  0  0  0  0  0  0  0
 37 38  2  0
 38 39  1  0
 39 40  2  0
 40 25  1  0
 25 26  2  0
 26 27  1  0
 27 28  2  0
 28 29  1  0
 29 30  1  0
 30 31  2  0
 31 32  1  0
 32 33  2  0
 33  1  1  0
  1  2  2  0
  2  3  1  0
  3  4  2  0
  4  5  1  0
  5  6  2  0
  5  7  1  0
  7  8  1  0
  8  9  2  0
  8 10  1  0
 10 11  1  0
 11 12  2  0
 11 13  1  0
 13 14  1  0
 14 15  2  0
  7 16  1  6
 16 17  1  0
 17 18  2  0
 18 19  1  0
 19 20  2  0
 20 21  1  0
 21 22  2  0
 20 23  1  0
 23 24  1  0
 32 34  1  0
 34 35  1  0
 29 36  2  0
 40 41  1  0
 41 42  2  0
 42 37  1  0
 36 25  1  0
 34 28  1  0
  6  1  1  0
 14  7  1  0
 22 17  1  0
 22  4  1  0
 24 19  1  0
M  CHG  2  10  -1  13  -1
M  END
>  <minimizedAffinity>  (99) 
-17.55470

$$$$
Mol: 142_39 - SminaDock
     RDKit          3D

 43 50  0  0  0  0  0  0  0  0999 V2000
    8.7660    5.9160  -12.4056 C   0  0  0  0  0  0  0  0  0  0  0  0
    9.3205    5.3473  -13.5293 C   0  0  0  0  0  0  0  0  0  0  0  0
    8.7175    4.2499  -14.1622 C   0  0  0  0  0  0  0  0  0  0  0  0
    7.5490    3.7089  -13.6752 C   0  0  0  0  0  0  0  0  0  0  0  0
    6.9823    4.2621  -12.5608 C   0  0  0  0  0  0  0  0  0  0  0  0
    7.6023    5.3689  -11.9310 C   0  0  0  0  0  0  0  0  0  0  0  0
    5.7007    3.7712  -12.0374 C   0  0  0  0  0  0  0  0  0  0  0  0
    5.3008    2.4468  -12.4947 C   0  0  0  0  0  0  0  0  0  0  0  0
    5.8261    1.9428  -13.7687 C   0  0  0  0  0  0  0  0  0  0  0  0
    5.2124    0.8732  -14.3700 C   0  0  0  0  0  0  0  0  0  0  0  0
    5.7551    0.3588  -15.5552 C   0  0  0  0  0  0  0  0  0  0  0  0
    6.8684    0.9083  -16.0995 C   0  0  0  0  0  0  0  0  0  0  0  0
    7.4812    2.0127  -15.4581 C   0  0  0  0  0  0  0  0  0  0  0  0
    6.9581    2.5158  -14.3094 C   0  0  0  0  0  0  0  0  0  0  0  0
    7.6367    0.5962  -17.2956 C   0  0  0  0  0  0  0  0  0  0  0  0
    7.3835   -0.6492  -17.9771 C   0  0  0  0  0  0  0  0  0  0  0  0
    6.5634   -1.7049  -17.7201 C   0  0  0  0  0  0  0  0  0  0  0  0
    6.5123   -2.7855  -18.5435 N   0  0  0  0  0  0  0  0  0  0  0  0
    7.2617   -2.8440  -19.6244 N   0  0  0  0  0  0  0  0  0  0  0  0
    7.2310   -3.6586  -20.2567 H   0  0  0  0  0  0  0  0  0  0  0  0
    8.0997   -1.8271  -19.9382 C   0  0  0  0  0  0  0  0  0  0  0  0
    8.7898   -1.9243  -20.9698 O   0  0  0  0  0  0  0  0  0  0  0  0
    8.1779   -0.7141  -19.1257 C   0  0  0  0  0  0  0  0  0  0  0  0
    5.7088   -1.8095  -16.6290 O   0  0  0  0  0  0  0  0  0  0  0  0
    4.9475   -0.7964  -16.0564 C   0  0  0  0  0  0  0  0  0  0  0  0
   11.2856    8.0644   -5.9589 C   0  0  0  0  0  0  0  0  0  0  0  0
   11.5101    9.2193   -6.6786 C   0  0  0  0  0  0  0  0  0  0  0  0
   11.1412    9.2100   -8.0237 C   0  0  0  0  0  0  0  0  0  0  0  0
   10.5747    8.0782   -8.5923 C   0  0  0  0  0  0  0  0  0  0  0  0
   10.3635    6.9379   -7.8427 C   0  0  0  0  0  0  0  0  0  0  0  0
    9.7993    5.8555   -8.4743 C   0  0  0  0  0  0  0  0  0  0  0  0
    9.4725    5.9276   -9.7782 N   0  0  0  0  0  0  0  0  0  0  0  0
    9.6853    7.0502  -10.4985 C   0  0  0  0  0  0  0  0  0  0  0  0
    9.3465    7.0324  -11.7416 N   0  0  0  0  0  0  0  0  0  0  0  0
   10.2284    8.1061   -9.9085 N   0  0  0  0  0  0  0  0  0  0  0  0
   10.3844    8.9682  -10.4879 H   0  0  0  0  0  0  0  0  0  0  0  0
   10.7249    6.9306   -6.5033 C   0  0  0  0  0  0  0  0  0  0  0  0
   12.3635    7.9760   -1.9165 C   0  0  0  0  0  0  0  0  0  0  0  0
   12.3779    9.1767   -2.5795 C   0  0  0  0  0  0  0  0  0  0  0  0
   12.0184    9.2057   -3.9286 C   0  0  0  0  0  0  0  0  0  0  0  0
   11.6610    8.0379   -4.5540 C   0  0  0  0  0  0  0  0  0  0  0  0
   11.6506    6.8542   -3.8858 C   0  0  0  0  0  0  0  0  0  0  0  0
   12.0057    6.8011   -2.5402 C   0  0  0  0  0  0  0  0  0  0  0  0
 38 39  2  0
 39 40  1  0
 40 41  2  0
 41 26  1  0
 26 27  2  0
 27 28  1  0
 28 29  2  0
 29 30  1  0
 30 31  1  0
 31 32  2  0
 32 33  1  0
 33 34  2  0
 34  1  1  0
  1  2  2  0
  2  3  1  0
  3  4  2  0
  4  5  1  0
  5  6  2  0
  5  7  1  0
  7  8  1  0
  8  9  1  0
  9 10  2  0
 10 11  1  0
 11 12  2  0
 12 13  1  0
 13 14  2  0
 12 15  1  0
 15 16  1  0
 16 17  1  0
 17 18  2  0
 18 19  1  0
 19 20  1  0
 19 21  1  0
 21 22  2  0
 21 23  1  0
 17 24  1  0
 24 25  1  0
 33 35  1  0
 35 36  1  0
 30 37  2  0
 41 42  1  0
 42 43  2  0
 43 38  1  0
 37 26  1  0
 35 29  1  0
  6  1  1  0
 14  9  1  0
 23 16  2  0
 14  4  1  0
 25 11  1  0
M  END
>  <minimizedAffinity>  (100) 
-17.58389

$$$$
Mol: 142_45 - SminaDock
     RDKit          3D

 41 47  0  0  0  0  0  0  0  0999 V2000
    5.3907   -3.7483  -17.6591 H   0  0  0  0  0  0  0  0  0  0  0  0
    6.0707   -3.0045  -17.8697 N   0  0  0  0  0  0  0  0  0  0  0  0
    5.9313   -1.8384  -17.3499 C   0  0  0  0  0  0  0  0  0  0  0  0
    6.8888   -0.8773  -17.6777 C   0  0  0  0  0  0  0  0  0  0  0  0
    7.1903    0.2639  -16.9388 C   0  0  0  0  0  0  0  0  0  0  0  0
    6.5576    0.7831  -15.8306 C   0  0  0  0  0  0  0  0  0  0  0  0
    7.2575    1.8870  -15.3195 C   0  0  0  0  0  0  0  0  0  0  0  0
    6.7505    2.5141  -14.2123 C   0  0  0  0  0  0  0  0  0  0  0  0
    5.5909    2.0774  -13.6155 C   0  0  0  0  0  0  0  0  0  0  0  0
    4.9050    0.9736  -14.1406 C   0  0  0  0  0  0  0  0  0  0  0  0
    5.3965    0.3292  -15.2523 C   0  0  0  0  0  0  0  0  0  0  0  0
    4.5672   -0.7316  -15.6028 C   0  0  0  0  0  0  0  0  0  0  0  0
    3.3358   -0.8481  -14.9800 O   0  0  0  0  0  0  0  0  0  0  0  0
    2.9126   -1.7273  -14.7116 H   0  0  0  0  0  0  0  0  0  0  0  0
    4.8255   -1.7210  -16.5278 C   0  0  0  0  0  0  0  0  0  0  0  0
    5.0205    2.6768  -12.4143 C   0  0  0  0  0  0  0  0  0  0  0  0
    5.5809    3.9527  -11.9544 C   0  0  0  0  0  0  0  0  0  0  0  0
    6.8555    4.3339  -12.5506 C   0  0  0  0  0  0  0  0  0  0  0  0
    7.5046    5.4456  -11.9702 C   0  0  0  0  0  0  0  0  0  0  0  0
    8.6802    5.8765  -12.5076 C   0  0  0  0  0  0  0  0  0  0  0  0
    9.2324    5.2330  -13.6096 C   0  0  0  0  0  0  0  0  0  0  0  0
    8.6070    4.1474  -14.1824 C   0  0  0  0  0  0  0  0  0  0  0  0
    7.4065    3.7021  -13.6374 C   0  0  0  0  0  0  0  0  0  0  0  0
    9.3209    6.9969  -11.9103 N   0  0  0  0  0  0  0  0  0  0  0  0
    9.6461    6.9934  -10.6701 C   0  0  0  0  0  0  0  0  0  0  0  0
    9.3688    5.9005   -9.9317 N   0  0  0  0  0  0  0  0  0  0  0  0
    9.6968    5.8572   -8.6229 C   0  0  0  0  0  0  0  0  0  0  0  0
   10.3206    6.9156   -7.9964 C   0  0  0  0  0  0  0  0  0  0  0  0
   10.6684    6.8949   -6.6507 C   0  0  0  0  0  0  0  0  0  0  0  0
   11.2926    7.9664   -6.0459 C   0  0  0  0  0  0  0  0  0  0  0  0
   11.5617    9.0708   -6.8340 C   0  0  0  0  0  0  0  0  0  0  0  0
   11.2232    9.1120   -8.1785 C   0  0  0  0  0  0  0  0  0  0  0  0
   10.5976    8.0294   -8.7706 C   0  0  0  0  0  0  0  0  0  0  0  0
   10.2559    8.0360  -10.0711 N   0  0  0  0  0  0  0  0  0  0  0  0
   10.4754    8.8942  -10.6441 H   0  0  0  0  0  0  0  0  0  0  0  0
   11.6570    7.9419   -4.6283 C   0  0  0  0  0  0  0  0  0  0  0  0
   11.9773    9.1404   -4.0219 C   0  0  0  0  0  0  0  0  0  0  0  0
   12.3276    9.1942   -2.6994 C   0  0  0  0  0  0  0  0  0  0  0  0
   12.3644    8.0381   -1.9514 C   0  0  0  0  0  0  0  0  0  0  0  0
   12.0390    6.8387   -2.5766 C   0  0  0  0  0  0  0  0  0  0  0  0
   11.6853    6.7689   -3.9040 C   0  0  0  0  0  0  0  0  0  0  0  0
  1  2  1  0
  2  3  2  0
  3  4  1  0
  4  5  2  0
  5  6  1  0
  6  7  2  0
  7  8  1  0
  8  9  2  0
  9 10  1  0
 10 11  2  0
 11 12  1  0
 12 13  1  0
 13 14  1  0
 12 15  2  0
  9 16  1  0
 16 17  1  0
 17 18  1  0
 18 19  2  0
 19 20  1  0
 20 24  1  0
 24 25  2  0
 25 26  1  0
 26 27  2  0
 27 28  1  0
 28 29  2  0
 29 30  1  0
 30 36  1  0
 36 37  2  0
 37 38  1  0
 38 39  2  0
 39 40  1  0
 40 41  2  0
 30 31  2  0
 31 32  1  0
 32 33  2  0
 33 34  1  0
 34 35  1  0
 20 21  2  0
 21 22  1  0
 22 23  2  0
 15  3  1  0
 23 18  1  0
 11  6  1  0
 34 25  1  0
 23  8  1  0
 33 28  1  0
 41 36  1  0
M  END
>  <minimizedAffinity>  (101) 
-17.55813

$$$$
Mol: 189_36 - SminaDock
     RDKit          3D

 42 49  0  0  0  0  0  0  0  0999 V2000
    3.1552   -0.5684  -19.4665 H   0  0  0  0  0  0  0  0  0  0  0  0
    4.1751   -0.4430  -19.5085 O   0  0  0  0  0  0  0  0  0  0  0  0
    4.9280   -0.5393  -18.3347 C   0  0  0  0  0  0  0  0  0  0  0  0
    4.5674   -0.0967  -17.1920 N   0  0  0  0  0  0  0  0  0  0  0  0
    5.5704   -0.3550  -16.1834 C   0  0  2  0  0  0  0  0  0  0  0  0
    5.1930   -1.6476  -15.5419 C   0  0  0  0  0  0  0  0  0  0  0  0
    5.7816   -2.7231  -15.7689 O   0  0  0  0  0  0  0  0  0  0  0  0
    4.1347   -1.6338  -14.6537 O   0  0  0  0  0  0  0  0  0  0  0  0
    3.4848   -0.3903  -14.3518 C   0  0  0  0  0  0  0  0  0  0  0  0
    4.5646    0.6499  -14.2060 C   0  0  0  0  0  0  0  0  0  0  0  0
    4.4897    1.5531  -13.1697 C   0  0  0  0  0  0  0  0  0  0  0  0
    5.5068    2.4925  -13.0731 C   0  0  0  0  0  0  0  0  0  0  0  0
    6.5533    2.5378  -13.9622 C   0  0  0  0  0  0  0  0  0  0  0  0
    6.5815    1.5997  -14.9943 C   0  0  0  0  0  0  0  0  0  0  0  0
    5.5921    0.6534  -15.1232 C   0  0  0  0  0  0  0  0  0  0  0  0
    7.4415    3.6289  -13.5862 C   0  0  0  0  0  0  0  0  0  0  0  0
    8.6248    4.1116  -14.1279 C   0  0  0  0  0  0  0  0  0  0  0  0
    9.2799    5.1820  -13.5652 C   0  0  0  0  0  0  0  0  0  0  0  0
    8.7922    5.8218  -12.4411 C   0  0  0  0  0  0  0  0  0  0  0  0
    7.6195    5.3476  -11.8998 C   0  0  0  0  0  0  0  0  0  0  0  0
    6.9469    4.2566  -12.4691 C   0  0  0  0  0  0  0  0  0  0  0  0
    5.6949    3.5611  -12.0947 C   0  0  0  0  0  0  0  0  0  0  0  0
    6.8333   -0.4732  -16.9811 C   0  0  0  0  0  0  0  0  0  0  0  0
    6.2894   -1.1838  -18.2371 C   0  0  0  0  0  0  0  0  0  0  0  0
    9.4800    6.9330  -11.8629 N   0  0  0  0  0  0  0  0  0  0  0  0
    9.7812    6.9342  -10.6088 C   0  0  0  0  0  0  0  0  0  0  0  0
    9.4492    5.8691   -9.7969 C   0  0  0  0  0  0  0  0  0  0  0  0
    9.7781    5.8940   -8.4721 N   0  0  0  0  0  0  0  0  0  0  0  0
   10.4226    6.9286   -7.9150 C   0  0  0  0  0  0  0  0  0  0  0  0
   10.7465    6.9334   -6.5681 C   0  0  0  0  0  0  0  0  0  0  0  0
   11.4083    8.0007   -6.0033 C   0  0  0  0  0  0  0  0  0  0  0  0
   11.7292    9.0532   -6.8359 C   0  0  0  0  0  0  0  0  0  0  0  0
   11.4157    9.0692   -8.1824 C   0  0  0  0  0  0  0  0  0  0  0  0
   10.7546    7.9992   -8.7383 C   0  0  0  0  0  0  0  0  0  0  0  0
   10.4271    7.9687  -10.0454 N   0  0  0  0  0  0  0  0  0  0  0  0
   10.6863    8.7892  -10.6572 H   0  0  0  0  0  0  0  0  0  0  0  0
   11.7642    8.0368   -4.5898 C   0  0  0  0  0  0  0  0  0  0  0  0
   11.7314    6.8535   -3.8778 C   0  0  0  0  0  0  0  0  0  0  0  0
   12.0544    6.7953   -2.5298 C   0  0  0  0  0  0  0  0  0  0  0  0
   12.4235    7.9391   -1.8531 C   0  0  0  0  0  0  0  0  0  0  0  0
   12.4555    9.1181   -2.5653 C   0  0  0  0  0  0  0  0  0  0  0  0
   12.1316    9.1849   -3.9233 C   0  0  0  0  0  0  0  0  0  0  0  0
  1  2  1  0
  2  3  1  0
  3  4  2  0
  4  5  1  0
  5  6  1  0
  6  7  2  0
  6  8  1  0
  8  9  1  0
  9 10  1  0
 10 11  2  0
 11 12  1  0
 12 13  2  0
 13 14  1  0
 14 15  2  0
 13 16  1  0
 16 17  2  0
 17 18  1  0
 18 19  2  0
 19 25  1  0
 25 26  2  0
 26 27  1  0
 27 28  2  0
 28 29  1  0
 29 30  2  0
 30 31  1  0
 31 37  1  0
 37 38  2  0
 38 39  1  0
 39 40  2  0
 40 41  1  0
 41 42  2  0
 31 32  2  0
 32 33  1  0
 33 34  2  0
 34 35  1  0
 35 36  1  0
 19 20  1  0
 20 21  2  0
 21 22  1  0
  5 23  1  6
 23 24  1  0
 24  3  1  0
 15  5  1  0
 21 16  1  0
 15 10  1  0
 35 26  1  0
 22 12  1  0
 34 29  1  0
 42 37  1  0
M  END
>  <minimizedAffinity>  (102) 
-17.58726

$$$$
Mol: 150_1 - SminaDock
     RDKit          3D

 42 48  0  0  0  0  0  0  0  0999 V2000
    8.7629    1.0024  -17.7507 H   0  0  0  0  0  0  0  0  0  0  0  0
    8.6712    0.2680  -17.0559 O   0  0  0  0  0  0  0  0  0  0  0  0
    7.4067   -0.1143  -16.5957 C   0  0  0  0  0  0  0  0  0  0  0  0
    6.7926    0.5791  -15.6517 C   0  0  0  0  0  0  0  0  0  0  0  0
    7.4299    1.7046  -15.1204 C   0  0  0  0  0  0  0  0  0  0  0  0
    6.8202    2.4446  -14.1431 C   0  0  0  0  0  0  0  0  0  0  0  0
    5.5617    2.0643  -13.6859 C   0  0  0  0  0  0  0  0  0  0  0  0
    4.9443    0.9383  -14.2294 C   0  0  0  0  0  0  0  0  0  0  0  0
    5.5602    0.1908  -15.2164 C   0  0  0  0  0  0  0  0  0  0  0  0
    4.8790   -0.9940  -15.7554 C   0  0  0  0  0  0  0  0  0  0  0  0
    5.3948   -1.5162  -17.0515 C   0  0  2  0  0  0  0  0  0  0  0  0
    5.2000   -2.9503  -17.1696 N   0  0  0  0  0  0  0  0  0  0  0  0
    6.0820   -3.4534  -17.4244 H   0  0  0  0  0  0  0  0  0  0  0  0
    4.4840   -3.2051  -17.8742 H   0  0  0  0  0  0  0  0  0  0  0  0
    6.8363   -1.2651  -17.1920 N   0  0  0  0  0  0  0  0  0  0  0  0
    7.4010   -1.9400  -17.7269 H   0  0  0  0  0  0  0  0  0  0  0  0
    4.9593    2.7675  -12.7432 C   0  0  0  0  0  0  0  0  0  0  0  0
    5.4624    3.9599  -12.0753 C   0  0  0  0  0  0  0  0  0  0  0  0
    6.7841    4.3639  -12.5519 C   0  0  0  0  0  0  0  0  0  0  0  0
    7.4231    5.4787  -12.0302 C   0  0  0  0  0  0  0  0  0  0  0  0
    8.6685    5.8898  -12.4540 C   0  0  0  0  0  0  0  0  0  0  0  0
    9.3126    5.1730  -13.4331 C   0  0  0  0  0  0  0  0  0  0  0  0
    8.6705    4.0389  -13.9688 C   0  0  0  0  0  0  0  0  0  0  0  0
    7.4259    3.6281  -13.5453 C   0  0  0  0  0  0  0  0  0  0  0  0
    9.3315    7.0229  -11.9323 N   0  0  0  0  0  0  0  0  0  0  0  0
    9.6640    7.0276  -10.6856 C   0  0  0  0  0  0  0  0  0  0  0  0
   10.3041    8.0895  -10.1261 N   0  0  0  0  0  0  0  0  0  0  0  0
   10.6486    8.0901   -8.8258 C   0  0  0  0  0  0  0  0  0  0  0  0
   11.2991    9.1653   -8.2502 C   0  0  0  0  0  0  0  0  0  0  0  0
   11.6486    9.1562   -6.9141 C   0  0  0  0  0  0  0  0  0  0  0  0
   11.3695    8.0841   -6.0916 C   0  0  0  0  0  0  0  0  0  0  0  0
   10.7201    7.0090   -6.6636 C   0  0  0  0  0  0  0  0  0  0  0  0
   10.3675    7.0156   -8.0073 C   0  0  0  0  0  0  0  0  0  0  0  0
    9.7166    5.9399   -8.5834 C   0  0  0  0  0  0  0  0  0  0  0  0
    9.3906    5.9808   -9.8865 N   0  0  0  0  0  0  0  0  0  0  0  0
    8.9000    5.1350  -10.2599 H   0  0  0  0  0  0  0  0  0  0  0  0
   11.7281    8.0510   -4.6785 C   0  0  0  0  0  0  0  0  0  0  0  0
   11.7012    6.8816   -3.9579 C   0  0  0  0  0  0  0  0  0  0  0  0
   12.0417    6.8445   -2.6098 C   0  0  0  0  0  0  0  0  0  0  0  0
   12.4217    8.0006   -1.9500 C   0  0  0  0  0  0  0  0  0  0  0  0
   12.4513    9.1723   -2.6621 C   0  0  0  0  0  0  0  0  0  0  0  0
   12.1082    9.1948   -4.0100 C   0  0  0  0  0  0  0  0  0  0  0  0
  1  2  1  0
  2  3  1  0
  3  4  2  0
  4  5  1  0
  5  6  2  0
  6  7  1  0
  7  8  1  0
  8  9  2  0
  9 10  1  0
 10 11  1  0
 11 12  1  1
 12 13  1  0
 12 14  1  0
 11 15  1  0
 15 16  1  0
  7 17  2  0
 17 18  1  0
 18 19  1  0
 19 20  2  0
 20 21  1  0
 21 25  1  0
 25 26  2  0
 26 27  1  0
 27 28  2  0
 28 29  1  0
 29 30  2  0
 30 31  1  0
 31 37  1  0
 37 38  2  0
 38 39  1  0
 39 40  2  0
 40 41  1  0
 41 42  2  0
 31 32  2  0
 32 33  1  0
 33 34  2  0
 34 35  1  0
 35 36  1  0
 21 22  2  0
 22 23  1  0
 23 24  2  0
 15  3  1  0
 24 19  1  0
  9  4  1  0
 35 26  1  0
 24  6  1  0
 33 28  1  0
 42 37  1  0
M  END
>  <minimizedAffinity>  (103) 
-17.57045

$$$$
Mol: 141_14 - SminaDock
     RDKit          3D

 46 53  0  0  0  0  0  0  0  0999 V2000
    8.4853    5.9349  -12.2643 C   0  0  0  0  0  0  0  0  0  0  0  0
    7.2333    5.6837  -11.7624 C   0  0  0  0  0  0  0  0  0  0  0  0
    6.4782    4.5751  -12.1642 C   0  0  0  0  0  0  0  0  0  0  0  0
    7.0387    3.7317  -13.0922 C   0  0  0  0  0  0  0  0  0  0  0  0
    8.2848    3.9222  -13.6338 C   0  0  0  0  0  0  0  0  0  0  0  0
    8.9862    5.0584  -13.1834 C   0  0  0  0  0  0  0  0  0  0  0  0
    8.9230    3.0139  -14.5992 C   0  0  1  0  0  0  0  0  0  0  0  0
    9.6007    3.8270  -15.6515 N   0  0  0  0  0  0  0  0  0  0  0  0
    9.3096    4.7449  -15.9837 H   0  0  0  0  0  0  0  0  0  0  0  0
   10.7068    3.0378  -16.0598 C   0  0  0  0  0  0  0  0  0  0  0  0
   11.3856    3.1156  -17.3062 N   0  0  0  0  0  0  0  0  0  0  0  0
   12.2113    2.5132  -17.5098 H   0  0  0  0  0  0  0  0  0  0  0  0
   11.0866    3.7724  -18.0575 H   0  0  0  0  0  0  0  0  0  0  0  0
   11.0013    2.2246  -15.0977 N   0  0  0  0  0  0  0  0  0  0  0  0
   11.7925    1.5170  -15.1364 H   0  0  0  0  0  0  0  0  0  0  0  0
   10.1350    2.4202  -14.0199 N   0  0  0  0  0  0  0  0  0  0  0  0
   10.3537    2.1800  -13.0488 H   0  0  0  0  0  0  0  0  0  0  0  0
    8.0684    1.9933  -15.1649 C   0  0  0  0  0  0  0  0  0  0  0  0
    6.7874    1.7411  -14.5363 C   0  0  0  0  0  0  0  0  0  0  0  0
    6.2668    2.5727  -13.5803 C   0  0  0  0  0  0  0  0  0  0  0  0
    5.0150    2.3050  -13.0356 C   0  0  0  0  0  0  0  0  0  0  0  0
    4.3171    1.1891  -13.4781 C   0  0  0  0  0  0  0  0  0  0  0  0
    4.8451    0.3607  -14.4346 C   0  0  0  0  0  0  0  0  0  0  0  0
    4.1217   -0.7597  -14.8672 C   0  0  0  0  0  0  0  0  0  0  0  0
    4.6257   -1.6069  -15.8267 C   0  0  0  0  0  0  0  0  0  0  0  0
    5.8718   -1.3179  -16.3528 C   0  0  0  0  0  0  0  0  0  0  0  0
    6.6053   -0.2221  -15.9453 C   0  0  0  0  0  0  0  0  0  0  0  0
    6.0706    0.6043  -14.9830 C   0  0  0  0  0  0  0  0  0  0  0  0
   11.3519    8.1078   -6.0212 C   0  0  0  0  0  0  0  0  0  0  0  0
   11.6473    9.1703   -6.8405 C   0  0  0  0  0  0  0  0  0  0  0  0
   11.2907    9.2187   -8.1753 C   0  0  0  0  0  0  0  0  0  0  0  0
   10.6045    8.1629   -8.7385 C   0  0  0  0  0  0  0  0  0  0  0  0
   10.3040    7.0929   -7.9247 C   0  0  0  0  0  0  0  0  0  0  0  0
    9.6157    6.0356   -8.4905 C   0  0  0  0  0  0  0  0  0  0  0  0
    9.2824    6.1011   -9.7720 N   0  0  0  0  0  0  0  0  0  0  0  0
    9.5633    7.1302  -10.5837 C   0  0  0  0  0  0  0  0  0  0  0  0
    9.1872    7.0793  -11.8063 N   0  0  0  0  0  0  0  0  0  0  0  0
   10.2327    8.1648  -10.0439 N   0  0  0  0  0  0  0  0  0  0  0  0
   10.4742    8.9888  -10.6356 H   0  0  0  0  0  0  0  0  0  0  0  0
   10.6644    7.0485   -6.5829 C   0  0  0  0  0  0  0  0  0  0  0  0
   12.4178    7.8349   -1.9170 C   0  0  0  0  0  0  0  0  0  0  0  0
   12.0496    6.7138   -2.6302 C   0  0  0  0  0  0  0  0  0  0  0  0
   11.7051    6.8331   -3.9740 C   0  0  0  0  0  0  0  0  0  0  0  0
   11.7225    8.0458   -4.6116 C   0  0  0  0  0  0  0  0  0  0  0  0
   12.0937    9.1486   -3.8769 C   0  0  0  0  0  0  0  0  0  0  0  0
   12.4380    9.0507   -2.5462 C   0  0  0  0  0  0  0  0  0  0  0  0
 41 42  2  0
 42 43  1  0
 43 44  2  0
 44 29  1  0
 29 30  2  0
 30 31  1  0
 31 32  2  0
 32 33  1  0
 33 34  1  0
 34 35  2  0
 35 36  1  0
 36 37  2  0
 37  1  1  0
  1  2  2  0
  2  3  1  0
  3  4  2  0
  4  5  1  0
  5  6  2  0
  5  7  1  0
  7  8  1  0
  8  9  1  0
  8 10  1  0
 10 11  1  0
 11 12  1  0
 11 13  1  0
 10 14  2  0
 14 15  1  0
 14 16  1  0
 16 17  1  0
  7 18  1  6
 18 19  1  0
 19 20  2  0
 20 21  1  0
 21 22  2  0
 22 23  1  0
 23 24  2  0
 24 25  1  0
 25 26  2  0
 26 27  1  0
 27 28  2  0
 36 38  1  0
 38 39  1  0
 33 40  2  0
 44 45  1  0
 45 46  2  0
 46 41  1  0
 40 29  1  0
 38 32  1  0
  6  1  1  0
 16  7  1  0
 28 19  1  0
 20  4  1  0
 28 23  1  0
M  CHG  1  14   1
M  END
>  <minimizedAffinity>  (104) 
-17.50435

$$$$
Mol: 141_5 - SminaDock
     RDKit          3D

 52 61  0  0  0  0  0  0  0  0999 V2000
    8.2492    5.4660  -12.2321 C   0  0  0  0  0  0  0  0  0  0  0  0
    6.9546    5.1937  -11.8598 C   0  0  0  0  0  0  0  0  0  0  0  0
    6.2734    4.1209  -12.3918 C   0  0  0  0  0  0  0  0  0  0  0  0
    6.9270    3.3189  -13.3154 C   0  0  0  0  0  0  0  0  0  0  0  0
    8.2168    3.5486  -13.7195 C   0  0  0  0  0  0  0  0  0  0  0  0
    8.8550    4.6377  -13.1549 C   0  0  0  0  0  0  0  0  0  0  0  0
    8.8714    2.6789  -14.7211 C   0  0  2  0  0  0  0  0  0  0  0  0
    8.0948    1.5135  -15.1494 C   0  0  0  0  0  0  0  0  0  0  0  0
    6.7495    1.3672  -14.7124 N   0  0  0  0  0  0  0  0  0  0  0  0
    6.1826    2.1904  -13.8380 C   0  0  0  0  0  0  0  0  0  0  0  0
    4.8745    1.7393  -13.6243 C   0  0  0  0  0  0  0  0  0  0  0  0
    4.6852    0.6229  -14.4013 C   0  0  0  0  0  0  0  0  0  0  0  0
    3.6017   -0.2143  -14.5804 C   0  0  0  0  0  0  0  0  0  0  0  0
    3.6794   -1.2861  -15.4371 C   0  0  0  0  0  0  0  0  0  0  0  0
    4.8532   -1.5196  -16.1195 C   0  0  0  0  0  0  0  0  0  0  0  0
    5.9454   -0.6620  -15.9280 C   0  0  0  0  0  0  0  0  0  0  0  0
    5.8441    0.3997  -15.0690 C   0  0  0  0  0  0  0  0  0  0  0  0
   10.2337    2.2043  -14.2122 C   0  0  0  0  0  0  0  0  0  0  0  0
   11.0278    1.5505  -15.2924 C   0  0  0  0  0  0  0  0  0  0  0  0
   10.8072    2.1136  -16.6382 C   0  0  0  0  0  0  0  0  0  0  0  0
    9.9223    2.9965  -16.8351 N   0  0  0  0  0  0  0  0  0  0  0  0
    9.0768    3.5419  -15.8933 N   0  0  1  0  0  0  0  0  0  0  0  0
    8.1241    3.6722  -16.3193 H   0  0  0  0  0  0  0  0  0  0  0  0
    9.4287    4.4637  -15.5107 H   0  0  0  0  0  0  0  0  0  0  0  0
   11.2081    7.9166   -5.9986 C   0  0  0  0  0  0  0  0  0  0  0  0
   11.4525    8.9272   -6.8984 C   0  0  0  0  0  0  0  0  0  0  0  0
   11.0640    8.8931   -8.2198 C   0  0  0  0  0  0  0  0  0  0  0  0
   10.3883    7.7710   -8.6583 C   0  0  0  0  0  0  0  0  0  0  0  0
   10.1139    6.7159   -7.7874 C   0  0  0  0  0  0  0  0  0  0  0  0
    9.4392    5.6361   -8.2957 C   0  0  0  0  0  0  0  0  0  0  0  0
    9.0476    5.5781   -9.5860 N   0  0  0  0  0  0  0  0  0  0  0  0
    9.3111    6.5925  -10.4239 C   0  0  0  0  0  0  0  0  0  0  0  0
    8.9468    6.5695  -11.6803 N   0  0  0  0  0  0  0  0  0  0  0  0
    9.9715    7.6557   -9.9373 N   0  0  0  0  0  0  0  0  0  0  0  0
   10.1695    8.4436  -10.6117 H   0  0  0  0  0  0  0  0  0  0  0  0
   10.5270    6.8050   -6.4752 C   0  0  0  0  0  0  0  0  0  0  0  0
   12.4943    8.1897   -1.9345 C   0  0  0  0  0  0  0  0  0  0  0  0
   12.1431    6.9738   -2.5078 C   0  0  0  0  0  0  0  0  0  0  0  0
   11.7256    6.8798   -3.8227 C   0  0  0  0  0  0  0  0  0  0  0  0
   11.6445    8.0135   -4.6177 C   0  0  0  0  0  0  0  0  0  0  0  0
   11.9930    9.2224   -4.0501 C   0  0  0  0  0  0  0  0  0  0  0  0
   12.4123    9.3069   -2.7252 C   0  0  0  0  0  0  0  0  0  0  0  0
   11.6710    1.5933  -17.7170 C   0  0  0  0  0  0  0  0  0  0  0  0
   11.6494    0.3662  -18.2569 N   0  0  0  0  0  0  0  0  0  0  0  0
   12.5855    0.2682  -19.2151 C   0  0  0  0  0  0  0  0  0  0  0  0
   12.9692   -0.7745  -20.0669 C   0  0  0  0  0  0  0  0  0  0  0  0
   13.9783   -0.5686  -20.9575 C   0  0  0  0  0  0  0  0  0  0  0  0
   14.6032    0.6612  -21.0043 C   0  0  0  0  0  0  0  0  0  0  0  0
   14.2388    1.6978  -20.1741 C   0  0  0  0  0  0  0  0  0  0  0  0
   13.2139    1.4930  -19.2678 C   0  0  0  0  0  0  0  0  0  0  0  0
   12.6238    2.2768  -18.3336 N   0  0  0  0  0  0  0  0  0  0  0  0
   12.9252    3.2780  -18.1703 H   0  0  0  0  0  0  0  0  0  0  0  0
 37 38  2  0
 38 39  1  0
 39 40  2  0
 40 25  1  0
 25 26  2  0
 26 27  1  0
 27 28  2  0
 28 29  1  0
 29 30  1  0
 30 31  2  0
 31 32  1  0
 32 33  2  0
 33  1  1  0
  1  2  2  0
  2  3  1  0
  3  4  2  0
  4  5  1  0
  5  6  2  0
  5  7  1  0
  7  8  1  6
  8  9  1  0
  9 10  1  0
 10 11  2  0
 11 12  1  0
 12 13  2  0
 13 14  1  0
 14 15  2  0
 15 16  1  0
 16 17  2  0
  7 18  1  0
 18 19  1  0
 19 20  1  0
 20 43  1  0
 43 44  2  0
 44 45  1  0
 45 46  2  0
 46 47  1  0
 47 48  2  0
 48 49  1  0
 49 50  2  0
 50 51  1  0
 51 52  1  0
 20 21  2  0
 21 22  1  0
 22 23  1  6
 22 24  1  0
 32 34  1  0
 34 35  1  0
 29 36  2  0
 40 41  1  0
 41 42  2  0
 42 37  1  0
 36 25  1  0
 34 28  1  0
  6  1  1  0
 22  7  1  0
 10  4  1  0
 17 12  1  0
 51 43  1  0
 17  9  1  0
 50 45  1  0
M  CHG  1  22   1
M  END
>  <minimizedAffinity>  (105) 
-17.50920

$$$$
Mol: 198_58 - SminaDock
     RDKit          3D

 44 51  0  0  0  0  0  0  0  0999 V2000
    9.0109    6.0351  -12.3785 C   0  0  0  0  0  0  0  0  0  0  0  0
    9.7851    5.5137  -13.3847 C   0  0  0  0  0  0  0  0  0  0  0  0
    9.3995    4.4068  -14.1332 C   0  0  0  0  0  0  0  0  0  0  0  0
    8.1919    3.8326  -13.8324 C   0  0  0  0  0  0  0  0  0  0  0  0
    7.3824    4.3359  -12.8184 C   0  0  0  0  0  0  0  0  0  0  0  0
    6.1877    3.7913  -12.5009 N   0  0  0  0  0  0  0  0  0  0  0  0
    5.7185    2.7327  -13.1498 C   0  0  0  0  0  0  0  0  0  0  0  0
    4.6211    2.1651  -12.9195 O   0  0  0  0  0  0  0  0  0  0  0  0
    6.4959    2.2003  -14.1688 C   0  0  0  0  0  0  0  0  0  0  0  0
    6.0625    1.1062  -14.8803 C   0  0  0  0  0  0  0  0  0  0  0  0
    6.8148    0.5384  -15.9190 C   0  0  0  0  0  0  0  0  0  0  0  0
    8.0129    1.0912  -16.2305 C   0  0  0  0  0  0  0  0  0  0  0  0
    8.4946    2.2238  -15.5168 C   0  0  0  0  0  0  0  0  0  0  0  0
    7.7273    2.7283  -14.5265 C   0  0  0  0  0  0  0  0  0  0  0  0
    8.8669    0.5600  -17.3111 C   0  0  2  0  0  0  0  0  0  0  0  0
    8.2505   -0.6042  -17.9478 C   0  0  0  0  0  0  0  0  0  0  0  0
    8.8684   -1.5189  -18.4514 O   0  0  0  0  0  0  0  0  0  0  0  0
    6.7608   -0.7005  -17.9962 C   0  0  1  0  0  0  0  0  0  0  0  0
    6.2512   -1.9071  -18.7079 C   0  0  0  0  0  0  0  0  0  0  0  0
    6.2063   -0.6341  -16.5897 C   0  0  0  0  0  0  0  0  0  0  0  0
   10.2412    0.2166  -16.7436 C   0  0  0  0  0  0  0  0  0  0  0  0
   11.3626    0.9005  -17.4898 C   0  0  0  0  0  0  0  0  0  0  0  0
   11.2989    0.5114  -18.9466 C   0  0  0  0  0  0  0  0  0  0  0  0
    9.9553    0.9858  -19.4615 C   0  0  0  0  0  0  0  0  0  0  0  0
    9.1168    1.6072  -18.3821 C   0  0  0  0  0  0  0  0  0  0  0  0
    7.8098    5.4491  -12.0927 C   0  0  0  0  0  0  0  0  0  0  0  0
   11.3131    8.1431   -5.6830 C   0  0  0  0  0  0  0  0  0  0  0  0
   11.2763    9.3002   -6.4179 C   0  0  0  0  0  0  0  0  0  0  0  0
   10.8941    9.3444   -7.7600 C   0  0  0  0  0  0  0  0  0  0  0  0
   10.5291    8.1791   -8.4072 C   0  0  0  0  0  0  0  0  0  0  0  0
   10.5627    7.0134   -7.6815 C   0  0  0  0  0  0  0  0  0  0  0  0
   10.9428    6.9706   -6.3474 C   0  0  0  0  0  0  0  0  0  0  0  0
   10.1881    5.8623   -8.3548 C   0  0  0  0  0  0  0  0  0  0  0  0
    9.8063    5.9065   -9.6771 C   0  0  0  0  0  0  0  0  0  0  0  0
    9.7807    7.1060  -10.3902 C   0  0  0  0  0  0  0  0  0  0  0  0
    9.4181    7.1659  -11.6239 N   0  0  0  0  0  0  0  0  0  0  0  0
   10.1502    8.2026   -9.7075 N   0  0  0  0  0  0  0  0  0  0  0  0
   10.1361    9.1237  -10.2368 H   0  0  0  0  0  0  0  0  0  0  0  0
   12.4715    7.9938   -1.6001 C   0  0  0  0  0  0  0  0  0  0  0  0
   12.1414    6.8423   -2.2914 C   0  0  0  0  0  0  0  0  0  0  0  0
   11.7629    6.9013   -3.6153 C   0  0  0  0  0  0  0  0  0  0  0  0
   11.7042    8.1055   -4.2814 C   0  0  0  0  0  0  0  0  0  0  0  0
   12.0268    9.2407   -3.6092 C   0  0  0  0  0  0  0  0  0  0  0  0
   12.4088    9.1909   -2.2768 C   0  0  0  0  0  0  0  0  0  0  0  0
 39 40  2  0
 40 41  1  0
 41 42  2  0
 42 27  1  0
 27 28  2  0
 28 29  1  0
 29 30  2  0
 30 31  1  0
 31 32  2  0
 31 33  1  0
 33 34  2  0
 34 35  1  0
 35 36  2  0
 36  1  1  0
  1  2  2  0
  2  3  1  0
  3  4  2  0
  4  5  1  0
  5  6  1  0
  6  7  1  0
  7  8  2  0
  7  9  1  0
  9 10  2  0
 10 11  1  0
 11 12  2  0
 12 13  1  0
 13 14  2  0
 12 15  1  0
 15 16  1  0
 16 17  2  0
 16 18  1  0
 18 19  1  1
 18 20  1  0
 15 21  1  1
 21 22  1  0
 22 23  1  0
 23 24  1  0
 24 25  1  0
  5 26  2  0
 35 37  1  0
 37 38  1  0
 42 43  1  0
 43 44  2  0
 44 39  1  0
 32 27  1  0
 26  1  1  0
 37 30  1  0
 14  4  1  0
 25 15  1  0
 14  9  1  0
 20 11  1  0
M  CHG  1   6  -1
M  END
>  <minimizedAffinity>  (106) 
-17.51982

$$$$
Mol: 191_51 - SminaDock
     RDKit          3D

 41 48  0  0  0  0  0  0  0  0999 V2000
    8.6440    5.7116  -12.5983 C   0  0  0  0  0  0  0  0  0  0  0  0
    9.0626    5.1791  -13.8132 C   0  0  0  0  0  0  0  0  0  0  0  0
    8.3697    4.1098  -14.3399 C   0  0  0  0  0  0  0  0  0  0  0  0
    7.2797    3.5766  -13.6744 C   0  0  0  0  0  0  0  0  0  0  0  0
    6.8423    4.0803  -12.4735 C   0  0  0  0  0  0  0  0  0  0  0  0
    7.5571    5.1641  -11.9548 C   0  0  0  0  0  0  0  0  0  0  0  0
    5.6658    3.3412  -11.9697 C   0  0  0  0  0  0  0  0  0  0  0  0
    5.4209    2.3222  -12.9934 C   0  0  0  0  0  0  0  0  0  0  0  0
    4.4657    1.3066  -13.1271 C   0  0  0  0  0  0  0  0  0  0  0  0
    4.4906    0.4825  -14.2309 C   0  0  0  0  0  0  0  0  0  0  0  0
    5.4289    0.6047  -15.2396 C   0  0  0  0  0  0  0  0  0  0  0  0
    6.3570    1.6114  -15.0841 C   0  0  0  0  0  0  0  0  0  0  0  0
    6.3664    2.4705  -13.9772 C   0  0  0  0  0  0  0  0  0  0  0  0
    5.4427   -0.2858  -16.4152 C   0  0  2  0  0  0  0  0  0  0  0  0
    4.0052   -0.5569  -16.7774 C   0  0  0  0  0  0  0  0  0  0  0  0
    3.6523   -0.6665  -17.9788 O   0  0  0  0  0  0  0  0  0  0  0  0
    3.0996   -0.6783  -15.7380 O   0  0  0  0  0  0  0  0  0  0  0  0
    3.4659   -0.6105  -14.3766 C   0  0  0  0  0  0  0  0  0  0  0  0
    6.1477   -1.6107  -16.1380 C   0  0  0  0  0  0  0  0  0  0  0  0
    6.4159   -2.2459  -17.4879 C   0  0  0  0  0  0  0  0  0  0  0  0
    7.4923   -1.6125  -18.1062 O   0  0  0  0  0  0  0  0  0  0  0  0
    7.5230   -0.2492  -17.8175 C   0  0  0  0  0  0  0  0  0  0  0  0
    6.1272    0.3093  -17.6238 C   0  0  0  0  0  0  0  0  0  0  0  0
   11.2525    7.8352   -6.2110 C   0  0  0  0  0  0  0  0  0  0  0  0
   11.6157    8.9028   -6.9994 C   0  0  0  0  0  0  0  0  0  0  0  0
   11.3021    8.9250   -8.3606 C   0  0  0  0  0  0  0  0  0  0  0  0
   10.6201    7.8620   -8.9182 C   0  0  0  0  0  0  0  0  0  0  0  0
   10.2569    6.7927   -8.1266 C   0  0  0  0  0  0  0  0  0  0  0  0
   10.5710    6.7699   -6.7613 C   0  0  0  0  0  0  0  0  0  0  0  0
    9.5809    5.7412   -8.6893 C   0  0  0  0  0  0  0  0  0  0  0  0
    9.2648    5.7398  -10.0157 C   0  0  0  0  0  0  0  0  0  0  0  0
    9.6306    6.8095  -10.7972 C   0  0  0  0  0  0  0  0  0  0  0  0
    9.3358    6.8046  -12.0415 N   0  0  0  0  0  0  0  0  0  0  0  0
   10.2991    7.8414  -10.2236 N   0  0  0  0  0  0  0  0  0  0  0  0
   10.5755    8.6524  -10.8202 H   0  0  0  0  0  0  0  0  0  0  0  0
   12.3210    7.9884   -2.0592 C   0  0  0  0  0  0  0  0  0  0  0  0
   11.9325    6.8065   -2.6640 C   0  0  0  0  0  0  0  0  0  0  0  0
   11.5909    6.7615   -3.9966 C   0  0  0  0  0  0  0  0  0  0  0  0
   11.6197    7.8884   -4.7888 C   0  0  0  0  0  0  0  0  0  0  0  0
   12.0063    9.0757   -4.1959 C   0  0  0  0  0  0  0  0  0  0  0  0
   12.3458    9.1089   -2.8624 C   0  0  0  0  0  0  0  0  0  0  0  0
 36 37  2  0
 37 38  1  0
 38 39  2  0
 39 24  1  0
 24 25  2  0
 25 26  1  0
 26 27  2  0
 27 28  1  0
 28 29  2  0
 28 30  1  0
 30 31  2  0
 31 32  1  0
 32 33  2  0
 33  1  1  0
  1  2  2  0
  2  3  1  0
  3  4  2  0
  4  5  1  0
  5  6  2  0
  5  7  1  0
  7  8  1  0
  8  9  2  0
  9 10  1  0
 10 11  2  0
 11 12  1  0
 12 13  2  0
 11 14  1  0
 14 15  1  0
 15 16  2  0
 15 17  1  0
 17 18  1  0
 14 19  1  1
 19 20  1  0
 20 21  1  0
 21 22  1  0
 22 23  1  0
 32 34  1  0
 34 35  1  0
 39 40  1  0
 40 41  2  0
 41 36  1  0
 29 24  1  0
  6  1  1  0
 13  8  1  0
 23 14  1  0
 34 27  1  0
 13  4  1  0
 18 10  1  0
M  END
>  <minimizedAffinity>  (107) 
-17.52636

$$$$
Mol: 162_27 - SminaDock
     RDKit          3D

 41 47  0  0  0  0  0  0  0  0999 V2000
    5.9536   -2.2174  -17.3058 H   0  0  0  0  0  0  0  0  0  0  0  0
    6.3153   -1.3606  -16.8172 N   0  0  0  0  0  0  0  0  0  0  0  0
    5.6765   -0.8033  -15.8591 C   0  0  0  0  0  0  0  0  0  0  0  0
    4.4759   -1.2724  -15.3898 C   0  0  0  0  0  0  0  0  0  0  0  0
    3.8382   -0.6238  -14.3578 C   0  0  0  0  0  0  0  0  0  0  0  0
    2.6052   -1.1241  -13.8900 O   0  0  0  0  0  0  0  0  0  0  0  0
    2.6703   -2.0881  -13.5257 H   0  0  0  0  0  0  0  0  0  0  0  0
    4.3842    0.4387  -13.8323 O   0  0  0  0  0  0  0  0  0  0  0  0
    5.5414    0.9235  -14.2566 C   0  0  0  0  0  0  0  0  0  0  0  0
    6.0878    2.0661  -13.6638 C   0  0  0  0  0  0  0  0  0  0  0  0
    7.2884    2.5810  -14.0958 C   0  0  0  0  0  0  0  0  0  0  0  0
    7.9788    1.9829  -15.1195 C   0  0  0  0  0  0  0  0  0  0  0  0
    7.4312    0.8481  -15.7053 C   0  0  0  0  0  0  0  0  0  0  0  0
    6.2408    0.3382  -15.2779 C   0  0  0  0  0  0  0  0  0  0  0  0
    7.8563    3.7975  -13.4676 C   0  0  0  0  0  0  0  0  0  0  0  0
    9.0297    4.3706  -13.8722 C   0  0  0  0  0  0  0  0  0  0  0  0
    9.4801    5.5419  -13.2410 C   0  0  0  0  0  0  0  0  0  0  0  0
    8.7844    6.1333  -12.2307 C   0  0  0  0  0  0  0  0  0  0  0  0
    7.6116    5.5575  -11.8257 C   0  0  0  0  0  0  0  0  0  0  0  0
    7.1584    4.3900  -12.4514 C   0  0  0  0  0  0  0  0  0  0  0  0
    5.9455    3.8262  -11.9997 N   0  0  0  0  0  0  0  0  0  0  0  0
    5.4689    4.2787  -11.1829 H   0  0  0  0  0  0  0  0  0  0  0  0
    5.3115    2.6687  -12.5783 C   0  0  0  0  0  0  0  0  0  0  0  0
    9.2856    7.3530  -11.6665 N   0  0  0  0  0  0  0  0  0  0  0  0
    9.6794    7.3396  -10.4139 C   0  0  0  0  0  0  0  0  0  0  0  0
    9.5799    6.1600   -9.7492 N   0  0  0  0  0  0  0  0  0  0  0  0
    9.9440    6.0262   -8.4632 C   0  0  0  0  0  0  0  0  0  0  0  0
   10.4433    7.1372   -7.7799 C   0  0  0  0  0  0  0  0  0  0  0  0
   10.8201    7.0202   -6.4512 C   0  0  0  0  0  0  0  0  0  0  0  0
   11.3080    8.1186   -5.7786 C   0  0  0  0  0  0  0  0  0  0  0  0
   11.4045    9.3087   -6.4638 C   0  0  0  0  0  0  0  0  0  0  0  0
   11.0293    9.4268   -7.7917 C   0  0  0  0  0  0  0  0  0  0  0  0
   10.5404    8.3145   -8.4531 C   0  0  0  0  0  0  0  0  0  0  0  0
   10.1557    8.3945   -9.7613 N   0  0  0  0  0  0  0  0  0  0  0  0
   10.2414    9.2965  -10.2439 H   0  0  0  0  0  0  0  0  0  0  0  0
   11.7130    8.0672   -4.3815 C   0  0  0  0  0  0  0  0  0  0  0  0
   11.7467    6.8565   -3.7306 C   0  0  0  0  0  0  0  0  0  0  0  0
   12.1393    6.7805   -2.3797 C   0  0  0  0  0  0  0  0  0  0  0  0
   12.4872    7.9343   -1.7220 C   0  0  0  0  0  0  0  0  0  0  0  0
   12.4573    9.1493   -2.3612 C   0  0  0  0  0  0  0  0  0  0  0  0
   12.0650    9.2133   -3.7076 C   0  0  0  0  0  0  0  0  0  0  0  0
  1  2  1  0
  2  3  2  0
  3  4  1  0
  4  5  2  0
  5  6  1  0
  6  7  1  0
  5  8  1  0
  8  9  1  0
  9 10  2  0
 10 11  1  0
 11 12  2  0
 12 13  1  0
 13 14  2  0
 11 15  1  0
 15 16  2  0
 16 17  1  0
 17 18  2  0
 18 24  1  0
 24 25  2  0
 25 26  1  0
 26 27  2  0
 27 28  1  0
 28 29  2  0
 29 30  1  0
 30 36  1  0
 36 37  2  0
 37 38  1  0
 38 39  2  0
 39 40  1  0
 40 41  2  0
 30 31  2  0
 31 32  1  0
 32 33  2  0
 33 34  1  0
 34 35  1  0
 18 19  1  0
 19 20  2  0
 20 21  1  0
 21 22  1  0
 21 23  1  0
 14  3  1  0
 20 15  1  0
 14  9  1  0
 34 25  1  0
 23 10  1  0
 33 28  1  0
 41 36  1  0
M  END
>  <minimizedAffinity>  (108) 
-17.47475

$$$$
Mol: 195_46 - SminaDock
     RDKit          3D

 43 50  0  0  0  0  0  0  0  0999 V2000
    7.7994    4.7018  -12.6755 C   0  0  0  0  0  0  0  0  0  0  0  0
    6.5537    4.4554  -12.1672 C   0  0  0  0  0  0  0  0  0  0  0  0
    5.8261    3.3677  -12.5916 C   0  0  0  0  0  0  0  0  0  0  0  0
    6.3292    2.4828  -13.5497 C   0  0  0  0  0  0  0  0  0  0  0  0
    7.5636    2.7046  -14.0695 C   0  0  0  0  0  0  0  0  0  0  0  0
    8.2947    3.8115  -13.6322 C   0  0  0  0  0  0  0  0  0  0  0  0
    7.8920    1.5999  -15.0487 C   0  0  2  0  0  0  0  0  0  0  0  0
    6.6470    0.7837  -15.0707 C   0  0  0  0  0  0  0  0  0  0  0  0
    5.7602    1.2989  -14.1635 C   0  0  0  0  0  0  0  0  0  0  0  0
    4.5265    0.7345  -13.9643 N   0  0  0  0  0  0  0  0  0  0  0  0
    3.8853    1.1596  -13.2628 H   0  0  0  0  0  0  0  0  0  0  0  0
    4.1998   -0.3417  -14.6827 C   0  0  0  0  0  0  0  0  0  0  0  0
    3.0590   -0.8814  -14.5124 O   0  0  0  0  0  0  0  0  0  0  0  0
    5.0506   -0.8623  -15.5780 N   0  0  0  0  0  0  0  0  0  0  0  0
    6.2529   -0.3256  -15.7829 C   0  0  0  0  0  0  0  0  0  0  0  0
    6.9925   -0.8429  -16.6211 O   0  0  0  0  0  0  0  0  0  0  0  0
    9.0734    0.8373  -14.4900 C   0  0  0  0  0  0  0  0  0  0  0  0
    9.9222    0.2171  -15.5295 C   0  0  0  0  0  0  0  0  0  0  0  0
   10.3760    1.1486  -16.5651 C   0  0  2  0  0  0  0  0  0  0  0  0
   11.7159    1.4971  -16.2235 F   0  0  0  0  0  0  0  0  0  0  0  0
    9.6163    2.4439  -16.6044 C   0  0  0  0  0  0  0  0  0  0  0  0
    8.1672    2.1940  -16.3843 C   0  0  0  0  0  0  0  0  0  0  0  0
   11.1731    7.6781   -6.8750 C   0  0  0  0  0  0  0  0  0  0  0  0
   11.4560    8.5550   -7.9015 C   0  0  0  0  0  0  0  0  0  0  0  0
   10.9860    8.3357   -9.1792 C   0  0  0  0  0  0  0  0  0  0  0  0
   10.2147    7.2375   -9.4962 C   0  0  0  0  0  0  0  0  0  0  0  0
    9.7582    7.0319  -10.7570 N   0  0  0  0  0  0  0  0  0  0  0  0
    9.0040    5.9538  -11.0583 C   0  0  0  0  0  0  0  0  0  0  0  0
    8.5979    5.8096  -12.2751 N   0  0  0  0  0  0  0  0  0  0  0  0
    8.7232    5.0947  -10.0666 N   0  0  0  0  0  0  0  0  0  0  0  0
    8.1425    4.2635  -10.2951 H   0  0  0  0  0  0  0  0  0  0  0  0
    9.1533    5.2553   -8.7989 C   0  0  0  0  0  0  0  0  0  0  0  0
    9.9252    6.3536   -8.4782 C   0  0  0  0  0  0  0  0  0  0  0  0
   10.3919    6.5668   -7.1988 C   0  0  0  0  0  0  0  0  0  0  0  0
   12.5283    8.1774   -2.9072 C   0  0  0  0  0  0  0  0  0  0  0  0
   12.7896    9.1570   -3.8479 C   0  0  0  0  0  0  0  0  0  0  0  0
   12.3439    8.9821   -5.1316 C   0  0  0  0  0  0  0  0  0  0  0  0
   11.6495    7.8758   -5.5228 C   0  0  0  0  0  0  0  0  0  0  0  0
   11.3924    6.9027   -4.5802 C   0  0  0  0  0  0  0  0  0  0  0  0
   11.8326    7.0533   -3.2690 C   0  0  0  0  0  0  0  0  0  0  0  0
   10.4265    0.5911  -17.9681 C   0  0  1  0  0  0  0  0  0  0  0  0
   11.7033    0.0027  -18.4830 C   0  0  0  0  0  0  0  0  0  0  0  0
   10.4100   -0.8242  -18.3023 C   0  0  0  0  0  0  0  0  0  0  0  0
 35 36  2  0
 36 37  1  0
 37 38  2  0
 38 23  1  0
 23 24  1  0
 24 25  2  0
 25 26  1  0
 26 27  2  0
 27 28  1  0
 28 29  2  0
 29  1  1  0
  1  2  2  0
  2  3  1  0
  3  4  2  0
  4  5  1  0
  5  6  2  0
  5  7  1  0
  7  8  1  0
  8  9  2  0
  9 10  1  0
 10 11  1  0
 10 12  1  0
 12 13  2  0
 12 14  1  0
 14 15  1  0
 15 16  2  0
  7 17  1  1
 17 18  1  0
 18 19  1  0
 19 20  1  1
 19 41  1  0
 41 42  1  1
 42 43  1  0
 19 21  1  0
 21 22  1  0
 28 30  1  0
 30 31  1  0
 30 32  1  0
 32 33  2  0
 33 34  1  0
 38 39  1  0
 39 40  2  0
 40 35  1  0
 34 23  2  0
 33 26  1  0
  6  1  1  0
 22  7  1  0
  9  4  1  0
 43 41  1  0
 15  8  1  0
M  CHG  1  14  -1
M  END
>  <minimizedAffinity>  (109) 
-17.46923

$$$$
Mol: 91_46 - SminaDock
     RDKit          3D

 50 57  0  0  0  0  0  0  0  0999 V2000
    6.3975    6.6782  -12.0011 H   0  0  0  0  0  0  0  0  0  0  0  0
    6.7029    5.7314  -11.7732 O   0  0  0  0  0  0  0  0  0  0  0  0
    7.2797    4.8949  -12.7847 C   0  0  0  0  0  0  0  0  0  0  0  0
    8.2522    5.3395  -13.3789 N   0  0  0  0  0  0  0  0  0  0  0  0
    9.0248    4.7592  -14.4333 C   0  0  0  0  0  0  0  0  0  0  0  0
   10.4342    4.4358  -13.8398 C   0  0  2  0  0  0  0  0  0  0  0  0
   10.5708    5.2868  -12.7242 O   0  0  0  0  0  0  0  0  0  0  0  0
   10.2594    6.5856  -12.9248 C   0  0  1  0  0  0  0  0  0  0  0  0
    8.7229    6.7078  -13.0286 C   0  0  0  0  0  0  0  0  0  0  0  0
   11.5219    4.7138  -14.7731 C   0  0  0  0  0  0  0  0  0  0  0  0
   11.8050    3.7957  -15.8642 C   0  0  0  0  0  0  0  0  0  0  0  0
   12.8304    4.3140  -16.6450 C   0  0  0  0  0  0  0  0  0  0  0  0
   13.2977    3.6408  -17.7517 C   0  0  0  0  0  0  0  0  0  0  0  0
   14.3052    4.1743  -18.5256 F   0  0  0  0  0  0  0  0  0  0  0  0
   12.7218    2.4246  -18.0752 C   0  0  0  0  0  0  0  0  0  0  0  0
   11.7013    1.8716  -17.3285 C   0  0  0  0  0  0  0  0  0  0  0  0
   11.2657    2.5762  -16.2346 C   0  0  0  0  0  0  0  0  0  0  0  0
   10.1751    1.9245  -15.5119 C   0  0  0  0  0  0  0  0  0  0  0  0
    9.5847    1.0224  -16.1546 O   0  0  0  0  0  0  0  0  0  0  0  0
    9.6600    2.1367  -14.1935 N   0  0  0  0  0  0  0  0  0  0  0  0
    8.8213    1.6305  -13.8763 H   0  0  0  0  0  0  0  0  0  0  0  0
   10.3043    3.0726  -13.2607 C   0  0  0  0  0  0  0  0  0  0  0  0
    6.6065    3.6224  -12.9261 C   0  0  0  0  0  0  0  0  0  0  0  0
    5.8755    3.0308  -11.9372 C   0  0  0  0  0  0  0  0  0  0  0  0
    5.2474    1.8171  -12.1688 C   0  0  0  0  0  0  0  0  0  0  0  0
    5.3368    1.1855  -13.3715 C   0  0  0  0  0  0  0  0  0  0  0  0
    4.6836   -0.0378  -13.5753 C   0  0  0  0  0  0  0  0  0  0  0  0
    4.7713   -0.6676  -14.7941 C   0  0  0  0  0  0  0  0  0  0  0  0
    5.5241   -0.0396  -15.7917 C   0  0  0  0  0  0  0  0  0  0  0  0
    6.1531    1.1453  -15.5897 C   0  0  0  0  0  0  0  0  0  0  0  0
    6.0762    1.7818  -14.3785 C   0  0  0  0  0  0  0  0  0  0  0  0
    6.7045    2.9942  -14.1449 C   0  0  0  0  0  0  0  0  0  0  0  0
   10.6664    7.3811  -11.7182 C   0  0  0  0  0  0  0  0  0  0  0  0
    9.6856    7.9600  -10.9520 C   0  0  0  0  0  0  0  0  0  0  0  0
   10.0189    8.6467   -9.7700 C   0  0  0  0  0  0  0  0  0  0  0  0
   11.3479    8.6970   -9.4401 C   0  0  0  0  0  0  0  0  0  0  0  0
   12.3649    8.1341  -10.1749 C   0  0  0  0  0  0  0  0  0  0  0  0
   11.9908    7.4603  -11.3492 C   0  0  0  0  0  0  0  0  0  0  0  0
   11.7348    9.3181   -8.2157 N   0  0  0  0  0  0  0  0  0  0  0  0
   11.7447    8.7375   -7.0728 C   0  0  0  0  0  0  0  0  0  0  0  0
   12.1067    9.2876   -5.8893 C   0  0  0  0  0  0  0  0  0  0  0  0
   12.0770    8.6216   -4.6937 C   0  0  0  0  0  0  0  0  0  0  0  0
   12.4519    9.2096   -3.4943 C   0  0  0  0  0  0  0  0  0  0  0  0
   12.4135    8.5090   -2.2891 C   0  0  0  0  0  0  0  0  0  0  0  0
   11.9891    7.1761   -2.2578 C   0  0  0  0  0  0  0  0  0  0  0  0
   11.6254    6.6342   -3.4678 C   0  0  0  0  0  0  0  0  0  0  0  0
   11.6641    7.3187   -4.6426 C   0  0  0  0  0  0  0  0  0  0  0  0
   11.2845    6.7247   -5.8610 C   0  0  0  0  0  0  0  0  0  0  0  0
   11.3327    7.4295   -7.0176 N   0  0  0  0  0  0  0  0  0  0  0  0
   11.0484    6.9649   -7.8881 H   0  0  0  0  0  0  0  0  0  0  0  0
  1  2  1  0
  2  3  1  0
  3 23  1  0
 23 24  2  0
 24 25  1  0
 25 26  2  0
 26 27  1  0
 27 28  2  0
 28 29  1  0
 29 30  2  0
 30 31  1  0
 31 32  2  0
  3  4  2  0
  4  5  1  0
  6  5  1  6
  6  7  1  0
  7  8  1  0
  8 33  1  1
 33 34  2  0
 34 35  1  0
 35 36  2  0
 36 39  1  0
 39 40  2  0
 40 41  1  0
 41 42  2  0
 42 43  1  0
 43 44  2  0
 44 45  1  0
 45 46  2  0
 46 47  1  0
 47 48  2  0
 48 49  1  0
 49 50  1  0
 36 37  1  0
 37 38  2  0
  8  9  1  0
  6 10  1  0
 10 11  1  0
 11 12  2  0
 12 13  1  0
 13 14  1  0
 13 15  2  0
 15 16  1  0
 16 17  2  0
 17 18  1  0
 18 19  2  0
 18 20  1  0
 20 21  1  0
 20 22  1  0
 32 23  1  0
  9  4  1  0
 17 11  1  0
 31 26  1  0
 22  6  1  0
 38 33  1  0
 49 40  1  0
 47 42  1  0
M  CHG  1   4   1
M  END
>  <minimizedAffinity>  (110) 
-17.50245

$$$$
Mol: 195_31 - SminaDock
     RDKit          3D

 39 45  0  0  0  0  0  0  0  0999 V2000
    2.0357   -1.1145  -13.8595 H   0  0  0  0  0  0  0  0  0  0  0  0
    2.8275   -0.5307  -13.6228 O   0  0  0  0  0  0  0  0  0  0  0  0
    3.8385   -0.4045  -14.5755 C   0  0  0  0  0  0  0  0  0  0  0  0
    3.9168   -1.2079  -15.6034 C   0  0  0  0  0  0  0  0  0  0  0  0
    4.9616   -1.1178  -16.6366 C   0  0  1  0  0  0  0  0  0  0  0  0
    5.6316   -2.4748  -16.7248 C   0  0  0  0  0  0  0  0  0  0  0  0
    4.3188   -0.8986  -18.0126 C   0  0  0  0  0  0  0  0  0  0  0  0
    5.8637   -0.0853  -16.4059 O   0  0  0  0  0  0  0  0  0  0  0  0
    5.8165    0.7857  -15.3320 C   0  0  0  0  0  0  0  0  0  0  0  0
    6.7514    1.7991  -15.1603 C   0  0  0  0  0  0  0  0  0  0  0  0
    6.6857    2.6567  -14.0823 C   0  0  0  0  0  0  0  0  0  0  0  0
    5.6814    2.5203  -13.1493 C   0  0  0  0  0  0  0  0  0  0  0  0
    4.7328    1.5145  -13.2972 C   0  0  0  0  0  0  0  0  0  0  0  0
    4.8186    0.6586  -14.3950 C   0  0  0  0  0  0  0  0  0  0  0  0
    5.7889    3.5299  -12.0816 C   0  0  0  0  0  0  0  0  0  0  0  0
    6.9835    4.3142  -12.4574 C   0  0  0  0  0  0  0  0  0  0  0  0
    7.5822    5.4076  -11.8215 C   0  0  0  0  0  0  0  0  0  0  0  0
    8.6967    5.9407  -12.4065 C   0  0  0  0  0  0  0  0  0  0  0  0
    9.2332    5.4406  -13.5788 C   0  0  0  0  0  0  0  0  0  0  0  0
    8.6152    4.3661  -14.1712 C   0  0  0  0  0  0  0  0  0  0  0  0
    7.4767    3.7876  -13.6137 C   0  0  0  0  0  0  0  0  0  0  0  0
    9.3419    7.0502  -11.8008 N   0  0  0  0  0  0  0  0  0  0  0  0
    9.6547    6.9870  -10.5691 C   0  0  0  0  0  0  0  0  0  0  0  0
    9.3859    5.8834   -9.8202 C   0  0  0  0  0  0  0  0  0  0  0  0
    9.7283    5.8277   -8.4925 C   0  0  0  0  0  0  0  0  0  0  0  0
   10.3488    6.8923   -7.9062 C   0  0  0  0  0  0  0  0  0  0  0  0
   10.7061    6.8612   -6.5636 C   0  0  0  0  0  0  0  0  0  0  0  0
   11.3331    7.9440   -5.9824 C   0  0  0  0  0  0  0  0  0  0  0  0
   11.5849    9.0427   -6.7845 C   0  0  0  0  0  0  0  0  0  0  0  0
   11.2333    9.0786   -8.1144 C   0  0  0  0  0  0  0  0  0  0  0  0
   10.6063    7.9943   -8.6935 C   0  0  0  0  0  0  0  0  0  0  0  0
   10.2750    8.0593   -9.9954 N   0  0  0  0  0  0  0  0  0  0  0  0
   10.4831    8.9146  -10.5769 H   0  0  0  0  0  0  0  0  0  0  0  0
   11.7210    7.9394   -4.5723 C   0  0  0  0  0  0  0  0  0  0  0  0
   11.7272    6.7960   -3.8060 C   0  0  0  0  0  0  0  0  0  0  0  0
   12.0893    6.7869   -2.4864 C   0  0  0  0  0  0  0  0  0  0  0  0
   12.4661    7.9745   -1.8919 C   0  0  0  0  0  0  0  0  0  0  0  0
   12.4688    9.1441   -2.6436 C   0  0  0  0  0  0  0  0  0  0  0  0
   12.1015    9.1221   -3.9617 C   0  0  0  0  0  0  0  0  0  0  0  0
  1  2  1  0
  2  3  1  0
  3  4  2  0
  4  5  1  0
  5  6  1  6
  5  7  1  0
  5  8  1  0
  8  9  1  0
  9 10  2  0
 10 11  1  0
 11 12  2  0
 12 13  1  0
 13 14  2  0
 12 15  1  0
 15 16  1  0
 16 17  2  0
 17 18  1  0
 18 22  1  0
 22 23  2  0
 23 24  1  0
 24 25  2  0
 25 26  1  0
 26 27  2  0
 27 28  1  0
 28 34  1  0
 34 35  2  0
 35 36  1  0
 36 37  2  0
 37 38  1  0
 38 39  2  0
 28 29  2  0
 29 30  1  0
 30 31  2  0
 31 32  1  0
 32 33  1  0
 18 19  2  0
 19 20  1  0
 20 21  2  0
 14  3  1  0
 21 16  1  0
 14  9  1  0
 32 23  1  0
 21 11  1  0
 31 26  1  0
 39 34  1  0
M  END
>  <minimizedAffinity>  (111) 
-17.54504

$$$$
Mol: 144_12 - SminaDock
     RDKit          3D

 42 49  0  0  0  0  0  0  0  0999 V2000
    8.5407    5.6549  -12.3409 C   0  0  0  0  0  0  0  0  0  0  0  0
    7.2523    5.3960  -11.9060 C   0  0  0  0  0  0  0  0  0  0  0  0
    6.5203    4.3122  -12.3400 C   0  0  0  0  0  0  0  0  0  0  0  0
    7.0991    3.4346  -13.2579 C   0  0  0  0  0  0  0  0  0  0  0  0
    8.3782    3.6823  -13.6966 C   0  0  0  0  0  0  0  0  0  0  0  0
    9.1172    4.7974  -13.2432 C   0  0  0  0  0  0  0  0  0  0  0  0
    9.0217    2.7960  -14.6527 C   0  0  1  0  0  0  0  0  0  0  0  0
    8.2734    1.7379  -15.0561 O   0  0  0  0  0  0  0  0  0  0  0  0
    7.0103    1.4290  -14.6698 C   0  0  0  0  0  0  0  0  0  0  0  0
    6.3797    2.2690  -13.7558 C   0  0  0  0  0  0  0  0  0  0  0  0
    5.1090    2.0011  -13.3358 C   0  0  0  0  0  0  0  0  0  0  0  0
    4.4537    0.8886  -13.8259 C   0  0  0  0  0  0  0  0  0  0  0  0
    5.0914    0.0462  -14.7450 C   0  0  0  0  0  0  0  0  0  0  0  0
    6.3676    0.2973  -15.1800 C   0  0  0  0  0  0  0  0  0  0  0  0
    6.7537   -0.7095  -16.1023 N   0  0  0  0  0  0  0  0  0  0  0  0
    7.6667   -0.7858  -16.5994 H   0  0  0  0  0  0  0  0  0  0  0  0
    5.6908   -1.6289  -16.2592 C   0  0  0  0  0  0  0  0  0  0  0  0
    5.6888   -2.6669  -17.0246 O   0  0  0  0  0  0  0  0  0  0  0  0
    4.5881   -1.1873  -15.3916 C   0  0  0  0  0  0  0  0  0  0  0  0
    9.2684    3.6627  -15.9157 C   0  0  0  0  0  0  0  0  0  0  0  0
   10.3362    2.9310  -16.6083 N   0  0  0  0  0  0  0  0  0  0  0  0
   10.7823    3.5236  -17.3158 H   0  0  0  0  0  0  0  0  0  0  0  0
   11.2700    2.7244  -15.5312 C   0  0  0  0  0  0  0  0  0  0  0  0
   10.4502    2.4563  -14.2895 C   0  0  0  0  0  0  0  0  0  0  0  0
   11.3492    8.0040   -6.0989 C   0  0  0  0  0  0  0  0  0  0  0  0
   11.7000    9.0362   -6.9449 C   0  0  0  0  0  0  0  0  0  0  0  0
   11.3481    8.9942   -8.2821 C   0  0  0  0  0  0  0  0  0  0  0  0
   10.6414    7.9330   -8.8185 C   0  0  0  0  0  0  0  0  0  0  0  0
   10.2966    7.8857  -10.1165 N   0  0  0  0  0  0  0  0  0  0  0  0
    9.5968    6.8258  -10.6269 C   0  0  0  0  0  0  0  0  0  0  0  0
    9.2712    6.7892  -11.8691 N   0  0  0  0  0  0  0  0  0  0  0  0
    9.2368    5.8014   -9.8343 N   0  0  0  0  0  0  0  0  0  0  0  0
    8.6931    4.9749  -10.2245 H   0  0  0  0  0  0  0  0  0  0  0  0
    9.5840    5.8524   -8.5354 C   0  0  0  0  0  0  0  0  0  0  0  0
   10.2879    6.8985   -7.9781 C   0  0  0  0  0  0  0  0  0  0  0  0
   10.6435    6.9500   -6.6464 C   0  0  0  0  0  0  0  0  0  0  0  0
   12.3811    7.9790   -1.9375 C   0  0  0  0  0  0  0  0  0  0  0  0
   12.4159    9.1544   -2.6725 C   0  0  0  0  0  0  0  0  0  0  0  0
   12.0833    9.1743   -4.0220 C   0  0  0  0  0  0  0  0  0  0  0  0
   11.7078    8.0163   -4.6671 C   0  0  0  0  0  0  0  0  0  0  0  0
   11.6798    6.8573   -3.9165 C   0  0  0  0  0  0  0  0  0  0  0  0
   12.0049    6.8115   -2.5780 C   0  0  0  0  0  0  0  0  0  0  0  0
 37 38  2  0
 38 39  1  0
 39 40  2  0
 40 25  1  0
 25 26  1  0
 26 27  2  0
 27 28  1  0
 28 29  2  0
 29 30  1  0
 30 31  2  0
 31  1  1  0
  1  2  2  0
  2  3  1  0
  3  4  2  0
  4  5  1  0
  5  6  2  0
  5  7  1  0
  7  8  1  0
  8  9  1  0
  9 10  2  0
 10 11  1  0
 11 12  2  0
 12 13  1  0
 13 14  2  0
 14 15  1  0
 15 16  1  0
 15 17  1  0
 17 18  2  0
 17 19  1  0
  7 20  1  6
 20 21  1  0
 21 22  1  0
 21 23  1  0
 23 24  1  0
 30 32  1  0
 32 33  1  0
 32 34  1  0
 34 35  2  0
 35 36  1  0
 40 41  1  0
 41 42  2  0
 42 37  1  0
 36 25  2  0
 35 28  1  0
  6  1  1  0
 24  7  1  0
 10  4  1  0
 19 13  1  0
 14  9  1  0
M  END
>  <minimizedAffinity>  (112) 
-17.49464

$$$$
Mol: 145_31 - SminaDock
     RDKit          3D

 40 46  0  0  0  0  0  0  0  0999 V2000
    8.4815    5.5063  -12.2564 C   0  0  0  0  0  0  0  0  0  0  0  0
    7.1911    5.3012  -11.8197 C   0  0  0  0  0  0  0  0  0  0  0  0
    6.4009    4.2448  -12.2922 C   0  0  0  0  0  0  0  0  0  0  0  0
    6.9756    3.4089  -13.2236 C   0  0  0  0  0  0  0  0  0  0  0  0
    8.2661    3.5931  -13.6717 C   0  0  0  0  0  0  0  0  0  0  0  0
    9.0112    4.6344  -13.1930 C   0  0  0  0  0  0  0  0  0  0  0  0
    8.8726    2.5945  -14.5880 C   0  0  0  0  0  0  0  0  0  0  0  0
    7.8466    2.1236  -15.5204 C   0  0  0  0  0  0  0  0  0  0  0  0
    6.6494    1.6098  -14.8631 C   0  0  0  0  0  0  0  0  0  0  0  0
    5.9722    0.5082  -15.3522 C   0  0  0  0  0  0  0  0  0  0  0  0
    4.7476    0.1707  -14.8034 C   0  0  0  0  0  0  0  0  0  0  0  0
    4.2199    0.9166  -13.7918 C   0  0  0  0  0  0  0  0  0  0  0  0
    4.8944    2.0352  -13.2786 C   0  0  0  0  0  0  0  0  0  0  0  0
    6.1092    2.3659  -13.8237 C   0  0  0  0  0  0  0  0  0  0  0  0
    4.0916   -1.0257  -15.4150 C   0  0  0  0  0  0  0  0  0  0  0  0
    4.2578   -0.9063  -16.9213 C   0  0  2  0  0  0  0  0  0  0  0  0
    3.4064   -1.8295  -17.6331 N   0  0  0  0  0  0  0  0  0  0  0  0
    2.9780   -2.5555  -17.0517 H   0  0  0  0  0  0  0  0  0  0  0  0
    3.7842   -2.1386  -18.5434 H   0  0  0  0  0  0  0  0  0  0  0  0
    5.6828   -0.9479  -17.3876 C   0  0  0  0  0  0  0  0  0  0  0  0
    6.5557   -0.3119  -16.4063 C   0  0  0  0  0  0  0  0  0  0  0  0
    7.8201   -0.4208  -16.3958 O   0  0  0  0  0  0  0  0  0  0  0  0
   11.3266    7.9539   -6.0468 C   0  0  0  0  0  0  0  0  0  0  0  0
   11.7030    8.9443   -6.9135 C   0  0  0  0  0  0  0  0  0  0  0  0
   11.3343    8.8327   -8.2388 C   0  0  0  0  0  0  0  0  0  0  0  0
   10.6060    7.7680   -8.7185 C   0  0  0  0  0  0  0  0  0  0  0  0
   10.2524    7.6637   -9.9968 N   0  0  0  0  0  0  0  0  0  0  0  0
    9.5393    6.6318  -10.4935 C   0  0  0  0  0  0  0  0  0  0  0  0
    9.2312    6.5944  -11.7427 N   0  0  0  0  0  0  0  0  0  0  0  0
    9.1815    5.6740   -9.6278 N   0  0  0  0  0  0  0  0  0  0  0  0
    8.6281    4.8453   -9.9430 H   0  0  0  0  0  0  0  0  0  0  0  0
    9.4995    5.7048   -8.3186 C   0  0  0  0  0  0  0  0  0  0  0  0
   10.2294    6.7702   -7.8340 C   0  0  0  0  0  0  0  0  0  0  0  0
   10.5992    6.8868   -6.5163 C   0  0  0  0  0  0  0  0  0  0  0  0
   12.3898    8.1277   -1.9248 C   0  0  0  0  0  0  0  0  0  0  0  0
   12.0390    6.9287   -2.5255 C   0  0  0  0  0  0  0  0  0  0  0  0
   11.6936    6.8883   -3.8751 C   0  0  0  0  0  0  0  0  0  0  0  0
   11.6924    8.0274   -4.6374 C   0  0  0  0  0  0  0  0  0  0  0  0
   12.0409    9.2195   -4.0409 C   0  0  0  0  0  0  0  0  0  0  0  0
   12.3889    9.2790   -2.6940 C   0  0  0  0  0  0  0  0  0  0  0  0
 35 36  2  0
 36 37  1  0
 37 38  2  0
 38 23  1  0
 23 24  1  0
 24 25  2  0
 25 26  1  0
 26 27  2  0
 27 28  1  0
 28 29  2  0
 29  1  1  0
  1  2  2  0
  2  3  1  0
  3  4  2  0
  4  5  1  0
  5  6  2  0
  5  7  1  0
  7  8  1  0
  8  9  1  0
  9 10  2  0
 10 11  1  0
 11 12  2  0
 12 13  1  0
 13 14  2  0
 11 15  1  0
 15 16  1  0
 16 17  1  6
 17 18  1  0
 17 19  1  0
 16 20  1  0
 20 21  1  0
 21 22  2  0
 28 30  1  0
 30 31  1  0
 30 32  1  0
 32 33  2  0
 33 34  1  0
 38 39  1  0
 39 40  2  0
 40 35  1  0
 34 23  2  0
 33 26  1  0
  6  1  1  0
 14  9  1  0
 14  4  1  0
 21 10  1  0
M  END
>  <minimizedAffinity>  (113) 
-17.49456

$$$$
Mol: 193_24 - SminaDock
     RDKit          3D

 48 57  0  0  0  0  0  0  0  0999 V2000
    5.0505    2.4794  -12.6444 O   0  0  0  0  0  0  0  0  0  0  0  0
    5.7041    2.0201  -13.6238 C   0  0  0  0  0  0  0  0  0  0  0  0
    5.1869    0.9577  -14.2976 C   0  0  0  0  0  0  0  0  0  0  0  0
    3.9980    0.3810  -13.9472 C   0  0  0  0  0  0  0  0  0  0  0  0
    3.4823   -0.6935  -14.6305 C   0  0  0  0  0  0  0  0  0  0  0  0
    4.1792   -1.2047  -15.6965 C   0  0  0  0  0  0  0  0  0  0  0  0
    5.3946   -0.6245  -16.0644 C   0  0  0  0  0  0  0  0  0  0  0  0
    5.9047    0.4518  -15.3748 C   0  0  0  0  0  0  0  0  0  0  0  0
    7.1044    1.0474  -15.7114 C   0  0  0  0  0  0  0  0  0  0  0  0
    7.6013    2.1181  -15.0135 C   0  0  0  0  0  0  0  0  0  0  0  0
    6.8935    2.5907  -13.9774 N   0  0  0  0  0  0  0  0  0  0  0  0
    7.5848    3.6929  -13.3918 C   0  0  0  0  0  0  0  0  0  0  0  0
    7.2708    4.4968  -12.3160 C   0  0  0  0  0  0  0  0  0  0  0  0
    8.0943    5.5253  -11.8998 C   0  0  0  0  0  0  0  0  0  0  0  0
    9.2657    5.7839  -12.5519 C   0  0  0  0  0  0  0  0  0  0  0  0
    9.5669    4.9534  -13.6457 C   0  0  0  0  0  0  0  0  0  0  0  0
    8.7572    3.9303  -14.0663 C   0  0  0  0  0  0  0  0  0  0  0  0
    8.8584    2.9203  -15.1805 C   0  0  1  0  0  0  0  0  0  0  0  0
   10.0794    2.0829  -14.9753 C   0  0  0  0  0  0  0  0  0  0  0  0
   11.2763    2.5540  -15.7762 C   0  0  0  0  0  0  0  0  0  0  0  0
   10.8795    2.4106  -17.2007 C   0  0  0  0  0  0  0  0  0  0  0  0
    9.6472    2.9146  -17.5560 C   0  0  0  0  0  0  0  0  0  0  0  0
    9.4981    2.6696  -18.8770 N   0  0  0  0  0  0  0  0  0  0  0  0
   10.5536    2.0476  -19.3702 N   0  0  0  0  0  0  0  0  0  0  0  0
   10.9299    1.5807  -20.5731 C   0  0  0  0  0  0  0  0  0  0  0  0
   12.1415    0.9538  -20.7773 C   0  0  0  0  0  0  0  0  0  0  0  0
   13.0234    0.7825  -19.7321 C   0  0  0  0  0  0  0  0  0  0  0  0
   12.6462    1.2575  -18.4959 C   0  0  0  0  0  0  0  0  0  0  0  0
   11.4259    1.8789  -18.3326 C   0  0  0  0  0  0  0  0  0  0  0  0
    8.8272    3.5663  -16.5152 C   0  0  0  0  0  0  0  0  0  0  0  0
   10.1828    6.8088  -12.2201 N   0  0  0  0  0  0  0  0  0  0  0  0
   10.5785    7.4120  -12.9988 H   0  0  0  0  0  0  0  0  0  0  0  0
   10.6533    7.1312  -10.9285 C   0  0  0  0  0  0  0  0  0  0  0  0
   11.8680    7.8224  -10.7794 C   0  0  0  0  0  0  0  0  0  0  0  0
   12.2827    8.1160   -9.5104 C   0  0  0  0  0  0  0  0  0  0  0  0
   11.5074    7.7301   -8.4373 C   0  0  0  0  0  0  0  0  0  0  0  0
   11.8901    8.0015   -7.1417 C   0  0  0  0  0  0  0  0  0  0  0  0
   11.1197    7.6134   -6.0734 C   0  0  0  0  0  0  0  0  0  0  0  0
    9.9284    6.9343   -6.2683 C   0  0  0  0  0  0  0  0  0  0  0  0
    9.5295    6.6546   -7.5457 C   0  0  0  0  0  0  0  0  0  0  0  0
   10.3171    7.0519   -8.6103 C   0  0  0  0  0  0  0  0  0  0  0  0
    9.9548    6.7884   -9.8658 N   0  0  0  0  0  0  0  0  0  0  0  0
   11.5480    7.9047   -4.6959 C   0  0  0  0  0  0  0  0  0  0  0  0
   11.7625    6.8491   -3.8146 C   0  0  0  0  0  0  0  0  0  0  0  0
   12.1540    7.1516   -2.5515 C   0  0  0  0  0  0  0  0  0  0  0  0
   12.3295    8.4429   -2.1640 C   0  0  0  0  0  0  0  0  0  0  0  0
   12.1198    9.4447   -3.0208 N   0  0  0  0  0  0  0  0  0  0  0  0
   11.7347    9.1935   -4.2707 C   0  0  0  0  0  0  0  0  0  0  0  0
  1  2  2  0
  2  3  1  0
  3  4  2  0
  4  5  1  0
  5  6  2  0
  6  7  1  0
  7  8  2  0
  8  9  1  0
  9 10  2  0
 10 11  1  0
 11 12  1  0
 12 13  2  0
 13 14  1  0
 14 15  2  0
 15 31  1  0
 31 33  1  0
 33 34  2  0
 34 35  1  0
 35 36  2  0
 36 37  1  0
 37 38  2  0
 38 43  1  0
 43 44  2  0
 44 45  1  0
 45 46  2  0
 46 47  1  0
 47 48  2  0
 38 39  1  0
 39 40  2  0
 40 41  1  0
 41 42  2  0
 15 16  1  0
 16 17  2  0
 17 18  1  0
 18 19  1  1
 19 20  1  0
 20 21  1  0
 21 22  1  0
 22 23  2  0
 23 24  1  0
 24 25  1  0
 25 26  2  0
 26 27  1  0
 27 28  2  0
 28 29  1  0
 22 30  1  0
 11  2  1  0
 17 12  1  0
 30 18  1  0
  8  3  1  0
 18 10  1  0
 29 21  2  0
 42 33  1  0
 29 24  1  0
 41 36  1  0
 48 43  1  0
 31 32  1  0
M  END
>  <minimizedAffinity>  (114) 
-17.46208

$$$$
Mol: 146_1 - SminaDock
     RDKit          3D

 38 44  0  0  0  0  0  0  0  0999 V2000
    8.6083    5.6380  -12.4156 C   0  0  0  0  0  0  0  0  0  0  0  0
    9.4158    4.9492  -13.3059 C   0  0  0  0  0  0  0  0  0  0  0  0
    8.8843    3.8219  -13.8948 C   0  0  0  0  0  0  0  0  0  0  0  0
    7.5992    3.3953  -13.6100 C   0  0  0  0  0  0  0  0  0  0  0  0
    6.8303    4.1022  -12.7280 C   0  0  0  0  0  0  0  0  0  0  0  0
    7.3491    5.2575  -12.1102 C   0  0  0  0  0  0  0  0  0  0  0  0
    5.4453    3.7460  -12.4559 C   0  0  0  0  0  0  0  0  0  0  0  0
    5.0866    2.3477  -12.7130 C   0  0  0  0  0  0  0  0  0  0  0  0
    5.8017    1.6825  -13.8077 C   0  0  0  0  0  0  0  0  0  0  0  0
    7.0537    2.1446  -14.1699 C   0  0  0  0  0  0  0  0  0  0  0  0
    7.7639    1.4812  -15.1175 C   0  0  0  0  0  0  0  0  0  0  0  0
    7.2396    0.3356  -15.7331 C   0  0  0  0  0  0  0  0  0  0  0  0
    6.0020   -0.1481  -15.4009 C   0  0  0  0  0  0  0  0  0  0  0  0
    5.3022    0.5426  -14.4366 C   0  0  0  0  0  0  0  0  0  0  0  0
    3.9538    0.2056  -13.9453 C   0  0  0  0  0  0  0  0  0  0  0  0
    3.3815   -0.9559  -14.7565 C   0  0  0  0  0  0  0  0  0  0  0  0
    3.3645   -0.6146  -16.1382 N   0  0  0  0  0  0  0  0  0  0  0  0
    3.4527    0.4134  -16.3056 H   0  0  0  0  0  0  0  0  0  0  0  0
    4.3580   -1.2967  -16.9022 C   0  0  0  0  0  0  0  0  0  0  0  0
    5.6440   -1.3893  -16.1623 C   0  0  0  0  0  0  0  0  0  0  0  0
   11.1984    8.0143   -6.0132 C   0  0  0  0  0  0  0  0  0  0  0  0
   11.3013    9.1185   -6.8341 C   0  0  0  0  0  0  0  0  0  0  0  0
   10.9215    9.1321   -8.1571 C   0  0  0  0  0  0  0  0  0  0  0  0
   10.4075    7.9717   -8.6933 C   0  0  0  0  0  0  0  0  0  0  0  0
   10.2875    6.8450   -7.9076 C   0  0  0  0  0  0  0  0  0  0  0  0
    9.7680    5.7098   -8.4893 C   0  0  0  0  0  0  0  0  0  0  0  0
    9.3917    5.7112   -9.7883 N   0  0  0  0  0  0  0  0  0  0  0  0
    9.5048    6.8044  -10.5617 C   0  0  0  0  0  0  0  0  0  0  0  0
    9.1453    6.8008  -11.7998 N   0  0  0  0  0  0  0  0  0  0  0  0
   10.0111    7.9083   -9.9918 N   0  0  0  0  0  0  0  0  0  0  0  0
   10.1055    8.7576  -10.5707 H   0  0  0  0  0  0  0  0  0  0  0  0
   10.6818    6.8677   -6.5730 C   0  0  0  0  0  0  0  0  0  0  0  0
   12.3961    7.9947   -1.9084 C   0  0  0  0  0  0  0  0  0  0  0  0
   12.0426    6.8405   -2.5666 C   0  0  0  0  0  0  0  0  0  0  0  0
   11.6570    6.8540   -3.8910 C   0  0  0  0  0  0  0  0  0  0  0  0
   11.6091    8.0316   -4.6154 C   0  0  0  0  0  0  0  0  0  0  0  0
   11.9649    9.1873   -3.9494 C   0  0  0  0  0  0  0  0  0  0  0  0
   12.3514    9.1751   -2.6231 C   0  0  0  0  0  0  0  0  0  0  0  0
 33 34  2  0
 34 35  1  0
 35 36  2  0
 36 21  1  0
 21 22  2  0
 22 23  1  0
 23 24  2  0
 24 25  1  0
 25 26  1  0
 26 27  2  0
 27 28  1  0
 28 29  2  0
 29  1  1  0
  1  2  2  0
  2  3  1  0
  3  4  2  0
  4  5  1  0
  5  6  2  0
  5  7  1  0
  7  8  1  0
  8  9  1  0
  9 10  2  0
 10 11  1  0
 11 12  2  0
 12 13  1  0
 13 14  2  0
 14 15  1  0
 15 16  1  0
 16 17  1  0
 17 18  1  0
 17 19  1  0
 19 20  1  0
 28 30  1  0
 30 31  1  0
 25 32  2  0
 36 37  1  0
 37 38  2  0
 38 33  1  0
 32 21  1  0
 30 24  1  0
  6  1  1  0
 14  9  1  0
 10  4  1  0
 20 13  1  0
M  END
>  <minimizedAffinity>  (115) 
-17.52674

$$$$
Mol: 197_2 - SminaDock
     RDKit          3D

 42 49  0  0  0  0  0  0  0  0999 V2000
    4.7786   -2.5007  -15.9768 H   0  0  0  0  0  0  0  0  0  0  0  0
    4.7422   -1.5088  -15.7480 O   0  0  0  0  0  0  0  0  0  0  0  0
    5.8891   -0.7269  -15.9250 C   0  0  0  0  0  0  0  0  0  0  0  0
    6.8300   -0.9509  -16.7638 N   0  0  0  0  0  0  0  0  0  0  0  0
    7.8317    0.0485  -16.6655 C   0  0  1  0  0  0  0  0  0  0  0  0
    7.3756    0.9546  -15.6162 C   0  0  0  0  0  0  0  0  0  0  0  0
    7.8763    2.1228  -15.0279 C   0  0  0  0  0  0  0  0  0  0  0  0
    7.1826    2.7651  -14.0260 C   0  0  0  0  0  0  0  0  0  0  0  0
    5.9732    2.2794  -13.5670 C   0  0  0  0  0  0  0  0  0  0  0  0
    5.4737    1.1253  -14.1460 C   0  0  0  0  0  0  0  0  0  0  0  0
    6.1731    0.4897  -15.1477 C   0  0  0  0  0  0  0  0  0  0  0  0
    5.2826    2.9523  -12.4680 C   0  0  0  0  0  0  0  0  0  0  0  0
    5.7090    4.3206  -12.1235 C   0  0  0  0  0  0  0  0  0  0  0  0
    7.0524    4.7278  -12.5314 C   0  0  0  0  0  0  0  0  0  0  0  0
    7.6386    5.8700  -11.9953 C   0  0  0  0  0  0  0  0  0  0  0  0
    8.8707    6.3234  -12.3831 C   0  0  0  0  0  0  0  0  0  0  0  0
    9.5386    5.6036  -13.3451 C   0  0  0  0  0  0  0  0  0  0  0  0
    9.0000    4.4582  -13.9110 C   0  0  0  0  0  0  0  0  0  0  0  0
    7.7546    4.0308  -13.4929 C   0  0  0  0  0  0  0  0  0  0  0  0
    9.2186   -0.5020  -16.4211 C   0  0  0  0  0  0  0  0  0  0  0  0
    9.7480   -0.8538  -17.7077 N   0  0  0  0  0  0  0  0  0  0  0  0
    9.7138   -1.8863  -17.8616 H   0  0  0  0  0  0  0  0  0  0  0  0
    8.9215   -0.2362  -18.7210 C   0  0  0  0  0  0  0  0  0  0  0  0
    8.0543    0.7761  -17.9942 C   0  0  0  0  0  0  0  0  0  0  0  0
    9.4111    7.5147  -11.7723 N   0  0  0  0  0  0  0  0  0  0  0  0
    9.7629    7.4496  -10.5136 C   0  0  0  0  0  0  0  0  0  0  0  0
   10.2742    8.4960   -9.8495 N   0  0  0  0  0  0  0  0  0  0  0  0
   10.6401    8.4327   -8.5452 C   0  0  0  0  0  0  0  0  0  0  0  0
   11.1624    9.5115   -7.8651 C   0  0  0  0  0  0  0  0  0  0  0  0
   11.5300    9.4202   -6.5153 C   0  0  0  0  0  0  0  0  0  0  0  0
   11.3758    8.2356   -5.8300 C   0  0  0  0  0  0  0  0  0  0  0  0
   10.8525    7.1621   -6.5188 C   0  0  0  0  0  0  0  0  0  0  0  0
   10.4894    7.2513   -7.8510 C   0  0  0  0  0  0  0  0  0  0  0  0
    9.9645    6.1733   -8.5300 C   0  0  0  0  0  0  0  0  0  0  0  0
    9.6143    6.2809   -9.8258 N   0  0  0  0  0  0  0  0  0  0  0  0
    9.2213    5.4454  -10.3065 H   0  0  0  0  0  0  0  0  0  0  0  0
   11.7475    8.1156   -4.4161 C   0  0  0  0  0  0  0  0  0  0  0  0
   11.7376    6.8903   -3.7960 C   0  0  0  0  0  0  0  0  0  0  0  0
   12.0762    6.7248   -2.4748 C   0  0  0  0  0  0  0  0  0  0  0  0
   12.4453    7.8169   -1.7146 C   0  0  0  0  0  0  0  0  0  0  0  0
   12.4536    9.0537   -2.3467 C   0  0  0  0  0  0  0  0  0  0  0  0
   12.1134    9.2071   -3.6682 C   0  0  0  0  0  0  0  0  0  0  0  0
  1  2  1  0
  2  3  1  0
  3  4  2  0
  4  5  1  0
  5  6  1  0
  6  7  2  0
  7  8  1  0
  8  9  2  0
  9 10  1  0
 10 11  2  0
  9 12  1  0
 12 13  1  0
 13 14  1  0
 14 15  2  0
 15 16  1  0
 16 25  1  0
 25 26  2  0
 26 27  1  0
 27 28  2  0
 28 29  1  0
 29 30  2  0
 30 31  1  0
 31 37  1  0
 37 38  2  0
 38 39  1  0
 39 40  2  0
 40 41  1  0
 41 42  2  0
 31 32  2  0
 32 33  1  0
 33 34  2  0
 34 35  1  0
 35 36  1  0
 16 17  2  0
 17 18  1  0
 18 19  2  0
  5 20  1  1
 20 21  1  0
 21 22  1  0
 21 23  1  0
 23 24  1  0
 11  3  1  0
 19 14  1  0
 24  5  1  0
 11  6  1  0
 35 26  1  0
 19  8  1  0
 33 28  1  0
 42 37  1  0
M  END
>  <minimizedAffinity>  (116) 
-17.50201

$$$$
Mol: 149_19 - SminaDock
     RDKit          3D

 37 43  0  0  0  0  0  0  0  0999 V2000
    8.9552    5.8594  -12.3522 C   0  0  0  0  0  0  0  0  0  0  0  0
    9.7065    5.0042  -13.1187 C   0  0  0  0  0  0  0  0  0  0  0  0
    9.1236    3.8601  -13.6238 C   0  0  0  0  0  0  0  0  0  0  0  0
    7.7824    3.5672  -13.3626 C   0  0  0  0  0  0  0  0  0  0  0  0
    7.0301    4.3952  -12.6135 C   0  0  0  0  0  0  0  0  0  0  0  0
    7.6430    5.5495  -12.1115 C   0  0  0  0  0  0  0  0  0  0  0  0
    5.6214    4.1735  -12.3190 C   0  0  0  0  0  0  0  0  0  0  0  0
    5.0298    2.9060  -12.7448 C   0  0  0  0  0  0  0  0  0  0  0  0
    5.8686    2.0476  -13.5879 C   0  0  0  0  0  0  0  0  0  0  0  0
    7.1689    2.3370  -13.8739 C   0  0  0  0  0  0  0  0  0  0  0  0
    7.9736    1.5616  -14.6337 N   0  0  0  0  0  0  0  0  0  0  0  0
    7.4560    0.4359  -15.1376 C   0  0  0  0  0  0  0  0  0  0  0  0
    8.1233   -0.3542  -15.8577 O   0  0  0  0  0  0  0  0  0  0  0  0
    6.1319    0.0714  -14.8893 C   0  0  0  0  0  0  0  0  0  0  0  0
    5.6200   -1.1028  -15.4224 C   0  0  0  0  0  0  0  0  0  0  0  0
    4.3097   -1.4297  -15.1531 C   0  0  0  0  0  0  0  0  0  0  0  0
    3.5202   -0.6136  -14.3728 C   0  0  0  0  0  0  0  0  0  0  0  0
    4.0256    0.5594  -13.8382 C   0  0  0  0  0  0  0  0  0  0  0  0
    5.3380    0.8663  -14.1210 C   0  0  0  0  0  0  0  0  0  0  0  0
   11.3288    8.0937   -5.9124 C   0  0  0  0  0  0  0  0  0  0  0  0
   11.4828    9.2344   -6.6769 C   0  0  0  0  0  0  0  0  0  0  0  0
   11.1415    9.2604   -8.0131 C   0  0  0  0  0  0  0  0  0  0  0  0
   10.6275    8.1370   -8.6467 C   0  0  0  0  0  0  0  0  0  0  0  0
   10.2981    8.1708   -9.9489 N   0  0  0  0  0  0  0  0  0  0  0  0
    9.8001    7.0814  -10.5643 C   0  0  0  0  0  0  0  0  0  0  0  0
    9.4711    7.0540  -11.7929 N   0  0  0  0  0  0  0  0  0  0  0  0
    9.6512    5.9739   -9.8197 N   0  0  0  0  0  0  0  0  0  0  0  0
    9.2602    5.1035  -10.2819 H   0  0  0  0  0  0  0  0  0  0  0  0
    9.9668    5.8934   -8.5145 C   0  0  0  0  0  0  0  0  0  0  0  0
   10.4771    7.0030   -7.8765 C   0  0  0  0  0  0  0  0  0  0  0  0
   10.8182    6.9760   -6.5391 C   0  0  0  0  0  0  0  0  0  0  0  0
   12.3656    8.0081   -1.8133 C   0  0  0  0  0  0  0  0  0  0  0  0
   12.0382    6.8146   -2.4582 C   0  0  0  0  0  0  0  0  0  0  0  0
   11.7018    6.8529   -3.7934 C   0  0  0  0  0  0  0  0  0  0  0  0
   11.6825    8.0409   -4.5003 C   0  0  0  0  0  0  0  0  0  0  0  0
   12.0160    9.1937   -3.8097 C   0  0  0  0  0  0  0  0  0  0  0  0
   12.3556    9.1993   -2.4855 C   0  0  0  0  0  0  0  0  0  0  0  0
 32 33  2  0
 33 34  1  0
 34 35  2  0
 35 20  1  0
 20 21  1  0
 21 22  2  0
 22 23  1  0
 23 24  2  0
 24 25  1  0
 25 26  2  0
 26  1  1  0
  1  2  2  0
  2  3  1  0
  3  4  2  0
  4  5  1  0
  5  6  2  0
  5  7  1  0
  7  8  1  0
  8  9  1  0
  9 10  2  0
 10 11  1  0
 11 12  1  0
 12 13  2  0
 12 14  1  0
 14 15  2  0
 15 16  1  0
 16 17  2  0
 17 18  1  0
 18 19  2  0
 25 27  1  0
 27 28  1  0
 27 29  1  0
 29 30  2  0
 30 31  1  0
 35 36  1  0
 36 37  2  0
 37 32  1  0
 31 20  2  0
 30 23  1  0
  6  1  1  0
 19  9  1  0
 10  4  1  0
 19 14  1  0
M  CHG  1  11  -1
M  END
>  <minimizedAffinity>  (117) 
-17.47014

$$$$
Mol: 169_37 - SminaDock
     RDKit          3D

 37 43  0  0  0  0  0  0  0  0999 V2000
    3.4546   -0.5302  -14.3329 C   0  0  0  0  0  0  0  0  0  0  0  0
    4.1778   -1.2807  -15.1809 N   0  0  0  0  0  0  0  0  0  0  0  0
    5.4372   -0.9584  -15.5430 C   0  0  0  0  0  0  0  0  0  0  0  0
    6.1311   -1.6457  -16.3343 O   0  0  0  0  0  0  0  0  0  0  0  0
    6.0200    0.2068  -15.0155 C   0  0  0  0  0  0  0  0  0  0  0  0
    7.3009    0.5602  -15.3655 C   0  0  0  0  0  0  0  0  0  0  0  0
    7.8592    1.6968  -14.8459 C   0  0  0  0  0  0  0  0  0  0  0  0
    7.1405    2.4812  -13.9776 C   0  0  0  0  0  0  0  0  0  0  0  0
    5.8557    2.1324  -13.6216 C   0  0  0  0  0  0  0  0  0  0  0  0
    5.2766    0.9589  -14.1573 C   0  0  0  0  0  0  0  0  0  0  0  0
    3.9953    0.6335  -13.7870 C   0  0  0  0  0  0  0  0  0  0  0  0
    5.0565    2.9031  -12.6895 C   0  0  0  0  0  0  0  0  0  0  0  0
    5.5891    4.1813  -12.2393 C   0  0  0  0  0  0  0  0  0  0  0  0
    6.9671    4.4677  -12.6130 C   0  0  0  0  0  0  0  0  0  0  0  0
    7.5408    5.6355  -12.0825 C   0  0  0  0  0  0  0  0  0  0  0  0
    8.8293    6.0060  -12.3918 C   0  0  0  0  0  0  0  0  0  0  0  0
    9.5489    5.2082  -13.2338 C   0  0  0  0  0  0  0  0  0  0  0  0
    9.0132    4.0329  -13.7851 C   0  0  0  0  0  0  0  0  0  0  0  0
    7.7335    3.7016  -13.4532 C   0  0  0  0  0  0  0  0  0  0  0  0
    9.3652    7.1948  -11.8319 N   0  0  0  0  0  0  0  0  0  0  0  0
    9.7013    7.1418  -10.5722 C   0  0  0  0  0  0  0  0  0  0  0  0
    9.5568    6.0320   -9.8256 N   0  0  0  0  0  0  0  0  0  0  0  0
    9.8918    5.9492   -8.5337 C   0  0  0  0  0  0  0  0  0  0  0  0
   10.4187    7.0571   -7.9109 C   0  0  0  0  0  0  0  0  0  0  0  0
   10.7755    7.0246   -6.5975 C   0  0  0  0  0  0  0  0  0  0  0  0
   11.3099    8.1324   -5.9472 C   0  0  0  0  0  0  0  0  0  0  0  0
   11.4576    9.2678   -6.7118 C   0  0  0  0  0  0  0  0  0  0  0  0
   11.1044    9.3260   -8.0420 C   0  0  0  0  0  0  0  0  0  0  0  0
   10.5704    8.1952   -8.6643 C   0  0  0  0  0  0  0  0  0  0  0  0
   10.2165    8.2245   -9.9627 N   0  0  0  0  0  0  0  0  0  0  0  0
   10.3310    9.0817  -10.5293 H   0  0  0  0  0  0  0  0  0  0  0  0
   11.6737    8.0570   -4.5594 C   0  0  0  0  0  0  0  0  0  0  0  0
   11.6645    6.8706   -3.8438 C   0  0  0  0  0  0  0  0  0  0  0  0
   12.0081    6.7871   -2.5253 C   0  0  0  0  0  0  0  0  0  0  0  0
   12.3873    7.9309   -1.8503 C   0  0  0  0  0  0  0  0  0  0  0  0
   12.4094    9.1371   -2.5303 C   0  0  0  0  0  0  0  0  0  0  0  0
   12.0557    9.2006   -3.8738 C   0  0  0  0  0  0  0  0  0  0  0  0
  1  2  1  0
  2  3  1  0
  3  4  2  0
  3  5  1  0
  5  6  2  0
  6  7  1  0
  7  8  2  0
  8  9  1  0
  9 10  2  0
 10 11  1  0
  9 12  1  0
 12 13  1  0
 13 14  1  0
 14 15  2  0
 15 16  1  0
 16 20  1  0
 20 21  2  0
 21 22  1  0
 22 23  2  0
 23 24  1  0
 24 25  2  0
 25 26  1  0
 26 32  1  0
 32 33  2  0
 33 34  1  0
 34 35  2  0
 35 36  1  0
 36 37  2  0
 26 27  2  0
 27 28  1  0
 28 29  2  0
 29 30  1  0
 30 31  1  0
 16 17  2  0
 17 18  1  0
 18 19  2  0
 11  1  2  0
 19 14  1  0
 10  5  1  0
 30 21  1  0
 19  8  1  0
 29 24  1  0
 37 32  1  0
M  CHG  1   2  -1
M  END
>  <minimizedAffinity>  (118) 
-17.46678

$$$$
Mol: 193_58 - SminaDock
     RDKit          3D

 44 51  0  0  0  0  0  0  0  0999 V2000
    4.1956   -1.6148  -18.5189 C   0  0  0  0  0  0  0  0  0  0  0  0
    5.2795   -0.9449  -18.8254 O   0  0  0  0  0  0  0  0  0  0  0  0
    5.6744   -0.2112  -17.8158 C   0  0  0  0  0  0  0  0  0  0  0  0
    6.7389    0.6492  -17.6526 C   0  0  0  0  0  0  0  0  0  0  0  0
    6.9456    1.3208  -16.4661 C   0  0  0  0  0  0  0  0  0  0  0  0
    6.0317    1.0965  -15.4301 C   0  0  0  0  0  0  0  0  0  0  0  0
    4.9620    0.2425  -15.5685 C   0  0  0  0  0  0  0  0  0  0  0  0
    4.7850   -0.4172  -16.7775 C   0  0  0  0  0  0  0  0  0  0  0  0
    3.8252   -1.3160  -17.2061 C   0  0  0  0  0  0  0  0  0  0  0  0
    6.0427    1.7102  -14.0853 C   0  0  0  0  0  0  0  0  0  0  0  0
    5.2859    1.2188  -13.2187 O   0  0  0  0  0  0  0  0  0  0  0  0
    6.8798    2.8505  -13.7106 C   0  0  0  0  0  0  0  0  0  0  0  0
    6.2407    3.5555  -12.7057 C   0  0  0  0  0  0  0  0  0  0  0  0
    6.8475    4.6759  -12.2078 C   0  0  0  0  0  0  0  0  0  0  0  0
    8.0701    5.1172  -12.6777 C   0  0  0  0  0  0  0  0  0  0  0  0
    8.6720    4.3623  -13.6973 C   0  0  0  0  0  0  0  0  0  0  0  0
    8.1027    3.2419  -14.2200 C   0  0  0  0  0  0  0  0  0  0  0  0
    8.9037    2.6010  -15.2565 C   0  0  2  0  0  0  0  0  0  0  0  0
    8.1036    2.1948  -16.4307 C   0  0  0  0  0  0  0  0  0  0  0  0
    8.4058    2.6220  -17.5801 O   0  0  0  0  0  0  0  0  0  0  0  0
    9.4557    1.3104  -14.6130 C   0  0  0  0  0  0  0  0  0  0  0  0
   10.4283    0.6127  -15.5098 C   0  0  0  0  0  0  0  0  0  0  0  0
   10.5319    1.2214  -16.8000 N   0  0  0  0  0  0  0  0  0  0  0  0
   11.2952    0.7250  -17.3225 H   0  0  0  0  0  0  0  0  0  0  0  0
   10.8523    2.6128  -16.7661 C   0  0  0  0  0  0  0  0  0  0  0  0
   10.1348    3.3741  -15.6593 C   0  0  0  0  0  0  0  0  0  0  0  0
    8.7234    6.2634  -12.1910 N   0  0  0  0  0  0  0  0  0  0  0  0
    9.1290    6.3175  -10.9620 C   0  0  0  0  0  0  0  0  0  0  0  0
    8.9593    5.3100  -10.0880 N   0  0  0  0  0  0  0  0  0  0  0  0
    9.3820    5.3709   -8.8133 C   0  0  0  0  0  0  0  0  0  0  0  0
   10.0256    6.5095   -8.3474 C   0  0  0  0  0  0  0  0  0  0  0  0
   10.4764    6.6189   -7.0513 C   0  0  0  0  0  0  0  0  0  0  0  0
   11.1188    7.7792   -6.6194 C   0  0  0  0  0  0  0  0  0  0  0  0
   11.2929    8.8127   -7.5162 C   0  0  0  0  0  0  0  0  0  0  0  0
   10.8419    8.7021   -8.8111 C   0  0  0  0  0  0  0  0  0  0  0  0
   10.2017    7.5461   -9.2417 C   0  0  0  0  0  0  0  0  0  0  0  0
    9.7542    7.4247  -10.5109 N   0  0  0  0  0  0  0  0  0  0  0  0
    9.8925    8.2183  -11.1848 H   0  0  0  0  0  0  0  0  0  0  0  0
   11.5949    7.8930   -5.2481 C   0  0  0  0  0  0  0  0  0  0  0  0
   11.3581    6.8558   -4.3705 C   0  0  0  0  0  0  0  0  0  0  0  0
   11.8073    6.9476   -3.0501 C   0  0  0  0  0  0  0  0  0  0  0  0
   12.4836    8.0764   -2.6385 C   0  0  0  0  0  0  0  0  0  0  0  0
   12.7136    9.1051   -3.5243 C   0  0  0  0  0  0  0  0  0  0  0  0
   12.2701    9.0275   -4.8494 C   0  0  0  0  0  0  0  0  0  0  0  0
  1  2  1  0
  2  3  1  0
  3  4  2  0
  4  5  1  0
  5  6  2  0
  6  7  1  0
  7  8  2  0
  8  9  1  0
  6 10  1  0
 10 11  2  0
 10 12  1  0
 12 13  2  0
 13 14  1  0
 14 15  2  0
 15 27  1  0
 27 28  2  0
 28 29  1  0
 29 30  2  0
 30 31  1  0
 31 32  2  0
 32 33  1  0
 33 39  1  0
 39 40  2  0
 40 41  1  0
 41 42  2  0
 42 43  1  0
 43 44  2  0
 33 34  2  0
 34 35  1  0
 35 36  2  0
 36 37  1  0
 37 38  1  0
 15 16  1  0
 16 17  2  0
 17 18  1  0
 18 19  1  0
 19 20  2  0
 18 21  1  1
 21 22  1  0
 22 23  1  0
 23 24  1  0
 23 25  1  0
 25 26  1  0
  9  1  2  0
 17 12  1  0
 26 18  1  0
  8  3  1  0
 37 28  1  0
 19  5  1  0
 36 31  1  0
 44 39  1  0
M  END
>  <minimizedAffinity>  (119) 
-17.47563

$$$$
Mol: 194_18 - SminaDock
     RDKit          3D

 45 52  0  0  0  0  0  0  0  0999 V2000
   10.6390    2.0920  -16.4680 C   0  0  2  0  0  0  0  0  0  0  0  0
    9.4259    2.5894  -17.1139 C   0  0  0  0  0  0  0  0  0  0  0  0
    8.1373    2.6140  -16.4131 C   0  0  0  0  0  0  0  0  0  0  0  0
    7.9464    1.8061  -15.1800 C   0  0  1  0  0  0  0  0  0  0  0  0
    7.6573    2.8674  -14.1323 C   0  0  0  0  0  0  0  0  0  0  0  0
    8.4647    3.9315  -13.7001 C   0  0  0  0  0  0  0  0  0  0  0  0
    8.0479    4.8100  -12.7322 C   0  0  0  0  0  0  0  0  0  0  0  0
    6.7970    4.6349  -12.1727 C   0  0  0  0  0  0  0  0  0  0  0  0
    5.9797    3.5981  -12.5762 C   0  0  0  0  0  0  0  0  0  0  0  0
    6.4422    2.7224  -13.5676 C   0  0  0  0  0  0  0  0  0  0  0  0
    5.8159    1.5616  -14.1810 C   0  0  0  0  0  0  0  0  0  0  0  0
    4.5623    1.0108  -13.9326 C   0  0  0  0  0  0  0  0  0  0  0  0
    4.1195   -0.0966  -14.6054 C   0  0  0  0  0  0  0  0  0  0  0  0
    4.9621   -0.6420  -15.5350 C   0  0  0  0  0  0  0  0  0  0  0  0
    6.2283   -0.1104  -15.8066 C   0  0  0  0  0  0  0  0  0  0  0  0
    6.6831    1.0260  -15.1165 C   0  0  0  0  0  0  0  0  0  0  0  0
    7.0225   -0.7047  -16.7498 C   0  0  0  0  0  0  0  0  0  0  0  0
    8.1485   -0.2476  -17.0042 O   0  0  0  0  0  0  0  0  0  0  0  0
    6.5613   -1.7998  -17.4017 N   0  0  0  0  0  0  0  0  0  0  0  0
    5.3490   -2.2958  -17.1312 C   0  0  0  0  0  0  0  0  0  0  0  0
    4.5592   -1.7237  -16.2090 N   0  0  0  0  0  0  0  0  0  0  0  0
    3.6036   -2.1195  -15.9999 H   0  0  0  0  0  0  0  0  0  0  0  0
    9.1466    1.1264  -14.6316 C   0  0  0  0  0  0  0  0  0  0  0  0
   10.4124    1.1490  -15.3710 C   0  0  0  0  0  0  0  0  0  0  0  0
    8.8586    5.8870  -12.2890 N   0  0  0  0  0  0  0  0  0  0  0  0
    9.2181    6.0205  -11.0463 C   0  0  0  0  0  0  0  0  0  0  0  0
    8.8419    5.1307  -10.0630 C   0  0  0  0  0  0  0  0  0  0  0  0
    9.2288    5.2760   -8.7443 C   0  0  0  0  0  0  0  0  0  0  0  0
   10.0188    6.3477   -8.3951 C   0  0  0  0  0  0  0  0  0  0  0  0
   10.4371    6.5417   -7.0844 C   0  0  0  0  0  0  0  0  0  0  0  0
   11.2296    7.6161   -6.7380 C   0  0  0  0  0  0  0  0  0  0  0  0
   11.5992    8.5042   -7.7452 C   0  0  0  0  0  0  0  0  0  0  0  0
   11.1837    8.3094   -9.0398 C   0  0  0  0  0  0  0  0  0  0  0  0
   10.3902    7.2335   -9.3871 C   0  0  0  0  0  0  0  0  0  0  0  0
    9.9960    7.0625  -10.6626 N   0  0  0  0  0  0  0  0  0  0  0  0
   10.3065    7.7685  -11.3890 H   0  0  0  0  0  0  0  0  0  0  0  0
   11.6714    7.8236   -5.3677 C   0  0  0  0  0  0  0  0  0  0  0  0
   11.4299    6.8745   -4.3857 C   0  0  0  0  0  0  0  0  0  0  0  0
   11.8344    7.0435   -3.0886 C   0  0  0  0  0  0  0  0  0  0  0  0
   12.5050    8.1754   -2.7011 C   0  0  0  0  0  0  0  0  0  0  0  0
   12.7567    9.1433   -3.6805 C   0  0  0  0  0  0  0  0  0  0  0  0
   12.3539    8.9813   -4.9856 C   0  0  0  0  0  0  0  0  0  0  0  0
   10.7367    3.6073  -14.5088 H   0  0  0  0  0  0  0  0  0  0  0  0
   11.6860    3.3833  -14.7446 O   0  0  0  0  0  0  0  0  0  0  0  0
   11.6639    3.1742  -16.1458 C   0  0  0  0  0  0  0  0  0  0  0  0
 43 44  1  0
 44 45  1  0
  1 45  1  1
  1  2  1  0
  2  3  1  0
  4  3  1  6
  4  5  1  0
  5  6  2  0
  6  7  1  0
  7 25  1  0
 25 26  2  0
 26 27  1  0
 27 28  2  0
 28 29  1  0
 29 30  2  0
 30 31  1  0
 31 37  1  0
 37 38  2  0
 38 39  1  0
 39 40  2  0
 40 41  1  0
 41 42  2  0
 31 32  2  0
 32 33  1  0
 33 34  2  0
 34 35  1  0
 35 36  1  0
  7  8  2  0
  8  9  1  0
  9 10  2  0
 10 11  1  0
 11 12  2  0
 12 13  1  0
 13 14  2  0
 14 15  1  0
 15 16  2  0
 15 17  1  0
 17 18  2  0
 17 19  1  0
 19 20  2  0
 20 21  1  0
 21 22  1  0
  4 23  1  0
 23 24  1  0
 24  1  1  0
 16  4  1  0
 10  5  1  0
 16 11  1  0
 35 26  1  0
 21 14  1  0
 34 29  1  0
 42 37  1  0
M  END
>  <minimizedAffinity>  (120) 
-17.52970

$$$$
Mol: 194_1 - SminaDock
     RDKit          3D

 46 53  0  0  0  0  0  0  0  0999 V2000
    8.3667    5.3673  -12.6776 C   0  0  0  0  0  0  0  0  0  0  0  0
    7.0916    5.1678  -12.2160 C   0  0  0  0  0  0  0  0  0  0  0  0
    6.3693    4.0557  -12.6518 C   0  0  0  0  0  0  0  0  0  0  0  0
    6.9611    3.1844  -13.5388 C   0  0  0  0  0  0  0  0  0  0  0  0
    8.2392    3.3655  -14.0190 C   0  0  0  0  0  0  0  0  0  0  0  0
    8.9454    4.4901  -13.5649 C   0  0  0  0  0  0  0  0  0  0  0  0
    8.7942    2.4766  -15.0340 C   0  0  2  0  0  0  0  0  0  0  0  0
    8.0975    1.2126  -15.1312 C   0  0  0  0  0  0  0  0  0  0  0  0
    8.6469    0.1715  -15.6471 O   0  0  0  0  0  0  0  0  0  0  0  0
    6.7435    1.0125  -14.6612 C   0  0  0  0  0  0  0  0  0  0  0  0
    6.1564    1.9782  -13.8614 C   0  0  0  0  0  0  0  0  0  0  0  0
    4.8815    1.7843  -13.4212 C   0  0  0  0  0  0  0  0  0  0  0  0
    4.2014    0.6276  -13.7830 C   0  0  0  0  0  0  0  0  0  0  0  0
    4.7770   -0.3316  -14.5746 C   0  0  0  0  0  0  0  0  0  0  0  0
    4.3798   -1.5154  -15.0752 N   0  0  0  0  0  0  0  0  0  0  0  0
    5.3915   -2.0229  -15.7997 C   0  0  0  0  0  0  0  0  0  0  0  0
    6.4425   -1.1882  -15.7794 N   0  0  0  0  0  0  0  0  0  0  0  0
    6.0576   -0.1450  -15.0212 C   0  0  0  0  0  0  0  0  0  0  0  0
   10.2939    2.3002  -14.8433 C   0  0  0  0  0  0  0  0  0  0  0  0
   10.8994    1.3987  -15.8954 C   0  0  0  0  0  0  0  0  0  0  0  0
   10.4853    1.6660  -17.2302 N   0  0  1  0  0  0  0  0  0  0  0  0
   11.1615    2.2693  -17.7617 H   0  0  0  0  0  0  0  0  0  0  0  0
   10.5492    0.7315  -17.7487 H   0  0  0  0  0  0  0  0  0  0  0  0
    9.1596    2.1330  -17.4340 C   0  0  0  0  0  0  0  0  0  0  0  0
    8.6792    3.1410  -16.4284 C   0  0  0  0  0  0  0  0  0  0  0  0
   11.2917    7.9727   -6.5429 C   0  0  0  0  0  0  0  0  0  0  0  0
   11.5856    8.9650   -7.4582 C   0  0  0  0  0  0  0  0  0  0  0  0
   11.1986    8.8615   -8.7785 C   0  0  0  0  0  0  0  0  0  0  0  0
   10.4942    7.7440   -9.2311 C   0  0  0  0  0  0  0  0  0  0  0  0
   10.1911    6.7467   -8.3412 C   0  0  0  0  0  0  0  0  0  0  0  0
   10.5960    6.8774   -7.0072 C   0  0  0  0  0  0  0  0  0  0  0  0
    9.4953    5.6269   -8.7530 C   0  0  0  0  0  0  0  0  0  0  0  0
    9.1204    5.5485  -10.0770 C   0  0  0  0  0  0  0  0  0  0  0  0
    9.4299    6.5568  -10.9645 C   0  0  0  0  0  0  0  0  0  0  0  0
    9.0931    6.5186  -12.2170 N   0  0  0  0  0  0  0  0  0  0  0  0
   10.1147    7.6383  -10.5162 N   0  0  0  0  0  0  0  0  0  0  0  0
   10.3714    8.4281  -11.1553 H   0  0  0  0  0  0  0  0  0  0  0  0
   13.2517    9.2417   -0.9158 H   0  0  0  0  0  0  0  0  0  0  0  0
   12.8330    8.3456   -1.2385 N   0  0  0  0  0  0  0  0  0  0  0  0
   12.4708    8.2370   -2.4567 C   0  0  0  0  0  0  0  0  0  0  0  0
   11.9086    7.0768   -2.9502 C   0  0  0  0  0  0  0  0  0  0  0  0
   11.5370    7.0189   -4.2736 C   0  0  0  0  0  0  0  0  0  0  0  0
   11.7022    8.0862   -5.1502 C   0  0  0  0  0  0  0  0  0  0  0  0
   12.2673    9.2137   -4.5997 C   0  0  0  0  0  0  0  0  0  0  0  0
   12.6308    9.2750   -3.3113 N   0  0  0  0  0  0  0  0  0  0  0  0
   13.0567   10.1391   -2.9166 H   0  0  0  0  0  0  0  0  0  0  0  0
 38 39  1  0
 39 40  2  0
 40 41  1  0
 41 42  2  0
 42 43  1  0
 43 26  1  0
 26 27  2  0
 27 28  1  0
 28 29  2  0
 29 30  1  0
 30 31  2  0
 30 32  1  0
 32 33  2  0
 33 34  1  0
 34 35  2  0
 35  1  1  0
  1  2  2  0
  2  3  1  0
  3  4  2  0
  4  5  1  0
  5  6  2  0
  5  7  1  0
  7  8  1  0
  8  9  2  0
  8 10  1  0
 10 11  2  0
 11 12  1  0
 12 13  2  0
 13 14  1  0
 14 15  1  0
 15 16  1  0
 16 17  2  0
 17 18  1  0
  7 19  1  1
 19 20  1  0
 20 21  1  0
 21 22  1  6
 21 23  1  0
 21 24  1  0
 24 25  1  0
 34 36  1  0
 36 37  1  0
 43 44  2  0
 44 45  1  0
 45 46  1  0
 45 40  1  0
 31 26  1  0
  6  1  1  0
 25  7  1  0
 36 29  1  0
 11  4  1  0
 18 14  2  0
 18 10  1  0
M  CHG  2  15  -1  21   1
M  END
>  <minimizedAffinity>  (121) 
-17.52839

$$$$
Mol: 193_56 - SminaDock
     RDKit          3D

 40 46  0  0  0  0  0  0  0  0999 V2000
    5.5771   -3.0860  -17.4426 H   0  0  0  0  0  0  0  0  0  0  0  0
    4.9925   -2.5975  -16.7566 N   0  0  0  0  0  0  0  0  0  0  0  0
    5.3462   -1.5122  -16.1262 C   0  0  0  0  0  0  0  0  0  0  0  0
    6.5282   -0.9272  -16.3228 N   0  0  0  0  0  0  0  0  0  0  0  0
    6.9083    0.2127  -15.6661 C   0  0  0  0  0  0  0  0  0  0  0  0
    8.1418    0.7606  -15.9177 C   0  0  0  0  0  0  0  0  0  0  0  0
    8.5254    1.9039  -15.2596 C   0  0  0  0  0  0  0  0  0  0  0  0
    7.6731    2.4953  -14.3517 C   0  0  0  0  0  0  0  0  0  0  0  0
    6.4224    1.9616  -14.0804 C   0  0  0  0  0  0  0  0  0  0  0  0
    6.0579    0.8018  -14.7609 C   0  0  0  0  0  0  0  0  0  0  0  0
    4.8446    0.1728  -14.5806 C   0  0  0  0  0  0  0  0  0  0  0  0
    3.9171    0.6659  -13.7059 O   0  0  0  0  0  0  0  0  0  0  0  0
    3.6442    0.1017  -12.9117 H   0  0  0  0  0  0  0  0  0  0  0  0
    4.5106   -0.9656  -15.2611 N   0  0  0  0  0  0  0  0  0  0  0  0
    5.4445    2.5312  -13.1292 C   0  0  0  0  0  0  0  0  0  0  0  0
    5.8866    3.7638  -12.4039 C   0  0  0  0  0  0  0  0  0  0  0  0
    7.2148    4.2696  -12.7432 C   0  0  0  0  0  0  0  0  0  0  0  0
    7.5891    5.4339  -12.0583 C   0  0  0  0  0  0  0  0  0  0  0  0
    8.8162    6.0128  -12.2859 C   0  0  0  0  0  0  0  0  0  0  0  0
    9.6584    5.4274  -13.1928 C   0  0  0  0  0  0  0  0  0  0  0  0
    9.3222    4.2621  -13.8993 C   0  0  0  0  0  0  0  0  0  0  0  0
    8.0909    3.7120  -13.6474 C   0  0  0  0  0  0  0  0  0  0  0  0
    9.2406    7.1970  -11.6114 N   0  0  0  0  0  0  0  0  0  0  0  0
    9.6063    7.1474  -10.3976 C   0  0  0  0  0  0  0  0  0  0  0  0
    9.5982    5.9524   -9.7169 C   0  0  0  0  0  0  0  0  0  0  0  0
    9.9926    5.8534   -8.3917 C   0  0  0  0  0  0  0  0  0  0  0  0
   10.4002    7.0098   -7.7661 C   0  0  0  0  0  0  0  0  0  0  0  0
   10.8108    7.0165   -6.4520 C   0  0  0  0  0  0  0  0  0  0  0  0
   11.2255    8.1563   -5.7940 C   0  0  0  0  0  0  0  0  0  0  0  0
   11.2168    9.3288   -6.5151 C   0  0  0  0  0  0  0  0  0  0  0  0
   10.8120    9.3588   -7.8322 C   0  0  0  0  0  0  0  0  0  0  0  0
   10.3978    8.2026   -8.4791 C   0  0  0  0  0  0  0  0  0  0  0  0
   10.0135    8.2764   -9.7570 N   0  0  0  0  0  0  0  0  0  0  0  0
   10.0180    9.1898  -10.2820 H   0  0  0  0  0  0  0  0  0  0  0  0
   11.6446    8.0825   -4.4057 C   0  0  0  0  0  0  0  0  0  0  0  0
   11.7319    6.8584   -3.7806 C   0  0  0  0  0  0  0  0  0  0  0  0
   12.1253    6.7319   -2.4606 C   0  0  0  0  0  0  0  0  0  0  0  0
   12.4365    7.8735   -1.7623 C   0  0  0  0  0  0  0  0  0  0  0  0
   12.3640    9.1229   -2.3467 C   0  0  0  0  0  0  0  0  0  0  0  0
   11.9614    9.2035   -3.6836 C   0  0  0  0  0  0  0  0  0  0  0  0
  1  2  1  0
  2  3  2  0
  3  4  1  0
  4  5  2  0
  5  6  1  0
  6  7  2  0
  7  8  1  0
  8  9  2  0
  9 10  1  0
 10 11  2  0
 11 12  1  0
 12 13  1  0
 11 14  1  0
  9 15  1  0
 15 16  1  0
 16 17  1  0
 17 18  2  0
 18 19  1  0
 19 23  1  0
 23 24  2  0
 24 25  1  0
 25 26  2  0
 26 27  1  0
 27 28  2  0
 28 29  1  0
 29 35  1  0
 35 36  2  0
 36 37  1  0
 37 38  2  0
 38 39  1  0
 39 40  2  0
 29 30  2  0
 30 31  1  0
 31 32  2  0
 32 33  1  0
 33 34  1  0
 19 20  2  0
 20 21  1  0
 21 22  2  0
 14  3  1  0
 22 17  1  0
 10  5  1  0
 33 24  1  0
 22  8  1  0
 32 27  1  0
 40 35  1  0
M  CHG  1  14  -1
M  END
>  <minimizedAffinity>  (122) 
-17.46229

$$$$
Mol: 194_11 - SminaDock
     RDKit          3D

 42 49  0  0  0  0  0  0  0  0999 V2000
    2.1597   -1.7509  -14.2757 H   0  0  0  0  0  0  0  0  0  0  0  0
    2.6593   -0.9297  -13.9337 O   0  0  0  0  0  0  0  0  0  0  0  0
    3.7494   -0.5106  -14.6852 C   0  0  0  0  0  0  0  0  0  0  0  0
    4.1725   -1.0018  -15.7841 N   0  0  0  0  0  0  0  0  0  0  0  0
    5.3221   -0.3053  -16.2626 C   0  0  2  0  0  0  0  0  0  0  0  0
    5.5702    0.7443  -15.2548 C   0  0  0  0  0  0  0  0  0  0  0  0
    6.5377    1.7472  -15.1423 C   0  0  0  0  0  0  0  0  0  0  0  0
    6.5150    2.6000  -14.0626 C   0  0  0  0  0  0  0  0  0  0  0  0
    5.5447    2.4653  -13.0996 C   0  0  0  0  0  0  0  0  0  0  0  0
    4.5632    1.4691  -13.1875 C   0  0  0  0  0  0  0  0  0  0  0  0
    4.6061    0.6183  -14.2885 C   0  0  0  0  0  0  0  0  0  0  0  0
    5.7681    3.5014  -12.0803 C   0  0  0  0  0  0  0  0  0  0  0  0
    6.9553    4.2341  -12.5564 C   0  0  0  0  0  0  0  0  0  0  0  0
    7.6379    5.3147  -12.0161 C   0  0  0  0  0  0  0  0  0  0  0  0
    8.7484    5.8658  -12.6278 C   0  0  0  0  0  0  0  0  0  0  0  0
    9.2043    5.3283  -13.8223 C   0  0  0  0  0  0  0  0  0  0  0  0
    8.5268    4.2563  -14.3581 C   0  0  0  0  0  0  0  0  0  0  0  0
    7.4234    3.7217  -13.7342 C   0  0  0  0  0  0  0  0  0  0  0  0
    4.9746    0.4102  -17.5491 C   0  0  0  0  0  0  0  0  0  0  0  0
    5.2239   -0.3955  -18.7765 C   0  0  0  0  0  0  0  0  0  0  0  0
    5.2520   -1.8010  -18.4175 N   0  0  0  0  0  0  0  0  0  0  0  0
    5.3370   -2.3406  -19.3083 H   0  0  0  0  0  0  0  0  0  0  0  0
    6.4688   -2.0302  -17.6646 C   0  0  0  0  0  0  0  0  0  0  0  0
    6.5321   -1.1913  -16.4151 C   0  0  0  0  0  0  0  0  0  0  0  0
    9.3957    6.9760  -12.0098 N   0  0  0  0  0  0  0  0  0  0  0  0
    9.6812    6.9251  -10.7493 C   0  0  0  0  0  0  0  0  0  0  0  0
    9.3967    5.8486   -9.9451 C   0  0  0  0  0  0  0  0  0  0  0  0
    9.6997    5.7938   -8.6027 C   0  0  0  0  0  0  0  0  0  0  0  0
   10.3303    6.8981   -8.0391 C   0  0  0  0  0  0  0  0  0  0  0  0
   10.6560    6.8909   -6.6900 C   0  0  0  0  0  0  0  0  0  0  0  0
   11.2813    7.9792   -6.1170 C   0  0  0  0  0  0  0  0  0  0  0  0
   11.5773    9.0822   -6.9227 C   0  0  0  0  0  0  0  0  0  0  0  0
   11.2449    9.0678   -8.2597 C   0  0  0  0  0  0  0  0  0  0  0  0
   10.6144    7.9784   -8.8516 C   0  0  0  0  0  0  0  0  0  0  0  0
   10.2948    7.9756  -10.1566 N   0  0  0  0  0  0  0  0  0  0  0  0
   10.5264    8.8107  -10.7360 H   0  0  0  0  0  0  0  0  0  0  0  0
   11.6131    7.9541   -4.7082 C   0  0  0  0  0  0  0  0  0  0  0  0
   11.9475    9.1200   -4.0644 C   0  0  0  0  0  0  0  0  0  0  0  0
   12.2629    9.1027   -2.7287 C   0  0  0  0  0  0  0  0  0  0  0  0
   12.2481    7.9146   -2.0161 C   0  0  0  0  0  0  0  0  0  0  0  0
   11.9155    6.7386   -2.6464 C   0  0  0  0  0  0  0  0  0  0  0  0
   11.6028    6.7872   -3.9909 C   0  0  0  0  0  0  0  0  0  0  0  0
  1  2  1  0
  2  3  1  0
  3  4  2  0
  4  5  1  0
  5  6  1  0
  6  7  2  0
  7  8  1  0
  8  9  2  0
  9 10  1  0
 10 11  2  0
  9 12  1  0
 12 13  1  0
 13 14  2  0
 14 15  1  0
 15 25  1  0
 25 26  2  0
 26 27  1  0
 27 28  2  0
 28 29  1  0
 29 30  2  0
 30 31  1  0
 31 37  1  0
 37 38  2  0
 38 39  1  0
 39 40  2  0
 40 41  1  0
 41 42  2  0
 31 32  2  0
 32 33  1  0
 33 34  2  0
 34 35  1  0
 35 36  1  0
 15 16  2  0
 16 17  1  0
 17 18  2  0
  5 19  1  6
 19 20  1  0
 20 21  1  0
 21 22  1  0
 21 23  1  0
 23 24  1  0
 11  3  1  0
 18 13  1  0
 24  5  1  0
 11  6  1  0
 35 26  1  0
 18  8  1  0
 34 29  1  0
 42 37  1  0
M  END
>  <minimizedAffinity>  (123) 
-17.50783

$$$$
Mol: 164_55 - SminaDock
     RDKit          3D

 39 45  0  0  0  0  0  0  0  0999 V2000
    3.2948   -2.1148  -14.5831 H   0  0  0  0  0  0  0  0  0  0  0  0
    3.5242   -1.1935  -14.9099 O   0  0  0  0  0  0  0  0  0  0  0  0
    4.7195   -0.8313  -15.4872 C   0  0  0  0  0  0  0  0  0  0  0  0
    5.3166   -1.4955  -16.5336 C   0  0  0  0  0  0  0  0  0  0  0  0
    6.5229   -1.0648  -17.0579 C   0  0  0  0  0  0  0  0  0  0  0  0
    7.0202   -1.7114  -18.0128 O   0  0  0  0  0  0  0  0  0  0  0  0
    7.1172   -0.0026  -16.5538 O   0  0  0  0  0  0  0  0  0  0  0  0
    6.5615    0.6477  -15.5512 C   0  0  0  0  0  0  0  0  0  0  0  0
    7.2341    1.7710  -15.0522 C   0  0  0  0  0  0  0  0  0  0  0  0
    6.6890    2.4785  -14.0060 C   0  0  0  0  0  0  0  0  0  0  0  0
    5.4976    2.1302  -13.4150 C   0  0  0  0  0  0  0  0  0  0  0  0
    4.8357    1.0041  -13.9267 C   0  0  0  0  0  0  0  0  0  0  0  0
    5.3694    0.2924  -14.9700 C   0  0  0  0  0  0  0  0  0  0  0  0
    4.9139    2.8249  -12.2633 C   0  0  0  0  0  0  0  0  0  0  0  0
    5.4773    4.1623  -12.0188 C   0  0  0  0  0  0  0  0  0  0  0  0
    6.8129    4.4438  -12.5452 C   0  0  0  0  0  0  0  0  0  0  0  0
    7.5114    5.5578  -12.0575 C   0  0  0  0  0  0  0  0  0  0  0  0
    8.7276    5.9081  -12.5490 C   0  0  0  0  0  0  0  0  0  0  0  0
    9.2763    5.1487  -13.5444 C   0  0  0  0  0  0  0  0  0  0  0  0
    8.6230    4.0465  -14.0496 C   0  0  0  0  0  0  0  0  0  0  0  0
    7.3833    3.7008  -13.5374 C   0  0  0  0  0  0  0  0  0  0  0  0
    9.3584    7.0523  -11.9922 N   0  0  0  0  0  0  0  0  0  0  0  0
    9.6592    6.9900  -10.7213 C   0  0  0  0  0  0  0  0  0  0  0  0
    9.3932    5.9112   -9.9689 N   0  0  0  0  0  0  0  0  0  0  0  0
    9.7183    5.8744   -8.6433 C   0  0  0  0  0  0  0  0  0  0  0  0
   10.3308    6.9482   -8.0398 C   0  0  0  0  0  0  0  0  0  0  0  0
   10.6678    6.9309   -6.6994 C   0  0  0  0  0  0  0  0  0  0  0  0
   11.2819    8.0100   -6.0976 C   0  0  0  0  0  0  0  0  0  0  0  0
   11.5386    9.0969   -6.8995 C   0  0  0  0  0  0  0  0  0  0  0  0
   11.2087    9.1317   -8.2417 C   0  0  0  0  0  0  0  0  0  0  0  0
   10.5949    8.0458   -8.8310 C   0  0  0  0  0  0  0  0  0  0  0  0
   10.2598    8.0433  -10.1303 N   0  0  0  0  0  0  0  0  0  0  0  0
   10.4646    8.8866  -10.7306 H   0  0  0  0  0  0  0  0  0  0  0  0
   11.6385    7.9991   -4.6909 C   0  0  0  0  0  0  0  0  0  0  0  0
   11.6486    6.8471   -3.9329 C   0  0  0  0  0  0  0  0  0  0  0  0
   11.9827    6.8119   -2.5961 C   0  0  0  0  0  0  0  0  0  0  0  0
   12.3270    7.9985   -1.9807 C   0  0  0  0  0  0  0  0  0  0  0  0
   12.3326    9.1794   -2.6946 C   0  0  0  0  0  0  0  0  0  0  0  0
   11.9921    9.1747   -4.0322 C   0  0  0  0  0  0  0  0  0  0  0  0
  1  2  1  0
  2  3  1  0
  3  4  2  0
  4  5  1  0
  5  6  2  0
  5  7  1  0
  7  8  1  0
  8  9  2  0
  9 10  1  0
 10 11  2  0
 11 12  1  0
 12 13  2  0
 11 14  1  0
 14 15  1  0
 15 16  1  0
 16 17  2  0
 17 18  1  0
 18 22  1  0
 22 23  2  0
 23 24  1  0
 24 25  2  0
 25 26  1  0
 26 27  2  0
 27 28  1  0
 28 34  1  0
 34 35  2  0
 35 36  1  0
 36 37  2  0
 37 38  1  0
 38 39  2  0
 28 29  2  0
 29 30  1  0
 30 31  2  0
 31 32  1  0
 32 33  1  0
 18 19  2  0
 19 20  1  0
 20 21  2  0
 13  3  1  0
 21 16  1  0
 13  8  1  0
 32 23  1  0
 21 10  1  0
 31 26  1  0
 39 34  1  0
M  END
>  <minimizedAffinity>  (124) 
-17.46680

$$$$
Mol: 194_51 - SminaDock
     RDKit          3D

 43 50  0  0  0  0  0  0  0  0999 V2000
   11.5281    1.9315  -16.1048 O   0  0  0  0  0  0  0  0  0  0  0  0
   10.3172    1.7488  -15.8359 C   0  0  0  0  0  0  0  0  0  0  0  0
    9.9859    0.9709  -14.6941 N   0  0  0  0  0  0  0  0  0  0  0  0
    8.6271    0.7651  -14.3910 C   0  0  0  0  0  0  0  0  0  0  0  0
    8.3001   -0.1868  -13.6274 O   0  0  0  0  0  0  0  0  0  0  0  0
    7.5398    1.6422  -14.9459 C   0  0  2  0  0  0  0  0  0  0  0  0
    7.8839    2.0812  -16.3219 C   0  0  0  0  0  0  0  0  0  0  0  0
    6.9685    2.2551  -17.1567 O   0  0  0  0  0  0  0  0  0  0  0  0
    9.2596    2.2830  -16.6192 N   0  0  0  0  0  0  0  0  0  0  0  0
    7.3943    2.7552  -14.0100 C   0  0  0  0  0  0  0  0  0  0  0  0
    8.2673    3.7979  -13.6316 C   0  0  0  0  0  0  0  0  0  0  0  0
    7.8594    4.7170  -12.7167 C   0  0  0  0  0  0  0  0  0  0  0  0
    6.6130    4.6646  -12.1420 C   0  0  0  0  0  0  0  0  0  0  0  0
    5.7524    3.6494  -12.5054 C   0  0  0  0  0  0  0  0  0  0  0  0
    6.1511    2.7016  -13.4379 C   0  0  0  0  0  0  0  0  0  0  0  0
    5.4612    1.5478  -13.9920 C   0  0  0  0  0  0  0  0  0  0  0  0
    4.1874    1.0073  -13.7816 C   0  0  0  0  0  0  0  0  0  0  0  0
    3.7604   -0.1207  -14.4449 C   0  0  0  0  0  0  0  0  0  0  0  0
    4.5931   -0.7502  -15.3440 C   0  0  0  0  0  0  0  0  0  0  0  0
    4.4178   -1.8610  -16.1179 N   0  0  0  0  0  0  0  0  0  0  0  0
    5.5283   -2.0891  -16.8432 C   0  0  0  0  0  0  0  0  0  0  0  0
    6.4317   -1.0804  -16.5078 C   0  0  0  0  0  0  0  0  0  0  0  0
    5.8515   -0.2463  -15.5751 C   0  0  0  0  0  0  0  0  0  0  0  0
    6.2708    0.9049  -14.8901 C   0  0  0  0  0  0  0  0  0  0  0  0
    3.5645   -2.4727  -16.1705 H   0  0  0  0  0  0  0  0  0  0  0  0
    8.7193    5.7817  -12.3133 N   0  0  0  0  0  0  0  0  0  0  0  0
    9.0839    5.9207  -11.0786 C   0  0  0  0  0  0  0  0  0  0  0  0
    8.6944    5.0954  -10.0938 N   0  0  0  0  0  0  0  0  0  0  0  0
    9.0875    5.2568   -8.8028 C   0  0  0  0  0  0  0  0  0  0  0  0
    9.9221    6.3067   -8.4684 C   0  0  0  0  0  0  0  0  0  0  0  0
   10.3617    6.5306   -7.1716 C   0  0  0  0  0  0  0  0  0  0  0  0
   11.1962    7.5812   -6.8392 C   0  0  0  0  0  0  0  0  0  0  0  0
   11.5939    8.4314   -7.8699 C   0  0  0  0  0  0  0  0  0  0  0  0
   11.1560    8.2042   -9.1478 C   0  0  0  0  0  0  0  0  0  0  0  0
   10.3234    7.1558   -9.4786 C   0  0  0  0  0  0  0  0  0  0  0  0
    9.8951    6.9355  -10.7344 N   0  0  0  0  0  0  0  0  0  0  0  0
    8.0580    4.2989  -10.3629 H   0  0  0  0  0  0  0  0  0  0  0  0
   11.6585    7.8167   -5.4744 C   0  0  0  0  0  0  0  0  0  0  0  0
   11.3941    6.8756   -4.4911 C   0  0  0  0  0  0  0  0  0  0  0  0
   11.7996    7.0302   -3.1807 C   0  0  0  0  0  0  0  0  0  0  0  0
   12.4929    8.1624   -2.8383 C   0  0  0  0  0  0  0  0  0  0  0  0
   12.7716    9.1174   -3.7939 C   0  0  0  0  0  0  0  0  0  0  0  0
   12.3518    8.9374   -5.1066 C   0  0  0  0  0  0  0  0  0  0  0  0
  1  2  2  0
  2  3  1  0
  3  4  1  0
  4  5  2  0
  6  4  1  1
  6  7  1  0
  7  8  2  0
  7  9  1  0
  6 10  1  0
 10 11  2  0
 11 12  1  0
 12 26  1  0
 26 27  2  0
 27 28  1  0
 28 29  1  0
 29 30  2  0
 30 31  1  0
 31 32  2  0
 32 38  1  0
 38 39  2  0
 39 40  1  0
 40 41  2  0
 41 42  1  0
 42 43  2  0
 32 33  1  0
 33 34  2  0
 34 35  1  0
 35 36  2  0
 12 13  2  0
 13 14  1  0
 14 15  2  0
 15 16  1  0
 16 17  2  0
 17 18  1  0
 18 19  2  0
 19 20  1  0
 20 21  1  0
 21 22  2  0
 22 23  1  0
 23 24  2  0
  9  2  1  0
 15 10  1  0
 24 16  1  0
 24  6  1  0
 36 27  1  0
 23 19  1  0
 35 30  1  0
 43 38  1  0
 28 37  1  0
 20 25  1  0
M  CHG  2   3  -1   9  -1
M  END
>  <minimizedAffinity>  (125) 
-17.53706

$$$$
Mol: 194_50 - SminaDock
     RDKit          3D

 47 54  0  0  0  0  0  0  0  0999 V2000
    4.0826   -3.1126  -16.8746 H   0  0  0  0  0  0  0  0  0  0  0  0
    5.0390   -2.7329  -16.9583 N   0  0  0  0  0  0  0  0  0  0  0  0
    5.3366   -1.6427  -16.3449 C   0  0  0  0  0  0  0  0  0  0  0  0
    4.3554   -1.0275  -15.5980 C   0  0  0  0  0  0  0  0  0  0  0  0
    4.6516    0.1477  -14.9278 C   0  0  0  0  0  0  0  0  0  0  0  0
    5.9411    0.6284  -15.0609 C   0  0  0  0  0  0  0  0  0  0  0  0
    6.5084    1.7831  -14.4977 C   0  0  0  0  0  0  0  0  0  0  0  0
    7.7931    1.8235  -14.9214 C   0  0  0  0  0  0  0  0  0  0  0  0
    8.0045    0.7194  -15.7203 N   0  0  0  0  0  0  0  0  0  0  0  0
    8.9071    0.4485  -16.1986 H   0  0  0  0  0  0  0  0  0  0  0  0
    6.8867   -0.0051  -15.8075 C   0  0  0  0  0  0  0  0  0  0  0  0
    6.5895   -1.1371  -16.4488 N   0  0  0  0  0  0  0  0  0  0  0  0
    7.3081   -1.6512  -17.0377 H   0  0  0  0  0  0  0  0  0  0  0  0
    8.7190    2.8987  -14.5553 C   0  0  1  0  0  0  0  0  0  0  0  0
    8.1310    3.8649  -13.5914 C   0  0  0  0  0  0  0  0  0  0  0  0
    8.9551    4.9085  -13.1096 C   0  0  0  0  0  0  0  0  0  0  0  0
    8.4426    5.8418  -12.2377 C   0  0  0  0  0  0  0  0  0  0  0  0
    7.1424    5.8275  -11.7898 C   0  0  0  0  0  0  0  0  0  0  0  0
    6.3520    4.8067  -12.2665 C   0  0  0  0  0  0  0  0  0  0  0  0
    6.8514    3.8345  -13.1619 C   0  0  0  0  0  0  0  0  0  0  0  0
    5.9411    2.7753  -13.5948 C   0  0  0  0  0  0  0  0  0  0  0  0
    4.7614    2.7239  -13.2180 O   0  0  0  0  0  0  0  0  0  0  0  0
   10.0085    2.3514  -13.9933 C   0  0  0  0  0  0  0  0  0  0  0  0
   10.9825    1.8174  -14.9323 C   0  0  0  0  0  0  0  0  0  0  0  0
   11.0250    2.2909  -16.3299 C   0  0  1  0  0  0  0  0  0  0  0  0
   11.2939    1.2769  -17.2462 O   0  0  0  0  0  0  0  0  0  0  0  0
   11.3791    0.3967  -16.8413 H   0  0  0  0  0  0  0  0  0  0  0  0
    9.8120    3.0352  -16.7847 C   0  0  0  0  0  0  0  0  0  0  0  0
    9.0900    3.7699  -15.7433 C   0  0  0  0  0  0  0  0  0  0  0  0
    9.2913    6.8781  -11.7698 N   0  0  0  0  0  0  0  0  0  0  0  0
    9.5961    6.8995  -10.5230 C   0  0  0  0  0  0  0  0  0  0  0  0
   10.3966    7.8549  -10.0136 N   0  0  0  0  0  0  0  0  0  0  0  0
   10.7262    7.8957   -8.7184 C   0  0  0  0  0  0  0  0  0  0  0  0
   11.5505    8.8848   -8.2104 C   0  0  0  0  0  0  0  0  0  0  0  0
   11.8798    8.9112   -6.8718 C   0  0  0  0  0  0  0  0  0  0  0  0
   11.4079    7.9599   -5.9769 C   0  0  0  0  0  0  0  0  0  0  0  0
   10.5845    6.9770   -6.5009 C   0  0  0  0  0  0  0  0  0  0  0  0
   10.2532    6.9484   -7.8408 C   0  0  0  0  0  0  0  0  0  0  0  0
    9.4333    5.9693   -8.3611 C   0  0  0  0  0  0  0  0  0  0  0  0
    9.1304    5.9696   -9.6673 N   0  0  0  0  0  0  0  0  0  0  0  0
    8.4942    5.1934  -10.0190 H   0  0  0  0  0  0  0  0  0  0  0  0
   11.7664    8.0059   -4.5714 C   0  0  0  0  0  0  0  0  0  0  0  0
   12.1486    9.2003   -4.0025 C   0  0  0  0  0  0  0  0  0  0  0  0
   12.4894    9.2652   -2.6830 N   0  0  0  0  0  0  0  0  0  0  0  0
   12.4696    8.1852   -1.8850 C   0  0  0  0  0  0  0  0  0  0  0  0
   12.0919    6.9726   -2.4214 C   0  0  0  0  0  0  0  0  0  0  0  0
   11.7387    6.8879   -3.7749 C   0  0  0  0  0  0  0  0  0  0  0  0
  1  2  1  0
  2  3  2  0
  3  4  1  0
  4  5  2  0
  5  6  1  0
  6  7  1  0
  7  8  2  0
  8  9  1  0
  9 10  1  0
  9 11  1  0
 11 12  1  0
 12 13  1  0
  8 14  1  0
 14 15  1  0
 15 16  2  0
 16 17  1  0
 17 30  1  0
 30 31  2  0
 31 32  1  0
 32 33  2  0
 33 34  1  0
 34 35  2  0
 35 36  1  0
 36 42  1  0
 42 43  2  0
 43 44  1  0
 44 45  2  0
 45 46  1  0
 46 47  2  0
 36 37  2  0
 37 38  1  0
 38 39  2  0
 39 40  1  0
 40 41  1  0
 17 18  2  0
 18 19  1  0
 19 20  2  0
 20 21  1  0
 21 22  2  0
 14 23  1  1
 23 24  1  0
 24 25  1  0
 25 26  1  6
 26 27  1  0
 25 28  1  0
 28 29  1  0
 12  3  1  0
 29 14  1  0
 11  6  2  0
 20 15  1  0
 21  7  1  0
 40 31  1  0
 38 33  1  0
 47 42  1  0
M  END
>  <minimizedAffinity>  (126) 
-17.52011

$$$$
Mol: 135_18 - SminaDock
     RDKit          3D

 44 51  0  0  0  0  0  0  0  0999 V2000
   11.2151   -0.2184  -14.9919 H   0  0  0  0  0  0  0  0  0  0  0  0
   10.2027   -0.1250  -14.8567 O   0  0  0  0  0  0  0  0  0  0  0  0
    9.6773    1.1551  -14.8001 C   0  0  0  0  0  0  0  0  0  0  0  0
   10.4082    2.1902  -14.9608 N   0  0  0  0  0  0  0  0  0  0  0  0
   10.1270    3.6006  -14.9538 C   0  0  1  0  0  0  0  0  0  0  0  0
    9.2466    4.0674  -13.8881 C   0  0  0  0  0  0  0  0  0  0  0  0
    9.6436    5.2496  -13.2831 C   0  0  0  0  0  0  0  0  0  0  0  0
    8.8507    5.7630  -12.2855 C   0  0  0  0  0  0  0  0  0  0  0  0
    7.6737    5.1517  -11.8585 C   0  0  0  0  0  0  0  0  0  0  0  0
    7.2850    3.9754  -12.4647 C   0  0  0  0  0  0  0  0  0  0  0  0
    8.0725    3.4601  -13.4588 C   0  0  0  0  0  0  0  0  0  0  0  0
    7.4754    2.1952  -13.9425 C   0  0  0  0  0  0  0  0  0  0  0  0
    6.1491    2.1124  -13.7491 N   0  0  0  0  0  0  0  0  0  0  0  0
    5.5185    0.9825  -14.1552 C   0  0  0  0  0  0  0  0  0  0  0  0
    4.1468    0.8318  -13.9849 C   0  0  0  0  0  0  0  0  0  0  0  0
    3.4509   -0.2918  -14.3767 C   0  0  0  0  0  0  0  0  0  0  0  0
    4.1583   -1.3170  -14.9681 C   0  0  0  0  0  0  0  0  0  0  0  0
    5.5238   -1.1970  -15.1513 C   0  0  0  0  0  0  0  0  0  0  0  0
    6.2141   -0.0498  -14.7478 C   0  0  0  0  0  0  0  0  0  0  0  0
    7.5759    0.0498  -14.9397 C   0  0  0  0  0  0  0  0  0  0  0  0
    8.2227    1.1734  -14.5395 C   0  0  0  0  0  0  0  0  0  0  0  0
   11.3946    4.4096  -15.1020 C   0  0  0  0  0  0  0  0  0  0  0  0
   12.2027    3.7035  -16.2016 C   0  0  0  0  0  0  0  0  0  0  0  0
   11.3623    2.9486  -17.0102 O   0  0  0  0  0  0  0  0  0  0  0  0
   10.3249    3.7711  -17.4378 C   0  0  0  0  0  0  0  0  0  0  0  0
    9.3564    3.8623  -16.2726 C   0  0  0  0  0  0  0  0  0  0  0  0
    9.2928    6.9847  -11.6822 N   0  0  0  0  0  0  0  0  0  0  0  0
    9.6647    7.0302  -10.4474 C   0  0  0  0  0  0  0  0  0  0  0  0
    9.6247    5.8835   -9.7345 N   0  0  0  0  0  0  0  0  0  0  0  0
    9.9983    5.8674   -8.4484 C   0  0  0  0  0  0  0  0  0  0  0  0
   10.4242    7.0044   -7.8377 C   0  0  0  0  0  0  0  0  0  0  0  0
   10.8178    7.0383   -6.5202 C   0  0  0  0  0  0  0  0  0  0  0  0
   11.2518    8.1799   -5.8851 C   0  0  0  0  0  0  0  0  0  0  0  0
   11.2897    9.3504   -6.6225 C   0  0  0  0  0  0  0  0  0  0  0  0
   10.9020    9.3369   -7.9351 C   0  0  0  0  0  0  0  0  0  0  0  0
   10.4677    8.1941   -8.5705 C   0  0  0  0  0  0  0  0  0  0  0  0
   10.0834    8.1572   -9.8538 N   0  0  0  0  0  0  0  0  0  0  0  0
   10.1064    9.0259  -10.4185 H   0  0  0  0  0  0  0  0  0  0  0  0
   11.6576    8.1472   -4.4846 C   0  0  0  0  0  0  0  0  0  0  0  0
   11.6799    6.9290   -3.8440 C   0  0  0  0  0  0  0  0  0  0  0  0
   12.0544    6.8129   -2.5085 C   0  0  0  0  0  0  0  0  0  0  0  0
   12.4093    7.9582   -1.8242 C   0  0  0  0  0  0  0  0  0  0  0  0
   12.3872    9.1926   -2.4713 C   0  0  0  0  0  0  0  0  0  0  0  0
   12.0103    9.2995   -3.8109 C   0  0  0  0  0  0  0  0  0  0  0  0
  1  2  1  0
  2  3  1  0
  3  4  2  0
  4  5  1  0
  5  6  1  0
  6  7  2  0
  7  8  1  0
  8 27  1  0
 27 28  2  0
 28 29  1  0
 29 30  2  0
 30 31  1  0
 31 32  2  0
 32 33  1  0
 33 39  1  0
 39 40  2  0
 40 41  1  0
 41 42  2  0
 42 43  1  0
 43 44  2  0
 33 34  2  0
 34 35  1  0
 35 36  2  0
 36 37  1  0
 37 38  1  0
  8  9  2  0
  9 10  1  0
 10 11  2  0
 11 12  1  0
 12 13  2  0
 13 14  1  0
 14 15  2  0
 15 16  1  0
 16 17  2  0
 17 18  1  0
 18 19  2  0
 19 20  1  0
 20 21  2  0
  5 22  1  6
 22 23  1  0
 23 24  1  0
 24 25  1  0
 25 26  1  0
 21  3  1  0
 26  5  1  0
 11  6  1  0
 21 12  1  0
 37 28  1  0
 19 14  1  0
 36 31  1  0
 44 39  1  0
M  END
>  <minimizedAffinity>  (127) 
-17.49406

$$$$
Mol: 142_27 - SminaDock
     RDKit          3D

 40 46  0  0  0  0  0  0  0  0999 V2000
    3.3201   -1.1445  -16.0259 H   0  0  0  0  0  0  0  0  0  0  0  0
    4.1909   -1.5784  -15.6931 O   0  0  0  0  0  0  0  0  0  0  0  0
    5.3937   -1.0614  -16.1463 C   0  0  0  0  0  0  0  0  0  0  0  0
    6.0701   -1.6237  -17.1822 N   0  0  0  0  0  0  0  0  0  0  0  0
    7.2197   -1.1416  -17.6259 N   0  0  0  0  0  0  0  0  0  0  0  0
    7.7220   -1.5918  -18.4253 H   0  0  0  0  0  0  0  0  0  0  0  0
    7.7403   -0.0405  -17.0177 C   0  0  0  0  0  0  0  0  0  0  0  0
    8.8383    0.4405  -17.4223 O   0  0  0  0  0  0  0  0  0  0  0  0
    7.0828    0.5551  -15.9659 C   0  0  0  0  0  0  0  0  0  0  0  0
    7.6233    1.6735  -15.3575 C   0  0  0  0  0  0  0  0  0  0  0  0
    6.9559    2.2725  -14.2951 C   0  0  0  0  0  0  0  0  0  0  0  0
    5.7667    1.7763  -13.8335 C   0  0  0  0  0  0  0  0  0  0  0  0
    5.2158    0.6319  -14.4575 C   0  0  0  0  0  0  0  0  0  0  0  0
    5.8901    0.0532  -15.5071 C   0  0  0  0  0  0  0  0  0  0  0  0
    5.0374    2.3750  -12.7150 C   0  0  0  0  0  0  0  0  0  0  0  0
    5.5993    3.5839  -12.0931 C   0  0  0  0  0  0  0  0  0  0  0  0
    6.8738    4.0499  -12.6300 C   0  0  0  0  0  0  0  0  0  0  0  0
    7.4205    5.1836  -12.0171 C   0  0  0  0  0  0  0  0  0  0  0  0
    8.6159    5.7214  -12.4370 C   0  0  0  0  0  0  0  0  0  0  0  0
    9.2796    5.1052  -13.5001 C   0  0  0  0  0  0  0  0  0  0  0  0
    8.7598    3.9895  -14.1169 C   0  0  0  0  0  0  0  0  0  0  0  0
    7.5561    3.4537  -13.6884 C   0  0  0  0  0  0  0  0  0  0  0  0
    9.2075    6.8741  -11.8439 N   0  0  0  0  0  0  0  0  0  0  0  0
    9.5617    6.8681  -10.5825 C   0  0  0  0  0  0  0  0  0  0  0  0
    9.3794    5.7806   -9.8131 N   0  0  0  0  0  0  0  0  0  0  0  0
    9.7462    5.7732   -8.5011 C   0  0  0  0  0  0  0  0  0  0  0  0
   10.3170    6.8903   -7.9303 C   0  0  0  0  0  0  0  0  0  0  0  0
   10.6969    6.9159   -6.6110 C   0  0  0  0  0  0  0  0  0  0  0  0
   11.2699    8.0302   -6.0226 C   0  0  0  0  0  0  0  0  0  0  0  0
   11.4472    9.1318   -6.8282 C   0  0  0  0  0  0  0  0  0  0  0  0
   11.0721    9.1282   -8.1603 C   0  0  0  0  0  0  0  0  0  0  0  0
   10.4994    7.9999   -8.7276 C   0  0  0  0  0  0  0  0  0  0  0  0
   10.1184    7.9496  -10.0146 N   0  0  0  0  0  0  0  0  0  0  0  0
   10.2624    8.7958  -10.6069 H   0  0  0  0  0  0  0  0  0  0  0  0
   11.6672    8.0437   -4.6167 C   0  0  0  0  0  0  0  0  0  0  0  0
   12.0371    9.2014   -3.9652 C   0  0  0  0  0  0  0  0  0  0  0  0
   12.4118    9.1747   -2.6316 C   0  0  0  0  0  0  0  0  0  0  0  0
   12.4342    8.0076   -1.8959 C   0  0  0  0  0  0  0  0  0  0  0  0
   12.0658    6.8449   -2.5389 C   0  0  0  0  0  0  0  0  0  0  0  0
   11.6930    6.8707   -3.8657 C   0  0  0  0  0  0  0  0  0  0  0  0
  1  2  1  0
  2  3  1  0
  3  4  2  0
  4  5  1  0
  5  6  1  0
  5  7  1  0
  7  8  2  0
  7  9  1  0
  9 10  2  0
 10 11  1  0
 11 12  2  0
 12 13  1  0
 13 14  2  0
 12 15  1  0
 15 16  1  0
 16 17  1  0
 17 18  2  0
 18 19  1  0
 19 23  1  0
 23 24  2  0
 24 25  1  0
 25 26  2  0
 26 27  1  0
 27 28  2  0
 28 29  1  0
 29 35  1  0
 35 36  2  0
 36 37  1  0
 37 38  2  0
 38 39  1  0
 39 40  2  0
 29 30  2  0
 30 31  1  0
 31 32  2  0
 32 33  1  0
 33 34  1  0
 19 20  2  0
 20 21  1  0
 21 22  2  0
 14  3  1  0
 22 17  1  0
 14  9  1  0
 33 24  1  0
 22 11  1  0
 32 27  1  0
 40 35  1  0
M  END
>  <minimizedAffinity>  (128) 
-17.46181

$$$$
Mol: 142_61 - SminaDock
     RDKit          3D

 46 53  0  0  0  0  0  0  0  0999 V2000
   10.8936    1.0496  -13.8976 H   0  0  0  0  0  0  0  0  0  0  0  0
   10.3771    1.9328  -13.9552 O   0  0  0  0  0  0  0  0  0  0  0  0
   10.5802    2.7798  -15.0380 C   0  0  0  0  0  0  0  0  0  0  0  0
   11.7149    2.8261  -15.6173 N   0  0  0  0  0  0  0  0  0  0  0  0
   11.9130    3.6932  -16.7199 C   0  0  0  0  0  0  0  0  0  0  0  0
   13.0257    3.7598  -17.3146 O   0  0  0  0  0  0  0  0  0  0  0  0
   10.7994    4.4830  -17.1233 N   0  0  0  0  0  0  0  0  0  0  0  0
   10.7078    4.8023  -18.0924 H   0  0  0  0  0  0  0  0  0  0  0  0
    9.8617    4.7983  -16.1673 N   0  0  0  0  0  0  0  0  0  0  0  0
    9.0229    5.2674  -16.5788 H   0  0  0  0  0  0  0  0  0  0  0  0
    9.3866    3.6068  -15.4526 C   0  0  2  0  0  0  0  0  0  0  0  0
    8.7054    4.1286  -14.2460 C   0  0  0  0  0  0  0  0  0  0  0  0
    9.3065    5.1866  -13.5400 C   0  0  0  0  0  0  0  0  0  0  0  0
    8.7292    5.6232  -12.3847 C   0  0  0  0  0  0  0  0  0  0  0  0
    7.5757    5.0336  -11.9218 C   0  0  0  0  0  0  0  0  0  0  0  0
    6.9698    3.9891  -12.6089 C   0  0  0  0  0  0  0  0  0  0  0  0
    7.5554    3.5524  -13.7752 C   0  0  0  0  0  0  0  0  0  0  0  0
    6.8410    2.5030  -14.5327 C   0  0  0  0  0  0  0  0  0  0  0  0
    7.3708    2.1312  -15.7473 C   0  0  0  0  0  0  0  0  0  0  0  0
    6.7344    1.0825  -16.4152 C   0  0  0  0  0  0  0  0  0  0  0  0
    5.6335    0.4376  -15.9134 C   0  0  0  0  0  0  0  0  0  0  0  0
    5.0237   -0.6096  -16.6151 C   0  0  0  0  0  0  0  0  0  0  0  0
    3.9164   -1.2596  -16.1139 C   0  0  0  0  0  0  0  0  0  0  0  0
    3.3974   -0.8717  -14.8966 C   0  0  0  0  0  0  0  0  0  0  0  0
    4.0128    0.1679  -14.2126 C   0  0  0  0  0  0  0  0  0  0  0  0
    5.1121    0.8209  -14.6992 C   0  0  0  0  0  0  0  0  0  0  0  0
    5.7328    1.8685  -14.0096 C   0  0  0  0  0  0  0  0  0  0  0  0
    8.4973    2.8411  -16.3482 C   0  0  0  0  0  0  0  0  0  0  0  0
    9.3344    6.6889  -11.6703 N   0  0  0  0  0  0  0  0  0  0  0  0
    9.6333    6.6728  -10.4284 C   0  0  0  0  0  0  0  0  0  0  0  0
    9.4267    5.6484   -9.5882 N   0  0  0  0  0  0  0  0  0  0  0  0
    9.7591    5.6710   -8.2844 C   0  0  0  0  0  0  0  0  0  0  0  0
   10.3437    6.8020   -7.7743 C   0  0  0  0  0  0  0  0  0  0  0  0
   10.7118    6.8908   -6.4408 C   0  0  0  0  0  0  0  0  0  0  0  0
   11.2977    8.0450   -5.9697 C   0  0  0  0  0  0  0  0  0  0  0  0
   11.5187    9.1112   -6.8208 C   0  0  0  0  0  0  0  0  0  0  0  0
   11.1473    9.0035   -8.1368 C   0  0  0  0  0  0  0  0  0  0  0  0
   10.5522    7.8494   -8.6448 C   0  0  0  0  0  0  0  0  0  0  0  0
   10.2094    7.7890   -9.9286 N   0  0  0  0  0  0  0  0  0  0  0  0
   10.3868    8.6145  -10.5616 H   0  0  0  0  0  0  0  0  0  0  0  0
   11.6727    8.1083   -4.5668 C   0  0  0  0  0  0  0  0  0  0  0  0
   12.0313    9.2748   -3.9262 C   0  0  0  0  0  0  0  0  0  0  0  0
   12.3790    9.2840   -2.5924 C   0  0  0  0  0  0  0  0  0  0  0  0
   12.3595    8.0866   -1.9059 C   0  0  0  0  0  0  0  0  0  0  0  0
   12.0021    6.9179   -2.5404 C   0  0  0  0  0  0  0  0  0  0  0  0
   11.6566    6.9109   -3.8672 C   0  0  0  0  0  0  0  0  0  0  0  0
  1  2  1  0
  2  3  1  0
  3  4  2  0
  4  5  1  0
  5  6  2  0
  5  7  1  0
  7  8  1  0
  7  9  1  0
  9 10  1  0
 11  9  1  0
 11 12  1  0
 12 13  2  0
 13 14  1  0
 14 29  1  0
 29 30  2  0
 30 31  1  0
 31 32  2  0
 32 33  1  0
 33 34  2  0
 34 35  1  0
 35 41  1  0
 41 42  2  0
 42 43  1  0
 43 44  2  0
 44 45  1  0
 45 46  2  0
 35 36  2  0
 36 37  1  0
 37 38  2  0
 38 39  1  0
 39 40  1  0
 14 15  2  0
 15 16  1  0
 16 17  2  0
 17 18  1  0
 18 19  2  0
 19 20  1  0
 20 21  2  0
 21 22  1  0
 22 23  2  0
 23 24  1  0
 24 25  2  0
 25 26  1  0
 26 27  2  0
 19 28  1  0
 11  3  1  0
 17 12  1  0
 27 18  1  0
 11 28  1  6
 39 30  1  0
 26 21  1  0
 38 33  1  0
 46 41  1  0
M  END
>  <minimizedAffinity>  (129) 
-17.53298

$$$$
Mol: 152_33 - SminaDock
     RDKit          3D

 39 45  0  0  0  0  0  0  0  0999 V2000
    8.7392    5.6453  -12.3835 C   0  0  0  0  0  0  0  0  0  0  0  0
    9.5220    4.8779  -13.2188 C   0  0  0  0  0  0  0  0  0  0  0  0
    8.9483    3.7335  -13.7581 C   0  0  0  0  0  0  0  0  0  0  0  0
    7.6510    3.3622  -13.4821 C   0  0  0  0  0  0  0  0  0  0  0  0
    6.8638    4.1354  -12.6411 C   0  0  0  0  0  0  0  0  0  0  0  0
    7.4404    5.2685  -12.1106 C   0  0  0  0  0  0  0  0  0  0  0  0
    5.4781    3.8495  -12.2732 C   0  0  0  0  0  0  0  0  0  0  0  0
    4.8787    2.6294  -12.8473 C   0  0  0  0  0  0  0  0  0  0  0  0
    5.7246    1.8212  -13.7373 C   0  0  0  0  0  0  0  0  0  0  0  0
    5.1604    0.6669  -14.2845 C   0  0  0  0  0  0  0  0  0  0  0  0
    5.9385   -0.0924  -15.1114 C   0  0  0  0  0  0  0  0  0  0  0  0
    7.2312    0.2282  -15.4210 C   0  0  0  0  0  0  0  0  0  0  0  0
    7.9569   -0.4616  -16.1800 O   0  0  0  0  0  0  0  0  0  0  0  0
    7.7456    1.3682  -14.8632 N   0  0  0  0  0  0  0  0  0  0  0  0
    8.7246    1.6359  -15.0807 H   0  0  0  0  0  0  0  0  0  0  0  0
    7.0342    2.1601  -14.0414 C   0  0  0  0  0  0  0  0  0  0  0  0
    5.3471   -1.3220  -15.6950 C   0  0  0  0  0  0  0  0  0  0  0  0
    3.9576   -0.9916  -16.0192 N   0  0  0  0  0  0  0  0  0  0  0  0
    4.0204   -0.0875  -16.5727 H   0  0  0  0  0  0  0  0  0  0  0  0
    3.2197   -0.7949  -14.7969 C   0  0  0  0  0  0  0  0  0  0  0  0
    3.7549    0.3162  -13.9485 C   0  0  0  0  0  0  0  0  0  0  0  0
   11.2911    8.0369   -6.0147 C   0  0  0  0  0  0  0  0  0  0  0  0
   11.4912    9.1211   -6.8487 C   0  0  0  0  0  0  0  0  0  0  0  0
   11.1432    9.1089   -8.1836 C   0  0  0  0  0  0  0  0  0  0  0  0
   10.5709    7.9785   -8.7286 C   0  0  0  0  0  0  0  0  0  0  0  0
   10.2184    7.9431  -10.0473 N   0  0  0  0  0  0  0  0  0  0  0  0
    9.6566    6.8264  -10.5720 C   0  0  0  0  0  0  0  0  0  0  0  0
    9.3293    6.8178  -11.8315 N   0  0  0  0  0  0  0  0  0  0  0  0
    9.4365    5.7393   -9.8116 N   0  0  0  0  0  0  0  0  0  0  0  0
    9.0003    4.9144  -10.2811 H   0  0  0  0  0  0  0  0  0  0  0  0
    9.7814    5.7658   -8.5095 C   0  0  0  0  0  0  0  0  0  0  0  0
   10.3562    6.8775   -7.9269 C   0  0  0  0  0  0  0  0  0  0  0  0
   10.7103    6.9084   -6.5955 C   0  0  0  0  0  0  0  0  0  0  0  0
   12.3539    8.0426   -1.9175 C   0  0  0  0  0  0  0  0  0  0  0  0
   12.3897    9.2188   -2.6444 C   0  0  0  0  0  0  0  0  0  0  0  0
   12.0453    9.2106   -3.9681 C   0  0  0  0  0  0  0  0  0  0  0  0
   11.6570    8.0484   -4.6131 C   0  0  0  0  0  0  0  0  0  0  0  0
   11.6298    6.8877   -3.8653 C   0  0  0  0  0  0  0  0  0  0  0  0
   11.9724    6.8662   -2.5262 C   0  0  0  0  0  0  0  0  0  0  0  0
 34 35  2  0
 35 36  1  0
 36 37  2  0
 37 22  1  0
 22 23  1  0
 23 24  2  0
 24 25  1  0
 25 26  2  0
 26 27  1  0
 27 28  2  0
 28  1  1  0
  1  2  2  0
  2  3  1  0
  3  4  2  0
  4  5  1  0
  5  6  2  0
  5  7  1  0
  7  8  1  0
  8  9  1  0
  9 10  1  0
 10 11  2  0
 11 12  1  0
 12 13  2  0
 12 14  1  0
 14 15  1  0
 14 16  1  0
 11 17  1  0
 17 18  1  0
 18 19  1  0
 18 20  1  0
 20 21  1  0
 27 29  1  0
 29 30  1  0
 29 31  1  0
 31 32  2  0
 32 33  1  0
 37 38  1  0
 38 39  2  0
 39 34  1  0
 33 22  2  0
 32 25  1  0
  6  1  1  0
 16  9  2  0
 16  4  1  0
 21 10  1  0
M  END
>  <minimizedAffinity>  (130) 
-17.51601

$$$$
Mol: 142_35 - SminaDock
     RDKit          3D

 42 49  0  0  0  0  0  0  0  0999 V2000
    8.4697    5.6824  -12.3584 C   0  0  0  0  0  0  0  0  0  0  0  0
    7.2761    5.3774  -11.7400 C   0  0  0  0  0  0  0  0  0  0  0  0
    6.5376    4.3020  -12.1736 C   0  0  0  0  0  0  0  0  0  0  0  0
    6.9651    3.4967  -13.2369 C   0  0  0  0  0  0  0  0  0  0  0  0
    8.1473    3.7961  -13.8460 C   0  0  0  0  0  0  0  0  0  0  0  0
    8.9044    4.9035  -13.3998 C   0  0  0  0  0  0  0  0  0  0  0  0
    8.6728    2.9149  -14.8850 C   0  0  2  0  0  0  0  0  0  0  0  0
    9.4893    1.9095  -14.1495 N   0  0  0  0  0  0  0  0  0  0  0  0
    8.9205    1.0525  -13.9866 H   0  0  0  0  0  0  0  0  0  0  0  0
   10.6849    1.6352  -14.7981 N   0  0  0  0  0  0  0  0  0  0  0  0
   10.6872    1.5210  -16.2079 C   0  0  0  0  0  0  0  0  0  0  0  0
   11.1786    0.5384  -16.8248 O   0  0  0  0  0  0  0  0  0  0  0  0
   10.0521    2.6734  -16.9518 C   0  0  0  0  0  0  0  0  0  0  0  0
    9.6147    3.6364  -15.8374 C   0  0  0  0  0  0  0  0  0  0  0  0
    7.6518    2.1281  -15.6011 C   0  0  0  0  0  0  0  0  0  0  0  0
    6.4989    1.7443  -14.8387 N   0  0  0  0  0  0  0  0  0  0  0  0
    6.1133    2.4263  -13.7485 C   0  0  0  0  0  0  0  0  0  0  0  0
    4.9745    1.9186  -13.2640 N   0  0  0  0  0  0  0  0  0  0  0  0
    4.6521    0.8881  -14.0828 C   0  0  0  0  0  0  0  0  0  0  0  0
    3.5914   -0.0067  -14.0850 C   0  0  0  0  0  0  0  0  0  0  0  0
    3.4641   -1.0006  -15.0416 C   0  0  0  0  0  0  0  0  0  0  0  0
    4.4121   -1.1321  -16.0444 C   0  0  0  0  0  0  0  0  0  0  0  0
    5.4624   -0.2368  -16.0324 C   0  0  0  0  0  0  0  0  0  0  0  0
    5.5877    0.7503  -15.0812 C   0  0  0  0  0  0  0  0  0  0  0  0
   11.3556    8.0063   -6.1204 C   0  0  0  0  0  0  0  0  0  0  0  0
   11.7576    9.0020   -6.9872 C   0  0  0  0  0  0  0  0  0  0  0  0
   11.4096    8.9511   -8.3352 C   0  0  0  0  0  0  0  0  0  0  0  0
   10.6597    7.9212   -8.8585 C   0  0  0  0  0  0  0  0  0  0  0  0
   10.3168    7.8603  -10.1555 N   0  0  0  0  0  0  0  0  0  0  0  0
    9.5750    6.8470  -10.6829 C   0  0  0  0  0  0  0  0  0  0  0  0
    9.2600    6.8102  -11.9191 N   0  0  0  0  0  0  0  0  0  0  0  0
    9.1873    5.8806   -9.8317 N   0  0  0  0  0  0  0  0  0  0  0  0
    8.6069    5.0765  -10.2165 H   0  0  0  0  0  0  0  0  0  0  0  0
    9.5102    5.9059   -8.5280 C   0  0  0  0  0  0  0  0  0  0  0  0
   10.2602    6.9282   -7.9881 C   0  0  0  0  0  0  0  0  0  0  0  0
   10.6053    6.9798   -6.6537 C   0  0  0  0  0  0  0  0  0  0  0  0
   12.3512    7.9274   -1.9792 C   0  0  0  0  0  0  0  0  0  0  0  0
   12.4160    9.1166   -2.6773 C   0  0  0  0  0  0  0  0  0  0  0  0
   12.0968    9.1780   -4.0347 C   0  0  0  0  0  0  0  0  0  0  0  0
   11.7106    8.0433   -4.6965 C   0  0  0  0  0  0  0  0  0  0  0  0
   11.6545    6.8609   -3.9682 C   0  0  0  0  0  0  0  0  0  0  0  0
   11.9631    6.7804   -2.6392 C   0  0  0  0  0  0  0  0  0  0  0  0
 37 38  2  0
 38 39  1  0
 39 40  2  0
 40 25  1  0
 25 26  1  0
 26 27  2  0
 27 28  1  0
 28 29  2  0
 29 30  1  0
 30 31  2  0
 31  1  1  0
  1  2  2  0
  2  3  1  0
  3  4  2  0
  4  5  1  0
  5  6  2  0
  5  7  1  0
  7  8  1  0
  8  9  1  0
  8 10  1  0
 10 11  1  0
 11 12  2  0
 11 13  1  0
 13 14  1  0
  7 15  1  6
 15 16  1  0
 16 17  1  0
 17 18  2  0
 18 19  1  0
 19 20  2  0
 20 21  1  0
 21 22  2  0
 22 23  1  0
 23 24  2  0
 30 32  1  0
 32 33  1  0
 32 34  1  0
 34 35  2  0
 35 36  1  0
 40 41  1  0
 41 42  2  0
 42 37  1  0
 36 25  2  0
 35 28  1  0
  6  1  1  0
 14  7  1  0
 24 16  1  0
 17  4  1  0
 24 19  1  0
M  CHG  1  10  -1
M  END
>  <minimizedAffinity>  (131) 
-17.51422

$$$$
Mol: 195_3 - SminaDock
     RDKit          3D

 42 49  0  0  0  0  0  0  0  0999 V2000
    4.2002   -2.4256  -17.3763 H   0  0  0  0  0  0  0  0  0  0  0  0
    4.9478   -2.4175  -16.7209 O   0  0  0  0  0  0  0  0  0  0  0  0
    5.5756   -1.2817  -16.2259 C   0  0  0  0  0  0  0  0  0  0  0  0
    5.1417   -0.4245  -15.2796 N   0  0  0  0  0  0  0  0  0  0  0  0
    6.0619    0.5314  -15.1100 C   0  0  0  0  0  0  0  0  0  0  0  0
    6.1558    1.6525  -14.2886 C   0  0  0  0  0  0  0  0  0  0  0  0
    7.2547    2.4836  -14.3289 C   0  0  0  0  0  0  0  0  0  0  0  0
    8.2712    2.1819  -15.2070 C   0  0  0  0  0  0  0  0  0  0  0  0
    8.1955    1.0728  -16.0304 C   0  0  0  0  0  0  0  0  0  0  0  0
    7.0850    0.2632  -15.9657 C   0  0  0  0  0  0  0  0  0  0  0  0
    6.7766   -0.8557  -16.6493 N   0  0  0  0  0  0  0  0  0  0  0  0
    7.3910   -1.2846  -17.3735 H   0  0  0  0  0  0  0  0  0  0  0  0
    9.3618    3.2112  -15.0891 C   0  0  2  0  0  0  0  0  0  0  0  0
    8.8394    4.1229  -14.0326 C   0  0  0  0  0  0  0  0  0  0  0  0
    9.3663    5.2705  -13.4537 C   0  0  0  0  0  0  0  0  0  0  0  0
    8.6867    5.9637  -12.4743 C   0  0  0  0  0  0  0  0  0  0  0  0
    7.4331    5.5331  -12.0252 C   0  0  0  0  0  0  0  0  0  0  0  0
    6.9236    4.3949  -12.6076 C   0  0  0  0  0  0  0  0  0  0  0  0
    7.6045    3.6923  -13.5950 C   0  0  0  0  0  0  0  0  0  0  0  0
    9.4342    3.8948  -16.4299 C   0  0  0  0  0  0  0  0  0  0  0  0
   10.7299    4.5984  -16.6700 C   0  0  0  0  0  0  0  0  0  0  0  0
   11.9362    3.7705  -16.3105 C   0  0  0  0  0  0  0  0  0  0  0  0
   11.5939    2.3854  -15.8510 C   0  0  0  0  0  0  0  0  0  0  0  0
   10.6132    2.4989  -14.7053 C   0  0  0  0  0  0  0  0  0  0  0  0
    9.2063    7.1387  -11.8675 N   0  0  0  0  0  0  0  0  0  0  0  0
    9.5762    7.1276  -10.6337 C   0  0  0  0  0  0  0  0  0  0  0  0
    9.4621    5.9617   -9.9097 C   0  0  0  0  0  0  0  0  0  0  0  0
    9.8417    5.8996   -8.5840 C   0  0  0  0  0  0  0  0  0  0  0  0
   10.3400    7.0598   -8.0208 C   0  0  0  0  0  0  0  0  0  0  0  0
   10.7292    7.0287   -6.6883 C   0  0  0  0  0  0  0  0  0  0  0  0
   11.2377    8.1337   -6.0355 C   0  0  0  0  0  0  0  0  0  0  0  0
   11.3458    9.2931   -6.7747 C   0  0  0  0  0  0  0  0  0  0  0  0
   10.9645    9.3541   -8.1087 C   0  0  0  0  0  0  0  0  0  0  0  0
   10.4579    8.2281   -8.7348 C   0  0  0  0  0  0  0  0  0  0  0  0
   10.0730    8.2345  -10.0258 N   0  0  0  0  0  0  0  0  0  0  0  0
   10.1701    9.1325  -10.5536 H   0  0  0  0  0  0  0  0  0  0  0  0
   11.6360    8.0663   -4.6356 C   0  0  0  0  0  0  0  0  0  0  0  0
   12.0296    9.1925   -3.9240 C   0  0  0  0  0  0  0  0  0  0  0  0
   12.3980    9.0813   -2.6044 C   0  0  0  0  0  0  0  0  0  0  0  0
   12.3906    7.8682   -1.9485 C   0  0  0  0  0  0  0  0  0  0  0  0
   11.9981    6.7369   -2.6531 C   0  0  0  0  0  0  0  0  0  0  0  0
   11.6235    6.8429   -3.9914 C   0  0  0  0  0  0  0  0  0  0  0  0
  1  2  1  0
  2  3  1  0
  3  4  2  0
  4  5  1  0
  5  6  2  0
  6  7  1  0
  7  8  2  0
  8  9  1  0
  9 10  2  0
 10 11  1  0
 11 12  1  0
  8 13  1  0
 13 14  1  0
 14 15  2  0
 15 16  1  0
 16 25  1  0
 25 26  2  0
 26 27  1  0
 27 28  2  0
 28 29  1  0
 29 30  2  0
 30 31  1  0
 31 37  1  0
 37 38  2  0
 38 39  1  0
 39 40  2  0
 40 41  1  0
 41 42  2  0
 31 32  2  0
 32 33  1  0
 33 34  2  0
 34 35  1  0
 35 36  1  0
 16 17  2  0
 17 18  1  0
 18 19  2  0
 13 20  1  6
 20 21  1  0
 21 22  1  0
 22 23  1  0
 23 24  1  0
 11  3  1  0
 24 13  1  0
 10  5  1  0
 19 14  1  0
 19  7  1  0
 35 26  1  0
 34 29  1  0
 42 37  1  0
M  END
>  <minimizedAffinity>  (132) 
-17.54759

$$$$
Mol: 189_8 - SminaDock
     RDKit          3D

 41 48  0  0  0  0  0  0  0  0999 V2000
    8.5828    5.7678  -12.4853 C   0  0  0  0  0  0  0  0  0  0  0  0
    9.0025    5.2941  -13.7136 C   0  0  0  0  0  0  0  0  0  0  0  0
    8.3322    4.2241  -14.2585 C   0  0  0  0  0  0  0  0  0  0  0  0
    7.2548    3.6022  -13.6273 C   0  0  0  0  0  0  0  0  0  0  0  0
    6.8581    4.0913  -12.4096 C   0  0  0  0  0  0  0  0  0  0  0  0
    7.5252    5.1847  -11.8282 C   0  0  0  0  0  0  0  0  0  0  0  0
    5.7127    3.2734  -11.9539 C   0  0  0  0  0  0  0  0  0  0  0  0
    5.5205    2.2882  -13.0398 C   0  0  0  0  0  0  0  0  0  0  0  0
    4.6016    1.2420  -13.2078 C   0  0  0  0  0  0  0  0  0  0  0  0
    4.5964    0.4268  -14.3182 C   0  0  0  0  0  0  0  0  0  0  0  0
    5.5214    0.6243  -15.3223 C   0  0  0  0  0  0  0  0  0  0  0  0
    6.4293    1.6491  -15.1683 C   0  0  0  0  0  0  0  0  0  0  0  0
    6.4348    2.4697  -14.0509 C   0  0  0  0  0  0  0  0  0  0  0  0
    5.2886   -0.3846  -16.3843 C   0  0  2  0  0  0  0  0  0  0  0  0
    4.1823   -1.1946  -15.9695 N   0  0  0  0  0  0  0  0  0  0  0  0
    3.7673   -2.0082  -16.5123 H   0  0  0  0  0  0  0  0  0  0  0  0
    3.7481   -0.7110  -14.7085 C   0  0  0  0  0  0  0  0  0  0  0  0
    2.7880   -1.2058  -14.0639 O   0  0  0  0  0  0  0  0  0  0  0  0
    6.5053   -1.2632  -16.5915 C   0  0  0  0  0  0  0  0  0  0  0  0
    7.1845   -0.9318  -17.9127 C   0  0  0  0  0  0  0  0  0  0  0  0
    6.3682   -1.2338  -19.0013 O   0  0  0  0  0  0  0  0  0  0  0  0
    5.0575   -0.8183  -18.7750 C   0  0  0  0  0  0  0  0  0  0  0  0
    4.9772    0.2611  -17.7159 C   0  0  0  0  0  0  0  0  0  0  0  0
   11.2762    7.9438   -6.1576 C   0  0  0  0  0  0  0  0  0  0  0  0
   11.6299    9.0003   -6.9953 C   0  0  0  0  0  0  0  0  0  0  0  0
   11.3016    8.9991   -8.3382 C   0  0  0  0  0  0  0  0  0  0  0  0
   10.6090    7.9356   -8.8746 C   0  0  0  0  0  0  0  0  0  0  0  0
   10.2423    6.8712   -8.0736 C   0  0  0  0  0  0  0  0  0  0  0  0
    9.5465    5.7970   -8.6000 C   0  0  0  0  0  0  0  0  0  0  0  0
    9.2449    5.8348   -9.9178 N   0  0  0  0  0  0  0  0  0  0  0  0
    9.5950    6.8609  -10.7044 C   0  0  0  0  0  0  0  0  0  0  0  0
    9.2970    6.8734  -11.9520 N   0  0  0  0  0  0  0  0  0  0  0  0
   10.2694    7.9037  -10.1978 N   0  0  0  0  0  0  0  0  0  0  0  0
   10.5329    8.6926  -10.8252 H   0  0  0  0  0  0  0  0  0  0  0  0
   10.5849    6.9025   -6.7369 C   0  0  0  0  0  0  0  0  0  0  0  0
   12.3058    7.9761   -2.0727 C   0  0  0  0  0  0  0  0  0  0  0  0
   11.9519    6.7781   -2.6539 C   0  0  0  0  0  0  0  0  0  0  0  0
   11.6213    6.8066   -3.9923 C   0  0  0  0  0  0  0  0  0  0  0  0
   11.6353    7.9713   -4.7445 C   0  0  0  0  0  0  0  0  0  0  0  0
   11.9901    9.1324   -4.1343 C   0  0  0  0  0  0  0  0  0  0  0  0
   12.3292    9.1476   -2.7918 C   0  0  0  0  0  0  0  0  0  0  0  0
 36 37  2  0
 37 38  1  0
 38 39  2  0
 39 24  1  0
 24 25  2  0
 25 26  1  0
 26 27  2  0
 27 28  1  0
 28 29  1  0
 29 30  2  0
 30 31  1  0
 31 32  2  0
 32  1  1  0
  1  2  2  0
  2  3  1  0
  3  4  2  0
  4  5  1  0
  5  6  2  0
  5  7  1  0
  7  8  1  0
  8  9  2  0
  9 10  1  0
 10 11  2  0
 11 12  1  0
 12 13  2  0
 11 14  1  0
 14 15  1  0
 15 16  1  0
 15 17  1  0
 17 18  2  0
 14 19  1  6
 19 20  1  0
 20 21  1  0
 21 22  1  0
 22 23  1  0
 31 33  1  0
 33 34  1  0
 28 35  2  0
 39 40  1  0
 40 41  2  0
 41 36  1  0
 35 24  1  0
 33 27  1  0
  6  1  1  0
 13  8  1  0
 23 14  1  0
 13  4  1  0
 17 10  1  0
M  END
>  <minimizedAffinity>  (133) 
-17.46941

$$$$
Mol: 182_10 - SminaDock
     RDKit          3D

 37 43  0  0  0  0  0  0  0  0999 V2000
    8.8323    5.9469  -12.5075 C   0  0  0  0  0  0  0  0  0  0  0  0
    9.4955    5.2510  -13.4899 C   0  0  0  0  0  0  0  0  0  0  0  0
    8.9241    4.1073  -14.0019 C   0  0  0  0  0  0  0  0  0  0  0  0
    7.7067    3.6049  -13.5855 C   0  0  0  0  0  0  0  0  0  0  0  0
    7.0592    4.3229  -12.5965 C   0  0  0  0  0  0  0  0  0  0  0  0
    7.6173    5.4682  -12.0742 C   0  0  0  0  0  0  0  0  0  0  0  0
    5.8772    3.6295  -12.3530 C   0  0  0  0  0  0  0  0  0  0  0  0
    5.0258    3.9826  -11.5130 O   0  0  0  0  0  0  0  0  0  0  0  0
    5.8226    2.5276  -13.1759 C   0  0  0  0  0  0  0  0  0  0  0  0
    4.8728    1.5378  -13.3194 C   0  0  0  0  0  0  0  0  0  0  0  0
    5.0581    0.5225  -14.2357 C   0  0  0  0  0  0  0  0  0  0  0  0
    4.3100   -0.5841  -14.6055 C   0  0  0  0  0  0  0  0  0  0  0  0
    3.1889   -0.9185  -14.1241 O   0  0  0  0  0  0  0  0  0  0  0  0
    4.9698   -1.2187  -15.5396 O   0  0  0  0  0  0  0  0  0  0  0  0
    6.1090   -0.5969  -15.8084 C   0  0  0  0  0  0  0  0  0  0  0  0
    6.9599   -0.9750  -16.6684 O   0  0  0  0  0  0  0  0  0  0  0  0
    6.2225    0.5191  -15.0105 C   0  0  0  0  0  0  0  0  0  0  0  0
    7.1845    1.4962  -14.8850 C   0  0  0  0  0  0  0  0  0  0  0  0
    6.9742    2.4991  -13.9619 C   0  0  0  0  0  0  0  0  0  0  0  0
   11.2275    7.9780   -6.0111 C   0  0  0  0  0  0  0  0  0  0  0  0
   11.3570    9.1720   -6.7149 C   0  0  0  0  0  0  0  0  0  0  0  0
   10.9945    9.2070   -8.0443 C   0  0  0  0  0  0  0  0  0  0  0  0
   10.5020    8.1117   -8.7326 C   0  0  0  0  0  0  0  0  0  0  0  0
   10.3837    6.9300   -7.9999 C   0  0  0  0  0  0  0  0  0  0  0  0
   10.7464    6.8932   -6.6696 C   0  0  0  0  0  0  0  0  0  0  0  0
    9.8952    5.8153   -8.6459 C   0  0  0  0  0  0  0  0  0  0  0  0
    9.5456    5.8855   -9.9545 C   0  0  0  0  0  0  0  0  0  0  0  0
    9.6734    7.0619  -10.6482 C   0  0  0  0  0  0  0  0  0  0  0  0
    9.3323    7.1354  -11.9145 N   0  0  0  0  0  0  0  0  0  0  0  0
   10.1514    8.1463  -10.0106 N   0  0  0  0  0  0  0  0  0  0  0  0
   10.2488    9.0442  -10.5424 H   0  0  0  0  0  0  0  0  0  0  0  0
   12.3825    8.0398   -1.9017 C   0  0  0  0  0  0  0  0  0  0  0  0
   12.3377    9.1932   -2.6768 C   0  0  0  0  0  0  0  0  0  0  0  0
   11.9644    9.1770   -4.0044 C   0  0  0  0  0  0  0  0  0  0  0  0
   11.6168    7.9827   -4.6114 C   0  0  0  0  0  0  0  0  0  0  0  0
   11.6651    6.8545   -3.8366 C   0  0  0  0  0  0  0  0  0  0  0  0
   12.0355    6.8492   -2.5088 C   0  0  0  0  0  0  0  0  0  0  0  0
 32 33  2  0
 33 34  1  0
 34 35  2  0
 35 20  1  0
 20 21  2  0
 21 22  1  0
 22 23  2  0
 23 24  1  0
 24 25  2  0
 24 26  1  0
 26 27  2  0
 27 28  1  0
 28 29  2  0
 29  1  1  0
  1  2  2  0
  2  3  1  0
  3  4  2  0
  4  5  1  0
  5  6  2  0
  5  7  1  0
  7  8  2  0
  7  9  1  0
  9 10  2  0
 10 11  1  0
 11 12  1  0
 12 13  2  0
 12 14  1  0
 14 15  1  0
 15 16  2  0
 15 17  1  0
 17 18  1  0
 18 19  2  0
 28 30  1  0
 30 31  1  0
 35 36  1  0
 36 37  2  0
 37 32  1  0
 25 20  1  0
  6  1  1  0
 19  9  1  0
 30 23  1  0
 19  4  1  0
 17 11  2  0
M  END
>  <minimizedAffinity>  (134) 
-17.54360

$$$$
Mol: 134_7 - SminaDock
     RDKit          3D

 44 51  0  0  0  0  0  0  0  0999 V2000
    8.4974    5.8032  -12.6298 C   0  0  0  0  0  0  0  0  0  0  0  0
    7.2685    5.4393  -12.1258 C   0  0  0  0  0  0  0  0  0  0  0  0
    6.6383    4.3100  -12.5852 C   0  0  0  0  0  0  0  0  0  0  0  0
    7.2621    3.5400  -13.5681 C   0  0  0  0  0  0  0  0  0  0  0  0
    8.4762    3.9016  -14.0642 C   0  0  0  0  0  0  0  0  0  0  0  0
    9.1143    5.0536  -13.5925 C   0  0  0  0  0  0  0  0  0  0  0  0
    9.2039    3.1561  -15.0899 C   0  0  2  0  0  0  0  0  0  0  0  0
   10.5316    2.7029  -14.5099 C   0  0  0  0  0  0  0  0  0  0  0  0
   10.7585    2.8423  -13.2854 O   0  0  0  0  0  0  0  0  0  0  0  0
   11.4517    2.1361  -15.4191 N   0  0  0  0  0  0  0  0  0  0  0  0
   12.1228    1.3955  -15.0556 H   0  0  0  0  0  0  0  0  0  0  0  0
   11.4922    2.5386  -16.7796 C   0  0  0  0  0  0  0  0  0  0  0  0
   12.2822    2.0693  -17.6128 O   0  0  0  0  0  0  0  0  0  0  0  0
   10.5348    3.5556  -17.1537 N   0  0  0  0  0  0  0  0  0  0  0  0
   10.4714    3.9331  -18.1266 H   0  0  0  0  0  0  0  0  0  0  0  0
    9.6372    4.0865  -16.2017 C   0  0  0  0  0  0  0  0  0  0  0  0
    9.1762    5.2386  -16.1967 O   0  0  0  0  0  0  0  0  0  0  0  0
    8.5643    1.9368  -15.6331 C   0  0  0  0  0  0  0  0  0  0  0  0
    7.2524    1.5818  -15.0617 C   0  0  0  0  0  0  0  0  0  0  0  0
    6.6223    0.4592  -15.5162 C   0  0  0  0  0  0  0  0  0  0  0  0
    5.3703    0.0407  -15.0353 C   0  0  0  0  0  0  0  0  0  0  0  0
    4.7460    0.7666  -14.0816 C   0  0  0  0  0  0  0  0  0  0  0  0
    5.3800    1.9210  -13.6053 C   0  0  0  0  0  0  0  0  0  0  0  0
    6.6003    2.3250  -14.0770 C   0  0  0  0  0  0  0  0  0  0  0  0
    3.5815   -0.1325  -14.0237 C   0  0  0  0  0  0  0  0  0  0  0  0
    4.2653   -0.9325  -15.0718 C   0  0  0  0  0  0  0  0  0  0  0  0
   11.3124    7.9770   -6.3876 C   0  0  0  0  0  0  0  0  0  0  0  0
   11.5855    9.0725   -7.1952 C   0  0  0  0  0  0  0  0  0  0  0  0
   11.2245    9.1240   -8.5235 C   0  0  0  0  0  0  0  0  0  0  0  0
   10.5631    8.0580   -9.1035 C   0  0  0  0  0  0  0  0  0  0  0  0
   10.2950    6.9767   -8.3013 C   0  0  0  0  0  0  0  0  0  0  0  0
    9.6365    5.8945   -8.8452 C   0  0  0  0  0  0  0  0  0  0  0  0
    9.2831    5.9341  -10.1283 N   0  0  0  0  0  0  0  0  0  0  0  0
    9.5413    6.9854  -10.9165 C   0  0  0  0  0  0  0  0  0  0  0  0
    9.1775    6.9812  -12.1646 N   0  0  0  0  0  0  0  0  0  0  0  0
   10.1854    8.0437  -10.3839 N   0  0  0  0  0  0  0  0  0  0  0  0
   10.3902    8.8733  -11.0024 H   0  0  0  0  0  0  0  0  0  0  0  0
   10.6547    6.9162   -6.9634 C   0  0  0  0  0  0  0  0  0  0  0  0
   12.4376    7.8313   -2.2877 C   0  0  0  0  0  0  0  0  0  0  0  0
   12.7617    8.9048   -3.0914 C   0  0  0  0  0  0  0  0  0  0  0  0
   12.3886    8.9337   -4.4164 C   0  0  0  0  0  0  0  0  0  0  0  0
   11.6803    7.8984   -4.9924 C   0  0  0  0  0  0  0  0  0  0  0  0
   11.3627    6.8305   -4.1767 C   0  0  0  0  0  0  0  0  0  0  0  0
   11.7215    6.7754   -2.8537 C   0  0  0  0  0  0  0  0  0  0  0  0
 39 40  2  0
 40 41  1  0
 41 42  2  0
 42 27  1  0
 27 28  2  0
 28 29  1  0
 29 30  2  0
 30 31  1  0
 31 32  1  0
 32 33  2  0
 33 34  1  0
 34 35  2  0
 35  1  1  0
  1  2  2  0
  2  3  1  0
  3  4  2  0
  4  5  1  0
  5  6  2  0
  5  7  1  0
  7  8  1  0
  8  9  2  0
  8 10  1  0
 10 11  1  0
 10 12  1  0
 12 13  2  0
 12 14  1  0
 14 15  1  0
 14 16  1  0
 16 17  2  0
  7 18  1  6
 18 19  1  0
 19 20  2  0
 20 21  1  0
 21 22  2  0
 22 23  1  0
 23 24  2  0
 22 25  1  0
 25 26  1  0
 34 36  1  0
 36 37  1  0
 31 38  2  0
 42 43  1  0
 43 44  2  0
 44 39  1  0
 38 27  1  0
 36 30  1  0
  6  1  1  0
 16  7  1  0
 24 19  1  0
 24  4  1  0
 26 21  1  0
M  END
>  <minimizedAffinity>  (135) 
-17.45763

$$$$
Mol: 131_50 - SminaDock
     RDKit          3D

 41 48  0  0  0  0  0  0  0  0999 V2000
    8.8178    5.4555  -13.3409 N   0  0  0  0  0  0  0  0  0  0  0  0
    9.1668    5.7535  -12.1276 C   0  0  0  0  0  0  0  0  0  0  0  0
    9.9269    6.8277  -11.8523 N   0  0  0  0  0  0  0  0  0  0  0  0
   10.2670    7.0996  -10.5614 C   0  0  0  0  0  0  0  0  0  0  0  0
   11.0507    8.2175  -10.3351 C   0  0  0  0  0  0  0  0  0  0  0  0
   11.3983    8.4981   -9.0334 C   0  0  0  0  0  0  0  0  0  0  0  0
   10.9940    7.7095   -7.9654 C   0  0  0  0  0  0  0  0  0  0  0  0
   10.2147    6.6082   -8.2468 C   0  0  0  0  0  0  0  0  0  0  0  0
    9.8459    6.2919   -9.5263 C   0  0  0  0  0  0  0  0  0  0  0  0
    9.0671    5.1932   -9.8197 C   0  0  0  0  0  0  0  0  0  0  0  0
    8.7640    4.9744  -11.1026 N   0  0  0  0  0  0  0  0  0  0  0  0
    8.1688    4.1332  -11.3259 H   0  0  0  0  0  0  0  0  0  0  0  0
    3.4875   -0.2545  -14.0375 C   0  0  0  0  0  0  0  0  0  0  0  0
    3.9412   -1.2539  -14.8787 C   0  0  0  0  0  0  0  0  0  0  0  0
    5.1711   -1.1810  -15.4689 C   0  0  0  0  0  0  0  0  0  0  0  0
    5.9887   -0.0576  -15.2083 C   0  0  0  0  0  0  0  0  0  0  0  0
    5.5334    0.9320  -14.3732 C   0  0  0  0  0  0  0  0  0  0  0  0
    4.2816    0.8410  -13.7822 C   0  0  0  0  0  0  0  0  0  0  0  0
    6.4050    2.0977  -14.1396 C   0  0  0  0  0  0  0  0  0  0  0  0
    5.9625    3.0837  -13.2862 C   0  0  0  0  0  0  0  0  0  0  0  0
    6.7731    4.1712  -13.0430 C   0  0  0  0  0  0  0  0  0  0  0  0
    8.0058    4.3058  -13.6214 C   0  0  0  0  0  0  0  0  0  0  0  0
    8.4288    3.3160  -14.4670 C   0  0  0  0  0  0  0  0  0  0  0  0
    7.6416    2.2044  -14.7383 C   0  0  0  0  0  0  0  0  0  0  0  0
    8.1359    1.1823  -15.6637 C   0  0  2  0  0  0  0  0  0  0  0  0
    9.5822    0.8423  -15.4525 C   0  0  0  0  0  0  0  0  0  0  0  0
   10.2862    0.6872  -14.4299 O   0  0  0  0  0  0  0  0  0  0  0  0
    9.7165    0.7949  -16.8612 N   0  0  0  0  0  0  0  0  0  0  0  0
   10.3343    0.2735  -17.5012 H   0  0  0  0  0  0  0  0  0  0  0  0
    8.6495    1.7587  -16.9854 C   0  0  0  0  0  0  0  0  0  0  0  0
    7.3076   -0.0026  -15.8323 C   0  0  0  0  0  0  0  0  0  0  0  0
   11.3764    8.0293   -6.5940 C   0  0  0  0  0  0  0  0  0  0  0  0
   11.7837    9.3315   -6.2977 C   0  0  0  0  0  0  0  0  0  0  0  0
   12.1594    9.7118   -5.0285 C   0  0  0  0  0  0  0  0  0  0  0  0
   12.1368    8.7892   -4.0140 C   0  0  0  0  0  0  0  0  0  0  0  0
   12.5078    9.1490   -2.7390 C   0  0  0  0  0  0  0  0  0  0  0  0
   12.4931    8.2402   -1.7018 C   0  0  0  0  0  0  0  0  0  0  0  0
   12.0905    6.9558   -1.9983 C   0  0  0  0  0  0  0  0  0  0  0  0
   11.7141    6.5687   -3.2651 C   0  0  0  0  0  0  0  0  0  0  0  0
   11.7325    7.4903   -4.3004 C   0  0  0  0  0  0  0  0  0  0  0  0
   11.3579    7.1157   -5.5712 C   0  0  0  0  0  0  0  0  0  0  0  0
 13 14  2  0
 14 15  1  0
 15 16  2  0
 16 17  1  0
 17 18  2  0
 17 19  1  0
 19 20  2  0
 20 21  1  0
 21 22  2  0
 22  1  1  0
  1  2  2  0
  2  3  1  0
  3  4  2  0
  4  5  1  0
  5  6  2  0
  6  7  1  0
  7 32  1  0
 32 33  2  0
 33 34  1  0
 34 35  2  0
 35 36  1  0
 36 37  2  0
 37 38  1  0
 38 39  2  0
 39 40  1  0
 40 41  2  0
  7  8  2  0
  8  9  1  0
  9 10  2  0
 10 11  1  0
 11 12  1  0
 22 23  1  0
 23 24  2  0
 24 25  1  0
 25 26  1  0
 26 27  2  0
 26 28  1  0
 28 29  1  0
 28 30  1  0
 25 31  1  6
 18 13  1  0
 24 19  1  0
 30 25  1  0
 31 16  1  0
 11  2  1  0
  9  4  1  0
 41 32  1  0
 40 35  1  0
M  END
>  <minimizedAffinity>  (136) 
-17.49109

$$$$
Mol: 133_3 - SminaDock
     RDKit          3D

 45 52  0  0  0  0  0  0  0  0999 V2000
    7.1689    4.1171  -13.1314 C   0  0  0  0  0  0  0  0  0  0  0  0
    6.3793    3.0093  -13.4189 C   0  0  0  0  0  0  0  0  0  0  0  0
    6.7344    2.1120  -14.4040 C   0  0  0  0  0  0  0  0  0  0  0  0
    7.8974    2.2952  -15.1373 C   0  0  0  0  0  0  0  0  0  0  0  0
    8.6650    3.3877  -14.8456 C   0  0  0  0  0  0  0  0  0  0  0  0
    8.3275    4.3109  -13.8530 C   0  0  0  0  0  0  0  0  0  0  0  0
    8.4739    1.4864  -16.2181 C   0  0  1  0  0  0  0  0  0  0  0  0
    7.5616    0.7336  -16.9588 O   0  0  0  0  0  0  0  0  0  0  0  0
    6.5434   -0.1395  -16.6123 C   0  0  0  0  0  0  0  0  0  0  0  0
    5.7281    0.0078  -15.5081 C   0  0  0  0  0  0  0  0  0  0  0  0
    4.7358   -0.9323  -15.2572 C   0  0  0  0  0  0  0  0  0  0  0  0
    4.5941   -1.9735  -16.1072 N   0  0  0  0  0  0  0  0  0  0  0  0
    3.8308   -2.6659  -15.8847 H   0  0  0  0  0  0  0  0  0  0  0  0
    5.3849   -2.1278  -17.1897 C   0  0  0  0  0  0  0  0  0  0  0  0
    5.2438   -3.1049  -17.9778 O   0  0  0  0  0  0  0  0  0  0  0  0
    6.3828   -1.2169  -17.4755 C   0  0  0  0  0  0  0  0  0  0  0  0
    5.7261    1.0544  -14.4855 C   0  0  0  0  0  0  0  0  0  0  0  0
    4.8070    1.0534  -13.6209 O   0  0  0  0  0  0  0  0  0  0  0  0
    9.2442    2.3366  -17.2389 C   0  0  0  0  0  0  0  0  0  0  0  0
    9.4163    1.4134  -18.4566 C   0  0  0  0  0  0  0  0  0  0  0  0
    9.6205    0.1118  -18.0085 O   0  0  0  0  0  0  0  0  0  0  0  0
   10.3571    0.0721  -16.8283 C   0  0  0  0  0  0  0  0  0  0  0  0
    9.5545    0.5653  -15.6288 C   0  0  0  0  0  0  0  0  0  0  0  0
    9.1377    5.4184  -13.5806 N   0  0  0  0  0  0  0  0  0  0  0  0
    9.4720    5.8725  -12.4474 C   0  0  0  0  0  0  0  0  0  0  0  0
    9.1010    5.3621  -11.2593 N   0  0  0  0  0  0  0  0  0  0  0  0
    9.4850    5.8839  -10.0814 C   0  0  0  0  0  0  0  0  0  0  0  0
    9.1026    5.3568   -8.8690 C   0  0  0  0  0  0  0  0  0  0  0  0
    9.5361    5.9447   -7.6984 C   0  0  0  0  0  0  0  0  0  0  0  0
   10.3487    7.0554   -7.6840 C   0  0  0  0  0  0  0  0  0  0  0  0
   10.7213    7.5694   -8.9153 C   0  0  0  0  0  0  0  0  0  0  0  0
   10.2909    6.9856  -10.0889 C   0  0  0  0  0  0  0  0  0  0  0  0
   10.6866    7.5300  -11.2804 C   0  0  0  0  0  0  0  0  0  0  0  0
   10.2672    6.9596  -12.4162 N   0  0  0  0  0  0  0  0  0  0  0  0
   10.6057    7.4239  -13.3114 H   0  0  0  0  0  0  0  0  0  0  0  0
   10.7987    7.6626   -6.4348 C   0  0  0  0  0  0  0  0  0  0  0  0
   10.8192    9.0227   -6.2952 C   0  0  0  0  0  0  0  0  0  0  0  0
   11.2340    9.6586   -5.1387 C   0  0  0  0  0  0  0  0  0  0  0  0
   11.6522    8.9115   -4.0593 C   0  0  0  0  0  0  0  0  0  0  0  0
   12.0678    9.5227   -2.9010 C   0  0  0  0  0  0  0  0  0  0  0  0
   12.4718    8.7403   -1.8611 C   0  0  0  0  0  0  0  0  0  0  0  0
   12.4632    7.3667   -1.9698 C   0  0  0  0  0  0  0  0  0  0  0  0
   12.0488    6.7484   -3.1251 C   0  0  0  0  0  0  0  0  0  0  0  0
   11.6367    7.5197   -4.1878 C   0  0  0  0  0  0  0  0  0  0  0  0
   11.2159    6.9038   -5.3590 C   0  0  0  0  0  0  0  0  0  0  0  0
  1  2  2  0
  2  3  1  0
  3  4  2  0
  4  5  1  0
  5  6  2  0
  6 24  1  0
 24 25  2  0
 25 26  1  0
 26 27  2  0
 27 28  1  0
 28 29  2  0
 29 30  1  0
 30 36  1  0
 36 37  2  0
 37 38  1  0
 38 39  2  0
 39 40  1  0
 40 41  2  0
 41 42  1  0
 42 43  2  0
 43 44  1  0
 44 45  2  0
 30 31  2  0
 31 32  1  0
 32 33  2  0
 33 34  1  0
 34 35  1  0
  4  7  1  0
  7  8  1  0
  8  9  1  0
  9 10  1  0
 10 11  2  0
 11 12  1  0
 12 13  1  0
 12 14  1  0
 14 15  2  0
 14 16  1  0
 10 17  1  0
 17 18  2  0
  7 19  1  6
 19 20  1  0
 20 21  1  0
 21 22  1  0
 22 23  1  0
  6  1  1  0
 34 25  1  0
 23  7  1  0
 17  3  1  0
 32 27  1  0
 16  9  2  0
 45 36  1  0
 44 39  1  0
M  END
>  <minimizedAffinity>  (137) 
-17.54200

$$$$
Mol: 187_22 - SminaDock
     RDKit          3D

 42 49  0  0  0  0  0  0  0  0999 V2000
    8.8438    5.9558  -12.4406 C   0  0  0  0  0  0  0  0  0  0  0  0
    9.4016    5.3021  -13.5187 C   0  0  0  0  0  0  0  0  0  0  0  0
    8.7793    4.2149  -14.1045 C   0  0  0  0  0  0  0  0  0  0  0  0
    7.5597    3.7696  -13.5929 C   0  0  0  0  0  0  0  0  0  0  0  0
    6.9767    4.4017  -12.5164 C   0  0  0  0  0  0  0  0  0  0  0  0
    7.6390    5.4826  -11.9681 C   0  0  0  0  0  0  0  0  0  0  0  0
    5.7378    3.6965  -12.2460 C   0  0  0  0  0  0  0  0  0  0  0  0
    4.9512    4.0093  -11.3253 O   0  0  0  0  0  0  0  0  0  0  0  0
    5.6441    2.6259  -13.2276 C   0  0  0  0  0  0  0  0  0  0  0  0
    4.6947    1.6689  -13.4325 C   0  0  0  0  0  0  0  0  0  0  0  0
    4.8304    0.7323  -14.4625 C   0  0  0  0  0  0  0  0  0  0  0  0
    5.9176    0.7389  -15.3033 C   0  0  0  0  0  0  0  0  0  0  0  0
    6.8720    1.7160  -15.0821 C   0  0  0  0  0  0  0  0  0  0  0  0
    6.7445    2.6530  -14.0579 C   0  0  0  0  0  0  0  0  0  0  0  0
    6.0126   -0.2628  -16.3685 C   0  0  2  0  0  0  0  0  0  0  0  0
    5.3254   -1.5221  -15.9846 C   0  0  0  0  0  0  0  0  0  0  0  0
    5.7027   -2.6519  -16.4025 O   0  0  0  0  0  0  0  0  0  0  0  0
    4.2337   -1.5001  -15.1452 O   0  0  0  0  0  0  0  0  0  0  0  0
    3.7844   -0.2784  -14.6466 C   0  0  0  0  0  0  0  0  0  0  0  0
    7.4212   -0.6276  -16.7500 C   0  0  0  0  0  0  0  0  0  0  0  0
    7.8399   -0.0669  -18.0773 C   0  0  0  0  0  0  0  0  0  0  0  0
    7.0293   -0.4386  -19.1237 O   0  0  0  0  0  0  0  0  0  0  0  0
    5.6935   -0.5644  -18.8006 C   0  0  0  0  0  0  0  0  0  0  0  0
    5.2849    0.2546  -17.6116 C   0  0  0  0  0  0  0  0  0  0  0  0
   11.4363    8.0622   -5.9810 C   0  0  0  0  0  0  0  0  0  0  0  0
   11.7868    9.1257   -6.7921 C   0  0  0  0  0  0  0  0  0  0  0  0
   11.4673    9.1210   -8.1421 C   0  0  0  0  0  0  0  0  0  0  0  0
   10.7951    8.0714   -8.7303 C   0  0  0  0  0  0  0  0  0  0  0  0
   10.4688    8.0340  -10.0343 N   0  0  0  0  0  0  0  0  0  0  0  0
    9.8125    7.0178  -10.6239 C   0  0  0  0  0  0  0  0  0  0  0  0
    9.5387    7.0652  -11.8896 N   0  0  0  0  0  0  0  0  0  0  0  0
    9.4636    5.9733   -9.8469 N   0  0  0  0  0  0  0  0  0  0  0  0
    8.9538    5.1797  -10.2937 H   0  0  0  0  0  0  0  0  0  0  0  0
    9.7673    5.9637   -8.5372 C   0  0  0  0  0  0  0  0  0  0  0  0
   10.4391    6.9988   -7.9231 C   0  0  0  0  0  0  0  0  0  0  0  0
   10.7638    7.0177   -6.5825 C   0  0  0  0  0  0  0  0  0  0  0  0
   12.3725    7.9370   -1.8309 C   0  0  0  0  0  0  0  0  0  0  0  0
   12.4512    9.1404   -2.5163 C   0  0  0  0  0  0  0  0  0  0  0  0
   12.1468    9.1790   -3.8630 C   0  0  0  0  0  0  0  0  0  0  0  0
   11.7649    8.0504   -4.5506 C   0  0  0  0  0  0  0  0  0  0  0  0
   11.7012    6.8761   -3.8246 C   0  0  0  0  0  0  0  0  0  0  0  0
   11.9922    6.7872   -2.4926 C   0  0  0  0  0  0  0  0  0  0  0  0
 37 38  2  0
 38 39  1  0
 39 40  2  0
 40 25  1  0
 25 26  1  0
 26 27  2  0
 27 28  1  0
 28 29  2  0
 29 30  1  0
 30 31  2  0
 31  1  1  0
  1  2  2  0
  2  3  1  0
  3  4  2  0
  4  5  1  0
  5  6  2  0
  5  7  1  0
  7  8  2  0
  7  9  1  0
  9 10  2  0
 10 11  1  0
 11 12  2  0
 12 13  1  0
 13 14  2  0
 12 15  1  0
 15 16  1  0
 16 17  2  0
 16 18  1  0
 18 19  1  0
 15 20  1  6
 20 21  1  0
 21 22  1  0
 22 23  1  0
 23 24  1  0
 30 32  1  0
 32 33  1  0
 32 34  1  0
 34 35  2  0
 35 36  1  0
 40 41  1  0
 41 42  2  0
 42 37  1  0
 36 25  2  0
 35 28  1  0
  6  1  1  0
 14  9  1  0
 24 15  1  0
 14  4  1  0
 19 11  1  0
M  END
>  <minimizedAffinity>  (138) 
-17.49478

$$$$
Mol: 186_51 - SminaDock
     RDKit          3D

 40 47  0  0  0  0  0  0  0  0999 V2000
    7.9183    4.9586  -12.6585 C   0  0  0  0  0  0  0  0  0  0  0  0
    6.6595    4.8922  -12.0718 C   0  0  0  0  0  0  0  0  0  0  0  0
    5.8126    3.8447  -12.4049 C   0  0  0  0  0  0  0  0  0  0  0  0
    6.1901    2.8659  -13.3055 C   0  0  0  0  0  0  0  0  0  0  0  0
    7.4325    2.9320  -13.8838 C   0  0  0  0  0  0  0  0  0  0  0  0
    8.2846    3.9830  -13.5510 C   0  0  0  0  0  0  0  0  0  0  0  0
    7.6530    1.7908  -14.8220 C   0  0  2  0  0  0  0  0  0  0  0  0
    6.3754    1.0542  -14.7145 C   0  0  0  0  0  0  0  0  0  0  0  0
    5.5251    1.6816  -13.8302 C   0  0  0  0  0  0  0  0  0  0  0  0
    4.2558    1.1547  -13.5734 C   0  0  0  0  0  0  0  0  0  0  0  0
    3.8665    0.0002  -14.2161 C   0  0  0  0  0  0  0  0  0  0  0  0
    4.7360   -0.5978  -15.0889 C   0  0  0  0  0  0  0  0  0  0  0  0
    4.6078   -1.6771  -15.8086 O   0  0  0  0  0  0  0  0  0  0  0  0
    5.7014   -1.8914  -16.5153 C   0  0  0  0  0  0  0  0  0  0  0  0
    5.7977   -2.8855  -17.2862 O   0  0  0  0  0  0  0  0  0  0  0  0
    6.5835   -0.9156  -16.2506 N   0  0  0  0  0  0  0  0  0  0  0  0
    5.9955   -0.1053  -15.3656 C   0  0  0  0  0  0  0  0  0  0  0  0
    8.8249    1.0178  -14.3086 C   0  0  0  0  0  0  0  0  0  0  0  0
    9.5862    0.2440  -15.3040 C   0  0  0  0  0  0  0  0  0  0  0  0
    9.6206    0.7808  -16.6844 C   0  0  0  0  0  0  0  0  0  0  0  0
    9.2871    2.2558  -16.6573 C   0  0  0  0  0  0  0  0  0  0  0  0
    7.8689    2.3840  -16.1886 C   0  0  0  0  0  0  0  0  0  0  0  0
   11.1960    7.6749   -6.7860 C   0  0  0  0  0  0  0  0  0  0  0  0
   11.5858    8.5560   -7.7788 C   0  0  0  0  0  0  0  0  0  0  0  0
   11.1934    8.4323   -9.0933 C   0  0  0  0  0  0  0  0  0  0  0  0
   10.3678    7.3742   -9.4407 C   0  0  0  0  0  0  0  0  0  0  0  0
    9.9392    7.1791  -10.6932 N   0  0  0  0  0  0  0  0  0  0  0  0
    9.1409    6.1697  -11.0686 C   0  0  0  0  0  0  0  0  0  0  0  0
    8.7554    6.0300  -12.3039 N   0  0  0  0  0  0  0  0  0  0  0  0
    8.7293    5.2829  -10.1525 N   0  0  0  0  0  0  0  0  0  0  0  0
    8.1068    4.4748  -10.3827 H   0  0  0  0  0  0  0  0  0  0  0  0
    9.1268    5.4282   -8.8834 C   0  0  0  0  0  0  0  0  0  0  0  0
    9.9497    6.4650   -8.4852 C   0  0  0  0  0  0  0  0  0  0  0  0
   10.3695    6.6376   -7.2001 C   0  0  0  0  0  0  0  0  0  0  0  0
   12.4628    8.1447   -2.7917 C   0  0  0  0  0  0  0  0  0  0  0  0
   12.7072    9.1365   -3.6964 C   0  0  0  0  0  0  0  0  0  0  0  0
   12.2878    8.9838   -5.0244 C   0  0  0  0  0  0  0  0  0  0  0  0
   11.6360    7.8498   -5.4213 C   0  0  0  0  0  0  0  0  0  0  0  0
   11.3973    6.8615   -4.5012 C   0  0  0  0  0  0  0  0  0  0  0  0
   11.8107    7.0011   -3.1716 C   0  0  0  0  0  0  0  0  0  0  0  0
 35 36  2  0
 36 37  1  0
 37 38  2  0
 38 23  1  0
 23 24  1  0
 24 25  2  0
 25 26  1  0
 26 27  2  0
 27 28  1  0
 28 29  2  0
 29  1  1  0
  1  2  2  0
  2  3  1  0
  3  4  2  0
  4  5  1  0
  5  6  2  0
  5  7  1  0
  7  8  1  0
  8  9  2  0
  9 10  1  0
 10 11  2  0
 11 12  1  0
 12 13  1  0
 13 14  1  0
 14 15  2  0
 14 16  1  0
 16 17  1  0
  7 18  1  1
 18 19  1  0
 19 20  1  0
 20 21  1  0
 21 22  1  0
 28 30  1  0
 30 31  1  0
 30 32  1  0
 32 33  2  0
 33 34  1  0
 38 39  1  0
 39 40  2  0
 40 35  1  0
 34 23  2  0
 33 26  1  0
  6  1  1  0
 22  7  1  0
  9  4  1  0
 17 12  2  0
 17  8  1  0
M  CHG  1  16  -1
M  END
>  <minimizedAffinity>  (139) 
-17.47576

$$$$
Mol: 141_46 - SminaDock
     RDKit          3D

 39 45  0  0  0  0  0  0  0  0999 V2000
    2.3865   -1.4888  -16.2200 H   0  0  0  0  0  0  0  0  0  0  0  0
    3.0756   -0.8671  -15.8000 O   0  0  0  0  0  0  0  0  0  0  0  0
    4.3641   -0.7232  -16.2939 C   0  0  0  0  0  0  0  0  0  0  0  0
    4.7277   -1.3623  -17.3125 N   0  0  0  0  0  0  0  0  0  0  0  0
    6.0086   -1.2935  -17.9003 C   0  0  0  0  0  0  0  0  0  0  0  0
    7.0324   -0.4227  -17.2894 C   0  0  0  0  0  0  0  0  0  0  0  0
    6.5887    0.3398  -16.0909 C   0  0  0  0  0  0  0  0  0  0  0  0
    7.4745    1.1819  -15.4779 C   0  0  0  0  0  0  0  0  0  0  0  0
    7.1166    1.9176  -14.3478 C   0  0  0  0  0  0  0  0  0  0  0  0
    5.8408    1.7582  -13.8822 C   0  0  0  0  0  0  0  0  0  0  0  0
    4.9688    0.9131  -14.5065 C   0  0  0  0  0  0  0  0  0  0  0  0
    5.2974    0.1735  -15.6260 C   0  0  0  0  0  0  0  0  0  0  0  0
    5.2219    2.4194  -12.7161 C   0  0  0  0  0  0  0  0  0  0  0  0
    5.2082    3.9139  -13.0689 C   0  0  0  0  0  0  0  0  0  0  0  0
    6.5417    4.5000  -12.9093 C   0  0  0  0  0  0  0  0  0  0  0  0
    6.4593    5.7536  -12.3275 C   0  0  0  0  0  0  0  0  0  0  0  0
    7.5687    6.5297  -12.0630 C   0  0  0  0  0  0  0  0  0  0  0  0
    8.8305    6.0607  -12.3820 C   0  0  0  0  0  0  0  0  0  0  0  0
    8.9156    4.8156  -12.9600 C   0  0  0  0  0  0  0  0  0  0  0  0
    7.7928    4.0268  -13.2292 C   0  0  0  0  0  0  0  0  0  0  0  0
    8.2223    2.7602  -13.8438 C   0  0  0  0  0  0  0  0  0  0  0  0
    9.9938    6.8316  -12.1236 N   0  0  0  0  0  0  0  0  0  0  0  0
   10.3935    7.0985  -10.9225 C   0  0  0  0  0  0  0  0  0  0  0  0
    9.7395    6.6675   -9.8363 N   0  0  0  0  0  0  0  0  0  0  0  0
   10.1751    6.9567   -8.6012 C   0  0  0  0  0  0  0  0  0  0  0  0
    9.4700    6.4918   -7.4824 C   0  0  0  0  0  0  0  0  0  0  0  0
    9.9500    6.8098   -6.2316 C   0  0  0  0  0  0  0  0  0  0  0  0
   11.0879    7.5618   -6.0503 C   0  0  0  0  0  0  0  0  0  0  0  0
   11.7962    8.0292   -7.1274 C   0  0  0  0  0  0  0  0  0  0  0  0
   11.3110    7.7077   -8.3943 C   0  0  0  0  0  0  0  0  0  0  0  0
   11.9669    8.1398   -9.5300 C   0  0  0  0  0  0  0  0  0  0  0  0
   11.5017    7.8311  -10.7462 N   0  0  0  0  0  0  0  0  0  0  0  0
   12.0474    8.1904  -11.5630 H   0  0  0  0  0  0  0  0  0  0  0  0
   11.5642    7.8763   -4.7152 C   0  0  0  0  0  0  0  0  0  0  0  0
   11.8407    9.1675   -4.3542 C   0  0  0  0  0  0  0  0  0  0  0  0
   12.2975    9.4132   -3.0558 C   0  0  0  0  0  0  0  0  0  0  0  0
   12.4666    8.3838   -2.1580 C   0  0  0  0  0  0  0  0  0  0  0  0
   12.1857    7.0806   -2.5273 C   0  0  0  0  0  0  0  0  0  0  0  0
   11.7304    6.8388   -3.8233 C   0  0  0  0  0  0  0  0  0  0  0  0
  1  2  1  0
  2  3  1  0
  3  4  2  0
  4  5  1  0
  5  6  1  0
  6  7  1  0
  7  8  2  0
  8  9  1  0
  9 10  2  0
 10 11  1  0
 11 12  2  0
 10 13  1  0
 13 14  1  0
 14 15  1  0
 15 16  2  0
 16 17  1  0
 17 18  2  0
 18 22  1  0
 22 23  2  0
 23 24  1  0
 24 25  2  0
 25 26  1  0
 26 27  2  0
 27 28  1  0
 28 34  1  0
 34 35  2  0
 35 36  1  0
 36 37  2  0
 37 38  1  0
 38 39  2  0
 28 29  2  0
 29 30  1  0
 30 31  2  0
 31 32  1  0
 32 33  1  0
 18 19  1  0
 19 20  2  0
 20 21  1  0
 12  3  1  0
 20 15  1  0
 12  7  1  0
 32 23  1  0
 21  9  1  0
 30 25  1  0
 39 34  1  0
M  END
>  <minimizedAffinity>  (140) 
-17.37764

$$$$
Mol: 191_12 - SminaDock
     RDKit          3D

 42 49  0  0  0  0  0  0  0  0999 V2000
    8.5977    5.5387  -12.4585 C   0  0  0  0  0  0  0  0  0  0  0  0
    9.0248    5.2746  -13.7597 C   0  0  0  0  0  0  0  0  0  0  0  0
    8.4798    4.2621  -14.5269 C   0  0  0  0  0  0  0  0  0  0  0  0
    7.4630    3.4704  -13.9846 C   0  0  0  0  0  0  0  0  0  0  0  0
    7.0501    3.7329  -12.7140 C   0  0  0  0  0  0  0  0  0  0  0  0
    7.5978    4.7511  -11.9415 C   0  0  0  0  0  0  0  0  0  0  0  0
    5.9743    2.7486  -12.4034 C   0  0  0  0  0  0  0  0  0  0  0  0
    5.8475    1.9279  -13.6383 C   0  0  0  0  0  0  0  0  0  0  0  0
    5.0342    0.8708  -13.9700 C   0  0  0  0  0  0  0  0  0  0  0  0
    5.0870    0.2344  -15.2185 C   0  0  0  0  0  0  0  0  0  0  0  0
    5.9866    0.6713  -16.1709 C   0  0  0  0  0  0  0  0  0  0  0  0
    6.7977    1.7304  -15.8312 C   0  0  0  0  0  0  0  0  0  0  0  0
    6.7416    2.3600  -14.5889 C   0  0  0  0  0  0  0  0  0  0  0  0
    6.0574    0.0079  -17.5097 C   0  0  1  0  0  0  0  0  0  0  0  0
    4.6151   -0.2875  -17.8421 C   0  0  0  0  0  0  0  0  0  0  0  0
    4.0893    0.0330  -18.9360 O   0  0  0  0  0  0  0  0  0  0  0  0
    3.8893   -0.9429  -16.8569 O   0  0  0  0  0  0  0  0  0  0  0  0
    4.1754   -0.8941  -15.4832 C   0  0  2  0  0  0  0  0  0  0  0  0
    2.8990   -0.6768  -14.6640 C   0  0  0  0  0  0  0  0  0  0  0  0
    6.6622    0.8584  -18.5737 C   0  0  0  0  0  0  0  0  0  0  0  0
    6.8443    0.0428  -19.8367 C   0  0  0  0  0  0  0  0  0  0  0  0
    7.8412   -0.9099  -19.5137 O   0  0  0  0  0  0  0  0  0  0  0  0
    7.1819   -1.8538  -18.7311 C   0  0  0  0  0  0  0  0  0  0  0  0
    6.7701   -1.3030  -17.4066 C   0  0  0  0  0  0  0  0  0  0  0  0
   11.2323    7.9060   -5.9962 C   0  0  0  0  0  0  0  0  0  0  0  0
   11.4403    8.9843   -6.8621 C   0  0  0  0  0  0  0  0  0  0  0  0
   11.0642    8.9046   -8.1866 C   0  0  0  0  0  0  0  0  0  0  0  0
   10.4668    7.7531   -8.7073 C   0  0  0  0  0  0  0  0  0  0  0  0
   10.2595    6.6861   -7.8564 C   0  0  0  0  0  0  0  0  0  0  0  0
   10.6412    6.7814   -6.5339 C   0  0  0  0  0  0  0  0  0  0  0  0
    9.6676    5.5564   -8.3875 C   0  0  0  0  0  0  0  0  0  0  0  0
    9.2899    5.4735   -9.7114 C   0  0  0  0  0  0  0  0  0  0  0  0
    9.5257    6.5754  -10.5067 C   0  0  0  0  0  0  0  0  0  0  0  0
    9.2119    6.5978  -11.7414 N   0  0  0  0  0  0  0  0  0  0  0  0
   10.1026    7.6844  -10.0012 N   0  0  0  0  0  0  0  0  0  0  0  0
   10.2884    8.5362  -10.6036 H   0  0  0  0  0  0  0  0  0  0  0  0
   12.3881    8.1494   -1.9602 C   0  0  0  0  0  0  0  0  0  0  0  0
   12.1260    6.9263   -2.5141 C   0  0  0  0  0  0  0  0  0  0  0  0
   11.7433    6.8623   -3.8563 C   0  0  0  0  0  0  0  0  0  0  0  0
   11.6323    8.0026   -4.6046 C   0  0  0  0  0  0  0  0  0  0  0  0
   11.9044    9.2114   -4.0103 C   0  0  0  0  0  0  0  0  0  0  0  0
   12.2859    9.3104   -2.6833 C   0  0  0  0  0  0  0  0  0  0  0  0
 37 38  2  0
 38 39  1  0
 39 40  2  0
 40 25  1  0
 25 26  2  0
 26 27  1  0
 27 28  2  0
 28 29  1  0
 29 30  2  0
 29 31  1  0
 31 32  2  0
 32 33  1  0
 33 34  2  0
 34  1  1  0
  1  2  2  0
  2  3  1  0
  3  4  2  0
  4  5  1  0
  5  6  2  0
  5  7  1  0
  7  8  1  0
  8  9  2  0
  9 10  1  0
 10 11  2  0
 11 12  1  0
 12 13  2  0
 11 14  1  0
 14 15  1  0
 15 16  2  0
 15 17  1  0
 17 18  1  0
 18 19  1  1
 14 20  1  6
 20 21  1  0
 21 22  1  0
 22 23  1  0
 23 24  1  0
 33 35  1  0
 35 36  1  0
 40 41  1  0
 41 42  2  0
 42 37  1  0
 30 25  1  0
  6  1  1  0
 13  8  1  0
 24 14  1  0
 35 28  1  0
 13  4  1  0
 18 10  1  0
M  END
>  <minimizedAffinity>  (141) 
-17.43375

$$$$
Mol: 126_8 - SminaDock
     RDKit          3D

 39 45  0  0  0  0  0  0  0  0999 V2000
    7.6717    4.7025  -12.9641 C   0  0  0  0  0  0  0  0  0  0  0  0
    6.4185    4.6535  -12.4107 C   0  0  0  0  0  0  0  0  0  0  0  0
    5.5924    3.5911  -12.6755 C   0  0  0  0  0  0  0  0  0  0  0  0
    5.9807    2.5404  -13.4983 C   0  0  0  0  0  0  0  0  0  0  0  0
    7.2363    2.5982  -14.0473 C   0  0  0  0  0  0  0  0  0  0  0  0
    8.0933    3.6783  -13.7863 C   0  0  0  0  0  0  0  0  0  0  0  0
    7.4690    1.4062  -14.8813 C   0  0  2  0  0  0  0  0  0  0  0  0
    8.6032    0.5792  -14.3345 C   0  0  0  0  0  0  0  0  0  0  0  0
    8.3625   -0.3917  -13.5563 O   0  0  0  0  0  0  0  0  0  0  0  0
    9.9372    0.8944  -14.6957 N   0  0  0  0  0  0  0  0  0  0  0  0
   10.2317    1.6609  -15.8557 C   0  0  0  0  0  0  0  0  0  0  0  0
   11.4262    1.9353  -16.1676 O   0  0  0  0  0  0  0  0  0  0  0  0
    9.1153    2.0925  -16.6310 N   0  0  0  0  0  0  0  0  0  0  0  0
    7.7719    1.7881  -16.2870 C   0  0  0  0  0  0  0  0  0  0  0  0
    6.8366    1.8304  -17.1259 O   0  0  0  0  0  0  0  0  0  0  0  0
    6.2208    0.6264  -14.7810 C   0  0  0  0  0  0  0  0  0  0  0  0
    5.8445   -0.5990  -15.3565 C   0  0  0  0  0  0  0  0  0  0  0  0
    4.5856   -1.0674  -15.0575 C   0  0  0  0  0  0  0  0  0  0  0  0
    3.7130   -0.3811  -14.2312 C   0  0  0  0  0  0  0  0  0  0  0  0
    4.0930    0.8042  -13.6823 C   0  0  0  0  0  0  0  0  0  0  0  0
    5.3609    1.3118  -13.9614 C   0  0  0  0  0  0  0  0  0  0  0  0
   11.0154    7.5878   -7.2888 C   0  0  0  0  0  0  0  0  0  0  0  0
   11.4526    8.4092   -8.3154 C   0  0  0  0  0  0  0  0  0  0  0  0
   11.0665    8.2389   -9.6201 C   0  0  0  0  0  0  0  0  0  0  0  0
   10.2057    7.2047   -9.9222 C   0  0  0  0  0  0  0  0  0  0  0  0
    9.7431    6.3578   -8.9239 C   0  0  0  0  0  0  0  0  0  0  0  0
    8.9165    5.3743   -9.2508 N   0  0  0  0  0  0  0  0  0  0  0  0
    8.5255    5.1856  -10.5069 N   0  0  0  0  0  0  0  0  0  0  0  0
    8.9477    5.9798  -11.5024 C   0  0  0  0  0  0  0  0  0  0  0  0
    8.5678    5.7943  -12.7141 N   0  0  0  0  0  0  0  0  0  0  0  0
    9.7867    6.9815  -11.1847 N   0  0  0  0  0  0  0  0  0  0  0  0
   10.1317    7.6168  -11.9440 H   0  0  0  0  0  0  0  0  0  0  0  0
   10.1544    6.5611   -7.6212 C   0  0  0  0  0  0  0  0  0  0  0  0
   12.2429    8.1688   -3.2254 C   0  0  0  0  0  0  0  0  0  0  0  0
   12.4318    9.1463   -4.1888 C   0  0  0  0  0  0  0  0  0  0  0  0
   12.0321    8.9461   -5.4927 C   0  0  0  0  0  0  0  0  0  0  0  0
   11.4294    7.7736   -5.9000 C   0  0  0  0  0  0  0  0  0  0  0  0
   11.2419    6.7969   -4.9319 C   0  0  0  0  0  0  0  0  0  0  0  0
   11.6414    6.9885   -3.6140 C   0  0  0  0  0  0  0  0  0  0  0  0
 34 35  2  0
 35 36  1  0
 36 37  2  0
 37 22  1  0
 22 23  2  0
 23 24  1  0
 24 25  2  0
 25 26  1  0
 26 27  1  0
 27 28  2  0
 28 29  1  0
 29 30  2  0
 30  1  1  0
  1  2  2  0
  2  3  1  0
  3  4  2  0
  4  5  1  0
  5  6  2  0
  5  7  1  0
  7  8  1  1
  8  9  2  0
  8 10  1  0
 10 11  1  0
 11 12  2  0
 11 13  1  0
 13 14  1  0
 14 15  2  0
  7 16  1  0
 16 17  2  0
 17 18  1  0
 18 19  2  0
 19 20  1  0
 20 21  2  0
 29 31  1  0
 31 32  1  0
 26 33  2  0
 37 38  1  0
 38 39  2  0
 39 34  1  0
 33 22  1  0
 31 25  1  0
  6  1  1  0
 14  7  1  0
 21 16  1  0
 21  4  1  0
M  CHG  2  10  -1  13  -1
M  END
>  <minimizedAffinity>  (142) 
-17.35575

$$$$
Mol: 186_29 - SminaDock
     RDKit          3D

 41 48  0  0  0  0  0  0  0  0999 V2000
    3.8413   -2.1792  -16.9926 H   0  0  0  0  0  0  0  0  0  0  0  0
    4.7260   -2.6317  -17.1778 O   0  0  0  0  0  0  0  0  0  0  0  0
    5.8726   -1.8317  -17.2603 C   0  0  0  0  0  0  0  0  0  0  0  0
    6.9045   -1.9599  -18.1075 N   0  0  0  0  0  0  0  0  0  0  0  0
    7.7655   -0.9965  -17.8395 N   0  0  0  0  0  0  0  0  0  0  0  0
    7.2821   -0.2346  -16.8039 C   0  0  0  0  0  0  0  0  0  0  0  0
    6.0900   -0.7701  -16.4467 N   0  0  0  0  0  0  0  0  0  0  0  0
    5.5326   -0.0365  -15.3604 C   0  0  0  0  0  0  0  0  0  0  0  0
    4.3920   -0.1281  -14.5645 C   0  0  0  0  0  0  0  0  0  0  0  0
    4.1459    0.7480  -13.5092 C   0  0  0  0  0  0  0  0  0  0  0  0
    5.0446    1.7811  -13.1891 C   0  0  0  0  0  0  0  0  0  0  0  0
    6.1435    1.8531  -13.9770 C   0  0  0  0  0  0  0  0  0  0  0  0
    6.3831    0.9686  -15.0347 C   0  0  0  0  0  0  0  0  0  0  0  0
    7.5502    0.9362  -15.9501 C   0  0  2  0  0  0  0  0  0  0  0  0
    7.5592    2.1433  -16.8705 C   0  0  0  0  0  0  0  0  0  0  0  0
    8.8211    0.7761  -15.2033 C   0  0  0  0  0  0  0  0  0  0  0  0
    9.3179    1.8479  -14.3372 C   0  0  0  0  0  0  0  0  0  0  0  0
    8.4262    2.8764  -13.7946 C   0  0  0  0  0  0  0  0  0  0  0  0
    9.1358    4.0216  -13.3817 C   0  0  0  0  0  0  0  0  0  0  0  0
    8.4822    5.1031  -12.8483 C   0  0  0  0  0  0  0  0  0  0  0  0
    7.0959    5.1011  -12.7000 C   0  0  0  0  0  0  0  0  0  0  0  0
    6.3498    3.9885  -13.0960 C   0  0  0  0  0  0  0  0  0  0  0  0
    7.0514    2.9365  -13.6197 C   0  0  0  0  0  0  0  0  0  0  0  0
    9.2375    6.2397  -12.4425 N   0  0  0  0  0  0  0  0  0  0  0  0
    9.5422    6.3518  -11.1782 C   0  0  0  0  0  0  0  0  0  0  0  0
   10.2579    7.4094  -10.7324 N   0  0  0  0  0  0  0  0  0  0  0  0
   10.5703    7.5205   -9.4239 C   0  0  0  0  0  0  0  0  0  0  0  0
   11.2983    8.5902   -8.9527 C   0  0  0  0  0  0  0  0  0  0  0  0
   11.6168    8.7008   -7.6107 C   0  0  0  0  0  0  0  0  0  0  0  0
   11.2232    7.7574   -6.7055 C   0  0  0  0  0  0  0  0  0  0  0  0
   10.4915    6.6791   -7.1692 C   0  0  0  0  0  0  0  0  0  0  0  0
   10.1745    6.5671   -8.4986 C   0  0  0  0  0  0  0  0  0  0  0  0
    9.4522    5.5051   -8.9650 C   0  0  0  0  0  0  0  0  0  0  0  0
    9.1690    5.4390  -10.2609 N   0  0  0  0  0  0  0  0  0  0  0  0
    8.6064    4.6063  -10.6054 H   0  0  0  0  0  0  0  0  0  0  0  0
   11.5538    7.8638   -5.2844 C   0  0  0  0  0  0  0  0  0  0  0  0
   11.3359    6.8286   -4.4069 C   0  0  0  0  0  0  0  0  0  0  0  0
   11.6560    6.9556   -3.0759 C   0  0  0  0  0  0  0  0  0  0  0  0
   12.1990    8.1229   -2.6073 C   0  0  0  0  0  0  0  0  0  0  0  0
   12.4211    9.1668   -3.4809 C   0  0  0  0  0  0  0  0  0  0  0  0
   12.1014    9.0360   -4.8033 C   0  0  0  0  0  0  0  0  0  0  0  0
  1  2  1  0
  2  3  1  0
  3  4  2  0
  4  5  1  0
  5  6  2  0
  6  7  1  0
  7  8  1  0
  8  9  2  0
  9 10  1  0
 10 11  2  0
 11 12  1  0
 12 13  2  0
 13 14  1  0
 14 15  1  6
 14 16  1  0
 16 17  1  0
 17 18  1  0
 18 19  2  0
 19 20  1  0
 20 24  1  0
 24 25  2  0
 25 26  1  0
 26 27  2  0
 27 28  1  0
 28 29  2  0
 29 30  1  0
 30 36  1  0
 36 37  2  0
 37 38  1  0
 38 39  2  0
 39 40  1  0
 40 41  2  0
 30 31  2  0
 31 32  1  0
 32 33  2  0
 33 34  1  0
 34 35  1  0
 20 21  2  0
 21 22  1  0
 22 23  2  0
  7  3  1  0
 13  8  1  0
 23 18  1  0
 14  6  1  0
 34 25  1  0
 23 12  1  0
 32 27  1  0
 41 36  1  0
M  END
>  <minimizedAffinity>  (143) 
-17.39597

$$$$
Mol: 127_57 - SminaDock
     RDKit          3D

 42 48  0  0  0  0  0  0  0  0999 V2000
    8.7133    5.4719  -12.4383 C   0  0  0  0  0  0  0  0  0  0  0  0
    9.5361    4.8855  -13.3746 C   0  0  0  0  0  0  0  0  0  0  0  0
    9.1907    3.9888  -14.4027 C   0  0  0  0  0  0  0  0  0  0  0  0
    8.1781    3.0925  -14.4304 C   0  0  0  0  0  0  0  0  0  0  0  0
    7.0757    3.0618  -13.5922 C   0  0  0  0  0  0  0  0  0  0  0  0
    6.6243    4.0804  -12.7387 C   0  0  0  0  0  0  0  0  0  0  0  0
    5.4105    4.1197  -12.4566 O   0  0  0  0  0  0  0  0  0  0  0  0
    7.4106    5.0798  -12.1570 C   0  0  0  0  0  0  0  0  0  0  0  0
    6.0549    2.0371  -13.3053 C   0  0  0  0  0  0  0  0  0  0  0  0
    5.6890    1.2042  -14.4748 C   0  0  0  0  0  0  0  0  0  0  0  0
    4.7364    0.2907  -14.0798 C   0  0  0  0  0  0  0  0  0  0  0  0
    4.2350   -0.5992  -14.9924 C   0  0  0  0  0  0  0  0  0  0  0  0
    4.7076   -0.5464  -16.2859 C   0  0  0  0  0  0  0  0  0  0  0  0
    5.6567    0.3644  -16.6780 C   0  0  0  0  0  0  0  0  0  0  0  0
    6.1841    1.2850  -15.7601 C   0  0  0  0  0  0  0  0  0  0  0  0
    7.1928    2.1738  -16.3997 C   0  0  0  0  0  0  0  0  0  0  0  0
    8.4433    2.1567  -15.5036 C   0  0  1  0  0  0  0  0  0  0  0  0
    9.5919    2.3445  -16.3877 C   0  0  0  0  0  0  0  0  0  0  0  0
    9.6192    1.1841  -17.3084 N   0  0  0  0  0  0  0  0  0  0  0  0
    9.4783    1.2321  -18.3162 H   0  0  0  0  0  0  0  0  0  0  0  0
    9.8687   -0.0588  -16.6464 C   0  0  0  0  0  0  0  0  0  0  0  0
   10.1015   -1.1120  -17.2523 O   0  0  0  0  0  0  0  0  0  0  0  0
    9.8159    0.0608  -15.1454 C   0  0  0  0  0  0  0  0  0  0  0  0
    8.4923    0.7676  -14.8899 C   0  0  0  0  0  0  0  0  0  0  0  0
   11.2154    7.9507   -6.0675 C   0  0  0  0  0  0  0  0  0  0  0  0
   11.3894    9.0536   -6.8734 C   0  0  0  0  0  0  0  0  0  0  0  0
   11.0116    8.9527   -8.2032 C   0  0  0  0  0  0  0  0  0  0  0  0
   10.4748    7.7786   -8.7091 C   0  0  0  0  0  0  0  0  0  0  0  0
   10.1076    7.6729   -9.9904 N   0  0  0  0  0  0  0  0  0  0  0  0
    9.5895    6.5461  -10.4858 C   0  0  0  0  0  0  0  0  0  0  0  0
    9.2673    6.5464  -11.7342 N   0  0  0  0  0  0  0  0  0  0  0  0
    9.4245    5.4798   -9.6946 N   0  0  0  0  0  0  0  0  0  0  0  0
    9.0150    4.6106  -10.1153 H   0  0  0  0  0  0  0  0  0  0  0  0
    9.7853    5.5625   -8.4075 C   0  0  0  0  0  0  0  0  0  0  0  0
   10.3255    6.7022   -7.8436 C   0  0  0  0  0  0  0  0  0  0  0  0
   10.6895    6.7666   -6.5180 C   0  0  0  0  0  0  0  0  0  0  0  0
   12.3440    8.2432   -2.0514 C   0  0  0  0  0  0  0  0  0  0  0  0
   12.0256    7.0035   -2.5641 C   0  0  0  0  0  0  0  0  0  0  0  0
   11.6593    6.9322   -3.8812 C   0  0  0  0  0  0  0  0  0  0  0  0
   11.6069    8.0492   -4.6756 C   0  0  0  0  0  0  0  0  0  0  0  0
   11.9242    9.2850   -4.1652 C   0  0  0  0  0  0  0  0  0  0  0  0
   12.2913    9.3485   -2.8407 C   0  0  0  0  0  0  0  0  0  0  0  0
 37 38  2  0
 38 39  1  0
 39 40  2  0
 40 25  1  0
 25 26  1  0
 26 27  2  0
 27 28  1  0
 28 29  2  0
 29 30  1  0
 30 31  2  0
 31  1  1  0
  1  2  1  0
  2  3  2  0
  3  4  1  0
  4  5  2  0
  5  6  1  0
  6  7  2  0
  6  8  1  0
  5  9  1  0
  9 10  1  0
 10 11  2  0
 11 12  1  0
 12 13  2  0
 13 14  1  0
 14 15  2  0
 15 16  1  0
 17 16  1  6
 17 18  1  0
 18 19  1  0
 19 20  1  0
 19 21  1  0
 21 22  2  0
 21 23  1  0
 23 24  1  0
 30 32  1  0
 32 33  1  0
 32 34  1  0
 34 35  2  0
 35 36  1  0
 40 41  1  0
 41 42  2  0
 42 37  1  0
 36 25  2  0
 35 28  1  0
  8  1  2  0
 15 10  1  0
 24 17  1  0
 17  4  1  0
M  END
>  <minimizedAffinity>  (144) 
-17.36052

$$$$
Mol: 140_4 - SminaDock
     RDKit          3D

 47 54  0  0  0  0  0  0  0  0999 V2000
    8.3914    5.5314  -12.2933 C   0  0  0  0  0  0  0  0  0  0  0  0
    7.2097    5.1460  -11.6870 C   0  0  0  0  0  0  0  0  0  0  0  0
    6.4821    4.0715  -12.1501 C   0  0  0  0  0  0  0  0  0  0  0  0
    6.9671    3.3829  -13.2447 C   0  0  0  0  0  0  0  0  0  0  0  0
    8.1365    3.7375  -13.8650 C   0  0  0  0  0  0  0  0  0  0  0  0
    8.8712    4.8438  -13.3795 C   0  0  0  0  0  0  0  0  0  0  0  0
    8.6798    2.9224  -14.9519 C   0  0  2  0  0  0  0  0  0  0  0  0
    9.5695    1.9291  -14.3041 N   0  0  0  0  0  0  0  0  0  0  0  0
    9.6226    1.8177  -13.2809 H   0  0  0  0  0  0  0  0  0  0  0  0
   10.3392    1.1432  -15.1462 N   0  0  0  0  0  0  0  0  0  0  0  0
   10.7413    0.2113  -14.8352 H   0  0  0  0  0  0  0  0  0  0  0  0
   10.5831    1.5394  -16.3423 C   0  0  0  0  0  0  0  0  0  0  0  0
   11.3755    0.7618  -17.2545 N   0  0  0  0  0  0  0  0  0  0  0  0
   11.1314    0.7260  -18.2785 H   0  0  0  0  0  0  0  0  0  0  0  0
   12.2028    0.2136  -16.9573 H   0  0  0  0  0  0  0  0  0  0  0  0
   10.0593    2.7626  -16.7596 O   0  0  0  0  0  0  0  0  0  0  0  0
    9.5912    3.6791  -15.8292 N   0  0  2  0  0  0  0  0  0  0  0  0
   10.4233    3.9049  -15.2501 H   0  0  0  0  0  0  0  0  0  0  0  0
    9.1855    4.5171  -16.2152 H   0  0  0  0  0  0  0  0  0  0  0  0
    7.7019    2.1544  -15.7234 C   0  0  0  0  0  0  0  0  0  0  0  0
    6.5704    1.7132  -14.9632 N   0  0  0  0  0  0  0  0  0  0  0  0
    6.1523    2.2993  -13.8390 C   0  0  0  0  0  0  0  0  0  0  0  0
    5.0085    1.7285  -13.3479 C   0  0  0  0  0  0  0  0  0  0  0  0
    4.6910    0.7137  -14.2229 C   0  0  0  0  0  0  0  0  0  0  0  0
    3.6521   -0.1956  -14.2360 C   0  0  0  0  0  0  0  0  0  0  0  0
    3.5756   -1.1146  -15.2433 C   0  0  0  0  0  0  0  0  0  0  0  0
    4.5403   -1.1079  -16.2202 C   0  0  0  0  0  0  0  0  0  0  0  0
    5.5787   -0.1953  -16.2030 C   0  0  0  0  0  0  0  0  0  0  0  0
    5.6509    0.7287  -15.1854 C   0  0  0  0  0  0  0  0  0  0  0  0
   11.3102    7.9378   -6.0596 C   0  0  0  0  0  0  0  0  0  0  0  0
   11.6517    8.9389   -6.9462 C   0  0  0  0  0  0  0  0  0  0  0  0
   11.2853    8.8793   -8.2768 C   0  0  0  0  0  0  0  0  0  0  0  0
   10.5613    7.8169   -8.7823 C   0  0  0  0  0  0  0  0  0  0  0  0
   10.2173    6.8130   -7.8998 C   0  0  0  0  0  0  0  0  0  0  0  0
    9.4938    5.7550   -8.4102 C   0  0  0  0  0  0  0  0  0  0  0  0
    9.1538    5.7310   -9.7122 N   0  0  0  0  0  0  0  0  0  0  0  0
    9.4859    6.7062  -10.5770 C   0  0  0  0  0  0  0  0  0  0  0  0
    9.1411    6.6460  -11.8125 N   0  0  0  0  0  0  0  0  0  0  0  0
   10.1962    7.7438  -10.0745 N   0  0  0  0  0  0  0  0  0  0  0  0
   10.4713    8.5266  -10.7346 H   0  0  0  0  0  0  0  0  0  0  0  0
   10.5873    6.8789   -6.5685 C   0  0  0  0  0  0  0  0  0  0  0  0
   12.4120    7.9848   -1.9258 C   0  0  0  0  0  0  0  0  0  0  0  0
   12.4094    9.1577   -2.6598 C   0  0  0  0  0  0  0  0  0  0  0  0
   12.0535    9.1569   -4.0038 C   0  0  0  0  0  0  0  0  0  0  0  0
   11.6929    7.9912   -4.6468 C   0  0  0  0  0  0  0  0  0  0  0  0
   11.6932    6.8283   -3.9276 C   0  0  0  0  0  0  0  0  0  0  0  0
   12.0492    6.8267   -2.5817 C   0  0  0  0  0  0  0  0  0  0  0  0
 42 43  2  0
 43 44  1  0
 44 45  2  0
 45 30  1  0
 30 31  2  0
 31 32  1  0
 32 33  2  0
 33 34  1  0
 34 35  1  0
 35 36  2  0
 36 37  1  0
 37 38  2  0
 38  1  1  0
  1  2  2  0
  2  3  1  0
  3  4  2  0
  4  5  1  0
  5  6  2  0
  5  7  1  0
  7  8  1  0
  8  9  1  0
  8 10  1  0
 10 11  1  0
 10 12  2  0
 12 13  1  0
 13 14  1  0
 13 15  1  0
 12 16  1  0
 16 17  1  0
 17 18  1  1
 17 19  1  0
  7 20  1  6
 20 21  1  0
 21 22  1  0
 22 23  2  0
 23 24  1  0
 24 25  2  0
 25 26  1  0
 26 27  2  0
 27 28  1  0
 28 29  2  0
 37 39  1  0
 39 40  1  0
 34 41  2  0
 45 46  1  0
 46 47  2  0
 47 42  1  0
 41 30  1  0
 39 33  1  0
  6  1  1  0
 17  7  1  0
 29 21  1  0
 22  4  1  0
 29 24  1  0
M  CHG  2  10   1  17   1
M  END
>  <minimizedAffinity>  (145) 
-17.41930

$$$$
Mol: 136_54 - SminaDock
     RDKit          3D

 45 52  0  0  0  0  0  0  0  0999 V2000
    8.7864    5.9533  -12.3135 C   0  0  0  0  0  0  0  0  0  0  0  0
    7.6066    5.4663  -11.8090 C   0  0  0  0  0  0  0  0  0  0  0  0
    6.9846    4.3501  -12.3865 C   0  0  0  0  0  0  0  0  0  0  0  0
    7.5309    3.6944  -13.4850 C   0  0  0  0  0  0  0  0  0  0  0  0
    8.6998    4.1808  -13.9813 C   0  0  0  0  0  0  0  0  0  0  0  0
    9.3165    5.3003  -13.3962 C   0  0  0  0  0  0  0  0  0  0  0  0
    9.3501    3.5416  -15.1588 C   0  0  1  0  0  0  0  0  0  0  0  0
    8.6580    2.3457  -15.6997 C   0  0  0  0  0  0  0  0  0  0  0  0
    7.4501    1.9288  -15.1376 N   0  0  0  0  0  0  0  0  0  0  0  0
    6.8866    2.5289  -14.0864 C   0  0  0  0  0  0  0  0  0  0  0  0
    5.6803    2.0724  -13.5494 C   0  0  0  0  0  0  0  0  0  0  0  0
    5.0550    0.9798  -14.1137 C   0  0  0  0  0  0  0  0  0  0  0  0
    3.9588    0.5278  -13.6621 O   0  0  0  0  0  0  0  0  0  0  0  0
    5.6336    0.3712  -15.1861 C   0  0  0  0  0  0  0  0  0  0  0  0
    4.9940   -0.7265  -15.7452 C   0  0  0  0  0  0  0  0  0  0  0  0
    5.5506   -1.3642  -16.8296 C   0  0  0  0  0  0  0  0  0  0  0  0
    6.7346   -0.8748  -17.3159 C   0  0  0  0  0  0  0  0  0  0  0  0
    7.3678    0.2262  -16.7483 C   0  0  0  0  0  0  0  0  0  0  0  0
    6.8221    0.8666  -15.6702 C   0  0  0  0  0  0  0  0  0  0  0  0
    9.4756    4.5774  -16.2811 C   0  0  0  0  0  0  0  0  0  0  0  0
   10.8842    4.7503  -16.7639 C   0  0  0  0  0  0  0  0  0  0  0  0
   11.3577    3.3590  -17.1973 C   0  0  1  0  0  0  0  0  0  0  0  0
   12.5964    3.4299  -17.9316 N   0  0  0  0  0  0  0  0  0  0  0  0
   12.4376    3.7880  -18.8988 H   0  0  0  0  0  0  0  0  0  0  0  0
   13.3026    4.0150  -17.4719 H   0  0  0  0  0  0  0  0  0  0  0  0
   11.5687    2.5920  -15.9084 C   0  0  0  0  0  0  0  0  0  0  0  0
   10.7990    3.1857  -14.7644 C   0  0  0  0  0  0  0  0  0  0  0  0
   11.3505    8.0025   -5.8883 C   0  0  0  0  0  0  0  0  0  0  0  0
   11.6180    9.0998   -6.6653 C   0  0  0  0  0  0  0  0  0  0  0  0
   11.2812    9.1262   -7.9934 C   0  0  0  0  0  0  0  0  0  0  0  0
   10.6581    8.0336   -8.5810 C   0  0  0  0  0  0  0  0  0  0  0  0
   10.3845    6.9318   -7.8199 C   0  0  0  0  0  0  0  0  0  0  0  0
    9.7711    5.8653   -8.4126 C   0  0  0  0  0  0  0  0  0  0  0  0
    9.4557    5.9321   -9.7250 N   0  0  0  0  0  0  0  0  0  0  0  0
    9.7240    7.0132  -10.4725 C   0  0  0  0  0  0  0  0  0  0  0  0
    9.4281    7.0907  -11.7287 N   0  0  0  0  0  0  0  0  0  0  0  0
   10.3241    8.0504   -9.8823 N   0  0  0  0  0  0  0  0  0  0  0  0
   10.5355    8.8919  -10.4545 H   0  0  0  0  0  0  0  0  0  0  0  0
   10.7336    6.9284   -6.4824 C   0  0  0  0  0  0  0  0  0  0  0  0
   12.4190    7.9768   -1.7899 C   0  0  0  0  0  0  0  0  0  0  0  0
   12.0602    6.8048   -2.4222 C   0  0  0  0  0  0  0  0  0  0  0  0
   11.7135    6.8198   -3.7565 C   0  0  0  0  0  0  0  0  0  0  0  0
   11.7251    8.0054   -4.4594 C   0  0  0  0  0  0  0  0  0  0  0  0
   12.0791    9.1954   -3.8562 C   0  0  0  0  0  0  0  0  0  0  0  0
   12.4211    9.1601   -2.5277 C   0  0  0  0  0  0  0  0  0  0  0  0
 40 41  2  0
 41 42  1  0
 42 43  2  0
 43 28  1  0
 28 29  2  0
 29 30  1  0
 30 31  2  0
 31 32  1  0
 32 33  1  0
 33 34  2  0
 34 35  1  0
 35 36  2  0
 36  1  1  0
  1  2  2  0
  2  3  1  0
  3  4  2  0
  4  5  1  0
  5  6  2  0
  5  7  1  0
  7  8  1  6
  8  9  1  0
  9 10  1  0
 10 11  2  0
 11 12  1  0
 12 13  2  0
 12 14  1  0
 14 15  2  0
 15 16  1  0
 16 17  2  0
 17 18  1  0
 18 19  2  0
  7 20  1  0
 20 21  1  0
 21 22  1  0
 22 23  1  1
 23 24  1  0
 23 25  1  0
 22 26  1  0
 26 27  1  0
 35 37  1  0
 37 38  1  0
 32 39  2  0
 43 44  1  0
 44 45  2  0
 45 40  1  0
 39 28  1  0
 37 31  1  0
  6  1  1  0
 27  7  1  0
 10  4  1  0
 19 14  1  0
 19  9  1  0
M  END
>  <minimizedAffinity>  (146) 
-17.37173

$$$$
Mol: 163_26 - SminaDock
     RDKit          3D

 41 47  0  0  0  0  0  0  0  0999 V2000
    2.0913   -0.8072  -13.3906 H   0  0  0  0  0  0  0  0  0  0  0  0
    2.6579   -1.1933  -14.1572 N   0  0  0  0  0  0  0  0  0  0  0  0
    3.7847   -0.6790  -14.5451 C   0  0  0  0  0  0  0  0  0  0  0  0
    4.3096    0.4146  -13.9684 N   0  0  0  0  0  0  0  0  0  0  0  0
    5.4763    0.9621  -14.3560 C   0  0  0  0  0  0  0  0  0  0  0  0
    5.9490    2.0896  -13.7103 C   0  0  0  0  0  0  0  0  0  0  0  0
    7.1572    2.6169  -14.1470 C   0  0  0  0  0  0  0  0  0  0  0  0
    7.8669    2.0526  -15.1780 C   0  0  0  0  0  0  0  0  0  0  0  0
    7.3672    0.9125  -15.8147 C   0  0  0  0  0  0  0  0  0  0  0  0
    6.1754    0.3792  -15.3955 C   0  0  0  0  0  0  0  0  0  0  0  0
    5.6804   -0.7626  -16.0373 C   0  0  0  0  0  0  0  0  0  0  0  0
    6.3904   -1.3364  -17.0770 O   0  0  0  0  0  0  0  0  0  0  0  0
    6.9680   -2.1615  -16.8515 H   0  0  0  0  0  0  0  0  0  0  0  0
    4.4797   -1.2629  -15.5825 C   0  0  0  0  0  0  0  0  0  0  0  0
    9.1631    2.5581  -15.7004 C   0  0  0  0  0  0  0  0  0  0  0  0
    9.6574    3.7451  -15.0152 C   0  0  0  0  0  0  0  0  0  0  0  0
   10.7551    4.2367  -15.3983 O   0  0  0  0  0  0  0  0  0  0  0  0
    8.8879    4.3161  -13.9334 C   0  0  0  0  0  0  0  0  0  0  0  0
    9.4179    5.4387  -13.3329 C   0  0  0  0  0  0  0  0  0  0  0  0
    8.7435    6.0406  -12.2938 C   0  0  0  0  0  0  0  0  0  0  0  0
    7.5422    5.5449  -11.8357 C   0  0  0  0  0  0  0  0  0  0  0  0
    6.9980    4.4047  -12.4413 C   0  0  0  0  0  0  0  0  0  0  0  0
    7.6736    3.8086  -13.4757 C   0  0  0  0  0  0  0  0  0  0  0  0
    9.3171    7.1984  -11.6905 N   0  0  0  0  0  0  0  0  0  0  0  0
    9.6595    7.1438  -10.4684 C   0  0  0  0  0  0  0  0  0  0  0  0
    9.4886    6.0248   -9.7531 N   0  0  0  0  0  0  0  0  0  0  0  0
    9.8410    5.9331   -8.4516 C   0  0  0  0  0  0  0  0  0  0  0  0
   10.4010    7.0220   -7.8117 C   0  0  0  0  0  0  0  0  0  0  0  0
   10.7781    6.9803   -6.4815 C   0  0  0  0  0  0  0  0  0  0  0  0
   11.3372    8.0685   -5.8414 C   0  0  0  0  0  0  0  0  0  0  0  0
   11.5054    9.2124   -6.5948 C   0  0  0  0  0  0  0  0  0  0  0  0
   11.1296    9.2554   -7.9221 C   0  0  0  0  0  0  0  0  0  0  0  0
   10.5717    8.1682   -8.5589 C   0  0  0  0  0  0  0  0  0  0  0  0
   10.2016    8.2092   -9.8621 N   0  0  0  0  0  0  0  0  0  0  0  0
   10.3655    9.1287  -10.3703 H   0  0  0  0  0  0  0  0  0  0  0  0
   11.7355    8.0275   -4.4379 C   0  0  0  0  0  0  0  0  0  0  0  0
   11.7629    6.8681   -3.6927 C   0  0  0  0  0  0  0  0  0  0  0  0
   12.1491    6.8628   -2.3522 C   0  0  0  0  0  0  0  0  0  0  0  0
   12.5194    8.0318   -1.7251 C   0  0  0  0  0  0  0  0  0  0  0  0
   12.4926    9.1918   -2.4689 C   0  0  0  0  0  0  0  0  0  0  0  0
   12.1079    9.1936   -3.8023 C   0  0  0  0  0  0  0  0  0  0  0  0
  1  2  1  0
  2  3  2  0
  3  4  1  0
  4  5  1  0
  5  6  2  0
  6  7  1  0
  7  8  2  0
  8  9  1  0
  9 10  2  0
 10 11  1  0
 11 12  1  0
 12 13  1  0
 11 14  2  0
  8 15  1  0
 15 16  1  0
 16 17  2  0
 16 18  1  0
 18 19  2  0
 19 20  1  0
 20 24  1  0
 24 25  2  0
 25 26  1  0
 26 27  2  0
 27 28  1  0
 28 29  2  0
 29 30  1  0
 30 36  1  0
 36 37  2  0
 37 38  1  0
 38 39  2  0
 39 40  1  0
 40 41  2  0
 30 31  2  0
 31 32  1  0
 32 33  2  0
 33 34  1  0
 34 35  1  0
 20 21  2  0
 21 22  1  0
 22 23  2  0
 14  3  1  0
 23 18  1  0
 10  5  1  0
 34 25  1  0
 23  7  1  0
 33 28  1  0
 41 36  1  0
M  CHG  1   4  -1
M  END
>  <minimizedAffinity>  (147) 
-17.42576

$$$$
Mol: 195_33 - SminaDock
     RDKit          3D

 45 52  0  0  0  0  0  0  0  0999 V2000
    2.9997   -2.0237  -15.2480 H   0  0  0  0  0  0  0  0  0  0  0  0
    2.8598   -1.2252  -14.5919 N   0  0  0  0  0  0  0  0  0  0  0  0
    3.8460   -0.3689  -14.4740 C   0  0  0  0  0  0  0  0  0  0  0  0
    3.8657    0.6998  -13.7028 O   0  0  0  0  0  0  0  0  0  0  0  0
    4.9983    1.3503  -13.8111 C   0  0  0  0  0  0  0  0  0  0  0  0
    5.5387    2.4910  -13.2550 C   0  0  0  0  0  0  0  0  0  0  0  0
    6.8100    2.9434  -13.5791 C   0  0  0  0  0  0  0  0  0  0  0  0
    7.5905    2.2658  -14.4774 C   0  0  0  0  0  0  0  0  0  0  0  0
    7.0396    1.1007  -15.0456 C   0  0  0  0  0  0  0  0  0  0  0  0
    5.7745    0.6554  -14.7195 C   0  0  0  0  0  0  0  0  0  0  0  0
    5.0304   -0.4031  -15.1097 N   0  0  0  0  0  0  0  0  0  0  0  0
    5.3468   -1.1250  -15.7998 H   0  0  0  0  0  0  0  0  0  0  0  0
    8.8843    2.9425  -14.6562 C   0  0  1  0  0  0  0  0  0  0  0  0
    8.8234    4.1094  -13.7435 C   0  0  0  0  0  0  0  0  0  0  0  0
    9.7656    5.1155  -13.4712 C   0  0  0  0  0  0  0  0  0  0  0  0
    9.4438    6.0999  -12.5721 C   0  0  0  0  0  0  0  0  0  0  0  0
    8.2108    6.0755  -11.9630 C   0  0  0  0  0  0  0  0  0  0  0  0
    7.2715    5.1000  -12.2138 C   0  0  0  0  0  0  0  0  0  0  0  0
    7.6005    4.0908  -13.1347 C   0  0  0  0  0  0  0  0  0  0  0  0
   10.0490    2.1037  -14.1867 C   0  0  0  0  0  0  0  0  0  0  0  0
   10.5368    1.1019  -15.1727 C   0  0  0  0  0  0  0  0  0  0  0  0
   10.8038    1.6805  -16.5217 C   0  0  1  0  0  0  0  0  0  0  0  0
   11.9505    2.4699  -16.4778 O   0  0  0  0  0  0  0  0  0  0  0  0
   12.6286    1.9595  -15.9696 H   0  0  0  0  0  0  0  0  0  0  0  0
   11.0433    0.5317  -17.4975 C   0  0  0  0  0  0  0  0  0  0  0  0
    9.6118    2.4308  -17.0163 C   0  0  0  0  0  0  0  0  0  0  0  0
    9.0828    3.4493  -16.0652 C   0  0  0  0  0  0  0  0  0  0  0  0
   10.3779    7.1481  -12.2452 N   0  0  0  0  0  0  0  0  0  0  0  0
   10.7675    7.7643  -12.9845 H   0  0  0  0  0  0  0  0  0  0  0  0
   10.7969    7.3746  -10.9041 C   0  0  0  0  0  0  0  0  0  0  0  0
   11.9598    8.0025  -10.6224 N   0  0  0  0  0  0  0  0  0  0  0  0
   12.3175    8.1996   -9.3451 C   0  0  0  0  0  0  0  0  0  0  0  0
   11.5368    7.7830   -8.2907 C   0  0  0  0  0  0  0  0  0  0  0  0
   11.8905    7.9791   -6.9754 C   0  0  0  0  0  0  0  0  0  0  0  0
   11.0800    7.5477   -5.9190 C   0  0  0  0  0  0  0  0  0  0  0  0
    9.9098    6.9170   -6.2142 C   0  0  0  0  0  0  0  0  0  0  0  0
    9.5435    6.7138   -7.5302 C   0  0  0  0  0  0  0  0  0  0  0  0
   10.3372    7.1357   -8.5813 C   0  0  0  0  0  0  0  0  0  0  0  0
   10.0364    6.9686   -9.8752 N   0  0  0  0  0  0  0  0  0  0  0  0
   11.5759    7.8114   -4.5771 C   0  0  0  0  0  0  0  0  0  0  0  0
   11.8994    9.0528   -4.1132 C   0  0  0  0  0  0  0  0  0  0  0  0
   12.3627    9.2458   -2.8305 C   0  0  0  0  0  0  0  0  0  0  0  0
   12.5237    8.1980   -1.9485 C   0  0  0  0  0  0  0  0  0  0  0  0
   12.2031    6.9353   -2.3950 C   0  0  0  0  0  0  0  0  0  0  0  0
   11.7406    6.7564   -3.6808 C   0  0  0  0  0  0  0  0  0  0  0  0
  1  2  1  0
  2  3  2  0
  3  4  1  0
  4  5  1  0
  5  6  2  0
  6  7  1  0
  7  8  2  0
  8  9  1  0
  9 10  2  0
 10 11  1  0
 11 12  1  0
  8 13  1  0
 13 14  1  0
 14 15  2  0
 15 16  1  0
 16 28  1  0
 28 29  1  0
 28 30  1  0
 30 31  2  0
 31 32  1  0
 32 33  2  0
 33 34  1  0
 34 35  2  0
 35 40  1  0
 40 41  2  0
 41 42  1  0
 42 43  2  0
 43 44  1  0
 44 45  2  0
 35 36  1  0
 36 37  2  0
 37 38  1  0
 38 39  2  0
 16 17  2  0
 17 18  1  0
 18 19  2  0
 13 20  1  1
 20 21  1  0
 21 22  1  0
 22 23  1  0
 23 24  1  0
 22 25  1  6
 22 26  1  0
 26 27  1  0
 11  3  1  0
 27 13  1  0
 10  5  1  0
 19 14  1  0
 19  7  1  0
 39 30  1  0
 38 33  1  0
 45 40  1  0
M  END
>  <minimizedAffinity>  (148) 
-17.36870

$$$$
Mol: 193_22 - SminaDock
     RDKit          3D

 45 52  0  0  0  0  0  0  0  0999 V2000
    8.7375    6.1206  -12.5281 C   0  0  0  0  0  0  0  0  0  0  0  0
    9.2670    5.5493  -13.6493 C   0  0  0  0  0  0  0  0  0  0  0  0
    8.7406    4.3990  -14.2542 C   0  0  0  0  0  0  0  0  0  0  0  0
    7.6442    3.7908  -13.7228 C   0  0  0  0  0  0  0  0  0  0  0  0
    7.0927    4.3697  -12.5724 C   0  0  0  0  0  0  0  0  0  0  0  0
    7.6330    5.5132  -11.9897 C   0  0  0  0  0  0  0  0  0  0  0  0
    5.9326    3.5489  -12.1867 C   0  0  0  0  0  0  0  0  0  0  0  0
    5.8210    2.5152  -13.2407 C   0  0  0  0  0  0  0  0  0  0  0  0
    4.8825    1.5262  -13.4156 C   0  0  0  0  0  0  0  0  0  0  0  0
    4.9682    0.6583  -14.4696 C   0  0  0  0  0  0  0  0  0  0  0  0
    6.0168    0.7451  -15.4068 C   0  0  0  0  0  0  0  0  0  0  0  0
    6.9482    1.7296  -15.2274 C   0  0  0  0  0  0  0  0  0  0  0  0
    6.8578    2.6291  -14.1411 C   0  0  0  0  0  0  0  0  0  0  0  0
    5.9652   -0.2418  -16.4189 C   0  0  2  0  0  0  0  0  0  0  0  0
    4.5264   -0.2833  -16.9291 C   0  0  0  0  0  0  0  0  0  0  0  0
    4.1498   -0.0771  -18.0702 O   0  0  0  0  0  0  0  0  0  0  0  0
    3.5715   -0.5937  -15.9447 O   0  0  0  0  0  0  0  0  0  0  0  0
    3.9251   -0.3592  -14.5809 C   0  0  0  0  0  0  0  0  0  0  0  0
    6.0142   -1.5472  -15.6498 N   0  0  0  0  0  0  0  0  0  0  0  0
    6.2815   -1.5892  -14.6742 H   0  0  0  0  0  0  0  0  0  0  0  0
    5.6636   -2.6615  -16.4618 C   0  0  0  0  0  0  0  0  0  0  0  0
    5.5201   -3.8139  -16.0026 O   0  0  0  0  0  0  0  0  0  0  0  0
    5.4664   -2.4773  -17.8441 O   0  0  0  0  0  0  0  0  0  0  0  0
    6.1633   -1.5101  -18.5199 C   0  0  0  0  0  0  0  0  0  0  0  0
    6.8092   -0.5174  -17.5362 C   0  0  0  0  0  0  0  0  0  0  0  0
   11.2495    8.0355   -6.0312 C   0  0  0  0  0  0  0  0  0  0  0  0
   11.4416    9.2020   -6.7545 C   0  0  0  0  0  0  0  0  0  0  0  0
   11.0932    9.2971   -8.0854 C   0  0  0  0  0  0  0  0  0  0  0  0
   10.5323    8.2123   -8.7479 C   0  0  0  0  0  0  0  0  0  0  0  0
   10.1869    8.2884  -10.0479 N   0  0  0  0  0  0  0  0  0  0  0  0
    9.6455    7.2264  -10.6723 C   0  0  0  0  0  0  0  0  0  0  0  0
    9.3087    7.3008  -11.9395 N   0  0  0  0  0  0  0  0  0  0  0  0
    9.4588    6.0964   -9.9736 N   0  0  0  0  0  0  0  0  0  0  0  0
    9.0349    5.2861  -10.4870 H   0  0  0  0  0  0  0  0  0  0  0  0
    9.7751    5.9495   -8.6908 C   0  0  0  0  0  0  0  0  0  0  0  0
   10.3384    7.0499   -8.0359 C   0  0  0  0  0  0  0  0  0  0  0  0
   10.6929    6.9809   -6.7151 C   0  0  0  0  0  0  0  0  0  0  0  0
   12.3841    7.8901   -1.9082 C   0  0  0  0  0  0  0  0  0  0  0  0
   12.0108    6.7531   -2.5824 C   0  0  0  0  0  0  0  0  0  0  0  0
   11.6435    6.8076   -3.9204 C   0  0  0  0  0  0  0  0  0  0  0  0
   11.6361    7.9908   -4.6269 C   0  0  0  0  0  0  0  0  0  0  0  0
   12.0111    9.1278   -3.9454 C   0  0  0  0  0  0  0  0  0  0  0  0
   12.3790    9.0812   -2.6105 C   0  0  0  0  0  0  0  0  0  0  0  0
    8.0383    1.8379  -16.1653 C   0  0  0  0  0  0  0  0  0  0  0  0
    9.3455    1.2094  -15.7411 C   0  0  0  0  0  0  0  0  0  0  0  0
 38 39  2  0
 39 40  1  0
 40 41  2  0
 41 26  1  0
 26 27  1  0
 27 28  2  0
 28 29  1  0
 29 30  2  0
 30 31  1  0
 31 32  2  0
 32  1  1  0
  1  2  2  0
  2  3  1  0
  3  4  2  0
  4  5  1  0
  5  6  2  0
  5  7  1  0
  7  8  1  0
  8  9  2  0
  9 10  1  0
 10 11  2  0
 11 12  1  0
 12 44  1  0
 44 45  1  0
 12 13  2  0
 11 14  1  0
 14 15  1  0
 15 16  2  0
 15 17  1  0
 17 18  1  0
 14 19  1  0
 19 20  1  0
 19 21  1  0
 21 22  2  0
 21 23  1  0
 23 24  1  0
 24 25  1  0
 31 33  1  0
 33 34  1  0
 33 35  1  0
 35 36  2  0
 36 37  1  0
 41 42  1  0
 42 43  2  0
 43 38  1  0
 37 26  2  0
 36 29  1  0
  6  1  1  0
 13  8  1  0
 14 25  1  6
 13  4  1  0
 18 10  1  0
M  END
>  <minimizedAffinity>  (149) 
-17.44917

$$$$
Mol: 104_34 - SminaDock
     RDKit          3D

 47 54  0  0  0  0  0  0  0  0999 V2000
    3.4543   -0.8643  -13.8874 O   0  0  0  0  0  0  0  0  0  0  0  0
    4.5720   -0.4796  -14.3168 C   0  0  0  0  0  0  0  0  0  0  0  0
    5.6973   -0.4108  -13.4123 N   0  0  0  0  0  0  0  0  0  0  0  0
    6.9682    0.0337  -13.9307 C   0  0  0  0  0  0  0  0  0  0  0  0
    7.9914   -0.4427  -13.4127 O   0  0  0  0  0  0  0  0  0  0  0  0
    6.9120    1.0091  -15.0240 C   0  0  1  0  0  0  0  0  0  0  0  0
    6.0854    2.1650  -14.5772 C   0  0  0  0  0  0  0  0  0  0  0  0
    6.9315    3.1943  -13.9417 C   0  0  0  0  0  0  0  0  0  0  0  0
    6.3046    4.2023  -13.1982 C   0  0  0  0  0  0  0  0  0  0  0  0
    7.0417    5.2134  -12.6027 C   0  0  0  0  0  0  0  0  0  0  0  0
    8.4038    5.2487  -12.7292 C   0  0  0  0  0  0  0  0  0  0  0  0
    9.0082    4.2553  -13.4595 C   0  0  0  0  0  0  0  0  0  0  0  0
    8.2975    3.2136  -14.0769 C   0  0  0  0  0  0  0  0  0  0  0  0
    9.0261    2.2382  -14.8197 N   0  0  0  0  0  0  0  0  0  0  0  0
    8.2130    1.3619  -15.6536 C   0  0  0  0  0  0  0  0  0  0  0  0
    6.0863    0.3267  -16.1040 C   0  0  0  0  0  0  0  0  0  0  0  0
    6.5230    0.1687  -17.2596 O   0  0  0  0  0  0  0  0  0  0  0  0
    4.7963   -0.1022  -15.6695 N   0  0  0  0  0  0  0  0  0  0  0  0
    9.1502    6.2854  -12.1451 N   0  0  0  0  0  0  0  0  0  0  0  0
    9.5169    7.0674  -12.7712 H   0  0  0  0  0  0  0  0  0  0  0  0
    9.4740    6.3942  -10.7658 C   0  0  0  0  0  0  0  0  0  0  0  0
    9.0679    5.4403   -9.8537 C   0  0  0  0  0  0  0  0  0  0  0  0
    9.3967    5.5139   -8.4963 C   0  0  0  0  0  0  0  0  0  0  0  0
   10.1539    6.5717   -8.0359 C   0  0  0  0  0  0  0  0  0  0  0  0
   10.5174    6.6969   -6.6856 C   0  0  0  0  0  0  0  0  0  0  0  0
   11.2756    7.7551   -6.2445 C   0  0  0  0  0  0  0  0  0  0  0  0
   11.6699    8.6953   -7.1758 C   0  0  0  0  0  0  0  0  0  0  0  0
   11.3122    8.5727   -8.5035 C   0  0  0  0  0  0  0  0  0  0  0  0
   10.5516    7.5170   -8.9590 C   0  0  0  0  0  0  0  0  0  0  0  0
   10.2087    7.4017  -10.2571 N   0  0  0  0  0  0  0  0  0  0  0  0
   11.6493    7.8878   -4.8302 C   0  0  0  0  0  0  0  0  0  0  0  0
   11.6230    6.8048   -3.9903 C   0  0  0  0  0  0  0  0  0  0  0  0
   11.9865    6.9600   -2.6632 C   0  0  0  0  0  0  0  0  0  0  0  0
   12.3802    8.1683   -2.1361 C   0  0  0  0  0  0  0  0  0  0  0  0
   12.3932    9.2423   -3.0208 C   0  0  0  0  0  0  0  0  0  0  0  0
   12.0399    9.1075   -4.3241 C   0  0  0  0  0  0  0  0  0  0  0  0
   10.4434    2.0781  -14.7633 C   0  0  0  0  0  0  0  0  0  0  0  0
   11.1556    2.0492  -16.0522 C   0  0  0  0  0  0  0  0  0  0  0  0
   11.8691    3.0945  -16.5665 C   0  0  0  0  0  0  0  0  0  0  0  0
   12.5088    2.9744  -17.8110 C   0  0  0  0  0  0  0  0  0  0  0  0
   12.4443    1.8154  -18.5540 C   0  0  0  0  0  0  0  0  0  0  0  0
   13.0836    1.7154  -19.7763 C   0  0  0  0  0  0  0  0  0  0  0  0
   13.0169    0.5334  -20.5231 C   0  0  0  0  0  0  0  0  0  0  0  0
   12.3059   -0.5143  -20.0150 C   0  0  0  0  0  0  0  0  0  0  0  0
   11.6775   -0.3942  -18.7988 C   0  0  0  0  0  0  0  0  0  0  0  0
   11.7192    0.7508  -18.0336 C   0  0  0  0  0  0  0  0  0  0  0  0
   11.1059    0.8986  -16.8165 C   0  0  0  0  0  0  0  0  0  0  0  0
  1  2  2  0
  2  3  1  0
  3  4  1  0
  4  5  2  0
  4  6  1  0
  6  7  1  1
  7  8  1  0
  8  9  2  0
  9 10  1  0
 10 11  2  0
 11 19  1  0
 19 21  1  0
 21 22  2  0
 22 23  1  0
 23 24  2  0
 24 25  1  0
 25 26  2  0
 26 31  1  0
 31 32  2  0
 32 33  1  0
 33 34  2  0
 34 35  1  0
 35 36  2  0
 26 27  1  0
 27 28  2  0
 28 29  1  0
 29 30  2  0
 11 12  1  0
 12 13  2  0
 13 14  1  0
 14 37  1  0
 37 38  1  0
 38 39  2  0
 39 40  1  0
 40 41  2  0
 41 42  1  0
 42 43  2  0
 43 44  1  0
 44 45  2  0
 45 46  1  0
 46 47  2  0
 14 15  1  0
  6 16  1  0
 16 17  2  0
 16 18  1  0
 18  2  1  0
 15  6  1  0
 13  8  1  0
 47 38  1  0
 30 21  1  0
 46 41  1  0
 29 24  1  0
 36 31  1  0
 19 20  1  0
M  CHG  2   3  -1  18  -1
M  END
>  <minimizedAffinity>  (150) 
-17.38039

$$$$
Mol: 176_3 - SminaDock
     RDKit          3D

 41 48  0  0  0  0  0  0  0  0999 V2000
    7.8707    4.7461  -12.6609 C   0  0  0  0  0  0  0  0  0  0  0  0
    6.6092    4.6147  -12.1434 C   0  0  0  0  0  0  0  0  0  0  0  0
    5.7560    3.5916  -12.4831 C   0  0  0  0  0  0  0  0  0  0  0  0
    6.1877    2.6270  -13.4055 C   0  0  0  0  0  0  0  0  0  0  0  0
    7.4394    2.7375  -13.9333 C   0  0  0  0  0  0  0  0  0  0  0  0
    8.2790    3.7972  -13.5601 C   0  0  0  0  0  0  0  0  0  0  0  0
    7.6529    1.6014  -14.8668 C   0  0  2  0  0  0  0  0  0  0  0  0
    6.3920    0.8446  -14.8347 C   0  0  0  0  0  0  0  0  0  0  0  0
    5.5359    1.4538  -13.9628 C   0  0  0  0  0  0  0  0  0  0  0  0
    4.2646    0.9320  -13.7438 C   0  0  0  0  0  0  0  0  0  0  0  0
    3.8305   -0.2080  -14.3953 C   0  0  0  0  0  0  0  0  0  0  0  0
    4.6895   -0.8271  -15.2770 C   0  0  0  0  0  0  0  0  0  0  0  0
    4.5517   -1.9040  -16.0247 O   0  0  0  0  0  0  0  0  0  0  0  0
    5.6603   -2.0923  -16.7020 C   0  0  0  0  0  0  0  0  0  0  0  0
    5.8053   -3.0536  -17.4989 O   0  0  0  0  0  0  0  0  0  0  0  0
    6.5286   -1.1075  -16.3762 N   0  0  0  0  0  0  0  0  0  0  0  0
    5.9438   -0.3059  -15.4876 C   0  0  0  0  0  0  0  0  0  0  0  0
    8.8258    0.7528  -14.4020 C   0  0  0  0  0  0  0  0  0  0  0  0
    9.2920   -0.0550  -15.4679 N   0  0  0  0  0  0  0  0  0  0  0  0
    9.1383   -1.0451  -15.4496 H   0  0  0  0  0  0  0  0  0  0  0  0
    9.6301    0.6003  -16.6764 C   0  0  0  0  0  0  0  0  0  0  0  0
    9.2937    2.0865  -16.6311 C   0  0  0  0  0  0  0  0  0  0  0  0
    7.8389    2.1690  -16.2491 C   0  0  0  0  0  0  0  0  0  0  0  0
   11.1836    7.6113   -6.8115 C   0  0  0  0  0  0  0  0  0  0  0  0
   11.5360    8.5127   -7.8190 C   0  0  0  0  0  0  0  0  0  0  0  0
   11.1028    8.3332   -9.1180 C   0  0  0  0  0  0  0  0  0  0  0  0
   10.3033    7.2472   -9.4527 C   0  0  0  0  0  0  0  0  0  0  0  0
    9.8624    7.0419  -10.7122 N   0  0  0  0  0  0  0  0  0  0  0  0
    9.0894    5.9951  -11.0430 C   0  0  0  0  0  0  0  0  0  0  0  0
    8.6894    5.8353  -12.2574 N   0  0  0  0  0  0  0  0  0  0  0  0
    8.7399    5.1186  -10.0920 N   0  0  0  0  0  0  0  0  0  0  0  0
    8.1358    4.2755  -10.2827 H   0  0  0  0  0  0  0  0  0  0  0  0
    9.1425    5.2547   -8.8020 C   0  0  0  0  0  0  0  0  0  0  0  0
    9.9405    6.3411   -8.4759 C   0  0  0  0  0  0  0  0  0  0  0  0
   10.3905    6.5497   -7.1871 C   0  0  0  0  0  0  0  0  0  0  0  0
   12.5259    8.1811   -2.8019 C   0  0  0  0  0  0  0  0  0  0  0  0
   11.8344    7.0379   -3.1388 C   0  0  0  0  0  0  0  0  0  0  0  0
   11.4108    6.8752   -4.4400 C   0  0  0  0  0  0  0  0  0  0  0  0
   11.6384    7.7970   -5.4389 C   0  0  0  0  0  0  0  0  0  0  0  0
   12.3291    8.9312   -5.0864 C   0  0  0  0  0  0  0  0  0  0  0  0
   12.7683    9.1197   -3.7783 C   0  0  0  0  0  0  0  0  0  0  0  0
 36 37  2  0
 37 38  1  0
 38 39  2  0
 39 24  1  0
 24 25  1  0
 25 26  2  0
 26 27  1  0
 27 28  2  0
 28 29  1  0
 29 30  2  0
 30  1  1  0
  1  2  2  0
  2  3  1  0
  3  4  2  0
  4  5  1  0
  5  6  2  0
  5  7  1  0
  7  8  1  0
  8  9  2  0
  9 10  1  0
 10 11  2  0
 11 12  1  0
 12 13  1  0
 13 14  1  0
 14 15  2  0
 14 16  1  0
 16 17  1  0
  7 18  1  1
 18 19  1  0
 19 20  1  0
 19 21  1  0
 21 22  1  0
 22 23  1  0
 29 31  1  0
 31 32  1  0
 31 33  1  0
 33 34  2  0
 34 35  1  0
 39 40  1  0
 40 41  2  0
 41 36  1  0
 35 24  2  0
 34 27  1  0
  6  1  1  0
 23  7  1  0
  9  4  1  0
 17 12  2  0
 17  8  1  0
M  CHG  1  16  -1
M  END
>  <minimizedAffinity>  (151) 
-17.35005

$$$$
Mol: 154_35 - SminaDock
     RDKit          3D

 39 45  0  0  0  0  0  0  0  0999 V2000
    8.2843    1.8960  -14.8796 C   0  0  0  0  0  0  0  0  0  0  0  0
    7.7701    0.7563  -15.4334 N   0  0  0  0  0  0  0  0  0  0  0  0
    6.5410    0.2949  -15.1664 C   0  0  0  0  0  0  0  0  0  0  0  0
    6.0569   -0.8761  -15.7563 C   0  0  0  0  0  0  0  0  0  0  0  0
    4.8091   -1.3602  -15.4964 C   0  0  0  0  0  0  0  0  0  0  0  0
    4.0031   -0.6594  -14.6162 C   0  0  0  0  0  0  0  0  0  0  0  0
    2.7100   -1.1479  -14.3374 N   0  0  0  0  0  0  0  0  0  0  0  0
    2.3780   -1.1796  -13.3499 H   0  0  0  0  0  0  0  0  0  0  0  0
    2.1039   -1.4700  -15.1180 H   0  0  0  0  0  0  0  0  0  0  0  0
    4.4880    0.4954  -14.0380 C   0  0  0  0  0  0  0  0  0  0  0  0
    5.7416    1.0014  -14.2855 C   0  0  0  0  0  0  0  0  0  0  0  0
    6.2090    2.1604  -13.6959 C   0  0  0  0  0  0  0  0  0  0  0  0
    7.4802    2.5755  -14.0150 C   0  0  0  0  0  0  0  0  0  0  0  0
    7.9942    3.8066  -13.3706 C   0  0  0  0  0  0  0  0  0  0  0  0
    9.2616    4.2546  -13.6991 C   0  0  0  0  0  0  0  0  0  0  0  0
    9.7481    5.4288  -13.1152 C   0  0  0  0  0  0  0  0  0  0  0  0
    8.9702    6.1187  -12.2299 C   0  0  0  0  0  0  0  0  0  0  0  0
    7.7208    5.6766  -11.9059 C   0  0  0  0  0  0  0  0  0  0  0  0
    7.2089    4.4961  -12.4808 C   0  0  0  0  0  0  0  0  0  0  0  0
    5.8683    4.0448  -12.0858 C   0  0  0  0  0  0  0  0  0  0  0  0
    5.2985    2.8698  -12.7834 C   0  0  0  0  0  0  0  0  0  0  0  0
    9.4079    7.3244  -11.5998 N   0  0  0  0  0  0  0  0  0  0  0  0
    9.7610    7.2456  -10.3634 C   0  0  0  0  0  0  0  0  0  0  0  0
    9.7287    6.0935   -9.6731 N   0  0  0  0  0  0  0  0  0  0  0  0
   10.0915    5.9867   -8.3826 C   0  0  0  0  0  0  0  0  0  0  0  0
   10.5273    7.1139   -7.7023 C   0  0  0  0  0  0  0  0  0  0  0  0
   10.9129    7.0703   -6.3777 C   0  0  0  0  0  0  0  0  0  0  0  0
   11.3461    8.2001   -5.7066 C   0  0  0  0  0  0  0  0  0  0  0  0
   11.3740    9.3760   -6.4281 C   0  0  0  0  0  0  0  0  0  0  0  0
   10.9894    9.4220   -7.7515 C   0  0  0  0  0  0  0  0  0  0  0  0
   10.5572    8.2927   -8.4192 C   0  0  0  0  0  0  0  0  0  0  0  0
   10.1816    8.3453   -9.7152 N   0  0  0  0  0  0  0  0  0  0  0  0
   10.2145    9.2594  -10.2387 H   0  0  0  0  0  0  0  0  0  0  0  0
   11.7546    8.1541   -4.3031 C   0  0  0  0  0  0  0  0  0  0  0  0
   11.7859    6.9252   -3.6803 C   0  0  0  0  0  0  0  0  0  0  0  0
   12.1631    6.8123   -2.3539 C   0  0  0  0  0  0  0  0  0  0  0  0
   12.5152    7.9331   -1.6316 C   0  0  0  0  0  0  0  0  0  0  0  0
   12.4909    9.1771   -2.2371 C   0  0  0  0  0  0  0  0  0  0  0  0
   12.1076    9.2616   -3.5719 C   0  0  0  0  0  0  0  0  0  0  0  0
  1  2  2  0
  2  3  1  0
  3  4  2  0
  4  5  1  0
  5  6  2  0
  6  7  1  0
  7  8  1  0
  7  9  1  0
  6 10  1  0
 10 11  2  0
 11 12  1  0
 12 13  2  0
 13 14  1  0
 14 15  2  0
 15 16  1  0
 16 17  2  0
 17 22  1  0
 22 23  2  0
 23 24  1  0
 24 25  2  0
 25 26  1  0
 26 27  2  0
 27 28  1  0
 28 34  1  0
 34 35  2  0
 35 36  1  0
 36 37  2  0
 37 38  1  0
 38 39  2  0
 28 29  2  0
 29 30  1  0
 30 31  2  0
 31 32  1  0
 32 33  1  0
 17 18  1  0
 18 19  2  0
 19 20  1  0
 20 21  1  0
 13  1  1  0
 19 14  1  0
 11  3  1  0
 21 12  1  0
 32 23  1  0
 31 26  1  0
 39 34  1  0
M  END
>  <minimizedAffinity>  (152) 
-17.40549

$$$$
Mol: 155_20 - SminaDock
     RDKit          3D

 40 46  0  0  0  0  0  0  0  0999 V2000
    2.6519   -1.6987  -13.2865 H   0  0  0  0  0  0  0  0  0  0  0  0
    2.5744   -1.2160  -14.1731 O   0  0  0  0  0  0  0  0  0  0  0  0
    3.7455   -0.6266  -14.6904 C   0  0  0  0  0  0  0  0  0  0  0  0
    4.2463    0.4078  -14.0377 C   0  0  0  0  0  0  0  0  0  0  0  0
    5.4479    1.0491  -14.5347 C   0  0  0  0  0  0  0  0  0  0  0  0
    6.0156    2.1445  -13.8702 C   0  0  0  0  0  0  0  0  0  0  0  0
    7.1699    2.7515  -14.3476 C   0  0  0  0  0  0  0  0  0  0  0  0
    7.7876    2.2932  -15.4869 C   0  0  0  0  0  0  0  0  0  0  0  0
    7.2291    1.2118  -16.1448 C   0  0  0  0  0  0  0  0  0  0  0  0
    6.0708    0.5987  -15.6705 C   0  0  0  0  0  0  0  0  0  0  0  0
    5.5436   -0.5418  -16.4350 C   0  0  0  0  0  0  0  0  0  0  0  0
    4.3293   -1.1901  -15.9056 C   0  0  2  0  0  0  0  0  0  0  0  0
    3.3160   -1.3250  -16.8741 O   0  0  0  0  0  0  0  0  0  0  0  0
    2.5727   -1.8603  -16.4582 H   0  0  0  0  0  0  0  0  0  0  0  0
    9.0201    2.8691  -16.0753 C   0  0  0  0  0  0  0  0  0  0  0  0
    9.6041    4.0136  -15.3685 C   0  0  0  0  0  0  0  0  0  0  0  0
    8.8916    4.4626  -14.1479 C   0  0  0  0  0  0  0  0  0  0  0  0
    9.4461    5.5417  -13.4903 C   0  0  0  0  0  0  0  0  0  0  0  0
    8.8830    6.0562  -12.3459 C   0  0  0  0  0  0  0  0  0  0  0  0
    7.7402    5.4584  -11.8709 C   0  0  0  0  0  0  0  0  0  0  0  0
    7.1386    4.3618  -12.5011 C   0  0  0  0  0  0  0  0  0  0  0  0
    7.7504    3.8930  -13.6431 C   0  0  0  0  0  0  0  0  0  0  0  0
    9.4385    7.1613  -11.6608 N   0  0  0  0  0  0  0  0  0  0  0  0
    9.7706    7.1366  -10.4151 C   0  0  0  0  0  0  0  0  0  0  0  0
   10.2960    8.2158   -9.8095 N   0  0  0  0  0  0  0  0  0  0  0  0
   10.6394    8.1642   -8.4881 C   0  0  0  0  0  0  0  0  0  0  0  0
   11.1794    9.2640   -7.8556 C   0  0  0  0  0  0  0  0  0  0  0  0
   11.5233    9.2062   -6.5256 C   0  0  0  0  0  0  0  0  0  0  0  0
   11.3484    8.0640   -5.7692 C   0  0  0  0  0  0  0  0  0  0  0  0
   10.8093    6.9803   -6.4182 C   0  0  0  0  0  0  0  0  0  0  0  0
   10.4551    7.0111   -7.7531 C   0  0  0  0  0  0  0  0  0  0  0  0
    9.9153    5.9196   -8.3965 C   0  0  0  0  0  0  0  0  0  0  0  0
    9.5906    6.0131   -9.7009 N   0  0  0  0  0  0  0  0  0  0  0  0
    9.1908    5.1816  -10.1487 H   0  0  0  0  0  0  0  0  0  0  0  0
   11.7319    8.0653   -4.3645 C   0  0  0  0  0  0  0  0  0  0  0  0
   11.7498    6.8723   -3.6526 C   0  0  0  0  0  0  0  0  0  0  0  0
   12.1095    6.8465   -2.3231 C   0  0  0  0  0  0  0  0  0  0  0  0
   12.4663    7.9953   -1.6412 C   0  0  0  0  0  0  0  0  0  0  0  0
   12.4491    9.1803   -2.3463 C   0  0  0  0  0  0  0  0  0  0  0  0
   12.0889    9.2049   -3.6773 C   0  0  0  0  0  0  0  0  0  0  0  0
  1  2  1  0
  2  3  1  0
  3  4  2  0
  4  5  1  0
  5  6  2  0
  6  7  1  0
  7  8  2  0
  8  9  1  0
  9 10  2  0
 10 11  1  0
 11 12  1  0
 12 13  1  6
 13 14  1  0
  8 15  1  0
 15 16  1  0
 16 17  1  0
 17 18  2  0
 18 19  1  0
 19 23  1  0
 23 24  2  0
 24 25  1  0
 25 26  2  0
 26 27  1  0
 27 28  2  0
 28 29  1  0
 29 35  1  0
 35 36  2  0
 36 37  1  0
 37 38  2  0
 38 39  1  0
 39 40  2  0
 29 30  2  0
 30 31  1  0
 31 32  2  0
 32 33  1  0
 33 34  1  0
 19 20  2  0
 20 21  1  0
 21 22  2  0
 12  3  1  0
 22 17  1  0
 10  5  1  0
 33 24  1  0
 22  7  1  0
 31 26  1  0
 40 35  1  0
M  END
>  <minimizedAffinity>  (153) 
-17.35665

$$$$
Mol: 198_40 - SminaDock
     RDKit          3D

 44 51  0  0  0  0  0  0  0  0999 V2000
    3.2578   -0.4541  -13.3614 H   0  0  0  0  0  0  0  0  0  0  0  0
    4.0681    0.1042  -13.6642 N   0  0  0  0  0  0  0  0  0  0  0  0
    4.7125   -0.1551  -14.7557 C   0  0  0  0  0  0  0  0  0  0  0  0
    5.7875    0.6419  -15.0893 C   0  0  0  0  0  0  0  0  0  0  0  0
    6.1761    1.7023  -14.2742 C   0  0  0  0  0  0  0  0  0  0  0  0
    7.2560    2.4380  -14.6877 C   0  0  0  0  0  0  0  0  0  0  0  0
    7.9300    2.1448  -15.8599 C   0  0  0  0  0  0  0  0  0  0  0  0
    7.5327    1.0891  -16.6567 C   0  0  0  0  0  0  0  0  0  0  0  0
    6.4541    0.3404  -16.2589 C   0  0  0  0  0  0  0  0  0  0  0  0
    6.0504   -0.7171  -17.0507 C   0  0  0  0  0  0  0  0  0  0  0  0
    4.9646   -1.4640  -16.6434 C   0  0  0  0  0  0  0  0  0  0  0  0
    4.3073   -1.1856  -15.5132 N   0  0  0  0  0  0  0  0  0  0  0  0
    3.4888   -1.7705  -15.2325 H   0  0  0  0  0  0  0  0  0  0  0  0
    8.9982    2.8863  -16.2670 O   0  0  0  0  0  0  0  0  0  0  0  0
    9.6956    3.8093  -15.4848 C   0  0  2  0  0  0  0  0  0  0  0  0
    8.9165    4.2331  -14.3249 C   0  0  0  0  0  0  0  0  0  0  0  0
    9.3006    5.3270  -13.5477 C   0  0  0  0  0  0  0  0  0  0  0  0
    8.6264    5.7217  -12.4209 C   0  0  0  0  0  0  0  0  0  0  0  0
    7.5234    5.0048  -12.0441 C   0  0  0  0  0  0  0  0  0  0  0  0
    7.0730    3.8993  -12.7678 C   0  0  0  0  0  0  0  0  0  0  0  0
    7.8015    3.5488  -13.9056 C   0  0  0  0  0  0  0  0  0  0  0  0
   10.1519    4.9677  -16.3428 C   0  0  0  0  0  0  0  0  0  0  0  0
   11.6429    4.8943  -16.5353 C   0  0  0  0  0  0  0  0  0  0  0  0
   12.3248    5.0209  -15.3264 O   0  0  0  0  0  0  0  0  0  0  0  0
   12.0519    3.9170  -14.5396 C   0  0  0  0  0  0  0  0  0  0  0  0
   10.9382    3.0538  -14.9970 C   0  0  0  0  0  0  0  0  0  0  0  0
    9.0570    6.8203  -11.6862 N   0  0  0  0  0  0  0  0  0  0  0  0
    9.4524    6.8178  -10.4719 C   0  0  0  0  0  0  0  0  0  0  0  0
    9.4929    5.6569   -9.7287 C   0  0  0  0  0  0  0  0  0  0  0  0
    9.9276    5.6617   -8.3990 C   0  0  0  0  0  0  0  0  0  0  0  0
   10.3261    6.8391   -7.8059 C   0  0  0  0  0  0  0  0  0  0  0  0
   10.7650    6.8865   -6.4870 C   0  0  0  0  0  0  0  0  0  0  0  0
   11.1603    8.0711   -5.9079 C   0  0  0  0  0  0  0  0  0  0  0  0
   11.1109    9.2201   -6.6720 C   0  0  0  0  0  0  0  0  0  0  0  0
   10.6746    9.1550   -7.9740 C   0  0  0  0  0  0  0  0  0  0  0  0
   10.2733    7.9883   -8.5808 C   0  0  0  0  0  0  0  0  0  0  0  0
    9.8472    7.9524   -9.8675 N   0  0  0  0  0  0  0  0  0  0  0  0
    9.8180    8.8327  -10.4261 H   0  0  0  0  0  0  0  0  0  0  0  0
   11.6169    8.0918   -4.5206 C   0  0  0  0  0  0  0  0  0  0  0  0
   11.7317    6.9041   -3.8233 C   0  0  0  0  0  0  0  0  0  0  0  0
   12.1569    6.8553   -2.5118 C   0  0  0  0  0  0  0  0  0  0  0  0
   12.4871    8.0158   -1.8432 C   0  0  0  0  0  0  0  0  0  0  0  0
   12.3725    9.2016   -2.5396 C   0  0  0  0  0  0  0  0  0  0  0  0
   11.9470    9.2519   -3.8523 C   0  0  0  0  0  0  0  0  0  0  0  0
  1  2  1  0
  2  3  2  0
  3  4  1  0
  4  5  2  0
  5  6  1  0
  6  7  2  0
  7  8  1  0
  8  9  2  0
  9 10  1  0
 10 11  2  0
 11 12  1  0
 12 13  1  0
  7 14  1  0
 14 15  1  0
 15 16  1  0
 16 17  2  0
 17 18  1  0
 18 27  1  0
 27 28  2  0
 28 29  1  0
 29 30  2  0
 30 31  1  0
 31 32  2  0
 32 33  1  0
 33 39  1  0
 39 40  2  0
 40 41  1  0
 41 42  2  0
 42 43  1  0
 43 44  2  0
 33 34  2  0
 34 35  1  0
 35 36  2  0
 36 37  1  0
 37 38  1  0
 18 19  2  0
 19 20  1  0
 20 21  2  0
 15 22  1  6
 22 23  1  0
 23 24  1  0
 24 25  1  0
 25 26  1  0
 12  3  1  0
 26 15  1  0
  9  4  1  0
 21 16  1  0
 21  6  1  0
 37 28  1  0
 36 31  1  0
 44 39  1  0
M  END
>  <minimizedAffinity>  (154) 
-17.36152

$$$$
Mol: 172_16 - SminaDock
     RDKit          3D

 40 46  0  0  0  0  0  0  0  0999 V2000
    8.8113    0.0466  -16.1822 H   0  0  0  0  0  0  0  0  0  0  0  0
    8.0511   -0.0381  -16.8592 O   0  0  0  0  0  0  0  0  0  0  0  0
    6.7835   -0.2332  -16.3298 C   0  0  0  0  0  0  0  0  0  0  0  0
    6.3247    0.5943  -15.3967 C   0  0  0  0  0  0  0  0  0  0  0  0
    7.0571    1.6651  -14.9116 C   0  0  0  0  0  0  0  0  0  0  0  0
    6.5889    2.5289  -13.9434 C   0  0  0  0  0  0  0  0  0  0  0  0
    5.3256    2.3462  -13.4060 C   0  0  0  0  0  0  0  0  0  0  0  0
    4.5893    1.2650  -13.8977 C   0  0  0  0  0  0  0  0  0  0  0  0
    5.0712    0.4192  -14.8585 C   0  0  0  0  0  0  0  0  0  0  0  0
    4.2677   -0.6915  -15.3378 C   0  0  0  0  0  0  0  0  0  0  0  0
    3.1306   -0.8793  -14.8733 O   0  0  0  0  0  0  0  0  0  0  0  0
    4.7283   -1.5718  -16.3153 O   0  0  0  0  0  0  0  0  0  0  0  0
    5.9995   -1.3560  -16.8296 C   0  0  0  0  0  0  0  0  0  0  0  0
    6.4783   -2.1294  -17.7289 O   0  0  0  0  0  0  0  0  0  0  0  0
    4.8362    3.1415  -12.4832 C   0  0  0  0  0  0  0  0  0  0  0  0
    5.5313    4.3002  -11.9058 C   0  0  0  0  0  0  0  0  0  0  0  0
    6.8747    4.5072  -12.4650 C   0  0  0  0  0  0  0  0  0  0  0  0
    7.5979    5.5887  -11.9651 C   0  0  0  0  0  0  0  0  0  0  0  0
    8.8603    5.7813  -12.4931 C   0  0  0  0  0  0  0  0  0  0  0  0
    9.3829    4.9616  -13.4549 C   0  0  0  0  0  0  0  0  0  0  0  0
    8.6244    3.8848  -13.9317 C   0  0  0  0  0  0  0  0  0  0  0  0
    7.3725    3.6553  -13.4399 C   0  0  0  0  0  0  0  0  0  0  0  0
    9.5977    6.8886  -11.9792 N   0  0  0  0  0  0  0  0  0  0  0  0
    9.8726    6.9216  -10.7299 C   0  0  0  0  0  0  0  0  0  0  0  0
    9.4605    5.9170   -9.9423 N   0  0  0  0  0  0  0  0  0  0  0  0
    9.7134    5.8881   -8.6284 C   0  0  0  0  0  0  0  0  0  0  0  0
   10.4175    6.9061   -8.0288 C   0  0  0  0  0  0  0  0  0  0  0  0
   10.7115    6.9354   -6.6748 C   0  0  0  0  0  0  0  0  0  0  0  0
   11.4196    7.9683   -6.0959 C   0  0  0  0  0  0  0  0  0  0  0  0
   11.8426    9.0021   -6.9106 C   0  0  0  0  0  0  0  0  0  0  0  0
   11.5554    8.9905   -8.2798 C   0  0  0  0  0  0  0  0  0  0  0  0
   10.8478    7.9489   -8.8330 C   0  0  0  0  0  0  0  0  0  0  0  0
   10.5604    7.9150  -10.1410 N   0  0  0  0  0  0  0  0  0  0  0  0
   10.8986    8.7207  -10.7341 H   0  0  0  0  0  0  0  0  0  0  0  0
   11.7131    7.9698   -4.6683 C   0  0  0  0  0  0  0  0  0  0  0  0
   11.6972    6.8099   -3.9250 C   0  0  0  0  0  0  0  0  0  0  0  0
   11.9728    6.7923   -2.5711 C   0  0  0  0  0  0  0  0  0  0  0  0
   12.2780    7.9718   -1.9198 C   0  0  0  0  0  0  0  0  0  0  0  0
   12.2949    9.1381   -2.6623 C   0  0  0  0  0  0  0  0  0  0  0  0
   12.0182    9.1555   -4.0217 C   0  0  0  0  0  0  0  0  0  0  0  0
  1  2  1  0
  2  3  1  0
  3  4  2  0
  4  5  1  0
  5  6  2  0
  6  7  1  0
  7  8  1  0
  8  9  2  0
  9 10  1  0
 10 11  2  0
 10 12  1  0
 12 13  1  0
 13 14  2  0
  7 15  2  0
 15 16  1  0
 16 17  1  0
 17 18  2  0
 18 19  1  0
 19 23  1  0
 23 24  2  0
 24 25  1  0
 25 26  2  0
 26 27  1  0
 27 28  2  0
 28 29  1  0
 29 35  1  0
 35 36  2  0
 36 37  1  0
 37 38  2  0
 38 39  1  0
 39 40  2  0
 29 30  2  0
 30 31  1  0
 31 32  2  0
 32 33  1  0
 33 34  1  0
 19 20  2  0
 20 21  1  0
 21 22  2  0
 13  3  1  0
 22 17  1  0
  9  4  1  0
 33 24  1  0
 22  6  1  0
 32 27  1  0
 40 35  1  0
M  END
>  <minimizedAffinity>  (155) 
-17.44691

$$$$
Mol: 194_20 - SminaDock
     RDKit          3D

 41 48  0  0  0  0  0  0  0  0999 V2000
    4.1229    0.6361  -13.9105 C   0  0  0  0  0  0  0  0  0  0  0  0
    3.3371   -0.3955  -14.3030 N   0  0  0  0  0  0  0  0  0  0  0  0
    3.9709   -1.1677  -15.2183 C   0  0  0  0  0  0  0  0  0  0  0  0
    5.2202   -0.6128  -15.4277 C   0  0  0  0  0  0  0  0  0  0  0  0
    6.2779   -0.9158  -16.1982 N   0  0  0  0  0  0  0  0  0  0  0  0
    6.2141   -1.7524  -16.8082 H   0  0  0  0  0  0  0  0  0  0  0  0
    7.3961   -0.2091  -16.2241 N   0  0  0  0  0  0  0  0  0  0  0  0
    7.5016    0.8870  -15.4362 C   0  0  0  0  0  0  0  0  0  0  0  0
    6.4835    1.2927  -14.6069 C   0  0  0  0  0  0  0  0  0  0  0  0
    5.3203    0.5666  -14.5730 C   0  0  0  0  0  0  0  0  0  0  0  0
    6.9294    2.4999  -13.9069 C   0  0  0  0  0  0  0  0  0  0  0  0
    6.3053    3.2997  -12.9753 C   0  0  0  0  0  0  0  0  0  0  0  0
    6.9471    4.4223  -12.4397 C   0  0  0  0  0  0  0  0  0  0  0  0
    8.2245    4.7687  -12.8235 C   0  0  0  0  0  0  0  0  0  0  0  0
    8.8318    3.9555  -13.7569 C   0  0  0  0  0  0  0  0  0  0  0  0
    8.2000    2.8273  -14.3018 C   0  0  0  0  0  0  0  0  0  0  0  0
    8.6320    1.8182  -15.2959 C   0  0  1  0  0  0  0  0  0  0  0  0
    9.9010    1.1129  -14.8670 C   0  0  0  0  0  0  0  0  0  0  0  0
   10.1960    0.0294  -15.8543 C   0  0  0  0  0  0  0  0  0  0  0  0
    9.8476    0.3984  -17.1507 O   0  0  0  0  0  0  0  0  0  0  0  0
    9.9464    1.7694  -17.3493 C   0  0  0  0  0  0  0  0  0  0  0  0
    8.9183    2.5548  -16.5866 C   0  0  0  0  0  0  0  0  0  0  0  0
    8.8961    5.9048  -12.2919 N   0  0  0  0  0  0  0  0  0  0  0  0
    9.2192    6.0508  -11.0752 C   0  0  0  0  0  0  0  0  0  0  0  0
    8.9275    5.0741  -10.1470 C   0  0  0  0  0  0  0  0  0  0  0  0
    9.2799    5.2247   -8.8002 C   0  0  0  0  0  0  0  0  0  0  0  0
    9.9312    6.3662   -8.3810 C   0  0  0  0  0  0  0  0  0  0  0  0
   10.3054    6.5733   -7.0647 C   0  0  0  0  0  0  0  0  0  0  0  0
   10.9547    7.7189   -6.6662 C   0  0  0  0  0  0  0  0  0  0  0  0
   11.2382    8.6851   -7.6091 C   0  0  0  0  0  0  0  0  0  0  0  0
   10.8583    8.4629   -8.9165 C   0  0  0  0  0  0  0  0  0  0  0  0
   10.2070    7.3218   -9.3356 C   0  0  0  0  0  0  0  0  0  0  0  0
    9.8536    7.1534  -10.6444 N   0  0  0  0  0  0  0  0  0  0  0  0
   10.0859    7.9082  -11.3288 H   0  0  0  0  0  0  0  0  0  0  0  0
   11.3518    7.9371   -5.2826 C   0  0  0  0  0  0  0  0  0  0  0  0
   11.7297    6.8487   -4.4840 C   0  0  0  0  0  0  0  0  0  0  0  0
   12.1162    7.0265   -3.1760 C   0  0  0  0  0  0  0  0  0  0  0  0
   12.1549    8.2671   -2.5795 C   0  0  0  0  0  0  0  0  0  0  0  0
   11.7845    9.3397   -3.3594 C   0  0  0  0  0  0  0  0  0  0  0  0
   11.3885    9.1771   -4.6916 C   0  0  0  0  0  0  0  0  0  0  0  0
   10.9853   10.3748   -5.4983 C   0  0  0  0  0  0  0  0  0  0  0  0
  1  2  2  0
  2  3  1  0
  3  4  2  0
  4  5  1  0
  5  6  1  0
  5  7  1  0
  7  8  2  0
  8  9  1  0
  9 10  2  0
  9 11  1  0
 11 12  2  0
 12 13  1  0
 13 14  2  0
 14 23  1  0
 23 24  2  0
 24 25  1  0
 25 26  2  0
 26 27  1  0
 27 28  2  0
 28 29  1  0
 29 35  1  0
 35 36  2  0
 36 37  1  0
 37 38  2  0
 38 39  1  0
 39 40  2  0
 40 41  1  0
 29 30  2  0
 30 31  1  0
 31 32  2  0
 32 33  1  0
 33 34  1  0
 14 15  1  0
 15 16  2  0
 16 17  1  0
 17 18  1  1
 18 19  1  0
 19 20  1  0
 20 21  1  0
 21 22  1  0
 10  1  1  0
 16 11  1  0
 22 17  1  0
 10  4  1  0
 33 24  1  0
 17  8  1  0
 32 27  1  0
 40 35  1  0
M  END
>  <minimizedAffinity>  (156) 
-17.38720

$$$$
Mol: 163_55 - SminaDock
     RDKit          3D

 42 48  0  0  0  0  0  0  0  0999 V2000
    3.4254   -1.3624  -14.6960 H   0  0  0  0  0  0  0  0  0  0  0  0
    3.5341   -0.9423  -15.5992 O   0  0  0  0  0  0  0  0  0  0  0  0
    4.8195   -0.8471  -16.1120 C   0  0  0  0  0  0  0  0  0  0  0  0
    5.1784   -1.7717  -17.0001 C   0  0  0  0  0  0  0  0  0  0  0  0
    6.3844   -1.9297  -17.6749 O   0  0  0  0  0  0  0  0  0  0  0  0
    7.4183   -1.0103  -17.8527 C   0  0  0  0  0  0  0  0  0  0  0  0
    8.3302   -1.3021  -18.6741 O   0  0  0  0  0  0  0  0  0  0  0  0
    7.5548    0.2580  -17.1848 N   0  0  0  0  0  0  0  0  0  0  0  0
    8.4923    1.0985  -17.6531 O   0  0  0  0  0  0  0  0  0  0  0  0
    9.2969    0.6302  -17.9381 H   0  0  0  0  0  0  0  0  0  0  0  0
    6.8223    0.7444  -16.0847 C   0  0  0  0  0  0  0  0  0  0  0  0
    7.4803    1.8299  -15.4920 C   0  0  0  0  0  0  0  0  0  0  0  0
    6.8767    2.4169  -14.3934 C   0  0  0  0  0  0  0  0  0  0  0  0
    5.6784    1.9660  -13.8895 C   0  0  0  0  0  0  0  0  0  0  0  0
    5.0779    0.8933  -14.5156 C   0  0  0  0  0  0  0  0  0  0  0  0
    5.6220    0.2690  -15.6048 C   0  0  0  0  0  0  0  0  0  0  0  0
    4.9619    2.5167  -12.7352 C   0  0  0  0  0  0  0  0  0  0  0  0
    5.6075    3.6654  -12.0799 C   0  0  0  0  0  0  0  0  0  0  0  0
    6.8798    4.1087  -12.6490 C   0  0  0  0  0  0  0  0  0  0  0  0
    7.4695    5.2002  -11.9976 C   0  0  0  0  0  0  0  0  0  0  0  0
    8.6757    5.6997  -12.4561 C   0  0  0  0  0  0  0  0  0  0  0  0
    9.3160    5.1537  -13.5376 C   0  0  0  0  0  0  0  0  0  0  0  0
    8.7201    4.0635  -14.1827 C   0  0  0  0  0  0  0  0  0  0  0  0
    7.5190    3.5562  -13.7365 C   0  0  0  0  0  0  0  0  0  0  0  0
    9.3122    6.8076  -11.8246 N   0  0  0  0  0  0  0  0  0  0  0  0
    9.6132    6.7720  -10.5780 C   0  0  0  0  0  0  0  0  0  0  0  0
   10.2143    7.8708  -10.0698 N   0  0  0  0  0  0  0  0  0  0  0  0
   10.5673    7.9258   -8.7749 C   0  0  0  0  0  0  0  0  0  0  0  0
   11.1834    9.0449   -8.2414 C   0  0  0  0  0  0  0  0  0  0  0  0
   11.5345    9.0793   -6.9183 C   0  0  0  0  0  0  0  0  0  0  0  0
   11.2927    8.0174   -6.0763 C   0  0  0  0  0  0  0  0  0  0  0  0
   10.6802    6.9022   -6.6024 C   0  0  0  0  0  0  0  0  0  0  0  0
   10.3155    6.8514   -7.9511 C   0  0  0  0  0  0  0  0  0  0  0  0
    9.7030    5.7546   -8.5079 C   0  0  0  0  0  0  0  0  0  0  0  0
    9.3534    5.7170   -9.8185 N   0  0  0  0  0  0  0  0  0  0  0  0
    8.8878    4.8767  -10.2340 H   0  0  0  0  0  0  0  0  0  0  0  0
   11.6599    8.0393   -4.6681 C   0  0  0  0  0  0  0  0  0  0  0  0
   12.0332    9.2155   -4.0519 C   0  0  0  0  0  0  0  0  0  0  0  0
   12.3833    9.2225   -2.7007 C   0  0  0  0  0  0  0  0  0  0  0  0
   12.3683    8.0630   -1.9401 C   0  0  0  0  0  0  0  0  0  0  0  0
   11.9950    6.8883   -2.5574 C   0  0  0  0  0  0  0  0  0  0  0  0
   11.6501    6.8845   -3.8910 C   0  0  0  0  0  0  0  0  0  0  0  0
  1  2  1  0
  2  3  1  0
  3  4  2  0
  4  5  1  0
  5  6  1  0
  6  7  2  0
  6  8  1  0
  8  9  1  0
  9 10  1  0
  8 11  1  0
 11 12  2  0
 12 13  1  0
 13 14  2  0
 14 15  1  0
 15 16  2  0
 14 17  1  0
 17 18  1  0
 18 19  1  0
 19 20  2  0
 20 21  1  0
 21 25  1  0
 25 26  2  0
 26 27  1  0
 27 28  2  0
 28 29  1  0
 29 30  2  0
 30 31  1  0
 31 37  1  0
 37 38  2  0
 38 39  1  0
 39 40  2  0
 40 41  1  0
 41 42  2  0
 31 32  2  0
 32 33  1  0
 33 34  2  0
 34 35  1  0
 35 36  1  0
 21 22  2  0
 22 23  1  0
 23 24  2  0
 16  3  1  0
 24 19  1  0
 16 11  1  0
 35 26  1  0
 24 13  1  0
 33 28  1  0
 42 37  1  0
M  END
>  <minimizedAffinity>  (157) 
-17.36555

$$$$
Mol: 160_17 - SminaDock
     RDKit          3D

 40 46  0  0  0  0  0  0  0  0999 V2000
    8.7073    5.8746  -12.4240 C   0  0  0  0  0  0  0  0  0  0  0  0
    9.3572    5.1035  -13.3335 C   0  0  0  0  0  0  0  0  0  0  0  0
    8.7807    3.9979  -13.9308 C   0  0  0  0  0  0  0  0  0  0  0  0
    7.4780    3.6897  -13.5622 C   0  0  0  0  0  0  0  0  0  0  0  0
    6.8042    4.4623  -12.6452 C   0  0  0  0  0  0  0  0  0  0  0  0
    7.4326    5.5637  -12.0730 C   0  0  0  0  0  0  0  0  0  0  0  0
    5.3858    4.1891  -12.3416 C   0  0  0  0  0  0  0  0  0  0  0  0
    4.9868    2.7822  -12.5000 C   0  0  0  0  0  0  0  0  0  0  0  0
    5.6062    2.0872  -13.6225 C   0  0  0  0  0  0  0  0  0  0  0  0
    5.0164    0.9798  -14.2175 C   0  0  0  0  0  0  0  0  0  0  0  0
    5.6159    0.2567  -15.2168 C   0  0  0  0  0  0  0  0  0  0  0  0
    6.8605    0.6449  -15.6519 C   0  0  0  0  0  0  0  0  0  0  0  0
    7.5010    1.7610  -15.0834 C   0  0  0  0  0  0  0  0  0  0  0  0
    6.8499    2.4586  -14.0765 C   0  0  0  0  0  0  0  0  0  0  0  0
    7.6593    0.0369  -16.6721 N   0  0  0  0  0  0  0  0  0  0  0  0
    9.0559    0.3469  -16.6649 C   0  0  0  0  0  0  0  0  0  0  0  0
    7.1832   -0.8502  -17.6932 C   0  0  0  0  0  0  0  0  0  0  0  0
    8.0684   -1.2710  -18.4740 O   0  0  0  0  0  0  0  0  0  0  0  0
    5.8016   -1.2975  -17.9042 C   0  0  0  0  0  0  0  0  0  0  0  0
    5.5812   -1.8692  -19.0065 O   0  0  0  0  0  0  0  0  0  0  0  0
    4.7662   -1.1365  -17.0022 O   0  0  0  0  0  0  0  0  0  0  0  0
    4.7189   -0.8552  -15.6248 C   0  0  0  0  0  0  0  0  0  0  0  0
   11.2972    8.0468   -6.0246 C   0  0  0  0  0  0  0  0  0  0  0  0
   11.5479    9.1791   -6.8083 C   0  0  0  0  0  0  0  0  0  0  0  0
   11.1824    9.1518   -8.1368 C   0  0  0  0  0  0  0  0  0  0  0  0
   10.5795    8.0418   -8.7067 C   0  0  0  0  0  0  0  0  0  0  0  0
   10.2298    8.0393  -10.0137 N   0  0  0  0  0  0  0  0  0  0  0  0
    9.6472    6.9710  -10.5715 C   0  0  0  0  0  0  0  0  0  0  0  0
    9.3366    7.0242  -11.8150 N   0  0  0  0  0  0  0  0  0  0  0  0
    9.3977    5.8774   -9.8421 N   0  0  0  0  0  0  0  0  0  0  0  0
    8.9447    5.0367  -10.2607 H   0  0  0  0  0  0  0  0  0  0  0  0
    9.7219    5.8117   -8.5271 C   0  0  0  0  0  0  0  0  0  0  0  0
   10.3254    6.9176   -7.9485 C   0  0  0  0  0  0  0  0  0  0  0  0
   10.6949    6.9582   -6.6253 C   0  0  0  0  0  0  0  0  0  0  0  0
   12.3850    8.0141   -1.9113 C   0  0  0  0  0  0  0  0  0  0  0  0
   12.0196    6.8365   -2.5439 C   0  0  0  0  0  0  0  0  0  0  0  0
   11.6697    6.8744   -3.8849 C   0  0  0  0  0  0  0  0  0  0  0  0
   11.6726    8.0396   -4.6087 C   0  0  0  0  0  0  0  0  0  0  0  0
   12.0363    9.2052   -3.9747 C   0  0  0  0  0  0  0  0  0  0  0  0
   12.3849    9.1824   -2.6482 C   0  0  0  0  0  0  0  0  0  0  0  0
 35 36  2  0
 36 37  1  0
 37 38  2  0
 38 23  1  0
 23 24  1  0
 24 25  2  0
 25 26  1  0
 26 27  2  0
 27 28  1  0
 28 29  2  0
 29  1  1  0
  1  2  2  0
  2  3  1  0
  3  4  2  0
  4  5  1  0
  5  6  2  0
  5  7  1  0
  7  8  1  0
  8  9  1  0
  9 10  2  0
 10 11  1  0
 11 12  2  0
 12 13  1  0
 13 14  2  0
 12 15  1  0
 15 16  1  0
 15 17  1  0
 17 18  2  0
 17 19  1  0
 19 20  2  0
 19 21  1  0
 21 22  1  0
 28 30  1  0
 30 31  1  0
 30 32  1  0
 32 33  2  0
 33 34  1  0
 38 39  1  0
 39 40  2  0
 40 35  1  0
 34 23  2  0
 33 26  1  0
  6  1  1  0
 14  9  1  0
 14  4  1  0
 22 11  1  0
M  END
>  <minimizedAffinity>  (158) 
-17.35923

$$$$
Mol: 149_34 - SminaDock
     RDKit          3D

 37 43  0  0  0  0  0  0  0  0999 V2000
    8.7949    5.8948  -12.2824 C   0  0  0  0  0  0  0  0  0  0  0  0
    9.5943    5.0924  -13.0421 C   0  0  0  0  0  0  0  0  0  0  0  0
    9.0769    3.9161  -13.6114 C   0  0  0  0  0  0  0  0  0  0  0  0
    7.7661    3.5910  -13.3923 C   0  0  0  0  0  0  0  0  0  0  0  0
    6.9470    4.4088  -12.6180 C   0  0  0  0  0  0  0  0  0  0  0  0
    7.4807    5.5836  -12.0541 C   0  0  0  0  0  0  0  0  0  0  0  0
    5.5293    4.1125  -12.3929 C   0  0  0  0  0  0  0  0  0  0  0  0
    5.0564    2.8186  -12.8245 C   0  0  0  0  0  0  0  0  0  0  0  0
    5.9108    2.0192  -13.6722 C   0  0  0  0  0  0  0  0  0  0  0  0
    7.2193    2.3450  -13.9437 C   0  0  0  0  0  0  0  0  0  0  0  0
    8.0019    1.5297  -14.7436 C   0  0  0  0  0  0  0  0  0  0  0  0
    9.1897    1.7252  -15.0529 O   0  0  0  0  0  0  0  0  0  0  0  0
    7.4376    0.4122  -15.2440 N   0  0  0  0  0  0  0  0  0  0  0  0
    6.1608    0.0721  -14.9938 C   0  0  0  0  0  0  0  0  0  0  0  0
    5.6186   -1.1002  -15.5340 C   0  0  0  0  0  0  0  0  0  0  0  0
    4.3221   -1.4742  -15.2946 C   0  0  0  0  0  0  0  0  0  0  0  0
    3.5298   -0.6551  -14.4879 C   0  0  0  0  0  0  0  0  0  0  0  0
    4.0352    0.5040  -13.9424 C   0  0  0  0  0  0  0  0  0  0  0  0
    5.3459    0.8356  -14.2143 C   0  0  0  0  0  0  0  0  0  0  0  0
   11.3579    8.1868   -5.8850 C   0  0  0  0  0  0  0  0  0  0  0  0
   11.5484    9.3051   -6.6662 C   0  0  0  0  0  0  0  0  0  0  0  0
   11.1909    9.3147   -7.9948 C   0  0  0  0  0  0  0  0  0  0  0  0
   10.6360    8.2246   -8.5931 C   0  0  0  0  0  0  0  0  0  0  0  0
   10.2702    8.1946   -9.8999 N   0  0  0  0  0  0  0  0  0  0  0  0
    9.7229    7.0957  -10.4586 C   0  0  0  0  0  0  0  0  0  0  0  0
    9.3783    7.0920  -11.7216 N   0  0  0  0  0  0  0  0  0  0  0  0
    9.5178    5.9824   -9.7375 N   0  0  0  0  0  0  0  0  0  0  0  0
    9.0875    5.1348  -10.1982 H   0  0  0  0  0  0  0  0  0  0  0  0
    9.8760    6.0001   -8.4422 C   0  0  0  0  0  0  0  0  0  0  0  0
   10.4365    7.0935   -7.8277 C   0  0  0  0  0  0  0  0  0  0  0  0
   10.7922    7.0752   -6.4943 C   0  0  0  0  0  0  0  0  0  0  0  0
   12.3952    7.9384   -1.7855 C   0  0  0  0  0  0  0  0  0  0  0  0
   12.3471    9.1563   -2.4018 C   0  0  0  0  0  0  0  0  0  0  0  0
   12.0110    9.2535   -3.7355 C   0  0  0  0  0  0  0  0  0  0  0  0
   11.7155    8.1179   -4.4767 C   0  0  0  0  0  0  0  0  0  0  0  0
   11.7726    6.9019   -3.8265 C   0  0  0  0  0  0  0  0  0  0  0  0
   12.1047    6.7827   -2.5003 C   0  0  0  0  0  0  0  0  0  0  0  0
 32 33  2  0
 33 34  1  0
 34 35  2  0
 35 20  1  0
 20 21  1  0
 21 22  2  0
 22 23  1  0
 23 24  2  0
 24 25  1  0
 25 26  2  0
 26  1  1  0
  1  2  2  0
  2  3  1  0
  3  4  2  0
  4  5  1  0
  5  6  2  0
  5  7  1  0
  7  8  1  0
  8  9  1  0
  9 10  2  0
 10 11  1  0
 11 12  2  0
 11 13  1  0
 13 14  1  0
 14 15  2  0
 15 16  1  0
 16 17  2  0
 17 18  1  0
 18 19  2  0
 25 27  1  0
 27 28  1  0
 27 29  1  0
 29 30  2  0
 30 31  1  0
 35 36  1  0
 36 37  2  0
 37 32  1  0
 31 20  2  0
 30 23  1  0
  6  1  1  0
 19  9  1  0
 10  4  1  0
 19 14  1  0
M  CHG  1  13  -1
M  END
>  <minimizedAffinity>  (159) 
-17.35465

$$$$
Mol: 139_9 - SminaDock
     RDKit          3D

 39 45  0  0  0  0  0  0  0  0999 V2000
    3.1487   -2.2308  -15.0207 H   0  0  0  0  0  0  0  0  0  0  0  0
    3.4550   -1.2465  -15.0168 O   0  0  0  0  0  0  0  0  0  0  0  0
    4.6802   -0.8624  -15.5421 C   0  0  0  0  0  0  0  0  0  0  0  0
    5.1795   -1.5290  -16.4997 N   0  0  0  0  0  0  0  0  0  0  0  0
    6.4365   -1.2550  -17.1467 C   0  0  0  0  0  0  0  0  0  0  0  0
    7.1200   -0.1080  -16.5982 N   0  0  0  0  0  0  0  0  0  0  0  0
    8.3962    0.2588  -17.1779 C   0  0  0  0  0  0  0  0  0  0  0  0
    6.6043    0.6659  -15.5315 C   0  0  0  0  0  0  0  0  0  0  0  0
    7.2895    1.7606  -15.0333 C   0  0  0  0  0  0  0  0  0  0  0  0
    6.7545    2.4812  -14.0025 C   0  0  0  0  0  0  0  0  0  0  0  0
    5.5420    2.1563  -13.4266 C   0  0  0  0  0  0  0  0  0  0  0  0
    4.8608    1.0412  -13.9490 C   0  0  0  0  0  0  0  0  0  0  0  0
    5.3876    0.3096  -14.9869 C   0  0  0  0  0  0  0  0  0  0  0  0
    4.9938    2.8761  -12.2640 C   0  0  0  0  0  0  0  0  0  0  0  0
    5.4837    4.2386  -12.0831 C   0  0  0  0  0  0  0  0  0  0  0  0
    6.8551    4.4760  -12.5566 C   0  0  0  0  0  0  0  0  0  0  0  0
    7.5218    5.5978  -12.0261 C   0  0  0  0  0  0  0  0  0  0  0  0
    8.7680    5.8769  -12.5232 C   0  0  0  0  0  0  0  0  0  0  0  0
    9.3113    5.0844  -13.4884 C   0  0  0  0  0  0  0  0  0  0  0  0
    8.6644    3.9740  -14.0191 C   0  0  0  0  0  0  0  0  0  0  0  0
    7.4128    3.6796  -13.5295 C   0  0  0  0  0  0  0  0  0  0  0  0
    9.5064    7.0132  -12.0321 N   0  0  0  0  0  0  0  0  0  0  0  0
    9.7942    7.0282  -10.7768 C   0  0  0  0  0  0  0  0  0  0  0  0
   10.4858    8.0511  -10.2132 N   0  0  0  0  0  0  0  0  0  0  0  0
   10.7693    8.0331   -8.8951 C   0  0  0  0  0  0  0  0  0  0  0  0
   11.4719    9.0640   -8.3021 C   0  0  0  0  0  0  0  0  0  0  0  0
   11.7563    9.0311   -6.9439 C   0  0  0  0  0  0  0  0  0  0  0  0
   11.3524    7.9753   -6.1336 C   0  0  0  0  0  0  0  0  0  0  0  0
   10.6524    6.9553   -6.7411 C   0  0  0  0  0  0  0  0  0  0  0  0
   10.3669    6.9868   -8.1010 C   0  0  0  0  0  0  0  0  0  0  0  0
    9.6744    5.9599   -8.6586 C   0  0  0  0  0  0  0  0  0  0  0  0
    9.4139    6.0187   -9.9752 N   0  0  0  0  0  0  0  0  0  0  0  0
    8.8813    5.2258  -10.3949 H   0  0  0  0  0  0  0  0  0  0  0  0
   11.6584    7.9497   -4.6987 C   0  0  0  0  0  0  0  0  0  0  0  0
   11.6275    6.7867   -3.9649 C   0  0  0  0  0  0  0  0  0  0  0  0
   11.9271    6.8334   -2.6239 C   0  0  0  0  0  0  0  0  0  0  0  0
   12.2557    8.0323   -2.0168 C   0  0  0  0  0  0  0  0  0  0  0  0
   12.2926    9.2132   -2.7375 C   0  0  0  0  0  0  0  0  0  0  0  0
   11.9848    9.1349   -4.0919 C   0  0  0  0  0  0  0  0  0  0  0  0
  1  2  1  0
  2  3  1  0
  3  4  2  0
  4  5  1  0
  5  6  1  0
  6  7  1  0
  6  8  1  0
  8  9  2  0
  9 10  1  0
 10 11  2  0
 11 12  1  0
 12 13  2  0
 11 14  1  0
 14 15  1  0
 15 16  1  0
 16 17  2  0
 17 18  1  0
 18 22  1  0
 22 23  2  0
 23 24  1  0
 24 25  2  0
 25 26  1  0
 26 27  2  0
 27 28  1  0
 28 34  1  0
 34 35  2  0
 35 36  1  0
 36 37  2  0
 37 38  1  0
 38 39  2  0
 28 29  2  0
 29 30  1  0
 30 31  2  0
 31 32  1  0
 32 33  1  0
 18 19  2  0
 19 20  1  0
 20 21  2  0
 13  3  1  0
 21 16  1  0
 13  8  1  0
 32 23  1  0
 21 10  1  0
 30 25  1  0
 39 34  1  0
M  END
>  <minimizedAffinity>  (160) 
-17.35006

$$$$
Mol: 160_33 - SminaDock
     RDKit          3D

 39 45  0  0  0  0  0  0  0  0999 V2000
    8.7054    5.6108  -12.2794 C   0  0  0  0  0  0  0  0  0  0  0  0
    9.4631    4.8192  -13.1103 C   0  0  0  0  0  0  0  0  0  0  0  0
    8.9366    3.6587  -13.7026 C   0  0  0  0  0  0  0  0  0  0  0  0
    7.6229    3.2941  -13.4498 C   0  0  0  0  0  0  0  0  0  0  0  0
    6.8507    4.0622  -12.6298 C   0  0  0  0  0  0  0  0  0  0  0  0
    7.4131    5.2228  -12.0508 C   0  0  0  0  0  0  0  0  0  0  0  0
    5.4574    3.7198  -12.3479 C   0  0  0  0  0  0  0  0  0  0  0  0
    4.9147    2.4793  -12.9057 C   0  0  0  0  0  0  0  0  0  0  0  0
    5.7767    1.6955  -13.7993 C   0  0  0  0  0  0  0  0  0  0  0  0
    5.2121    0.5614  -14.3547 C   0  0  0  0  0  0  0  0  0  0  0  0
    6.0263   -0.1889  -15.1956 C   0  0  0  0  0  0  0  0  0  0  0  0
    7.3181    0.1911  -15.4484 C   0  0  0  0  0  0  0  0  0  0  0  0
    8.0536   -0.4782  -16.2011 O   0  0  0  0  0  0  0  0  0  0  0  0
    7.8296    1.3055  -14.8852 N   0  0  0  0  0  0  0  0  0  0  0  0
    8.7913    1.6150  -15.0558 H   0  0  0  0  0  0  0  0  0  0  0  0
    7.0883    2.0913  -14.0499 C   0  0  0  0  0  0  0  0  0  0  0  0
    5.2242   -1.3189  -15.6622 C   0  0  0  0  0  0  0  0  0  0  0  0
    5.5755   -2.2609  -16.4529 O   0  0  0  0  0  0  0  0  0  0  0  0
    3.9319   -1.2271  -15.0891 N   0  0  0  0  0  0  0  0  0  0  0  0
    3.1489   -1.8941  -15.2528 H   0  0  0  0  0  0  0  0  0  0  0  0
    3.8679   -0.0737  -14.2506 C   0  0  0  0  0  0  0  0  0  0  0  0
   11.2097    8.0179   -5.9801 C   0  0  0  0  0  0  0  0  0  0  0  0
   11.3162    9.1698   -6.7373 C   0  0  0  0  0  0  0  0  0  0  0  0
   10.9198    9.1254   -8.0678 C   0  0  0  0  0  0  0  0  0  0  0  0
   10.4301    7.9712   -8.6364 C   0  0  0  0  0  0  0  0  0  0  0  0
   10.3224    6.8143   -7.8781 C   0  0  0  0  0  0  0  0  0  0  0  0
    9.8330    5.6544   -8.4360 C   0  0  0  0  0  0  0  0  0  0  0  0
    9.4664    5.6787   -9.7269 N   0  0  0  0  0  0  0  0  0  0  0  0
    9.5807    6.8135  -10.4410 C   0  0  0  0  0  0  0  0  0  0  0  0
    9.2206    6.7957  -11.6639 N   0  0  0  0  0  0  0  0  0  0  0  0
   10.0558    7.9688   -9.9282 N   0  0  0  0  0  0  0  0  0  0  0  0
   10.1335    8.8379  -10.5110 H   0  0  0  0  0  0  0  0  0  0  0  0
   10.7189    6.8712   -6.5596 C   0  0  0  0  0  0  0  0  0  0  0  0
   12.3932    8.0735   -1.8978 C   0  0  0  0  0  0  0  0  0  0  0  0
   12.0345    6.8915   -2.5427 C   0  0  0  0  0  0  0  0  0  0  0  0
   11.6579    6.8941   -3.8579 C   0  0  0  0  0  0  0  0  0  0  0  0
   11.6263    8.0617   -4.5674 C   0  0  0  0  0  0  0  0  0  0  0  0
   11.9735    9.2482   -3.9651 C   0  0  0  0  0  0  0  0  0  0  0  0
   12.3513    9.2382   -2.6413 C   0  0  0  0  0  0  0  0  0  0  0  0
 34 35  2  0
 35 36  1  0
 36 37  2  0
 37 22  1  0
 22 23  2  0
 23 24  1  0
 24 25  2  0
 25 26  1  0
 26 27  1  0
 27 28  2  0
 28 29  1  0
 29 30  2  0
 30  1  1  0
  1  2  2  0
  2  3  1  0
  3  4  2  0
  4  5  1  0
  5  6  2  0
  5  7  1  0
  7  8  1  0
  8  9  1  0
  9 10  1  0
 10 11  2  0
 11 12  1  0
 12 13  2  0
 12 14  1  0
 14 15  1  0
 14 16  1  0
 11 17  1  0
 17 18  2  0
 17 19  1  0
 19 20  1  0
 19 21  1  0
 29 31  1  0
 31 32  1  0
 26 33  2  0
 37 38  1  0
 38 39  2  0
 39 34  1  0
 33 22  1  0
 31 25  1  0
  6  1  1  0
 16  9  2  0
 16  4  1  0
 21 10  1  0
M  END
>  <minimizedAffinity>  (161) 
-17.35122

$$$$
Mol: 93_59 - SminaDock
     RDKit          3D

 49 55  0  0  0  0  0  0  0  0999 V2000
    7.4539    3.7635  -13.4144 C   0  0  0  0  0  0  0  0  0  0  0  0
    6.7960    4.8518  -13.0253 N   0  0  0  0  0  0  0  0  0  0  0  0
    7.4254    5.9172  -12.4486 C   0  0  0  0  0  0  0  0  0  0  0  0
    6.7199    7.0778  -12.0341 N   0  0  0  0  0  0  0  0  0  0  0  0
    6.0022    6.9308  -11.2716 H   0  0  0  0  0  0  0  0  0  0  0  0
    6.8712    8.0303  -12.4315 H   0  0  0  0  0  0  0  0  0  0  0  0
    8.7852    5.8805  -12.2565 C   0  0  0  0  0  0  0  0  0  0  0  0
    9.5101    4.7710  -12.6449 C   0  0  0  0  0  0  0  0  0  0  0  0
    8.8054    3.7118  -13.2302 C   0  0  0  0  0  0  0  0  0  0  0  0
    8.1481   -4.0823  -20.3176 H   0  0  0  0  0  0  0  0  0  0  0  0
    7.6171   -4.1467  -19.4976 O   0  0  0  0  0  0  0  0  0  0  0  0
    7.4959   -2.9168  -18.8857 N   0  0  0  0  0  0  0  0  0  0  0  0
    8.3575   -2.3515  -18.9114 H   0  0  0  0  0  0  0  0  0  0  0  0
    6.2837   -2.5094  -18.3087 C   0  0  0  0  0  0  0  0  0  0  0  0
    5.3321   -3.3808  -18.4192 O   0  0  0  0  0  0  0  0  0  0  0  0
    6.0359   -1.2936  -17.6580 N   0  0  0  0  0  0  0  0  0  0  0  0
    7.1003   -0.3914  -17.5026 C   0  0  0  0  0  0  0  0  0  0  0  0
    8.2554   -0.8148  -17.4812 O   0  0  0  0  0  0  0  0  0  0  0  0
    6.8991    1.1045  -17.3526 C   0  0  0  0  0  0  0  0  0  0  0  0
    6.3793    1.2540  -15.9605 C   0  0  0  0  0  0  0  0  0  0  0  0
    7.0272    2.3036  -15.3637 C   0  0  0  0  0  0  0  0  0  0  0  0
    6.7514    2.6417  -14.0274 C   0  0  0  0  0  0  0  0  0  0  0  0
    5.8237    1.8736  -13.3926 C   0  0  0  0  0  0  0  0  0  0  0  0
    5.1772    0.8076  -14.0269 C   0  0  0  0  0  0  0  0  0  0  0  0
    5.4502    0.4765  -15.3461 C   0  0  0  0  0  0  0  0  0  0  0  0
    4.6321   -0.6635  -15.7604 C   0  0  2  0  0  0  0  0  0  0  0  0
    4.6761   -1.0649  -17.1783 C   0  0  0  0  0  0  0  0  0  0  0  0
    3.2588   -0.7964  -15.0973 C   0  0  0  0  0  0  0  0  0  0  0  0
    4.3241   -1.6999  -14.8010 N   0  0  2  0  0  0  0  0  0  0  0  0
    4.7835   -1.6986  -13.8652 H   0  0  0  0  0  0  0  0  0  0  0  0
    4.1889   -2.6725  -15.1684 H   0  0  0  0  0  0  0  0  0  0  0  0
    9.4169    6.9965  -11.6563 N   0  0  0  0  0  0  0  0  0  0  0  0
    9.7104    6.9366  -10.4100 C   0  0  0  0  0  0  0  0  0  0  0  0
    9.4269    5.8240   -9.6555 C   0  0  0  0  0  0  0  0  0  0  0  0
    9.7612    5.8061   -8.3190 C   0  0  0  0  0  0  0  0  0  0  0  0
   10.3845    6.9017   -7.7174 C   0  0  0  0  0  0  0  0  0  0  0  0
   10.7209    6.8874   -6.3797 C   0  0  0  0  0  0  0  0  0  0  0  0
   11.3343    7.9730   -5.7999 C   0  0  0  0  0  0  0  0  0  0  0  0
   11.5910    9.0566   -6.6098 C   0  0  0  0  0  0  0  0  0  0  0  0
   11.2600    9.0823   -7.9460 C   0  0  0  0  0  0  0  0  0  0  0  0
   10.6377    7.9818   -8.5358 C   0  0  0  0  0  0  0  0  0  0  0  0
   10.3146    8.0113   -9.8476 N   0  0  0  0  0  0  0  0  0  0  0  0
   10.5148    8.8308  -10.4362 H   0  0  0  0  0  0  0  0  0  0  0  0
   11.7131    8.0183   -4.3961 C   0  0  0  0  0  0  0  0  0  0  0  0
   11.7659    6.8577   -3.6436 C   0  0  0  0  0  0  0  0  0  0  0  0
   12.1277    6.8845   -2.2952 C   0  0  0  0  0  0  0  0  0  0  0  0
   12.4426    8.0830   -1.6817 C   0  0  0  0  0  0  0  0  0  0  0  0
   12.3909    9.2420   -2.4295 C   0  0  0  0  0  0  0  0  0  0  0  0
   12.0303    9.2060   -3.7687 C   0  0  0  0  0  0  0  0  0  0  0  0
 10 11  1  0
 11 12  1  0
 12 13  1  0
 12 14  1  0
 14 15  2  0
 14 16  1  0
 16 17  1  0
 17 18  2  0
 17 19  1  0
 19 20  1  0
 20 21  2  0
 21 22  1  0
 22  1  1  0
  1  2  2  0
  2  3  1  0
  3  4  1  0
  4  5  1  0
  4  6  1  0
  3  7  2  0
  7 32  1  0
 32 33  2  0
 33 34  1  0
 34 35  2  0
 35 36  1  0
 36 37  2  0
 37 38  1  0
 38 44  1  0
 44 45  2  0
 45 46  1  0
 46 47  2  0
 47 48  1  0
 48 49  2  0
 38 39  2  0
 39 40  1  0
 40 41  2  0
 41 42  1  0
 42 43  1  0
  7  8  1  0
  8  9  2  0
 22 23  2  0
 23 24  1  0
 24 25  2  0
 25 26  1  0
 26 27  1  6
 26 28  1  0
 28 29  1  0
 29 30  1  1
 29 31  1  0
 27 16  1  0
 25 20  1  0
 29 26  1  0
  9  1  1  0
 42 33  1  0
 41 36  1  0
 49 44  1  0
M  CHG  1  29   1
M  END
>  <minimizedAffinity>  (162) 
-17.37558

$$$$
Mol: 194_41 - SminaDock
     RDKit          3D

 43 50  0  0  0  0  0  0  0  0999 V2000
   10.8056    1.0056  -18.6666 H   0  0  0  0  0  0  0  0  0  0  0  0
   10.2395    1.7571  -18.2420 N   0  0  0  0  0  0  0  0  0  0  0  0
   10.2009    2.0235  -16.9883 C   0  0  0  0  0  0  0  0  0  0  0  0
   10.8832    1.3901  -15.9507 O   0  0  0  0  0  0  0  0  0  0  0  0
   10.4015    1.8878  -14.6943 C   0  0  0  0  0  0  0  0  0  0  0  0
    9.0659    2.4630  -15.1194 C   0  0  1  0  0  0  0  0  0  0  0  0
    8.0385    1.4478  -15.3053 C   0  0  0  0  0  0  0  0  0  0  0  0
    8.0583    0.3461  -16.0897 N   0  0  0  0  0  0  0  0  0  0  0  0
    6.9918   -0.4622  -16.1098 C   0  0  0  0  0  0  0  0  0  0  0  0
    5.8835   -0.1963  -15.3536 C   0  0  0  0  0  0  0  0  0  0  0  0
    4.8157   -1.0649  -15.4153 C   0  0  0  0  0  0  0  0  0  0  0  0
    3.6776   -0.8285  -14.6643 C   0  0  0  0  0  0  0  0  0  0  0  0
    3.6363    0.2946  -13.8539 C   0  0  0  0  0  0  0  0  0  0  0  0
    4.6993    1.1710  -13.7843 C   0  0  0  0  0  0  0  0  0  0  0  0
    5.8233    0.9348  -14.5278 C   0  0  0  0  0  0  0  0  0  0  0  0
    6.9452    1.7681  -14.5185 C   0  0  0  0  0  0  0  0  0  0  0  0
    7.2500    3.0088  -13.8036 C   0  0  0  0  0  0  0  0  0  0  0  0
    6.5176    3.7488  -12.9073 C   0  0  0  0  0  0  0  0  0  0  0  0
    7.0921    4.9197  -12.3795 C   0  0  0  0  0  0  0  0  0  0  0  0
    8.3340    5.3488  -12.7162 C   0  0  0  0  0  0  0  0  0  0  0  0
    9.0408    4.5948  -13.6093 C   0  0  0  0  0  0  0  0  0  0  0  0
    8.5233    3.4167  -14.1713 C   0  0  0  0  0  0  0  0  0  0  0  0
    9.4242    3.0558  -16.3974 N   0  0  2  0  0  0  0  0  0  0  0  0
    8.6011    3.3316  -16.9419 H   0  0  0  0  0  0  0  0  0  0  0  0
   10.0287    3.8861  -16.2464 H   0  0  0  0  0  0  0  0  0  0  0  0
    8.9500    6.5169  -12.2111 N   0  0  0  0  0  0  0  0  0  0  0  0
    9.3283    6.5498  -10.9778 C   0  0  0  0  0  0  0  0  0  0  0  0
    9.1373    5.4603  -10.1538 C   0  0  0  0  0  0  0  0  0  0  0  0
    9.5430    5.4834   -8.8162 C   0  0  0  0  0  0  0  0  0  0  0  0
   10.1467    6.6211   -8.3125 C   0  0  0  0  0  0  0  0  0  0  0  0
   10.5626    6.6802   -6.9891 C   0  0  0  0  0  0  0  0  0  0  0  0
   11.1651    7.7978   -6.4629 C   0  0  0  0  0  0  0  0  0  0  0  0
   11.3434    8.8745   -7.3123 C   0  0  0  0  0  0  0  0  0  0  0  0
   10.9306    8.8200   -8.6312 C   0  0  0  0  0  0  0  0  0  0  0  0
   10.3262    7.6967   -9.1562 C   0  0  0  0  0  0  0  0  0  0  0  0
    9.9198    7.6336  -10.4426 N   0  0  0  0  0  0  0  0  0  0  0  0
   10.0636    8.4671  -11.0802 H   0  0  0  0  0  0  0  0  0  0  0  0
   11.6065    7.8706   -5.0707 C   0  0  0  0  0  0  0  0  0  0  0  0
   12.3340    8.9557   -4.6027 C   0  0  0  0  0  0  0  0  0  0  0  0
   12.7532    9.0271   -3.2836 C   0  0  0  0  0  0  0  0  0  0  0  0
   12.4571    8.0165   -2.3967 C   0  0  0  0  0  0  0  0  0  0  0  0
   11.7392    6.9320   -2.8332 C   0  0  0  0  0  0  0  0  0  0  0  0
   11.3341    6.8829   -4.1452 C   0  0  0  0  0  0  0  0  0  0  0  0
  1  2  1  0
  2  3  2  0
  3  4  1  0
  4  5  1  0
  6  5  1  1
  6  7  1  0
  7  8  2  0
  8  9  1  0
  9 10  2  0
 10 11  1  0
 11 12  2  0
 12 13  1  0
 13 14  2  0
 14 15  1  0
 15 16  2  0
 16 17  1  0
 17 18  2  0
 18 19  1  0
 19 20  2  0
 20 26  1  0
 26 27  2  0
 27 28  1  0
 28 29  2  0
 29 30  1  0
 30 31  2  0
 31 32  1  0
 32 38  1  0
 38 39  2  0
 39 40  1  0
 40 41  2  0
 41 42  1  0
 42 43  2  0
 32 33  2  0
 33 34  1  0
 34 35  2  0
 35 36  1  0
 36 37  1  0
 20 21  1  0
 21 22  2  0
  6 23  1  0
 23 24  1  6
 23 25  1  0
 23  3  1  0
 22  6  1  0
 16  7  1  0
 22 17  1  0
 15 10  1  0
 36 27  1  0
 35 30  1  0
 43 38  1  0
M  CHG  1  23   1
M  END
>  <minimizedAffinity>  (163) 
-17.40810

$$$$
Mol: 198_8 - SminaDock
     RDKit          3D

 43 50  0  0  0  0  0  0  0  0999 V2000
    8.4285    5.5698  -12.6130 C   0  0  0  0  0  0  0  0  0  0  0  0
    7.3063    5.0028  -12.0740 C   0  0  0  0  0  0  0  0  0  0  0  0
    6.6812    3.8823  -12.5941 C   0  0  0  0  0  0  0  0  0  0  0  0
    7.2209    3.2979  -13.7268 C   0  0  0  0  0  0  0  0  0  0  0  0
    8.3540    3.8479  -14.2893 C   0  0  0  0  0  0  0  0  0  0  0  0
    8.9380    4.9578  -13.7418 C   0  0  0  0  0  0  0  0  0  0  0  0
    9.0204    3.1981  -15.4584 C   0  0  2  0  0  0  0  0  0  0  0  0
    7.9074    2.5341  -16.2960 C   0  0  0  0  0  0  0  0  0  0  0  0
    7.0570    1.6652  -15.5739 C   0  0  0  0  0  0  0  0  0  0  0  0
    6.5193    2.1477  -14.3613 C   0  0  0  0  0  0  0  0  0  0  0  0
    5.5200    1.4837  -13.6850 C   0  0  0  0  0  0  0  0  0  0  0  0
    5.0407    0.3107  -14.2104 C   0  0  0  0  0  0  0  0  0  0  0  0
    5.5445   -0.2010  -15.3867 C   0  0  0  0  0  0  0  0  0  0  0  0
    5.0784   -1.3617  -15.8679 N   0  0  0  0  0  0  0  0  0  0  0  0
    5.5673   -1.8841  -16.9849 C   0  0  0  0  0  0  0  0  0  0  0  0
    5.1074   -2.9669  -17.4052 O   0  0  0  0  0  0  0  0  0  0  0  0
    6.5626   -1.2516  -17.6740 C   0  0  0  0  0  0  0  0  0  0  0  0
    7.1016   -0.0236  -17.2238 C   0  0  0  0  0  0  0  0  0  0  0  0
    8.2199    0.5846  -17.9195 C   0  0  0  0  0  0  0  0  0  0  0  0
    6.5635    0.4838  -16.0705 C   0  0  0  0  0  0  0  0  0  0  0  0
   10.0041    2.2415  -14.9226 C   0  0  0  0  0  0  0  0  0  0  0  0
   11.3994    2.3842  -15.4921 C   0  0  0  0  0  0  0  0  0  0  0  0
   11.7371    3.7401  -15.2579 O   0  0  0  0  0  0  0  0  0  0  0  0
   11.0819    4.4497  -16.2391 C   0  0  0  0  0  0  0  0  0  0  0  0
    9.6064    4.2945  -16.2854 C   0  0  0  0  0  0  0  0  0  0  0  0
   11.1022    7.7573   -6.2702 C   0  0  0  0  0  0  0  0  0  0  0  0
   11.2909    8.8533   -7.1013 C   0  0  0  0  0  0  0  0  0  0  0  0
   10.9126    8.8582   -8.4288 C   0  0  0  0  0  0  0  0  0  0  0  0
   10.3193    7.7276   -8.9632 C   0  0  0  0  0  0  0  0  0  0  0  0
   10.1327    6.6471   -8.1461 C   0  0  0  0  0  0  0  0  0  0  0  0
   10.5174    6.6493   -6.8055 C   0  0  0  0  0  0  0  0  0  0  0  0
    9.5343    5.5196   -8.7006 C   0  0  0  0  0  0  0  0  0  0  0  0
    9.1611    5.5383  -10.0274 C   0  0  0  0  0  0  0  0  0  0  0  0
    9.3789    6.6561  -10.7862 C   0  0  0  0  0  0  0  0  0  0  0  0
    9.0453    6.7298  -12.0443 N   0  0  0  0  0  0  0  0  0  0  0  0
    9.9557    7.7410  -10.2490 N   0  0  0  0  0  0  0  0  0  0  0  0
   10.1146    8.5971  -10.8582 H   0  0  0  0  0  0  0  0  0  0  0  0
   12.3754    8.0997   -2.2598 C   0  0  0  0  0  0  0  0  0  0  0  0
   12.3105    9.1927   -3.0841 C   0  0  0  0  0  0  0  0  0  0  0  0
   11.8958    9.0894   -4.3944 C   0  0  0  0  0  0  0  0  0  0  0  0
   11.5371    7.8672   -4.8952 C   0  0  0  0  0  0  0  0  0  0  0  0
   11.5941    6.7591   -4.0882 C   0  0  0  0  0  0  0  0  0  0  0  0
   12.0155    6.8639   -2.7565 C   0  0  0  0  0  0  0  0  0  0  0  0
 38 39  2  0
 39 40  1  0
 40 41  2  0
 41 26  1  0
 26 27  2  0
 27 28  1  0
 28 29  2  0
 29 30  1  0
 30 31  2  0
 30 32  1  0
 32 33  2  0
 33 34  1  0
 34 35  2  0
 35  1  1  0
  1  2  2  0
  2  3  1  0
  3  4  2  0
  4  5  1  0
  5  6  2  0
  5  7  1  0
  7  8  1  6
  8  9  1  0
  9 10  2  0
 10 11  1  0
 11 12  2  0
 12 13  1  0
 13 14  1  0
 14 15  1  0
 15 16  2  0
 15 17  1  0
 17 18  2  0
 18 19  1  0
 18 20  1  0
  7 21  1  0
 21 22  1  0
 22 23  1  0
 23 24  1  0
 24 25  1  0
 34 36  1  0
 36 37  1  0
 41 42  1  0
 42 43  2  0
 43 38  1  0
 31 26  1  0
  6  1  1  0
 25  7  1  0
 36 29  1  0
 10  4  1  0
 20 13  2  0
 20  9  1  0
M  CHG  1  14  -1
M  END
>  <minimizedAffinity>  (164) 
-17.38864

$$$$
Mol: 112_19 - SminaDock
     RDKit          3D

 40 46  0  0  0  0  0  0  0  0999 V2000
    7.9504    4.8787  -12.8791 C   0  0  0  0  0  0  0  0  0  0  0  0
    6.6784    4.6324  -12.4152 C   0  0  0  0  0  0  0  0  0  0  0  0
    5.9758    3.5082  -12.8282 C   0  0  0  0  0  0  0  0  0  0  0  0
    6.5166    2.6067  -13.7067 C   0  0  0  0  0  0  0  0  0  0  0  0
    7.8003    2.8424  -14.1818 C   0  0  0  0  0  0  0  0  0  0  0  0
    8.5012    3.9756  -13.7630 C   0  0  0  0  0  0  0  0  0  0  0  0
    8.5375    1.9614  -15.1119 C   0  0  2  0  0  0  0  0  0  0  0  0
    8.8002    0.6071  -14.5297 C   0  0  0  0  0  0  0  0  0  0  0  0
    8.2168    0.0231  -13.6181 O   0  0  0  0  0  0  0  0  0  0  0  0
    9.9047    0.1076  -15.2707 N   0  0  0  0  0  0  0  0  0  0  0  0
   10.5079    1.1689  -16.0268 C   0  0  0  0  0  0  0  0  0  0  0  0
   11.3207    1.1092  -16.9688 O   0  0  0  0  0  0  0  0  0  0  0  0
    9.9284    2.4142  -15.4174 C   0  0  0  0  0  0  0  0  0  0  0  0
    7.7404    1.8116  -16.3931 C   0  0  0  0  0  0  0  0  0  0  0  0
    6.6697    0.7952  -16.2588 C   0  0  0  0  0  0  0  0  0  0  0  0
    6.6404   -0.0851  -17.3072 C   0  0  0  0  0  0  0  0  0  0  0  0
    5.6930   -1.1192  -17.3553 C   0  0  0  0  0  0  0  0  0  0  0  0
    4.7654   -1.2647  -16.3326 C   0  0  0  0  0  0  0  0  0  0  0  0
    4.8079   -0.3670  -15.2800 C   0  0  0  0  0  0  0  0  0  0  0  0
    5.7405    0.6367  -15.2499 C   0  0  0  0  0  0  0  0  0  0  0  0
    5.6256    1.4791  -14.0642 C   0  0  0  0  0  0  0  0  0  0  0  0
    4.7052    1.2627  -13.2523 O   0  0  0  0  0  0  0  0  0  0  0  0
   11.0398    7.7567   -6.9598 C   0  0  0  0  0  0  0  0  0  0  0  0
   11.2895    8.7139   -7.9170 C   0  0  0  0  0  0  0  0  0  0  0  0
   10.8802    8.5999   -9.2317 C   0  0  0  0  0  0  0  0  0  0  0  0
   10.1858    7.4663   -9.5985 C   0  0  0  0  0  0  0  0  0  0  0  0
    9.9096    6.4747   -8.6722 C   0  0  0  0  0  0  0  0  0  0  0  0
    9.2109    5.3450   -9.0624 C   0  0  0  0  0  0  0  0  0  0  0  0
    8.8219    5.2502  -10.3389 N   0  0  0  0  0  0  0  0  0  0  0  0
    9.0760    6.1899  -11.2450 C   0  0  0  0  0  0  0  0  0  0  0  0
    8.6784    6.0442  -12.4513 N   0  0  0  0  0  0  0  0  0  0  0  0
    9.7523    7.2851  -10.8706 N   0  0  0  0  0  0  0  0  0  0  0  0
    9.9467    8.0249  -11.6051 H   0  0  0  0  0  0  0  0  0  0  0  0
   10.3394    6.6321   -7.3667 C   0  0  0  0  0  0  0  0  0  0  0  0
   12.2782    8.0325   -2.8924 C   0  0  0  0  0  0  0  0  0  0  0  0
   12.4528    9.1160   -3.7419 C   0  0  0  0  0  0  0  0  0  0  0  0
   12.0507    9.0246   -5.0600 C   0  0  0  0  0  0  0  0  0  0  0  0
   11.4737    7.8816   -5.5732 C   0  0  0  0  0  0  0  0  0  0  0  0
   11.3109    6.8124   -4.7007 C   0  0  0  0  0  0  0  0  0  0  0  0
   11.7078    6.8927   -3.3864 C   0  0  0  0  0  0  0  0  0  0  0  0
 35 36  2  0
 36 37  1  0
 37 38  2  0
 38 23  1  0
 23 24  2  0
 24 25  1  0
 25 26  2  0
 26 27  1  0
 27 28  1  0
 28 29  2  0
 29 30  1  0
 30 31  2  0
 31  1  1  0
  1  2  2  0
  2  3  1  0
  3  4  2  0
  4  5  1  0
  5  6  2  0
  5  7  1  0
  7  8  1  0
  8  9  2  0
  8 10  1  0
 10 11  1  0
 11 12  2  0
 11 13  1  0
  7 14  1  6
 14 15  1  0
 15 16  2  0
 16 17  1  0
 17 18  2  0
 18 19  1  0
 19 20  2  0
 20 21  1  0
 21 22  2  0
 30 32  1  0
 32 33  1  0
 27 34  2  0
 38 39  1  0
 39 40  2  0
 40 35  1  0
 34 23  1  0
 32 26  1  0
  6  1  1  0
 13  7  1  0
 20 15  1  0
 21  4  1  0
M  CHG  1  10  -1
M  END
>  <minimizedAffinity>  (165) 
-17.39630

$$$$
Mol: 137_42 - SminaDock
     RDKit          3D

 39 45  0  0  0  0  0  0  0  0999 V2000
    8.7698    5.9860  -12.3900 C   0  0  0  0  0  0  0  0  0  0  0  0
    9.4677    5.2810  -13.3480 C   0  0  0  0  0  0  0  0  0  0  0  0
    8.8821    4.1347  -13.9267 C   0  0  0  0  0  0  0  0  0  0  0  0
    7.6285    3.7274  -13.5373 C   0  0  0  0  0  0  0  0  0  0  0  0
    6.9602    4.4533  -12.5820 C   0  0  0  0  0  0  0  0  0  0  0  0
    7.5124    5.6005  -11.9822 C   0  0  0  0  0  0  0  0  0  0  0  0
    5.6000    4.0941  -12.1760 C   0  0  0  0  0  0  0  0  0  0  0  0
    5.1478    2.7437  -12.5655 C   0  0  0  0  0  0  0  0  0  0  0  0
    5.8412    2.0746  -13.6669 C   0  0  0  0  0  0  0  0  0  0  0  0
    7.0647    2.4979  -14.1138 C   0  0  0  0  0  0  0  0  0  0  0  0
    7.7225    1.8085  -15.1267 C   0  0  0  0  0  0  0  0  0  0  0  0
    7.1689    0.6890  -15.7094 C   0  0  0  0  0  0  0  0  0  0  0  0
    7.7637   -0.0365  -16.7120 C   0  0  0  0  0  0  0  0  0  0  0  0
    9.0913    0.3829  -17.2273 C   0  0  0  0  0  0  0  0  0  0  0  0
    7.1469   -1.1203  -17.2237 N   0  0  0  0  0  0  0  0  0  0  0  0
    5.9664   -1.5305  -16.7967 N   0  0  0  0  0  0  0  0  0  0  0  0
    5.5536   -2.3921  -17.2544 H   0  0  0  0  0  0  0  0  0  0  0  0
    5.3339   -0.8758  -15.8293 C   0  0  0  0  0  0  0  0  0  0  0  0
    4.2110   -1.2904  -15.4439 O   0  0  0  0  0  0  0  0  0  0  0  0
    5.9357    0.2521  -15.2705 C   0  0  0  0  0  0  0  0  0  0  0  0
    5.2829    0.9314  -14.2680 C   0  0  0  0  0  0  0  0  0  0  0  0
   11.3121    8.0624   -5.9734 C   0  0  0  0  0  0  0  0  0  0  0  0
   11.5558    9.1956   -6.7208 C   0  0  0  0  0  0  0  0  0  0  0  0
   11.2099    9.2356   -8.0635 C   0  0  0  0  0  0  0  0  0  0  0  0
   10.6173    8.1324   -8.6564 C   0  0  0  0  0  0  0  0  0  0  0  0
   10.2681    8.1328   -9.9546 N   0  0  0  0  0  0  0  0  0  0  0  0
    9.6860    7.0629  -10.5564 C   0  0  0  0  0  0  0  0  0  0  0  0
    9.3754    7.1374  -11.8191 N   0  0  0  0  0  0  0  0  0  0  0  0
    9.4565    5.9690   -9.8135 N   0  0  0  0  0  0  0  0  0  0  0  0
    9.0095    5.1236  -10.2414 H   0  0  0  0  0  0  0  0  0  0  0  0
    9.7755    5.8894   -8.5124 C   0  0  0  0  0  0  0  0  0  0  0  0
   10.3718    6.9982   -7.9142 C   0  0  0  0  0  0  0  0  0  0  0  0
   10.7187    6.9642   -6.5765 C   0  0  0  0  0  0  0  0  0  0  0  0
   12.3817    7.9473   -1.8876 C   0  0  0  0  0  0  0  0  0  0  0  0
   12.0606    6.7742   -2.5309 C   0  0  0  0  0  0  0  0  0  0  0  0
   11.7182    6.8421   -3.8554 C   0  0  0  0  0  0  0  0  0  0  0  0
   11.6845    8.0464   -4.5651 C   0  0  0  0  0  0  0  0  0  0  0  0
   12.0028    9.2035   -3.9243 C   0  0  0  0  0  0  0  0  0  0  0  0
   12.3528    9.1396   -2.5729 C   0  0  0  0  0  0  0  0  0  0  0  0
 34 35  2  0
 35 36  1  0
 36 37  2  0
 37 22  1  0
 22 23  1  0
 23 24  2  0
 24 25  1  0
 25 26  2  0
 26 27  1  0
 27 28  2  0
 28  1  1  0
  1  2  2  0
  2  3  1  0
  3  4  2  0
  4  5  1  0
  5  6  2  0
  5  7  1  0
  7  8  1  0
  8  9  1  0
  9 10  2  0
 10 11  1  0
 11 12  2  0
 12 13  1  0
 13 14  1  0
 13 15  2  0
 15 16  1  0
 16 17  1  0
 16 18  1  0
 18 19  2  0
 18 20  1  0
 20 21  2  0
 27 29  1  0
 29 30  1  0
 29 31  1  0
 31 32  2  0
 32 33  1  0
 37 38  1  0
 38 39  2  0
 39 34  1  0
 33 22  2  0
 32 25  1  0
  6  1  1  0
 21  9  1  0
 10  4  1  0
 20 12  1  0
M  END
>  <minimizedAffinity>  (166) 
-17.35714

$$$$
Mol: 190_47 - SminaDock
     RDKit          3D

 37 43  0  0  0  0  0  0  0  0999 V2000
    7.0653   -1.7828  -17.2618 H   0  0  0  0  0  0  0  0  0  0  0  0
    6.9955   -0.8841  -16.8023 O   0  0  0  0  0  0  0  0  0  0  0  0
    6.0032   -0.5826  -15.8710 C   0  0  0  0  0  0  0  0  0  0  0  0
    4.9267   -1.2456  -15.6748 N   0  0  0  0  0  0  0  0  0  0  0  0
    4.1394   -0.6638  -14.6542 C   0  0  0  0  0  0  0  0  0  0  0  0
    3.0273   -1.0164  -14.1781 O   0  0  0  0  0  0  0  0  0  0  0  0
    4.8993    0.5199  -14.2045 C   0  0  0  0  0  0  0  0  0  0  0  0
    4.6708    1.4841  -13.2541 C   0  0  0  0  0  0  0  0  0  0  0  0
    5.6105    2.4904  -13.0738 C   0  0  0  0  0  0  0  0  0  0  0  0
    6.7576    2.5152  -13.8435 C   0  0  0  0  0  0  0  0  0  0  0  0
    6.9951    1.5511  -14.7998 C   0  0  0  0  0  0  0  0  0  0  0  0
    6.0577    0.5608  -14.9685 C   0  0  0  0  0  0  0  0  0  0  0  0
    7.5208    3.6716  -13.4175 C   0  0  0  0  0  0  0  0  0  0  0  0
    8.7412    4.1260  -13.8837 C   0  0  0  0  0  0  0  0  0  0  0  0
    9.3449    5.2485  -13.3753 C   0  0  0  0  0  0  0  0  0  0  0  0
    8.6828    5.9154  -12.3708 C   0  0  0  0  0  0  0  0  0  0  0  0
    7.4671    5.5055  -11.8713 C   0  0  0  0  0  0  0  0  0  0  0  0
    6.8804    4.3548  -12.4145 C   0  0  0  0  0  0  0  0  0  0  0  0
    5.6207    3.6383  -12.1374 C   0  0  0  0  0  0  0  0  0  0  0  0
    9.2964    7.0840  -11.8309 N   0  0  0  0  0  0  0  0  0  0  0  0
    9.6411    7.0707  -10.5728 C   0  0  0  0  0  0  0  0  0  0  0  0
   10.2235    8.1424  -10.0065 N   0  0  0  0  0  0  0  0  0  0  0  0
   10.5831    8.1375   -8.7075 C   0  0  0  0  0  0  0  0  0  0  0  0
   11.1837    9.2337   -8.1111 C   0  0  0  0  0  0  0  0  0  0  0  0
   11.5459    9.2134   -6.7814 C   0  0  0  0  0  0  0  0  0  0  0  0
   11.3239    8.1005   -5.9943 C   0  0  0  0  0  0  0  0  0  0  0  0
   10.7281    7.0000   -6.5673 C   0  0  0  0  0  0  0  0  0  0  0  0
   10.3680    7.0275   -7.8997 C   0  0  0  0  0  0  0  0  0  0  0  0
    9.7695    5.9390   -8.4996 C   0  0  0  0  0  0  0  0  0  0  0  0
    9.4268    5.9895   -9.8027 N   0  0  0  0  0  0  0  0  0  0  0  0
    8.9711    5.1518  -10.2464 H   0  0  0  0  0  0  0  0  0  0  0  0
   11.6968    8.0468   -4.5790 C   0  0  0  0  0  0  0  0  0  0  0  0
   11.7015    6.8712   -3.8577 C   0  0  0  0  0  0  0  0  0  0  0  0
   12.0539    6.8236   -2.5222 C   0  0  0  0  0  0  0  0  0  0  0  0
   12.4197    7.9759   -1.8554 C   0  0  0  0  0  0  0  0  0  0  0  0
   12.4153    9.1521   -2.5761 C   0  0  0  0  0  0  0  0  0  0  0  0
   12.0636    9.2013   -3.9096 C   0  0  0  0  0  0  0  0  0  0  0  0
  1  2  1  0
  2  3  1  0
  3  4  2  0
  4  5  1  0
  5  6  2  0
  5  7  1  0
  7  8  2  0
  8  9  1  0
  9 10  2  0
 10 11  1  0
 11 12  2  0
 10 13  1  0
 13 14  2  0
 14 15  1  0
 15 16  2  0
 16 20  1  0
 20 21  2  0
 21 22  1  0
 22 23  2  0
 23 24  1  0
 24 25  2  0
 25 26  1  0
 26 32  1  0
 32 33  2  0
 33 34  1  0
 34 35  2  0
 35 36  1  0
 36 37  2  0
 26 27  2  0
 27 28  1  0
 28 29  2  0
 29 30  1  0
 30 31  1  0
 16 17  1  0
 17 18  2  0
 18 19  1  0
 12  3  1  0
 18 13  1  0
 12  7  1  0
 30 21  1  0
 19  9  1  0
 28 23  1  0
 37 32  1  0
M  END
>  <minimizedAffinity>  (167) 
-17.32396

$$$$
Mol: 153_47 - SminaDock
     RDKit          3D

 41 47  0  0  0  0  0  0  0  0999 V2000
    8.7365    5.6573  -12.3858 C   0  0  0  0  0  0  0  0  0  0  0  0
    7.4239    5.3247  -12.0973 C   0  0  0  0  0  0  0  0  0  0  0  0
    6.8195    4.2180  -12.6891 C   0  0  0  0  0  0  0  0  0  0  0  0
    7.5622    3.4774  -13.5556 C   0  0  0  0  0  0  0  0  0  0  0  0
    8.8756    3.7756  -13.8753 C   0  0  0  0  0  0  0  0  0  0  0  0
    9.4453    4.8797  -13.2705 C   0  0  0  0  0  0  0  0  0  0  0  0
    9.7595    3.1503  -14.7996 N   0  0  0  0  0  0  0  0  0  0  0  0
   11.1707    3.3221  -14.5450 C   0  0  0  0  0  0  0  0  0  0  0  0
    9.3868    2.3947  -15.9552 N   0  0  0  0  0  0  0  0  0  0  0  0
    8.0523    1.9629  -16.2700 C   0  0  0  0  0  0  0  0  0  0  0  0
    7.6619    1.7971  -17.4356 O   0  0  0  0  0  0  0  0  0  0  0  0
    7.0296    1.6786  -15.2768 C   0  0  0  0  0  0  0  0  0  0  0  0
    6.7970    2.3376  -14.0516 C   0  0  0  0  0  0  0  0  0  0  0  0
    5.7974    1.9530  -13.2164 C   0  0  0  0  0  0  0  0  0  0  0  0
    4.9948    0.8976  -13.5864 C   0  0  0  0  0  0  0  0  0  0  0  0
    5.2201    0.2618  -14.7740 C   0  0  0  0  0  0  0  0  0  0  0  0
    6.2553    0.6344  -15.6619 C   0  0  0  0  0  0  0  0  0  0  0  0
    6.6618    0.0547  -16.9341 C   0  0  0  0  0  0  0  0  0  0  0  0
    5.5883   -0.1226  -17.9500 C   0  0  0  0  0  0  0  0  0  0  0  0
    4.5411   -1.0543  -17.5593 N   0  0  0  0  0  0  0  0  0  0  0  0
    3.8770   -1.6545  -18.6769 C   0  0  0  0  0  0  0  0  0  0  0  0
    3.6969   -0.6159  -16.5078 C   0  0  0  0  0  0  0  0  0  0  0  0
    4.2713   -0.8376  -15.1016 C   0  0  0  0  0  0  0  0  0  0  0  0
   11.2777    8.0172   -6.0370 C   0  0  0  0  0  0  0  0  0  0  0  0
   11.4483    9.1256   -6.8383 C   0  0  0  0  0  0  0  0  0  0  0  0
   11.0754    9.0962   -8.1773 C   0  0  0  0  0  0  0  0  0  0  0  0
   10.5267    7.9640   -8.7410 C   0  0  0  0  0  0  0  0  0  0  0  0
   10.1660    7.9265  -10.0260 N   0  0  0  0  0  0  0  0  0  0  0  0
    9.6330    6.7901  -10.5277 C   0  0  0  0  0  0  0  0  0  0  0  0
    9.3081    6.8038  -11.7529 N   0  0  0  0  0  0  0  0  0  0  0  0
    9.4425    5.6810   -9.7985 N   0  0  0  0  0  0  0  0  0  0  0  0
    9.0237    4.8204  -10.2312 H   0  0  0  0  0  0  0  0  0  0  0  0
    9.8078    5.7275   -8.5082 C   0  0  0  0  0  0  0  0  0  0  0  0
   10.3547    6.8529   -7.9415 C   0  0  0  0  0  0  0  0  0  0  0  0
   10.7288    6.8790   -6.5939 C   0  0  0  0  0  0  0  0  0  0  0  0
   12.4185    8.0735   -1.9319 C   0  0  0  0  0  0  0  0  0  0  0  0
   12.0520    6.8851   -2.5410 C   0  0  0  0  0  0  0  0  0  0  0  0
   11.6848    6.8820   -3.8705 C   0  0  0  0  0  0  0  0  0  0  0  0
   11.6697    8.0467   -4.6312 C   0  0  0  0  0  0  0  0  0  0  0  0
   12.0292    9.2152   -4.0355 C   0  0  0  0  0  0  0  0  0  0  0  0
   12.4010    9.2239   -2.6922 C   0  0  0  0  0  0  0  0  0  0  0  0
 36 37  2  0
 37 38  1  0
 38 39  2  0
 39 24  1  0
 24 25  1  0
 25 26  2  0
 26 27  1  0
 27 28  2  0
 28 29  1  0
 29 30  2  0
 30  1  1  0
  1  2  2  0
  2  3  1  0
  3  4  2  0
  4  5  1  0
  5  6  2  0
  5  7  1  0
  7  8  1  0
  7  9  1  0
  9 10  1  0
 10 11  2  0
 10 12  1  0
 12 13  2  0
 13 14  1  0
 14 15  2  0
 15 16  1  0
 16 17  2  0
 17 18  1  0
 18 19  1  0
 19 20  1  0
 20 21  1  0
 20 22  1  0
 22 23  1  0
 29 31  1  0
 31 32  1  0
 31 33  1  0
 33 34  2  0
 34 35  1  0
 39 40  1  0
 40 41  2  0
 41 36  1  0
 35 24  2  0
 34 27  1  0
  6  1  1  0
 17 12  1  0
 13  4  1  0
 23 16  1  0
M  CHG  1   9  -1
M  END
>  <minimizedAffinity>  (168) 
-17.34174

$$$$
Mol: 157_37 - SminaDock
     RDKit          3D

 40 46  0  0  0  0  0  0  0  0999 V2000
    1.9447   -0.5034  -13.6057 H   0  0  0  0  0  0  0  0  0  0  0  0
    2.5163   -0.9934  -14.3415 N   0  0  0  0  0  0  0  0  0  0  0  0
    3.7002   -0.5299  -14.6454 C   0  0  0  0  0  0  0  0  0  0  0  0
    4.1897    0.5322  -14.0527 O   0  0  0  0  0  0  0  0  0  0  0  0
    5.3702    0.9729  -14.3734 C   0  0  0  0  0  0  0  0  0  0  0  0
    5.8388    2.0934  -13.7207 C   0  0  0  0  0  0  0  0  0  0  0  0
    7.0869    2.5607  -14.0582 C   0  0  0  0  0  0  0  0  0  0  0  0
    7.8689    1.9515  -15.0109 C   0  0  0  0  0  0  0  0  0  0  0  0
    7.3628    0.8204  -15.6522 C   0  0  0  0  0  0  0  0  0  0  0  0
    6.1413    0.3406  -15.3422 C   0  0  0  0  0  0  0  0  0  0  0  0
    5.6531   -0.7963  -15.9972 C   0  0  0  0  0  0  0  0  0  0  0  0
    6.4172   -1.4224  -16.9569 O   0  0  0  0  0  0  0  0  0  0  0  0
    6.3504   -1.2622  -17.9521 H   0  0  0  0  0  0  0  0  0  0  0  0
    4.3973   -1.2172  -15.6164 C   0  0  0  0  0  0  0  0  0  0  0  0
    9.2303    2.3453  -15.3994 C   0  0  0  0  0  0  0  0  0  0  0  0
    9.6574    3.6619  -14.9497 C   0  0  0  0  0  0  0  0  0  0  0  0
    8.8590    4.2339  -13.8553 C   0  0  0  0  0  0  0  0  0  0  0  0
    9.4331    5.3677  -13.2527 C   0  0  0  0  0  0  0  0  0  0  0  0
    8.7297    5.9905  -12.2570 C   0  0  0  0  0  0  0  0  0  0  0  0
    7.5099    5.5096  -11.8758 C   0  0  0  0  0  0  0  0  0  0  0  0
    6.9221    4.3998  -12.4475 C   0  0  0  0  0  0  0  0  0  0  0  0
    7.6341    3.7711  -13.4526 C   0  0  0  0  0  0  0  0  0  0  0  0
    9.3122    7.1584  -11.6316 N   0  0  0  0  0  0  0  0  0  0  0  0
    9.6453    7.0789  -10.4080 C   0  0  0  0  0  0  0  0  0  0  0  0
    9.4674    5.9377   -9.6904 N   0  0  0  0  0  0  0  0  0  0  0  0
    9.8506    5.9509   -8.4032 C   0  0  0  0  0  0  0  0  0  0  0  0
   10.4085    7.0359   -7.7644 C   0  0  0  0  0  0  0  0  0  0  0  0
   10.7949    7.0276   -6.4415 C   0  0  0  0  0  0  0  0  0  0  0  0
   11.3529    8.1312   -5.8234 C   0  0  0  0  0  0  0  0  0  0  0  0
   11.5145    9.2696   -6.5926 C   0  0  0  0  0  0  0  0  0  0  0  0
   11.1300    9.2935   -7.9276 C   0  0  0  0  0  0  0  0  0  0  0  0
   10.5739    8.1837   -8.5322 C   0  0  0  0  0  0  0  0  0  0  0  0
   10.1882    8.1707   -9.8278 N   0  0  0  0  0  0  0  0  0  0  0  0
   10.3363    9.0652  -10.3605 H   0  0  0  0  0  0  0  0  0  0  0  0
   11.7505    8.0849   -4.4181 C   0  0  0  0  0  0  0  0  0  0  0  0
   11.7700    6.8752   -3.7481 C   0  0  0  0  0  0  0  0  0  0  0  0
   12.1428    6.8082   -2.4183 C   0  0  0  0  0  0  0  0  0  0  0  0
   12.5102    7.9444   -1.7075 C   0  0  0  0  0  0  0  0  0  0  0  0
   12.4934    9.1471   -2.3650 C   0  0  0  0  0  0  0  0  0  0  0  0
   12.1168    9.2076   -3.7038 C   0  0  0  0  0  0  0  0  0  0  0  0
  1  2  1  0
  2  3  2  0
  3  4  1  0
  4  5  1  0
  5  6  2  0
  6  7  1  0
  7  8  2  0
  8  9  1  0
  9 10  2  0
 10 11  1  0
 11 12  1  0
 12 13  1  0
 11 14  2  0
  8 15  1  0
 15 16  1  0
 16 17  1  0
 17 18  2  0
 18 19  1  0
 19 23  1  0
 23 24  2  0
 24 25  1  0
 25 26  2  0
 26 27  1  0
 27 28  2  0
 28 29  1  0
 29 35  1  0
 35 36  2  0
 36 37  1  0
 37 38  2  0
 38 39  1  0
 39 40  2  0
 29 30  2  0
 30 31  1  0
 31 32  2  0
 32 33  1  0
 33 34  1  0
 19 20  2  0
 20 21  1  0
 21 22  2  0
 14  3  1  0
 22 17  1  0
 10  5  1  0
 33 24  1  0
 22  7  1  0
 32 27  1  0
 40 35  1  0
M  END
>  <minimizedAffinity>  (169) 
-17.29340

$$$$
Mol: 154_43 - SminaDock
     RDKit          3D

 40 46  0  0  0  0  0  0  0  0999 V2000
    2.9730   -0.8326  -15.8059 H   0  0  0  0  0  0  0  0  0  0  0  0
    3.7856   -1.2492  -15.3671 O   0  0  0  0  0  0  0  0  0  0  0  0
    5.0530   -0.8721  -15.8124 C   0  0  0  0  0  0  0  0  0  0  0  0
    5.6742    0.1950  -15.2843 C   0  0  0  0  0  0  0  0  0  0  0  0
    5.0613    0.9203  -14.3012 C   0  0  0  0  0  0  0  0  0  0  0  0
    5.6574    2.0513  -13.7038 C   0  0  0  0  0  0  0  0  0  0  0  0
    6.8989    2.4356  -14.1272 C   0  0  0  0  0  0  0  0  0  0  0  0
    7.5356    1.7257  -15.1119 C   0  0  0  0  0  0  0  0  0  0  0  0
    6.9207    0.6018  -15.6920 C   0  0  0  0  0  0  0  0  0  0  0  0
    7.5063   -0.0813  -16.6231 N   0  0  0  0  0  0  0  0  0  0  0  0
    8.8286    0.3631  -17.0446 C   0  0  0  0  0  0  0  0  0  0  0  0
    6.9576   -1.1943  -17.2338 N   0  0  0  0  0  0  0  0  0  0  0  0
    7.4276   -1.7508  -17.9880 H   0  0  0  0  0  0  0  0  0  0  0  0
    5.6799   -1.6198  -16.8230 N   0  0  0  0  0  0  0  0  0  0  0  0
    7.5653    3.5881  -13.5486 C   0  0  0  0  0  0  0  0  0  0  0  0
    8.8196    3.9966  -13.9641 C   0  0  0  0  0  0  0  0  0  0  0  0
    9.4093    5.1064  -13.3797 C   0  0  0  0  0  0  0  0  0  0  0  0
    8.7455    5.7973  -12.3890 C   0  0  0  0  0  0  0  0  0  0  0  0
    7.4994    5.4013  -11.9678 C   0  0  0  0  0  0  0  0  0  0  0  0
    6.9031    4.3026  -12.5387 C   0  0  0  0  0  0  0  0  0  0  0  0
    5.5773    3.9337  -12.0416 C   0  0  0  0  0  0  0  0  0  0  0  0
    4.9316    2.7706  -12.6618 C   0  0  0  0  0  0  0  0  0  0  0  0
    9.3539    6.9241  -11.8031 N   0  0  0  0  0  0  0  0  0  0  0  0
    9.6830    6.9420  -10.5630 C   0  0  0  0  0  0  0  0  0  0  0  0
   10.2611    8.0154  -10.0100 N   0  0  0  0  0  0  0  0  0  0  0  0
   10.6065    8.0304   -8.7028 C   0  0  0  0  0  0  0  0  0  0  0  0
   11.2021    9.1308   -8.1236 C   0  0  0  0  0  0  0  0  0  0  0  0
   11.5528    9.1379   -6.7830 C   0  0  0  0  0  0  0  0  0  0  0  0
   11.3192    8.0410   -5.9720 C   0  0  0  0  0  0  0  0  0  0  0  0
   10.7232    6.9446   -6.5591 C   0  0  0  0  0  0  0  0  0  0  0  0
   10.3723    6.9355   -7.8972 C   0  0  0  0  0  0  0  0  0  0  0  0
    9.7759    5.8391   -8.4849 C   0  0  0  0  0  0  0  0  0  0  0  0
    9.4419    5.8628   -9.8088 N   0  0  0  0  0  0  0  0  0  0  0  0
    8.9989    5.0138  -10.1919 H   0  0  0  0  0  0  0  0  0  0  0  0
   11.6936    8.0619   -4.5598 C   0  0  0  0  0  0  0  0  0  0  0  0
   11.6870    6.8875   -3.8346 C   0  0  0  0  0  0  0  0  0  0  0  0
   12.0323    6.8559   -2.4991 C   0  0  0  0  0  0  0  0  0  0  0  0
   12.4010    8.0020   -1.8274 C   0  0  0  0  0  0  0  0  0  0  0  0
   12.4103    9.1793   -2.5441 C   0  0  0  0  0  0  0  0  0  0  0  0
   12.0618    9.2107   -3.8914 C   0  0  0  0  0  0  0  0  0  0  0  0
  1  2  1  0
  2  3  1  0
  3  4  2  0
  4  5  1  0
  5  6  2  0
  6  7  1  0
  7  8  2  0
  8  9  1  0
  9 10  2  0
 10 11  1  0
 10 12  1  0
 12 13  1  0
 12 14  1  0
  7 15  1  0
 15 16  2  0
 16 17  1  0
 17 18  2  0
 18 23  1  0
 23 24  2  0
 24 25  1  0
 25 26  2  0
 26 27  1  0
 27 28  2  0
 28 29  1  0
 29 35  1  0
 35 36  2  0
 36 37  1  0
 37 38  2  0
 38 39  1  0
 39 40  2  0
 29 30  2  0
 30 31  1  0
 31 32  2  0
 32 33  1  0
 33 34  1  0
 18 19  1  0
 19 20  2  0
 20 21  1  0
 21 22  1  0
 14  3  1  0
 20 15  1  0
  9  4  1  0
 33 24  1  0
 22  6  1  0
 31 26  1  0
 40 35  1  0
M  CHG  2  10   1  14  -1
M  END
>  <minimizedAffinity>  (170) 
-17.33828

$$$$
Mol: 147_22 - SminaDock
     RDKit          3D

 43 50  0  0  0  0  0  0  0  0999 V2000
    8.7830    6.1402  -12.3324 C   0  0  0  0  0  0  0  0  0  0  0  0
    9.5836    5.5488  -13.2829 C   0  0  0  0  0  0  0  0  0  0  0  0
    9.1573    4.4083  -13.9741 C   0  0  0  0  0  0  0  0  0  0  0  0
    7.9080    3.9021  -13.6668 C   0  0  0  0  0  0  0  0  0  0  0  0
    7.1165    4.4955  -12.7244 C   0  0  0  0  0  0  0  0  0  0  0  0
    7.5554    5.6240  -12.0479 C   0  0  0  0  0  0  0  0  0  0  0  0
    5.7540    4.0328  -12.4558 C   0  0  0  0  0  0  0  0  0  0  0  0
    5.5216    2.6121  -12.7660 C   0  0  0  0  0  0  0  0  0  0  0  0
    6.2754    2.0912  -13.9192 C   0  0  0  0  0  0  0  0  0  0  0  0
    5.8170    0.9611  -14.5901 C   0  0  0  0  0  0  0  0  0  0  0  0
    6.5645    0.4279  -15.6095 C   0  0  0  0  0  0  0  0  0  0  0  0
    7.7586    0.9585  -16.0085 C   0  0  0  0  0  0  0  0  0  0  0  0
    8.2155    2.0941  -15.3339 C   0  0  0  0  0  0  0  0  0  0  0  0
    7.4756    2.6383  -14.3127 C   0  0  0  0  0  0  0  0  0  0  0  0
    8.2850    0.1484  -17.1148 C   0  0  2  0  0  0  0  0  0  0  0  0
    7.3437   -0.8587  -17.3174 O   0  0  0  0  0  0  0  0  0  0  0  0
    6.2850   -0.7529  -16.4532 C   0  0  0  0  0  0  0  0  0  0  0  0
    5.2599   -1.4942  -16.3645 O   0  0  0  0  0  0  0  0  0  0  0  0
    9.6059   -0.4384  -16.6460 C   0  0  0  0  0  0  0  0  0  0  0  0
   10.7149    0.2766  -17.3765 C   0  0  0  0  0  0  0  0  0  0  0  0
   10.6430   -0.1269  -18.7773 N   0  0  2  0  0  0  0  0  0  0  0  0
   10.7929   -1.1752  -18.7958 H   0  0  0  0  0  0  0  0  0  0  0  0
   11.4302    0.2870  -19.3080 H   0  0  0  0  0  0  0  0  0  0  0  0
    9.3469    0.1571  -19.3130 C   0  0  0  0  0  0  0  0  0  0  0  0
    8.4912    0.9684  -18.3763 C   0  0  0  0  0  0  0  0  0  0  0  0
   11.2918    8.1223   -5.7754 C   0  0  0  0  0  0  0  0  0  0  0  0
   11.3526    9.3340   -6.4652 C   0  0  0  0  0  0  0  0  0  0  0  0
   10.9531    9.3919   -7.7915 C   0  0  0  0  0  0  0  0  0  0  0  0
   10.4908    8.2892   -8.4712 C   0  0  0  0  0  0  0  0  0  0  0  0
   10.4304    7.0955   -7.7927 C   0  0  0  0  0  0  0  0  0  0  0  0
    9.9635    5.9983   -8.4850 C   0  0  0  0  0  0  0  0  0  0  0  0
    9.5727    6.0478   -9.7711 N   0  0  0  0  0  0  0  0  0  0  0  0
    9.6399    7.2250  -10.4158 C   0  0  0  0  0  0  0  0  0  0  0  0
    9.2671    7.3062  -11.6534 N   0  0  0  0  0  0  0  0  0  0  0  0
   10.0972    8.3118   -9.7471 N   0  0  0  0  0  0  0  0  0  0  0  0
   10.1521    9.2322  -10.2422 H   0  0  0  0  0  0  0  0  0  0  0  0
   10.8247    7.0232   -6.4733 C   0  0  0  0  0  0  0  0  0  0  0  0
   12.5058    7.8899   -1.6830 C   0  0  0  0  0  0  0  0  0  0  0  0
   12.1551    6.7554   -2.3826 C   0  0  0  0  0  0  0  0  0  0  0  0
   11.7645    6.8417   -3.7058 C   0  0  0  0  0  0  0  0  0  0  0  0
   11.7067    8.0461   -4.3804 C   0  0  0  0  0  0  0  0  0  0  0  0
   12.0613    9.1697   -3.6627 C   0  0  0  0  0  0  0  0  0  0  0  0
   12.4542    9.0969   -2.3380 C   0  0  0  0  0  0  0  0  0  0  0  0
 38 39  2  0
 39 40  1  0
 40 41  2  0
 41 26  1  0
 26 27  2  0
 27 28  1  0
 28 29  2  0
 29 30  1  0
 30 31  1  0
 31 32  2  0
 32 33  1  0
 33 34  2  0
 34  1  1  0
  1  2  2  0
  2  3  1  0
  3  4  2  0
  4  5  1  0
  5  6  2  0
  5  7  1  0
  7  8  1  0
  8  9  1  0
  9 10  2  0
 10 11  1  0
 11 12  2  0
 12 13  1  0
 13 14  2  0
 12 15  1  0
 15 16  1  0
 16 17  1  0
 17 18  2  0
 15 19  1  1
 19 20  1  0
 20 21  1  0
 21 22  1  1
 21 23  1  0
 21 24  1  0
 24 25  1  0
 33 35  1  0
 35 36  1  0
 30 37  2  0
 41 42  1  0
 42 43  2  0
 43 38  1  0
 37 26  1  0
 35 29  1  0
  6  1  1  0
 14  9  1  0
 25 15  1  0
 14  4  1  0
 17 11  1  0
M  CHG  1  21   1
M  END
>  <minimizedAffinity>  (171) 
-17.32350

$$$$
Mol: 142_9 - SminaDock
     RDKit          3D

 39 45  0  0  0  0  0  0  0  0999 V2000
    8.7464    6.0077  -12.3839 C   0  0  0  0  0  0  0  0  0  0  0  0
    9.4000    5.3012  -13.3628 C   0  0  0  0  0  0  0  0  0  0  0  0
    8.8351    4.1611  -13.9501 C   0  0  0  0  0  0  0  0  0  0  0  0
    7.5823    3.7062  -13.5550 C   0  0  0  0  0  0  0  0  0  0  0  0
    6.9236    4.4092  -12.5797 C   0  0  0  0  0  0  0  0  0  0  0  0
    7.5141    5.5580  -11.9991 C   0  0  0  0  0  0  0  0  0  0  0  0
    5.5643    4.0308  -12.1640 C   0  0  0  0  0  0  0  0  0  0  0  0
    5.1513    2.6728  -12.4949 C   0  0  0  0  0  0  0  0  0  0  0  0
    5.7962    2.0013  -13.6366 C   0  0  0  0  0  0  0  0  0  0  0  0
    7.0102    2.4851  -14.0984 C   0  0  0  0  0  0  0  0  0  0  0  0
    7.6191    1.8046  -15.1231 C   0  0  0  0  0  0  0  0  0  0  0  0
    7.0312    0.6660  -15.6793 C   0  0  0  0  0  0  0  0  0  0  0  0
    7.6594   -0.0005  -16.7060 C   0  0  0  0  0  0  0  0  0  0  0  0
    9.2367    0.6560  -17.2789 S   0  0  0  0  0  0  0  0  0  0  0  0
    7.1129   -1.1116  -17.2685 N   0  0  0  0  0  0  0  0  0  0  0  0
    5.9412   -1.5603  -16.8101 N   0  0  0  0  0  0  0  0  0  0  0  0
    5.5496   -2.4183  -17.2668 H   0  0  0  0  0  0  0  0  0  0  0  0
    5.2770   -0.9394  -15.7969 C   0  0  0  0  0  0  0  0  0  0  0  0
    4.1874   -1.3643  -15.3772 O   0  0  0  0  0  0  0  0  0  0  0  0
    5.8304    0.1915  -15.2222 C   0  0  0  0  0  0  0  0  0  0  0  0
    5.2069    0.8811  -14.1775 C   0  0  0  0  0  0  0  0  0  0  0  0
   11.3595    8.1097   -5.9728 C   0  0  0  0  0  0  0  0  0  0  0  0
   11.5670    9.2739   -6.6963 C   0  0  0  0  0  0  0  0  0  0  0  0
   11.1892    9.2990   -8.0314 C   0  0  0  0  0  0  0  0  0  0  0  0
   10.6204    8.2031   -8.6391 C   0  0  0  0  0  0  0  0  0  0  0  0
   10.4176    7.0588   -7.9241 C   0  0  0  0  0  0  0  0  0  0  0  0
    9.8404    5.9467   -8.5399 C   0  0  0  0  0  0  0  0  0  0  0  0
    9.5036    6.0554   -9.8362 N   0  0  0  0  0  0  0  0  0  0  0  0
    9.6976    7.1745  -10.5501 C   0  0  0  0  0  0  0  0  0  0  0  0
    9.3404    7.1793  -11.7856 N   0  0  0  0  0  0  0  0  0  0  0  0
   10.2516    8.2255   -9.9385 N   0  0  0  0  0  0  0  0  0  0  0  0
   10.4100    9.1024  -10.4764 H   0  0  0  0  0  0  0  0  0  0  0  0
   10.7892    7.0179   -6.5907 C   0  0  0  0  0  0  0  0  0  0  0  0
   12.4266    7.7796   -1.8936 C   0  0  0  0  0  0  0  0  0  0  0  0
   12.0922    6.6481   -2.6145 C   0  0  0  0  0  0  0  0  0  0  0  0
   11.7492    6.7977   -3.9449 C   0  0  0  0  0  0  0  0  0  0  0  0
   11.7255    8.0030   -4.5762 C   0  0  0  0  0  0  0  0  0  0  0  0
   12.0628    9.1164   -3.8370 C   0  0  0  0  0  0  0  0  0  0  0  0
   12.4083    9.0045   -2.5139 C   0  0  0  0  0  0  0  0  0  0  0  0
 34 35  2  0
 35 36  1  0
 36 37  2  0
 37 22  1  0
 22 23  2  0
 23 24  1  0
 24 25  2  0
 25 26  1  0
 26 27  1  0
 27 28  2  0
 28 29  1  0
 29 30  2  0
 30  1  1  0
  1  2  2  0
  2  3  1  0
  3  4  2  0
  4  5  1  0
  5  6  2  0
  5  7  1  0
  7  8  1  0
  8  9  1  0
  9 10  2  0
 10 11  1  0
 11 12  2  0
 12 13  1  0
 13 14  1  0
 13 15  2  0
 15 16  1  0
 16 17  1  0
 16 18  1  0
 18 19  2  0
 18 20  1  0
 20 21  2  0
 29 31  1  0
 31 32  1  0
 26 33  2  0
 37 38  1  0
 38 39  2  0
 39 34  1  0
 33 22  1  0
 31 25  1  0
  6  1  1  0
 21  9  1  0
 10  4  1  0
 20 12  1  0
M  CHG  1  14  -1
M  END
>  <minimizedAffinity>  (172) 
-17.25945

$$$$
Mol: 142_16 - SminaDock
     RDKit          3D

 40 46  0  0  0  0  0  0  0  0999 V2000
   10.4719    2.7999  -16.2615 H   0  0  0  0  0  0  0  0  0  0  0  0
    9.5442    2.9530  -15.8976 O   0  0  0  0  0  0  0  0  0  0  0  0
    8.5883    2.0156  -15.7943 C   0  0  0  0  0  0  0  0  0  0  0  0
    7.6018    1.6484  -15.0427 C   0  0  0  0  0  0  0  0  0  0  0  0
    6.9102    0.5014  -15.4898 C   0  0  0  0  0  0  0  0  0  0  0  0
    5.6659    0.1196  -15.0024 C   0  0  0  0  0  0  0  0  0  0  0  0
    5.0722    0.8635  -14.0563 C   0  0  0  0  0  0  0  0  0  0  0  0
    5.6999    1.9812  -13.5780 C   0  0  0  0  0  0  0  0  0  0  0  0
    6.9439    2.3693  -14.0508 C   0  0  0  0  0  0  0  0  0  0  0  0
    7.4762    3.6276  -13.5989 C   0  0  0  0  0  0  0  0  0  0  0  0
    8.8050    3.8756  -13.8034 C   0  0  0  0  0  0  0  0  0  0  0  0
    9.4292    4.9755  -13.2021 C   0  0  0  0  0  0  0  0  0  0  0  0
    8.6833    5.7877  -12.3983 C   0  0  0  0  0  0  0  0  0  0  0  0
    7.3362    5.5411  -12.1721 C   0  0  0  0  0  0  0  0  0  0  0  0
    6.7492    4.4695  -12.7711 C   0  0  0  0  0  0  0  0  0  0  0  0
    5.2957    4.2186  -12.5181 C   0  0  0  0  0  0  0  0  0  0  0  0
    5.0157    2.7565  -12.5151 C   0  0  0  0  0  0  0  0  0  0  0  0
    3.9801    0.0915  -13.9760 C   0  0  0  0  0  0  0  0  0  0  0  0
    4.5066   -0.8080  -14.9943 C   0  0  0  0  0  0  0  0  0  0  0  0
    8.7548    1.1080  -16.9730 N   0  0  0  0  0  0  0  0  0  0  0  0
    9.4394    0.3538  -16.8970 H   0  0  0  0  0  0  0  0  0  0  0  0
    8.1913    1.2659  -17.8023 H   0  0  0  0  0  0  0  0  0  0  0  0
    9.3203    6.9020  -11.8022 N   0  0  0  0  0  0  0  0  0  0  0  0
    9.6276    6.8564  -10.5515 C   0  0  0  0  0  0  0  0  0  0  0  0
   10.2399    7.9373   -9.9936 N   0  0  0  0  0  0  0  0  0  0  0  0
   10.5985    7.9846   -8.6971 C   0  0  0  0  0  0  0  0  0  0  0  0
   11.2167    9.0829   -8.1348 C   0  0  0  0  0  0  0  0  0  0  0  0
   11.5639    9.0879   -6.7998 C   0  0  0  0  0  0  0  0  0  0  0  0
   11.3171    8.0169   -5.9724 C   0  0  0  0  0  0  0  0  0  0  0  0
   10.6926    6.9087   -6.5439 C   0  0  0  0  0  0  0  0  0  0  0  0
   10.3401    6.8906   -7.8775 C   0  0  0  0  0  0  0  0  0  0  0  0
    9.7214    5.8167   -8.4728 C   0  0  0  0  0  0  0  0  0  0  0  0
    9.3739    5.7960   -9.7706 N   0  0  0  0  0  0  0  0  0  0  0  0
    8.9006    4.9630  -10.2097 H   0  0  0  0  0  0  0  0  0  0  0  0
   11.6848    8.0407   -4.5648 C   0  0  0  0  0  0  0  0  0  0  0  0
   11.6865    6.8793   -3.8183 C   0  0  0  0  0  0  0  0  0  0  0  0
   12.0254    6.8708   -2.4879 C   0  0  0  0  0  0  0  0  0  0  0  0
   12.3861    8.0417   -1.8236 C   0  0  0  0  0  0  0  0  0  0  0  0
   12.3832    9.1987   -2.5728 C   0  0  0  0  0  0  0  0  0  0  0  0
   12.0392    9.2042   -3.9207 C   0  0  0  0  0  0  0  0  0  0  0  0
  1  2  1  0
  2  3  1  0
  3  4  2  0
  4  5  1  0
  5  6  2  0
  6  7  1  0
  7  8  1  0
  8  9  2  0
  9 10  1  0
 10 11  2  0
 11 12  1  0
 12 13  2  0
 13 23  1  0
 23 24  2  0
 24 25  1  0
 25 26  2  0
 26 27  1  0
 27 28  2  0
 28 29  1  0
 29 35  1  0
 35 36  2  0
 36 37  1  0
 37 38  2  0
 38 39  1  0
 39 40  2  0
 29 30  2  0
 30 31  1  0
 31 32  2  0
 32 33  1  0
 33 34  1  0
 13 14  1  0
 14 15  2  0
 15 16  1  0
 16 17  1  0
  7 18  2  0
 18 19  1  0
  3 20  1  0
 20 21  1  0
 20 22  1  0
  9  4  1  0
 15 10  1  0
 19  6  1  0
 17  8  1  0
 33 24  1  0
 31 26  1  0
 40 35  1  0
M  END
>  <minimizedAffinity>  (173) 
-17.27666

$$$$
Mol: 179_14 - SminaDock
     RDKit          3D

 41 48  0  0  0  0  0  0  0  0999 V2000
    7.8750    4.9057  -12.6437 C   0  0  0  0  0  0  0  0  0  0  0  0
    6.6258    4.7631  -12.0553 C   0  0  0  0  0  0  0  0  0  0  0  0
    5.8766    3.6831  -12.4537 C   0  0  0  0  0  0  0  0  0  0  0  0
    6.3081    2.7633  -13.3891 C   0  0  0  0  0  0  0  0  0  0  0  0
    7.5283    2.9132  -13.9549 C   0  0  0  0  0  0  0  0  0  0  0  0
    8.3148    3.9845  -13.5842 C   0  0  0  0  0  0  0  0  0  0  0  0
    7.8308    1.8005  -14.9394 C   0  0  2  0  0  0  0  0  0  0  0  0
    6.5901    1.0054  -14.9122 C   0  0  0  0  0  0  0  0  0  0  0  0
    5.7289    1.5657  -13.9951 C   0  0  0  0  0  0  0  0  0  0  0  0
    4.4906    0.9682  -13.7913 C   0  0  0  0  0  0  0  0  0  0  0  0
    4.0994   -0.1605  -14.4753 C   0  0  0  0  0  0  0  0  0  0  0  0
    4.9455   -0.7254  -15.3896 C   0  0  0  0  0  0  0  0  0  0  0  0
    4.8451   -1.7889  -16.1837 O   0  0  0  0  0  0  0  0  0  0  0  0
    5.9249   -1.9292  -16.8899 C   0  0  0  0  0  0  0  0  0  0  0  0
    6.1774   -2.8247  -17.7444 O   0  0  0  0  0  0  0  0  0  0  0  0
    6.7602   -0.9138  -16.5384 N   0  0  0  0  0  0  0  0  0  0  0  0
    7.7001   -0.7705  -16.9484 H   0  0  0  0  0  0  0  0  0  0  0  0
    6.1856   -0.1394  -15.6027 C   0  0  0  0  0  0  0  0  0  0  0  0
    9.0246    1.1208  -14.3675 C   0  0  0  0  0  0  0  0  0  0  0  0
    9.8216    0.3504  -15.3362 C   0  0  0  0  0  0  0  0  0  0  0  0
    9.9152    0.8007  -16.6103 O   0  0  0  0  0  0  0  0  0  0  0  0
    9.4969    2.0965  -16.8213 C   0  0  0  0  0  0  0  0  0  0  0  0
    8.1395    2.3949  -16.2620 C   0  0  0  0  0  0  0  0  0  0  0  0
   11.1952    7.6523   -6.8310 C   0  0  0  0  0  0  0  0  0  0  0  0
   11.5749    8.5298   -7.8067 C   0  0  0  0  0  0  0  0  0  0  0  0
   11.1443    8.3611   -9.1063 C   0  0  0  0  0  0  0  0  0  0  0  0
   10.3134    7.2976   -9.4660 C   0  0  0  0  0  0  0  0  0  0  0  0
    9.9296    6.4098   -8.4769 C   0  0  0  0  0  0  0  0  0  0  0  0
    9.1072    5.3640   -8.8517 C   0  0  0  0  0  0  0  0  0  0  0  0
    8.6913    5.2046  -10.1165 N   0  0  0  0  0  0  0  0  0  0  0  0
    9.0756    6.0755  -11.0544 C   0  0  0  0  0  0  0  0  0  0  0  0
    8.7238    5.9985  -12.2941 N   0  0  0  0  0  0  0  0  0  0  0  0
    9.8737    7.0941  -10.7013 N   0  0  0  0  0  0  0  0  0  0  0  0
   10.1988    7.8063  -11.4251 H   0  0  0  0  0  0  0  0  0  0  0  0
   10.3742    6.6014   -7.1861 C   0  0  0  0  0  0  0  0  0  0  0  0
   12.4737    8.0882   -2.7982 C   0  0  0  0  0  0  0  0  0  0  0  0
   12.7472    9.0688   -3.7429 C   0  0  0  0  0  0  0  0  0  0  0  0
   12.3341    8.9335   -5.0562 C   0  0  0  0  0  0  0  0  0  0  0  0
   11.6435    7.8136   -5.4331 C   0  0  0  0  0  0  0  0  0  0  0  0
   11.3786    6.8504   -4.4908 C   0  0  0  0  0  0  0  0  0  0  0  0
   11.7802    6.9623   -3.1735 C   0  0  0  0  0  0  0  0  0  0  0  0
 36 37  2  0
 37 38  1  0
 38 39  2  0
 39 24  1  0
 24 25  2  0
 25 26  1  0
 26 27  2  0
 27 28  1  0
 28 29  1  0
 29 30  2  0
 30 31  1  0
 31 32  2  0
 32  1  1  0
  1  2  2  0
  2  3  1  0
  3  4  2  0
  4  5  1  0
  5  6  2  0
  5  7  1  0
  7  8  1  0
  8  9  2  0
  9 10  1  0
 10 11  2  0
 11 12  1  0
 12 13  1  0
 13 14  1  0
 14 15  2  0
 14 16  1  0
 16 17  1  0
 16 18  1  0
  7 19  1  1
 19 20  1  0
 20 21  1  0
 21 22  1  0
 22 23  1  0
 31 33  1  0
 33 34  1  0
 28 35  2  0
 39 40  1  0
 40 41  2  0
 41 36  1  0
 35 24  1  0
 33 27  1  0
  6  1  1  0
 23  7  1  0
  9  4  1  0
 18 12  2  0
 18  8  1  0
M  END
>  <minimizedAffinity>  (174) 
-17.26979

$$$$
Mol: 137_49 - SminaDock
     RDKit          3D

 40 46  0  0  0  0  0  0  0  0999 V2000
    9.5167   -0.2185  -17.3093 H   0  0  0  0  0  0  0  0  0  0  0  0
    8.8174    0.4724  -17.0908 O   0  0  0  0  0  0  0  0  0  0  0  0
    7.5588    0.0650  -16.6603 C   0  0  0  0  0  0  0  0  0  0  0  0
    6.9257    0.7472  -15.6950 C   0  0  0  0  0  0  0  0  0  0  0  0
    7.5489    1.8601  -15.1391 C   0  0  0  0  0  0  0  0  0  0  0  0
    6.9057    2.5588  -14.1539 C   0  0  0  0  0  0  0  0  0  0  0  0
    5.6437    2.1742  -13.7024 C   0  0  0  0  0  0  0  0  0  0  0  0
    5.0185    1.0584  -14.2594 C   0  0  0  0  0  0  0  0  0  0  0  0
    5.6806    0.3705  -15.2472 C   0  0  0  0  0  0  0  0  0  0  0  0
    5.0165   -0.8022  -15.8288 C   0  0  0  0  0  0  0  0  0  0  0  0
    3.8964   -1.1170  -15.4055 O   0  0  0  0  0  0  0  0  0  0  0  0
    5.7070   -1.5398  -16.8761 C   0  0  0  0  0  0  0  0  0  0  0  0
    5.1531   -2.5449  -17.3838 O   0  0  0  0  0  0  0  0  0  0  0  0
    6.9861   -1.0868  -17.2803 N   0  0  0  0  0  0  0  0  0  0  0  0
    5.0323    2.8378  -12.7668 C   0  0  0  0  0  0  0  0  0  0  0  0
    5.5343    4.0139  -12.0841 C   0  0  0  0  0  0  0  0  0  0  0  0
    6.8589    4.4192  -12.5589 C   0  0  0  0  0  0  0  0  0  0  0  0
    7.4686    5.5503  -11.9830 C   0  0  0  0  0  0  0  0  0  0  0  0
    8.7056    5.9322  -12.4230 C   0  0  0  0  0  0  0  0  0  0  0  0
    9.3768    5.2493  -13.4104 C   0  0  0  0  0  0  0  0  0  0  0  0
    8.7845    4.1265  -13.9900 C   0  0  0  0  0  0  0  0  0  0  0  0
    7.5356    3.7475  -13.5402 C   0  0  0  0  0  0  0  0  0  0  0  0
    9.2924    7.0986  -11.8074 N   0  0  0  0  0  0  0  0  0  0  0  0
    9.6244    7.0297  -10.5436 C   0  0  0  0  0  0  0  0  0  0  0  0
    9.4350    5.9150   -9.8152 N   0  0  0  0  0  0  0  0  0  0  0  0
    9.7739    5.8408   -8.5162 C   0  0  0  0  0  0  0  0  0  0  0  0
   10.3387    6.9379   -7.8863 C   0  0  0  0  0  0  0  0  0  0  0  0
   10.6983    6.8993   -6.5566 C   0  0  0  0  0  0  0  0  0  0  0  0
   11.2632    8.0371   -5.9763 C   0  0  0  0  0  0  0  0  0  0  0  0
   11.4659    9.1893   -6.7046 C   0  0  0  0  0  0  0  0  0  0  0  0
   11.1040    9.2194   -8.0319 C   0  0  0  0  0  0  0  0  0  0  0  0
   10.5403    8.0892   -8.6177 C   0  0  0  0  0  0  0  0  0  0  0  0
   10.1730    8.0796   -9.9123 N   0  0  0  0  0  0  0  0  0  0  0  0
   10.3263    8.9550  -10.4686 H   0  0  0  0  0  0  0  0  0  0  0  0
   11.6560    8.0374   -4.5745 C   0  0  0  0  0  0  0  0  0  0  0  0
   12.0115    9.1947   -3.9161 C   0  0  0  0  0  0  0  0  0  0  0  0
   12.3839    9.1918   -2.5832 C   0  0  0  0  0  0  0  0  0  0  0  0
   12.3901    7.9873   -1.9231 C   0  0  0  0  0  0  0  0  0  0  0  0
   12.0370    6.8048   -2.5598 C   0  0  0  0  0  0  0  0  0  0  0  0
   11.6679    6.8399   -3.8977 C   0  0  0  0  0  0  0  0  0  0  0  0
  1  2  1  0
  2  3  1  0
  3  4  2  0
  4  5  1  0
  5  6  2  0
  6  7  1  0
  7  8  1  0
  8  9  2  0
  9 10  1  0
 10 11  2  0
 10 12  1  0
 12 13  2  0
 12 14  1  0
  7 15  2  0
 15 16  1  0
 16 17  1  0
 17 18  2  0
 18 19  1  0
 19 23  1  0
 23 24  2  0
 24 25  1  0
 25 26  2  0
 26 27  1  0
 27 28  2  0
 28 29  1  0
 29 35  1  0
 35 36  2  0
 36 37  1  0
 37 38  2  0
 38 39  1  0
 39 40  2  0
 29 30  2  0
 30 31  1  0
 31 32  2  0
 32 33  1  0
 33 34  1  0
 19 20  2  0
 20 21  1  0
 21 22  2  0
 14  3  1  0
 22 17  1  0
  9  4  1  0
 33 24  1  0
 22  6  1  0
 32 27  1  0
 40 35  1  0
M  CHG  1  14  -1
M  END
>  <minimizedAffinity>  (175) 
-17.32695

$$$$
Mol: 171_9 - SminaDock
     RDKit          3D

 38 44  0  0  0  0  0  0  0  0999 V2000
    6.2969   -2.4626  -16.3348 H   0  0  0  0  0  0  0  0  0  0  0  0
    5.3257   -2.3417  -15.9795 N   0  0  0  0  0  0  0  0  0  0  0  0
    4.9727   -1.3187  -15.2813 C   0  0  0  0  0  0  0  0  0  0  0  0
    5.7891   -0.2643  -14.9080 C   0  0  0  0  0  0  0  0  0  0  0  0
    7.1200    0.0477  -15.1171 C   0  0  0  0  0  0  0  0  0  0  0  0
    7.6891    1.1951  -14.6166 C   0  0  0  0  0  0  0  0  0  0  0  0
    6.9221    2.0664  -13.8849 C   0  0  0  0  0  0  0  0  0  0  0  0
    5.6090    1.7910  -13.6604 C   0  0  0  0  0  0  0  0  0  0  0  0
    5.0421    0.6190  -14.1754 C   0  0  0  0  0  0  0  0  0  0  0  0
    3.8381    0.1152  -14.1150 O   0  0  0  0  0  0  0  0  0  0  0  0
    3.7722   -1.0239  -14.7577 N   0  0  0  0  0  0  0  0  0  0  0  0
    2.9304   -1.6408  -14.8691 H   0  0  0  0  0  0  0  0  0  0  0  0
    4.7194    2.6794  -12.9048 C   0  0  0  0  0  0  0  0  0  0  0  0
    5.3250    3.8746  -12.2752 C   0  0  0  0  0  0  0  0  0  0  0  0
    6.7379    4.1312  -12.5812 C   0  0  0  0  0  0  0  0  0  0  0  0
    7.3443    5.2888  -12.0836 C   0  0  0  0  0  0  0  0  0  0  0  0
    8.6597    5.6073  -12.3047 C   0  0  0  0  0  0  0  0  0  0  0  0
    9.3999    4.7246  -13.0587 C   0  0  0  0  0  0  0  0  0  0  0  0
    8.8574    3.5673  -13.5762 C   0  0  0  0  0  0  0  0  0  0  0  0
    7.5344    3.2870  -13.3306 C   0  0  0  0  0  0  0  0  0  0  0  0
    9.2604    6.7838  -11.7945 N   0  0  0  0  0  0  0  0  0  0  0  0
    9.6065    6.8478  -10.5584 C   0  0  0  0  0  0  0  0  0  0  0  0
    9.3889    5.7871   -9.7708 N   0  0  0  0  0  0  0  0  0  0  0  0
    9.7078    5.7413   -8.4742 C   0  0  0  0  0  0  0  0  0  0  0  0
   10.3037    6.8833   -7.9328 C   0  0  0  0  0  0  0  0  0  0  0  0
   10.6605    6.9083   -6.6011 C   0  0  0  0  0  0  0  0  0  0  0  0
   11.2500    8.0059   -6.0182 C   0  0  0  0  0  0  0  0  0  0  0  0
   11.4768    9.1078   -6.8344 C   0  0  0  0  0  0  0  0  0  0  0  0
   11.1309    9.1038   -8.1558 C   0  0  0  0  0  0  0  0  0  0  0  0
   10.5397    7.9876   -8.7168 C   0  0  0  0  0  0  0  0  0  0  0  0
   10.1828    7.9408  -10.0172 N   0  0  0  0  0  0  0  0  0  0  0  0
   10.3683    8.7856  -10.5981 H   0  0  0  0  0  0  0  0  0  0  0  0
   11.6374    8.0588   -4.6147 C   0  0  0  0  0  0  0  0  0  0  0  0
   11.6474    6.8962   -3.8638 C   0  0  0  0  0  0  0  0  0  0  0  0
   12.0122    6.9414   -2.5379 C   0  0  0  0  0  0  0  0  0  0  0  0
   12.3769    8.1119   -1.9031 C   0  0  0  0  0  0  0  0  0  0  0  0
   12.3681    9.2751   -2.6496 C   0  0  0  0  0  0  0  0  0  0  0  0
   12.0007    9.2294   -3.9845 C   0  0  0  0  0  0  0  0  0  0  0  0
  1  2  1  0
  2  3  2  0
  3  4  1  0
  4  5  2  0
  5  6  1  0
  6  7  2  0
  7  8  1  0
  8  9  2  0
  9 10  1  0
 10 11  1  0
 11 12  1  0
  8 13  1  0
 13 14  1  0
 14 15  1  0
 15 16  2  0
 16 17  1  0
 17 21  1  0
 21 22  2  0
 22 23  1  0
 23 24  2  0
 24 25  1  0
 25 26  2  0
 26 27  1  0
 27 33  1  0
 33 34  2  0
 34 35  1  0
 35 36  2  0
 36 37  1  0
 37 38  2  0
 27 28  2  0
 28 29  1  0
 29 30  2  0
 30 31  1  0
 31 32  1  0
 17 18  2  0
 18 19  1  0
 19 20  2  0
 11  3  1  0
 20 15  1  0
  9  4  1  0
 31 22  1  0
 20  7  1  0
 30 25  1  0
 38 33  1  0
M  END
>  <minimizedAffinity>  (176) 
-17.25695

$$$$
Mol: 140_0 - SminaDock
     RDKit          3D

 42 48  0  0  0  0  0  0  0  0999 V2000
    8.8237    6.0652  -12.3774 C   0  0  0  0  0  0  0  0  0  0  0  0
    9.5203    5.2964  -13.2850 C   0  0  0  0  0  0  0  0  0  0  0  0
    8.9331    4.1532  -13.8369 C   0  0  0  0  0  0  0  0  0  0  0  0
    7.6572    3.7905  -13.4767 C   0  0  0  0  0  0  0  0  0  0  0  0
    6.9580    4.5349  -12.5891 C   0  0  0  0  0  0  0  0  0  0  0  0
    7.5540    5.6892  -12.0316 C   0  0  0  0  0  0  0  0  0  0  0  0
    5.5778    4.2433  -12.2253 C   0  0  0  0  0  0  0  0  0  0  0  0
    5.1333    2.8777  -12.4820 C   0  0  0  0  0  0  0  0  0  0  0  0
    5.8124    2.1519  -13.5608 C   0  0  0  0  0  0  0  0  0  0  0  0
    5.2361    1.0079  -14.1219 C   0  0  0  0  0  0  0  0  0  0  0  0
    5.8935    0.2797  -15.0878 C   0  0  0  0  0  0  0  0  0  0  0  0
    7.1413    0.6745  -15.5173 C   0  0  0  0  0  0  0  0  0  0  0  0
    7.7074    1.8141  -14.9554 C   0  0  0  0  0  0  0  0  0  0  0  0
    7.0574    2.5567  -13.9843 C   0  0  0  0  0  0  0  0  0  0  0  0
    7.6127   -0.2498  -16.5272 C   0  0  0  0  0  0  0  0  0  0  0  0
    8.7350   -0.2146  -17.1662 N   0  0  0  0  0  0  0  0  0  0  0  0
    9.3892    0.5630  -16.9412 H   0  0  0  0  0  0  0  0  0  0  0  0
    9.0522   -1.1870  -18.1229 N   0  0  0  0  0  0  0  0  0  0  0  0
    8.8648   -0.9875  -19.1130 H   0  0  0  0  0  0  0  0  0  0  0  0
    9.4707   -2.0847  -17.7863 H   0  0  0  0  0  0  0  0  0  0  0  0
    6.6032   -1.2425  -16.7112 N   0  0  0  0  0  0  0  0  0  0  0  0
    6.6738   -2.0391  -17.3820 H   0  0  0  0  0  0  0  0  0  0  0  0
    5.5529   -0.9254  -15.8369 C   0  0  0  0  0  0  0  0  0  0  0  0
    4.4758   -1.6059  -15.7342 O   0  0  0  0  0  0  0  0  0  0  0  0
   11.3394    8.1356   -5.9455 C   0  0  0  0  0  0  0  0  0  0  0  0
   11.5207    9.2845   -6.6809 C   0  0  0  0  0  0  0  0  0  0  0  0
   11.1653    9.3535   -8.0240 C   0  0  0  0  0  0  0  0  0  0  0  0
   10.6146    8.2398   -8.6407 C   0  0  0  0  0  0  0  0  0  0  0  0
   10.2589    8.2752   -9.9438 N   0  0  0  0  0  0  0  0  0  0  0  0
    9.7240    7.1996  -10.5498 C   0  0  0  0  0  0  0  0  0  0  0  0
    9.3796    7.2237  -11.7966 N   0  0  0  0  0  0  0  0  0  0  0  0
    9.5460    6.0826   -9.8416 N   0  0  0  0  0  0  0  0  0  0  0  0
    9.1293    5.2039  -10.2674 H   0  0  0  0  0  0  0  0  0  0  0  0
    9.8856    6.0109   -8.5517 C   0  0  0  0  0  0  0  0  0  0  0  0
   10.4305    7.0883   -7.9122 C   0  0  0  0  0  0  0  0  0  0  0  0
   10.7909    7.0528   -6.5917 C   0  0  0  0  0  0  0  0  0  0  0  0
   12.4067    7.9278   -1.8330 C   0  0  0  0  0  0  0  0  0  0  0  0
   12.4029    9.1340   -2.5105 C   0  0  0  0  0  0  0  0  0  0  0  0
   12.0561    9.1611   -3.8245 C   0  0  0  0  0  0  0  0  0  0  0  0
   11.6947    8.0262   -4.5547 C   0  0  0  0  0  0  0  0  0  0  0  0
   11.7044    6.8289   -3.8602 C   0  0  0  0  0  0  0  0  0  0  0  0
   12.0561    6.7904   -2.5216 C   0  0  0  0  0  0  0  0  0  0  0  0
 37 38  2  0
 38 39  1  0
 39 40  2  0
 40 25  1  0
 25 26  1  0
 26 27  2  0
 27 28  1  0
 28 29  2  0
 29 30  1  0
 30 31  2  0
 31  1  1  0
  1  2  2  0
  2  3  1  0
  3  4  2  0
  4  5  1  0
  5  6  2  0
  5  7  1  0
  7  8  1  0
  8  9  1  0
  9 10  2  0
 10 11  1  0
 11 12  2  0
 12 13  1  0
 13 14  2  0
 12 15  1  0
 15 16  2  0
 16 17  1  0
 16 18  1  0
 18 19  1  0
 18 20  1  0
 15 21  1  0
 21 22  1  0
 21 23  1  0
 23 24  2  0
 30 32  1  0
 32 33  1  0
 32 34  1  0
 34 35  2  0
 35 36  1  0
 40 41  1  0
 41 42  2  0
 42 37  1  0
 36 25  2  0
 35 28  1  0
  6  1  1  0
 14  9  1  0
 14  4  1  0
 23 11  1  0
M  CHG  1  16   1
M  END
>  <minimizedAffinity>  (177) 
-17.29764

$$$$
Mol: 139_25 - SminaDock
     RDKit          3D

 44 51  0  0  0  0  0  0  0  0999 V2000
    3.2583   -0.4663  -14.1340 C   0  0  0  0  0  0  0  0  0  0  0  0
    3.8348    0.6400  -13.6310 N   0  0  0  0  0  0  0  0  0  0  0  0
    5.0448    1.0533  -14.0529 C   0  0  0  0  0  0  0  0  0  0  0  0
    5.6533    2.2082  -13.5321 C   0  0  0  0  0  0  0  0  0  0  0  0
    6.8813    2.6032  -13.9789 C   0  0  0  0  0  0  0  0  0  0  0  0
    7.5285    1.8715  -14.9409 C   0  0  0  0  0  0  0  0  0  0  0  0
    6.8919    0.7149  -15.4464 C   0  0  0  0  0  0  0  0  0  0  0  0
    5.6629    0.2955  -15.0183 C   0  0  0  0  0  0  0  0  0  0  0  0
    5.0909   -0.8520  -15.5560 C   0  0  0  0  0  0  0  0  0  0  0  0
    3.8502   -1.2501  -15.1035 C   0  0  0  0  0  0  0  0  0  0  0  0
    8.8473    2.2434  -15.4380 C   0  0  0  0  0  0  0  0  0  0  0  0
    9.4397    3.4932  -14.9575 C   0  0  1  0  0  0  0  0  0  0  0  0
   10.8418    3.1917  -14.4579 C   0  0  0  0  0  0  0  0  0  0  0  0
   11.0575    2.9400  -13.2495 O   0  0  0  0  0  0  0  0  0  0  0  0
   11.6898    3.2657  -15.5693 N   0  0  0  0  0  0  0  0  0  0  0  0
   12.6458    2.8433  -15.6044 H   0  0  0  0  0  0  0  0  0  0  0  0
   10.9986    4.0053  -16.5892 C   0  0  0  0  0  0  0  0  0  0  0  0
   11.5037    4.2418  -17.7132 O   0  0  0  0  0  0  0  0  0  0  0  0
    9.7311    4.3756  -16.0871 N   0  0  0  0  0  0  0  0  0  0  0  0
    9.1115    5.1171  -16.4295 H   0  0  0  0  0  0  0  0  0  0  0  0
    8.7182    4.2283  -13.9000 C   0  0  0  0  0  0  0  0  0  0  0  0
    9.3189    5.3606  -13.3964 C   0  0  0  0  0  0  0  0  0  0  0  0
    8.6922    6.0992  -12.4189 C   0  0  0  0  0  0  0  0  0  0  0  0
    7.4696    5.6837  -11.9653 C   0  0  0  0  0  0  0  0  0  0  0  0
    6.8446    4.5587  -12.4472 C   0  0  0  0  0  0  0  0  0  0  0  0
    7.4722    3.8204  -13.4248 C   0  0  0  0  0  0  0  0  0  0  0  0
    9.2739    7.2788  -11.8666 N   0  0  0  0  0  0  0  0  0  0  0  0
    9.6321    7.2630  -10.6316 C   0  0  0  0  0  0  0  0  0  0  0  0
   10.1952    8.3663  -10.0507 N   0  0  0  0  0  0  0  0  0  0  0  0
   10.5596    8.3200   -8.7574 C   0  0  0  0  0  0  0  0  0  0  0  0
   11.1358    9.3920   -8.0953 C   0  0  0  0  0  0  0  0  0  0  0  0
   11.5080    9.3379   -6.7663 C   0  0  0  0  0  0  0  0  0  0  0  0
   11.3037    8.1752   -6.0569 C   0  0  0  0  0  0  0  0  0  0  0  0
   10.7280    7.0717   -6.6797 C   0  0  0  0  0  0  0  0  0  0  0  0
   10.3718    7.1699   -8.0074 C   0  0  0  0  0  0  0  0  0  0  0  0
    9.8047    6.0713   -8.6074 C   0  0  0  0  0  0  0  0  0  0  0  0
    9.4521    6.1520   -9.9020 N   0  0  0  0  0  0  0  0  0  0  0  0
    9.0245    5.2899  -10.3137 H   0  0  0  0  0  0  0  0  0  0  0  0
   11.6713    8.0498   -4.6623 C   0  0  0  0  0  0  0  0  0  0  0  0
   12.0473    9.2108   -4.0016 C   0  0  0  0  0  0  0  0  0  0  0  0
   12.3983    9.0919   -2.6715 C   0  0  0  0  0  0  0  0  0  0  0  0
   12.3724    7.8613   -2.0339 C   0  0  0  0  0  0  0  0  0  0  0  0
   11.9914    6.7084   -2.7168 C   0  0  0  0  0  0  0  0  0  0  0  0
   11.6404    6.8301   -4.0486 C   0  0  0  0  0  0  0  0  0  0  0  0
  1  2  2  0
  2  3  1  0
  3  4  2  0
  4  5  1  0
  5  6  2  0
  6  7  1  0
  7  8  2  0
  8  9  1  0
  9 10  2  0
  6 11  1  0
 12 11  1  6
 12 13  1  0
 13 14  2  0
 13 15  1  0
 15 16  1  0
 15 17  1  0
 17 18  2  0
 17 19  1  0
 19 20  1  0
 12 21  1  0
 21 22  2  0
 22 23  1  0
 23 27  1  0
 27 28  2  0
 28 29  1  0
 29 30  2  0
 30 31  1  0
 31 32  2  0
 32 33  1  0
 33 39  1  0
 39 40  2  0
 40 41  1  0
 41 42  2  0
 42 43  1  0
 43 44  2  0
 33 34  2  0
 34 35  1  0
 35 36  2  0
 36 37  1  0
 37 38  1  0
 23 24  2  0
 24 25  1  0
 25 26  2  0
 10  1  1  0
 12 19  1  0
 26 21  1  0
  8  3  1  0
 37 28  1  0
 26  5  1  0
 35 30  1  0
 44 39  1  0
M  END
>  <minimizedAffinity>  (178) 
-17.32700

$$$$
Mol: 140_45 - SminaDock
     RDKit          3D

 39 45  0  0  0  0  0  0  0  0999 V2000
    8.8190    5.6832  -12.2625 C   0  0  0  0  0  0  0  0  0  0  0  0
    9.6330    4.7660  -12.8584 C   0  0  0  0  0  0  0  0  0  0  0  0
    9.1396    3.5885  -13.4424 C   0  0  0  0  0  0  0  0  0  0  0  0
   10.1101    2.7415  -13.9742 N   0  0  0  0  0  0  0  0  0  0  0  0
   10.5518    1.9360  -13.4300 H   0  0  0  0  0  0  0  0  0  0  0  0
   10.5182    2.8590  -14.9503 H   0  0  0  0  0  0  0  0  0  0  0  0
    7.7836    3.3846  -13.3954 C   0  0  0  0  0  0  0  0  0  0  0  0
    6.9466    4.3061  -12.7981 C   0  0  0  0  0  0  0  0  0  0  0  0
    7.4745    5.4616  -12.2271 C   0  0  0  0  0  0  0  0  0  0  0  0
    5.4826    4.1444  -12.8500 C   0  0  0  0  0  0  0  0  0  0  0  0
    5.0327    2.7394  -12.7775 C   0  0  0  0  0  0  0  0  0  0  0  0
    5.8365    1.8521  -13.6386 C   0  0  0  0  0  0  0  0  0  0  0  0
    7.1943    2.1072  -13.8458 C   0  0  0  0  0  0  0  0  0  0  0  0
    7.9561    1.2354  -14.5663 C   0  0  0  0  0  0  0  0  0  0  0  0
    7.3382    0.0833  -15.0900 C   0  0  0  0  0  0  0  0  0  0  0  0
    6.0123   -0.1492  -14.8807 C   0  0  0  0  0  0  0  0  0  0  0  0
    5.2300    0.7166  -14.1583 C   0  0  0  0  0  0  0  0  0  0  0  0
    3.8435    0.1834  -14.1133 C   0  0  0  0  0  0  0  0  0  0  0  0
    3.9107   -1.0157  -14.8438 O   0  0  0  0  0  0  0  0  0  0  0  0
    5.1733   -1.2558  -15.3194 C   0  0  0  0  0  0  0  0  0  0  0  0
    5.5143   -2.2608  -16.0084 O   0  0  0  0  0  0  0  0  0  0  0  0
   11.3248    8.0884   -5.8872 C   0  0  0  0  0  0  0  0  0  0  0  0
   11.4901    9.1877   -6.6728 C   0  0  0  0  0  0  0  0  0  0  0  0
   11.1316    9.1756   -8.0104 C   0  0  0  0  0  0  0  0  0  0  0  0
   10.5948    8.0465   -8.5887 C   0  0  0  0  0  0  0  0  0  0  0  0
   10.2320    7.9829   -9.8767 N   0  0  0  0  0  0  0  0  0  0  0  0
    9.7094    6.8939  -10.4531 C   0  0  0  0  0  0  0  0  0  0  0  0
    9.3778    6.8722  -11.6768 N   0  0  0  0  0  0  0  0  0  0  0  0
    9.5395    5.7991   -9.6909 N   0  0  0  0  0  0  0  0  0  0  0  0
    9.1283    4.9159  -10.1110 H   0  0  0  0  0  0  0  0  0  0  0  0
    9.8882    5.8141   -8.3939 C   0  0  0  0  0  0  0  0  0  0  0  0
   10.4252    6.9316   -7.7992 C   0  0  0  0  0  0  0  0  0  0  0  0
   10.7886    6.9528   -6.4548 C   0  0  0  0  0  0  0  0  0  0  0  0
   12.4020    8.0443   -1.7770 C   0  0  0  0  0  0  0  0  0  0  0  0
   12.4116    9.2073   -2.5106 C   0  0  0  0  0  0  0  0  0  0  0  0
   12.0658    9.2427   -3.8437 C   0  0  0  0  0  0  0  0  0  0  0  0
   11.6945    8.0804   -4.4806 C   0  0  0  0  0  0  0  0  0  0  0  0
   11.6814    6.9005   -3.7491 C   0  0  0  0  0  0  0  0  0  0  0  0
   12.0315    6.8819   -2.4111 C   0  0  0  0  0  0  0  0  0  0  0  0
 34 35  2  0
 35 36  1  0
 36 37  2  0
 37 22  1  0
 22 23  1  0
 23 24  2  0
 24 25  1  0
 25 26  2  0
 26 27  1  0
 27 28  2  0
 28  1  1  0
  1  2  2  0
  2  3  1  0
  3  4  1  0
  4  5  1  0
  4  6  1  0
  3  7  2  0
  7  8  1  0
  8  9  2  0
  8 10  1  0
 10 11  1  0
 11 12  1  0
 12 13  2  0
 13 14  1  0
 14 15  2  0
 15 16  1  0
 16 17  2  0
 17 18  1  0
 18 19  1  0
 19 20  1  0
 20 21  2  0
 27 29  1  0
 29 30  1  0
 29 31  1  0
 31 32  2  0
 32 33  1  0
 37 38  1  0
 38 39  2  0
 39 34  1  0
 33 22  2  0
 32 25  1  0
  9  1  1  0
 17 12  1  0
 13  7  1  0
 20 16  1  0
M  END
>  <minimizedAffinity>  (179) 
-17.31267

$$$$
Mol: 111_27 - SminaDock
     RDKit          3D

 42 48  0  0  0  0  0  0  0  0999 V2000
    7.8541    4.6425  -12.7893 C   0  0  0  0  0  0  0  0  0  0  0  0
    6.5190    4.4949  -12.5029 C   0  0  0  0  0  0  0  0  0  0  0  0
    5.8073    3.3853  -12.9417 C   0  0  0  0  0  0  0  0  0  0  0  0
    6.4703    2.4209  -13.6796 C   0  0  0  0  0  0  0  0  0  0  0  0
    7.8175    2.5518  -13.9862 C   0  0  0  0  0  0  0  0  0  0  0  0
    8.4943    3.6520  -13.5391 C   0  0  0  0  0  0  0  0  0  0  0  0
    8.4173    1.5597  -14.9135 C   0  0  2  0  0  0  0  0  0  0  0  0
    9.8890    1.7001  -14.8866 C   0  0  0  0  0  0  0  0  0  0  0  0
   10.6105    0.8929  -14.2405 O   0  0  0  0  0  0  0  0  0  0  0  0
   10.5091    2.7508  -15.5921 N   0  0  0  0  0  0  0  0  0  0  0  0
   11.4721    3.1181  -15.3446 H   0  0  0  0  0  0  0  0  0  0  0  0
    9.8904    3.4045  -16.6962 C   0  0  0  0  0  0  0  0  0  0  0  0
   10.4225    4.3359  -17.3309 O   0  0  0  0  0  0  0  0  0  0  0  0
    8.5912    2.9123  -17.0363 N   0  0  0  0  0  0  0  0  0  0  0  0
    8.0888    3.3704  -17.8543 H   0  0  0  0  0  0  0  0  0  0  0  0
    7.9772    1.8607  -16.3300 C   0  0  0  0  0  0  0  0  0  0  0  0
    7.0667    1.1804  -16.8860 O   0  0  0  0  0  0  0  0  0  0  0  0
    7.9646    0.1933  -14.5808 C   0  0  0  0  0  0  0  0  0  0  0  0
    6.4879    0.1059  -14.5738 C   0  0  0  0  0  0  0  0  0  0  0  0
    5.8295   -1.0260  -15.0076 C   0  0  0  0  0  0  0  0  0  0  0  0
    4.4679   -1.1267  -14.8679 C   0  0  0  0  0  0  0  0  0  0  0  0
    3.7764   -0.0921  -14.2946 C   0  0  0  0  0  0  0  0  0  0  0  0
    4.4023    1.0649  -13.8475 C   0  0  0  0  0  0  0  0  0  0  0  0
    5.7805    1.1472  -14.0006 C   0  0  0  0  0  0  0  0  0  0  0  0
   11.1074    7.5896   -6.8669 C   0  0  0  0  0  0  0  0  0  0  0  0
   11.3401    8.5256   -7.8692 C   0  0  0  0  0  0  0  0  0  0  0  0
   10.8764    8.3207   -9.1464 C   0  0  0  0  0  0  0  0  0  0  0  0
   10.1682    7.1939   -9.4919 C   0  0  0  0  0  0  0  0  0  0  0  0
    9.9305    6.2577   -8.5079 C   0  0  0  0  0  0  0  0  0  0  0  0
   10.3995    6.4704   -7.2269 C   0  0  0  0  0  0  0  0  0  0  0  0
    9.2225    5.1354   -8.8572 C   0  0  0  0  0  0  0  0  0  0  0  0
    8.7630    4.9580  -10.1678 C   0  0  0  0  0  0  0  0  0  0  0  0
    9.0157    5.9103  -11.1295 C   0  0  0  0  0  0  0  0  0  0  0  0
    8.5966    5.7680  -12.3448 N   0  0  0  0  0  0  0  0  0  0  0  0
    9.7114    6.9986  -10.7583 N   0  0  0  0  0  0  0  0  0  0  0  0
    9.9130    7.7313  -11.4743 H   0  0  0  0  0  0  0  0  0  0  0  0
   12.5563    8.2494   -2.9055 C   0  0  0  0  0  0  0  0  0  0  0  0
   11.8581    7.1056   -3.2371 C   0  0  0  0  0  0  0  0  0  0  0  0
   11.3949    6.8998   -4.5124 C   0  0  0  0  0  0  0  0  0  0  0  0
   11.6085    7.8263   -5.5117 C   0  0  0  0  0  0  0  0  0  0  0  0
   12.3060    8.9672   -5.1775 C   0  0  0  0  0  0  0  0  0  0  0  0
   12.7813    9.1947   -3.8991 C   0  0  0  0  0  0  0  0  0  0  0  0
 37 38  2  0
 38 39  1  0
 39 40  2  0
 40 25  1  0
 25 26  2  0
 26 27  1  0
 27 28  2  0
 28 29  1  0
 29 30  2  0
 29 31  1  0
 31 32  2  0
 32 33  1  0
 33 34  2  0
 34  1  1  0
  1  2  2  0
  2  3  1  0
  3  4  2  0
  4  5  1  0
  5  6  2  0
  5  7  1  0
  7  8  1  0
  8  9  2  0
  8 10  1  0
 10 11  1  0
 10 12  1  0
 12 13  2  0
 12 14  1  0
 14 15  1  0
 14 16  1  0
 16 17  2  0
  7 18  1  1
 18 19  1  0
 19 20  2  0
 20 21  1  0
 21 22  2  0
 22 23  1  0
 23 24  2  0
 33 35  1  0
 35 36  1  0
 40 41  1  0
 41 42  2  0
 42 37  1  0
 30 25  1  0
  6  1  1  0
 16  7  1  0
 24 19  1  0
 35 28  1  0
 24  4  1  0
M  END
>  <minimizedAffinity>  (180) 
-17.34239

$$$$
Mol: 130_48 - SminaDock
     RDKit          3D

 42 49  0  0  0  0  0  0  0  0999 V2000
   12.5518    3.6243  -15.2121 H   0  0  0  0  0  0  0  0  0  0  0  0
   11.8195    3.7907  -15.8352 O   0  0  0  0  0  0  0  0  0  0  0  0
   11.3687    2.6189  -16.4602 C   0  0  2  0  0  0  0  0  0  0  0  0
   10.0526    3.0021  -17.1541 C   0  0  0  0  0  0  0  0  0  0  0  0
    9.3522    3.8974  -16.1417 C   0  0  0  0  0  0  0  0  0  0  0  0
    8.8915    2.9964  -14.9936 C   0  0  1  0  0  0  0  0  0  0  0  0
    8.3368    3.7772  -13.9003 C   0  0  0  0  0  0  0  0  0  0  0  0
    9.0873    4.8607  -13.3955 C   0  0  0  0  0  0  0  0  0  0  0  0
    8.6152    5.6150  -12.3431 C   0  0  0  0  0  0  0  0  0  0  0  0
    7.3943    5.3095  -11.7737 C   0  0  0  0  0  0  0  0  0  0  0  0
    6.6321    4.2618  -12.2363 C   0  0  0  0  0  0  0  0  0  0  0  0
    7.1381    3.5132  -13.3080 C   0  0  0  0  0  0  0  0  0  0  0  0
    6.3525    2.4103  -13.8435 C   0  0  0  0  0  0  0  0  0  0  0  0
    5.1686    1.9352  -13.4228 N   0  0  0  0  0  0  0  0  0  0  0  0
    4.8168    0.8783  -14.1947 C   0  0  0  0  0  0  0  0  0  0  0  0
    3.7376    0.0253  -14.2215 C   0  0  0  0  0  0  0  0  0  0  0  0
    3.7073   -0.9666  -15.1701 C   0  0  0  0  0  0  0  0  0  0  0  0
    4.7296   -1.1195  -16.0855 C   0  0  0  0  0  0  0  0  0  0  0  0
    5.7870   -0.2597  -16.0357 C   0  0  0  0  0  0  0  0  0  0  0  0
    5.8403    0.7295  -15.1069 C   0  0  0  0  0  0  0  0  0  0  0  0
    6.7754    1.6853  -14.8717 N   0  0  0  0  0  0  0  0  0  0  0  0
    7.9977    1.9703  -15.5466 C   0  0  0  0  0  0  0  0  0  0  0  0
   10.1099    2.2807  -14.3910 C   0  0  0  0  0  0  0  0  0  0  0  0
   10.9784    1.6174  -15.3957 C   0  0  0  0  0  0  0  0  0  0  0  0
    9.3980    6.6949  -11.8654 N   0  0  0  0  0  0  0  0  0  0  0  0
    9.7238    6.7883  -10.6238 C   0  0  0  0  0  0  0  0  0  0  0  0
    9.2971    5.8256   -9.7891 N   0  0  0  0  0  0  0  0  0  0  0  0
    9.5747    5.8177   -8.4741 C   0  0  0  0  0  0  0  0  0  0  0  0
   10.3440    6.8752   -7.9925 C   0  0  0  0  0  0  0  0  0  0  0  0
   10.6804    6.9562   -6.6659 C   0  0  0  0  0  0  0  0  0  0  0  0
   11.4351    7.9828   -6.1635 C   0  0  0  0  0  0  0  0  0  0  0  0
   11.8689    8.9589   -7.0045 C   0  0  0  0  0  0  0  0  0  0  0  0
   11.5458    8.9025   -8.3416 C   0  0  0  0  0  0  0  0  0  0  0  0
   10.7830    7.8585   -8.8315 C   0  0  0  0  0  0  0  0  0  0  0  0
   10.4650    7.8003  -10.1394 N   0  0  0  0  0  0  0  0  0  0  0  0
   10.8064    8.5556  -10.7640 H   0  0  0  0  0  0  0  0  0  0  0  0
   11.7255    7.9556   -4.7335 C   0  0  0  0  0  0  0  0  0  0  0  0
   11.6593    6.8052   -3.9816 C   0  0  0  0  0  0  0  0  0  0  0  0
   11.9420    6.8101   -2.6203 C   0  0  0  0  0  0  0  0  0  0  0  0
   12.2931    7.9785   -2.0115 C   0  0  0  0  0  0  0  0  0  0  0  0
   12.3566    9.1308   -2.7775 C   0  0  0  0  0  0  0  0  0  0  0  0
   12.0800    9.1401   -4.1232 C   0  0  0  0  0  0  0  0  0  0  0  0
  1  2  1  0
  3  2  1  1
  3  4  1  0
  4  5  1  0
  6  5  1  6
  6  7  1  0
  7  8  2  0
  8  9  1  0
  9 25  1  0
 25 26  2  0
 26 27  1  0
 27 28  2  0
 28 29  1  0
 29 30  2  0
 30 31  1  0
 31 37  1  0
 37 38  2  0
 38 39  1  0
 39 40  2  0
 40 41  1  0
 41 42  2  0
 31 32  2  0
 32 33  1  0
 33 34  2  0
 34 35  1  0
 35 36  1  0
  9 10  2  0
 10 11  1  0
 11 12  2  0
 12 13  1  0
 13 14  2  0
 14 15  1  0
 15 16  2  0
 16 17  1  0
 17 18  2  0
 18 19  1  0
 19 20  2  0
 20 21  1  0
 21 22  1  0
  6 23  1  0
 23 24  1  0
 24  3  1  0
 22  6  1  0
 12  7  1  0
 21 13  1  0
 35 26  1  0
 20 15  1  0
 34 29  1  0
 42 37  1  0
M  END
>  <minimizedAffinity>  (181) 
-17.32994

$$$$
Mol: 191_20 - SminaDock
     RDKit          3D

 44 51  0  0  0  0  0  0  0  0999 V2000
   10.9487    0.2914  -13.4663 H   0  0  0  0  0  0  0  0  0  0  0  0
   10.8079    0.2271  -14.4806 O   0  0  0  0  0  0  0  0  0  0  0  0
    9.7426    0.9737  -15.0488 C   0  0  0  0  0  0  0  0  0  0  0  0
    8.6709    1.1678  -14.3947 N   0  0  0  0  0  0  0  0  0  0  0  0
    7.5189    1.9040  -14.8526 C   0  0  2  0  0  0  0  0  0  0  0  0
    7.7077    2.4438  -16.2301 C   0  0  0  0  0  0  0  0  0  0  0  0
    8.8061    2.2465  -16.9046 C   0  0  0  0  0  0  0  0  0  0  0  0
    8.9549    2.7589  -18.1817 O   0  0  0  0  0  0  0  0  0  0  0  0
    8.9874    2.0981  -18.9479 H   0  0  0  0  0  0  0  0  0  0  0  0
    9.8802    1.5046  -16.3559 N   0  0  0  0  0  0  0  0  0  0  0  0
   11.1051    1.2870  -17.1129 C   0  0  0  0  0  0  0  0  0  0  0  0
    7.3183    3.0079  -13.8782 C   0  0  0  0  0  0  0  0  0  0  0  0
    8.1128    4.0783  -13.5245 C   0  0  0  0  0  0  0  0  0  0  0  0
    7.7093    5.0054  -12.5659 C   0  0  0  0  0  0  0  0  0  0  0  0
    6.4747    4.7925  -11.9930 C   0  0  0  0  0  0  0  0  0  0  0  0
    5.6473    3.7400  -12.3132 C   0  0  0  0  0  0  0  0  0  0  0  0
    6.0914    2.8315  -13.2817 C   0  0  0  0  0  0  0  0  0  0  0  0
    5.4626    1.6416  -13.8274 C   0  0  0  0  0  0  0  0  0  0  0  0
    4.2461    1.0300  -13.5745 C   0  0  0  0  0  0  0  0  0  0  0  0
    3.8946   -0.1188  -14.2547 C   0  0  0  0  0  0  0  0  0  0  0  0
    4.7537   -0.6606  -15.1877 C   0  0  0  0  0  0  0  0  0  0  0  0
    4.6743   -1.7230  -15.9634 O   0  0  0  0  0  0  0  0  0  0  0  0
    5.7449   -1.8507  -16.7021 N   0  0  0  0  0  0  0  0  0  0  0  0
    6.5735   -0.8403  -16.4142 C   0  0  0  0  0  0  0  0  0  0  0  0
    5.9685   -0.0698  -15.4558 C   0  0  0  0  0  0  0  0  0  0  0  0
    6.2973    1.0858  -14.7568 C   0  0  0  0  0  0  0  0  0  0  0  0
    8.5417    6.1013  -12.2148 N   0  0  0  0  0  0  0  0  0  0  0  0
    8.9659    6.2135  -11.0108 C   0  0  0  0  0  0  0  0  0  0  0  0
    8.6383    5.2969  -10.0340 C   0  0  0  0  0  0  0  0  0  0  0  0
    9.0892    5.4031   -8.7258 C   0  0  0  0  0  0  0  0  0  0  0  0
    9.8988    6.4606   -8.3675 C   0  0  0  0  0  0  0  0  0  0  0  0
   10.3736    6.6085   -7.0735 C   0  0  0  0  0  0  0  0  0  0  0  0
   11.1792    7.6686   -6.7354 C   0  0  0  0  0  0  0  0  0  0  0  0
   11.4891    8.5692   -7.7363 C   0  0  0  0  0  0  0  0  0  0  0  0
   11.0254    8.4302   -9.0123 C   0  0  0  0  0  0  0  0  0  0  0  0
   10.2130    7.3662   -9.3649 C   0  0  0  0  0  0  0  0  0  0  0  0
    9.7597    7.2361  -10.6263 N   0  0  0  0  0  0  0  0  0  0  0  0
   10.0311    7.9598  -11.3542 H   0  0  0  0  0  0  0  0  0  0  0  0
   11.6800    7.8245   -5.3710 C   0  0  0  0  0  0  0  0  0  0  0  0
   12.3815    8.9547   -4.9828 C   0  0  0  0  0  0  0  0  0  0  0  0
   12.8516    9.0882   -3.6802 C   0  0  0  0  0  0  0  0  0  0  0  0
   12.6160    8.0847   -2.7682 C   0  0  0  0  0  0  0  0  0  0  0  0
   11.9165    6.9422   -3.1290 C   0  0  0  0  0  0  0  0  0  0  0  0
   11.4685    6.8505   -4.4298 C   0  0  0  0  0  0  0  0  0  0  0  0
  1  2  1  0
  2  3  1  0
  3  4  2  0
  5  4  1  0
  5  6  1  6
  6  7  2  0
  7  8  1  0
  8  9  1  0
  7 10  1  0
 10 11  1  0
  5 12  1  0
 12 13  2  0
 13 14  1  0
 14 27  1  0
 27 28  2  0
 28 29  1  0
 29 30  2  0
 30 31  1  0
 31 32  2  0
 32 33  1  0
 33 39  1  0
 39 40  2  0
 40 41  1  0
 41 42  2  0
 42 43  1  0
 43 44  2  0
 33 34  2  0
 34 35  1  0
 35 36  2  0
 36 37  1  0
 37 38  1  0
 14 15  2  0
 15 16  1  0
 16 17  2  0
 17 18  1  0
 18 19  2  0
 19 20  1  0
 20 21  2  0
 21 22  1  0
 22 23  1  0
 23 24  2  0
 24 25  1  0
 25 26  2  0
 10  3  1  0
 17 12  1  0
 26 18  1  0
 26  5  1  0
 37 28  1  0
 25 21  1  0
 36 31  1  0
 44 39  1  0
M  END
>  <minimizedAffinity>  (182) 
-17.28707

$$$$
Mol: 183_1 - SminaDock
     RDKit          3D

 43 50  0  0  0  0  0  0  0  0999 V2000
    5.5720   -3.2496  -18.7560 H   0  0  0  0  0  0  0  0  0  0  0  0
    4.8619   -2.9531  -18.1006 O   0  0  0  0  0  0  0  0  0  0  0  0
    5.1944   -1.8661  -17.2756 C   0  0  0  0  0  0  0  0  0  0  0  0
    6.4301   -1.3343  -17.2795 N   0  0  0  0  0  0  0  0  0  0  0  0
    6.7986   -0.2869  -16.5028 C   0  0  0  0  0  0  0  0  0  0  0  0
    7.8881    0.4193  -16.2984 N   0  0  0  0  0  0  0  0  0  0  0  0
    7.7165    1.4062  -15.3698 C   0  0  0  0  0  0  0  0  0  0  0  0
    6.4080    1.2980  -14.9680 C   0  0  0  0  0  0  0  0  0  0  0  0
    5.7693    0.2597  -15.6338 C   0  0  0  0  0  0  0  0  0  0  0  0
    4.5072   -0.2922  -15.6377 C   0  0  0  0  0  0  0  0  0  0  0  0
    4.2057   -1.3603  -16.4579 C   0  0  0  0  0  0  0  0  0  0  0  0
    5.8585    2.2066  -13.9703 C   0  0  0  0  0  0  0  0  0  0  0  0
    4.6713    2.0887  -13.6225 O   0  0  0  0  0  0  0  0  0  0  0  0
    6.7453    3.2080  -13.4367 C   0  0  0  0  0  0  0  0  0  0  0  0
    6.2036    4.0712  -12.4843 C   0  0  0  0  0  0  0  0  0  0  0  0
    6.9734    5.0626  -11.9180 C   0  0  0  0  0  0  0  0  0  0  0  0
    8.2860    5.1721  -12.3205 C   0  0  0  0  0  0  0  0  0  0  0  0
    8.8010    4.3121  -13.2601 C   0  0  0  0  0  0  0  0  0  0  0  0
    8.0506    3.2949  -13.8561 C   0  0  0  0  0  0  0  0  0  0  0  0
    8.6705    2.4226  -14.8427 C   0  0  1  0  0  0  0  0  0  0  0  0
    9.8699    1.6779  -14.3106 C   0  0  0  0  0  0  0  0  0  0  0  0
   10.5722    0.9295  -15.4143 C   0  0  0  0  0  0  0  0  0  0  0  0
   10.8853    1.7959  -16.6043 C   0  0  0  0  0  0  0  0  0  0  0  0
   10.5253    3.2440  -16.3394 C   0  0  0  0  0  0  0  0  0  0  0  0
    9.0504    3.3141  -16.0334 C   0  0  0  0  0  0  0  0  0  0  0  0
    9.1288    6.1630  -11.7813 N   0  0  0  0  0  0  0  0  0  0  0  0
    9.4377    6.3022  -10.5586 C   0  0  0  0  0  0  0  0  0  0  0  0
   10.2563    7.2931  -10.1656 N   0  0  0  0  0  0  0  0  0  0  0  0
   10.6093    7.4768   -8.8767 C   0  0  0  0  0  0  0  0  0  0  0  0
   11.4508    8.4979   -8.4853 C   0  0  0  0  0  0  0  0  0  0  0  0
   11.7870    8.6513   -7.1591 C   0  0  0  0  0  0  0  0  0  0  0  0
   11.3073    7.8060   -6.1718 C   0  0  0  0  0  0  0  0  0  0  0  0
   10.4677    6.7901   -6.5755 C   0  0  0  0  0  0  0  0  0  0  0  0
   10.1256    6.6328   -7.9198 C   0  0  0  0  0  0  0  0  0  0  0  0
    9.2823    5.6098   -8.3135 C   0  0  0  0  0  0  0  0  0  0  0  0
    8.9624    5.4724   -9.6160 N   0  0  0  0  0  0  0  0  0  0  0  0
    8.3245    4.6899   -9.8742 H   0  0  0  0  0  0  0  0  0  0  0  0
   11.6736    7.9820   -4.7688 C   0  0  0  0  0  0  0  0  0  0  0  0
   11.6677    6.8909   -3.9255 C   0  0  0  0  0  0  0  0  0  0  0  0
   12.0044    6.9908   -2.5869 C   0  0  0  0  0  0  0  0  0  0  0  0
   12.3620    8.2107   -2.0510 C   0  0  0  0  0  0  0  0  0  0  0  0
   12.3722    9.3121   -2.8843 C   0  0  0  0  0  0  0  0  0  0  0  0
   12.0322    9.2009   -4.2278 C   0  0  0  0  0  0  0  0  0  0  0  0
  1  2  1  0
  2  3  1  0
  3  4  1  0
  4  5  1  0
  5  6  2  0
  6  7  1  0
  7  8  2  0
  8  9  1  0
  9 10  2  0
 10 11  1  0
  8 12  1  0
 12 13  2  0
 12 14  1  0
 14 15  2  0
 15 16  1  0
 16 17  2  0
 17 26  1  0
 26 27  2  0
 27 28  1  0
 28 29  2  0
 29 30  1  0
 30 31  2  0
 31 32  1  0
 32 38  1  0
 38 39  2  0
 39 40  1  0
 40 41  2  0
 41 42  1  0
 42 43  2  0
 32 33  2  0
 33 34  1  0
 34 35  2  0
 35 36  1  0
 36 37  1  0
 17 18  1  0
 18 19  2  0
 19 20  1  0
 20 21  1  1
 21 22  1  0
 22 23  1  0
 23 24  1  0
 24 25  1  0
 11  3  2  0
 19 14  1  0
 25 20  1  0
  9  5  1  0
 36 27  1  0
 20  7  1  0
 34 29  1  0
 43 38  1  0
M  CHG  1   4  -1
M  END
>  <minimizedAffinity>  (183) 
-17.30431

$$$$
Mol: 197_47 - SminaDock
     RDKit          3D

 43 50  0  0  0  0  0  0  0  0999 V2000
   11.0406    2.0080  -18.7213 H   0  0  0  0  0  0  0  0  0  0  0  0
   10.4856    2.7784  -18.3257 O   0  0  0  0  0  0  0  0  0  0  0  0
   10.2310    2.8355  -16.9385 C   0  0  0  0  0  0  0  0  0  0  0  0
   10.7993    2.0710  -16.0700 N   0  0  0  0  0  0  0  0  0  0  0  0
   10.3202    2.3857  -14.7509 C   0  0  0  0  0  0  0  0  0  0  0  0
   10.8645    2.1422  -13.6467 O   0  0  0  0  0  0  0  0  0  0  0  0
    9.0250    3.0689  -15.0060 C   0  0  2  0  0  0  0  0  0  0  0  0
    8.6519    4.0119  -13.9609 C   0  0  0  0  0  0  0  0  0  0  0  0
    9.2362    5.1054  -13.3512 C   0  0  0  0  0  0  0  0  0  0  0  0
    8.5943    5.8094  -12.3559 C   0  0  0  0  0  0  0  0  0  0  0  0
    7.3482    5.4158  -11.9621 C   0  0  0  0  0  0  0  0  0  0  0  0
    6.7195    4.3391  -12.5307 C   0  0  0  0  0  0  0  0  0  0  0  0
    7.3933    3.6495  -13.5324 C   0  0  0  0  0  0  0  0  0  0  0  0
    6.9219    2.4789  -14.2779 C   0  0  0  0  0  0  0  0  0  0  0  0
    7.9102    2.1401  -15.1600 C   0  0  0  0  0  0  0  0  0  0  0  0
    7.6834    1.0388  -15.9909 C   0  0  0  0  0  0  0  0  0  0  0  0
    6.5042    0.3279  -15.9156 C   0  0  0  0  0  0  0  0  0  0  0  0
    6.3154   -0.7596  -16.7569 C   0  0  0  0  0  0  0  0  0  0  0  0
    5.1316   -1.4814  -16.6885 C   0  0  0  0  0  0  0  0  0  0  0  0
    4.1422   -1.1246  -15.7898 C   0  0  0  0  0  0  0  0  0  0  0  0
    4.3167   -0.0456  -14.9475 C   0  0  0  0  0  0  0  0  0  0  0  0
    5.5089    0.6707  -15.0257 C   0  0  0  0  0  0  0  0  0  0  0  0
    5.7254    1.7526  -14.2058 C   0  0  0  0  0  0  0  0  0  0  0  0
    9.3350    3.7146  -16.2739 N   0  0  0  0  0  0  0  0  0  0  0  0
    8.9772    4.6232  -16.6176 H   0  0  0  0  0  0  0  0  0  0  0  0
    9.1664    6.9302  -11.7164 N   0  0  0  0  0  0  0  0  0  0  0  0
    9.5068    6.8741  -10.4957 C   0  0  0  0  0  0  0  0  0  0  0  0
    9.3262    5.7247   -9.7734 C   0  0  0  0  0  0  0  0  0  0  0  0
    9.7202    5.7355   -8.4529 C   0  0  0  0  0  0  0  0  0  0  0  0
   10.2760    6.8530   -7.8691 C   0  0  0  0  0  0  0  0  0  0  0  0
   10.6721    6.8588   -6.5360 C   0  0  0  0  0  0  0  0  0  0  0  0
   11.2298    7.9683   -5.9365 C   0  0  0  0  0  0  0  0  0  0  0  0
   11.3848    9.0968   -6.7212 C   0  0  0  0  0  0  0  0  0  0  0  0
   10.9931    9.0980   -8.0476 C   0  0  0  0  0  0  0  0  0  0  0  0
   10.4357    7.9842   -8.6410 C   0  0  0  0  0  0  0  0  0  0  0  0
   10.0508    7.9794   -9.9374 N   0  0  0  0  0  0  0  0  0  0  0  0
   10.1850    8.8555  -10.4988 H   0  0  0  0  0  0  0  0  0  0  0  0
   11.6533    8.0014   -4.5409 C   0  0  0  0  0  0  0  0  0  0  0  0
   11.7423    6.8432   -3.7925 C   0  0  0  0  0  0  0  0  0  0  0  0
   12.1426    6.8551   -2.4670 C   0  0  0  0  0  0  0  0  0  0  0  0
   12.4674    8.0630   -1.8594 C   0  0  0  0  0  0  0  0  0  0  0  0
   12.3880    9.2396   -2.5833 C   0  0  0  0  0  0  0  0  0  0  0  0
   11.9849    9.1765   -3.8981 C   0  0  0  0  0  0  0  0  0  0  0  0
  1  2  1  0
  2  3  1  0
  3  4  2  0
  4  5  1  0
  5  6  2  0
  5  7  1  0
  7  8  1  0
  8  9  2  0
  9 10  1  0
 10 26  1  0
 26 27  2  0
 27 28  1  0
 28 29  2  0
 29 30  1  0
 30 31  2  0
 31 32  1  0
 32 38  1  0
 38 39  2  0
 39 40  1  0
 40 41  2  0
 41 42  1  0
 42 43  2  0
 32 33  2  0
 33 34  1  0
 34 35  2  0
 35 36  1  0
 36 37  1  0
 10 11  2  0
 11 12  1  0
 12 13  2  0
 13 14  1  0
 14 15  2  0
 15 16  1  0
 16 17  2  0
 17 18  1  0
 18 19  2  0
 19 20  1  0
 20 21  2  0
 21 22  1  0
 22 23  2  0
  7 24  1  6
 24 25  1  0
 24  3  1  0
 15  7  1  0
 22 17  1  0
 13  8  1  0
 23 14  1  0
 36 27  1  0
 35 30  1  0
 43 38  1  0
M  END
>  <minimizedAffinity>  (184) 
-17.28203

$$$$
Mol: 143_14 - SminaDock
     RDKit          3D

 37 43  0  0  0  0  0  0  0  0999 V2000
    4.6771   -2.8749  -16.4013 H   0  0  0  0  0  0  0  0  0  0  0  0
    5.3427   -2.3788  -15.8262 O   0  0  0  0  0  0  0  0  0  0  0  0
    4.9610   -1.2723  -15.0856 C   0  0  0  0  0  0  0  0  0  0  0  0
    3.7833   -1.0676  -14.6010 N   0  0  0  0  0  0  0  0  0  0  0  0
    3.7147    0.1885  -13.8746 C   0  0  0  0  0  0  0  0  0  0  0  0
    5.0895    0.7194  -14.0089 C   0  0  0  0  0  0  0  0  0  0  0  0
    5.8563   -0.1563  -14.7407 C   0  0  0  0  0  0  0  0  0  0  0  0
    7.1814    0.1213  -15.0010 C   0  0  0  0  0  0  0  0  0  0  0  0
    7.7703    1.2776  -14.5375 C   0  0  0  0  0  0  0  0  0  0  0  0
    7.0072    2.1704  -13.7973 C   0  0  0  0  0  0  0  0  0  0  0  0
    5.6844    1.8964  -13.5356 C   0  0  0  0  0  0  0  0  0  0  0  0
    4.8504    2.8021  -12.7623 C   0  0  0  0  0  0  0  0  0  0  0  0
    5.4412    4.0529  -12.2668 C   0  0  0  0  0  0  0  0  0  0  0  0
    6.8548    4.2914  -12.5685 C   0  0  0  0  0  0  0  0  0  0  0  0
    7.4283    5.4612  -12.0923 C   0  0  0  0  0  0  0  0  0  0  0  0
    8.7474    5.7556  -12.3367 C   0  0  0  0  0  0  0  0  0  0  0  0
    9.5035    4.8726  -13.0650 C   0  0  0  0  0  0  0  0  0  0  0  0
    8.9367    3.7081  -13.5403 C   0  0  0  0  0  0  0  0  0  0  0  0
    7.6190    3.3890  -13.3100 C   0  0  0  0  0  0  0  0  0  0  0  0
    9.2861    6.9732  -11.8220 N   0  0  0  0  0  0  0  0  0  0  0  0
    9.6423    7.0103  -10.5935 C   0  0  0  0  0  0  0  0  0  0  0  0
    9.5021    5.9181   -9.8315 N   0  0  0  0  0  0  0  0  0  0  0  0
    9.8474    5.8600   -8.5320 C   0  0  0  0  0  0  0  0  0  0  0  0
   10.3746    6.9933   -7.9614 C   0  0  0  0  0  0  0  0  0  0  0  0
   10.7368    6.9426   -6.6108 C   0  0  0  0  0  0  0  0  0  0  0  0
   11.2677    8.0698   -6.0196 C   0  0  0  0  0  0  0  0  0  0  0  0
   11.4252    9.2112   -6.7780 C   0  0  0  0  0  0  0  0  0  0  0  0
   11.0607    9.2460   -8.1184 C   0  0  0  0  0  0  0  0  0  0  0  0
   10.5253    8.1108   -8.7158 C   0  0  0  0  0  0  0  0  0  0  0  0
   10.1607    8.1050  -10.0096 N   0  0  0  0  0  0  0  0  0  0  0  0
   10.2896    8.9849  -10.5678 H   0  0  0  0  0  0  0  0  0  0  0  0
   11.6500    8.0246   -4.6015 C   0  0  0  0  0  0  0  0  0  0  0  0
   11.6664    6.8498   -3.8767 C   0  0  0  0  0  0  0  0  0  0  0  0
   12.0278    6.8364   -2.5563 C   0  0  0  0  0  0  0  0  0  0  0  0
   12.3913    7.9910   -1.8898 C   0  0  0  0  0  0  0  0  0  0  0  0
   12.3791    9.1679   -2.6011 C   0  0  0  0  0  0  0  0  0  0  0  0
   12.0138    9.1726   -3.9302 C   0  0  0  0  0  0  0  0  0  0  0  0
  1  2  1  0
  2  3  1  0
  3  4  2  0
  4  5  1  0
  5  6  1  0
  6  7  2  0
  7  8  1  0
  8  9  2  0
  9 10  1  0
 10 11  2  0
 11 12  1  0
 12 13  1  0
 13 14  1  0
 14 15  2  0
 15 16  1  0
 16 20  1  0
 20 21  2  0
 21 22  1  0
 22 23  2  0
 23 24  1  0
 24 25  2  0
 25 26  1  0
 26 32  1  0
 32 33  2  0
 33 34  1  0
 34 35  2  0
 35 36  1  0
 36 37  2  0
 26 27  2  0
 27 28  1  0
 28 29  2  0
 29 30  1  0
 30 31  1  0
 16 17  2  0
 17 18  1  0
 18 19  2  0
  7  3  1  0
 19 10  1  0
 11  6  1  0
 19 14  1  0
 30 21  1  0
 29 24  1  0
 37 32  1  0
M  END
>  <minimizedAffinity>  (185) 
-17.31902

$$$$
Mol: 192_38 - SminaDock
     RDKit          3D

 42 49  0  0  0  0  0  0  0  0999 V2000
    5.7140   -4.0182  -17.0283 H   0  0  0  0  0  0  0  0  0  0  0  0
    5.3081   -3.3909  -16.3211 O   0  0  0  0  0  0  0  0  0  0  0  0
    5.4917   -2.0458  -16.4933 C   0  0  0  0  0  0  0  0  0  0  0  0
    6.5237   -1.6390  -17.1614 N   0  0  0  0  0  0  0  0  0  0  0  0
    6.9618   -0.2966  -17.4986 C   0  0  1  0  0  0  0  0  0  0  0  0
    6.9317    0.6572  -16.3637 C   0  0  0  0  0  0  0  0  0  0  0  0
    8.0027    1.5328  -16.3608 C   0  0  0  0  0  0  0  0  0  0  0  0
    8.1339    2.5320  -15.4204 C   0  0  0  0  0  0  0  0  0  0  0  0
    7.1437    2.6271  -14.4686 C   0  0  0  0  0  0  0  0  0  0  0  0
    6.0634    1.7707  -14.4406 C   0  0  0  0  0  0  0  0  0  0  0  0
    5.9431    0.7694  -15.3912 C   0  0  0  0  0  0  0  0  0  0  0  0
    4.8599    0.0207  -15.1378 C   0  0  0  0  0  0  0  0  0  0  0  0
    4.0538    0.3947  -14.0908 O   0  0  0  0  0  0  0  0  0  0  0  0
    4.2271    0.0805  -13.1542 H   0  0  0  0  0  0  0  0  0  0  0  0
    4.5013   -1.1572  -15.9033 N   0  0  0  0  0  0  0  0  0  0  0  0
    7.5375    3.7598  -13.6134 C   0  0  0  0  0  0  0  0  0  0  0  0
    6.9133    4.2874  -12.5217 C   0  0  0  0  0  0  0  0  0  0  0  0
    7.5047    5.3652  -11.8956 C   0  0  0  0  0  0  0  0  0  0  0  0
    8.6941    5.9316  -12.3215 C   0  0  0  0  0  0  0  0  0  0  0  0
    9.3099    5.3791  -13.4319 C   0  0  0  0  0  0  0  0  0  0  0  0
    8.7233    4.2947  -14.0693 C   0  0  0  0  0  0  0  0  0  0  0  0
    9.0699    3.4801  -15.2259 C   0  0  0  0  0  0  0  0  0  0  0  0
    7.6729   -0.0517  -18.7526 C   0  0  0  0  0  0  0  0  0  0  0  0
    6.1729    0.2457  -18.7419 C   0  0  0  0  0  0  0  0  0  0  0  0
    9.2773    7.0484  -11.6499 N   0  0  0  0  0  0  0  0  0  0  0  0
    9.5984    6.9593  -10.4149 C   0  0  0  0  0  0  0  0  0  0  0  0
    9.4049    5.8150   -9.6867 C   0  0  0  0  0  0  0  0  0  0  0  0
    9.7726    5.7676   -8.3369 C   0  0  0  0  0  0  0  0  0  0  0  0
   10.3328    6.8661   -7.7205 C   0  0  0  0  0  0  0  0  0  0  0  0
   10.7159    6.8749   -6.3876 C   0  0  0  0  0  0  0  0  0  0  0  0
   11.2759    7.9962   -5.8007 C   0  0  0  0  0  0  0  0  0  0  0  0
   11.4502    9.1240   -6.5752 C   0  0  0  0  0  0  0  0  0  0  0  0
   11.0656    9.1032   -7.8994 C   0  0  0  0  0  0  0  0  0  0  0  0
   10.5067    7.9930   -8.4962 C   0  0  0  0  0  0  0  0  0  0  0  0
   10.1426    8.0204   -9.8089 N   0  0  0  0  0  0  0  0  0  0  0  0
   10.3237    8.9301  -10.2913 H   0  0  0  0  0  0  0  0  0  0  0  0
   11.6871    8.0306   -4.4062 C   0  0  0  0  0  0  0  0  0  0  0  0
   11.9982    9.2179   -3.7752 C   0  0  0  0  0  0  0  0  0  0  0  0
   12.3895    9.2402   -2.4443 C   0  0  0  0  0  0  0  0  0  0  0  0
   12.4618    8.0365   -1.7573 C   0  0  0  0  0  0  0  0  0  0  0  0
   12.1500    6.8256   -2.3818 C   0  0  0  0  0  0  0  0  0  0  0  0
   11.7648    6.8425   -3.7062 C   0  0  0  0  0  0  0  0  0  0  0  0
  1  2  1  0
  2  3  1  0
  3  4  2  0
  4  5  1  0
  5  6  1  0
  6  7  2  0
  7  8  1  0
  8  9  1  0
  9 10  2  0
 10 11  1  0
 11 12  2  0
 12 13  1  0
 13 14  1  0
 12 15  1  0
  9 16  1  0
 16 17  2  0
 17 18  1  0
 18 19  2  0
 19 25  1  0
 25 26  2  0
 26 27  1  0
 27 28  2  0
 28 29  1  0
 29 30  2  0
 30 31  1  0
 31 37  1  0
 37 38  2  0
 38 39  1  0
 39 40  2  0
 40 41  1  0
 41 42  2  0
 31 32  2  0
 32 33  1  0
 33 34  2  0
 34 35  1  0
 35 36  1  0
 19 20  1  0
 20 21  2  0
 21 22  1  0
  5 23  1  6
 23 24  1  0
 15  3  1  0
 21 16  1  0
 24  5  1  0
 11  6  1  0
 35 26  1  0
 22  8  2  0
 34 29  1  0
 42 37  1  0
M  CHG  1  15  -1
M  END
>  <minimizedAffinity>  (186) 
-17.30803

$$$$
Mol: 195_41 - SminaDock
     RDKit          3D

 41 48  0  0  0  0  0  0  0  0999 V2000
    2.0300   -1.7929  -15.1060 H   0  0  0  0  0  0  0  0  0  0  0  0
    2.6540   -1.2068  -14.5335 O   0  0  0  0  0  0  0  0  0  0  0  0
    3.7576   -0.6976  -15.2144 C   0  0  0  0  0  0  0  0  0  0  0  0
    4.2256   -1.0666  -16.3354 N   0  0  0  0  0  0  0  0  0  0  0  0
    5.3742   -0.3081  -16.7191 C   0  0  1  0  0  0  0  0  0  0  0  0
    5.5745    0.6416  -15.6227 C   0  0  0  0  0  0  0  0  0  0  0  0
    6.5331    1.6412  -15.4214 C   0  0  0  0  0  0  0  0  0  0  0  0
    6.4524    2.3885  -14.2553 C   0  0  0  0  0  0  0  0  0  0  0  0
    5.4684    2.1581  -13.3300 C   0  0  0  0  0  0  0  0  0  0  0  0
    4.5129    1.1544  -13.5412 C   0  0  0  0  0  0  0  0  0  0  0  0
    4.5905    0.4113  -14.6973 C   0  0  0  0  0  0  0  0  0  0  0  0
    5.6536    3.1026  -12.2226 C   0  0  0  0  0  0  0  0  0  0  0  0
    6.8417    3.9033  -12.5958 C   0  0  0  0  0  0  0  0  0  0  0  0
    7.5006    4.9534  -11.9404 C   0  0  0  0  0  0  0  0  0  0  0  0
    8.6028    5.5715  -12.4642 C   0  0  0  0  0  0  0  0  0  0  0  0
    9.0804    5.1429  -13.6822 C   0  0  0  0  0  0  0  0  0  0  0  0
    8.4425    4.0982  -14.3567 C   0  0  0  0  0  0  0  0  0  0  0  0
    7.3333    3.4911  -13.8083 C   0  0  0  0  0  0  0  0  0  0  0  0
    6.5945   -1.1605  -16.9662 C   0  0  0  0  0  0  0  0  0  0  0  0
    6.6059   -1.7930  -18.3259 C   0  0  0  0  0  0  0  0  0  0  0  0
    6.2490   -0.9044  -19.3347 O   0  0  0  0  0  0  0  0  0  0  0  0
    4.9232   -0.4692  -19.1122 C   0  0  0  0  0  0  0  0  0  0  0  0
    4.9911    0.4948  -17.9453 C   0  0  0  0  0  0  0  0  0  0  0  0
    9.2364    6.6339  -11.7600 N   0  0  0  0  0  0  0  0  0  0  0  0
    9.5477    6.6164  -10.5259 C   0  0  0  0  0  0  0  0  0  0  0  0
    9.3150    5.5545   -9.6779 C   0  0  0  0  0  0  0  0  0  0  0  0
    9.6613    5.5816   -8.3797 N   0  0  0  0  0  0  0  0  0  0  0  0
   10.2632    6.6961   -7.8832 C   0  0  0  0  0  0  0  0  0  0  0  0
   10.6348    6.7588   -6.5450 C   0  0  0  0  0  0  0  0  0  0  0  0
   11.2434    7.8729   -6.0213 C   0  0  0  0  0  0  0  0  0  0  0  0
   11.4752    8.9370   -6.8768 C   0  0  0  0  0  0  0  0  0  0  0  0
   11.1190    8.9041   -8.2043 C   0  0  0  0  0  0  0  0  0  0  0  0
   10.5078    7.7714   -8.7073 C   0  0  0  0  0  0  0  0  0  0  0  0
   10.1427    7.7119  -10.0247 N   0  0  0  0  0  0  0  0  0  0  0  0
   10.3554    8.5652  -10.6070 H   0  0  0  0  0  0  0  0  0  0  0  0
   11.6519    7.9837   -4.6190 C   0  0  0  0  0  0  0  0  0  0  0  0
   11.7408    6.8680   -3.8157 C   0  0  0  0  0  0  0  0  0  0  0  0
   12.1156    6.8869   -2.4915 C   0  0  0  0  0  0  0  0  0  0  0  0
   12.4301    8.1186   -1.9113 C   0  0  0  0  0  0  0  0  0  0  0  0
   12.3461    9.2534   -2.7047 C   0  0  0  0  0  0  0  0  0  0  0  0
   11.9654    9.2027   -4.0364 C   0  0  0  0  0  0  0  0  0  0  0  0
  1  2  1  0
  2  3  1  0
  3  4  2  0
  4  5  1  0
  5  6  1  0
  6  7  2  0
  7  8  1  0
  8  9  2  0
  9 10  1  0
 10 11  2  0
  9 12  1  0
 12 13  1  0
 13 14  2  0
 14 15  1  0
 15 24  1  0
 24 25  2  0
 25 26  1  0
 26 27  2  0
 27 28  1  0
 28 29  2  0
 29 30  1  0
 30 36  1  0
 36 37  2  0
 37 38  1  0
 38 39  2  0
 39 40  1  0
 40 41  2  0
 30 31  2  0
 31 32  1  0
 32 33  2  0
 33 34  1  0
 34 35  1  0
 15 16  2  0
 16 17  1  0
 17 18  2  0
  5 19  1  6
 19 20  1  0
 20 21  1  0
 21 22  1  0
 22 23  1  0
 11  3  1  0
 18 13  1  0
 23  5  1  0
 11  6  1  0
 34 25  1  0
 18  8  1  0
 33 28  1  0
 41 36  1  0
M  END
>  <minimizedAffinity>  (187) 
-17.25483

$$$$
Mol: 157_27 - SminaDock
     RDKit          3D

 40 46  0  0  0  0  0  0  0  0999 V2000
    8.8727    5.9683  -12.4291 C   0  0  0  0  0  0  0  0  0  0  0  0
    9.3637    5.2397  -13.4829 C   0  0  0  0  0  0  0  0  0  0  0  0
    8.6864    4.1567  -14.0149 C   0  0  0  0  0  0  0  0  0  0  0  0
    7.4723    3.7853  -13.4756 C   0  0  0  0  0  0  0  0  0  0  0  0
    6.9413    4.4809  -12.4208 C   0  0  0  0  0  0  0  0  0  0  0  0
    7.6679    5.5769  -11.9141 C   0  0  0  0  0  0  0  0  0  0  0  0
    5.6856    4.0937  -11.7871 C   0  0  0  0  0  0  0  0  0  0  0  0
    4.8311    3.1293  -12.5023 C   0  0  0  0  0  0  0  0  0  0  0  0
    5.4686    2.3352  -13.5625 C   0  0  0  0  0  0  0  0  0  0  0  0
    4.7441    1.2618  -14.0615 C   0  0  0  0  0  0  0  0  0  0  0  0
    5.3187    0.5313  -15.0956 C   0  0  0  0  0  0  0  0  0  0  0  0
    6.5539    0.8642  -15.5977 C   0  0  0  0  0  0  0  0  0  0  0  0
    7.2640    1.9422  -15.0841 C   0  0  0  0  0  0  0  0  0  0  0  0
    6.7040    2.6633  -14.0671 C   0  0  0  0  0  0  0  0  0  0  0  0
    7.2605   -0.0610  -16.8910 S   0  0  2  0  0  0  0  0  0  0  0  0
    8.7385   -0.2371  -16.6675 O   0  0  0  0  0  0  0  0  0  0  0  0
    7.1307    0.6581  -18.2268 O   0  0  0  0  0  0  0  0  0  0  0  0
    6.4538   -1.5918  -16.9371 N   0  0  0  0  0  0  0  0  0  0  0  0
    6.8353   -2.1711  -16.1498 H   0  0  0  0  0  0  0  0  0  0  0  0
    5.1058   -1.3789  -16.6931 N   0  0  0  0  0  0  0  0  0  0  0  0
    4.5685   -0.6072  -15.6414 C   0  0  0  0  0  0  0  0  0  0  0  0
    3.4243   -0.8674  -15.1323 O   0  0  0  0  0  0  0  0  0  0  0  0
   11.4026    8.0162   -5.9709 C   0  0  0  0  0  0  0  0  0  0  0  0
   11.7650    9.0833   -6.7816 C   0  0  0  0  0  0  0  0  0  0  0  0
   11.4718    9.1095   -8.1217 C   0  0  0  0  0  0  0  0  0  0  0  0
   10.7911    8.0541   -8.7282 C   0  0  0  0  0  0  0  0  0  0  0  0
   10.5112    8.0988  -10.0520 N   0  0  0  0  0  0  0  0  0  0  0  0
    9.8565    7.0681  -10.5996 C   0  0  0  0  0  0  0  0  0  0  0  0
    9.5743    7.0896  -11.8795 N   0  0  0  0  0  0  0  0  0  0  0  0
    9.4892    6.0164   -9.8446 N   0  0  0  0  0  0  0  0  0  0  0  0
    8.9760    5.2173  -10.2946 H   0  0  0  0  0  0  0  0  0  0  0  0
    9.7542    5.9463   -8.5297 C   0  0  0  0  0  0  0  0  0  0  0  0
   10.4375    7.0013   -7.9113 C   0  0  0  0  0  0  0  0  0  0  0  0
   10.7270    6.9658   -6.5668 C   0  0  0  0  0  0  0  0  0  0  0  0
   12.3270    7.9751   -1.8467 C   0  0  0  0  0  0  0  0  0  0  0  0
   11.9540    6.7957   -2.4698 C   0  0  0  0  0  0  0  0  0  0  0  0
   11.6568    6.8377   -3.8202 C   0  0  0  0  0  0  0  0  0  0  0  0
   11.7226    8.0047   -4.5449 C   0  0  0  0  0  0  0  0  0  0  0  0
   12.0921    9.1545   -3.9117 C   0  0  0  0  0  0  0  0  0  0  0  0
   12.3993    9.1462   -2.5461 C   0  0  0  0  0  0  0  0  0  0  0  0
 35 36  2  0
 36 37  1  0
 37 38  2  0
 38 23  1  0
 23 24  1  0
 24 25  2  0
 25 26  1  0
 26 27  2  0
 27 28  1  0
 28 29  2  0
 29  1  1  0
  1  2  2  0
  2  3  1  0
  3  4  2  0
  4  5  1  0
  5  6  2  0
  5  7  1  0
  7  8  1  0
  8  9  1  0
  9 10  2  0
 10 11  1  0
 11 12  2  0
 12 13  1  0
 13 14  2  0
 12 15  1  0
 15 16  2  0
 15 17  2  0
 15 18  1  6
 18 19  1  0
 18 20  1  0
 20 21  1  0
 21 22  2  0
 28 30  1  0
 30 31  1  0
 30 32  1  0
 32 33  2  0
 33 34  1  0
 38 39  1  0
 39 40  2  0
 40 35  1  0
 34 23  2  0
 33 26  1  0
  6  1  1  0
 14  9  1  0
 14  4  1  0
 21 11  1  0
M  CHG  1  20  -1
M  END
>  <minimizedAffinity>  (188) 
-17.26178

$$$$
Mol: 77_45 - SminaDock
     RDKit          3D

 49 56  0  0  0  0  0  0  0  0999 V2000
    6.6411    2.8184  -13.9245 C   0  0  0  0  0  0  0  0  0  0  0  0
    5.5076    3.2804  -13.2934 C   0  0  0  0  0  0  0  0  0  0  0  0
    5.4447    4.5244  -12.7017 C   0  0  0  0  0  0  0  0  0  0  0  0
    6.5225    5.3875  -12.7066 C   0  0  0  0  0  0  0  0  0  0  0  0
    6.4551    6.7304  -12.0789 C   0  0  0  0  0  0  0  0  0  0  0  0
    7.6769    4.9396  -13.3384 C   0  0  0  0  0  0  0  0  0  0  0  0
    7.7289    3.6861  -13.9308 C   0  0  0  0  0  0  0  0  0  0  0  0
    8.7948    5.7766  -13.3839 N   0  0  0  0  0  0  0  0  0  0  0  0
    9.3444    6.1917  -12.2928 C   0  0  0  0  0  0  0  0  0  0  0  0
   10.4569    7.0267  -12.3230 C   0  0  0  0  0  0  0  0  0  0  0  0
   11.0515    7.4864  -11.1819 C   0  0  0  0  0  0  0  0  0  0  0  0
   10.5327    7.1094   -9.9396 C   0  0  0  0  0  0  0  0  0  0  0  0
   11.1025    7.5579   -8.7723 C   0  0  0  0  0  0  0  0  0  0  0  0
   10.5844    7.1907   -7.5264 C   0  0  0  0  0  0  0  0  0  0  0  0
    9.4883    6.3664   -7.5579 C   0  0  0  0  0  0  0  0  0  0  0  0
    8.9090    5.9094   -8.7413 C   0  0  0  0  0  0  0  0  0  0  0  0
    9.4413    6.2893   -9.9363 C   0  0  0  0  0  0  0  0  0  0  0  0
    8.8602    5.8408  -11.0875 N   0  0  0  0  0  0  0  0  0  0  0  0
    8.0371    5.2193  -10.9749 H   0  0  0  0  0  0  0  0  0  0  0  0
   11.2061    7.6867   -6.3091 C   0  0  0  0  0  0  0  0  0  0  0  0
   11.0869    6.9936   -5.1410 N   0  0  0  0  0  0  0  0  0  0  0  0
   11.6378    7.4011   -3.9979 C   0  0  0  0  0  0  0  0  0  0  0  0
   11.5103    6.6931   -2.8280 C   0  0  0  0  0  0  0  0  0  0  0  0
   12.1078    7.1761   -1.6862 C   0  0  0  0  0  0  0  0  0  0  0  0
   12.8380    8.3586   -1.6757 C   0  0  0  0  0  0  0  0  0  0  0  0
   12.9650    9.0648   -2.8401 C   0  0  0  0  0  0  0  0  0  0  0  0
   12.3639    8.5770   -3.9876 C   0  0  0  0  0  0  0  0  0  0  0  0
   12.5158    9.3157   -5.1430 C   0  0  0  0  0  0  0  0  0  0  0  0
   11.9129    8.8322   -6.3023 C   0  0  0  0  0  0  0  0  0  0  0  0
    4.0855   -1.8336  -15.3393 H   0  0  0  0  0  0  0  0  0  0  0  0
    4.8492   -1.6516  -14.7005 O   0  0  0  0  0  0  0  0  0  0  0  0
    5.8260   -0.6862  -14.9375 C   0  0  0  0  0  0  0  0  0  0  0  0
    5.7682    0.5585  -14.3505 C   0  0  0  0  0  0  0  0  0  0  0  0
    6.7292    1.5253  -14.5739 C   0  0  0  0  0  0  0  0  0  0  0  0
    7.7609    1.1708  -15.4264 C   0  0  0  0  0  0  0  0  0  0  0  0
    7.8322   -0.0926  -16.0289 C   0  0  0  0  0  0  0  0  0  0  0  0
    8.7212   -0.4877  -16.8052 N   0  0  0  0  0  0  0  0  0  0  0  0
    6.8316   -0.9979  -15.7527 N   0  0  0  0  0  0  0  0  0  0  0  0
    6.8686   -1.9411  -16.1909 H   0  0  0  0  0  0  0  0  0  0  0  0
    9.8741    0.0858  -17.3369 C   0  0  0  0  0  0  0  0  0  0  0  0
   10.1770    1.4175  -17.1449 C   0  0  0  0  0  0  0  0  0  0  0  0
   11.3157    2.0098  -17.6819 C   0  0  0  0  0  0  0  0  0  0  0  0
   12.1977    1.2578  -18.4426 C   0  0  0  0  0  0  0  0  0  0  0  0
   13.3066    1.8159  -18.9748 N   0  0  0  0  0  0  0  0  0  0  0  0
   14.1707    1.1033  -19.7187 C   0  0  0  0  0  0  0  0  0  0  0  0
   13.9504   -0.2321  -19.9607 C   0  0  0  0  0  0  0  0  0  0  0  0
   12.8108   -0.8104  -19.4128 C   0  0  0  0  0  0  0  0  0  0  0  0
   11.9153   -0.0855  -18.6484 C   0  0  0  0  0  0  0  0  0  0  0  0
   10.7918   -0.6378  -18.1089 C   0  0  0  0  0  0  0  0  0  0  0  0
 30 31  1  0
 31 32  1  0
 32 33  2  0
 33 34  1  0
 34  1  1  0
  1  2  2  0
  2  3  1  0
  3  4  2  0
  4  5  1  0
  4  6  1  0
  6  8  1  0
  8  9  2  0
  9 10  1  0
 10 11  2  0
 11 12  1  0
 12 13  2  0
 13 14  1  0
 14 20  1  0
 20 21  2  0
 21 22  1  0
 22 23  2  0
 23 24  1  0
 24 25  2  0
 25 26  1  0
 26 27  2  0
 27 28  1  0
 28 29  2  0
 14 15  2  0
 15 16  1  0
 16 17  2  0
 17 18  1  0
 18 19  1  0
  6  7  2  0
 34 35  2  0
 35 36  1  0
 36 37  2  0
 37 40  1  0
 40 41  2  0
 41 42  1  0
 42 43  2  0
 43 44  1  0
 44 45  2  0
 45 46  1  0
 46 47  2  0
 47 48  1  0
 48 49  2  0
 36 38  1  0
 38 39  1  0
 38 32  1  0
  7  1  1  0
 49 40  1  0
 18  9  1  0
 48 43  1  0
 17 12  1  0
 29 20  1  0
 27 22  1  0
M  END
>  <minimizedAffinity>  (189) 
-17.29726

$$$$
Mol: 124_14 - SminaDock
     RDKit          3D

 41 47  0  0  0  0  0  0  0  0999 V2000
    7.8740    0.7668  -14.5782 O   0  0  0  0  0  0  0  0  0  0  0  0
    8.8748    1.7325  -14.5221 C   0  0  0  0  0  0  0  0  0  0  0  0
    8.7181    3.0434  -14.5967 C   0  0  0  0  0  0  0  0  0  0  0  0
   10.0479    3.7387  -14.4960 C   0  0  1  0  0  0  0  0  0  0  0  0
   10.9225    2.6505  -13.9018 C   0  0  0  0  0  0  0  0  0  0  0  0
   10.2643    1.4256  -14.3698 N   0  0  0  0  0  0  0  0  0  0  0  0
   10.4803    4.0123  -15.8962 C   0  0  0  0  0  0  0  0  0  0  0  0
   11.7929    4.6168  -16.0572 C   0  0  0  0  0  0  0  0  0  0  0  0
   12.5674    3.9677  -16.9800 C   0  0  0  0  0  0  0  0  0  0  0  0
   13.8674    4.4262  -17.2608 C   0  0  0  0  0  0  0  0  0  0  0  0
   14.3664    5.5353  -16.6043 C   0  0  0  0  0  0  0  0  0  0  0  0
   13.5662    6.1810  -15.6712 C   0  0  0  0  0  0  0  0  0  0  0  0
   12.2940    5.7224  -15.4044 C   0  0  0  0  0  0  0  0  0  0  0  0
   11.6251    6.5597  -14.3840 C   0  0  0  0  0  0  0  0  0  0  0  0
   12.0891    7.8342  -14.1972 O   0  0  0  0  0  0  0  0  0  0  0  0
   10.6103    6.1818  -13.6299 C   0  0  0  0  0  0  0  0  0  0  0  0
    9.9225    4.8999  -13.6102 C   0  0  0  0  0  0  0  0  0  0  0  0
    8.9983    4.5315  -12.7072 C   0  0  0  0  0  0  0  0  0  0  0  0
    8.3855    5.1762  -11.5481 C   0  0  0  0  0  0  0  0  0  0  0  0
    9.3414    6.0400  -10.8046 C   0  0  0  0  0  0  0  0  0  0  0  0
    9.1130    5.7877   -9.4897 C   0  0  0  0  0  0  0  0  0  0  0  0
    9.8354    6.1831   -8.3576 C   0  0  0  0  0  0  0  0  0  0  0  0
   10.8554    7.1086   -8.2943 C   0  0  0  0  0  0  0  0  0  0  0  0
   11.5601    7.6079   -9.3822 C   0  0  0  0  0  0  0  0  0  0  0  0
   12.5981    8.2505   -9.0730 O   0  0  0  0  0  0  0  0  0  0  0  0
   11.3093    7.5146  -10.7343 C   0  0  0  0  0  0  0  0  0  0  0  0
   10.2573    6.9069  -11.3686 C   0  0  0  0  0  0  0  0  0  0  0  0
   10.3176    7.3860  -12.7966 C   0  0  0  0  0  0  0  0  0  0  0  0
    6.9797    0.9170  -15.0253 H   0  0  0  0  0  0  0  0  0  0  0  0
   10.6934    0.5104  -14.5598 H   0  0  0  0  0  0  0  0  0  0  0  0
   12.1050    8.5448  -14.9322 H   0  0  0  0  0  0  0  0  0  0  0  0
   11.2687    7.6406   -7.0039 C   0  0  0  0  0  0  0  0  0  0  0  0
   11.6263    8.9659   -6.8701 C   0  0  0  0  0  0  0  0  0  0  0  0
   12.0253    9.5311   -5.6796 C   0  0  0  0  0  0  0  0  0  0  0  0
   12.0734    8.7370   -4.5542 C   0  0  0  0  0  0  0  0  0  0  0  0
   12.4761    9.2973   -3.3406 C   0  0  0  0  0  0  0  0  0  0  0  0
   12.5349    8.5267   -2.1914 C   0  0  0  0  0  0  0  0  0  0  0  0
   12.1797    7.2033   -2.3161 C   0  0  0  0  0  0  0  0  0  0  0  0
   11.7796    6.6221   -3.4941 C   0  0  0  0  0  0  0  0  0  0  0  0
   11.7239    7.4050   -4.6434 C   0  0  0  0  0  0  0  0  0  0  0  0
   11.3246    6.8642   -5.8628 C   0  0  0  0  0  0  0  0  0  0  0  0
  1  2  1  0
  2  3  2  0
  3  4  1  0
  4  5  1  1
  5  6  1  0
  4  7  1  0
  7  8  1  0
  8  9  2  0
  9 10  1  0
 10 11  2  0
 11 12  1  0
 12 13  2  0
 13 14  1  0
 14 15  1  0
 14 16  2  0
 16 17  1  0
 17 18  2  0
 18 19  1  0
 19 20  1  0
 20 21  2  0
 21 22  1  0
 22 23  2  0
 23 32  1  0
 32 33  2  0
 33 34  1  0
 34 35  2  0
 35 36  1  0
 36 37  2  0
 37 38  1  0
 38 39  2  0
 39 40  1  0
 40 41  2  0
 23 24  1  0
 24 25  2  0
 24 26  1  0
 26 27  2  0
 27 28  1  0
  6  2  1  0
 13  8  1  0
 28 16  1  0
 17  4  1  0
 27 20  1  0
 41 32  1  0
 40 35  1  0
  1 29  1  0
  6 30  1  0
 15 31  1  0
M  END
>  <minimizedAffinity>  (190) 
-17.26603

$$$$
Mol: 187_25 - SminaDock
     RDKit          3D

 44 51  0  0  0  0  0  0  0  0999 V2000
    8.7141    0.4336  -18.2180 H   0  0  0  0  0  0  0  0  0  0  0  0
    8.3862    0.1978  -17.2903 O   0  0  0  0  0  0  0  0  0  0  0  0
    7.2031   -0.4149  -16.9726 C   0  0  0  0  0  0  0  0  0  0  0  0
    6.8339   -1.5327  -17.6625 N   0  0  0  0  0  0  0  0  0  0  0  0
    5.6870   -2.1910  -17.4070 C   0  0  0  0  0  0  0  0  0  0  0  0
    4.8597   -1.7123  -16.4087 C   0  0  0  0  0  0  0  0  0  0  0  0
    5.1870   -0.5727  -15.6710 C   0  0  0  0  0  0  0  0  0  0  0  0
    4.3395   -0.1332  -14.6782 C   0  0  0  0  0  0  0  0  0  0  0  0
    4.6731    0.9859  -13.9464 C   0  0  0  0  0  0  0  0  0  0  0  0
    5.8793    1.6486  -14.2402 C   0  0  0  0  0  0  0  0  0  0  0  0
    6.7219    1.2062  -15.2351 C   0  0  0  0  0  0  0  0  0  0  0  0
    6.3856    0.0602  -15.9853 C   0  0  0  0  0  0  0  0  0  0  0  0
    7.8255    2.1166  -15.2836 C   0  0  1  0  0  0  0  0  0  0  0  0
    9.0497    1.3195  -14.8817 C   0  0  0  0  0  0  0  0  0  0  0  0
    9.1096    0.2220  -14.2942 O   0  0  0  0  0  0  0  0  0  0  0  0
   10.1572    2.0886  -15.3173 N   0  0  0  0  0  0  0  0  0  0  0  0
    9.6603    2.9460  -16.3441 C   0  0  0  0  0  0  0  0  0  0  0  0
   10.3508    3.7950  -16.9905 O   0  0  0  0  0  0  0  0  0  0  0  0
    8.2684    2.6692  -16.4970 N   0  0  0  0  0  0  0  0  0  0  0  0
    7.7385    2.8602  -17.3576 H   0  0  0  0  0  0  0  0  0  0  0  0
    7.6671    3.0640  -14.1806 C   0  0  0  0  0  0  0  0  0  0  0  0
    8.4814    4.1168  -13.6996 C   0  0  0  0  0  0  0  0  0  0  0  0
    8.1151    4.9079  -12.6382 C   0  0  0  0  0  0  0  0  0  0  0  0
    6.8761    4.6158  -12.0502 C   0  0  0  0  0  0  0  0  0  0  0  0
    6.0685    3.5987  -12.5000 C   0  0  0  0  0  0  0  0  0  0  0  0
    6.4748    2.8087  -13.5832 C   0  0  0  0  0  0  0  0  0  0  0  0
    8.9346    5.9428  -12.1255 N   0  0  0  0  0  0  0  0  0  0  0  0
    9.3038    6.1085  -10.9233 C   0  0  0  0  0  0  0  0  0  0  0  0
   10.0878    7.1263  -10.5229 N   0  0  0  0  0  0  0  0  0  0  0  0
   10.4537    7.2699   -9.2374 C   0  0  0  0  0  0  0  0  0  0  0  0
   11.2615    8.3286   -8.8322 C   0  0  0  0  0  0  0  0  0  0  0  0
   11.6433    8.4932   -7.5123 C   0  0  0  0  0  0  0  0  0  0  0  0
   11.2312    7.6043   -6.5439 C   0  0  0  0  0  0  0  0  0  0  0  0
   10.4348    6.5565   -6.9318 C   0  0  0  0  0  0  0  0  0  0  0  0
   10.0449    6.3840   -8.2648 C   0  0  0  0  0  0  0  0  0  0  0  0
    9.2388    5.3374   -8.6721 C   0  0  0  0  0  0  0  0  0  0  0  0
    8.9012    5.2411   -9.9815 N   0  0  0  0  0  0  0  0  0  0  0  0
    8.2887    4.4290  -10.2362 H   0  0  0  0  0  0  0  0  0  0  0  0
   11.6394    7.8308   -5.1621 C   0  0  0  0  0  0  0  0  0  0  0  0
   12.2916    8.9902   -4.7664 C   0  0  0  0  0  0  0  0  0  0  0  0
   12.6735    9.1552   -3.4555 C   0  0  0  0  0  0  0  0  0  0  0  0
   12.4417    8.2140   -2.4807 C   0  0  0  0  0  0  0  0  0  0  0  0
   11.7891    7.0521   -2.8748 C   0  0  0  0  0  0  0  0  0  0  0  0
   11.4077    6.8817   -4.1755 C   0  0  0  0  0  0  0  0  0  0  0  0
  1  2  1  0
  2  3  1  0
  3  4  2  0
  4  5  1  0
  5  6  2  0
  6  7  1  0
  7  8  2  0
  8  9  1  0
  9 10  2  0
 10 11  1  0
 11 12  2  0
 11 13  1  0
 13 14  1  0
 14 15  2  0
 14 16  1  0
 16 17  1  0
 17 18  2  0
 17 19  1  0
 19 20  1  0
 13 21  1  0
 21 22  2  0
 22 23  1  0
 23 27  1  0
 27 28  2  0
 28 29  1  0
 29 30  2  0
 30 31  1  0
 31 32  2  0
 32 33  1  0
 33 39  1  0
 39 40  2  0
 40 41  1  0
 41 42  2  0
 42 43  1  0
 43 44  2  0
 33 34  2  0
 34 35  1  0
 35 36  2  0
 36 37  1  0
 37 38  1  0
 23 24  2  0
 24 25  1  0
 25 26  2  0
 12  3  1  0
 13 19  1  6
 26 21  1  0
 12  7  1  0
 37 28  1  0
 26 10  1  0
 35 30  1  0
 44 39  1  0
M  CHG  1  16  -1
M  END
>  <minimizedAffinity>  (191) 
-17.32306

$$$$
Mol: 139_63 - SminaDock
     RDKit          3D

 43 50  0  0  0  0  0  0  0  0999 V2000
    8.7702    5.9688  -12.2924 C   0  0  0  0  0  0  0  0  0  0  0  0
    7.5687    5.5018  -11.8315 C   0  0  0  0  0  0  0  0  0  0  0  0
    6.9908    4.3897  -12.4205 C   0  0  0  0  0  0  0  0  0  0  0  0
    7.6154    3.7386  -13.4764 C   0  0  0  0  0  0  0  0  0  0  0  0
    8.8191    4.2235  -13.9259 C   0  0  0  0  0  0  0  0  0  0  0  0
    9.4180    5.3593  -13.3292 C   0  0  0  0  0  0  0  0  0  0  0  0
    9.5172    3.6154  -15.0949 C   0  0  2  0  0  0  0  0  0  0  0  0
   10.8874    3.5347  -14.8528 O   0  0  0  0  0  0  0  0  0  0  0  0
   11.4913    4.5801  -15.4367 N   0  0  0  0  0  0  0  0  0  0  0  0
   12.8267    5.0752  -15.0883 C   0  0  0  0  0  0  0  0  0  0  0  0
   10.6326    5.1158  -16.4322 C   0  0  0  0  0  0  0  0  0  0  0  0
   10.9421    5.9895  -17.3004 O   0  0  0  0  0  0  0  0  0  0  0  0
    9.3800    4.4863  -16.2616 N   0  0  0  0  0  0  0  0  0  0  0  0
    8.5382    4.6233  -16.8537 H   0  0  0  0  0  0  0  0  0  0  0  0
    9.0124    2.2871  -15.4726 C   0  0  0  0  0  0  0  0  0  0  0  0
    7.6874    1.8936  -15.0155 C   0  0  0  0  0  0  0  0  0  0  0  0
    7.1226    0.8035  -15.5775 N   0  0  0  0  0  0  0  0  0  0  0  0
    5.9243    0.3350  -15.1979 C   0  0  0  0  0  0  0  0  0  0  0  0
    5.3514   -0.7951  -15.7885 C   0  0  0  0  0  0  0  0  0  0  0  0
    4.1257   -1.2827  -15.4068 C   0  0  0  0  0  0  0  0  0  0  0  0
    3.4284   -0.6341  -14.4005 C   0  0  0  0  0  0  0  0  0  0  0  0
    3.9884    0.4795  -13.8156 C   0  0  0  0  0  0  0  0  0  0  0  0
    5.2181    0.9749  -14.1933 C   0  0  0  0  0  0  0  0  0  0  0  0
    5.7632    2.1122  -13.5793 C   0  0  0  0  0  0  0  0  0  0  0  0
    6.9863    2.5325  -14.0173 C   0  0  0  0  0  0  0  0  0  0  0  0
   11.3338    8.0951   -5.9108 C   0  0  0  0  0  0  0  0  0  0  0  0
   11.5497    9.2323   -6.6497 C   0  0  0  0  0  0  0  0  0  0  0  0
   11.1860    9.2522   -7.9848 C   0  0  0  0  0  0  0  0  0  0  0  0
   10.6078    8.1485   -8.5942 C   0  0  0  0  0  0  0  0  0  0  0  0
   10.2492    8.1528   -9.8886 N   0  0  0  0  0  0  0  0  0  0  0  0
    9.6861    7.0607  -10.4579 C   0  0  0  0  0  0  0  0  0  0  0  0
    9.3619    7.1095  -11.6858 N   0  0  0  0  0  0  0  0  0  0  0  0
    9.5025    5.9852   -9.6852 N   0  0  0  0  0  0  0  0  0  0  0  0
    9.0656    5.1045  -10.0839 H   0  0  0  0  0  0  0  0  0  0  0  0
    9.8385    5.9180   -8.3885 C   0  0  0  0  0  0  0  0  0  0  0  0
   10.4108    7.0325   -7.8159 C   0  0  0  0  0  0  0  0  0  0  0  0
   10.7629    6.9760   -6.4736 C   0  0  0  0  0  0  0  0  0  0  0  0
   12.4027    7.9498   -1.8446 C   0  0  0  0  0  0  0  0  0  0  0  0
   12.4034    9.1543   -2.5162 C   0  0  0  0  0  0  0  0  0  0  0  0
   12.0515    9.2037   -3.8555 C   0  0  0  0  0  0  0  0  0  0  0  0
   11.7032    8.0346   -4.4999 C   0  0  0  0  0  0  0  0  0  0  0  0
   11.7003    6.8349   -3.8392 C   0  0  0  0  0  0  0  0  0  0  0  0
   12.0458    6.7820   -2.5215 C   0  0  0  0  0  0  0  0  0  0  0  0
 38 39  2  0
 39 40  1  0
 40 41  2  0
 41 26  1  0
 26 27  1  0
 27 28  2  0
 28 29  1  0
 29 30  2  0
 30 31  1  0
 31 32  2  0
 32  1  1  0
  1  2  2  0
  2  3  1  0
  3  4  2  0
  4  5  1  0
  5  6  2  0
  5  7  1  0
  7  8  1  0
  8  9  1  0
  9 10  1  0
  9 11  1  0
 11 12  2  0
 11 13  1  0
 13 14  1  0
  7 15  1  6
 15 16  1  0
 16 17  2  0
 17 18  1  0
 18 19  2  0
 19 20  1  0
 20 21  2  0
 21 22  1  0
 22 23  2  0
 23 24  1  0
 24 25  2  0
 31 33  1  0
 33 34  1  0
 33 35  1  0
 35 36  2  0
 36 37  1  0
 41 42  1  0
 42 43  2  0
 43 38  1  0
 37 26  2  0
 36 29  1  0
  6  1  1  0
 13  7  1  0
 25 16  1  0
 25  4  1  0
 23 18  1  0
M  END
>  <minimizedAffinity>  (192) 
-17.27501

$$$$
Mol: 198_44 - SminaDock
     RDKit          3D

 37 43  0  0  0  0  0  0  0  0999 V2000
    8.6526    5.5046  -12.3305 C   0  0  0  0  0  0  0  0  0  0  0  0
    9.3280    4.8509  -13.3389 C   0  0  0  0  0  0  0  0  0  0  0  0
    8.7149    3.7750  -13.9464 C   0  0  0  0  0  0  0  0  0  0  0  0
    7.4570    3.3249  -13.5898 C   0  0  0  0  0  0  0  0  0  0  0  0
    6.7771    3.9842  -12.5736 C   0  0  0  0  0  0  0  0  0  0  0  0
    7.3977    5.0630  -11.9680 C   0  0  0  0  0  0  0  0  0  0  0  0
    5.4696    3.3522  -12.3527 C   0  0  0  0  0  0  0  0  0  0  0  0
    5.4121    2.2343  -13.3381 C   0  0  0  0  0  0  0  0  0  0  0  0
    4.4393    1.2792  -13.6167 C   0  0  0  0  0  0  0  0  0  0  0  0
    4.6192    0.3255  -14.5966 C   0  0  0  0  0  0  0  0  0  0  0  0
    5.7994    0.3320  -15.3103 C   0  0  0  0  0  0  0  0  0  0  0  0
    6.7617    1.2793  -15.0326 C   0  0  0  0  0  0  0  0  0  0  0  0
    6.5918    2.2414  -14.0510 C   0  0  0  0  0  0  0  0  0  0  0  0
    5.7205   -0.7680  -16.2658 C   0  0  0  0  0  0  0  0  0  0  0  0
    6.6097   -1.0869  -17.0991 O   0  0  0  0  0  0  0  0  0  0  0  0
    4.4855   -1.4428  -16.1287 N   0  0  0  0  0  0  0  0  0  0  0  0
    4.1621   -2.2783  -16.6936 H   0  0  0  0  0  0  0  0  0  0  0  0
    3.7778   -0.7828  -15.0949 C   0  0  0  0  0  0  0  0  0  0  0  0
    2.6250   -1.0793  -14.6626 O   0  0  0  0  0  0  0  0  0  0  0  0
   11.2806    7.9818   -5.9440 C   0  0  0  0  0  0  0  0  0  0  0  0
   11.4892    9.0388   -6.8111 C   0  0  0  0  0  0  0  0  0  0  0  0
   11.1238    8.9715   -8.1394 C   0  0  0  0  0  0  0  0  0  0  0  0
   10.5351    7.8428   -8.6506 C   0  0  0  0  0  0  0  0  0  0  0  0
   10.3199    6.7795   -7.7984 C   0  0  0  0  0  0  0  0  0  0  0  0
   10.6882    6.8500   -6.4642 C   0  0  0  0  0  0  0  0  0  0  0  0
    9.7250    5.6495   -8.3332 C   0  0  0  0  0  0  0  0  0  0  0  0
    9.3441    5.5414   -9.6590 C   0  0  0  0  0  0  0  0  0  0  0  0
    9.5907    6.6430  -10.4487 C   0  0  0  0  0  0  0  0  0  0  0  0
    9.2637    6.6137  -11.6924 N   0  0  0  0  0  0  0  0  0  0  0  0
   10.1660    7.7538   -9.9602 N   0  0  0  0  0  0  0  0  0  0  0  0
   10.3490    8.5832  -10.5643 H   0  0  0  0  0  0  0  0  0  0  0  0
   12.4040    8.1291   -1.8723 C   0  0  0  0  0  0  0  0  0  0  0  0
   12.0452    6.9398   -2.4580 C   0  0  0  0  0  0  0  0  0  0  0  0
   11.6793    6.9044   -3.7913 C   0  0  0  0  0  0  0  0  0  0  0  0
   11.6754    8.0649   -4.5305 C   0  0  0  0  0  0  0  0  0  0  0  0
   12.0389    9.2448   -3.9215 C   0  0  0  0  0  0  0  0  0  0  0  0
   12.4085    9.3053   -2.5899 C   0  0  0  0  0  0  0  0  0  0  0  0
 32 33  2  0
 33 34  1  0
 34 35  2  0
 35 20  1  0
 20 21  2  0
 21 22  1  0
 22 23  2  0
 23 24  1  0
 24 25  2  0
 24 26  1  0
 26 27  2  0
 27 28  1  0
 28 29  2  0
 29  1  1  0
  1  2  2  0
  2  3  1  0
  3  4  2  0
  4  5  1  0
  5  6  2  0
  5  7  1  0
  7  8  1  0
  8  9  2  0
  9 10  1  0
 10 11  2  0
 11 12  1  0
 12 13  2  0
 11 14  1  0
 14 15  2  0
 14 16  1  0
 16 17  1  0
 16 18  1  0
 18 19  2  0
 28 30  1  0
 30 31  1  0
 35 36  1  0
 36 37  2  0
 37 32  1  0
 25 20  1  0
  6  1  1  0
 13  8  1  0
 30 23  1  0
 13  4  1  0
 18 10  1  0
M  END
>  <minimizedAffinity>  (193) 
-17.25107

$$$$
Mol: 133_49 - SminaDock
     RDKit          3D

 42 49  0  0  0  0  0  0  0  0999 V2000
    8.6608    5.8474  -12.3501 C   0  0  0  0  0  0  0  0  0  0  0  0
    7.4797    5.2802  -11.9189 C   0  0  0  0  0  0  0  0  0  0  0  0
    6.9319    4.1917  -12.5657 C   0  0  0  0  0  0  0  0  0  0  0  0
    7.6020    3.6660  -13.6799 C   0  0  0  0  0  0  0  0  0  0  0  0
    8.7685    4.1970  -14.1361 C   0  0  0  0  0  0  0  0  0  0  0  0
    9.2848    5.3055  -13.4417 C   0  0  0  0  0  0  0  0  0  0  0  0
    9.4753    3.6751  -15.2897 C   0  0  1  0  0  0  0  0  0  0  0  0
    8.9008    2.5029  -15.9403 C   0  0  0  0  0  0  0  0  0  0  0  0
    7.6369    1.9880  -15.4126 C   0  0  0  0  0  0  0  0  0  0  0  0
    6.9810    2.5034  -14.3310 C   0  0  0  0  0  0  0  0  0  0  0  0
    5.8196    2.0233  -13.8416 N   0  0  0  0  0  0  0  0  0  0  0  0
    5.2238    0.9710  -14.4158 C   0  0  0  0  0  0  0  0  0  0  0  0
    4.0246    0.4643  -13.9218 C   0  0  0  0  0  0  0  0  0  0  0  0
    3.4325   -0.6178  -14.5302 C   0  0  0  0  0  0  0  0  0  0  0  0
    4.0559   -1.1761  -15.6287 C   0  0  0  0  0  0  0  0  0  0  0  0
    5.2395   -0.6722  -16.1125 C   0  0  0  0  0  0  0  0  0  0  0  0
    5.8554    0.4185  -15.5154 C   0  0  0  0  0  0  0  0  0  0  0  0
    7.0298    0.8828  -16.0319 C   0  0  0  0  0  0  0  0  0  0  0  0
    9.6272    4.7881  -16.3451 C   0  0  0  0  0  0  0  0  0  0  0  0
   10.6386    4.4216  -17.3800 C   0  0  0  0  0  0  0  0  0  0  0  0
   11.9073    4.0333  -16.8466 N   0  0  0  0  0  0  0  0  0  0  0  0
   12.6866    5.1308  -16.3604 C   0  0  0  0  0  0  0  0  0  0  0  0
   11.7971    2.9311  -15.9315 C   0  0  0  0  0  0  0  0  0  0  0  0
   10.8911    3.3031  -14.8047 C   0  0  0  0  0  0  0  0  0  0  0  0
   11.2953    8.0455   -5.8971 C   0  0  0  0  0  0  0  0  0  0  0  0
   11.4540    9.1545   -6.6996 C   0  0  0  0  0  0  0  0  0  0  0  0
   11.0855    9.1946   -8.0269 C   0  0  0  0  0  0  0  0  0  0  0  0
   10.5213    8.0587   -8.5990 C   0  0  0  0  0  0  0  0  0  0  0  0
   10.3498    6.9358   -7.8240 C   0  0  0  0  0  0  0  0  0  0  0  0
    9.8020    5.8526   -8.4031 N   0  0  0  0  0  0  0  0  0  0  0  0
    9.4350    5.8484   -9.6707 N   0  0  0  0  0  0  0  0  0  0  0  0
    9.5877    6.9291  -10.4590 C   0  0  0  0  0  0  0  0  0  0  0  0
    9.2459    6.9739  -11.6970 N   0  0  0  0  0  0  0  0  0  0  0  0
   10.1347    8.0163   -9.8879 N   0  0  0  0  0  0  0  0  0  0  0  0
   10.2795    8.8941  -10.4567 H   0  0  0  0  0  0  0  0  0  0  0  0
   10.7310    6.9335   -6.4985 C   0  0  0  0  0  0  0  0  0  0  0  0
   12.4359    7.9237   -1.7790 C   0  0  0  0  0  0  0  0  0  0  0  0
   12.1055    6.7545   -2.4592 C   0  0  0  0  0  0  0  0  0  0  0  0
   11.7395    6.8129   -3.7888 C   0  0  0  0  0  0  0  0  0  0  0  0
   11.6835    7.9997   -4.4937 C   0  0  0  0  0  0  0  0  0  0  0  0
   12.0131    9.1527   -3.8096 C   0  0  0  0  0  0  0  0  0  0  0  0
   12.3859    9.1195   -2.4665 C   0  0  0  0  0  0  0  0  0  0  0  0
 37 38  2  0
 38 39  1  0
 39 40  2  0
 40 25  1  0
 25 26  2  0
 26 27  1  0
 27 28  2  0
 28 29  1  0
 29 30  1  0
 30 31  2  0
 31 32  1  0
 32 33  2  0
 33  1  1  0
  1  2  2  0
  2  3  1  0
  3  4  2  0
  4  5  1  0
  5  6  2  0
  5  7  1  0
  7  8  1  6
  8  9  1  0
  9 10  2  0
 10 11  1  0
 11 12  2  0
 12 13  1  0
 13 14  2  0
 14 15  1  0
 15 16  2  0
 16 17  1  0
 17 18  2  0
  7 19  1  0
 19 20  1  0
 20 21  1  0
 21 22  1  0
 21 23  1  0
 23 24  1  0
 32 34  1  0
 34 35  1  0
 29 36  2  0
 40 41  1  0
 41 42  2  0
 42 37  1  0
 36 25  1  0
 34 28  1  0
  6  1  1  0
 24  7  1  0
 10  4  1  0
 17 12  1  0
 18  9  1  0
M  END
>  <minimizedAffinity>  (194) 
-17.33689

$$$$
Mol: 132_28 - SminaDock
     RDKit          3D

 42 49  0  0  0  0  0  0  0  0999 V2000
    9.2022    5.3572  -13.6944 N   0  0  0  0  0  0  0  0  0  0  0  0
    9.5744    5.8866  -12.6149 C   0  0  0  0  0  0  0  0  0  0  0  0
   10.4515    6.9014  -12.6311 N   0  0  0  0  0  0  0  0  0  0  0  0
   10.8887    7.4989  -11.5067 C   0  0  0  0  0  0  0  0  0  0  0  0
   10.4250    7.0607  -10.2802 C   0  0  0  0  0  0  0  0  0  0  0  0
   10.8749    7.6720   -9.1080 C   0  0  0  0  0  0  0  0  0  0  0  0
   10.3968    7.2105   -7.9040 C   0  0  0  0  0  0  0  0  0  0  0  0
    9.4981    6.1711   -7.8851 C   0  0  0  0  0  0  0  0  0  0  0  0
    9.0514    5.5647   -9.0474 C   0  0  0  0  0  0  0  0  0  0  0  0
    9.5265    6.0207  -10.2702 C   0  0  0  0  0  0  0  0  0  0  0  0
    9.1122    5.4466  -11.4372 N   0  0  0  0  0  0  0  0  0  0  0  0
    8.4297    4.6644  -11.3465 H   0  0  0  0  0  0  0  0  0  0  0  0
    3.6096   -0.0064  -13.9014 C   0  0  0  0  0  0  0  0  0  0  0  0
    4.4885    1.0031  -13.7631 N   0  0  0  0  0  0  0  0  0  0  0  0
    5.6097    1.0609  -14.5232 C   0  0  0  0  0  0  0  0  0  0  0  0
    5.9070    0.1096  -15.4643 C   0  0  0  0  0  0  0  0  0  0  0  0
    4.9849   -0.9368  -15.5979 C   0  0  0  0  0  0  0  0  0  0  0  0
    3.8417   -0.9995  -14.8235 C   0  0  0  0  0  0  0  0  0  0  0  0
    7.0755    0.2009  -16.3363 C   0  0  0  0  0  0  0  0  0  0  0  0
    8.1398    1.0883  -15.8366 C   0  0  1  0  0  0  0  0  0  0  0  0
    7.7265    2.1750  -14.9556 C   0  0  0  0  0  0  0  0  0  0  0  0
    8.5931    3.2714  -14.7452 C   0  0  0  0  0  0  0  0  0  0  0  0
    8.2938    4.2892  -13.8707 C   0  0  0  0  0  0  0  0  0  0  0  0
    7.0947    4.2163  -13.1823 C   0  0  0  0  0  0  0  0  0  0  0  0
    6.2267    3.1657  -13.3626 C   0  0  0  0  0  0  0  0  0  0  0  0
    6.5579    2.1462  -14.2596 C   0  0  0  0  0  0  0  0  0  0  0  0
    9.1011    0.2218  -15.0047 C   0  0  0  0  0  0  0  0  0  0  0  0
   10.4767    0.6903  -15.3415 C   0  0  0  0  0  0  0  0  0  0  0  0
   10.4058    1.2747  -16.6525 N   0  0  2  0  0  0  0  0  0  0  0  0
   10.8198    0.5918  -17.3614 H   0  0  0  0  0  0  0  0  0  0  0  0
   11.0670    2.0850  -16.6924 H   0  0  0  0  0  0  0  0  0  0  0  0
    9.0491    1.5788  -16.9491 C   0  0  0  0  0  0  0  0  0  0  0  0
   10.8340    7.8109   -6.6583 C   0  0  0  0  0  0  0  0  0  0  0  0
   10.9297    9.1681   -6.4357 C   0  0  0  0  0  0  0  0  0  0  0  0
   11.3479    9.6978   -5.2295 C   0  0  0  0  0  0  0  0  0  0  0  0
   11.6953    8.8693   -4.1717 C   0  0  0  0  0  0  0  0  0  0  0  0
   12.1141    9.3691   -2.9579 C   0  0  0  0  0  0  0  0  0  0  0  0
   12.4618    8.5602   -1.8979 C   0  0  0  0  0  0  0  0  0  0  0  0
   12.3773    7.1904   -2.0877 C   0  0  0  0  0  0  0  0  0  0  0  0
   11.9573    6.6909   -3.3050 C   0  0  0  0  0  0  0  0  0  0  0  0
   11.6068    7.5113   -4.3742 C   0  0  0  0  0  0  0  0  0  0  0  0
   11.1894    6.9907   -5.5785 C   0  0  0  0  0  0  0  0  0  0  0  0
 13 14  2  0
 14 15  1  0
 15 16  2  0
 16 17  1  0
 17 18  2  0
 16 19  1  0
 20 19  1  6
 20 21  1  0
 21 22  2  0
 22 23  1  0
 23  1  1  0
  1  2  2  0
  2  3  1  0
  3  4  2  0
  4  5  1  0
  5  6  2  0
  6  7  1  0
  7 33  1  0
 33 34  2  0
 34 35  1  0
 35 36  2  0
 36 37  1  0
 37 38  2  0
 38 39  1  0
 39 40  2  0
 40 41  1  0
 41 42  2  0
  7  8  2  0
  8  9  1  0
  9 10  2  0
 10 11  1  0
 11 12  1  0
 23 24  2  0
 24 25  1  0
 25 26  2  0
 20 27  1  0
 27 28  1  0
 28 29  1  0
 29 30  1  6
 29 31  1  0
 29 32  1  0
 18 13  1  0
 32 20  1  0
 26 15  1  0
 26 21  1  0
 11  2  1  0
 10  5  1  0
 42 33  1  0
 41 36  1  0
M  CHG  1  29   1
M  END
>  <minimizedAffinity>  (195) 
-17.30666

$$$$
Mol: 189_32 - SminaDock
     RDKit          3D

 43 50  0  0  0  0  0  0  0  0999 V2000
    9.5828   -0.7395  -17.6427 H   0  0  0  0  0  0  0  0  0  0  0  0
    9.5293    0.2258  -17.7932 O   0  0  0  0  0  0  0  0  0  0  0  0
   10.0579    0.9169  -16.7060 C   0  0  1  0  0  0  0  0  0  0  0  0
    9.5361    2.3435  -16.7171 C   0  0  0  0  0  0  0  0  0  0  0  0
    8.0860    2.3984  -16.3405 C   0  0  0  0  0  0  0  0  0  0  0  0
    7.8901    1.8351  -14.9441 C   0  0  1  0  0  0  0  0  0  0  0  0
    7.6651    2.9158  -13.9632 C   0  0  0  0  0  0  0  0  0  0  0  0
    8.4402    4.0268  -13.5790 C   0  0  0  0  0  0  0  0  0  0  0  0
    8.0032    4.8980  -12.6053 C   0  0  0  0  0  0  0  0  0  0  0  0
    6.7862    4.6811  -11.9944 C   0  0  0  0  0  0  0  0  0  0  0  0
    5.9985    3.5931  -12.3526 C   0  0  0  0  0  0  0  0  0  0  0  0
    6.4785    2.7392  -13.3408 C   0  0  0  0  0  0  0  0  0  0  0  0
    5.8511    1.5365  -13.9194 C   0  0  0  0  0  0  0  0  0  0  0  0
    6.6585    1.0088  -14.8731 C   0  0  0  0  0  0  0  0  0  0  0  0
    6.2722   -0.1332  -15.5895 C   0  0  0  0  0  0  0  0  0  0  0  0
    6.8541   -0.8115  -16.5306 O   0  0  0  0  0  0  0  0  0  0  0  0
    6.0892   -1.8046  -16.8821 C   0  0  0  0  0  0  0  0  0  0  0  0
    4.9308   -1.7911  -16.1354 C   0  0  0  0  0  0  0  0  0  0  0  0
    5.0602   -0.6968  -15.2951 C   0  0  0  0  0  0  0  0  0  0  0  0
    4.2620   -0.1341  -14.3162 C   0  0  0  0  0  0  0  0  0  0  0  0
    3.1492   -0.6725  -14.0632 O   0  0  0  0  0  0  0  0  0  0  0  0
    4.6441    0.9585  -13.6402 N   0  0  0  0  0  0  0  0  0  0  0  0
    4.0292    1.3680  -12.9064 H   0  0  0  0  0  0  0  0  0  0  0  0
    9.0566    1.0454  -14.4353 C   0  0  0  0  0  0  0  0  0  0  0  0
    9.8258    0.2359  -15.4022 C   0  0  0  0  0  0  0  0  0  0  0  0
    8.7926    6.0023  -12.2356 N   0  0  0  0  0  0  0  0  0  0  0  0
    9.1924    6.1686  -11.0166 C   0  0  0  0  0  0  0  0  0  0  0  0
    9.9407    7.2297  -10.7049 N   0  0  0  0  0  0  0  0  0  0  0  0
   10.3658    7.4133   -9.4256 C   0  0  0  0  0  0  0  0  0  0  0  0
   11.1337    8.4759   -9.0370 C   0  0  0  0  0  0  0  0  0  0  0  0
   11.5504    8.6393   -7.7396 C   0  0  0  0  0  0  0  0  0  0  0  0
   11.1991    7.7181   -6.7743 C   0  0  0  0  0  0  0  0  0  0  0  0
   10.4167    6.6329   -7.1639 C   0  0  0  0  0  0  0  0  0  0  0  0
   10.0159    6.4951   -8.4626 C   0  0  0  0  0  0  0  0  0  0  0  0
    9.2379    5.4012   -8.8116 C   0  0  0  0  0  0  0  0  0  0  0  0
    8.8363    5.2533  -10.0867 N   0  0  0  0  0  0  0  0  0  0  0  0
    8.2512    4.4458  -10.3888 H   0  0  0  0  0  0  0  0  0  0  0  0
   11.6244    7.8550   -5.3703 C   0  0  0  0  0  0  0  0  0  0  0  0
   12.2120    9.0149   -4.9184 C   0  0  0  0  0  0  0  0  0  0  0  0
   12.6071    9.1204   -3.5807 C   0  0  0  0  0  0  0  0  0  0  0  0
   12.4237    8.0834   -2.6866 C   0  0  0  0  0  0  0  0  0  0  0  0
   11.8381    6.9306   -3.1418 C   0  0  0  0  0  0  0  0  0  0  0  0
   11.4454    6.8271   -4.4736 C   0  0  0  0  0  0  0  0  0  0  0  0
  1  2  1  0
  3  2  1  6
  3  4  1  0
  4  5  1  0
  6  5  1  6
  6  7  1  0
  7  8  2  0
  8  9  1  0
  9 26  1  0
 26 27  2  0
 27 28  1  0
 28 29  2  0
 29 30  1  0
 30 31  2  0
 31 32  1  0
 32 38  1  0
 38 39  2  0
 39 40  1  0
 40 41  2  0
 41 42  1  0
 42 43  2  0
 32 33  2  0
 33 34  1  0
 34 35  2  0
 35 36  1  0
 36 37  1  0
  9 10  2  0
 10 11  1  0
 11 12  2  0
 12 13  1  0
 13 14  2  0
 14 15  1  0
 15 16  1  0
 16 17  1  0
 17 18  2  0
 18 19  1  0
 19 20  1  0
 20 21  2  0
 20 22  1  0
 22 23  1  0
  6 24  1  0
 24 25  1  0
 25  3  1  0
 14  6  1  0
 19 15  2  0
 12  7  1  0
 22 13  1  0
 36 27  1  0
 34 29  1  0
 43 38  1  0
M  END
>  <minimizedAffinity>  (196) 
-17.28823

$$$$
Mol: 199_14 - SminaDock
     RDKit          3D

 47 54  0  0  0  0  0  0  0  0999 V2000
    5.3637    4.1109  -11.1584 H   0  0  0  0  0  0  0  0  0  0  0  0
    5.5193    4.7722  -11.9303 O   0  0  0  0  0  0  0  0  0  0  0  0
    6.7957    4.7949  -12.4477 C   0  0  0  0  0  0  0  0  0  0  0  0
    7.4295    6.0395  -12.3303 C   0  0  0  0  0  0  0  0  0  0  0  0
    8.7459    6.3151  -12.5995 C   0  0  0  0  0  0  0  0  0  0  0  0
    9.6338    5.6326  -13.4095 C   0  0  0  0  0  0  0  0  0  0  0  0
    9.4874    4.3811  -13.9371 C   0  0  0  0  0  0  0  0  0  0  0  0
    8.3189    3.5945  -13.9142 C   0  0  0  0  0  0  0  0  0  0  0  0
    7.2960    3.6340  -13.0038 C   0  0  0  0  0  0  0  0  0  0  0  0
    6.8177    2.5423  -12.6794 O   0  0  0  0  0  0  0  0  0  0  0  0
    8.1324    2.5448  -14.9016 C   0  0  0  0  0  0  0  0  0  0  0  0
    6.9906    1.8001  -14.8841 C   0  0  0  0  0  0  0  0  0  0  0  0
    6.8408    0.8059  -15.8439 C   0  0  0  0  0  0  0  0  0  0  0  0
    7.8265    0.5855  -16.7897 C   0  0  0  0  0  0  0  0  0  0  0  0
    8.9621    1.3513  -16.7852 C   0  0  0  0  0  0  0  0  0  0  0  0
    9.1391    2.3369  -15.8523 C   0  0  0  0  0  0  0  0  0  0  0  0
   10.3524    3.1537  -15.8714 C   0  0  0  0  0  0  0  0  0  0  0  0
   10.7040    3.8555  -14.5859 C   0  0  0  0  0  0  0  0  0  0  0  0
    7.7167   -0.4644  -17.8301 C   0  0  0  0  0  0  0  0  0  0  0  0
    6.9515   -1.5364  -17.3606 O   0  0  0  0  0  0  0  0  0  0  0  0
    6.1801   -1.4422  -16.2047 C   0  0  0  0  0  0  0  0  0  0  0  0
    5.9619   -2.4336  -15.4912 O   0  0  0  0  0  0  0  0  0  0  0  0
    5.6549   -0.0614  -15.9189 C   0  0  2  0  0  0  0  0  0  0  0  0
    4.7217    0.2862  -17.0389 C   0  0  0  0  0  0  0  0  0  0  0  0
    3.4891   -0.5457  -16.7084 C   0  0  0  0  0  0  0  0  0  0  0  0
    3.5637   -0.8573  -15.2362 C   0  0  2  0  0  0  0  0  0  0  0  0
    2.4018   -0.4469  -14.5552 O   0  0  0  0  0  0  0  0  0  0  0  0
    1.6742   -0.5235  -15.2455 H   0  0  0  0  0  0  0  0  0  0  0  0
    4.7690   -0.0512  -14.7226 C   0  0  0  0  0  0  0  0  0  0  0  0
    9.3570    7.4644  -11.9804 N   0  0  0  0  0  0  0  0  0  0  0  0
    9.6749    7.3612  -10.7064 C   0  0  0  0  0  0  0  0  0  0  0  0
    9.4374    6.2379  -10.0223 N   0  0  0  0  0  0  0  0  0  0  0  0
    9.7541    6.1015   -8.7298 C   0  0  0  0  0  0  0  0  0  0  0  0
   10.3475    7.1509   -8.0684 C   0  0  0  0  0  0  0  0  0  0  0  0
   10.7014    7.0708   -6.7309 C   0  0  0  0  0  0  0  0  0  0  0  0
   11.2988    8.1213   -6.0678 C   0  0  0  0  0  0  0  0  0  0  0  0
   11.5422    9.2791   -6.7783 C   0  0  0  0  0  0  0  0  0  0  0  0
   11.2034    9.4004   -8.1178 C   0  0  0  0  0  0  0  0  0  0  0  0
   10.6034    8.3270   -8.7602 C   0  0  0  0  0  0  0  0  0  0  0  0
   10.2546    8.3888  -10.0633 N   0  0  0  0  0  0  0  0  0  0  0  0
   10.4394    9.2674  -10.6024 H   0  0  0  0  0  0  0  0  0  0  0  0
   11.6616    7.9966   -4.6400 C   0  0  0  0  0  0  0  0  0  0  0  0
   11.6394    6.7747   -4.0048 C   0  0  0  0  0  0  0  0  0  0  0  0
   11.9772    6.6594   -2.6693 C   0  0  0  0  0  0  0  0  0  0  0  0
   12.3421    7.7868   -1.9625 C   0  0  0  0  0  0  0  0  0  0  0  0
   12.3713    9.0252   -2.5819 C   0  0  0  0  0  0  0  0  0  0  0  0
   12.0293    9.0997   -3.9088 C   0  0  0  0  0  0  0  0  0  0  0  0
  1  2  1  0
  2  3  1  0
  3  4  2  0
  4  5  1  0
  5 30  1  0
 30 31  2  0
 31 32  1  0
 32 33  2  0
 33 34  1  0
 34 35  2  0
 35 36  1  0
 36 42  1  0
 42 43  2  0
 43 44  1  0
 44 45  2  0
 45 46  1  0
 46 47  2  0
 36 37  2  0
 37 38  1  0
 38 39  2  0
 39 40  1  0
 40 41  1  0
  5  6  2  0
  6  7  1  0
  7  8  2  0
  8  9  1  0
  9 10  2  0
  8 11  1  0
 11 12  2  0
 12 13  1  0
 13 14  2  0
 14 15  1  0
 15 16  2  0
 16 17  1  0
 17 18  1  0
 14 19  1  0
 19 20  1  0
 20 21  1  0
 21 22  2  0
 21 23  1  0
 23 24  1  6
 24 25  1  0
 25 26  1  0
 26 27  1  1
 27 28  1  0
 26 29  1  0
  9  3  1  0
 16 11  1  0
 29 23  1  0
 40 31  1  0
 18  7  1  0
 39 34  1  0
 23 13  1  0
 47 42  1  0
M  END
>  <minimizedAffinity>  (197) 
-17.30311

$$$$
Mol: 187_42 - SminaDock
     RDKit          3D

 42 49  0  0  0  0  0  0  0  0999 V2000
    5.4339   -1.5993  -17.7539 C   0  0  0  0  0  0  0  0  0  0  0  0
    6.5782   -0.9150  -17.8155 N   0  0  0  0  0  0  0  0  0  0  0  0
    6.8371    0.0313  -16.8906 C   0  0  0  0  0  0  0  0  0  0  0  0
    5.9621    0.3269  -15.8720 C   0  0  0  0  0  0  0  0  0  0  0  0
    4.7741   -0.3667  -15.7877 C   0  0  0  0  0  0  0  0  0  0  0  0
    4.5422   -1.3224  -16.7445 C   0  0  0  0  0  0  0  0  0  0  0  0
    6.5129    1.3420  -15.0915 C   0  0  0  0  0  0  0  0  0  0  0  0
    7.7309    1.6561  -15.6413 C   0  0  0  0  0  0  0  0  0  0  0  0
    7.8988    0.8430  -16.7376 N   0  0  0  0  0  0  0  0  0  0  0  0
    8.7178    0.8745  -17.3578 H   0  0  0  0  0  0  0  0  0  0  0  0
    8.6592    2.6465  -15.0832 C   0  0  2  0  0  0  0  0  0  0  0  0
    8.0408    3.4850  -14.0416 C   0  0  0  0  0  0  0  0  0  0  0  0
    8.7920    4.6049  -13.5852 C   0  0  0  0  0  0  0  0  0  0  0  0
    8.3055    5.3852  -12.5751 C   0  0  0  0  0  0  0  0  0  0  0  0
    7.0879    5.0797  -12.0057 C   0  0  0  0  0  0  0  0  0  0  0  0
    6.3384    4.0059  -12.4253 C   0  0  0  0  0  0  0  0  0  0  0  0
    6.8455    3.2001  -13.4736 C   0  0  0  0  0  0  0  0  0  0  0  0
    6.0101    2.1076  -13.9654 C   0  0  0  0  0  0  0  0  0  0  0  0
    4.9031    1.8490  -13.4289 O   0  0  0  0  0  0  0  0  0  0  0  0
    9.2983    3.4644  -16.1738 C   0  0  0  0  0  0  0  0  0  0  0  0
   10.7851    3.2696  -16.2793 C   0  0  0  0  0  0  0  0  0  0  0  0
   11.1918    1.8110  -16.3123 C   0  0  0  0  0  0  0  0  0  0  0  0
   10.5610    1.0329  -15.1878 C   0  0  0  0  0  0  0  0  0  0  0  0
    9.8093    1.9519  -14.3214 C   0  0  0  0  0  0  0  0  0  0  0  0
    9.0186    6.5084  -12.0879 N   0  0  0  0  0  0  0  0  0  0  0  0
    9.4118    6.6234  -10.8648 C   0  0  0  0  0  0  0  0  0  0  0  0
    9.1339    5.6347  -10.0119 N   0  0  0  0  0  0  0  0  0  0  0  0
    9.4830    5.6310   -8.7223 C   0  0  0  0  0  0  0  0  0  0  0  0
   10.1793    6.7157   -8.2216 C   0  0  0  0  0  0  0  0  0  0  0  0
   10.5640    6.7581   -6.8861 C   0  0  0  0  0  0  0  0  0  0  0  0
   11.2576    7.8498   -6.4053 C   0  0  0  0  0  0  0  0  0  0  0  0
   11.5416    8.8665   -7.2896 C   0  0  0  0  0  0  0  0  0  0  0  0
   11.1600    8.8245   -8.6146 C   0  0  0  0  0  0  0  0  0  0  0  0
   10.4613    7.7304   -9.1092 C   0  0  0  0  0  0  0  0  0  0  0  0
   10.0845    7.6871  -10.4110 N   0  0  0  0  0  0  0  0  0  0  0  0
   10.3155    8.4675  -11.0454 H   0  0  0  0  0  0  0  0  0  0  0  0
   11.6871    7.9384   -5.0003 C   0  0  0  0  0  0  0  0  0  0  0  0
   12.4165    9.0050   -4.5338 C   0  0  0  0  0  0  0  0  0  0  0  0
   12.8134    9.0752   -3.2141 C   0  0  0  0  0  0  0  0  0  0  0  0
   12.4546    8.0382   -2.3727 C   0  0  0  0  0  0  0  0  0  0  0  0
   11.7159    6.9562   -2.8411 C   0  0  0  0  0  0  0  0  0  0  0  0
   11.3312    6.9079   -4.1617 C   0  0  0  0  0  0  0  0  0  0  0  0
  1  2  2  0
  2  3  1  0
  3  4  2  0
  4  5  1  0
  5  6  2  0
  4  7  1  0
  7  8  2  0
  8  9  1  0
  9 10  1  0
  8 11  1  0
 11 12  1  0
 12 13  2  0
 13 14  1  0
 14 25  1  0
 25 26  2  0
 26 27  1  0
 27 28  2  0
 28 29  1  0
 29 30  2  0
 30 31  1  0
 31 37  1  0
 37 38  2  0
 38 39  1  0
 39 40  2  0
 40 41  1  0
 41 42  2  0
 31 32  2  0
 32 33  1  0
 33 34  2  0
 34 35  1  0
 35 36  1  0
 14 15  2  0
 15 16  1  0
 16 17  2  0
 17 18  1  0
 18 19  2  0
 11 20  1  6
 20 21  1  0
 21 22  1  0
 22 23  1  0
 23 24  1  0
  6  1  1  0
 18  7  1  0
  9  3  1  0
 24 11  1  0
 17 12  1  0
 35 26  1  0
 34 29  1  0
 42 37  1  0
M  END
>  <minimizedAffinity>  (198) 
-17.29473

$$$$
Mol: 123_39 - SminaDock
     RDKit          3D

 40 46  0  0  0  0  0  0  0  0999 V2000
   10.5182   -0.4491  -17.5281 H   0  0  0  0  0  0  0  0  0  0  0  0
   10.6242    0.3604  -16.9190 O   0  0  0  0  0  0  0  0  0  0  0  0
    9.7079    0.5097  -15.8839 C   0  0  0  0  0  0  0  0  0  0  0  0
    9.0173   -0.4248  -15.2954 N   0  0  0  0  0  0  0  0  0  0  0  0
    8.1963    0.1570  -14.2884 C   0  0  0  0  0  0  0  0  0  0  0  0
    7.7793   -0.3947  -13.2747 O   0  0  0  0  0  0  0  0  0  0  0  0
    7.9945    1.5421  -14.7771 C   0  0  2  0  0  0  0  0  0  0  0  0
    7.4303    2.4798  -13.8276 C   0  0  0  0  0  0  0  0  0  0  0  0
    8.2141    3.5728  -13.5210 C   0  0  0  0  0  0  0  0  0  0  0  0
    7.8244    4.5677  -12.6370 C   0  0  0  0  0  0  0  0  0  0  0  0
    6.5916    4.4625  -12.0319 C   0  0  0  0  0  0  0  0  0  0  0  0
    5.7775    3.3879  -12.3094 C   0  0  0  0  0  0  0  0  0  0  0  0
    6.2005    2.3971  -13.2089 C   0  0  0  0  0  0  0  0  0  0  0  0
    5.1462    1.3618  -13.3253 C   0  0  0  0  0  0  0  0  0  0  0  0
    5.0496    0.7257  -14.6419 C   0  0  0  0  0  0  0  0  0  0  0  0
    3.8622   -0.0211  -14.6577 C   0  0  0  0  0  0  0  0  0  0  0  0
    3.4912   -0.7236  -15.7342 N   0  0  0  0  0  0  0  0  0  0  0  0
    4.2831   -0.7034  -16.8156 C   0  0  0  0  0  0  0  0  0  0  0  0
    5.4564    0.0067  -16.8639 C   0  0  0  0  0  0  0  0  0  0  0  0
    5.8461    0.7319  -15.7617 C   0  0  0  0  0  0  0  0  0  0  0  0
    7.1137    1.4053  -16.0308 C   0  0  0  0  0  0  0  0  0  0  0  0
    9.3666    1.8191  -15.2670 C   0  0  0  0  0  0  0  0  0  0  0  0
    8.6420    5.6849  -12.3357 N   0  0  0  0  0  0  0  0  0  0  0  0
    9.0775    5.9216  -11.1223 C   0  0  0  0  0  0  0  0  0  0  0  0
    9.8541    6.9914  -10.8618 N   0  0  0  0  0  0  0  0  0  0  0  0
   10.3043    7.2420   -9.6193 C   0  0  0  0  0  0  0  0  0  0  0  0
   11.1005    8.3261   -9.3137 C   0  0  0  0  0  0  0  0  0  0  0  0
   11.5430    8.5480   -8.0202 C   0  0  0  0  0  0  0  0  0  0  0  0
   11.1936    7.6750   -6.9812 C   0  0  0  0  0  0  0  0  0  0  0  0
   10.3911    6.6033   -7.3516 C   0  0  0  0  0  0  0  0  0  0  0  0
    9.9423    6.3634   -8.6197 C   0  0  0  0  0  0  0  0  0  0  0  0
    9.1347    5.2550   -8.9039 C   0  0  0  0  0  0  0  0  0  0  0  0
    8.7123    5.0519  -10.1639 N   0  0  0  0  0  0  0  0  0  0  0  0
    8.1024    4.2280  -10.4196 H   0  0  0  0  0  0  0  0  0  0  0  0
   11.6322    7.8706   -5.6275 C   0  0  0  0  0  0  0  0  0  0  0  0
   12.3193    8.9937   -5.2612 C   0  0  0  0  0  0  0  0  0  0  0  0
   12.7458    9.1821   -3.9362 C   0  0  0  0  0  0  0  0  0  0  0  0
   12.4629    8.2132   -2.9933 C   0  0  0  0  0  0  0  0  0  0  0  0
   11.7735    7.0834   -3.3541 C   0  0  0  0  0  0  0  0  0  0  0  0
   11.3652    6.9255   -4.6712 C   0  0  0  0  0  0  0  0  0  0  0  0
  1  2  1  0
  2  3  1  0
  3  4  2  0
  4  5  1  0
  5  6  2  0
  5  7  1  0
  7  8  1  0
  8  9  2  0
  9 10  1  0
 10 23  1  0
 23 24  2  0
 24 25  1  0
 25 26  2  0
 26 27  1  0
 27 28  2  0
 28 29  1  0
 29 35  1  0
 35 36  2  0
 36 37  1  0
 37 38  2  0
 38 39  1  0
 39 40  2  0
 29 30  2  0
 30 31  1  0
 31 32  2  0
 32 33  1  0
 33 34  1  0
 10 11  2  0
 11 12  1  0
 12 13  2  0
 13 14  1  0
 14 15  1  0
 15 16  2  0
 16 17  1  0
 17 18  2  0
 18 19  1  0
 19 20  2  0
 20 21  1  0
  7 22  1  6
 22  3  1  0
 21  7  1  0
 13  8  1  0
 20 15  1  0
 33 24  1  0
 31 26  1  0
 40 35  1  0
M  END
>  <minimizedAffinity>  (199) 
-17.34475

$$$$
Mol: 200_33 - SminaDock
     RDKit          3D

 43 50  0  0  0  0  0  0  0  0999 V2000
    8.7431    5.6541  -12.4534 C   0  0  0  0  0  0  0  0  0  0  0  0
    9.2756    5.1095  -13.6136 C   0  0  0  0  0  0  0  0  0  0  0  0
    8.6203    4.0730  -14.2241 C   0  0  0  0  0  0  0  0  0  0  0  0
    7.4462    3.5772  -13.6924 C   0  0  0  0  0  0  0  0  0  0  0  0
    6.9284    4.1280  -12.5387 C   0  0  0  0  0  0  0  0  0  0  0  0
    7.5761    5.1753  -11.9081 C   0  0  0  0  0  0  0  0  0  0  0  0
    5.6681    3.4310  -12.1647 C   0  0  0  0  0  0  0  0  0  0  0  0
    5.4761    2.4038  -13.2057 C   0  0  0  0  0  0  0  0  0  0  0  0
    4.5011    1.4298  -13.4335 C   0  0  0  0  0  0  0  0  0  0  0  0
    4.5624    0.5784  -14.5078 C   0  0  0  0  0  0  0  0  0  0  0  0
    5.6411    0.7145  -15.3793 C   0  0  0  0  0  0  0  0  0  0  0  0
    6.6223    1.6603  -15.1908 C   0  0  0  0  0  0  0  0  0  0  0  0
    6.5243    2.5060  -14.0880 C   0  0  0  0  0  0  0  0  0  0  0  0
    5.6866   -0.2054  -16.5263 C   0  0  1  0  0  0  0  0  0  0  0  0
    5.1972   -1.5292  -16.0685 C   0  0  0  0  0  0  0  0  0  0  0  0
    5.8899   -2.5645  -16.1961 O   0  0  0  0  0  0  0  0  0  0  0  0
    3.9215   -1.5265  -15.4925 O   0  0  0  0  0  0  0  0  0  0  0  0
    3.4887   -0.4444  -14.6882 C   0  0  0  0  0  0  0  0  0  0  0  0
    4.6493    0.2891  -17.5432 C   0  0  0  0  0  0  0  0  0  0  0  0
    4.6479   -0.7370  -18.6623 C   0  0  0  0  0  0  0  0  0  0  0  0
    5.9306   -0.6509  -19.3304 N   0  0  1  0  0  0  0  0  0  0  0  0
    5.8960   -1.2631  -20.1588 H   0  0  0  0  0  0  0  0  0  0  0  0
    6.1058    0.3373  -19.6037 H   0  0  0  0  0  0  0  0  0  0  0  0
    6.9788   -1.1293  -18.4480 C   0  0  0  0  0  0  0  0  0  0  0  0
    7.0447   -0.3039  -17.1763 C   0  0  0  0  0  0  0  0  0  0  0  0
   11.3455    7.9686   -5.9994 C   0  0  0  0  0  0  0  0  0  0  0  0
   11.6538    9.0080   -6.8522 C   0  0  0  0  0  0  0  0  0  0  0  0
   11.3235    8.9687   -8.2097 C   0  0  0  0  0  0  0  0  0  0  0  0
   10.6724    7.8678   -8.7222 C   0  0  0  0  0  0  0  0  0  0  0  0
   10.3364    7.7832  -10.0082 N   0  0  0  0  0  0  0  0  0  0  0  0
    9.6948    6.7202  -10.5589 C   0  0  0  0  0  0  0  0  0  0  0  0
    9.4134    6.7315  -11.8091 N   0  0  0  0  0  0  0  0  0  0  0  0
    9.3823    5.6865   -9.7365 N   0  0  0  0  0  0  0  0  0  0  0  0
    8.8908    4.8800  -10.1764 H   0  0  0  0  0  0  0  0  0  0  0  0
    9.7031    5.7327   -8.4364 C   0  0  0  0  0  0  0  0  0  0  0  0
   10.3516    6.8037   -7.8725 C   0  0  0  0  0  0  0  0  0  0  0  0
   10.6927    6.8737   -6.5329 C   0  0  0  0  0  0  0  0  0  0  0  0
   12.3894    8.1581   -1.8523 C   0  0  0  0  0  0  0  0  0  0  0  0
   12.0026    6.9640   -2.4302 C   0  0  0  0  0  0  0  0  0  0  0  0
   11.6675    6.9119   -3.7688 C   0  0  0  0  0  0  0  0  0  0  0  0
   11.7055    8.0351   -4.5696 C   0  0  0  0  0  0  0  0  0  0  0  0
   12.0913    9.2335   -3.9993 C   0  0  0  0  0  0  0  0  0  0  0  0
   12.4239    9.2744   -2.6620 C   0  0  0  0  0  0  0  0  0  0  0  0
 38 39  2  0
 39 40  1  0
 40 41  2  0
 41 26  1  0
 26 27  1  0
 27 28  2  0
 28 29  1  0
 29 30  2  0
 30 31  1  0
 31 32  2  0
 32  1  1  0
  1  2  2  0
  2  3  1  0
  3  4  2  0
  4  5  1  0
  5  6  2  0
  5  7  1  0
  7  8  1  0
  8  9  2  0
  9 10  1  0
 10 11  2  0
 11 12  1  0
 12 13  2  0
 11 14  1  0
 14 15  1  0
 15 16  2  0
 15 17  1  0
 17 18  1  0
 14 19  1  6
 19 20  1  0
 20 21  1  0
 21 22  1  6
 21 23  1  0
 21 24  1  0
 24 25  1  0
 31 33  1  0
 33 34  1  0
 33 35  1  0
 35 36  2  0
 36 37  1  0
 41 42  1  0
 42 43  2  0
 43 38  1  0
 37 26  2  0
 36 29  1  0
  6  1  1  0
 13  8  1  0
 25 14  1  0
 13  4  1  0
 18 10  1  0
M  CHG  1  21   1
M  END
>  <minimizedAffinity>  (200) 
-17.34435

$$$$
Mol: 200_31 - SminaDock
     RDKit          3D

 43 50  0  0  0  0  0  0  0  0999 V2000
   10.3151   -2.1579  -16.8937 H   0  0  0  0  0  0  0  0  0  0  0  0
   10.4215   -1.1663  -16.9589 O   0  0  0  0  0  0  0  0  0  0  0  0
    9.3428   -0.7214  -17.7267 C   0  0  2  0  0  0  0  0  0  0  0  0
    9.4931    0.7789  -18.0085 C   0  0  0  0  0  0  0  0  0  0  0  0
    8.0527    1.2541  -18.1747 C   0  0  0  0  0  0  0  0  0  0  0  0
    7.1993    0.3482  -17.3382 C   0  0  2  0  0  0  0  0  0  0  0  0
    6.0683   -0.1496  -18.1528 C   0  0  0  0  0  0  0  0  0  0  0  0
    6.1218   -0.0721  -19.3985 O   0  0  0  0  0  0  0  0  0  0  0  0
    4.9732   -0.6901  -17.5440 O   0  0  0  0  0  0  0  0  0  0  0  0
    4.8907   -0.7530  -16.1305 C   0  0  0  0  0  0  0  0  0  0  0  0
    5.5715    0.4224  -15.5155 C   0  0  0  0  0  0  0  0  0  0  0  0
    5.0537    0.9544  -14.3546 C   0  0  0  0  0  0  0  0  0  0  0  0
    5.6779    2.0669  -13.7504 C   0  0  0  0  0  0  0  0  0  0  0  0
    6.7946    2.6115  -14.3209 C   0  0  0  0  0  0  0  0  0  0  0  0
    7.2870    2.0486  -15.4899 C   0  0  0  0  0  0  0  0  0  0  0  0
    6.6933    0.9473  -16.1139 C   0  0  0  0  0  0  0  0  0  0  0  0
    7.4839    3.7598  -13.7450 C   0  0  0  0  0  0  0  0  0  0  0  0
    8.6207    4.3116  -14.3295 C   0  0  0  0  0  0  0  0  0  0  0  0
    9.1986    5.3963  -13.7082 C   0  0  0  0  0  0  0  0  0  0  0  0
    8.6891    5.9362  -12.5472 C   0  0  0  0  0  0  0  0  0  0  0  0
    7.5650    5.3955  -11.9634 C   0  0  0  0  0  0  0  0  0  0  0  0
    6.9597    4.2902  -12.5790 C   0  0  0  0  0  0  0  0  0  0  0  0
    5.7678    3.7671  -11.9021 C   0  0  0  0  0  0  0  0  0  0  0  0
    5.1015    2.6135  -12.5106 C   0  0  0  0  0  0  0  0  0  0  0  0
    8.0481   -0.8582  -16.9822 C   0  0  0  0  0  0  0  0  0  0  0  0
    9.2911    7.0601  -11.9081 N   0  0  0  0  0  0  0  0  0  0  0  0
    9.6145    6.9999  -10.6611 C   0  0  0  0  0  0  0  0  0  0  0  0
    9.3958    5.8676   -9.9084 C   0  0  0  0  0  0  0  0  0  0  0  0
    9.7411    5.7981   -8.5690 C   0  0  0  0  0  0  0  0  0  0  0  0
   10.3259    6.9047   -7.9664 C   0  0  0  0  0  0  0  0  0  0  0  0
   10.6799    6.8645   -6.6346 C   0  0  0  0  0  0  0  0  0  0  0  0
   11.2654    7.9601   -6.0137 C   0  0  0  0  0  0  0  0  0  0  0  0
   11.4713    9.0849   -6.8023 C   0  0  0  0  0  0  0  0  0  0  0  0
   11.1161    9.1215   -8.1339 C   0  0  0  0  0  0  0  0  0  0  0  0
   10.5315    8.0201   -8.7431 C   0  0  0  0  0  0  0  0  0  0  0  0
   10.1840    8.0543  -10.0431 N   0  0  0  0  0  0  0  0  0  0  0  0
   10.3430    8.9138  -10.6401 H   0  0  0  0  0  0  0  0  0  0  0  0
   11.6461    7.9390   -4.6101 C   0  0  0  0  0  0  0  0  0  0  0  0
   12.0000    9.1224   -4.0049 C   0  0  0  0  0  0  0  0  0  0  0  0
   12.3732    9.1557   -2.6605 C   0  0  0  0  0  0  0  0  0  0  0  0
   12.3852    7.9851   -1.9350 C   0  0  0  0  0  0  0  0  0  0  0  0
   12.0347    6.7862   -2.5188 C   0  0  0  0  0  0  0  0  0  0  0  0
   11.6696    6.7910   -3.8560 C   0  0  0  0  0  0  0  0  0  0  0  0
  1  2  1  0
  3  2  1  1
  3  4  1  0
  4  5  1  0
  6  5  1  6
  6  7  1  0
  7  8  2  0
  7  9  1  0
  9 10  1  0
 10 11  1  0
 11 12  2  0
 12 13  1  0
 13 14  2  0
 14 15  1  0
 15 16  2  0
 14 17  1  0
 17 18  2  0
 18 19  1  0
 19 20  2  0
 20 26  1  0
 26 27  2  0
 27 28  1  0
 28 29  2  0
 29 30  1  0
 30 31  2  0
 31 32  1  0
 32 38  1  0
 38 39  2  0
 39 40  1  0
 40 41  2  0
 41 42  1  0
 42 43  2  0
 32 33  2  0
 33 34  1  0
 34 35  2  0
 35 36  1  0
 36 37  1  0
 20 21  1  0
 21 22  2  0
 22 23  1  0
 23 24  1  0
  6 25  1  0
 25  3  1  0
 16  6  1  0
 22 17  1  0
 16 11  1  0
 36 27  1  0
 24 13  1  0
 35 30  1  0
 43 38  1  0
M  END
>  <minimizedAffinity>  (201) 
-17.29358

$$$$
Mol: 139_37 - SminaDock
     RDKit          3D

 39 45  0  0  0  0  0  0  0  0999 V2000
    8.8594    5.9528  -12.4954 C   0  0  0  0  0  0  0  0  0  0  0  0
    9.5019    5.1396  -13.3804 C   0  0  0  0  0  0  0  0  0  0  0  0
    8.9215    3.9740  -13.8945 C   0  0  0  0  0  0  0  0  0  0  0  0
    7.6523    3.6617  -13.4725 C   0  0  0  0  0  0  0  0  0  0  0  0
    6.9646    4.4621  -12.5739 C   0  0  0  0  0  0  0  0  0  0  0  0
    7.5865    5.6032  -12.0975 C   0  0  0  0  0  0  0  0  0  0  0  0
    5.6039    4.2079  -12.0687 C   0  0  0  0  0  0  0  0  0  0  0  0
    4.9450    2.9811  -12.5732 C   0  0  0  0  0  0  0  0  0  0  0  0
    5.7155    2.1758  -13.5221 C   0  0  0  0  0  0  0  0  0  0  0  0
    5.0834    1.0252  -14.0003 C   0  0  0  0  0  0  0  0  0  0  0  0
    5.7117    0.1972  -14.8908 C   0  0  0  0  0  0  0  0  0  0  0  0
    6.9776    0.4755  -15.3365 C   0  0  0  0  0  0  0  0  0  0  0  0
    7.6174    1.6105  -14.8730 C   0  0  0  0  0  0  0  0  0  0  0  0
    6.9852    2.4440  -13.9769 C   0  0  0  0  0  0  0  0  0  0  0  0
    7.5790   -0.4167  -16.2581 N   0  0  0  0  0  0  0  0  0  0  0  0
    8.6157   -0.4127  -16.3448 H   0  0  0  0  0  0  0  0  0  0  0  0
    6.7953   -1.2773  -17.0285 N   0  0  0  0  0  0  0  0  0  0  0  0
    7.3463   -2.0961  -17.3830 H   0  0  0  0  0  0  0  0  0  0  0  0
    5.7305   -1.8188  -16.2964 N   0  0  0  0  0  0  0  0  0  0  0  0
    5.0337   -1.0004  -15.3781 C   0  0  0  0  0  0  0  0  0  0  0  0
    3.8777   -1.2391  -14.9603 O   0  0  0  0  0  0  0  0  0  0  0  0
   11.3187    8.1523   -6.0947 C   0  0  0  0  0  0  0  0  0  0  0  0
   11.5418    9.2674   -6.8468 C   0  0  0  0  0  0  0  0  0  0  0  0
   11.2072    9.2879   -8.1841 C   0  0  0  0  0  0  0  0  0  0  0  0
   10.6330    8.1869   -8.8232 C   0  0  0  0  0  0  0  0  0  0  0  0
   10.3141    8.2272  -10.1274 N   0  0  0  0  0  0  0  0  0  0  0  0
    9.7550    7.1193  -10.6974 C   0  0  0  0  0  0  0  0  0  0  0  0
    9.4370    7.1378  -11.9661 N   0  0  0  0  0  0  0  0  0  0  0  0
    9.5471    6.0377   -9.9339 N   0  0  0  0  0  0  0  0  0  0  0  0
    9.1205    5.1989  -10.3777 H   0  0  0  0  0  0  0  0  0  0  0  0
    9.8610    6.0012   -8.6551 N   0  0  0  0  0  0  0  0  0  0  0  0
   10.4154    7.0666   -8.0419 C   0  0  0  0  0  0  0  0  0  0  0  0
   10.7514    7.0505   -6.7054 C   0  0  0  0  0  0  0  0  0  0  0  0
   12.3120    7.9173   -1.9250 C   0  0  0  0  0  0  0  0  0  0  0  0
   11.9398    6.7911   -2.6360 C   0  0  0  0  0  0  0  0  0  0  0  0
   11.6228    6.8932   -3.9853 C   0  0  0  0  0  0  0  0  0  0  0  0
   11.6633    8.0934   -4.6633 C   0  0  0  0  0  0  0  0  0  0  0  0
   12.0350    9.2128   -3.9494 C   0  0  0  0  0  0  0  0  0  0  0  0
   12.3510    9.1148   -2.6070 C   0  0  0  0  0  0  0  0  0  0  0  0
 34 35  2  0
 35 36  1  0
 36 37  2  0
 37 22  1  0
 22 23  1  0
 23 24  2  0
 24 25  1  0
 25 26  2  0
 26 27  1  0
 27 28  2  0
 28  1  1  0
  1  2  2  0
  2  3  1  0
  3  4  2  0
  4  5  1  0
  5  6  2  0
  5  7  1  0
  7  8  1  0
  8  9  1  0
  9 10  2  0
 10 11  1  0
 11 12  2  0
 12 13  1  0
 13 14  2  0
 12 15  1  0
 15 16  1  0
 15 17  1  0
 17 18  1  0
 17 19  1  0
 19 20  1  0
 20 21  2  0
 27 29  1  0
 29 30  1  0
 29 31  1  0
 31 32  2  0
 32 33  1  0
 37 38  1  0
 38 39  2  0
 39 34  1  0
 33 22  2  0
 32 25  1  0
  6  1  1  0
 14  9  1  0
 14  4  1  0
 20 11  1  0
M  CHG  1  19  -1
M  END
>  <minimizedAffinity>  (202) 
-17.26668

$$$$
Mol: 197_40 - SminaDock
     RDKit          3D

 42 49  0  0  0  0  0  0  0  0999 V2000
    8.7077    5.9801  -12.2728 C   0  0  0  0  0  0  0  0  0  0  0  0
    7.4640    5.5568  -11.8642 C   0  0  0  0  0  0  0  0  0  0  0  0
    6.9033    4.4408  -12.4394 C   0  0  0  0  0  0  0  0  0  0  0  0
    7.5439    3.7004  -13.4365 C   0  0  0  0  0  0  0  0  0  0  0  0
    8.7781    4.1270  -13.8367 C   0  0  0  0  0  0  0  0  0  0  0  0
    9.3530    5.2658  -13.2513 C   0  0  0  0  0  0  0  0  0  0  0  0
    9.2600    3.2082  -14.8859 C   0  0  2  0  0  0  0  0  0  0  0  0
    8.1884    2.2056  -15.0489 C   0  0  0  0  0  0  0  0  0  0  0  0
    7.1764    2.5091  -14.1869 C   0  0  0  0  0  0  0  0  0  0  0  0
    6.0308    1.7224  -14.1319 C   0  0  0  0  0  0  0  0  0  0  0  0
    5.9249    0.6278  -14.9595 C   0  0  0  0  0  0  0  0  0  0  0  0
    4.7722   -0.1242  -14.8719 C   0  0  0  0  0  0  0  0  0  0  0  0
    4.6607   -1.2215  -15.6980 C   0  0  0  0  0  0  0  0  0  0  0  0
    5.7012   -1.4955  -16.5533 C   0  0  0  0  0  0  0  0  0  0  0  0
    5.5983   -2.5007  -17.3095 O   0  0  0  0  0  0  0  0  0  0  0  0
    6.8113   -0.7732  -16.6391 N   0  0  0  0  0  0  0  0  0  0  0  0
    7.6054   -0.9800  -17.2900 H   0  0  0  0  0  0  0  0  0  0  0  0
    6.9566    0.3040  -15.8499 C   0  0  0  0  0  0  0  0  0  0  0  0
    8.0849    1.0846  -15.8992 C   0  0  0  0  0  0  0  0  0  0  0  0
   10.5516    2.5823  -14.4250 C   0  0  0  0  0  0  0  0  0  0  0  0
   11.7657    3.2272  -15.0106 C   0  0  0  0  0  0  0  0  0  0  0  0
   11.6534    3.5101  -16.3657 O   0  0  0  0  0  0  0  0  0  0  0  0
   10.6896    4.5363  -16.4919 C   0  0  0  0  0  0  0  0  0  0  0  0
    9.3675    3.9186  -16.2176 C   0  0  0  0  0  0  0  0  0  0  0  0
   11.3209    8.1173   -5.9174 C   0  0  0  0  0  0  0  0  0  0  0  0
   11.5177    9.2468   -6.6902 C   0  0  0  0  0  0  0  0  0  0  0  0
   11.1374    9.2621   -8.0359 C   0  0  0  0  0  0  0  0  0  0  0  0
   10.5644    8.1466   -8.5927 C   0  0  0  0  0  0  0  0  0  0  0  0
   10.3597    7.0111   -7.8392 C   0  0  0  0  0  0  0  0  0  0  0  0
    9.7821    5.9119   -8.4335 C   0  0  0  0  0  0  0  0  0  0  0  0
    9.4390    5.9930   -9.7354 N   0  0  0  0  0  0  0  0  0  0  0  0
    9.6402    7.0965  -10.4595 C   0  0  0  0  0  0  0  0  0  0  0  0
    9.3036    7.1358  -11.6864 N   0  0  0  0  0  0  0  0  0  0  0  0
   10.2011    8.1780   -9.9004 N   0  0  0  0  0  0  0  0  0  0  0  0
   10.3428    9.0227  -10.4980 H   0  0  0  0  0  0  0  0  0  0  0  0
   10.7400    7.0091   -6.5106 C   0  0  0  0  0  0  0  0  0  0  0  0
   12.4462    7.8995   -1.8427 C   0  0  0  0  0  0  0  0  0  0  0  0
   12.4514    9.1232   -2.4924 C   0  0  0  0  0  0  0  0  0  0  0  0
   12.0879    9.2379   -3.8322 C   0  0  0  0  0  0  0  0  0  0  0  0
   11.7203    8.0996   -4.5025 C   0  0  0  0  0  0  0  0  0  0  0  0
   11.7209    6.8828   -3.8366 C   0  0  0  0  0  0  0  0  0  0  0  0
   12.0762    6.7546   -2.5183 C   0  0  0  0  0  0  0  0  0  0  0  0
 37 38  2  0
 38 39  1  0
 39 40  2  0
 40 25  1  0
 25 26  2  0
 26 27  1  0
 27 28  2  0
 28 29  1  0
 29 30  1  0
 30 31  2  0
 31 32  1  0
 32 33  2  0
 33  1  1  0
  1  2  2  0
  2  3  1  0
  3  4  2  0
  4  5  1  0
  5  6  2  0
  5  7  1  0
  7  8  1  0
  8  9  2  0
  9 10  1  0
 10 11  2  0
 11 12  1  0
 12 13  2  0
 13 14  1  0
 14 15  2  0
 14 16  1  0
 16 17  1  0
 16 18  1  0
 18 19  2  0
  7 20  1  1
 20 21  1  0
 21 22  1  0
 22 23  1  0
 23 24  1  0
 32 34  1  0
 34 35  1  0
 29 36  2  0
 40 41  1  0
 41 42  2  0
 42 37  1  0
 36 25  1  0
 34 28  1  0
  6  1  1  0
 24  7  1  0
  9  4  1  0
 18 11  1  0
 19  8  1  0
M  END
>  <minimizedAffinity>  (203) 
-17.26178

$$$$
Mol: 197_35 - SminaDock
     RDKit          3D

 36 42  0  0  0  0  0  0  0  0999 V2000
    1.8944   -0.4263  -14.7545 H   0  0  0  0  0  0  0  0  0  0  0  0
    2.6963   -1.0248  -14.6141 O   0  0  0  0  0  0  0  0  0  0  0  0
    3.9450   -0.5887  -15.1010 C   0  0  0  0  0  0  0  0  0  0  0  0
    4.5813   -1.1408  -16.1032 C   0  0  0  0  0  0  0  0  0  0  0  0
    5.8497   -0.4569  -16.3627 C   0  0  0  0  0  0  0  0  0  0  0  0
    5.8855    0.6175  -15.3434 C   0  0  0  0  0  0  0  0  0  0  0  0
    6.8477    1.5772  -15.1117 C   0  0  0  0  0  0  0  0  0  0  0  0
    6.6251    2.4670  -14.0828 C   0  0  0  0  0  0  0  0  0  0  0  0
    5.4914    2.4237  -13.2972 C   0  0  0  0  0  0  0  0  0  0  0  0
    4.5626    1.4356  -13.5810 C   0  0  0  0  0  0  0  0  0  0  0  0
    4.7388    0.5187  -14.6023 C   0  0  0  0  0  0  0  0  0  0  0  0
    5.5106    3.4896  -12.2740 C   0  0  0  0  0  0  0  0  0  0  0  0
    6.7952    4.2032  -12.5153 C   0  0  0  0  0  0  0  0  0  0  0  0
    7.3834    5.2877  -11.8876 C   0  0  0  0  0  0  0  0  0  0  0  0
    8.5946    5.7582  -12.3134 C   0  0  0  0  0  0  0  0  0  0  0  0
    9.2343    5.1504  -13.3727 C   0  0  0  0  0  0  0  0  0  0  0  0
    8.6436    4.0704  -13.9942 C   0  0  0  0  0  0  0  0  0  0  0  0
    7.4175    3.5817  -13.5755 C   0  0  0  0  0  0  0  0  0  0  0  0
    9.2523    6.8723  -11.7084 N   0  0  0  0  0  0  0  0  0  0  0  0
    9.5528    6.7862  -10.4729 C   0  0  0  0  0  0  0  0  0  0  0  0
    9.2956    5.7094   -9.6754 C   0  0  0  0  0  0  0  0  0  0  0  0
    9.6681    5.7293   -8.3474 C   0  0  0  0  0  0  0  0  0  0  0  0
   10.3051    6.8177   -7.7757 C   0  0  0  0  0  0  0  0  0  0  0  0
   10.6790    6.8418   -6.4479 C   0  0  0  0  0  0  0  0  0  0  0  0
   11.3150    7.9390   -5.8933 C   0  0  0  0  0  0  0  0  0  0  0  0
   11.5593    9.0101   -6.7285 C   0  0  0  0  0  0  0  0  0  0  0  0
   11.1858    8.9867   -8.0559 C   0  0  0  0  0  0  0  0  0  0  0  0
   10.5482    7.8873   -8.6128 C   0  0  0  0  0  0  0  0  0  0  0  0
   10.1809    7.8578   -9.9067 N   0  0  0  0  0  0  0  0  0  0  0  0
   10.3900    8.7016  -10.5039 H   0  0  0  0  0  0  0  0  0  0  0  0
   11.7230    7.9958   -4.4949 C   0  0  0  0  0  0  0  0  0  0  0  0
   11.7702    6.8700   -3.7024 C   0  0  0  0  0  0  0  0  0  0  0  0
   12.1520    6.8918   -2.3766 C   0  0  0  0  0  0  0  0  0  0  0  0
   12.5038    8.0916   -1.8117 C   0  0  0  0  0  0  0  0  0  0  0  0
   12.4695    9.2532   -2.5790 C   0  0  0  0  0  0  0  0  0  0  0  0
   12.0819    9.1897   -3.9022 C   0  0  0  0  0  0  0  0  0  0  0  0
  1  2  1  0
  2  3  1  0
  3  4  2  0
  4  5  1  0
  5  6  1  0
  6  7  2  0
  7  8  1  0
  8  9  2  0
  9 10  1  0
 10 11  2  0
  9 12  1  0
 12 13  1  0
 13 14  2  0
 14 15  1  0
 15 19  1  0
 19 20  2  0
 20 21  1  0
 21 22  2  0
 22 23  1  0
 23 24  2  0
 24 25  1  0
 25 31  1  0
 31 32  2  0
 32 33  1  0
 33 34  2  0
 34 35  1  0
 35 36  2  0
 25 26  2  0
 26 27  1  0
 27 28  2  0
 28 29  1  0
 29 30  1  0
 15 16  2  0
 16 17  1  0
 17 18  2  0
 11  3  1  0
 18 13  1  0
 11  6  1  0
 29 20  1  0
 18  8  1  0
 28 23  1  0
 36 31  1  0
M  END
>  <minimizedAffinity>  (204) 
-17.26857

$$$$
Mol: 197_34 - SminaDock
     RDKit          3D

 42 49  0  0  0  0  0  0  0  0999 V2000
    8.6014    5.7137  -12.4064 C   0  0  0  0  0  0  0  0  0  0  0  0
    7.3354    5.3470  -12.0278 C   0  0  0  0  0  0  0  0  0  0  0  0
    6.7343    4.2215  -12.5423 C   0  0  0  0  0  0  0  0  0  0  0  0
    7.4004    3.4328  -13.4579 C   0  0  0  0  0  0  0  0  0  0  0  0
    8.6841    3.8015  -13.8437 C   0  0  0  0  0  0  0  0  0  0  0  0
    9.2924    4.9462  -13.3190 C   0  0  0  0  0  0  0  0  0  0  0  0
    9.3743    2.9732  -14.7895 C   0  0  0  0  0  0  0  0  0  0  0  0
   10.5689    3.2838  -15.0984 O   0  0  0  0  0  0  0  0  0  0  0  0
    8.8267    1.7666  -15.4582 C   0  0  2  0  0  0  0  0  0  0  0  0
    7.4631    1.4589  -14.9534 C   0  0  0  0  0  0  0  0  0  0  0  0
    6.7902    2.2496  -14.0207 C   0  0  0  0  0  0  0  0  0  0  0  0
    5.5190    1.9010  -13.6076 C   0  0  0  0  0  0  0  0  0  0  0  0
    4.8975    0.7513  -14.1223 C   0  0  0  0  0  0  0  0  0  0  0  0
    3.6625    0.1589  -13.9065 C   0  0  0  0  0  0  0  0  0  0  0  0
    3.6509   -0.9293  -14.6964 N   0  0  0  0  0  0  0  0  0  0  0  0
    4.7670   -1.0166  -15.3469 O   0  0  0  0  0  0  0  0  0  0  0  0
    5.5754   -0.0195  -15.0424 C   0  0  0  0  0  0  0  0  0  0  0  0
    6.8447    0.3358  -15.4497 C   0  0  0  0  0  0  0  0  0  0  0  0
    9.7716    0.6450  -15.1333 C   0  0  0  0  0  0  0  0  0  0  0  0
   10.2746   -0.1482  -16.2739 C   0  0  0  0  0  0  0  0  0  0  0  0
   10.4995    0.6305  -17.4747 N   0  0  0  0  0  0  0  0  0  0  0  0
   10.8101   -0.0641  -18.2179 H   0  0  0  0  0  0  0  0  0  0  0  0
    9.2170    1.1247  -17.8811 C   0  0  0  0  0  0  0  0  0  0  0  0
    8.7152    2.1184  -16.9057 C   0  0  0  0  0  0  0  0  0  0  0  0
   11.2315    8.0652   -6.0335 C   0  0  0  0  0  0  0  0  0  0  0  0
   11.4154    9.1506   -6.8676 C   0  0  0  0  0  0  0  0  0  0  0  0
   11.0477    9.1354   -8.1940 C   0  0  0  0  0  0  0  0  0  0  0  0
   10.4753    8.0250   -8.7490 C   0  0  0  0  0  0  0  0  0  0  0  0
   10.2784    6.9251   -7.9428 C   0  0  0  0  0  0  0  0  0  0  0  0
   10.6456    6.9311   -6.6052 C   0  0  0  0  0  0  0  0  0  0  0  0
    9.7017    5.8095   -8.5070 C   0  0  0  0  0  0  0  0  0  0  0  0
    9.3474    5.8317   -9.8363 C   0  0  0  0  0  0  0  0  0  0  0  0
    9.5536    6.9369  -10.6161 C   0  0  0  0  0  0  0  0  0  0  0  0
    9.1985    6.8903  -11.8524 N   0  0  0  0  0  0  0  0  0  0  0  0
   10.1144    8.0083  -10.0491 N   0  0  0  0  0  0  0  0  0  0  0  0
   10.2733    8.8617  -10.6518 H   0  0  0  0  0  0  0  0  0  0  0  0
   12.3453    8.0105   -1.9517 C   0  0  0  0  0  0  0  0  0  0  0  0
   12.2728    9.1748   -2.6201 N   0  0  0  0  0  0  0  0  0  0  0  0
   11.9200    9.2187   -3.9225 C   0  0  0  0  0  0  0  0  0  0  0  0
   11.6171    8.0727   -4.6295 C   0  0  0  0  0  0  0  0  0  0  0  0
   11.6929    6.8824   -3.9396 C   0  0  0  0  0  0  0  0  0  0  0  0
   12.0511    6.8436   -2.6196 C   0  0  0  0  0  0  0  0  0  0  0  0
 37 38  2  0
 38 39  1  0
 39 40  2  0
 40 25  1  0
 25 26  2  0
 26 27  1  0
 27 28  2  0
 28 29  1  0
 29 30  2  0
 29 31  1  0
 31 32  2  0
 32 33  1  0
 33 34  2  0
 34  1  1  0
  1  2  2  0
  2  3  1  0
  3  4  2  0
  4  5  1  0
  5  6  2  0
  5  7  1  0
  7  8  2  0
  7  9  1  0
  9 10  1  0
 10 11  2  0
 11 12  1  0
 12 13  2  0
 13 14  1  0
 14 15  2  0
 15 16  1  0
 16 17  1  0
 17 18  2  0
  9 19  1  6
 19 20  1  0
 20 21  1  0
 21 22  1  0
 21 23  1  0
 23 24  1  0
 33 35  1  0
 35 36  1  0
 40 41  1  0
 41 42  2  0
 42 37  1  0
 30 25  1  0
  6  1  1  0
 24  9  1  0
 35 28  1  0
 11  4  1  0
 17 13  1  0
 18 10  1  0
M  END
>  <minimizedAffinity>  (205) 
-17.31246

$$$$
Mol: 200_23 - SminaDock
     RDKit          3D

 37 43  0  0  0  0  0  0  0  0999 V2000
    3.5851   -0.8555  -14.8522 C   0  0  0  0  0  0  0  0  0  0  0  0
    4.2416   -1.4495  -15.8208 O   0  0  0  0  0  0  0  0  0  0  0  0
    5.3992   -0.9927  -16.1924 C   0  0  0  0  0  0  0  0  0  0  0  0
    6.0203   -1.5575  -17.1113 O   0  0  0  0  0  0  0  0  0  0  0  0
    5.9382    0.1099  -15.5750 C   0  0  0  0  0  0  0  0  0  0  0  0
    7.1832    0.6210  -15.9574 C   0  0  0  0  0  0  0  0  0  0  0  0
    7.7594    1.7227  -15.3660 C   0  0  0  0  0  0  0  0  0  0  0  0
    7.0603    2.3481  -14.3411 C   0  0  0  0  0  0  0  0  0  0  0  0
    5.8318    1.8855  -13.9267 C   0  0  0  0  0  0  0  0  0  0  0  0
    5.2900    0.7700  -14.5534 C   0  0  0  0  0  0  0  0  0  0  0  0
    4.0555    0.2541  -14.1825 C   0  0  0  0  0  0  0  0  0  0  0  0
    5.0377    2.4877  -12.8591 C   0  0  0  0  0  0  0  0  0  0  0  0
    5.6080    3.6670  -12.1917 C   0  0  0  0  0  0  0  0  0  0  0  0
    6.9164    4.1402  -12.6526 C   0  0  0  0  0  0  0  0  0  0  0  0
    7.4902    5.2683  -12.0380 C   0  0  0  0  0  0  0  0  0  0  0  0
    8.7069    5.7745  -12.4078 C   0  0  0  0  0  0  0  0  0  0  0  0
    9.3909    5.1514  -13.4209 C   0  0  0  0  0  0  0  0  0  0  0  0
    8.8370    4.0292  -14.0436 C   0  0  0  0  0  0  0  0  0  0  0  0
    7.6037    3.5177  -13.6674 C   0  0  0  0  0  0  0  0  0  0  0  0
    9.2418    6.9321  -11.7429 N   0  0  0  0  0  0  0  0  0  0  0  0
    9.5873    6.8779  -10.4827 C   0  0  0  0  0  0  0  0  0  0  0  0
    9.4561    5.7280   -9.7475 C   0  0  0  0  0  0  0  0  0  0  0  0
    9.8352    5.7212   -8.4222 C   0  0  0  0  0  0  0  0  0  0  0  0
   10.3473    6.8597   -7.8208 C   0  0  0  0  0  0  0  0  0  0  0  0
   10.7265    6.8522   -6.4947 C   0  0  0  0  0  0  0  0  0  0  0  0
   11.2338    7.9924   -5.9116 C   0  0  0  0  0  0  0  0  0  0  0  0
   11.3468    9.1403   -6.7071 C   0  0  0  0  0  0  0  0  0  0  0  0
   10.9697    9.1421   -8.0206 C   0  0  0  0  0  0  0  0  0  0  0  0
   10.4633    8.0042   -8.6030 C   0  0  0  0  0  0  0  0  0  0  0  0
   10.0838    7.9745   -9.8917 N   0  0  0  0  0  0  0  0  0  0  0  0
   10.1814    8.8467  -10.4556 H   0  0  0  0  0  0  0  0  0  0  0  0
   11.6504    8.0546   -4.5244 C   0  0  0  0  0  0  0  0  0  0  0  0
   11.9374    9.2574   -3.9209 C   0  0  0  0  0  0  0  0  0  0  0  0
   12.3343    9.3174   -2.5965 C   0  0  0  0  0  0  0  0  0  0  0  0
   12.4486    8.1616   -1.8573 C   0  0  0  0  0  0  0  0  0  0  0  0
   12.1671    6.9499   -2.4403 C   0  0  0  0  0  0  0  0  0  0  0  0
   11.7661    6.9052   -3.7826 C   0  0  0  0  0  0  0  0  0  0  0  0
  1  2  1  0
  2  3  1  0
  3  4  2  0
  3  5  1  0
  5  6  2  0
  6  7  1  0
  7  8  2  0
  8  9  1  0
  9 10  2  0
 10 11  1  0
  9 12  1  0
 12 13  1  0
 13 14  1  0
 14 15  2  0
 15 16  1  0
 16 20  1  0
 20 21  2  0
 21 22  1  0
 22 23  2  0
 23 24  1  0
 24 25  2  0
 25 26  1  0
 26 32  1  0
 32 33  2  0
 33 34  1  0
 34 35  2  0
 35 36  1  0
 36 37  2  0
 26 27  2  0
 27 28  1  0
 28 29  2  0
 29 30  1  0
 30 31  1  0
 16 17  2  0
 17 18  1  0
 18 19  2  0
 11  1  2  0
 19 14  1  0
 10  5  1  0
 30 21  1  0
 19  8  1  0
 29 24  1  0
 37 32  1  0
M  END
>  <minimizedAffinity>  (206) 
-17.34869

$$$$
Mol: 200_52 - SminaDock
     RDKit          3D

 40 46  0  0  0  0  0  0  0  0999 V2000
    8.8056    6.0063  -12.4519 C   0  0  0  0  0  0  0  0  0  0  0  0
    9.4048    5.3331  -13.4954 C   0  0  0  0  0  0  0  0  0  0  0  0
    8.8157    4.2232  -14.0877 C   0  0  0  0  0  0  0  0  0  0  0  0
    7.6028    3.8117  -13.5959 C   0  0  0  0  0  0  0  0  0  0  0  0
    6.9641    4.4405  -12.5651 C   0  0  0  0  0  0  0  0  0  0  0  0
    7.5910    5.5440  -12.0055 C   0  0  0  0  0  0  0  0  0  0  0  0
    5.6745    4.0562  -12.0048 C   0  0  0  0  0  0  0  0  0  0  0  0
    5.0060    2.8696  -12.5442 C   0  0  0  0  0  0  0  0  0  0  0  0
    5.7140    2.2266  -13.6661 C   0  0  0  0  0  0  0  0  0  0  0  0
    5.1298    1.1023  -14.2776 C   0  0  0  0  0  0  0  0  0  0  0  0
    5.7449    0.4526  -15.3257 C   0  0  0  0  0  0  0  0  0  0  0  0
    6.9518    0.8552  -15.8343 C   0  0  0  0  0  0  0  0  0  0  0  0
    7.5321    1.9763  -15.2228 C   0  0  0  0  0  0  0  0  0  0  0  0
    6.9222    2.6337  -14.1717 C   0  0  0  0  0  0  0  0  0  0  0  0
    7.6802    0.2176  -16.9574 C   0  0  2  0  0  0  0  0  0  0  0  0
    7.8261    1.2888  -18.0477 C   0  0  0  0  0  0  0  0  0  0  0  0
    7.0348   -0.9406  -17.5432 C   0  0  0  0  0  0  0  0  0  0  0  0
    7.5667   -1.5475  -18.4803 O   0  0  0  0  0  0  0  0  0  0  0  0
    5.7537   -1.3991  -17.0326 C   0  0  0  0  0  0  0  0  0  0  0  0
    5.2126   -2.4004  -17.5588 O   0  0  0  0  0  0  0  0  0  0  0  0
    5.0862   -0.7252  -15.9282 C   0  0  0  0  0  0  0  0  0  0  0  0
    3.9913   -1.0722  -15.4507 O   0  0  0  0  0  0  0  0  0  0  0  0
   11.3318    8.0092   -5.9745 C   0  0  0  0  0  0  0  0  0  0  0  0
   11.6087    9.0968   -6.7756 C   0  0  0  0  0  0  0  0  0  0  0  0
   11.2958    9.1563   -8.1145 C   0  0  0  0  0  0  0  0  0  0  0  0
   10.6687    8.0747   -8.7062 C   0  0  0  0  0  0  0  0  0  0  0  0
   10.3747    6.9690   -7.9409 C   0  0  0  0  0  0  0  0  0  0  0  0
    9.7497    5.9063   -8.5552 C   0  0  0  0  0  0  0  0  0  0  0  0
    9.4608    6.0042   -9.8644 N   0  0  0  0  0  0  0  0  0  0  0  0
    9.7514    7.0878  -10.6046 C   0  0  0  0  0  0  0  0  0  0  0  0
    9.4494    7.1359  -11.8791 N   0  0  0  0  0  0  0  0  0  0  0  0
   10.3632    8.1330  -10.0113 N   0  0  0  0  0  0  0  0  0  0  0  0
   10.5844    8.9769  -10.6077 H   0  0  0  0  0  0  0  0  0  0  0  0
   10.7058    6.9385   -6.5815 C   0  0  0  0  0  0  0  0  0  0  0  0
   12.3797    7.9448   -1.8220 C   0  0  0  0  0  0  0  0  0  0  0  0
   12.0068    6.8004   -2.4959 C   0  0  0  0  0  0  0  0  0  0  0  0
   11.6709    6.8428   -3.8404 C   0  0  0  0  0  0  0  0  0  0  0  0
   11.6939    8.0213   -4.5605 C   0  0  0  0  0  0  0  0  0  0  0  0
   12.0673    9.1630   -3.8827 C   0  0  0  0  0  0  0  0  0  0  0  0
   12.4029    9.1222   -2.5400 C   0  0  0  0  0  0  0  0  0  0  0  0
 35 36  2  0
 36 37  1  0
 37 38  2  0
 38 23  1  0
 23 24  2  0
 24 25  1  0
 25 26  2  0
 26 27  1  0
 27 28  1  0
 28 29  2  0
 29 30  1  0
 30 31  2  0
 31  1  1  0
  1  2  2  0
  2  3  1  0
  3  4  2  0
  4  5  1  0
  5  6  2  0
  5  7  1  0
  7  8  1  0
  8  9  1  0
  9 10  2  0
 10 11  1  0
 11 12  2  0
 12 13  1  0
 13 14  2  0
 12 15  1  0
 15 16  1  6
 15 17  1  0
 17 18  2  0
 17 19  1  0
 19 20  2  0
 19 21  1  0
 21 22  2  0
 30 32  1  0
 32 33  1  0
 27 34  2  0
 38 39  1  0
 39 40  2  0
 40 35  1  0
 34 23  1  0
 32 26  1  0
  6  1  1  0
 14  9  1  0
 14  4  1  0
 21 11  1  0
M  END
>  <minimizedAffinity>  (207) 
-17.32232

$$$$
Mol: 198_0 - SminaDock
     RDKit          3D

 49 57  0  0  0  0  0  0  0  0999 V2000
    6.6825    3.0788  -21.1420 H   0  0  0  0  0  0  0  0  0  0  0  0
    7.5905    2.6154  -20.9766 O   0  0  0  0  0  0  0  0  0  0  0  0
    7.6173    1.6617  -19.9637 C   0  0  0  0  0  0  0  0  0  0  0  0
    6.6245    1.3722  -19.1175 N   0  0  0  0  0  0  0  0  0  0  0  0
    7.2130    0.7093  -18.1279 C   0  0  2  0  0  0  0  0  0  0  0  0
    7.9287   -0.3074  -19.0253 C   0  0  0  0  0  0  0  0  0  0  0  0
    8.7986    0.8019  -19.6772 C   0  0  2  0  0  0  0  0  0  0  0  0
    9.7088    1.1516  -18.5642 C   0  0  0  0  0  0  0  0  0  0  0  0
    9.7045    0.2199  -17.3618 C   0  0  0  0  0  0  0  0  0  0  0  0
   11.0472   -0.1476  -16.7834 C   0  0  0  0  0  0  0  0  0  0  0  0
    8.6678   -0.3455  -16.7125 C   0  0  0  0  0  0  0  0  0  0  0  0
    7.1541    0.0244  -16.8865 C   0  0  2  0  0  0  0  0  0  0  0  0
    6.3970   -1.2130  -16.9866 C   0  0  0  0  0  0  0  0  0  0  0  0
    6.8501   -2.1559  -17.7528 O   0  0  0  0  0  0  0  0  0  0  0  0
    5.1635   -1.4436  -16.2739 C   0  0  0  0  0  0  0  0  0  0  0  0
    4.4737   -2.4703  -16.5690 O   0  0  0  0  0  0  0  0  0  0  0  0
    4.7515   -0.5088  -15.2536 C   0  0  0  0  0  0  0  0  0  0  0  0
    3.6970   -0.6518  -14.5923 O   0  0  0  0  0  0  0  0  0  0  0  0
    5.6480    0.6469  -15.0200 C   0  0  0  0  0  0  0  0  0  0  0  0
    5.3413    1.5258  -13.9791 C   0  0  0  0  0  0  0  0  0  0  0  0
    6.1871    2.5837  -13.6594 C   0  0  0  0  0  0  0  0  0  0  0  0
    7.3479    2.7939  -14.3583 C   0  0  0  0  0  0  0  0  0  0  0  0
    7.6469    1.9283  -15.3828 C   0  0  0  0  0  0  0  0  0  0  0  0
    6.7893    0.8513  -15.7133 C   0  0  0  0  0  0  0  0  0  0  0  0
    8.0630    3.9656  -13.8366 C   0  0  0  0  0  0  0  0  0  0  0  0
    9.2449    4.5980  -14.1734 C   0  0  0  0  0  0  0  0  0  0  0  0
    9.6729    5.7186  -13.4839 C   0  0  0  0  0  0  0  0  0  0  0  0
    8.9317    6.2474  -12.4309 C   0  0  0  0  0  0  0  0  0  0  0  0
    7.7570    5.6042  -12.1097 C   0  0  0  0  0  0  0  0  0  0  0  0
    7.3146    4.4679  -12.8021 C   0  0  0  0  0  0  0  0  0  0  0  0
    6.1055    3.6368  -12.6255 C   0  0  0  0  0  0  0  0  0  0  0  0
    9.3826    7.4015  -11.7267 N   0  0  0  0  0  0  0  0  0  0  0  0
    9.7112    7.2757  -10.4908 C   0  0  0  0  0  0  0  0  0  0  0  0
    9.6360    6.0652   -9.8446 C   0  0  0  0  0  0  0  0  0  0  0  0
   10.0054    5.9503   -8.5005 C   0  0  0  0  0  0  0  0  0  0  0  0
   10.4441    7.0660   -7.8392 C   0  0  0  0  0  0  0  0  0  0  0  0
   10.8043    6.9391   -6.5258 C   0  0  0  0  0  0  0  0  0  0  0  0
   11.2487    8.0526   -5.8492 C   0  0  0  0  0  0  0  0  0  0  0  0
   11.3204    9.2668   -6.5076 C   0  0  0  0  0  0  0  0  0  0  0  0
   10.9586    9.3917   -7.8252 C   0  0  0  0  0  0  0  0  0  0  0  0
   10.5146    8.2868   -8.5073 C   0  0  0  0  0  0  0  0  0  0  0  0
   10.1501    8.3476   -9.7939 N   0  0  0  0  0  0  0  0  0  0  0  0
   10.1909    9.2571  -10.3320 H   0  0  0  0  0  0  0  0  0  0  0  0
   11.6564    8.0182   -4.4627 C   0  0  0  0  0  0  0  0  0  0  0  0
   11.9944    9.1605   -3.7770 C   0  0  0  0  0  0  0  0  0  0  0  0
   12.3879    9.1222   -2.4454 C   0  0  0  0  0  0  0  0  0  0  0  0
   12.4452    7.9181   -1.7841 C   0  0  0  0  0  0  0  0  0  0  0  0
   12.1090    6.7561   -2.4558 C   0  0  0  0  0  0  0  0  0  0  0  0
   11.7152    6.8158   -3.7962 C   0  0  0  0  0  0  0  0  0  0  0  0
  1  2  1  0
  2  3  1  0
  3  4  2  0
  5  4  1  6
  5  6  1  0
  6  7  1  0
  7  8  1  1
  8  9  1  0
  9 10  1  0
  9 11  2  0
 12 11  1  1
 12 13  1  0
 13 14  2  0
 13 15  1  0
 15 16  2  0
 15 17  1  0
 17 18  2  0
 17 19  1  0
 19 20  2  0
 20 21  1  0
 21 22  2  0
 22 23  1  0
 23 24  2  0
 22 25  1  0
 25 26  2  0
 26 27  1  0
 27 28  2  0
 28 32  1  0
 32 33  2  0
 33 34  1  0
 34 35  2  0
 35 36  1  0
 36 37  2  0
 37 38  1  0
 38 44  1  0
 44 45  2  0
 45 46  1  0
 46 47  2  0
 47 48  1  0
 48 49  2  0
 38 39  2  0
 39 40  1  0
 40 41  2  0
 41 42  1  0
 42 43  1  0
 28 29  1  0
 29 30  2  0
 30 31  1  0
  7  3  1  0
 24 12  1  0
 30 25  1  0
 12  5  1  0
 24 19  1  0
 42 33  1  0
 31 21  1  0
 41 36  1  0
 49 44  1  0
M  END
>  <minimizedAffinity>  (208) 
-17.29661

$$$$
Mol: 158_20 - SminaDock
     RDKit          3D

 38 44  0  0  0  0  0  0  0  0999 V2000
    8.7897    5.9887  -12.5771 C   0  0  0  0  0  0  0  0  0  0  0  0
    7.6213    6.5336  -12.1107 C   0  0  0  0  0  0  0  0  0  0  0  0
    6.4483    5.8365  -12.2324 C   0  0  0  0  0  0  0  0  0  0  0  0
    6.4210    4.5865  -12.8182 C   0  0  0  0  0  0  0  0  0  0  0  0
    7.6438    4.0486  -13.2883 C   0  0  0  0  0  0  0  0  0  0  0  0
    8.8065    4.7426  -13.1699 C   0  0  0  0  0  0  0  0  0  0  0  0
    7.6263    2.7466  -13.9099 C   0  0  0  0  0  0  0  0  0  0  0  0
    6.4158    2.0509  -14.0470 C   0  0  0  0  0  0  0  0  0  0  0  0
    6.1661    1.0372  -14.9343 C   0  0  0  0  0  0  0  0  0  0  0  0
    6.9860    0.5630  -15.9431 C   0  0  0  0  0  0  0  0  0  0  0  0
    8.3415    0.7624  -16.1255 C   0  0  0  0  0  0  0  0  0  0  0  0
    8.8259    0.0605  -17.2050 C   0  0  0  0  0  0  0  0  0  0  0  0
   10.1710    0.1348  -17.5438 C   0  0  0  0  0  0  0  0  0  0  0  0
   11.0149    0.9221  -16.7832 C   0  0  0  0  0  0  0  0  0  0  0  0
   10.5161    1.6207  -15.7034 C   0  0  0  0  0  0  0  0  0  0  0  0
    9.1888    1.5641  -15.3472 C   0  0  0  0  0  0  0  0  0  0  0  0
    8.8852    2.3205  -14.2466 C   0  0  0  0  0  0  0  0  0  0  0  0
    9.7996    2.6455  -13.4933 O   0  0  0  0  0  0  0  0  0  0  0  0
    5.2793    2.4036  -13.1875 C   0  0  0  0  0  0  0  0  0  0  0  0
    5.1394    3.8627  -12.9474 C   0  0  0  0  0  0  0  0  0  0  0  0
   11.0914    7.4603   -6.3179 C   0  0  0  0  0  0  0  0  0  0  0  0
    9.9393    6.7297   -6.5220 C   0  0  0  0  0  0  0  0  0  0  0  0
    9.5068    6.4529   -7.8134 C   0  0  0  0  0  0  0  0  0  0  0  0
   10.1946    6.8865   -8.9268 C   0  0  0  0  0  0  0  0  0  0  0  0
    9.7961    6.6312  -10.1893 N   0  0  0  0  0  0  0  0  0  0  0  0
   10.4655    7.0533  -11.2677 C   0  0  0  0  0  0  0  0  0  0  0  0
    9.9995    6.7556  -12.4299 N   0  0  0  0  0  0  0  0  0  0  0  0
   11.5861    7.7640  -11.0854 N   0  0  0  0  0  0  0  0  0  0  0  0
   12.1192    8.1003  -11.9174 H   0  0  0  0  0  0  0  0  0  0  0  0
   12.0308    8.0485   -9.8358 C   0  0  0  0  0  0  0  0  0  0  0  0
   11.3469    7.6173   -8.7176 C   0  0  0  0  0  0  0  0  0  0  0  0
   11.7774    7.8928   -7.4341 C   0  0  0  0  0  0  0  0  0  0  0  0
   12.4632    8.2984   -2.4472 C   0  0  0  0  0  0  0  0  0  0  0  0
   12.5448    9.2848   -3.4105 C   0  0  0  0  0  0  0  0  0  0  0  0
   12.0949    9.0037   -4.6720 C   0  0  0  0  0  0  0  0  0  0  0  0
   11.5771    7.7710   -4.9644 C   0  0  0  0  0  0  0  0  0  0  0  0
   11.4911    6.7780   -4.0091 C   0  0  0  0  0  0  0  0  0  0  0  0
   11.9411    7.0477   -2.7326 C   0  0  0  0  0  0  0  0  0  0  0  0
 33 34  2  0
 34 35  1  0
 35 36  2  0
 36 21  1  0
 21 22  1  0
 22 23  2  0
 23 24  1  0
 24 25  2  0
 25 26  1  0
 26 27  2  0
 27  1  1  0
  1  2  2  0
  2  3  1  0
  3  4  2  0
  4  5  1  0
  5  6  2  0
  5  7  1  0
  7  8  2  0
  8  9  1  0
  9 10  2  0
 10 11  1  0
 11 12  2  0
 12 13  1  0
 13 14  2  0
 14 15  1  0
 15 16  2  0
 16 17  1  0
 17 18  2  0
  8 19  1  0
 19 20  1  0
 26 28  1  0
 28 29  1  0
 28 30  1  0
 30 31  2  0
 31 32  1  0
 36 37  1  0
 37 38  2  0
 38 33  1  0
 32 21  2  0
 31 24  1  0
  6  1  1  0
 17  7  1  0
 20  4  1  0
 16 11  1  0
M  END
>  <minimizedAffinity>  (209) 
-17.28335

$$$$
Mol: 121_6 - SminaDock
     RDKit          3D

 43 50  0  0  0  0  0  0  0  0999 V2000
   13.1014    5.9704  -16.2082 H   0  0  0  0  0  0  0  0  0  0  0  0
   12.8175    5.3602  -15.4547 O   0  0  0  0  0  0  0  0  0  0  0  0
   11.6601    4.5586  -15.5398 C   0  0  0  0  0  0  0  0  0  0  0  0
   10.6605    4.7789  -16.3102 N   0  0  0  0  0  0  0  0  0  0  0  0
    9.6129    3.8070  -16.2000 C   0  0  1  0  0  0  0  0  0  0  0  0
    9.7117    2.8317  -17.3502 C   0  0  0  0  0  0  0  0  0  0  0  0
    9.9042    3.1177  -14.8689 C   0  0  1  0  0  0  0  0  0  0  0  0
    9.1615    3.8806  -13.8564 C   0  0  0  0  0  0  0  0  0  0  0  0
    9.6533    5.0351  -13.2679 C   0  0  0  0  0  0  0  0  0  0  0  0
    8.8683    5.7724  -12.4021 C   0  0  0  0  0  0  0  0  0  0  0  0
    7.5828    5.3772  -12.1054 C   0  0  0  0  0  0  0  0  0  0  0  0
    7.0710    4.2439  -12.6672 C   0  0  0  0  0  0  0  0  0  0  0  0
    7.8844    3.5213  -13.5328 C   0  0  0  0  0  0  0  0  0  0  0  0
    7.3187    2.2460  -13.9924 C   0  0  0  0  0  0  0  0  0  0  0  0
    6.0072    1.9582  -13.7597 N   0  0  0  0  0  0  0  0  0  0  0  0
    5.4105    0.8583  -14.2458 C   0  0  0  0  0  0  0  0  0  0  0  0
    4.0760    0.5781  -14.0020 C   0  0  0  0  0  0  0  0  0  0  0  0
    3.4786   -0.5547  -14.5089 C   0  0  0  0  0  0  0  0  0  0  0  0
    4.2573   -1.4015  -15.2688 C   0  0  0  0  0  0  0  0  0  0  0  0
    5.5849   -1.1204  -15.5097 C   0  0  0  0  0  0  0  0  0  0  0  0
    6.2069    0.0257  -15.0024 C   0  0  0  0  0  0  0  0  0  0  0  0
    7.5277    0.2759  -15.2588 C   0  0  0  0  0  0  0  0  0  0  0  0
    8.1203    1.4221  -14.7406 C   0  0  0  0  0  0  0  0  0  0  0  0
    9.5430    1.6967  -14.8833 C   0  0  0  0  0  0  0  0  0  0  0  0
   11.4050    3.3428  -14.7637 C   0  0  0  0  0  0  0  0  0  0  0  0
    9.3567    6.9567  -11.7908 N   0  0  0  0  0  0  0  0  0  0  0  0
    9.6997    6.9427  -10.5363 C   0  0  0  0  0  0  0  0  0  0  0  0
   10.1657    8.0485   -9.9291 N   0  0  0  0  0  0  0  0  0  0  0  0
   10.5289    8.0662   -8.6325 C   0  0  0  0  0  0  0  0  0  0  0  0
   11.0057    9.2055   -8.0182 C   0  0  0  0  0  0  0  0  0  0  0  0
   11.3784    9.2285   -6.6910 C   0  0  0  0  0  0  0  0  0  0  0  0
   11.2847    8.0843   -5.9139 C   0  0  0  0  0  0  0  0  0  0  0  0
   10.8080    6.9460   -6.5291 C   0  0  0  0  0  0  0  0  0  0  0  0
   10.4330    6.9220   -7.8632 C   0  0  0  0  0  0  0  0  0  0  0  0
    9.9547    5.7888   -8.4881 C   0  0  0  0  0  0  0  0  0  0  0  0
    9.6050    5.8274   -9.7907 N   0  0  0  0  0  0  0  0  0  0  0  0
    9.2412    4.9629  -10.2642 H   0  0  0  0  0  0  0  0  0  0  0  0
   11.6751    8.0859   -4.5007 C   0  0  0  0  0  0  0  0  0  0  0  0
   12.0248    9.2335   -3.8212 C   0  0  0  0  0  0  0  0  0  0  0  0
   12.3895    9.2048   -2.4864 C   0  0  0  0  0  0  0  0  0  0  0  0
   12.4162    8.0183   -1.7834 C   0  0  0  0  0  0  0  0  0  0  0  0
   12.0659    6.8716   -2.4656 C   0  0  0  0  0  0  0  0  0  0  0  0
   11.7010    6.9029   -3.8025 C   0  0  0  0  0  0  0  0  0  0  0  0
  1  2  1  0
  2  3  1  0
  3  4  2  0
  4  5  1  0
  5  6  1  6
  5  7  1  0
  7  8  1  0
  8  9  2  0
  9 10  1  0
 10 26  1  0
 26 27  2  0
 27 28  1  0
 28 29  2  0
 29 30  1  0
 30 31  2  0
 31 32  1  0
 32 38  1  0
 38 39  2  0
 39 40  1  0
 40 41  2  0
 41 42  1  0
 42 43  2  0
 32 33  2  0
 33 34  1  0
 34 35  2  0
 35 36  1  0
 36 37  1  0
 10 11  2  0
 11 12  1  0
 12 13  2  0
 13 14  1  0
 14 15  2  0
 15 16  1  0
 16 17  2  0
 17 18  1  0
 18 19  2  0
 19 20  1  0
 20 21  2  0
 21 22  1  0
 22 23  2  0
 23 24  1  0
  7 25  1  1
 25  3  1  0
 24  7  1  0
 13  8  1  0
 23 14  1  0
 36 27  1  0
 21 16  1  0
 34 29  1  0
 43 38  1  0
M  END
>  <minimizedAffinity>  (210) 
-17.25677

$$$$
Mol: 162_3 - SminaDock
     RDKit          3D

 40 46  0  0  0  0  0  0  0  0999 V2000
    2.2789   -1.7637  -15.0994 H   0  0  0  0  0  0  0  0  0  0  0  0
    2.6741   -0.8819  -14.7964 O   0  0  0  0  0  0  0  0  0  0  0  0
    3.9943   -0.5181  -15.0285 C   0  0  0  0  0  0  0  0  0  0  0  0
    4.4810    0.5285  -14.4356 O   0  0  0  0  0  0  0  0  0  0  0  0
    5.7095    0.9338  -14.6018 C   0  0  0  0  0  0  0  0  0  0  0  0
    6.2107    2.0677  -13.9497 C   0  0  0  0  0  0  0  0  0  0  0  0
    7.5191    2.4403  -14.1705 C   0  0  0  0  0  0  0  0  0  0  0  0
    8.3068    1.7134  -15.0107 N   0  0  0  0  0  0  0  0  0  0  0  0
    7.8784    0.6192  -15.6611 C   0  0  0  0  0  0  0  0  0  0  0  0
    8.6197   -0.0442  -16.4364 O   0  0  0  0  0  0  0  0  0  0  0  0
    6.5895    0.1894  -15.4902 C   0  0  0  0  0  0  0  0  0  0  0  0
    6.0594   -0.9232  -16.1154 C   0  0  0  0  0  0  0  0  0  0  0  0
    4.7508   -1.2787  -15.8816 C   0  0  0  0  0  0  0  0  0  0  0  0
    8.0530    3.6279  -13.4914 C   0  0  0  0  0  0  0  0  0  0  0  0
    9.3601    4.0168  -13.6991 C   0  0  0  0  0  0  0  0  0  0  0  0
    9.8788    5.1340  -13.0660 C   0  0  0  0  0  0  0  0  0  0  0  0
    9.1239    5.9046  -12.2064 C   0  0  0  0  0  0  0  0  0  0  0  0
    7.8170    5.5162  -11.9982 C   0  0  0  0  0  0  0  0  0  0  0  0
    7.2949    4.3949  -12.6331 C   0  0  0  0  0  0  0  0  0  0  0  0
    5.9153    3.9721  -12.4231 C   0  0  0  0  0  0  0  0  0  0  0  0
    5.2365    4.6917  -11.6324 O   0  0  0  0  0  0  0  0  0  0  0  0
    5.2899    2.8053  -13.0506 C   0  0  0  0  0  0  0  0  0  0  0  0
    9.6661    7.0552  -11.5577 N   0  0  0  0  0  0  0  0  0  0  0  0
    9.9796    7.0722  -10.3066 C   0  0  0  0  0  0  0  0  0  0  0  0
   10.4789    8.1947   -9.7940 N   0  0  0  0  0  0  0  0  0  0  0  0
   10.8046    8.1952   -8.4706 C   0  0  0  0  0  0  0  0  0  0  0  0
   11.3255    9.3206   -7.8732 C   0  0  0  0  0  0  0  0  0  0  0  0
   11.6609    9.3422   -6.5384 C   0  0  0  0  0  0  0  0  0  0  0  0
   11.4776    8.2229   -5.7712 C   0  0  0  0  0  0  0  0  0  0  0  0
   10.9560    7.0983   -6.3722 C   0  0  0  0  0  0  0  0  0  0  0  0
   10.6177    7.0676   -7.7064 C   0  0  0  0  0  0  0  0  0  0  0  0
   10.0997    5.9326   -8.2784 C   0  0  0  0  0  0  0  0  0  0  0  0
    9.7802    5.9486   -9.5985 N   0  0  0  0  0  0  0  0  0  0  0  0
    9.3822    5.0643  -10.0208 H   0  0  0  0  0  0  0  0  0  0  0  0
   11.8045    8.1586   -4.3526 C   0  0  0  0  0  0  0  0  0  0  0  0
   12.1781    9.2604   -3.6085 C   0  0  0  0  0  0  0  0  0  0  0  0
   12.4795    9.1483   -2.2602 C   0  0  0  0  0  0  0  0  0  0  0  0
   12.4194    7.9359   -1.6067 C   0  0  0  0  0  0  0  0  0  0  0  0
   12.0485    6.8262   -2.3337 C   0  0  0  0  0  0  0  0  0  0  0  0
   11.7485    6.9367   -3.6750 C   0  0  0  0  0  0  0  0  0  0  0  0
  1  2  1  0
  2  3  1  0
  3  4  1  0
  4  5  1  0
  5  6  2  0
  6  7  1  0
  7  8  2  0
  8  9  1  0
  9 10  2  0
  9 11  1  0
 11 12  2  0
 12 13  1  0
  7 14  1  0
 14 15  2  0
 15 16  1  0
 16 17  2  0
 17 23  1  0
 23 24  2  0
 24 25  1  0
 25 26  2  0
 26 27  1  0
 27 28  2  0
 28 29  1  0
 29 35  1  0
 35 36  2  0
 36 37  1  0
 37 38  2  0
 38 39  1  0
 39 40  2  0
 29 30  2  0
 30 31  1  0
 31 32  2  0
 32 33  1  0
 33 34  1  0
 17 18  1  0
 18 19  2  0
 19 20  1  0
 20 21  2  0
 20 22  1  0
 13  3  2  0
 19 14  1  0
 11  5  1  0
 33 24  1  0
 22  6  1  0
 31 26  1  0
 40 35  1  0
M  END
>  <minimizedAffinity>  (211) 
-17.29633

$$$$
Mol: 159_63 - SminaDock
     RDKit          3D

 39 45  0  0  0  0  0  0  0  0999 V2000
    9.4209    6.5417  -12.3084 C   0  0  0  0  0  0  0  0  0  0  0  0
    8.2103    6.8672  -11.7314 C   0  0  0  0  0  0  0  0  0  0  0  0
    7.0533    6.1945  -12.0772 C   0  0  0  0  0  0  0  0  0  0  0  0
    7.0885    5.1770  -13.0132 C   0  0  0  0  0  0  0  0  0  0  0  0
    8.2798    4.8360  -13.5999 C   0  0  0  0  0  0  0  0  0  0  0  0
    9.4243    5.5082  -13.2518 C   0  0  0  0  0  0  0  0  0  0  0  0
    8.7012    3.8392  -14.6071 C   0  0  0  0  0  0  0  0  0  0  0  0
    8.7089    2.4823  -13.9395 C   0  0  0  0  0  0  0  0  0  0  0  0
    7.3219    1.9281  -13.9502 C   0  0  0  0  0  0  0  0  0  0  0  0
    6.1242    2.2525  -13.3756 C   0  0  0  0  0  0  0  0  0  0  0  0
    5.0361    1.4303  -13.6643 C   0  0  0  0  0  0  0  0  0  0  0  0
    5.1349    0.3317  -14.4899 C   0  0  0  0  0  0  0  0  0  0  0  0
    4.0501   -0.4834  -14.7744 C   0  0  0  0  0  0  0  0  0  0  0  0
    4.2116   -1.5761  -15.6133 C   0  0  0  0  0  0  0  0  0  0  0  0
    5.4368   -1.8735  -16.1763 C   0  0  0  0  0  0  0  0  0  0  0  0
    5.5693   -2.8765  -16.9420 O   0  0  0  0  0  0  0  0  0  0  0  0
    6.4664   -1.0601  -15.8773 N   0  0  0  0  0  0  0  0  0  0  0  0
    6.3454    0.0096  -15.0665 C   0  0  0  0  0  0  0  0  0  0  0  0
    7.4244    0.8402  -14.7690 C   0  0  0  0  0  0  0  0  0  0  0  0
    5.6237    3.3062  -12.4689 C   0  0  0  0  0  0  0  0  0  0  0  0
    5.6697    4.6848  -13.1332 C   0  0  0  0  0  0  0  0  0  0  0  0
   11.2651    7.5913   -5.7503 C   0  0  0  0  0  0  0  0  0  0  0  0
   10.1022    6.9203   -6.0692 C   0  0  0  0  0  0  0  0  0  0  0  0
    9.7182    6.7017   -7.3806 C   0  0  0  0  0  0  0  0  0  0  0  0
   10.5080    7.1609   -8.4183 C   0  0  0  0  0  0  0  0  0  0  0  0
   10.1163    6.9380   -9.7040 N   0  0  0  0  0  0  0  0  0  0  0  0
   10.8834    7.3840  -10.7128 C   0  0  0  0  0  0  0  0  0  0  0  0
   10.5964    7.2208  -11.9598 N   0  0  0  0  0  0  0  0  0  0  0  0
   12.0260    8.0437  -10.4388 N   0  0  0  0  0  0  0  0  0  0  0  0
   12.6430    8.4025  -11.2049 H   0  0  0  0  0  0  0  0  0  0  0  0
   12.4407    8.2799   -9.1788 C   0  0  0  0  0  0  0  0  0  0  0  0
   11.6732    7.8335   -8.1178 C   0  0  0  0  0  0  0  0  0  0  0  0
   12.0375    8.0405   -6.8038 C   0  0  0  0  0  0  0  0  0  0  0  0
   12.5412    8.2494   -1.7171 C   0  0  0  0  0  0  0  0  0  0  0  0
   12.4503    9.3012   -2.6127 C   0  0  0  0  0  0  0  0  0  0  0  0
   12.0393    9.0885   -3.9105 C   0  0  0  0  0  0  0  0  0  0  0  0
   11.7012    7.8392   -4.3830 C   0  0  0  0  0  0  0  0  0  0  0  0
   11.7972    6.7978   -3.4757 C   0  0  0  0  0  0  0  0  0  0  0  0
   12.2067    6.9957   -2.1750 C   0  0  0  0  0  0  0  0  0  0  0  0
 34 35  2  0
 35 36  1  0
 36 37  2  0
 37 22  1  0
 22 23  1  0
 23 24  2  0
 24 25  1  0
 25 26  2  0
 26 27  1  0
 27 28  2  0
 28  1  1  0
  1  2  2  0
  2  3  1  0
  3  4  2  0
  4  5  1  0
  5  6  2  0
  5  7  1  0
  7  8  1  0
  8  9  1  0
  9 10  2  0
 10 11  1  0
 11 12  2  0
 12 13  1  0
 13 14  2  0
 14 15  1  0
 15 16  2  0
 15 17  1  0
 17 18  1  0
 18 19  2  0
 10 20  1  0
 20 21  1  0
 27 29  1  0
 29 30  1  0
 29 31  1  0
 31 32  2  0
 32 33  1  0
 37 38  1  0
 38 39  2  0
 39 34  1  0
 33 22  2  0
 32 25  1  0
  6  1  1  0
 19  9  1  0
 21  4  1  0
 18 12  1  0
M  CHG  1  17  -1
M  END
>  <minimizedAffinity>  (212) 
-17.27946

$$$$
Mol: 195_0 - SminaDock
     RDKit          3D

 43 50  0  0  0  0  0  0  0  0999 V2000
   11.8536    0.3939  -17.9711 H   0  0  0  0  0  0  0  0  0  0  0  0
   11.5130    1.2687  -17.7090 O   0  0  0  0  0  0  0  0  0  0  0  0
   10.2039    1.2072  -17.1956 C   0  0  2  0  0  0  0  0  0  0  0  0
    9.7191    2.6405  -17.1078 C   0  0  0  0  0  0  0  0  0  0  0  0
    8.3280    2.6728  -16.5700 C   0  0  0  0  0  0  0  0  0  0  0  0
    8.1468    1.9326  -15.2657 C   0  0  1  0  0  0  0  0  0  0  0  0
    7.8731    2.9542  -14.2103 C   0  0  0  0  0  0  0  0  0  0  0  0
    8.6529    4.0140  -13.7288 C   0  0  0  0  0  0  0  0  0  0  0  0
    8.1881    4.8417  -12.7284 C   0  0  0  0  0  0  0  0  0  0  0  0
    6.9350    4.6318  -12.1851 C   0  0  0  0  0  0  0  0  0  0  0  0
    6.1491    3.5987  -12.6396 C   0  0  0  0  0  0  0  0  0  0  0  0
    6.6354    2.7662  -13.6569 C   0  0  0  0  0  0  0  0  0  0  0  0
    6.0157    1.6162  -14.3163 C   0  0  0  0  0  0  0  0  0  0  0  0
    4.7690    1.0396  -14.1082 C   0  0  0  0  0  0  0  0  0  0  0  0
    4.3731   -0.0441  -14.8457 C   0  0  0  0  0  0  0  0  0  0  0  0
    5.2355   -0.5478  -15.7952 C   0  0  0  0  0  0  0  0  0  0  0  0
    4.8392   -1.6189  -16.5237 N   0  0  0  0  0  0  0  0  0  0  0  0
    5.6867   -2.1040  -17.4499 C   0  0  0  0  0  0  0  0  0  0  0  0
    6.9123   -1.5379  -17.6551 C   0  0  0  0  0  0  0  0  0  0  0  0
    7.7280   -1.9686  -18.5144 O   0  0  0  0  0  0  0  0  0  0  0  0
    7.2870   -0.4756  -16.9220 N   0  0  0  0  0  0  0  0  0  0  0  0
    6.4728    0.0253  -16.0008 C   0  0  0  0  0  0  0  0  0  0  0  0
    6.8962    1.1335  -15.2570 C   0  0  0  0  0  0  0  0  0  0  0  0
    9.3359    1.1513  -14.8230 C   0  0  0  0  0  0  0  0  0  0  0  0
   10.1445    0.5010  -15.8838 C   0  0  0  0  0  0  0  0  0  0  0  0
    8.9551    5.9077  -12.2337 N   0  0  0  0  0  0  0  0  0  0  0  0
    9.3001    6.0373  -11.0108 C   0  0  0  0  0  0  0  0  0  0  0  0
    8.9208    5.0987  -10.0805 C   0  0  0  0  0  0  0  0  0  0  0  0
    9.2963    5.2344   -8.7344 C   0  0  0  0  0  0  0  0  0  0  0  0
   10.0550    6.3236   -8.3441 C   0  0  0  0  0  0  0  0  0  0  0  0
   10.4499    6.4976   -7.0183 C   0  0  0  0  0  0  0  0  0  0  0  0
   11.2063    7.5842   -6.6314 C   0  0  0  0  0  0  0  0  0  0  0  0
   11.5558    8.4931   -7.6145 C   0  0  0  0  0  0  0  0  0  0  0  0
   11.1653    8.3222   -8.9291 C   0  0  0  0  0  0  0  0  0  0  0  0
   10.4098    7.2361   -9.3133 C   0  0  0  0  0  0  0  0  0  0  0  0
   10.0345    7.0869  -10.6199 N   0  0  0  0  0  0  0  0  0  0  0  0
   10.3161    7.7953  -11.3440 H   0  0  0  0  0  0  0  0  0  0  0  0
   11.6324    7.7898   -5.2519 C   0  0  0  0  0  0  0  0  0  0  0  0
   12.3263    8.9466   -4.8873 C   0  0  0  0  0  0  0  0  0  0  0  0
   12.7260    9.1294   -3.5698 C   0  0  0  0  0  0  0  0  0  0  0  0
   12.4454    8.1798   -2.6138 C   0  0  0  0  0  0  0  0  0  0  0  0
   11.7619    7.0276   -2.9444 C   0  0  0  0  0  0  0  0  0  0  0  0
   11.3772    6.8708   -4.2561 C   0  0  0  0  0  0  0  0  0  0  0  0
  1  2  1  0
  3  2  1  1
  3  4  1  0
  4  5  1  0
  6  5  1  6
  6  7  1  0
  7  8  2  0
  8  9  1  0
  9 26  1  0
 26 27  2  0
 27 28  1  0
 28 29  2  0
 29 30  1  0
 30 31  2  0
 31 32  1  0
 32 38  1  0
 38 39  2  0
 39 40  1  0
 40 41  2  0
 41 42  1  0
 42 43  2  0
 32 33  2  0
 33 34  1  0
 34 35  2  0
 35 36  1  0
 36 37  1  0
  9 10  2  0
 10 11  1  0
 11 12  2  0
 12 13  1  0
 13 14  2  0
 14 15  1  0
 15 16  2  0
 16 17  1  0
 17 18  2  0
 18 19  1  0
 19 20  2  0
 19 21  1  0
 21 22  1  0
 22 23  2  0
  6 24  1  0
 24 25  1  0
 25  3  1  0
 23  6  1  0
 12  7  1  0
 23 13  1  0
 36 27  1  0
 22 16  1  0
 35 30  1  0
 43 38  1  0
M  CHG  1  21  -1
M  END
>  <minimizedAffinity>  (213) 
-17.34686

$$$$
Mol: 170_10 - SminaDock
     RDKit          3D

 40 46  0  0  0  0  0  0  0  0999 V2000
    4.2185   -2.8254  -16.9738 H   0  0  0  0  0  0  0  0  0  0  0  0
    5.1544   -2.6666  -16.6190 O   0  0  0  0  0  0  0  0  0  0  0  0
    5.4702   -1.4822  -15.9372 C   0  0  0  0  0  0  0  0  0  0  0  0
    6.6767   -0.9447  -16.1597 N   0  0  0  0  0  0  0  0  0  0  0  0
    7.0375    0.1908  -15.5350 C   0  0  0  0  0  0  0  0  0  0  0  0
    8.3023    0.7470  -15.7734 C   0  0  0  0  0  0  0  0  0  0  0  0
    8.6815    1.9057  -15.1415 C   0  0  0  0  0  0  0  0  0  0  0  0
    7.7887    2.4997  -14.2737 C   0  0  0  0  0  0  0  0  0  0  0  0
    6.5430    1.9853  -14.0153 C   0  0  0  0  0  0  0  0  0  0  0  0
    6.1613    0.7993  -14.6653 C   0  0  0  0  0  0  0  0  0  0  0  0
    4.9275    0.2398  -14.4448 C   0  0  0  0  0  0  0  0  0  0  0  0
    4.0707    0.7298  -13.6689 O   0  0  0  0  0  0  0  0  0  0  0  0
    4.6051   -0.9105  -15.0991 N   0  0  0  0  0  0  0  0  0  0  0  0
    5.5575    2.5782  -13.1009 C   0  0  0  0  0  0  0  0  0  0  0  0
    6.0471    3.8334  -12.4580 C   0  0  0  0  0  0  0  0  0  0  0  0
    5.3015    4.4358  -11.6600 O   0  0  0  0  0  0  0  0  0  0  0  0
    7.3618    4.4074  -12.7087 C   0  0  0  0  0  0  0  0  0  0  0  0
    7.7431    5.5903  -12.0610 C   0  0  0  0  0  0  0  0  0  0  0  0
    8.9794    6.1475  -12.2839 C   0  0  0  0  0  0  0  0  0  0  0  0
    9.8113    5.4968  -13.1610 C   0  0  0  0  0  0  0  0  0  0  0  0
    9.4348    4.3128  -13.8117 C   0  0  0  0  0  0  0  0  0  0  0  0
    8.1873    3.7429  -13.5921 C   0  0  0  0  0  0  0  0  0  0  0  0
    9.3882    7.3531  -11.6335 N   0  0  0  0  0  0  0  0  0  0  0  0
    9.7647    7.3766  -10.4022 C   0  0  0  0  0  0  0  0  0  0  0  0
    9.7613    6.1806   -9.7179 C   0  0  0  0  0  0  0  0  0  0  0  0
   10.1356    6.0864   -8.4255 N   0  0  0  0  0  0  0  0  0  0  0  0
   10.5222    7.2007   -7.7956 C   0  0  0  0  0  0  0  0  0  0  0  0
   10.9017    7.0929   -6.4780 C   0  0  0  0  0  0  0  0  0  0  0  0
   11.3059    8.2326   -5.8046 C   0  0  0  0  0  0  0  0  0  0  0  0
   11.3216    9.4433   -6.4563 C   0  0  0  0  0  0  0  0  0  0  0  0
   10.9357    9.5248   -7.7798 C   0  0  0  0  0  0  0  0  0  0  0  0
   10.5308    8.4008   -8.4646 C   0  0  0  0  0  0  0  0  0  0  0  0
   10.1505    8.4704   -9.7626 N   0  0  0  0  0  0  0  0  0  0  0  0
   10.1561    9.3736  -10.2693 H   0  0  0  0  0  0  0  0  0  0  0  0
   11.7096    8.1276   -4.4091 C   0  0  0  0  0  0  0  0  0  0  0  0
   12.0747    9.2222   -3.6553 C   0  0  0  0  0  0  0  0  0  0  0  0
   12.4561    9.0997   -2.3273 C   0  0  0  0  0  0  0  0  0  0  0  0
   12.4716    7.8543   -1.7430 C   0  0  0  0  0  0  0  0  0  0  0  0
   12.1082    6.7491   -2.4868 C   0  0  0  0  0  0  0  0  0  0  0  0
   11.7326    6.8945   -3.8054 C   0  0  0  0  0  0  0  0  0  0  0  0
  1  2  1  0
  2  3  1  0
  3  4  2  0
  4  5  1  0
  5  6  2  0
  6  7  1  0
  7  8  2  0
  8  9  1  0
  9 10  2  0
 10 11  1  0
 11 12  2  0
 11 13  1  0
  9 14  1  0
 14 15  1  0
 15 16  2  0
 15 17  1  0
 17 18  2  0
 18 19  1  0
 19 23  1  0
 23 24  2  0
 24 25  1  0
 25 26  2  0
 26 27  1  0
 27 28  2  0
 28 29  1  0
 29 35  1  0
 35 36  2  0
 36 37  1  0
 37 38  2  0
 38 39  1  0
 39 40  2  0
 29 30  2  0
 30 31  1  0
 31 32  2  0
 32 33  1  0
 33 34  1  0
 19 20  2  0
 20 21  1  0
 21 22  2  0
 13  3  1  0
 22 17  1  0
 10  5  1  0
 33 24  1  0
 22  8  1  0
 32 27  1  0
 40 35  1  0
M  CHG  1  13  -1
M  END
>  <minimizedAffinity>  (214) 
-17.32938

$$$$
Mol: 194_2 - SminaDock
     RDKit          3D

 39 45  0  0  0  0  0  0  0  0999 V2000
    6.1517   -2.4963  -16.5878 H   0  0  0  0  0  0  0  0  0  0  0  0
    6.0584   -1.7953  -15.8986 O   0  0  0  0  0  0  0  0  0  0  0  0
    5.7685   -0.5409  -16.4507 C   0  0  1  0  0  0  0  0  0  0  0  0
    6.8250   -0.1997  -17.4491 C   0  0  0  0  0  0  0  0  0  0  0  0
    4.4150   -0.6382  -17.0519 C   0  0  0  0  0  0  0  0  0  0  0  0
    4.2071   -0.5359  -18.2797 O   0  0  0  0  0  0  0  0  0  0  0  0
    3.3563   -0.8552  -16.1580 O   0  0  0  0  0  0  0  0  0  0  0  0
    3.5682   -0.7864  -14.7410 C   0  0  0  0  0  0  0  0  0  0  0  0
    4.5867    0.3018  -14.4905 C   0  0  0  0  0  0  0  0  0  0  0  0
    4.4494    1.1708  -13.4392 C   0  0  0  0  0  0  0  0  0  0  0  0
    5.4220    2.1674  -13.2451 C   0  0  0  0  0  0  0  0  0  0  0  0
    6.4996    2.2879  -14.0810 C   0  0  0  0  0  0  0  0  0  0  0  0
    6.6278    1.3943  -15.1505 C   0  0  0  0  0  0  0  0  0  0  0  0
    5.6725    0.4237  -15.3322 C   0  0  0  0  0  0  0  0  0  0  0  0
    7.3741    3.3911  -13.6866 C   0  0  0  0  0  0  0  0  0  0  0  0
    8.5480    3.9109  -14.1829 C   0  0  0  0  0  0  0  0  0  0  0  0
    9.1346    4.9901  -13.5571 C   0  0  0  0  0  0  0  0  0  0  0  0
    8.5534    5.5481  -12.4417 C   0  0  0  0  0  0  0  0  0  0  0  0
    7.3930    5.0328  -11.9526 C   0  0  0  0  0  0  0  0  0  0  0  0
    6.7869    3.9399  -12.5757 C   0  0  0  0  0  0  0  0  0  0  0  0
    5.5357    3.2242  -12.2179 C   0  0  0  0  0  0  0  0  0  0  0  0
    9.1610    6.6766  -11.7829 N   0  0  0  0  0  0  0  0  0  0  0  0
    9.5038    6.6638  -10.5518 C   0  0  0  0  0  0  0  0  0  0  0  0
    9.3396    5.5891   -9.7121 C   0  0  0  0  0  0  0  0  0  0  0  0
    9.7116    5.6127   -8.4179 N   0  0  0  0  0  0  0  0  0  0  0  0
   10.2630    6.7088   -7.9063 C   0  0  0  0  0  0  0  0  0  0  0  0
   10.6543    6.7497   -6.5641 C   0  0  0  0  0  0  0  0  0  0  0  0
   11.2277    7.8920   -6.0336 C   0  0  0  0  0  0  0  0  0  0  0  0
   11.4061    8.9851   -6.8479 C   0  0  0  0  0  0  0  0  0  0  0  0
   11.0166    8.9331   -8.1691 C   0  0  0  0  0  0  0  0  0  0  0  0
   10.4427    7.8085   -8.7246 C   0  0  0  0  0  0  0  0  0  0  0  0
   10.0620    7.7694  -10.0297 N   0  0  0  0  0  0  0  0  0  0  0  0
   10.2137    8.6257  -10.6252 H   0  0  0  0  0  0  0  0  0  0  0  0
   11.6513    7.9871   -4.6452 C   0  0  0  0  0  0  0  0  0  0  0  0
   11.6999    6.8665   -3.8428 C   0  0  0  0  0  0  0  0  0  0  0  0
   12.0986    6.9224   -2.5156 C   0  0  0  0  0  0  0  0  0  0  0  0
   12.4586    8.1466   -1.9837 C   0  0  0  0  0  0  0  0  0  0  0  0
   12.4145    9.2767   -2.7762 C   0  0  0  0  0  0  0  0  0  0  0  0
   12.0179    9.2190   -4.0952 C   0  0  0  0  0  0  0  0  0  0  0  0
  1  2  1  0
  3  2  1  0
  3  4  1  6
  3  5  1  0
  5  6  2  0
  5  7  1  0
  7  8  1  0
  8  9  1  0
  9 10  2  0
 10 11  1  0
 11 12  2  0
 12 13  1  0
 13 14  2  0
 12 15  1  0
 15 16  2  0
 16 17  1  0
 17 18  2  0
 18 22  1  0
 22 23  2  0
 23 24  1  0
 24 25  2  0
 25 26  1  0
 26 27  2  0
 27 28  1  0
 28 34  1  0
 34 35  2  0
 35 36  1  0
 36 37  2  0
 37 38  1  0
 38 39  2  0
 28 29  2  0
 29 30  1  0
 30 31  2  0
 31 32  1  0
 32 33  1  0
 18 19  1  0
 19 20  2  0
 20 21  1  0
 14  3  1  0
 20 15  1  0
 14  9  1  0
 32 23  1  0
 21 11  1  0
 31 26  1  0
 39 34  1  0
M  END
>  <minimizedAffinity>  (215) 
-17.31438

$$$$
Mol: 145_45 - SminaDock
     RDKit          3D

 38 44  0  0  0  0  0  0  0  0999 V2000
    8.5034    5.6190  -12.2659 C   0  0  0  0  0  0  0  0  0  0  0  0
    7.1331    5.4654  -12.1211 C   0  0  0  0  0  0  0  0  0  0  0  0
    6.4553    4.3874  -12.6481 C   0  0  0  0  0  0  0  0  0  0  0  0
    7.2002    3.4721  -13.3216 C   0  0  0  0  0  0  0  0  0  0  0  0
    8.5753    3.5745  -13.5007 C   0  0  0  0  0  0  0  0  0  0  0  0
    9.2212    4.6652  -12.9605 C   0  0  0  0  0  0  0  0  0  0  0  0
    9.4578    2.6609  -14.2494 C   0  0  0  0  0  0  0  0  0  0  0  0
   10.6630    2.7335  -13.9278 O   0  0  0  0  0  0  0  0  0  0  0  0
    9.0070    1.7717  -15.2485 N   0  0  0  0  0  0  0  0  0  0  0  0
    9.7138    1.0530  -15.5235 H   0  0  0  0  0  0  0  0  0  0  0  0
    7.6992    1.7382  -15.9300 C   0  0  0  0  0  0  0  0  0  0  0  0
    6.5852    1.6143  -14.9660 C   0  0  0  0  0  0  0  0  0  0  0  0
    6.3763    2.3562  -13.8125 C   0  0  0  0  0  0  0  0  0  0  0  0
    5.3261    2.1372  -12.9639 C   0  0  0  0  0  0  0  0  0  0  0  0
    4.4449    1.1266  -13.2960 C   0  0  0  0  0  0  0  0  0  0  0  0
    4.6529    0.3753  -14.4641 C   0  0  0  0  0  0  0  0  0  0  0  0
    5.7164    0.6069  -15.3067 C   0  0  0  0  0  0  0  0  0  0  0  0
    5.6542   -0.3540  -16.4488 C   0  0  0  0  0  0  0  0  0  0  0  0
    4.2422   -0.8828  -16.4046 C   0  0  0  0  0  0  0  0  0  0  0  0
    3.8001   -0.7440  -14.9644 C   0  0  0  0  0  0  0  0  0  0  0  0
   11.2993    7.9641   -5.9876 C   0  0  0  0  0  0  0  0  0  0  0  0
   11.5945    8.9988   -6.8635 C   0  0  0  0  0  0  0  0  0  0  0  0
   11.2252    8.9447   -8.1928 C   0  0  0  0  0  0  0  0  0  0  0  0
   10.5480    7.8568   -8.6969 C   0  0  0  0  0  0  0  0  0  0  0  0
   10.2453    6.8154   -7.8369 C   0  0  0  0  0  0  0  0  0  0  0  0
    9.5703    5.7438   -8.3647 C   0  0  0  0  0  0  0  0  0  0  0  0
    9.2248    5.7210   -9.6624 N   0  0  0  0  0  0  0  0  0  0  0  0
    9.5282    6.7464  -10.4886 C   0  0  0  0  0  0  0  0  0  0  0  0
    9.2031    6.7314  -11.7218 N   0  0  0  0  0  0  0  0  0  0  0  0
   10.1884    7.8128  -10.0081 N   0  0  0  0  0  0  0  0  0  0  0  0
   10.4232    8.6087  -10.6516 H   0  0  0  0  0  0  0  0  0  0  0  0
   10.6204    6.8790   -6.5037 C   0  0  0  0  0  0  0  0  0  0  0  0
   12.4140    8.0194   -1.8792 C   0  0  0  0  0  0  0  0  0  0  0  0
   12.0574    6.8549   -2.5166 C   0  0  0  0  0  0  0  0  0  0  0  0
   11.7004    6.8591   -3.8454 C   0  0  0  0  0  0  0  0  0  0  0  0
   11.6832    8.0118   -4.5897 C   0  0  0  0  0  0  0  0  0  0  0  0
   12.0388    9.1823   -3.9595 C   0  0  0  0  0  0  0  0  0  0  0  0
   12.4034    9.1891   -2.6090 C   0  0  0  0  0  0  0  0  0  0  0  0
 33 34  2  0
 34 35  1  0
 35 36  2  0
 36 21  1  0
 21 22  2  0
 22 23  1  0
 23 24  2  0
 24 25  1  0
 25 26  1  0
 26 27  2  0
 27 28  1  0
 28 29  2  0
 29  1  1  0
  1  2  2  0
  2  3  1  0
  3  4  2  0
  4  5  1  0
  5  6  2  0
  5  7  1  0
  7  8  2  0
  7  9  1  0
  9 10  1  0
  9 11  1  0
 11 12  1  0
 12 13  2  0
 13 14  1  0
 14 15  2  0
 15 16  1  0
 16 17  2  0
 17 18  1  0
 18 19  1  0
 19 20  1  0
 28 30  1  0
 30 31  1  0
 25 32  2  0
 36 37  1  0
 37 38  2  0
 38 33  1  0
 32 21  1  0
 30 24  1  0
  6  1  1  0
 17 12  1  0
 13  4  1  0
 20 16  1  0
M  END
>  <minimizedAffinity>  (216) 
-17.26840

$$$$
Mol: 172_39 - SminaDock
     RDKit          3D

 38 44  0  0  0  0  0  0  0  0999 V2000
    6.2348   -3.0117  -16.8165 H   0  0  0  0  0  0  0  0  0  0  0  0
    5.3581   -2.7138  -16.3486 N   0  0  0  0  0  0  0  0  0  0  0  0
    5.3341   -1.6123  -15.6682 C   0  0  0  0  0  0  0  0  0  0  0  0
    4.1603   -1.2122  -15.0410 C   0  0  0  0  0  0  0  0  0  0  0  0
    4.1904   -0.0394  -14.3348 C   0  0  0  0  0  0  0  0  0  0  0  0
    5.3548    0.7115  -14.2563 C   0  0  0  0  0  0  0  0  0  0  0  0
    5.7031    1.9060  -13.6406 C   0  0  0  0  0  0  0  0  0  0  0  0
    7.0228    2.1511  -13.9218 C   0  0  0  0  0  0  0  0  0  0  0  0
    7.4733    1.1799  -14.6616 O   0  0  0  0  0  0  0  0  0  0  0  0
    6.5111    0.2884  -14.8920 C   0  0  0  0  0  0  0  0  0  0  0  0
    6.4652   -0.8617  -15.5791 N   0  0  0  0  0  0  0  0  0  0  0  0
    7.3256   -1.2267  -16.0831 H   0  0  0  0  0  0  0  0  0  0  0  0
    7.6450    3.3664  -13.3842 C   0  0  0  0  0  0  0  0  0  0  0  0
    8.9730    3.6521  -13.6306 C   0  0  0  0  0  0  0  0  0  0  0  0
    9.5837    4.7781  -13.1320 C   0  0  0  0  0  0  0  0  0  0  0  0
    8.8450    5.6419  -12.3658 C   0  0  0  0  0  0  0  0  0  0  0  0
    7.5314    5.3911  -12.1028 C   0  0  0  0  0  0  0  0  0  0  0  0
    6.9058    4.2205  -12.6242 C   0  0  0  0  0  0  0  0  0  0  0  0
    5.4900    4.0127  -12.3138 C   0  0  0  0  0  0  0  0  0  0  0  0
    4.8781    2.7869  -12.8259 C   0  0  0  0  0  0  0  0  0  0  0  0
    9.4364    6.8165  -11.8315 N   0  0  0  0  0  0  0  0  0  0  0  0
    9.7465    6.8263  -10.5799 C   0  0  0  0  0  0  0  0  0  0  0  0
   10.3171    7.9275  -10.0137 N   0  0  0  0  0  0  0  0  0  0  0  0
   10.6566    7.9901   -8.7247 C   0  0  0  0  0  0  0  0  0  0  0  0
   11.2350    9.1072   -8.1534 C   0  0  0  0  0  0  0  0  0  0  0  0
   11.5827    9.1635   -6.8216 C   0  0  0  0  0  0  0  0  0  0  0  0
   11.3648    8.1003   -6.0055 C   0  0  0  0  0  0  0  0  0  0  0  0
   10.7827    6.9693   -6.5693 C   0  0  0  0  0  0  0  0  0  0  0  0
   10.4310    6.9029   -7.9011 C   0  0  0  0  0  0  0  0  0  0  0  0
    9.8535    5.7990   -8.4914 C   0  0  0  0  0  0  0  0  0  0  0  0
    9.5174    5.7511   -9.7903 N   0  0  0  0  0  0  0  0  0  0  0  0
    9.0756    4.8962  -10.2260 H   0  0  0  0  0  0  0  0  0  0  0  0
   11.7062    8.0819   -4.5843 C   0  0  0  0  0  0  0  0  0  0  0  0
   11.6749    6.8900   -3.8882 C   0  0  0  0  0  0  0  0  0  0  0  0
   11.9915    6.8405   -2.5504 C   0  0  0  0  0  0  0  0  0  0  0  0
   12.3529    7.9757   -1.8499 C   0  0  0  0  0  0  0  0  0  0  0  0
   12.3802    9.1592   -2.5569 C   0  0  0  0  0  0  0  0  0  0  0  0
   12.0619    9.2076   -3.9004 C   0  0  0  0  0  0  0  0  0  0  0  0
  1  2  1  0
  2  3  2  0
  3  4  1  0
  4  5  2  0
  5  6  1  0
  6  7  1  0
  7  8  2  0
  8  9  1  0
  9 10  1  0
 10 11  1  0
 11 12  1  0
  8 13  1  0
 13 14  2  0
 14 15  1  0
 15 16  2  0
 16 21  1  0
 21 22  2  0
 22 23  1  0
 23 24  2  0
 24 25  1  0
 25 26  2  0
 26 27  1  0
 27 33  1  0
 33 34  2  0
 34 35  1  0
 35 36  2  0
 36 37  1  0
 37 38  2  0
 27 28  2  0
 28 29  1  0
 29 30  2  0
 30 31  1  0
 31 32  1  0
 16 17  1  0
 17 18  2  0
 18 19  1  0
 19 20  1  0
 11  3  1  0
 18 13  1  0
 10  6  2  0
 31 22  1  0
 20  7  1  0
 29 24  1  0
 38 33  1  0
M  END
>  <minimizedAffinity>  (217) 
-17.28960

$$$$
Mol: 198_39 - SminaDock
     RDKit          3D

 45 52  0  0  0  0  0  0  0  0999 V2000
    9.5833    5.6138  -13.0450 C   0  0  0  0  0  0  0  0  0  0  0  0
    8.4209    5.5647  -12.3159 C   0  0  0  0  0  0  0  0  0  0  0  0
    7.5106    4.5643  -12.5973 C   0  0  0  0  0  0  0  0  0  0  0  0
    7.7383    3.6256  -13.5805 C   0  0  0  0  0  0  0  0  0  0  0  0
    8.9029    3.6607  -14.3236 C   0  0  0  0  0  0  0  0  0  0  0  0
    9.7988    4.6572  -14.0360 C   0  0  0  0  0  0  0  0  0  0  0  0
    8.8980    2.5516  -15.3029 C   0  0  2  0  0  0  0  0  0  0  0  0
   10.0577    1.6655  -15.1752 C   0  0  0  0  0  0  0  0  0  0  0  0
   10.1833    0.8053  -14.2550 O   0  0  0  0  0  0  0  0  0  0  0  0
   10.9589    1.9549  -16.2361 N   0  0  0  0  0  0  0  0  0  0  0  0
   10.2879    2.8002  -17.1518 C   0  0  0  0  0  0  0  0  0  0  0  0
   10.8375    3.2287  -18.2042 O   0  0  0  0  0  0  0  0  0  0  0  0
    8.9789    3.0379  -16.6689 N   0  0  0  0  0  0  0  0  0  0  0  0
    8.2115    3.4975  -17.2404 H   0  0  0  0  0  0  0  0  0  0  0  0
    7.6054    1.8645  -15.0517 C   0  0  0  0  0  0  0  0  0  0  0  0
    6.9289    2.5050  -14.0351 C   0  0  0  0  0  0  0  0  0  0  0  0
    5.6844    2.0272  -13.6312 C   0  0  0  0  0  0  0  0  0  0  0  0
    5.0916    0.9226  -14.2157 C   0  0  0  0  0  0  0  0  0  0  0  0
    3.8595    0.4513  -13.8142 C   0  0  0  0  0  0  0  0  0  0  0  0
    3.2564   -0.6564  -14.3942 C   0  0  0  0  0  0  0  0  0  0  0  0
    3.9498   -1.2813  -15.4084 C   0  0  0  0  0  0  0  0  0  0  0  0
    5.1820   -0.8169  -15.8158 C   0  0  0  0  0  0  0  0  0  0  0  0
    5.7777    0.2903  -15.2313 C   0  0  0  0  0  0  0  0  0  0  0  0
    7.0069    0.7635  -15.6289 C   0  0  0  0  0  0  0  0  0  0  0  0
   11.0551    7.5199   -6.6933 C   0  0  0  0  0  0  0  0  0  0  0  0
   10.0859    6.5861   -6.9953 C   0  0  0  0  0  0  0  0  0  0  0  0
    9.8083    6.2185   -8.2996 C   0  0  0  0  0  0  0  0  0  0  0  0
   10.4984    6.7786   -9.3568 C   0  0  0  0  0  0  0  0  0  0  0  0
   11.4696    7.7135   -9.0636 C   0  0  0  0  0  0  0  0  0  0  0  0
   11.7416    8.0764   -7.7541 C   0  0  0  0  0  0  0  0  0  0  0  0
   12.1530    8.2659  -10.1312 C   0  0  0  0  0  0  0  0  0  0  0  0
   11.8813    7.9034  -11.4345 C   0  0  0  0  0  0  0  0  0  0  0  0
   10.8990    6.9621  -11.6771 C   0  0  0  0  0  0  0  0  0  0  0  0
   10.6007    6.5829  -12.8626 N   0  0  0  0  0  0  0  0  0  0  0  0
   10.2392    6.4295  -10.6399 N   0  0  0  0  0  0  0  0  0  0  0  0
    9.4868    5.7119  -10.7949 H   0  0  0  0  0  0  0  0  0  0  0  0
   12.3187    8.1491   -0.7801 H   0  0  0  0  0  0  0  0  0  0  0  0
   12.1898    8.9095   -1.4723 N   0  0  0  0  0  0  0  0  0  0  0  0
   11.9248    8.5963   -2.6915 C   0  0  0  0  0  0  0  0  0  0  0  0
   11.8152    7.2774   -3.0659 C   0  0  0  0  0  0  0  0  0  0  0  0
   11.5339    6.9352   -4.3599 C   0  0  0  0  0  0  0  0  0  0  0  0
   11.3552    7.9127   -5.3121 C   0  0  0  0  0  0  0  0  0  0  0  0
   11.4663    9.2310   -4.9298 C   0  0  0  0  0  0  0  0  0  0  0  0
   11.7441    9.5294   -3.6484 N   0  0  0  0  0  0  0  0  0  0  0  0
   11.8327   10.5250   -3.3373 H   0  0  0  0  0  0  0  0  0  0  0  0
 37 38  1  0
 38 39  2  0
 39 40  1  0
 40 41  2  0
 41 42  1  0
 42 25  1  0
 25 26  2  0
 26 27  1  0
 27 28  2  0
 28 29  1  0
 29 30  2  0
 29 31  1  0
 31 32  2  0
 32 33  1  0
 33 34  2  0
 34  1  1  0
  1  2  2  0
  2  3  1  0
  3  4  2  0
  4  5  1  0
  5  6  2  0
  5  7  1  0
  7  8  1  0
  8  9  2  0
  8 10  1  0
 10 11  1  0
 11 12  2  0
 11 13  1  0
 13 14  1  0
  7 15  1  0
 15 16  2  0
 16 17  1  0
 17 18  2  0
 18 19  1  0
 19 20  2  0
 20 21  1  0
 21 22  2  0
 22 23  1  0
 23 24  2  0
 33 35  1  0
 35 36  1  0
 42 43  2  0
 43 44  1  0
 44 45  1  0
 44 39  1  0
 30 25  1  0
  6  1  1  0
  7 13  1  6
 24 15  1  0
 35 28  1  0
 16  4  1  0
 23 18  1  0
M  CHG  1  10  -1
M  END
>  <minimizedAffinity>  (218) 
-17.25926

$$$$
Mol: 199_58 - SminaDock
     RDKit          3D

 40 47  0  0  0  0  0  0  0  0999 V2000
    8.6557    5.9193  -12.4711 C   0  0  0  0  0  0  0  0  0  0  0  0
    9.0714    5.4435  -13.6940 C   0  0  0  0  0  0  0  0  0  0  0  0
    8.4218    4.3623  -14.2637 C   0  0  0  0  0  0  0  0  0  0  0  0
    7.3609    3.7398  -13.6401 C   0  0  0  0  0  0  0  0  0  0  0  0
    6.9649    4.2334  -12.4204 C   0  0  0  0  0  0  0  0  0  0  0  0
    7.5947    5.3167  -11.8204 C   0  0  0  0  0  0  0  0  0  0  0  0
    5.8256    3.4087  -11.9637 C   0  0  0  0  0  0  0  0  0  0  0  0
    5.6128    2.4066  -13.0300 C   0  0  0  0  0  0  0  0  0  0  0  0
    4.7036    1.3795  -13.1663 C   0  0  0  0  0  0  0  0  0  0  0  0
    4.6952    0.5442  -14.2898 C   0  0  0  0  0  0  0  0  0  0  0  0
    5.6153    0.7411  -15.2971 C   0  0  0  0  0  0  0  0  0  0  0  0
    6.5132    1.7713  -15.1411 C   0  0  0  0  0  0  0  0  0  0  0  0
    6.5392    2.6057  -14.0431 C   0  0  0  0  0  0  0  0  0  0  0  0
    5.4002   -0.2602  -16.3610 C   0  0  2  0  0  0  0  0  0  0  0  0
    4.3121   -1.0468  -15.9199 O   0  0  0  0  0  0  0  0  0  0  0  0
    3.8763   -0.5851  -14.6888 C   0  0  0  0  0  0  0  0  0  0  0  0
    2.9284   -1.0528  -14.0108 O   0  0  0  0  0  0  0  0  0  0  0  0
    6.5795   -1.1918  -16.5300 C   0  0  0  0  0  0  0  0  0  0  0  0
    6.4495   -1.7853  -17.9389 C   0  0  0  0  0  0  0  0  0  0  0  0
    6.8016   -0.8605  -18.8988 O   0  0  0  0  0  0  0  0  0  0  0  0
    6.3055    0.3933  -18.6110 C   0  0  0  0  0  0  0  0  0  0  0  0
    5.1054    0.3750  -17.6990 C   0  0  0  0  0  0  0  0  0  0  0  0
   11.3023    7.9599   -6.0391 C   0  0  0  0  0  0  0  0  0  0  0  0
   11.6153    9.0571   -6.8261 C   0  0  0  0  0  0  0  0  0  0  0  0
   11.2833    9.0936   -8.1624 C   0  0  0  0  0  0  0  0  0  0  0  0
   10.6293    8.0489   -8.7748 C   0  0  0  0  0  0  0  0  0  0  0  0
   10.2912    8.0489  -10.0682 N   0  0  0  0  0  0  0  0  0  0  0  0
    9.6419    7.0002  -10.6547 C   0  0  0  0  0  0  0  0  0  0  0  0
    9.3279    7.0250  -11.8996 N   0  0  0  0  0  0  0  0  0  0  0  0
    9.3160    5.9134   -9.9356 N   0  0  0  0  0  0  0  0  0  0  0  0
    8.8203    5.1198  -10.3967 H   0  0  0  0  0  0  0  0  0  0  0  0
    9.6502    5.8947   -8.6239 C   0  0  0  0  0  0  0  0  0  0  0  0
   10.3074    6.9447   -8.0089 C   0  0  0  0  0  0  0  0  0  0  0  0
   10.6448    6.9157   -6.6656 C   0  0  0  0  0  0  0  0  0  0  0  0
   12.3412    7.9817   -1.9432 C   0  0  0  0  0  0  0  0  0  0  0  0
   12.0011    6.7964   -2.5548 C   0  0  0  0  0  0  0  0  0  0  0  0
   11.6578    6.7569   -3.8885 C   0  0  0  0  0  0  0  0  0  0  0  0
   11.6539    7.9221   -4.6255 C   0  0  0  0  0  0  0  0  0  0  0  0
   11.9963    9.1026   -4.0018 C   0  0  0  0  0  0  0  0  0  0  0  0
   12.3413    9.1524   -2.6675 C   0  0  0  0  0  0  0  0  0  0  0  0
 35 36  2  0
 36 37  1  0
 37 38  2  0
 38 23  1  0
 23 24  1  0
 24 25  2  0
 25 26  1  0
 26 27  2  0
 27 28  1  0
 28 29  2  0
 29  1  1  0
  1  2  2  0
  2  3  1  0
  3  4  2  0
  4  5  1  0
  5  6  2  0
  5  7  1  0
  7  8  1  0
  8  9  2  0
  9 10  1  0
 10 11  2  0
 11 12  1  0
 12 13  2  0
 11 14  1  0
 14 15  1  0
 15 16  1  0
 16 17  2  0
 14 18  1  6
 18 19  1  0
 19 20  1  0
 20 21  1  0
 21 22  1  0
 28 30  1  0
 30 31  1  0
 30 32  1  0
 32 33  2  0
 33 34  1  0
 38 39  1  0
 39 40  2  0
 40 35  1  0
 34 23  2  0
 33 26  1  0
  6  1  1  0
 13  8  1  0
 22 14  1  0
 13  4  1  0
 16 10  1  0
M  END
>  <minimizedAffinity>  (219) 
-17.30520

$$$$
Mol: 192_21 - SminaDock
     RDKit          3D

 41 48  0  0  0  0  0  0  0  0999 V2000
    9.8154    5.8024  -13.1389 C   0  0  0  0  0  0  0  0  0  0  0  0
   10.0696    5.1810  -14.3388 C   0  0  0  0  0  0  0  0  0  0  0  0
    9.3385    4.1404  -14.8455 C   0  0  0  0  0  0  0  0  0  0  0  0
    8.2744    3.6968  -14.0910 C   0  0  0  0  0  0  0  0  0  0  0  0
    7.9665    4.2772  -12.8826 C   0  0  0  0  0  0  0  0  0  0  0  0
    8.7361    5.3281  -12.4062 C   0  0  0  0  0  0  0  0  0  0  0  0
    6.7752    3.6022  -12.3106 C   0  0  0  0  0  0  0  0  0  0  0  0
    6.3938    2.5593  -13.3022 C   0  0  0  0  0  0  0  0  0  0  0  0
    5.3957    1.6058  -13.3932 C   0  0  0  0  0  0  0  0  0  0  0  0
    5.2941    0.7601  -14.4645 C   0  0  0  0  0  0  0  0  0  0  0  0
    6.1724    0.7939  -15.5146 C   0  0  0  0  0  0  0  0  0  0  0  0
    7.1795    1.7617  -15.4128 C   0  0  0  0  0  0  0  0  0  0  0  0
    7.2960    2.6224  -14.3469 C   0  0  0  0  0  0  0  0  0  0  0  0
    6.1043   -0.1243  -16.6332 C   0  0  0  0  0  0  0  0  0  0  0  0
    5.0067   -1.1023  -16.6078 C   0  0  2  0  0  0  0  0  0  0  0  0
    5.3663   -2.3802  -16.0715 O   0  0  0  0  0  0  0  0  0  0  0  0
    5.6171   -2.8142  -17.3498 C   0  0  0  0  0  0  0  0  0  0  0  0
    6.3340   -3.7611  -17.7897 O   0  0  0  0  0  0  0  0  0  0  0  0
    4.7825   -1.8037  -17.8623 N   0  0  0  0  0  0  0  0  0  0  0  0
    4.0638   -1.5630  -19.0681 C   0  0  0  0  0  0  0  0  0  0  0  0
    3.7626   -0.6066  -15.9244 C   0  0  0  0  0  0  0  0  0  0  0  0
    4.1665   -0.2115  -14.5654 C   0  0  0  0  0  0  0  0  0  0  0  0
    3.6366   -0.6398  -13.5460 O   0  0  0  0  0  0  0  0  0  0  0  0
   11.0095    7.5177   -6.4010 C   0  0  0  0  0  0  0  0  0  0  0  0
   10.0615    6.5901   -6.7499 C   0  0  0  0  0  0  0  0  0  0  0  0
    9.7528    6.2921   -8.0650 C   0  0  0  0  0  0  0  0  0  0  0  0
   10.3805    6.9124   -9.1141 C   0  0  0  0  0  0  0  0  0  0  0  0
   10.1433    6.6217  -10.3963 N   0  0  0  0  0  0  0  0  0  0  0  0
   10.7341    7.1327  -11.4404 C   0  0  0  0  0  0  0  0  0  0  0  0
   10.6673    6.8463  -12.7029 N   0  0  0  0  0  0  0  0  0  0  0  0
   11.7028    8.0825  -11.1376 N   0  0  0  0  0  0  0  0  0  0  0  0
   12.2026    8.5192  -11.9350 H   0  0  0  0  0  0  0  0  0  0  0  0
   11.9974    8.4303   -9.8661 C   0  0  0  0  0  0  0  0  0  0  0  0
   11.3554    7.8630   -8.7921 C   0  0  0  0  0  0  0  0  0  0  0  0
   11.6496    8.1497   -7.4799 C   0  0  0  0  0  0  0  0  0  0  0  0
   12.0922    8.2432   -2.3832 C   0  0  0  0  0  0  0  0  0  0  0  0
   11.8010    6.9632   -2.8279 C   0  0  0  0  0  0  0  0  0  0  0  0
   11.4534    6.7520   -4.1421 C   0  0  0  0  0  0  0  0  0  0  0  0
   11.3896    7.8085   -5.0340 C   0  0  0  0  0  0  0  0  0  0  0  0
   11.6726    9.0647   -4.6051 C   0  0  0  0  0  0  0  0  0  0  0  0
   12.0291    9.3214   -3.2709 C   0  0  0  0  0  0  0  0  0  0  0  0
 36 37  2  0
 37 38  1  0
 38 39  2  0
 39 24  1  0
 24 25  1  0
 25 26  2  0
 26 27  1  0
 27 28  2  0
 28 29  1  0
 29 30  2  0
 30  1  1  0
  1  2  2  0
  2  3  1  0
  3  4  2  0
  4  5  1  0
  5  6  2  0
  5  7  1  0
  7  8  1  0
  8  9  2  0
  9 10  1  0
 10 11  2  0
 11 12  1  0
 12 13  2  0
 11 14  1  0
 15 14  1  6
 15 16  1  0
 16 17  1  0
 17 18  2  0
 17 19  1  0
 19 20  1  0
 15 21  1  0
 21 22  1  0
 22 23  2  0
 29 31  1  0
 31 32  1  0
 31 33  1  0
 33 34  2  0
 34 35  1  0
 39 40  1  0
 40 41  2  0
 41 36  1  0
 35 24  2  0
 34 27  1  0
  6  1  1  0
 13  8  1  0
 19 15  1  0
 13  4  1  0
 22 10  1  0
M  END
>  <minimizedAffinity>  (220) 
-17.33134

$$$$
Mol: 146_43 - SminaDock
     RDKit          3D

 41 48  0  0  0  0  0  0  0  0999 V2000
    4.8614   -2.9726  -17.4425 H   0  0  0  0  0  0  0  0  0  0  0  0
    4.7639   -2.1591  -16.8578 O   0  0  0  0  0  0  0  0  0  0  0  0
    5.8130   -1.2371  -16.7310 C   0  0  0  0  0  0  0  0  0  0  0  0
    6.8718   -1.2314  -17.4259 N   0  0  0  0  0  0  0  0  0  0  0  0
    7.7745   -0.1337  -17.0466 C   0  0  0  0  0  0  0  0  0  0  0  0
    7.0518    0.5411  -15.9670 C   0  0  0  0  0  0  0  0  0  0  0  0
    5.8634   -0.1411  -15.7888 C   0  0  0  0  0  0  0  0  0  0  0  0
    4.9146    0.2251  -14.8316 C   0  0  0  0  0  0  0  0  0  0  0  0
    5.1735    1.3119  -14.0310 C   0  0  0  0  0  0  0  0  0  0  0  0
    6.3714    2.0186  -14.1935 C   0  0  0  0  0  0  0  0  0  0  0  0
    7.2810    1.6445  -15.1317 C   0  0  0  0  0  0  0  0  0  0  0  0
    8.4329    2.5636  -15.0575 C   0  0  2  0  0  0  0  0  0  0  0  0
    8.0804    3.5260  -13.9852 C   0  0  0  0  0  0  0  0  0  0  0  0
    8.7930    4.6337  -13.4856 C   0  0  0  0  0  0  0  0  0  0  0  0
    8.2213    5.3662  -12.4651 C   0  0  0  0  0  0  0  0  0  0  0  0
    6.9884    5.0163  -11.9566 C   0  0  0  0  0  0  0  0  0  0  0  0
    6.2815    3.9321  -12.4400 C   0  0  0  0  0  0  0  0  0  0  0  0
    6.8647    3.1893  -13.4773 C   0  0  0  0  0  0  0  0  0  0  0  0
    8.6729    3.2455  -16.3605 C   0  0  0  0  0  0  0  0  0  0  0  0
    9.7864    2.8097  -17.2085 C   0  0  0  0  0  0  0  0  0  0  0  0
   10.7948    1.8916  -16.5932 C   0  0  0  0  0  0  0  0  0  0  0  0
   10.8750    2.2085  -15.0895 C   0  0  0  0  0  0  0  0  0  0  0  0
    9.5748    1.7356  -14.5234 C   0  0  0  0  0  0  0  0  0  0  0  0
    8.9620    6.4835  -11.9750 N   0  0  0  0  0  0  0  0  0  0  0  0
    9.3461    6.5562  -10.7504 C   0  0  0  0  0  0  0  0  0  0  0  0
    9.0339    5.5461   -9.9252 N   0  0  0  0  0  0  0  0  0  0  0  0
    9.4244    5.5945   -8.6304 C   0  0  0  0  0  0  0  0  0  0  0  0
   10.1401    6.7100   -8.2237 C   0  0  0  0  0  0  0  0  0  0  0  0
   10.5500    6.7916   -6.9228 C   0  0  0  0  0  0  0  0  0  0  0  0
   11.2606    7.8793   -6.4806 C   0  0  0  0  0  0  0  0  0  0  0  0
   11.5745    8.9084   -7.3364 C   0  0  0  0  0  0  0  0  0  0  0  0
   11.1744    8.8531   -8.6526 C   0  0  0  0  0  0  0  0  0  0  0  0
   10.4622    7.7535   -9.0779 C   0  0  0  0  0  0  0  0  0  0  0  0
   10.0388    7.6441  -10.3729 N   0  0  0  0  0  0  0  0  0  0  0  0
   10.2727    8.4212  -11.0301 H   0  0  0  0  0  0  0  0  0  0  0  0
   11.6785    7.9258   -5.0858 C   0  0  0  0  0  0  0  0  0  0  0  0
   11.3213    6.8918   -4.2554 C   0  0  0  0  0  0  0  0  0  0  0  0
   11.6843    6.8659   -2.9099 C   0  0  0  0  0  0  0  0  0  0  0  0
   12.4240    7.9127   -2.4049 C   0  0  0  0  0  0  0  0  0  0  0  0
   12.7824    8.9435   -3.2247 C   0  0  0  0  0  0  0  0  0  0  0  0
   12.4175    8.9623   -4.5622 C   0  0  0  0  0  0  0  0  0  0  0  0
  1  2  1  0
  2  3  1  0
  3  4  2  0
  4  5  1  0
  5  6  1  0
  6  7  2  0
  7  8  1  0
  8  9  2  0
  9 10  1  0
 10 11  2  0
 11 12  1  0
 12 13  1  0
 13 14  2  0
 14 15  1  0
 15 24  1  0
 24 25  2  0
 25 26  1  0
 26 27  2  0
 27 28  1  0
 28 29  2  0
 29 30  1  0
 30 36  1  0
 36 37  2  0
 37 38  1  0
 38 39  2  0
 39 40  1  0
 40 41  2  0
 30 31  2  0
 31 32  1  0
 32 33  2  0
 33 34  1  0
 34 35  1  0
 15 16  2  0
 16 17  1  0
 17 18  2  0
 12 19  1  6
 19 20  1  0
 20 21  1  0
 21 22  1  0
 22 23  1  0
  7  3  1  0
 18 10  1  0
 11  6  1  0
 23 12  1  0
 18 13  1  0
 34 25  1  0
 33 28  1  0
 41 36  1  0
M  END
>  <minimizedAffinity>  (221) 
-17.28025

$$$$
Mol: 145_54 - SminaDock
     RDKit          3D

 46 54  0  0  0  0  0  0  0  0999 V2000
   11.1597    1.5706  -16.6468 C   0  0  0  0  0  0  0  0  0  0  0  0
   10.5197    0.6983  -15.9300 N   0  0  0  0  0  0  0  0  0  0  0  0
   11.0685    0.0198  -15.3488 H   0  0  0  0  0  0  0  0  0  0  0  0
    9.1387    0.6623  -15.9383 N   0  0  0  0  0  0  0  0  0  0  0  0
    8.6282   -0.1959  -15.6088 H   0  0  0  0  0  0  0  0  0  0  0  0
    8.3098    1.7787  -16.3926 C   0  0  2  0  0  0  0  0  0  0  0  0
    8.1262    2.7585  -15.2846 C   0  0  0  0  0  0  0  0  0  0  0  0
    9.0368    3.7660  -15.0521 C   0  0  0  0  0  0  0  0  0  0  0  0
    8.9557    4.6226  -13.9439 C   0  0  0  0  0  0  0  0  0  0  0  0
    7.9135    4.4209  -13.0760 C   0  0  0  0  0  0  0  0  0  0  0  0
    6.9853    3.3958  -13.3162 C   0  0  0  0  0  0  0  0  0  0  0  0
    7.0777    2.5635  -14.4117 C   0  0  0  0  0  0  0  0  0  0  0  0
    6.0081    1.6013  -14.6958 C   0  0  0  0  0  0  0  0  0  0  0  0
    5.0235    1.3110  -13.7620 C   0  0  0  0  0  0  0  0  0  0  0  0
    4.0903    0.3246  -13.9905 C   0  0  0  0  0  0  0  0  0  0  0  0
    4.1429   -0.3894  -15.1820 C   0  0  0  0  0  0  0  0  0  0  0  0
    5.1133   -0.1095  -16.1165 C   0  0  0  0  0  0  0  0  0  0  0  0
    6.0680    0.9032  -15.8823 C   0  0  0  0  0  0  0  0  0  0  0  0
    7.0248    1.2673  -16.9353 C   0  0  0  0  0  0  0  0  0  0  0  0
    4.6538   -1.1423  -17.0858 C   0  0  0  0  0  0  0  0  0  0  0  0
    3.5940   -1.4579  -16.0769 C   0  0  0  0  0  0  0  0  0  0  0  0
    9.0360    2.4804  -17.5112 C   0  0  0  0  0  0  0  0  0  0  0  0
   10.4575    2.5031  -17.4353 N   0  0  0  0  0  0  0  0  0  0  0  0
   10.9529    3.2544  -17.9998 H   0  0  0  0  0  0  0  0  0  0  0  0
    9.9208    5.6459  -13.7488 N   0  0  0  0  0  0  0  0  0  0  0  0
   10.2509    6.1532  -12.6277 C   0  0  0  0  0  0  0  0  0  0  0  0
    9.6621    5.7145  -11.5038 N   0  0  0  0  0  0  0  0  0  0  0  0
    9.9348    6.1784  -10.2714 C   0  0  0  0  0  0  0  0  0  0  0  0
    9.3066    5.7020   -9.1323 C   0  0  0  0  0  0  0  0  0  0  0  0
    9.6393    6.2285   -7.9025 C   0  0  0  0  0  0  0  0  0  0  0  0
   10.5816    7.2210   -7.7512 C   0  0  0  0  0  0  0  0  0  0  0  0
   11.1869    7.6719   -8.9018 C   0  0  0  0  0  0  0  0  0  0  0  0
   10.8851    7.1737  -10.1575 C   0  0  0  0  0  0  0  0  0  0  0  0
   11.4850    7.6212  -11.2997 C   0  0  0  0  0  0  0  0  0  0  0  0
   11.1783    7.1258  -12.5069 N   0  0  0  0  0  0  0  0  0  0  0  0
   11.6288    7.4607  -13.3719 H   0  0  0  0  0  0  0  0  0  0  0  0
   10.9498    7.7945   -6.4686 C   0  0  0  0  0  0  0  0  0  0  0  0
   10.8971    9.1559   -6.2677 C   0  0  0  0  0  0  0  0  0  0  0  0
   11.2434    9.7191   -5.0440 C   0  0  0  0  0  0  0  0  0  0  0  0
   11.6477    8.9291   -4.0020 C   0  0  0  0  0  0  0  0  0  0  0  0
   12.0006    9.4542   -2.7623 C   0  0  0  0  0  0  0  0  0  0  0  0
   12.4043    8.6396   -1.7242 C   0  0  0  0  0  0  0  0  0  0  0  0
   12.4662    7.2813   -1.8958 C   0  0  0  0  0  0  0  0  0  0  0  0
   12.1196    6.7558   -3.1149 C   0  0  0  0  0  0  0  0  0  0  0  0
   11.7140    7.5532   -4.1641 C   0  0  0  0  0  0  0  0  0  0  0  0
   11.3615    7.0313   -5.3965 C   0  0  0  0  0  0  0  0  0  0  0  0
  1  2  2  0
  2  3  1  0
  2  4  1  0
  4  5  1  0
  6  4  1  0
  6  7  1  0
  7  8  2  0
  8  9  1  0
  9 25  1  0
 25 26  2  0
 26 27  1  0
 27 28  2  0
 28 29  1  0
 29 30  2  0
 30 31  1  0
 31 37  1  0
 37 38  2  0
 38 39  1  0
 39 40  2  0
 40 41  1  0
 41 42  2  0
 42 43  1  0
 43 44  2  0
 44 45  1  0
 45 46  2  0
 31 32  2  0
 32 33  1  0
 33 34  2  0
 34 35  1  0
 35 36  1  0
  9 10  2  0
 10 11  1  0
 11 12  2  0
 12 13  1  0
 13 14  2  0
 14 15  1  0
 15 16  2  0
 16 17  1  0
 17 18  2  0
 18 19  1  0
 17 20  1  0
 20 21  1  0
  6 22  1  6
 22 23  1  0
 23 24  1  0
 23  1  1  0
 19  6  1  0
 12  7  1  0
 18 13  1  0
 35 26  1  0
 21 16  1  0
 33 28  1  0
 46 37  1  0
 45 40  1  0
M  CHG  1   2   1
M  END
>  <minimizedAffinity>  (222) 
-17.30506

$$$$
Mol: 199_0 - SminaDock
     RDKit          3D

 46 53  0  0  0  0  0  0  0  0999 V2000
   11.8618    6.9372  -17.0787 H   0  0  0  0  0  0  0  0  0  0  0  0
   12.3214    6.1473  -16.6535 O   0  0  0  0  0  0  0  0  0  0  0  0
   11.6035    5.1952  -15.9210 C   0  0  0  0  0  0  0  0  0  0  0  0
   10.3439    5.1283  -15.9318 N   0  0  0  0  0  0  0  0  0  0  0  0
    9.8324    4.0415  -15.0799 C   0  0  1  0  0  0  0  0  0  0  0  0
   11.1113    3.4638  -14.5467 C   0  0  0  0  0  0  0  0  0  0  0  0
   11.2253    2.4973  -13.7594 O   0  0  0  0  0  0  0  0  0  0  0  0
   12.1763    4.2014  -15.0883 N   0  0  0  0  0  0  0  0  0  0  0  0
   13.2249    4.0673  -14.9259 H   0  0  0  0  0  0  0  0  0  0  0  0
    9.0349    4.6125  -13.9806 C   0  0  0  0  0  0  0  0  0  0  0  0
    9.5342    5.7262  -13.2966 C   0  0  0  0  0  0  0  0  0  0  0  0
    8.8594    6.2731  -12.2256 C   0  0  0  0  0  0  0  0  0  0  0  0
    7.6747    5.7035  -11.8332 C   0  0  0  0  0  0  0  0  0  0  0  0
    7.1759    4.5999  -12.5096 C   0  0  0  0  0  0  0  0  0  0  0  0
    7.8423    4.0482  -13.5799 C   0  0  0  0  0  0  0  0  0  0  0  0
    7.2678    2.9244  -14.3116 C   0  0  0  0  0  0  0  0  0  0  0  0
    6.1046    2.3193  -13.8659 C   0  0  0  0  0  0  0  0  0  0  0  0
    5.5786    1.2044  -14.5246 C   0  0  0  0  0  0  0  0  0  0  0  0
    6.2332    0.7111  -15.6276 C   0  0  0  0  0  0  0  0  0  0  0  0
    7.3868    1.3174  -16.0649 C   0  0  0  0  0  0  0  0  0  0  0  0
    7.9312    2.4412  -15.4160 C   0  0  0  0  0  0  0  0  0  0  0  0
    9.1359    3.0825  -15.9645 C   0  0  0  0  0  0  0  0  0  0  0  0
    5.7077   -0.4107  -16.2916 O   0  0  0  0  0  0  0  0  0  0  0  0
    4.9378   -1.3058  -15.5037 C   0  0  1  0  0  0  0  0  0  0  0  0
    5.8279   -1.9597  -14.4724 C   0  0  0  0  0  0  0  0  0  0  0  0
    3.9415   -0.4910  -14.7606 C   0  0  0  0  0  0  0  0  0  0  0  0
    2.7016   -0.7913  -14.7595 O   0  0  0  0  0  0  0  0  0  0  0  0
    4.4168    0.6143  -14.0655 O   0  0  0  0  0  0  0  0  0  0  0  0
    9.3820    7.4169  -11.5299 N   0  0  0  0  0  0  0  0  0  0  0  0
    9.7057    7.2596  -10.2993 C   0  0  0  0  0  0  0  0  0  0  0  0
    9.5613    6.0477   -9.6647 C   0  0  0  0  0  0  0  0  0  0  0  0
    9.9452    5.9884   -8.3209 C   0  0  0  0  0  0  0  0  0  0  0  0
   10.4463    7.0877   -7.6541 C   0  0  0  0  0  0  0  0  0  0  0  0
   10.8310    7.0570   -6.3324 C   0  0  0  0  0  0  0  0  0  0  0  0
   11.3340    8.1608   -5.6616 C   0  0  0  0  0  0  0  0  0  0  0  0
   11.4460    9.3371   -6.3722 C   0  0  0  0  0  0  0  0  0  0  0  0
   11.0600    9.3866   -7.7153 C   0  0  0  0  0  0  0  0  0  0  0  0
   10.5635    8.2711   -8.3534 C   0  0  0  0  0  0  0  0  0  0  0  0
   10.2007    8.3511   -9.6455 N   0  0  0  0  0  0  0  0  0  0  0  0
   10.3057    9.2725  -10.1440 H   0  0  0  0  0  0  0  0  0  0  0  0
   11.7215    8.0517   -4.2616 C   0  0  0  0  0  0  0  0  0  0  0  0
   11.7228    6.8106   -3.6696 C   0  0  0  0  0  0  0  0  0  0  0  0
   12.0775    6.6402   -2.3517 C   0  0  0  0  0  0  0  0  0  0  0  0
   12.4444    7.7194   -1.5830 C   0  0  0  0  0  0  0  0  0  0  0  0
   12.4517    8.9829   -2.1553 C   0  0  0  0  0  0  0  0  0  0  0  0
   12.0915    9.1235   -3.4784 C   0  0  0  0  0  0  0  0  0  0  0  0
  1  2  1  0
  2  3  1  0
  3  4  2  0
  4  5  1  0
  5  6  1  0
  6  7  2  0
  6  8  1  0
  8  9  1  0
  5 10  1  0
 10 11  2  0
 11 12  1  0
 12 29  1  0
 29 30  2  0
 30 31  1  0
 31 32  2  0
 32 33  1  0
 33 34  2  0
 34 35  1  0
 35 41  1  0
 41 42  2  0
 42 43  1  0
 43 44  2  0
 44 45  1  0
 45 46  2  0
 35 36  2  0
 36 37  1  0
 37 38  2  0
 38 39  1  0
 39 40  1  0
 12 13  2  0
 13 14  1  0
 14 15  2  0
 15 16  1  0
 16 17  2  0
 17 18  1  0
 18 19  2  0
 19 20  1  0
 20 21  2  0
 21 22  1  0
 19 23  1  0
 23 24  1  0
 24 25  1  1
 24 26  1  0
 26 27  2  0
 26 28  1  0
  8  3  1  0
 15 10  1  0
 21 16  1  0
  5 22  1  6
 39 30  1  0
 28 18  1  0
 38 33  1  0
 46 41  1  0
M  END
>  <minimizedAffinity>  (223) 
-17.32490

$$$$
Mol: 192_54 - SminaDock
     RDKit          3D

 38 44  0  0  0  0  0  0  0  0999 V2000
    3.5275   -0.5672  -14.5180 C   0  0  0  0  0  0  0  0  0  0  0  0
    4.2368   -1.2928  -15.3959 N   0  0  0  0  0  0  0  0  0  0  0  0
    5.4814   -0.9486  -15.7611 C   0  0  0  0  0  0  0  0  0  0  0  0
    6.1413   -1.6366  -16.5871 O   0  0  0  0  0  0  0  0  0  0  0  0
    6.0978    0.1791  -15.2464 C   0  0  0  0  0  0  0  0  0  0  0  0
    7.3736    0.5598  -15.6003 C   0  0  0  0  0  0  0  0  0  0  0  0
    7.9911    1.6817  -15.0900 C   0  0  0  0  0  0  0  0  0  0  0  0
    7.2997    2.4460  -14.1927 C   0  0  0  0  0  0  0  0  0  0  0  0
    6.0106    2.0856  -13.8175 C   0  0  0  0  0  0  0  0  0  0  0  0
    5.2738    2.7927  -12.9388 N   0  0  0  0  0  0  0  0  0  0  0  0
    5.7906    3.8935  -12.3934 C   0  0  0  0  0  0  0  0  0  0  0  0
    5.1745    4.6145  -11.5642 O   0  0  0  0  0  0  0  0  0  0  0  0
    7.0668    4.2926  -12.7339 C   0  0  0  0  0  0  0  0  0  0  0  0
    7.6078    5.4376  -12.1674 C   0  0  0  0  0  0  0  0  0  0  0  0
    8.8772    5.8549  -12.4906 C   0  0  0  0  0  0  0  0  0  0  0  0
    9.6312    5.1342  -13.3879 C   0  0  0  0  0  0  0  0  0  0  0  0
    9.1141    3.9746  -13.9770 C   0  0  0  0  0  0  0  0  0  0  0  0
    7.8611    3.5851  -13.6414 C   0  0  0  0  0  0  0  0  0  0  0  0
    5.4031    0.9434  -14.3476 C   0  0  0  0  0  0  0  0  0  0  0  0
    4.1256    0.5562  -13.9973 C   0  0  0  0  0  0  0  0  0  0  0  0
    9.3839    7.0232  -11.8893 N   0  0  0  0  0  0  0  0  0  0  0  0
    9.6992    6.9697  -10.6313 C   0  0  0  0  0  0  0  0  0  0  0  0
    9.5507    5.8161   -9.8913 C   0  0  0  0  0  0  0  0  0  0  0  0
    9.8944    5.7921   -8.5587 C   0  0  0  0  0  0  0  0  0  0  0  0
   10.3911    6.9415   -7.9728 C   0  0  0  0  0  0  0  0  0  0  0  0
   10.7453    6.9335   -6.6202 C   0  0  0  0  0  0  0  0  0  0  0  0
   11.2425    8.0671   -6.0162 C   0  0  0  0  0  0  0  0  0  0  0  0
   11.3717    9.1933   -6.7998 C   0  0  0  0  0  0  0  0  0  0  0  0
   11.0260    9.2132   -8.1328 C   0  0  0  0  0  0  0  0  0  0  0  0
   10.5271    8.0745   -8.7377 C   0  0  0  0  0  0  0  0  0  0  0  0
   10.1823    8.0606  -10.0312 N   0  0  0  0  0  0  0  0  0  0  0  0
   10.2893    8.9248  -10.6030 H   0  0  0  0  0  0  0  0  0  0  0  0
   11.6112    8.0582   -4.6078 C   0  0  0  0  0  0  0  0  0  0  0  0
   11.6300    6.8960   -3.8853 C   0  0  0  0  0  0  0  0  0  0  0  0
   11.9763    6.8444   -2.5394 C   0  0  0  0  0  0  0  0  0  0  0  0
   12.3126    8.0255   -1.9216 C   0  0  0  0  0  0  0  0  0  0  0  0
   12.3070    9.2223   -2.6134 C   0  0  0  0  0  0  0  0  0  0  0  0
   11.9545    9.2220   -3.9540 C   0  0  0  0  0  0  0  0  0  0  0  0
  1  2  1  0
  2  3  1  0
  3  4  2  0
  3  5  1  0
  5  6  2  0
  6  7  1  0
  7  8  2  0
  8  9  1  0
  9 10  1  0
 10 11  1  0
 11 12  2  0
 11 13  1  0
 13 14  2  0
 14 15  1  0
 15 21  1  0
 21 22  2  0
 22 23  1  0
 23 24  2  0
 24 25  1  0
 25 26  2  0
 26 27  1  0
 27 33  1  0
 33 34  2  0
 34 35  1  0
 35 36  2  0
 36 37  1  0
 37 38  2  0
 27 28  2  0
 28 29  1  0
 29 30  2  0
 30 31  1  0
 31 32  1  0
 15 16  2  0
 16 17  1  0
 17 18  2  0
  9 19  2  0
 19 20  1  0
 20  1  2  0
 19  5  1  0
 18  8  1  0
 18 13  1  0
 31 22  1  0
 30 25  1  0
 38 33  1  0
M  CHG  2   2  -1  10  -1
M  END
>  <minimizedAffinity>  (224) 
-17.29895

$$$$
Mol: 135_2 - SminaDock
     RDKit          3D

 44 51  0  0  0  0  0  0  0  0999 V2000
   10.9003    5.5586  -18.0476 H   0  0  0  0  0  0  0  0  0  0  0  0
   11.3971    5.3153  -17.1795 O   0  0  0  0  0  0  0  0  0  0  0  0
   10.7446    4.4196  -16.3083 C   0  0  0  0  0  0  0  0  0  0  0  0
    9.4768    4.3437  -16.1899 N   0  0  0  0  0  0  0  0  0  0  0  0
    9.0846    3.3217  -15.2087 C   0  0  1  0  0  0  0  0  0  0  0  0
   10.4202    2.7914  -14.7564 C   0  0  0  0  0  0  0  0  0  0  0  0
   10.5843    1.8882  -13.9083 O   0  0  0  0  0  0  0  0  0  0  0  0
   11.4096    3.4998  -15.4628 N   0  0  0  0  0  0  0  0  0  0  0  0
   12.4590    3.3740  -15.3822 H   0  0  0  0  0  0  0  0  0  0  0  0
    8.4887    4.0064  -14.0526 C   0  0  0  0  0  0  0  0  0  0  0  0
    9.1482    5.1192  -13.5070 C   0  0  0  0  0  0  0  0  0  0  0  0
    8.6317    5.7521  -12.4165 C   0  0  0  0  0  0  0  0  0  0  0  0
    7.4701    5.3692  -11.7866 C   0  0  0  0  0  0  0  0  0  0  0  0
    6.8098    4.2826  -12.3063 C   0  0  0  0  0  0  0  0  0  0  0  0
    7.3419    3.6319  -13.4293 C   0  0  0  0  0  0  0  0  0  0  0  0
    6.5745    2.5075  -13.9543 C   0  0  0  0  0  0  0  0  0  0  0  0
    7.0716    1.8963  -15.0683 C   0  0  0  0  0  0  0  0  0  0  0  0
    6.1474    0.8563  -15.3116 C   0  0  0  0  0  0  0  0  0  0  0  0
    6.1243   -0.0999  -16.3051 C   0  0  0  0  0  0  0  0  0  0  0  0
    5.0967   -1.0316  -16.3374 C   0  0  0  0  0  0  0  0  0  0  0  0
    4.1301   -0.9685  -15.3702 C   0  0  0  0  0  0  0  0  0  0  0  0
    4.1257   -0.0299  -14.3697 C   0  0  0  0  0  0  0  0  0  0  0  0
    5.1662    0.8997  -14.3517 C   0  0  0  0  0  0  0  0  0  0  0  0
    5.4329    1.9097  -13.5270 N   0  0  0  0  0  0  0  0  0  0  0  0
    4.8499    2.1748  -12.7027 H   0  0  0  0  0  0  0  0  0  0  0  0
    8.2707    2.2791  -15.8216 C   0  0  0  0  0  0  0  0  0  0  0  0
    9.3560    6.8731  -11.9160 N   0  0  0  0  0  0  0  0  0  0  0  0
    9.6521    6.8737  -10.6597 C   0  0  0  0  0  0  0  0  0  0  0  0
   10.3402    7.9024  -10.1008 N   0  0  0  0  0  0  0  0  0  0  0  0
   10.6690    7.9435   -8.7994 C   0  0  0  0  0  0  0  0  0  0  0  0
   11.3700    8.9969   -8.2412 C   0  0  0  0  0  0  0  0  0  0  0  0
   11.7029    9.0298   -6.9027 C   0  0  0  0  0  0  0  0  0  0  0  0
   11.3438    7.9974   -6.0572 C   0  0  0  0  0  0  0  0  0  0  0  0
   10.6437    6.9489   -6.6222 C   0  0  0  0  0  0  0  0  0  0  0  0
   10.3090    6.9113   -7.9575 C   0  0  0  0  0  0  0  0  0  0  0  0
    9.6085    5.8619   -8.5218 C   0  0  0  0  0  0  0  0  0  0  0  0
    9.3031    5.8696   -9.8361 N   0  0  0  0  0  0  0  0  0  0  0  0
    8.7700    5.0632  -10.2478 H   0  0  0  0  0  0  0  0  0  0  0  0
   11.6946    8.0297   -4.6435 C   0  0  0  0  0  0  0  0  0  0  0  0
   11.6533    6.8406   -3.9199 C   0  0  0  0  0  0  0  0  0  0  0  0
   11.9736    6.8038   -2.5791 C   0  0  0  0  0  0  0  0  0  0  0  0
   12.3429    7.9645   -1.9365 C   0  0  0  0  0  0  0  0  0  0  0  0
   12.3983    9.1757   -2.6189 C   0  0  0  0  0  0  0  0  0  0  0  0
   12.0691    9.1580   -3.9549 C   0  0  0  0  0  0  0  0  0  0  0  0
  1  2  1  0
  2  3  1  0
  3  4  2  0
  4  5  1  0
  5  6  1  0
  6  7  2  0
  6  8  1  0
  8  9  1  0
  5 10  1  0
 10 11  2  0
 11 12  1  0
 12 27  1  0
 27 28  2  0
 28 29  1  0
 29 30  2  0
 30 31  1  0
 31 32  2  0
 32 33  1  0
 33 39  1  0
 39 40  2  0
 40 41  1  0
 41 42  2  0
 42 43  1  0
 43 44  2  0
 33 34  2  0
 34 35  1  0
 35 36  2  0
 36 37  1  0
 37 38  1  0
 12 13  2  0
 13 14  1  0
 14 15  2  0
 15 16  1  0
 16 17  2  0
 17 18  1  0
 18 19  2  0
 19 20  1  0
 20 21  2  0
 21 22  1  0
 22 23  2  0
 23 24  1  0
 24 25  1  0
 17 26  1  0
  8  3  1  0
 15 10  1  0
 24 16  1  0
  5 26  1  6
 37 28  1  0
 23 18  1  0
 35 30  1  0
 44 39  1  0
M  END
>  <minimizedAffinity>  (225) 
-17.33170

$$$$
Mol: 190_3 - SminaDock
     RDKit          3D

 46 53  0  0  0  0  0  0  0  0999 V2000
    2.3310   -0.2790  -13.9236 H   0  0  0  0  0  0  0  0  0  0  0  0
    3.1007   -0.9353  -13.9842 O   0  0  0  0  0  0  0  0  0  0  0  0
    4.2220   -0.5166  -14.7064 C   0  0  0  0  0  0  0  0  0  0  0  0
    5.0495    0.4902  -14.4866 C   0  0  0  0  0  0  0  0  0  0  0  0
    4.9114    1.3703  -13.3930 C   0  0  0  0  0  0  0  0  0  0  0  0
    5.7817    2.4129  -13.1785 C   0  0  0  0  0  0  0  0  0  0  0  0
    6.8142    2.5948  -14.0619 C   0  0  0  0  0  0  0  0  0  0  0  0
    6.9492    1.7380  -15.1272 C   0  0  0  0  0  0  0  0  0  0  0  0
    6.0532    0.6657  -15.3468 C   0  0  0  0  0  0  0  0  0  0  0  0
    6.1594   -0.1501  -16.3371 N   0  0  0  0  0  0  0  0  0  0  0  0
    4.8494   -1.2573  -16.1629 S   0  0  2  0  0  0  0  0  0  0  0  0
    3.8663   -1.1945  -17.2837 O   0  0  0  0  0  0  0  0  0  0  0  0
    5.3318   -2.6529  -15.9061 O   0  0  0  0  0  0  0  0  0  0  0  0
    7.6060    3.7596  -13.6346 C   0  0  0  0  0  0  0  0  0  0  0  0
    8.7265    4.3730  -14.1456 C   0  0  0  0  0  0  0  0  0  0  0  0
    9.3069    5.4933  -13.5461 C   0  0  0  0  0  0  0  0  0  0  0  0
    8.7229    5.9856  -12.4050 C   0  0  0  0  0  0  0  0  0  0  0  0
    7.6079    5.3940  -11.8763 C   0  0  0  0  0  0  0  0  0  0  0  0
    7.0377    4.2680  -12.4928 C   0  0  0  0  0  0  0  0  0  0  0  0
    5.8705    3.4598  -12.1422 C   0  0  0  0  0  0  0  0  0  0  0  0
    9.2814    7.1158  -11.7719 N   0  0  0  0  0  0  0  0  0  0  0  0
    9.6356    7.1069  -10.5469 C   0  0  0  0  0  0  0  0  0  0  0  0
    9.4811    5.9719   -9.7880 C   0  0  0  0  0  0  0  0  0  0  0  0
    9.8504    5.9400   -8.4830 N   0  0  0  0  0  0  0  0  0  0  0  0
   10.3737    7.0214   -7.9138 C   0  0  0  0  0  0  0  0  0  0  0  0
   10.7660    7.0237   -6.5678 C   0  0  0  0  0  0  0  0  0  0  0  0
   11.3105    8.1312   -5.9552 C   0  0  0  0  0  0  0  0  0  0  0  0
   11.4660    9.2682   -6.7127 C   0  0  0  0  0  0  0  0  0  0  0  0
   11.0798    9.2688   -8.0409 C   0  0  0  0  0  0  0  0  0  0  0  0
   10.5354    8.1651   -8.6578 C   0  0  0  0  0  0  0  0  0  0  0  0
   10.1633    8.1901   -9.9644 N   0  0  0  0  0  0  0  0  0  0  0  0
   10.3097    9.0905  -10.4852 H   0  0  0  0  0  0  0  0  0  0  0  0
   11.6964    8.0615   -4.5457 C   0  0  0  0  0  0  0  0  0  0  0  0
   12.0759    9.1713   -3.8228 C   0  0  0  0  0  0  0  0  0  0  0  0
   12.4350    9.0811   -2.4943 C   0  0  0  0  0  0  0  0  0  0  0  0
   12.4300    7.8729   -1.8292 C   0  0  0  0  0  0  0  0  0  0  0  0
   12.0489    6.7638   -2.5582 C   0  0  0  0  0  0  0  0  0  0  0  0
   11.6866    6.8469   -3.8938 C   0  0  0  0  0  0  0  0  0  0  0  0
    7.1608   -0.1744  -17.4094 C   0  0  1  0  0  0  0  0  0  0  0  0
    7.0705   -1.4970  -18.0930 C   0  0  0  0  0  0  0  0  0  0  0  0
    6.6846   -1.2800  -19.5253 C   0  0  0  0  0  0  0  0  0  0  0  0
    7.6674   -0.4337  -20.1501 N   0  0  2  0  0  0  0  0  0  0  0  0
    7.4727   -0.4045  -21.1959 H   0  0  0  0  0  0  0  0  0  0  0  0
    9.0103   -0.9640  -20.0086 C   0  0  0  0  0  0  0  0  0  0  0  0
    7.6703    0.9114  -19.6034 C   0  0  0  0  0  0  0  0  0  0  0  0
    6.8486    0.9855  -18.3297 C   0  0  0  0  0  0  0  0  0  0  0  0
  1  2  1  0
  2  3  1  0
  3  4  2  0
  4  5  1  0
  5  6  2  0
  6  7  1  0
  7  8  2  0
  8  9  1  0
  9 10  2  0
 39 10  1  1
 39 40  1  0
 40 41  1  0
 41 42  1  0
 42 43  1  6
 42 44  1  0
 42 45  1  0
 45 46  1  0
 10 11  1  0
 11 12  2  0
 11 13  2  0
  7 14  1  0
 14 15  2  0
 15 16  1  0
 16 17  2  0
 17 21  1  0
 21 22  2  0
 22 23  1  0
 23 24  2  0
 24 25  1  0
 25 26  2  0
 26 27  1  0
 27 33  1  0
 33 34  2  0
 34 35  1  0
 35 36  2  0
 36 37  1  0
 37 38  2  0
 27 28  2  0
 28 29  1  0
 29 30  2  0
 30 31  1  0
 31 32  1  0
 17 18  1  0
 18 19  2  0
 19 20  1  0
 11  3  1  1
 19 14  1  0
  9  4  1  0
 46 39  1  0
 31 22  1  0
 20  6  1  0
 30 25  1  0
 38 33  1  0
M  CHG  2  10   1  42   1
M  END
>  <minimizedAffinity>  (226) 
-17.31238

$$$$
Mol: 190_19 - SminaDock
     RDKit          3D

 39 45  0  0  0  0  0  0  0  0999 V2000
    8.8580    5.8751  -12.2962 C   0  0  0  0  0  0  0  0  0  0  0  0
    9.6737    5.1875  -13.1753 C   0  0  0  0  0  0  0  0  0  0  0  0
    9.2105    4.0420  -13.8253 C   0  0  0  0  0  0  0  0  0  0  0  0
    7.9367    3.5874  -13.5962 C   0  0  0  0  0  0  0  0  0  0  0  0
    7.1123    4.2578  -12.7283 C   0  0  0  0  0  0  0  0  0  0  0  0
    7.5658    5.3754  -12.0936 C   0  0  0  0  0  0  0  0  0  0  0  0
    5.7489    3.7778  -12.5474 C   0  0  0  0  0  0  0  0  0  0  0  0
    5.3674    2.4555  -12.9598 C   0  0  0  0  0  0  0  0  0  0  0  0
    6.2095    1.7914  -14.0175 C   0  0  0  0  0  0  0  0  0  0  0  0
    7.4444    2.3531  -14.2281 C   0  0  0  0  0  0  0  0  0  0  0  0
    8.2258    1.3510  -15.4365 S   0  0  0  0  0  0  0  0  0  0  0  0
    6.8370    0.1987  -15.6175 C   0  0  0  0  0  0  0  0  0  0  0  0
    6.7266   -0.8853  -16.4233 N   0  0  0  0  0  0  0  0  0  0  0  0
    5.5686   -1.5968  -16.3770 C   0  0  0  0  0  0  0  0  0  0  0  0
    5.4462   -2.7289  -17.2148 N   0  0  0  0  0  0  0  0  0  0  0  0
    5.6076   -3.6933  -16.8448 H   0  0  0  0  0  0  0  0  0  0  0  0
    5.1935   -2.6494  -18.2215 H   0  0  0  0  0  0  0  0  0  0  0  0
    4.6541   -1.1612  -15.5450 N   0  0  0  0  0  0  0  0  0  0  0  0
    4.7284   -0.0910  -14.7313 C   0  0  0  0  0  0  0  0  0  0  0  0
    3.5708    0.2091  -13.8729 C   0  0  0  0  0  0  0  0  0  0  0  0
    5.9232    0.6745  -14.7545 C   0  0  0  0  0  0  0  0  0  0  0  0
   11.2631    8.0848   -5.8147 C   0  0  0  0  0  0  0  0  0  0  0  0
   11.2912    9.2527   -6.5565 C   0  0  0  0  0  0  0  0  0  0  0  0
   10.9050    9.2821   -7.8801 C   0  0  0  0  0  0  0  0  0  0  0  0
   10.4776    8.1061   -8.4790 C   0  0  0  0  0  0  0  0  0  0  0  0
   10.4306    6.9105   -7.7816 C   0  0  0  0  0  0  0  0  0  0  0  0
   10.8304    6.9446   -6.4577 C   0  0  0  0  0  0  0  0  0  0  0  0
   10.0025    5.7565   -8.3957 C   0  0  0  0  0  0  0  0  0  0  0  0
    9.6173    5.7964   -9.7197 C   0  0  0  0  0  0  0  0  0  0  0  0
    9.6689    6.9903  -10.4004 C   0  0  0  0  0  0  0  0  0  0  0  0
    9.3117    7.0430  -11.6244 N   0  0  0  0  0  0  0  0  0  0  0  0
   10.0882    8.0969   -9.7818 N   0  0  0  0  0  0  0  0  0  0  0  0
   10.1266    9.0009  -10.3002 H   0  0  0  0  0  0  0  0  0  0  0  0
   12.4619    8.0060   -1.7285 C   0  0  0  0  0  0  0  0  0  0  0  0
   12.1086    6.8494   -2.3929 C   0  0  0  0  0  0  0  0  0  0  0  0
   11.7157    6.8876   -3.7369 C   0  0  0  0  0  0  0  0  0  0  0  0
   11.6755    8.0838   -4.4190 C   0  0  0  0  0  0  0  0  0  0  0  0
   12.0273    9.2294   -3.7555 C   0  0  0  0  0  0  0  0  0  0  0  0
   12.4204    9.2013   -2.4152 C   0  0  0  0  0  0  0  0  0  0  0  0
 34 35  2  0
 35 36  1  0
 36 37  2  0
 37 22  1  0
 22 23  2  0
 23 24  1  0
 24 25  2  0
 25 26  1  0
 26 27  2  0
 26 28  1  0
 28 29  2  0
 29 30  1  0
 30 31  2  0
 31  1  1  0
  1  2  2  0
  2  3  1  0
  3  4  2  0
  4  5  1  0
  5  6  2  0
  5  7  1  0
  7  8  1  0
  8  9  1  0
  9 10  2  0
 10 11  1  0
 11 12  1  0
 12 13  2  0
 13 14  1  0
 14 15  1  0
 15 16  1  0
 15 17  1  0
 14 18  2  0
 18 19  1  0
 19 20  1  0
 19 21  2  0
 30 32  1  0
 32 33  1  0
 37 38  1  0
 38 39  2  0
 39 34  1  0
 27 22  1  0
  6  1  1  0
 21  9  1  0
 32 25  1  0
 10  4  1  0
 21 12  1  0
M  END
>  <minimizedAffinity>  (227) 
-17.28761

$$$$
Mol: 181_16 - SminaDock
     RDKit          3D

 47 54  0  0  0  0  0  0  0  0999 V2000
    8.4290    5.7766  -12.2824 C   0  0  0  0  0  0  0  0  0  0  0  0
    7.1797    5.5553  -11.7411 C   0  0  0  0  0  0  0  0  0  0  0  0
    6.3969    4.5130  -12.1858 C   0  0  0  0  0  0  0  0  0  0  0  0
    6.8928    3.6791  -13.2002 C   0  0  0  0  0  0  0  0  0  0  0  0
    8.1192    3.8713  -13.7516 C   0  0  0  0  0  0  0  0  0  0  0  0
    8.8905    4.9423  -13.2763 C   0  0  0  0  0  0  0  0  0  0  0  0
    8.7543    3.0393  -14.8079 C   0  0  1  0  0  0  0  0  0  0  0  0
    7.8273    1.9900  -15.2983 C   0  0  0  0  0  0  0  0  0  0  0  0
    6.5676    1.7625  -14.7605 C   0  0  0  0  0  0  0  0  0  0  0  0
    5.9485    0.7035  -15.4192 C   0  0  0  0  0  0  0  0  0  0  0  0
    4.7264    0.0824  -15.2860 C   0  0  0  0  0  0  0  0  0  0  0  0
    4.3915   -0.9772  -16.1180 C   0  0  0  0  0  0  0  0  0  0  0  0
    5.2822   -1.4229  -17.0926 C   0  0  0  0  0  0  0  0  0  0  0  0
    6.4868   -0.7637  -17.1782 C   0  0  0  0  0  0  0  0  0  0  0  0
    6.8533    0.2928  -16.3681 C   0  0  0  0  0  0  0  0  0  0  0  0
    7.9579    1.0714  -16.2759 N   0  0  0  0  0  0  0  0  0  0  0  0
    8.7629    0.9194  -16.9238 H   0  0  0  0  0  0  0  0  0  0  0  0
    6.0738    2.5975  -13.7027 C   0  0  0  0  0  0  0  0  0  0  0  0
    4.9339    2.3822  -13.2216 O   0  0  0  0  0  0  0  0  0  0  0  0
    9.1567    3.8626  -16.0006 C   0  0  0  0  0  0  0  0  0  0  0  0
   10.6239    3.8621  -16.2760 C   0  0  0  0  0  0  0  0  0  0  0  0
   11.2114    2.4760  -16.3104 C   0  0  0  0  0  0  0  0  0  0  0  0
   10.8636    1.6573  -15.1106 C   0  0  0  0  0  0  0  0  0  0  0  0
   10.0047    2.4670  -14.1822 C   0  0  0  0  0  0  0  0  0  0  0  0
   11.3581    8.0318   -6.0438 C   0  0  0  0  0  0  0  0  0  0  0  0
   11.7188    9.0629   -6.8832 C   0  0  0  0  0  0  0  0  0  0  0  0
   11.3524    9.0379   -8.2124 C   0  0  0  0  0  0  0  0  0  0  0  0
   10.6154    7.9863   -8.7485 C   0  0  0  0  0  0  0  0  0  0  0  0
   10.2525    7.9486  -10.0381 N   0  0  0  0  0  0  0  0  0  0  0  0
    9.5462    6.9319  -10.5327 C   0  0  0  0  0  0  0  0  0  0  0  0
    9.1804    6.8681  -11.7772 N   0  0  0  0  0  0  0  0  0  0  0  0
    9.1903    5.9245   -9.7257 N   0  0  0  0  0  0  0  0  0  0  0  0
    8.6320    5.0989  -10.0699 H   0  0  0  0  0  0  0  0  0  0  0  0
    9.5347    5.9250   -8.4274 C   0  0  0  0  0  0  0  0  0  0  0  0
   10.2703    6.9686   -7.8793 C   0  0  0  0  0  0  0  0  0  0  0  0
   10.6281    6.9781   -6.5493 C   0  0  0  0  0  0  0  0  0  0  0  0
   12.4096    7.9362   -1.8953 C   0  0  0  0  0  0  0  0  0  0  0  0
   11.9998    6.7895   -2.5636 C   0  0  0  0  0  0  0  0  0  0  0  0
   11.6635    6.8339   -3.9007 C   0  0  0  0  0  0  0  0  0  0  0  0
   11.7177    8.0040   -4.6278 C   0  0  0  0  0  0  0  0  0  0  0  0
   12.1238    9.1442   -3.9689 C   0  0  0  0  0  0  0  0  0  0  0  0
   12.4619    9.1042   -2.6279 C   0  0  0  0  0  0  0  0  0  0  0  0
    4.9333   -2.5385  -17.9709 C   0  0  0  0  0  0  0  0  0  0  0  0
    5.8237   -3.3645  -18.2806 O   0  0  0  0  0  0  0  0  0  0  0  0
    3.6402   -2.7321  -18.4886 N   0  0  0  0  0  0  0  0  0  0  0  0
    3.0008   -3.4095  -18.0599 H   0  0  0  0  0  0  0  0  0  0  0  0
    3.3363   -2.1836  -19.3095 H   0  0  0  0  0  0  0  0  0  0  0  0
 37 38  2  0
 38 39  1  0
 39 40  2  0
 40 25  1  0
 25 26  1  0
 26 27  2  0
 27 28  1  0
 28 29  2  0
 29 30  1  0
 30 31  2  0
 31  1  1  0
  1  2  2  0
  2  3  1  0
  3  4  2  0
  4  5  1  0
  5  6  2  0
  5  7  1  0
  7  8  1  0
  8  9  2  0
  9 10  1  0
 10 11  2  0
 11 12  1  0
 12 13  2  0
 13 43  1  0
 43 44  2  0
 43 45  1  0
 45 46  1  0
 45 47  1  0
 13 14  1  0
 14 15  2  0
 15 16  1  0
 16 17  1  0
  9 18  1  0
 18 19  2  0
  7 20  1  6
 20 21  1  0
 21 22  1  0
 22 23  1  0
 23 24  1  0
 30 32  1  0
 32 33  1  0
 32 34  1  0
 34 35  2  0
 35 36  1  0
 40 41  1  0
 41 42  2  0
 42 37  1  0
 36 25  2  0
 35 28  1  0
  6  1  1  0
 24  7  1  0
 18  4  1  0
 16  8  1  0
 15 10  1  0
M  END
>  <minimizedAffinity>  (228) 
-17.33827

$$$$
Mol: 181_0 - SminaDock
     RDKit          3D

 43 50  0  0  0  0  0  0  0  0999 V2000
    8.3612    0.2096  -18.3147 O   0  0  0  0  0  0  0  0  0  0  0  0
    7.3776    0.1000  -17.5440 C   0  0  0  0  0  0  0  0  0  0  0  0
    6.0814    0.8529  -17.6377 C   0  0  0  0  0  0  0  0  0  0  0  0
    5.2062   -0.0458  -17.0335 O   0  0  0  0  0  0  0  0  0  0  0  0
    5.8963   -0.3989  -15.8663 C   0  0  2  0  0  0  0  0  0  0  0  0
    7.2004   -0.7364  -16.3952 N   0  0  0  0  0  0  0  0  0  0  0  0
    5.2595   -1.5438  -15.1839 C   0  0  0  0  0  0  0  0  0  0  0  0
    5.7064   -2.7097  -15.2696 O   0  0  0  0  0  0  0  0  0  0  0  0
    4.1200   -1.2719  -14.4265 O   0  0  0  0  0  0  0  0  0  0  0  0
    3.7010    0.0570  -14.1954 C   0  0  0  0  0  0  0  0  0  0  0  0
    4.8765    0.9908  -14.1001 C   0  0  0  0  0  0  0  0  0  0  0  0
    4.8589    2.0475  -13.2178 C   0  0  0  0  0  0  0  0  0  0  0  0
    5.9475    2.8920  -13.1433 C   0  0  0  0  0  0  0  0  0  0  0  0
    7.0668    2.6894  -13.9485 C   0  0  0  0  0  0  0  0  0  0  0  0
    7.0267    1.6100  -14.8156 C   0  0  0  0  0  0  0  0  0  0  0  0
    5.9619    0.7455  -14.9231 C   0  0  0  0  0  0  0  0  0  0  0  0
    8.0489    3.7307  -13.6733 C   0  0  0  0  0  0  0  0  0  0  0  0
    9.2928    3.9499  -14.2213 C   0  0  0  0  0  0  0  0  0  0  0  0
   10.0301    5.0323  -13.7874 C   0  0  0  0  0  0  0  0  0  0  0  0
    9.5588    5.8919  -12.8295 C   0  0  0  0  0  0  0  0  0  0  0  0
    8.3168    5.6621  -12.2888 C   0  0  0  0  0  0  0  0  0  0  0  0
    7.5698    4.5912  -12.7076 C   0  0  0  0  0  0  0  0  0  0  0  0
    6.2308    4.0799  -12.3500 C   0  0  0  0  0  0  0  0  0  0  0  0
    5.4626    4.5791  -11.5074 O   0  0  0  0  0  0  0  0  0  0  0  0
    7.9153   -1.4285  -16.0669 H   0  0  0  0  0  0  0  0  0  0  0  0
   10.3553    7.0094  -12.4319 N   0  0  0  0  0  0  0  0  0  0  0  0
   10.6756    7.6562  -13.1942 H   0  0  0  0  0  0  0  0  0  0  0  0
   10.7086    7.2457  -11.0690 C   0  0  0  0  0  0  0  0  0  0  0  0
   11.8767    7.8920  -10.7992 N   0  0  0  0  0  0  0  0  0  0  0  0
   12.2861    8.1394   -9.5332 C   0  0  0  0  0  0  0  0  0  0  0  0
   11.5246    7.7401   -8.4606 C   0  0  0  0  0  0  0  0  0  0  0  0
   11.9046    7.9645   -7.1510 C   0  0  0  0  0  0  0  0  0  0  0  0
   11.1516    7.5615   -6.0704 C   0  0  0  0  0  0  0  0  0  0  0  0
    9.9680    6.9062   -6.3342 C   0  0  0  0  0  0  0  0  0  0  0  0
    9.5821    6.6790   -7.6607 C   0  0  0  0  0  0  0  0  0  0  0  0
   10.3382    7.0838   -8.7335 C   0  0  0  0  0  0  0  0  0  0  0  0
    9.9744    6.8614  -10.0174 N   0  0  0  0  0  0  0  0  0  0  0  0
   11.5957    7.8198   -4.6888 C   0  0  0  0  0  0  0  0  0  0  0  0
   11.9480    9.0688   -4.2423 C   0  0  0  0  0  0  0  0  0  0  0  0
   12.3557    9.2379   -2.9366 C   0  0  0  0  0  0  0  0  0  0  0  0
   12.4321    8.1819   -2.0212 C   0  0  0  0  0  0  0  0  0  0  0  0
   12.0730    6.9330   -2.4908 C   0  0  0  0  0  0  0  0  0  0  0  0
   11.6691    6.7690   -3.7854 C   0  0  0  0  0  0  0  0  0  0  0  0
  1  2  2  0
  2  3  1  0
  3  4  1  0
  5  4  1  6
  5  6  1  0
  5  7  1  0
  7  8  2  0
  7  9  1  0
  9 10  1  0
 10 11  1  0
 11 12  2  0
 12 13  1  0
 13 14  2  0
 14 15  1  0
 15 16  2  0
 14 17  1  0
 17 18  2  0
 18 19  1  0
 19 20  2  0
 20 26  1  0
 26 28  1  0
 28 29  2  0
 29 30  1  0
 30 31  2  0
 31 32  1  0
 32 33  2  0
 33 38  1  0
 38 39  2  0
 39 40  1  0
 40 41  2  0
 41 42  1  0
 42 43  2  0
 33 34  1  0
 34 35  2  0
 35 36  1  0
 36 37  2  0
 20 21  1  0
 21 22  2  0
 22 23  1  0
 23 24  2  0
  6  2  1  0
 16 11  1  0
 22 17  1  0
 16  5  1  0
 37 28  1  0
 23 13  1  0
 36 31  1  0
 43 38  1  0
  6 25  1  0
 26 27  1  0
M  END
>  <minimizedAffinity>  (229) 
-17.29789

$$$$
Mol: 132_52 - SminaDock
     RDKit          3D

 39 46  0  0  0  0  0  0  0  0999 V2000
    8.3797    5.6334  -12.2259 C   0  0  0  0  0  0  0  0  0  0  0  0
    7.0481    5.4647  -11.9286 C   0  0  0  0  0  0  0  0  0  0  0  0
    6.3724    4.3622  -12.3835 C   0  0  0  0  0  0  0  0  0  0  0  0
    7.0247    3.4084  -13.1466 C   0  0  0  0  0  0  0  0  0  0  0  0
    8.3498    3.5553  -13.4550 C   0  0  0  0  0  0  0  0  0  0  0  0
    9.0154    4.6641  -12.9933 C   0  0  0  0  0  0  0  0  0  0  0  0
    8.9754    2.5729  -14.2272 C   0  0  0  0  0  0  0  0  0  0  0  0
   10.2919    2.7380  -14.5222 C   0  0  0  0  0  0  0  0  0  0  0  0
   10.9818    1.8064  -15.2833 C   0  0  0  0  0  0  0  0  0  0  0  0
   10.2936    0.7113  -15.7302 C   0  0  0  0  0  0  0  0  0  0  0  0
    8.9357    0.5499  -15.4205 C   0  0  0  0  0  0  0  0  0  0  0  0
    8.2512    1.4651  -14.6708 C   0  0  0  0  0  0  0  0  0  0  0  0
    6.9568    1.3681  -14.3418 N   0  0  0  0  0  0  0  0  0  0  0  0
    6.3382    2.3058  -13.5984 C   0  0  0  0  0  0  0  0  0  0  0  0
    5.0479    2.0032  -13.3931 N   0  0  0  0  0  0  0  0  0  0  0  0
    4.8373    0.8474  -14.0187 C   0  0  0  0  0  0  0  0  0  0  0  0
    3.6875    0.0686  -14.1393 C   0  0  0  0  0  0  0  0  0  0  0  0
    3.6985   -1.1132  -14.8468 C   0  0  0  0  0  0  0  0  0  0  0  0
    4.8852   -1.4966  -15.4298 C   0  0  0  0  0  0  0  0  0  0  0  0
    6.0565   -0.7399  -15.3288 C   0  0  0  0  0  0  0  0  0  0  0  0
    6.0254    0.4259  -14.6249 C   0  0  0  0  0  0  0  0  0  0  0  0
   11.3132    7.9850   -6.0240 C   0  0  0  0  0  0  0  0  0  0  0  0
   11.6363    9.0036   -6.8981 C   0  0  0  0  0  0  0  0  0  0  0  0
   11.2642    8.9713   -8.2301 C   0  0  0  0  0  0  0  0  0  0  0  0
   10.5492    7.9101   -8.7421 C   0  0  0  0  0  0  0  0  0  0  0  0
   10.2158    6.8737   -7.8705 C   0  0  0  0  0  0  0  0  0  0  0  0
    9.5037    5.8374   -8.4222 C   0  0  0  0  0  0  0  0  0  0  0  0
    9.1526    5.8254   -9.7171 N   0  0  0  0  0  0  0  0  0  0  0  0
    9.4785    6.8268  -10.5450 C   0  0  0  0  0  0  0  0  0  0  0  0
    9.1172    6.7639  -11.7730 N   0  0  0  0  0  0  0  0  0  0  0  0
   10.1802    7.8687  -10.0442 N   0  0  0  0  0  0  0  0  0  0  0  0
   10.4281    8.6461  -10.7058 H   0  0  0  0  0  0  0  0  0  0  0  0
   10.5928    6.9184   -6.5452 C   0  0  0  0  0  0  0  0  0  0  0  0
   12.4350    8.0071   -1.9322 C   0  0  0  0  0  0  0  0  0  0  0  0
   12.4240    9.1848   -2.6271 C   0  0  0  0  0  0  0  0  0  0  0  0
   12.0588    9.1621   -3.9505 C   0  0  0  0  0  0  0  0  0  0  0  0
   11.7012    8.0114   -4.6187 C   0  0  0  0  0  0  0  0  0  0  0  0
   11.7234    6.8403   -3.8857 C   0  0  0  0  0  0  0  0  0  0  0  0
   12.0894    6.8281   -2.5402 C   0  0  0  0  0  0  0  0  0  0  0  0
 34 35  2  0
 35 36  1  0
 36 37  2  0
 37 22  1  0
 22 23  2  0
 23 24  1  0
 24 25  2  0
 25 26  1  0
 26 27  1  0
 27 28  2  0
 28 29  1  0
 29 30  2  0
 30  1  1  0
  1  2  2  0
  2  3  1  0
  3  4  2  0
  4  5  1  0
  5  6  2  0
  5  7  1  0
  7  8  2  0
  8  9  1  0
  9 10  2  0
 10 11  1  0
 11 12  2  0
 12 13  1  0
 13 14  1  0
 14 15  2  0
 15 16  1  0
 16 17  2  0
 17 18  1  0
 18 19  2  0
 19 20  1  0
 20 21  2  0
 29 31  1  0
 31 32  1  0
 26 33  2  0
 37 38  1  0
 38 39  2  0
 39 34  1  0
 33 22  1  0
 31 25  1  0
  6  1  1  0
 12  7  1  0
 21 13  1  0
 14  4  1  0
 21 16  1  0
M  END
>  <minimizedAffinity>  (230) 
-17.34737

$$$$
Mol: 132_50 - SminaDock
     RDKit          3D

 42 49  0  0  0  0  0  0  0  0999 V2000
    7.8377    4.6158  -12.6864 C   0  0  0  0  0  0  0  0  0  0  0  0
    6.5318    4.3002  -12.4093 C   0  0  0  0  0  0  0  0  0  0  0  0
    5.9056    3.2308  -13.0651 C   0  0  0  0  0  0  0  0  0  0  0  0
    6.6275    2.5173  -13.9795 C   0  0  0  0  0  0  0  0  0  0  0  0
    7.9528    2.8153  -14.2841 C   0  0  0  0  0  0  0  0  0  0  0  0
    8.5458    3.8574  -13.6370 C   0  0  0  0  0  0  0  0  0  0  0  0
    8.8003    2.1396  -15.3088 C   0  0  2  0  0  0  0  0  0  0  0  0
    8.0952    2.1775  -16.6602 C   0  0  0  0  0  0  0  0  0  0  0  0
    7.0345    1.2202  -16.7847 N   0  0  0  0  0  0  0  0  0  0  0  0
    6.8365    0.3911  -17.9072 C   0  0  0  0  0  0  0  0  0  0  0  0
    7.5054    0.3036  -18.9658 O   0  0  0  0  0  0  0  0  0  0  0  0
    5.6220   -0.4351  -17.6394 C   0  0  0  0  0  0  0  0  0  0  0  0
    5.2068   -0.0685  -16.2747 C   0  0  0  0  0  0  0  0  0  0  0  0
    4.1987   -0.5277  -15.4528 C   0  0  0  0  0  0  0  0  0  0  0  0
    4.0189   -0.0024  -14.1816 C   0  0  0  0  0  0  0  0  0  0  0  0
    4.8572    1.0110  -13.6981 C   0  0  0  0  0  0  0  0  0  0  0  0
    5.8368    1.4355  -14.5447 C   0  0  0  0  0  0  0  0  0  0  0  0
    6.0304    0.9136  -15.8237 C   0  0  0  0  0  0  0  0  0  0  0  0
    8.9980    0.7171  -14.8660 C   0  0  0  0  0  0  0  0  0  0  0  0
   10.1386    0.0253  -15.5682 C   0  0  0  0  0  0  0  0  0  0  0  0
   10.5925    0.7094  -16.7451 N   0  0  0  0  0  0  0  0  0  0  0  0
   11.4480    0.2139  -17.0822 H   0  0  0  0  0  0  0  0  0  0  0  0
   10.9088    2.0782  -16.5546 C   0  0  0  0  0  0  0  0  0  0  0  0
   10.1565    2.7666  -15.4405 C   0  0  0  0  0  0  0  0  0  0  0  0
   11.0693    7.6541   -6.7984 C   0  0  0  0  0  0  0  0  0  0  0  0
   11.1845    8.5934   -7.8010 C   0  0  0  0  0  0  0  0  0  0  0  0
   10.7009    8.3941   -9.0702 C   0  0  0  0  0  0  0  0  0  0  0  0
   10.0559    7.1888   -9.3888 C   0  0  0  0  0  0  0  0  0  0  0  0
    9.9421    6.2513   -8.3853 C   0  0  0  0  0  0  0  0  0  0  0  0
    9.3093    5.0794   -8.7055 C   0  0  0  0  0  0  0  0  0  0  0  0
    8.8337    4.8784   -9.9360 N   0  0  0  0  0  0  0  0  0  0  0  0
    8.9542    5.8025  -10.8966 C   0  0  0  0  0  0  0  0  0  0  0  0
    8.5108    5.6582  -12.0810 N   0  0  0  0  0  0  0  0  0  0  0  0
    9.5771    6.9819  -10.6209 N   0  0  0  0  0  0  0  0  0  0  0  0
    9.6940    7.7313  -11.3400 H   0  0  0  0  0  0  0  0  0  0  0  0
   10.4381    6.4668   -7.0996 C   0  0  0  0  0  0  0  0  0  0  0  0
   12.5523    8.2506   -2.8220 C   0  0  0  0  0  0  0  0  0  0  0  0
   12.7651    9.1871   -3.8112 C   0  0  0  0  0  0  0  0  0  0  0  0
   12.2894    9.0034   -5.1061 C   0  0  0  0  0  0  0  0  0  0  0  0
   11.5842    7.8706   -5.4461 C   0  0  0  0  0  0  0  0  0  0  0  0
   11.3769    6.9338   -4.4384 C   0  0  0  0  0  0  0  0  0  0  0  0
   11.8470    7.1146   -3.1567 C   0  0  0  0  0  0  0  0  0  0  0  0
 37 38  2  0
 38 39  1  0
 39 40  2  0
 40 25  1  0
 25 26  2  0
 26 27  1  0
 27 28  2  0
 28 29  1  0
 29 30  1  0
 30 31  2  0
 31 32  1  0
 32 33  2  0
 33  1  1  0
  1  2  2  0
  2  3  1  0
  3  4  2  0
  4  5  1  0
  5  6  2  0
  5  7  1  0
  7  8  1  6
  8  9  1  0
  9 10  1  0
 10 11  2  0
 10 12  1  0
 12 13  1  0
 13 14  1  0
 14 15  2  0
 15 16  1  0
 16 17  2  0
 17 18  1  0
  7 19  1  0
 19 20  1  0
 20 21  1  0
 21 22  1  0
 21 23  1  0
 23 24  1  0
 32 34  1  0
 34 35  1  0
 29 36  2  0
 40 41  1  0
 41 42  2  0
 42 37  1  0
 36 25  1  0
 34 28  1  0
  6  1  1  0
 24  7  1  0
 17  4  1  0
 18  9  1  0
 18 13  2  0
M  END
>  <minimizedAffinity>  (231) 
-17.34809

$$$$
Mol: 125_46 - SminaDock
     RDKit          3D

 41 48  0  0  0  0  0  0  0  0999 V2000
    3.4515   -2.0447  -15.6139 H   0  0  0  0  0  0  0  0  0  0  0  0
    3.9643   -1.2395  -15.2636 O   0  0  0  0  0  0  0  0  0  0  0  0
    5.1350   -0.8100  -15.8402 C   0  0  0  0  0  0  0  0  0  0  0  0
    5.6585   -1.4071  -16.8398 N   0  0  0  0  0  0  0  0  0  0  0  0
    6.8429   -1.0699  -17.5157 C   0  0  0  0  0  0  0  0  0  0  0  0
    7.5673    0.0996  -16.9701 C   0  0  1  0  0  0  0  0  0  0  0  0
    6.9501    0.8021  -15.8401 C   0  0  0  0  0  0  0  0  0  0  0  0
    7.5386    1.9499  -15.2799 C   0  0  0  0  0  0  0  0  0  0  0  0
    6.9564    2.5978  -14.2099 C   0  0  0  0  0  0  0  0  0  0  0  0
    5.7878    2.1728  -13.6334 C   0  0  0  0  0  0  0  0  0  0  0  0
    5.2003    1.0345  -14.1863 C   0  0  0  0  0  0  0  0  0  0  0  0
    5.7879    0.3860  -15.2619 C   0  0  0  0  0  0  0  0  0  0  0  0
    5.1072    2.8083  -12.4904 C   0  0  0  0  0  0  0  0  0  0  0  0
    5.7355    4.0076  -11.9303 C   0  0  0  0  0  0  0  0  0  0  0  0
    6.9831    4.4417  -12.5586 C   0  0  0  0  0  0  0  0  0  0  0  0
    7.6165    5.5818  -12.0431 C   0  0  0  0  0  0  0  0  0  0  0  0
    8.7833    6.0851  -12.5446 C   0  0  0  0  0  0  0  0  0  0  0  0
    9.3391    5.4124  -13.6126 C   0  0  0  0  0  0  0  0  0  0  0  0
    8.7398    4.2887  -14.1411 C   0  0  0  0  0  0  0  0  0  0  0  0
    7.5687    3.8016  -13.6213 C   0  0  0  0  0  0  0  0  0  0  0  0
    9.0463   -0.1922  -16.7473 C   0  0  0  0  0  0  0  0  0  0  0  0
    9.3655    0.9991  -17.3404 O   0  0  0  0  0  0  0  0  0  0  0  0
    8.1790    1.0080  -18.0215 C   0  0  0  0  0  0  0  0  0  0  0  0
    9.3898    7.2405  -11.9935 N   0  0  0  0  0  0  0  0  0  0  0  0
    9.7154    7.2132  -10.7337 C   0  0  0  0  0  0  0  0  0  0  0  0
   10.3020    8.3041  -10.1613 N   0  0  0  0  0  0  0  0  0  0  0  0
   10.6109    8.2046   -8.8572 C   0  0  0  0  0  0  0  0  0  0  0  0
   11.2162    9.2868   -8.2034 C   0  0  0  0  0  0  0  0  0  0  0  0
   11.5332    9.1870   -6.8698 C   0  0  0  0  0  0  0  0  0  0  0  0
   11.2849    8.0578   -6.1194 C   0  0  0  0  0  0  0  0  0  0  0  0
   10.6975    7.0045   -6.7491 C   0  0  0  0  0  0  0  0  0  0  0  0
   10.3630    7.0717   -8.0997 C   0  0  0  0  0  0  0  0  0  0  0  0
    9.7665    5.9941   -8.7289 C   0  0  0  0  0  0  0  0  0  0  0  0
    9.4657    6.1056  -10.0206 N   0  0  0  0  0  0  0  0  0  0  0  0
    9.0091    5.2690  -10.4846 H   0  0  0  0  0  0  0  0  0  0  0  0
   11.6342    7.9810   -4.7019 C   0  0  0  0  0  0  0  0  0  0  0  0
   11.5941    6.8066   -3.9803 C   0  0  0  0  0  0  0  0  0  0  0  0
   11.9296    6.7572   -2.6401 C   0  0  0  0  0  0  0  0  0  0  0  0
   12.3216    7.8960   -1.9681 C   0  0  0  0  0  0  0  0  0  0  0  0
   12.3630    9.0725   -2.6866 C   0  0  0  0  0  0  0  0  0  0  0  0
   12.0281    9.1247   -4.0264 C   0  0  0  0  0  0  0  0  0  0  0  0
  1  2  1  0
  2  3  1  0
  3  4  2  0
  4  5  1  0
  6  5  1  6
  6  7  1  0
  7  8  2  0
  8  9  1  0
  9 10  2  0
 10 11  1  0
 11 12  2  0
 10 13  1  0
 13 14  1  0
 14 15  1  0
 15 16  2  0
 16 17  1  0
 17 24  1  0
 24 25  2  0
 25 26  1  0
 26 27  2  0
 27 28  1  0
 28 29  2  0
 29 30  1  0
 30 36  1  0
 36 37  2  0
 37 38  1  0
 38 39  2  0
 39 40  1  0
 40 41  2  0
 30 31  2  0
 31 32  1  0
 32 33  2  0
 33 34  1  0
 34 35  1  0
 17 18  2  0
 18 19  1  0
 19 20  2  0
  6 21  1  0
 21 22  1  0
 22 23  1  0
 12  3  1  0
 20 15  1  0
 23  6  1  0
 12  7  1  0
 34 25  1  0
 20  9  1  0
 32 27  1  0
 41 36  1  0
M  END
>  <minimizedAffinity>  (232) 
-17.28168

$$$$
Mol: 185_38 - SminaDock
     RDKit          3D

 44 51  0  0  0  0  0  0  0  0999 V2000
    6.6504   -3.2445  -17.2768 H   0  0  0  0  0  0  0  0  0  0  0  0
    5.7011   -3.0991  -16.8383 N   0  0  0  0  0  0  0  0  0  0  0  0
    5.5097   -2.0163  -16.1141 C   0  0  0  0  0  0  0  0  0  0  0  0
    4.4119   -1.6699  -15.4991 O   0  0  0  0  0  0  0  0  0  0  0  0
    4.5660   -0.5346  -14.8708 C   0  0  0  0  0  0  0  0  0  0  0  0
    3.7517    0.2624  -14.0845 C   0  0  0  0  0  0  0  0  0  0  0  0
    4.2159    1.4350  -13.5433 C   0  0  0  0  0  0  0  0  0  0  0  0
    5.5471    1.8012  -13.8150 C   0  0  0  0  0  0  0  0  0  0  0  0
    6.3917    1.0528  -14.5874 C   0  0  0  0  0  0  0  0  0  0  0  0
    5.8559   -0.1330  -15.1072 C   0  0  0  0  0  0  0  0  0  0  0  0
    6.4126   -1.0530  -15.8666 N   0  0  0  0  0  0  0  0  0  0  0  0
    7.3714   -1.0848  -16.2258 H   0  0  0  0  0  0  0  0  0  0  0  0
    7.6717    1.7344  -14.6931 C   0  0  1  0  0  0  0  0  0  0  0  0
    7.5510    2.9098  -13.7719 C   0  0  0  0  0  0  0  0  0  0  0  0
    8.4888    3.8883  -13.4030 C   0  0  0  0  0  0  0  0  0  0  0  0
    8.1491    4.9261  -12.5638 C   0  0  0  0  0  0  0  0  0  0  0  0
    6.8522    4.9699  -12.0981 C   0  0  0  0  0  0  0  0  0  0  0  0
    5.9293    4.0106  -12.4574 C   0  0  0  0  0  0  0  0  0  0  0  0
    6.2815    2.9566  -13.3110 C   0  0  0  0  0  0  0  0  0  0  0  0
    8.8606    0.9116  -14.3216 C   0  0  0  0  0  0  0  0  0  0  0  0
   10.0107    0.9618  -15.2711 C   0  0  0  0  0  0  0  0  0  0  0  0
    9.6206    0.6873  -16.6394 N   0  0  2  0  0  0  0  0  0  0  0  0
    9.5373   -0.3280  -16.8515 H   0  0  0  0  0  0  0  0  0  0  0  0
   10.4639    0.9934  -17.2152 H   0  0  0  0  0  0  0  0  0  0  0  0
    8.5101    1.4819  -17.0656 C   0  0  0  0  0  0  0  0  0  0  0  0
    7.9087    2.3650  -16.0459 C   0  0  0  0  0  0  0  0  0  0  0  0
    9.1077    5.9124  -12.1951 N   0  0  0  0  0  0  0  0  0  0  0  0
    9.3959    6.0680  -10.9353 C   0  0  0  0  0  0  0  0  0  0  0  0
    8.8133    5.3216   -9.9607 C   0  0  0  0  0  0  0  0  0  0  0  0
    9.1228    5.4880   -8.6290 C   0  0  0  0  0  0  0  0  0  0  0  0
   10.0564    6.4463   -8.2791 C   0  0  0  0  0  0  0  0  0  0  0  0
   10.3975    6.6466   -6.9538 C   0  0  0  0  0  0  0  0  0  0  0  0
   11.3322    7.6026   -6.5799 C   0  0  0  0  0  0  0  0  0  0  0  0
   11.8986    8.3383   -7.6070 C   0  0  0  0  0  0  0  0  0  0  0  0
   11.5584    8.1382   -8.9270 C   0  0  0  0  0  0  0  0  0  0  0  0
   10.6297    7.1858   -9.2767 C   0  0  0  0  0  0  0  0  0  0  0  0
   10.3076    7.0005  -10.5652 N   0  0  0  0  0  0  0  0  0  0  0  0
   10.7606    7.5813  -11.3223 H   0  0  0  0  0  0  0  0  0  0  0  0
   11.6843    7.8088   -5.2025 C   0  0  0  0  0  0  0  0  0  0  0  0
   12.1926    9.0234   -4.7462 C   0  0  0  0  0  0  0  0  0  0  0  0
   12.5326    9.2251   -3.4185 C   0  0  0  0  0  0  0  0  0  0  0  0
   12.3739    8.2149   -2.5056 C   0  0  0  0  0  0  0  0  0  0  0  0
   11.8714    6.9963   -2.9271 C   0  0  0  0  0  0  0  0  0  0  0  0
   11.5388    6.8131   -4.2496 C   0  0  0  0  0  0  0  0  0  0  0  0
  1  2  1  0
  2  3  2  0
  3  4  1  0
  4  5  1  0
  5  6  2  0
  6  7  1  0
  7  8  2  0
  8  9  1  0
  9 10  2  0
 10 11  1  0
 11 12  1  0
  9 13  1  0
 13 14  1  0
 14 15  2  0
 15 16  1  0
 16 27  1  0
 27 28  2  0
 28 29  1  0
 29 30  2  0
 30 31  1  0
 31 32  2  0
 32 33  1  0
 33 39  1  0
 39 40  2  0
 40 41  1  0
 41 42  2  0
 42 43  1  0
 43 44  2  0
 33 34  2  0
 34 35  1  0
 35 36  2  0
 36 37  1  0
 37 38  1  0
 16 17  2  0
 17 18  1  0
 18 19  2  0
 13 20  1  1
 20 21  1  0
 21 22  1  0
 22 23  1  1
 22 24  1  0
 22 25  1  0
 25 26  1  0
 11  3  1  0
 26 13  1  0
 10  5  1  0
 19 14  1  0
 19  8  1  0
 37 28  1  0
 36 31  1  0
 44 39  1  0
M  CHG  1  22   1
M  END
>  <minimizedAffinity>  (233) 
-17.27879

$$$$
Mol: 143_34 - SminaDock
     RDKit          3D

 40 47  0  0  0  0  0  0  0  0999 V2000
    3.7158   -1.0227  -14.7016 C   0  0  0  0  0  0  0  0  0  0  0  0
    4.9507   -1.2466  -15.1765 C   0  0  0  0  0  0  0  0  0  0  0  0
    5.7969   -0.1122  -14.7555 C   0  0  0  0  0  0  0  0  0  0  0  0
    7.0564    0.2037  -14.9204 C   0  0  0  0  0  0  0  0  0  0  0  0
    7.6861    1.4253  -14.3868 C   0  0  0  0  0  0  0  0  0  0  0  0
    6.9205    2.2611  -13.6939 C   0  0  0  0  0  0  0  0  0  0  0  0
    5.5168    2.0002  -13.4540 C   0  0  0  0  0  0  0  0  0  0  0  0
    4.7406    2.7305  -12.8164 O   0  0  0  0  0  0  0  0  0  0  0  0
    4.9286    0.7704  -14.0016 C   0  0  0  0  0  0  0  0  0  0  0  0
    3.7271    0.2580  -13.9627 C   0  0  0  0  0  0  0  0  0  0  0  0
    7.5167    3.5302  -13.2522 C   0  0  0  0  0  0  0  0  0  0  0  0
    6.7823    4.3577  -12.4273 C   0  0  0  0  0  0  0  0  0  0  0  0
    7.4117    5.4978  -11.9300 C   0  0  0  0  0  0  0  0  0  0  0  0
    8.7162    5.8098  -12.2347 C   0  0  0  0  0  0  0  0  0  0  0  0
    9.4079    4.9616  -13.0584 C   0  0  0  0  0  0  0  0  0  0  0  0
    8.8198    3.8034  -13.5860 C   0  0  0  0  0  0  0  0  0  0  0  0
    9.5606    2.9764  -14.5422 C   0  0  2  0  0  0  0  0  0  0  0  0
   10.9898    3.2170  -14.5902 N   0  0  0  0  0  0  0  0  0  0  0  0
   11.4643    3.5247  -13.7473 H   0  0  0  0  0  0  0  0  0  0  0  0
   10.8554    4.0549  -15.7239 C   0  0  0  0  0  0  0  0  0  0  0  0
    9.4370    3.6248  -15.9300 C   0  0  0  0  0  0  0  0  0  0  0  0
    9.1412    1.5751  -14.5947 C   0  0  0  0  0  0  0  0  0  0  0  0
    9.3709    6.9629  -11.7377 N   0  0  0  0  0  0  0  0  0  0  0  0
    9.7102    7.0092  -10.5003 C   0  0  0  0  0  0  0  0  0  0  0  0
   10.3401    8.0905   -9.9726 N   0  0  0  0  0  0  0  0  0  0  0  0
   10.6721    8.0852   -8.6699 C   0  0  0  0  0  0  0  0  0  0  0  0
   11.3194    9.1742   -8.0853 C   0  0  0  0  0  0  0  0  0  0  0  0
   11.6584    9.1664   -6.7490 C   0  0  0  0  0  0  0  0  0  0  0  0
   11.3782    8.0901   -5.9249 C   0  0  0  0  0  0  0  0  0  0  0  0
   10.7387    7.0078   -6.4905 C   0  0  0  0  0  0  0  0  0  0  0  0
   10.3964    7.0181   -7.8437 C   0  0  0  0  0  0  0  0  0  0  0  0
    9.7526    5.9283   -8.4112 C   0  0  0  0  0  0  0  0  0  0  0  0
    9.4297    5.9546   -9.7160 N   0  0  0  0  0  0  0  0  0  0  0  0
    8.9370    5.1106  -10.1339 H   0  0  0  0  0  0  0  0  0  0  0  0
   11.7377    8.0864   -4.5136 C   0  0  0  0  0  0  0  0  0  0  0  0
   11.7151    6.9321   -3.7638 C   0  0  0  0  0  0  0  0  0  0  0  0
   12.0498    6.9011   -2.4290 C   0  0  0  0  0  0  0  0  0  0  0  0
   12.4269    8.0620   -1.7928 C   0  0  0  0  0  0  0  0  0  0  0  0
   12.4604    9.2345   -2.5129 C   0  0  0  0  0  0  0  0  0  0  0  0
   12.1172    9.2417   -3.8647 C   0  0  0  0  0  0  0  0  0  0  0  0
  1  2  2  0
  2  3  1  0
  3  4  2  0
  4  5  1  0
  5  6  2  0
  6  7  1  0
  7  8  2  0
  7  9  1  0
  9 10  2  0
  6 11  1  0
 11 12  2  0
 12 13  1  0
 13 14  2  0
 14 23  1  0
 23 24  2  0
 24 25  1  0
 25 26  2  0
 26 27  1  0
 27 28  2  0
 28 29  1  0
 29 35  1  0
 35 36  2  0
 36 37  1  0
 37 38  2  0
 38 39  1  0
 39 40  2  0
 29 30  2  0
 30 31  1  0
 31 32  2  0
 32 33  1  0
 33 34  1  0
 14 15  1  0
 15 16  2  0
 16 17  1  0
 17 18  1  0
 18 19  1  0
 18 20  1  0
 20 21  1  0
 17 22  1  6
 10  1  1  0
 16 11  1  0
 21 17  1  0
  9  3  1  0
 33 24  1  0
 22  5  1  0
 31 26  1  0
 40 35  1  0
M  END
>  <minimizedAffinity>  (234) 
-17.33198

$$$$
Mol: 155_51 - SminaDock
     RDKit          3D

 39 45  0  0  0  0  0  0  0  0999 V2000
    2.2054   -1.5473  -13.4814 H   0  0  0  0  0  0  0  0  0  0  0  0
    2.3131   -0.9874  -14.3203 O   0  0  0  0  0  0  0  0  0  0  0  0
    3.5725   -0.5313  -14.7282 C   0  0  0  0  0  0  0  0  0  0  0  0
    4.2168   -1.1457  -15.6986 C   0  0  0  0  0  0  0  0  0  0  0  0
    5.5291   -0.7810  -16.2219 C   0  0  0  0  0  0  0  0  0  0  0  0
    6.0835    0.4116  -15.5127 C   0  0  0  0  0  0  0  0  0  0  0  0
    7.3262    0.8992  -15.8860 C   0  0  0  0  0  0  0  0  0  0  0  0
    7.8874    2.0027  -15.2615 C   0  0  0  0  0  0  0  0  0  0  0  0
    7.1844    2.6230  -14.2463 C   0  0  0  0  0  0  0  0  0  0  0  0
    5.9485    2.1843  -13.8345 C   0  0  0  0  0  0  0  0  0  0  0  0
    5.4292    1.0605  -14.5041 C   0  0  0  0  0  0  0  0  0  0  0  0
    4.1588    0.5955  -14.0966 N   0  0  0  0  0  0  0  0  0  0  0  0
    3.6618    1.1059  -13.3177 H   0  0  0  0  0  0  0  0  0  0  0  0
    5.1375    2.8114  -12.7692 C   0  0  0  0  0  0  0  0  0  0  0  0
    5.8225    3.9037  -12.0675 C   0  0  0  0  0  0  0  0  0  0  0  0
    7.1087    4.3930  -12.5524 C   0  0  0  0  0  0  0  0  0  0  0  0
    7.6692    5.5174  -11.9261 C   0  0  0  0  0  0  0  0  0  0  0  0
    8.8795    6.0078  -12.3192 C   0  0  0  0  0  0  0  0  0  0  0  0
    9.5322    5.3806  -13.3344 C   0  0  0  0  0  0  0  0  0  0  0  0
    9.0200    4.2743  -13.9781 C   0  0  0  0  0  0  0  0  0  0  0  0
    7.7932    3.7856  -13.5732 C   0  0  0  0  0  0  0  0  0  0  0  0
    9.4052    7.1580  -11.6495 N   0  0  0  0  0  0  0  0  0  0  0  0
    9.7425    7.1154  -10.4013 C   0  0  0  0  0  0  0  0  0  0  0  0
   10.2365    8.1887   -9.7646 N   0  0  0  0  0  0  0  0  0  0  0  0
   10.5995    8.1920   -8.4732 C   0  0  0  0  0  0  0  0  0  0  0  0
   11.1050    9.3074   -7.8403 C   0  0  0  0  0  0  0  0  0  0  0  0
   11.4676    9.2820   -6.5206 C   0  0  0  0  0  0  0  0  0  0  0  0
   11.3442    8.1352   -5.7582 C   0  0  0  0  0  0  0  0  0  0  0  0
   10.8376    7.0166   -6.3916 C   0  0  0  0  0  0  0  0  0  0  0  0
   10.4708    7.0431   -7.7273 C   0  0  0  0  0  0  0  0  0  0  0  0
    9.9602    5.9231   -8.3744 C   0  0  0  0  0  0  0  0  0  0  0  0
    9.6117    5.9864   -9.6841 N   0  0  0  0  0  0  0  0  0  0  0  0
    9.2379    5.1036  -10.0921 H   0  0  0  0  0  0  0  0  0  0  0  0
   11.7305    8.1149   -4.3606 C   0  0  0  0  0  0  0  0  0  0  0  0
   11.7490    6.9034   -3.6853 C   0  0  0  0  0  0  0  0  0  0  0  0
   12.1096    6.8388   -2.3573 C   0  0  0  0  0  0  0  0  0  0  0  0
   12.4627    7.9752   -1.6600 C   0  0  0  0  0  0  0  0  0  0  0  0
   12.4366    9.1725   -2.3554 C   0  0  0  0  0  0  0  0  0  0  0  0
   12.0767    9.2546   -3.6894 C   0  0  0  0  0  0  0  0  0  0  0  0
  1  2  1  0
  2  3  1  0
  3  4  2  0
  4  5  1  0
  5  6  1  0
  6  7  2  0
  7  8  1  0
  8  9  2  0
  9 10  1  0
 10 11  2  0
 11 12  1  0
 12 13  1  0
 10 14  1  0
 14 15  1  0
 15 16  1  0
 16 17  2  0
 17 18  1  0
 18 22  1  0
 22 23  2  0
 23 24  1  0
 24 25  2  0
 25 26  1  0
 26 27  2  0
 27 28  1  0
 28 34  1  0
 34 35  2  0
 35 36  1  0
 36 37  2  0
 37 38  1  0
 38 39  2  0
 28 29  2  0
 29 30  1  0
 30 31  2  0
 31 32  1  0
 32 33  1  0
 18 19  2  0
 19 20  1  0
 20 21  2  0
 12  3  1  0
 21 16  1  0
 11  6  1  0
 32 23  1  0
 21  9  1  0
 30 25  1  0
 39 34  1  0
M  END
>  <minimizedAffinity>  (235) 
-17.16782

$$$$
Mol: 155_54 - SminaDock
     RDKit          3D

 42 48  0  0  0  0  0  0  0  0999 V2000
    3.2072   -2.0028  -19.2344 H   0  0  0  0  0  0  0  0  0  0  0  0
    4.1910   -1.6567  -19.2496 N   0  0  0  0  0  0  0  0  0  0  0  0
    4.7114   -1.3378  -18.1109 C   0  0  0  0  0  0  0  0  0  0  0  0
    6.0160   -0.8763  -18.1097 C   0  0  0  0  0  0  0  0  0  0  0  0
    6.6858   -0.1489  -17.1232 C   0  0  0  0  0  0  0  0  0  0  0  0
    6.1327    0.4613  -15.9960 C   0  0  0  0  0  0  0  0  0  0  0  0
    6.9337    1.4944  -15.5143 C   0  0  0  0  0  0  0  0  0  0  0  0
    6.4986    2.1804  -14.4004 C   0  0  0  0  0  0  0  0  0  0  0  0
    5.3240    1.8517  -13.7985 C   0  0  0  0  0  0  0  0  0  0  0  0
    4.5211    0.7982  -14.3010 C   0  0  0  0  0  0  0  0  0  0  0  0
    4.9507    0.1172  -15.4049 C   0  0  0  0  0  0  0  0  0  0  0  0
    4.0186   -0.8749  -15.7336 C   0  0  0  0  0  0  0  0  0  0  0  0
    3.1302   -1.2669  -14.7414 O   0  0  0  0  0  0  0  0  0  0  0  0
    2.1401   -1.3511  -14.9339 H   0  0  0  0  0  0  0  0  0  0  0  0
    3.9328   -1.4778  -16.9698 C   0  0  0  0  0  0  0  0  0  0  0  0
    4.8110    2.5406  -12.6204 C   0  0  0  0  0  0  0  0  0  0  0  0
    5.6084    3.6359  -12.0526 C   0  0  0  0  0  0  0  0  0  0  0  0
    6.8743    3.9617  -12.7385 C   0  0  0  0  0  0  0  0  0  0  0  0
    7.6280    4.9889  -12.2244 C   0  0  0  0  0  0  0  0  0  0  0  0
    8.8186    5.3362  -12.8218 C   0  0  0  0  0  0  0  0  0  0  0  0
    9.2758    4.6703  -13.9345 C   0  0  0  0  0  0  0  0  0  0  0  0
    8.5047    3.6329  -14.4456 C   0  0  0  0  0  0  0  0  0  0  0  0
    7.3102    3.2643  -13.8686 C   0  0  0  0  0  0  0  0  0  0  0  0
    9.5615    6.4030  -12.2552 N   0  0  0  0  0  0  0  0  0  0  0  0
    9.7652    6.4460  -10.9721 C   0  0  0  0  0  0  0  0  0  0  0  0
    9.3000    5.5147  -10.1357 N   0  0  0  0  0  0  0  0  0  0  0  0
    9.5305    5.5888   -8.7978 C   0  0  0  0  0  0  0  0  0  0  0  0
   10.2578    6.6439   -8.2899 C   0  0  0  0  0  0  0  0  0  0  0  0
   10.5307    6.7837   -6.9420 C   0  0  0  0  0  0  0  0  0  0  0  0
   11.2578    7.8402   -6.4412 C   0  0  0  0  0  0  0  0  0  0  0  0
   11.7229    8.7883   -7.3549 C   0  0  0  0  0  0  0  0  0  0  0  0
   11.4636    8.6705   -8.7040 C   0  0  0  0  0  0  0  0  0  0  0  0
   10.7350    7.6014   -9.1581 C   0  0  0  0  0  0  0  0  0  0  0  0
   10.4687    7.4655  -10.4762 N   0  0  0  0  0  0  0  0  0  0  0  0
   10.8334    8.1946  -11.1266 H   0  0  0  0  0  0  0  0  0  0  0  0
   11.5339    7.9717   -5.0170 C   0  0  0  0  0  0  0  0  0  0  0  0
   11.7773    6.8433   -4.2415 C   0  0  0  0  0  0  0  0  0  0  0  0
   12.0355    6.9732   -2.8959 C   0  0  0  0  0  0  0  0  0  0  0  0
   12.0639    8.2030   -2.2696 C   0  0  0  0  0  0  0  0  0  0  0  0
   11.8212    9.3133   -3.0494 C   0  0  0  0  0  0  0  0  0  0  0  0
   11.5602    9.2026   -4.4016 C   0  0  0  0  0  0  0  0  0  0  0  0
   11.2687   10.6803   -5.2949 Cl  0  0  0  0  0  0  0  0  0  0  0  0
  1  2  1  0
  2  3  2  0
  3  4  1  0
  4  5  2  0
  5  6  1  0
  6  7  2  0
  7  8  1  0
  8  9  2  0
  9 10  1  0
 10 11  2  0
 11 12  1  0
 12 13  1  0
 13 14  1  0
 12 15  2  0
  9 16  1  0
 16 17  1  0
 17 18  1  0
 18 19  2  0
 19 20  1  0
 20 24  1  0
 24 25  2  0
 25 26  1  0
 26 27  2  0
 27 28  1  0
 28 29  2  0
 29 30  1  0
 30 36  1  0
 36 37  2  0
 37 38  1  0
 38 39  2  0
 39 40  1  0
 40 41  2  0
 41 42  1  0
 30 31  2  0
 31 32  1  0
 32 33  2  0
 33 34  1  0
 34 35  1  0
 20 21  2  0
 21 22  1  0
 22 23  2  0
 15  3  1  0
 23 18  1  0
 11  6  1  0
 34 25  1  0
 23  8  1  0
 33 28  1  0
 41 36  1  0
M  END
>  <minimizedAffinity>  (236) 
-17.22124

$$$$
Mol: 197_12 - SminaDock
     RDKit          3D

 38 44  0  0  0  0  0  0  0  0999 V2000
    8.6393    5.4044  -12.3715 C   0  0  0  0  0  0  0  0  0  0  0  0
    9.2039    4.9461  -13.5367 C   0  0  0  0  0  0  0  0  0  0  0  0
    8.6531    3.9096  -14.3035 C   0  0  0  0  0  0  0  0  0  0  0  0
    7.4847    3.3348  -13.8466 C   0  0  0  0  0  0  0  0  0  0  0  0
    6.8864    3.7587  -12.6906 C   0  0  0  0  0  0  0  0  0  0  0  0
    7.4746    4.8000  -11.9563 C   0  0  0  0  0  0  0  0  0  0  0  0
    5.6618    3.2045  -12.1383 C   0  0  0  0  0  0  0  0  0  0  0  0
    4.9919    2.1374  -12.9038 C   0  0  0  0  0  0  0  0  0  0  0  0
    5.6991    1.7151  -14.1267 C   0  0  0  0  0  0  0  0  0  0  0  0
    6.8656    2.2560  -14.6111 C   0  0  0  0  0  0  0  0  0  0  0  0
    7.4391    1.7743  -15.7956 C   0  0  0  0  0  0  0  0  0  0  0  0
    6.8133    0.7460  -16.4693 C   0  0  0  0  0  0  0  0  0  0  0  0
    5.6543    0.2048  -15.9919 C   0  0  0  0  0  0  0  0  0  0  0  0
    5.0675   -0.8361  -16.7188 C   0  0  0  0  0  0  0  0  0  0  0  0
    5.5969   -1.2646  -17.7917 O   0  0  0  0  0  0  0  0  0  0  0  0
    3.9391   -1.3756  -16.2682 N   0  0  0  0  0  0  0  0  0  0  0  0
    3.5144   -2.1534  -16.8255 H   0  0  0  0  0  0  0  0  0  0  0  0
    3.3597   -0.9344  -15.1291 C   0  0  0  0  0  0  0  0  0  0  0  0
    3.9134    0.0894  -14.3905 C   0  0  0  0  0  0  0  0  0  0  0  0
    5.0852    0.6738  -14.8282 C   0  0  0  0  0  0  0  0  0  0  0  0
   11.2886    7.8935   -5.9696 C   0  0  0  0  0  0  0  0  0  0  0  0
   11.5355    8.9173   -6.8632 C   0  0  0  0  0  0  0  0  0  0  0  0
   11.1813    8.8387   -8.1976 C   0  0  0  0  0  0  0  0  0  0  0  0
   10.5611    7.7206   -8.6879 C   0  0  0  0  0  0  0  0  0  0  0  0
   10.3013    6.6819   -7.8195 C   0  0  0  0  0  0  0  0  0  0  0  0
   10.6620    6.7672   -6.4707 C   0  0  0  0  0  0  0  0  0  0  0  0
    9.6794    5.5317   -8.2571 C   0  0  0  0  0  0  0  0  0  0  0  0
    9.3191    5.4367   -9.5862 C   0  0  0  0  0  0  0  0  0  0  0  0
    9.5810    6.4775  -10.4490 C   0  0  0  0  0  0  0  0  0  0  0  0
    9.2742    6.4493  -11.6807 N   0  0  0  0  0  0  0  0  0  0  0  0
   10.1895    7.5709   -9.9612 N   0  0  0  0  0  0  0  0  0  0  0  0
   10.4089    8.3959  -10.5959 H   0  0  0  0  0  0  0  0  0  0  0  0
   12.4225    8.2333   -1.8854 C   0  0  0  0  0  0  0  0  0  0  0  0
   12.0930    6.9999   -2.4078 C   0  0  0  0  0  0  0  0  0  0  0  0
   11.7203    6.8937   -3.7531 C   0  0  0  0  0  0  0  0  0  0  0  0
   11.6780    8.0159   -4.5697 C   0  0  0  0  0  0  0  0  0  0  0  0
   12.0119    9.2351   -4.0228 C   0  0  0  0  0  0  0  0  0  0  0  0
   12.3817    9.3523   -2.6943 C   0  0  0  0  0  0  0  0  0  0  0  0
 33 34  2  0
 34 35  1  0
 35 36  2  0
 36 21  1  0
 21 22  2  0
 22 23  1  0
 23 24  2  0
 24 25  1  0
 25 26  2  0
 25 27  1  0
 27 28  2  0
 28 29  1  0
 29 30  2  0
 30  1  1  0
  1  2  2  0
  2  3  1  0
  3  4  2  0
  4  5  1  0
  5  6  2  0
  5  7  1  0
  7  8  1  0
  8  9  1  0
  9 10  2  0
 10 11  1  0
 11 12  2  0
 12 13  1  0
 13 14  1  0
 14 15  2  0
 14 16  1  0
 16 17  1  0
 16 18  1  0
 18 19  2  0
 19 20  1  0
 29 31  1  0
 31 32  1  0
 36 37  1  0
 37 38  2  0
 38 33  1  0
 26 21  1  0
  6  1  1  0
 20  9  1  0
 31 24  1  0
 10  4  1  0
 20 13  2  0
M  END
>  <minimizedAffinity>  (237) 
-17.18798

$$$$
Mol: 157_12 - SminaDock
     RDKit          3D

 41 47  0  0  0  0  0  0  0  0999 V2000
    3.4728   -0.5711  -14.3281 C   0  0  0  0  0  0  0  0  0  0  0  0
    3.7002   -1.3806  -15.3095 N   0  0  0  0  0  0  0  0  0  0  0  0
    3.0878   -2.2369  -15.2310 H   0  0  0  0  0  0  0  0  0  0  0  0
    4.5661   -1.3783  -16.4447 C   0  0  0  0  0  0  0  0  0  0  0  0
    5.8499   -0.6705  -16.2483 C   0  0  0  0  0  0  0  0  0  0  0  0
    6.8139   -1.1650  -16.8770 O   0  0  0  0  0  0  0  0  0  0  0  0
    6.1633    0.4932  -15.4508 C   0  0  0  0  0  0  0  0  0  0  0  0
    5.3841    1.1108  -14.4736 C   0  0  0  0  0  0  0  0  0  0  0  0
    5.8609    2.2265  -13.8106 C   0  0  0  0  0  0  0  0  0  0  0  0
    7.1150    2.6574  -14.1797 C   0  0  0  0  0  0  0  0  0  0  0  0
    7.8485    2.0465  -15.1248 N   0  0  0  0  0  0  0  0  0  0  0  0
    7.4122    0.9747  -15.7749 C   0  0  0  0  0  0  0  0  0  0  0  0
    8.1108    0.4150  -16.6564 O   0  0  0  0  0  0  0  0  0  0  0  0
    7.6567    3.8069  -13.5013 C   0  0  0  0  0  0  0  0  0  0  0  0
    8.9284    4.2577  -13.8902 C   0  0  0  0  0  0  0  0  0  0  0  0
    9.4765    5.3506  -13.2883 C   0  0  0  0  0  0  0  0  0  0  0  0
    8.7573    5.9914  -12.3015 C   0  0  0  0  0  0  0  0  0  0  0  0
    7.5098    5.5513  -11.9179 C   0  0  0  0  0  0  0  0  0  0  0  0
    6.9543    4.4454  -12.5258 C   0  0  0  0  0  0  0  0  0  0  0  0
    5.6432    4.0162  -12.0712 C   0  0  0  0  0  0  0  0  0  0  0  0
    5.0194    2.8638  -12.7990 C   0  0  0  0  0  0  0  0  0  0  0  0
    4.0926    0.6835  -14.0794 N   0  0  0  0  0  0  0  0  0  0  0  0
    3.5611    1.4025  -13.5437 H   0  0  0  0  0  0  0  0  0  0  0  0
    9.3400    7.1192  -11.6909 N   0  0  0  0  0  0  0  0  0  0  0  0
    9.6754    7.0588  -10.4412 C   0  0  0  0  0  0  0  0  0  0  0  0
    9.4926    5.9596   -9.6897 N   0  0  0  0  0  0  0  0  0  0  0  0
    9.8425    5.9010   -8.3925 C   0  0  0  0  0  0  0  0  0  0  0  0
   10.4147    6.9926   -7.7737 C   0  0  0  0  0  0  0  0  0  0  0  0
   10.7886    6.9683   -6.4384 C   0  0  0  0  0  0  0  0  0  0  0  0
   11.3617    8.0587   -5.8180 C   0  0  0  0  0  0  0  0  0  0  0  0
   11.5540    9.1915   -6.5795 C   0  0  0  0  0  0  0  0  0  0  0  0
   11.1805    9.2188   -7.9165 C   0  0  0  0  0  0  0  0  0  0  0  0
   10.6065    8.1254   -8.5365 C   0  0  0  0  0  0  0  0  0  0  0  0
   10.2406    8.1361   -9.8289 N   0  0  0  0  0  0  0  0  0  0  0  0
   10.3795    8.9826  -10.4138 H   0  0  0  0  0  0  0  0  0  0  0  0
   11.7569    8.0349   -4.4084 C   0  0  0  0  0  0  0  0  0  0  0  0
   12.1277    9.1953   -3.7614 C   0  0  0  0  0  0  0  0  0  0  0  0
   12.5030    9.1774   -2.4203 C   0  0  0  0  0  0  0  0  0  0  0  0
   12.5173    8.0024   -1.6932 C   0  0  0  0  0  0  0  0  0  0  0  0
   12.1480    6.8379   -2.3321 C   0  0  0  0  0  0  0  0  0  0  0  0
   11.7761    6.8705   -3.6693 C   0  0  0  0  0  0  0  0  0  0  0  0
  1  2  2  0
  2  3  1  0
  2  4  1  0
  4  5  1  0
  5  6  2  0
  5  7  1  0
  7  8  2  0
  8  9  1  0
  9 10  2  0
 10 11  1  0
 11 12  1  0
 12 13  2  0
 10 14  1  0
 14 15  2  0
 15 16  1  0
 16 17  2  0
 17 24  1  0
 24 25  2  0
 25 26  1  0
 26 27  2  0
 27 28  1  0
 28 29  2  0
 29 30  1  0
 30 36  1  0
 36 37  2  0
 37 38  1  0
 38 39  2  0
 39 40  1  0
 40 41  2  0
 30 31  2  0
 31 32  1  0
 32 33  2  0
 33 34  1  0
 34 35  1  0
 17 18  1  0
 18 19  2  0
 19 20  1  0
 20 21  1  0
  8 22  1  0
 22 23  1  0
 22  1  1  0
 12  7  1  0
 19 14  1  0
 21  9  1  0
 34 25  1  0
 33 28  1  0
 41 36  1  0
M  CHG  2   2   1  11  -1
M  END
>  <minimizedAffinity>  (238) 
-17.19721

$$$$
Mol: 198_20 - SminaDock
     RDKit          3D

 42 49  0  0  0  0  0  0  0  0999 V2000
    8.7368    5.8377  -12.3289 C   0  0  0  0  0  0  0  0  0  0  0  0
    7.5338    5.3596  -11.8681 C   0  0  0  0  0  0  0  0  0  0  0  0
    6.8962    4.2738  -12.4250 C   0  0  0  0  0  0  0  0  0  0  0  0
    7.5196    3.6434  -13.5091 C   0  0  0  0  0  0  0  0  0  0  0  0
    8.7023    4.1086  -13.9655 C   0  0  0  0  0  0  0  0  0  0  0  0
    9.3316    5.2061  -13.3916 C   0  0  0  0  0  0  0  0  0  0  0  0
    9.1347    3.2280  -15.1071 C   0  0  2  0  0  0  0  0  0  0  0  0
    8.0393    2.2764  -15.2777 C   0  0  0  0  0  0  0  0  0  0  0  0
    7.0950    2.5011  -14.3181 C   0  0  0  0  0  0  0  0  0  0  0  0
    5.9257    1.7328  -14.2172 C   0  0  0  0  0  0  0  0  0  0  0  0
    5.7096    0.7141  -15.1111 C   0  0  0  0  0  0  0  0  0  0  0  0
    4.5157    0.0656  -14.8659 C   0  0  0  0  0  0  0  0  0  0  0  0
    3.8128   -0.7263  -15.7506 C   0  0  0  0  0  0  0  0  0  0  0  0
    4.2574   -1.3151  -16.9236 C   0  0  0  0  0  0  0  0  0  0  0  0
    5.4967   -1.1491  -17.5054 C   0  0  0  0  0  0  0  0  0  0  0  0
    6.6218   -0.4794  -17.0579 C   0  0  0  0  0  0  0  0  0  0  0  0
    7.7204   -0.7539  -17.5659 O   0  0  0  0  0  0  0  0  0  0  0  0
    6.6640    0.4955  -16.0745 C   0  0  0  0  0  0  0  0  0  0  0  0
    7.7962    1.2389  -16.1724 C   0  0  0  0  0  0  0  0  0  0  0  0
   10.4279    2.5783  -14.6716 C   0  0  0  0  0  0  0  0  0  0  0  0
   11.0345    1.7709  -15.7512 C   0  0  0  0  0  0  0  0  0  0  0  0
   10.9405    2.3552  -17.0128 O   0  0  0  0  0  0  0  0  0  0  0  0
   10.7273    3.7306  -16.9064 C   0  0  0  0  0  0  0  0  0  0  0  0
    9.3934    4.0623  -16.3365 C   0  0  0  0  0  0  0  0  0  0  0  0
   11.3494    8.0499   -5.8508 C   0  0  0  0  0  0  0  0  0  0  0  0
   11.5791    9.1334   -6.6647 C   0  0  0  0  0  0  0  0  0  0  0  0
   11.2300    9.1525   -8.0196 C   0  0  0  0  0  0  0  0  0  0  0  0
   10.6332    8.0609   -8.5865 C   0  0  0  0  0  0  0  0  0  0  0  0
   10.2720    8.0176   -9.8910 N   0  0  0  0  0  0  0  0  0  0  0  0
    9.6865    6.9511  -10.4549 C   0  0  0  0  0  0  0  0  0  0  0  0
    9.3675    6.9806  -11.7126 N   0  0  0  0  0  0  0  0  0  0  0  0
    9.4620    5.8928   -9.6606 N   0  0  0  0  0  0  0  0  0  0  0  0
    9.0074    5.0431  -10.0642 H   0  0  0  0  0  0  0  0  0  0  0  0
    9.7903    5.8667   -8.3729 C   0  0  0  0  0  0  0  0  0  0  0  0
   10.4001    6.9729   -7.7788 C   0  0  0  0  0  0  0  0  0  0  0  0
   10.7386    6.9425   -6.4464 C   0  0  0  0  0  0  0  0  0  0  0  0
   12.3390    9.2097   -2.5378 C   0  0  0  0  0  0  0  0  0  0  0  0
   12.0029    9.1656   -3.8250 N   0  0  0  0  0  0  0  0  0  0  0  0
   11.7097    8.0186   -4.4353 C   0  0  0  0  0  0  0  0  0  0  0  0
   11.7592    6.8581   -3.7065 C   0  0  0  0  0  0  0  0  0  0  0  0
   12.1058    6.8644   -2.3605 C   0  0  0  0  0  0  0  0  0  0  0  0
   12.3991    8.0708   -1.7775 C   0  0  0  0  0  0  0  0  0  0  0  0
 37 38  2  0
 38 39  1  0
 39 25  1  0
 25 26  1  0
 26 27  2  0
 27 28  1  0
 28 29  2  0
 29 30  1  0
 30 31  2  0
 31  1  1  0
  1  2  2  0
  2  3  1  0
  3  4  2  0
  4  5  1  0
  5  6  2  0
  5  7  1  0
  7  8  1  0
  8  9  2  0
  9 10  1  0
 10 11  2  0
 11 12  1  0
 12 13  2  0
 13 14  1  0
 14 15  2  0
 15 16  1  0
 16 17  2  0
 16 18  1  0
 18 19  2  0
  7 20  1  1
 20 21  1  0
 21 22  1  0
 22 23  1  0
 23 24  1  0
 30 32  1  0
 32 33  1  0
 32 34  1  0
 34 35  2  0
 35 36  1  0
 39 40  2  0
 40 41  1  0
 41 42  2  0
 42 37  1  0
 36 25  2  0
 35 28  1  0
  6  1  1  0
 24  7  1  0
  9  4  1  0
 18 11  1  0
 19  8  1  0
M  END
>  <minimizedAffinity>  (239) 
-17.18604

$$$$
Mol: 198_21 - SminaDock
     RDKit          3D

 39 46  0  0  0  0  0  0  0  0999 V2000
    8.8766    6.1206  -12.4898 C   0  0  0  0  0  0  0  0  0  0  0  0
    9.4365    5.4260  -13.5524 C   0  0  0  0  0  0  0  0  0  0  0  0
    8.7737    4.3273  -14.0454 C   0  0  0  0  0  0  0  0  0  0  0  0
    7.5767    3.8875  -13.5282 C   0  0  0  0  0  0  0  0  0  0  0  0
    7.0071    4.5644  -12.4742 C   0  0  0  0  0  0  0  0  0  0  0  0
    7.6811    5.6834  -11.9711 C   0  0  0  0  0  0  0  0  0  0  0  0
    5.7287    3.9403  -12.0622 C   0  0  0  0  0  0  0  0  0  0  0  0
    5.5776    2.7949  -12.9908 C   0  0  0  0  0  0  0  0  0  0  0  0
    4.5792    1.8161  -13.1174 C   0  0  0  0  0  0  0  0  0  0  0  0
    4.7099    0.8575  -14.0917 C   0  0  0  0  0  0  0  0  0  0  0  0
    5.7868    0.8149  -14.9566 C   0  0  0  0  0  0  0  0  0  0  0  0
    6.7337    1.7948  -14.7895 C   0  0  0  0  0  0  0  0  0  0  0  0
    6.6622    2.7902  -13.8269 C   0  0  0  0  0  0  0  0  0  0  0  0
    5.8430   -0.2359  -15.9593 C   0  0  2  0  0  0  0  0  0  0  0  0
    5.2615   -1.4828  -15.4549 C   0  0  0  0  0  0  0  0  0  0  0  0
    5.7546   -2.5967  -15.7465 O   0  0  0  0  0  0  0  0  0  0  0  0
    4.1416   -1.4035  -14.6390 O   0  0  0  0  0  0  0  0  0  0  0  0
    3.6275   -0.1606  -14.1899 C   0  0  0  0  0  0  0  0  0  0  0  0
    7.0811   -0.4181  -16.7511 C   0  0  0  0  0  0  0  0  0  0  0  0
    6.1916   -0.6031  -17.9893 C   0  0  0  0  0  0  0  0  0  0  0  0
    5.1228    0.1911  -17.2265 C   0  0  0  0  0  0  0  0  0  0  0  0
   11.3947    8.1894   -6.0030 C   0  0  0  0  0  0  0  0  0  0  0  0
   11.6750    9.2867   -6.7766 C   0  0  0  0  0  0  0  0  0  0  0  0
   11.3544    9.3351   -8.1400 C   0  0  0  0  0  0  0  0  0  0  0  0
   10.7393    8.2719   -8.7624 C   0  0  0  0  0  0  0  0  0  0  0  0
   10.4561    7.1669   -7.9873 C   0  0  0  0  0  0  0  0  0  0  0  0
    9.8359    6.1003   -8.6240 C   0  0  0  0  0  0  0  0  0  0  0  0
    9.5379    6.1699   -9.9340 N   0  0  0  0  0  0  0  0  0  0  0  0
    9.8151    7.2470  -10.6848 C   0  0  0  0  0  0  0  0  0  0  0  0
    9.5118    7.2674  -11.9314 N   0  0  0  0  0  0  0  0  0  0  0  0
   10.4192    8.2877  -10.0681 N   0  0  0  0  0  0  0  0  0  0  0  0
   10.6571    9.1572  -10.6177 H   0  0  0  0  0  0  0  0  0  0  0  0
   10.7690    7.1132   -6.6450 C   0  0  0  0  0  0  0  0  0  0  0  0
   12.3082    9.0849   -2.5407 C   0  0  0  0  0  0  0  0  0  0  0  0
   12.0237    9.1794   -3.8493 N   0  0  0  0  0  0  0  0  0  0  0  0
   11.7021    8.0781   -4.5839 C   0  0  0  0  0  0  0  0  0  0  0  0
   11.6861    6.8801   -3.9160 C   0  0  0  0  0  0  0  0  0  0  0  0
   11.9730    6.7424   -2.5704 C   0  0  0  0  0  0  0  0  0  0  0  0
   12.2931    7.8796   -1.8642 C   0  0  0  0  0  0  0  0  0  0  0  0
 34 35  2  0
 35 36  1  0
 36 22  1  0
 22 23  2  0
 23 24  1  0
 24 25  2  0
 25 26  1  0
 26 27  1  0
 27 28  2  0
 28 29  1  0
 29 30  2  0
 30  1  1  0
  1  2  2  0
  2  3  1  0
  3  4  2  0
  4  5  1  0
  5  6  2  0
  5  7  1  0
  7  8  1  0
  8  9  2  0
  9 10  1  0
 10 11  2  0
 11 12  1  0
 12 13  2  0
 11 14  1  0
 14 15  1  0
 15 16  2  0
 15 17  1  0
 17 18  1  0
 14 19  1  6
 19 20  1  0
 20 21  1  0
 29 31  1  0
 31 32  1  0
 26 33  2  0
 36 37  2  0
 37 38  1  0
 38 39  2  0
 39 34  1  0
 33 22  1  0
 31 25  1  0
  6  1  1  0
 13  8  1  0
 21 14  1  0
 13  4  1  0
 18 10  1  0
M  END
>  <minimizedAffinity>  (240) 
-17.21818

$$$$
Mol: 197_62 - SminaDock
     RDKit          3D

 41 48  0  0  0  0  0  0  0  0999 V2000
    8.8003    6.0324  -12.3517 C   0  0  0  0  0  0  0  0  0  0  0  0
    9.4237    5.3414  -13.3670 C   0  0  0  0  0  0  0  0  0  0  0  0
    8.7782    4.2460  -13.8924 C   0  0  0  0  0  0  0  0  0  0  0  0
    7.5442    3.8749  -13.3967 C   0  0  0  0  0  0  0  0  0  0  0  0
    6.9156    4.5607  -12.3824 C   0  0  0  0  0  0  0  0  0  0  0  0
    7.5700    5.6584  -11.8609 C   0  0  0  0  0  0  0  0  0  0  0  0
    5.6115    3.9436  -12.0546 C   0  0  0  0  0  0  0  0  0  0  0  0
    5.5024    2.7846  -12.9898 C   0  0  0  0  0  0  0  0  0  0  0  0
    4.5073    1.8461  -13.1451 C   0  0  0  0  0  0  0  0  0  0  0  0
    4.6758    0.8647  -14.1105 C   0  0  0  0  0  0  0  0  0  0  0  0
    5.8101    0.8391  -14.8862 C   0  0  0  0  0  0  0  0  0  0  0  0
    6.7748    1.8018  -14.6895 C   0  0  0  0  0  0  0  0  0  0  0  0
    6.6368    2.7780  -13.7488 C   0  0  0  0  0  0  0  0  0  0  0  0
    5.9401   -0.2302  -15.9042 C   0  0  1  0  0  0  0  0  0  0  0  0
    5.3594   -1.4497  -15.3376 C   0  0  0  0  0  0  0  0  0  0  0  0
    5.9372   -2.5431  -15.4624 O   0  0  0  0  0  0  0  0  0  0  0  0
    4.1593   -1.3850  -14.6584 O   0  0  0  0  0  0  0  0  0  0  0  0
    3.5774   -0.1554  -14.2630 C   0  0  0  0  0  0  0  0  0  0  0  0
    5.2068    0.2377  -17.1136 C   0  0  0  0  0  0  0  0  0  0  0  0
    3.9815    0.1763  -17.3706 O   0  0  0  0  0  0  0  0  0  0  0  0
    6.1447    0.7886  -17.9711 O   0  0  0  0  0  0  0  0  0  0  0  0
    7.4353    0.3733  -17.6519 C   0  0  0  0  0  0  0  0  0  0  0  0
    7.3212   -0.4118  -16.4065 C   0  0  0  0  0  0  0  0  0  0  0  0
   11.3513    8.0826   -5.8686 C   0  0  0  0  0  0  0  0  0  0  0  0
   11.6058    9.2041   -6.6394 C   0  0  0  0  0  0  0  0  0  0  0  0
   11.2665    9.2385   -7.9764 C   0  0  0  0  0  0  0  0  0  0  0  0
   10.6624    8.1691   -8.6087 C   0  0  0  0  0  0  0  0  0  0  0  0
   10.4071    7.0495   -7.8440 C   0  0  0  0  0  0  0  0  0  0  0  0
    9.8035    5.9845   -8.4812 C   0  0  0  0  0  0  0  0  0  0  0  0
    9.4874    6.0601   -9.7938 N   0  0  0  0  0  0  0  0  0  0  0  0
    9.7334    7.1472  -10.5435 C   0  0  0  0  0  0  0  0  0  0  0  0
    9.4186    7.1707  -11.7714 N   0  0  0  0  0  0  0  0  0  0  0  0
   10.3290    8.1960   -9.9117 N   0  0  0  0  0  0  0  0  0  0  0  0
   10.5325    9.0577  -10.4727 H   0  0  0  0  0  0  0  0  0  0  0  0
   10.7479    7.0191   -6.5075 C   0  0  0  0  0  0  0  0  0  0  0  0
   12.4046    8.0492   -1.7209 C   0  0  0  0  0  0  0  0  0  0  0  0
   12.3499    9.1806   -2.4516 N   0  0  0  0  0  0  0  0  0  0  0  0
   12.0193    9.1968   -3.7557 C   0  0  0  0  0  0  0  0  0  0  0  0
   11.7072    8.0377   -4.4518 C   0  0  0  0  0  0  0  0  0  0  0  0
   11.7571    6.8672   -3.7223 C   0  0  0  0  0  0  0  0  0  0  0  0
   12.1005    6.8729   -2.3779 C   0  0  0  0  0  0  0  0  0  0  0  0
 36 37  2  0
 37 38  1  0
 38 39  2  0
 39 24  1  0
 24 25  2  0
 25 26  1  0
 26 27  2  0
 27 28  1  0
 28 29  1  0
 29 30  2  0
 30 31  1  0
 31 32  2  0
 32  1  1  0
  1  2  2  0
  2  3  1  0
  3  4  2  0
  4  5  1  0
  5  6  2  0
  5  7  1  0
  7  8  1  0
  8  9  2  0
  9 10  1  0
 10 11  2  0
 11 12  1  0
 12 13  2  0
 11 14  1  0
 14 15  1  0
 15 16  2  0
 15 17  1  0
 17 18  1  0
 14 19  1  0
 19 20  2  0
 19 21  1  0
 21 22  1  0
 22 23  1  0
 31 33  1  0
 33 34  1  0
 28 35  2  0
 39 40  1  0
 40 41  2  0
 41 36  1  0
 35 24  1  0
 33 27  1  0
  6  1  1  0
 13  8  1  0
 14 23  1  6
 13  4  1  0
 18 10  1  0
M  END
>  <minimizedAffinity>  (241) 
-17.24729

$$$$
Mol: 198_7 - SminaDock
     RDKit          3D

 37 43  0  0  0  0  0  0  0  0999 V2000
    8.7359    6.0355  -12.2235 C   0  0  0  0  0  0  0  0  0  0  0  0
    9.4293    5.4292  -13.2720 C   0  0  0  0  0  0  0  0  0  0  0  0
    8.9236    4.3210  -13.8950 C   0  0  0  0  0  0  0  0  0  0  0  0
    7.7185    3.8015  -13.4810 C   0  0  0  0  0  0  0  0  0  0  0  0
    7.0211    4.3874  -12.4480 C   0  0  0  0  0  0  0  0  0  0  0  0
    7.5324    5.5243  -11.8034 C   0  0  0  0  0  0  0  0  0  0  0  0
    5.7696    3.6370  -12.2071 C   0  0  0  0  0  0  0  0  0  0  0  0
    5.7757    2.5449  -13.1888 C   0  0  0  0  0  0  0  0  0  0  0  0
    4.8777    1.5054  -13.4640 C   0  0  0  0  0  0  0  0  0  0  0  0
    5.0888    0.5730  -14.4523 C   0  0  0  0  0  0  0  0  0  0  0  0
    6.2445    0.6839  -15.1960 C   0  0  0  0  0  0  0  0  0  0  0  0
    7.1351    1.7098  -14.9275 C   0  0  0  0  0  0  0  0  0  0  0  0
    6.9233    2.6528  -13.9291 C   0  0  0  0  0  0  0  0  0  0  0  0
    6.4764   -0.2488  -16.1994 O   0  0  0  0  0  0  0  0  0  0  0  0
    5.6022   -1.2847  -16.4887 C   0  0  0  0  0  0  0  0  0  0  0  0
    5.9570   -2.2428  -17.2333 O   0  0  0  0  0  0  0  0  0  0  0  0
    4.2167   -1.3378  -15.9536 C   0  0  0  0  0  0  0  0  0  0  0  0
    4.1425   -0.5048  -14.7268 C   0  0  0  0  0  0  0  0  0  0  0  0
    3.2218   -0.7556  -13.9078 O   0  0  0  0  0  0  0  0  0  0  0  0
   11.3381    8.1403   -5.8486 C   0  0  0  0  0  0  0  0  0  0  0  0
   11.5339    9.2657   -6.6178 C   0  0  0  0  0  0  0  0  0  0  0  0
   11.1782    9.3278   -7.9414 C   0  0  0  0  0  0  0  0  0  0  0  0
   10.6040    8.2240   -8.5224 C   0  0  0  0  0  0  0  0  0  0  0  0
   10.2358    8.2449   -9.8355 N   0  0  0  0  0  0  0  0  0  0  0  0
    9.6771    7.1466  -10.3693 C   0  0  0  0  0  0  0  0  0  0  0  0
    9.3282    7.1798  -11.6313 N   0  0  0  0  0  0  0  0  0  0  0  0
    9.4752    6.0359   -9.6406 N   0  0  0  0  0  0  0  0  0  0  0  0
    9.0366    5.2166  -10.1148 H   0  0  0  0  0  0  0  0  0  0  0  0
    9.8220    5.9725   -8.3469 C   0  0  0  0  0  0  0  0  0  0  0  0
   10.4040    7.0928   -7.7601 C   0  0  0  0  0  0  0  0  0  0  0  0
   10.7628    7.0278   -6.4220 C   0  0  0  0  0  0  0  0  0  0  0  0
   12.4441    7.9942   -1.7520 C   0  0  0  0  0  0  0  0  0  0  0  0
   12.0795    6.8342   -2.4011 C   0  0  0  0  0  0  0  0  0  0  0  0
   11.7168    6.8822   -3.7442 C   0  0  0  0  0  0  0  0  0  0  0  0
   11.7137    8.0703   -4.4456 C   0  0  0  0  0  0  0  0  0  0  0  0
   12.0811    9.2205   -3.7811 C   0  0  0  0  0  0  0  0  0  0  0  0
   12.4454    9.1875   -2.4400 C   0  0  0  0  0  0  0  0  0  0  0  0
 32 33  2  0
 33 34  1  0
 34 35  2  0
 35 20  1  0
 20 21  1  0
 21 22  2  0
 22 23  1  0
 23 24  2  0
 24 25  1  0
 25 26  2  0
 26  1  1  0
  1  2  2  0
  2  3  1  0
  3  4  2  0
  4  5  1  0
  5  6  2  0
  5  7  1  0
  7  8  1  0
  8  9  2  0
  9 10  1  0
 10 11  2  0
 11 12  1  0
 12 13  2  0
 11 14  1  0
 14 15  1  0
 15 16  2  0
 15 17  1  0
 17 18  1  0
 18 19  2  0
 25 27  1  0
 27 28  1  0
 27 29  1  0
 29 30  2  0
 30 31  1  0
 35 36  1  0
 36 37  2  0
 37 32  1  0
 31 20  2  0
 30 23  1  0
  6  1  1  0
 13  8  1  0
 13  4  1  0
 18 10  1  0
M  END
>  <minimizedAffinity>  (242) 
-17.21906

$$$$
Mol: 157_19 - SminaDock
     RDKit          3D

 37 43  0  0  0  0  0  0  0  0999 V2000
    9.1332    6.4492  -12.2682 C   0  0  0  0  0  0  0  0  0  0  0  0
    9.9604    5.7838  -13.1495 C   0  0  0  0  0  0  0  0  0  0  0  0
    9.4943    4.7075  -13.8629 C   0  0  0  0  0  0  0  0  0  0  0  0
    8.1745    4.2525  -13.7214 C   0  0  0  0  0  0  0  0  0  0  0  0
    7.3894    4.9418  -12.8367 C   0  0  0  0  0  0  0  0  0  0  0  0
    7.8293    6.0284  -12.1043 C   0  0  0  0  0  0  0  0  0  0  0  0
    5.9649    4.6675  -12.5006 C   0  0  0  0  0  0  0  0  0  0  0  0
    5.9176    3.1919  -12.1004 C   0  0  0  0  0  0  0  0  0  0  0  0
    5.8765    2.3319  -13.3144 C   0  0  0  0  0  0  0  0  0  0  0  0
    6.7591    2.3121  -14.3708 C   0  0  0  0  0  0  0  0  0  0  0  0
    6.5570    1.4304  -15.4399 C   0  0  0  0  0  0  0  0  0  0  0  0
    5.4924    0.5742  -15.4674 C   0  0  0  0  0  0  0  0  0  0  0  0
    5.3083   -0.2993  -16.5455 C   0  0  0  0  0  0  0  0  0  0  0  0
    4.2175   -1.1433  -16.5243 C   0  0  0  0  0  0  0  0  0  0  0  0
    3.3470   -1.1053  -15.4550 C   0  0  0  0  0  0  0  0  0  0  0  0
    3.5224   -0.2453  -14.3868 C   0  0  0  0  0  0  0  0  0  0  0  0
    4.6159    0.6045  -14.4025 C   0  0  0  0  0  0  0  0  0  0  0  0
    4.8021    1.4704  -13.3383 C   0  0  0  0  0  0  0  0  0  0  0  0
    7.9720    3.1049  -14.6024 C   0  0  0  0  0  0  0  0  0  0  0  0
   11.3818    8.1848   -5.5707 C   0  0  0  0  0  0  0  0  0  0  0  0
   11.4018    9.4078   -6.1982 C   0  0  0  0  0  0  0  0  0  0  0  0
   11.0378    9.5340   -7.5165 C   0  0  0  0  0  0  0  0  0  0  0  0
   10.6454    8.4238   -8.2280 C   0  0  0  0  0  0  0  0  0  0  0  0
   10.6154    7.1954   -7.6312 C   0  0  0  0  0  0  0  0  0  0  0  0
   10.2202    6.0987   -8.3585 C   0  0  0  0  0  0  0  0  0  0  0  0
    9.8717    6.2630   -9.6431 N   0  0  0  0  0  0  0  0  0  0  0  0
    9.8917    7.4589  -10.2560 C   0  0  0  0  0  0  0  0  0  0  0  0
    9.5465    7.5720  -11.4982 N   0  0  0  0  0  0  0  0  0  0  0  0
   10.2787    8.5231   -9.5385 N   0  0  0  0  0  0  0  0  0  0  0  0
   10.3128    9.4587   -9.9547 H   0  0  0  0  0  0  0  0  0  0  0  0
   10.9875    7.0854   -6.2950 C   0  0  0  0  0  0  0  0  0  0  0  0
   12.5335    7.9376   -1.4877 C   0  0  0  0  0  0  0  0  0  0  0  0
   12.5307    9.1540   -2.1399 C   0  0  0  0  0  0  0  0  0  0  0  0
   12.1548    9.2522   -3.4813 C   0  0  0  0  0  0  0  0  0  0  0  0
   11.7786    8.1159   -4.1708 C   0  0  0  0  0  0  0  0  0  0  0  0
   11.7875    6.9074   -3.5014 C   0  0  0  0  0  0  0  0  0  0  0  0
   12.1601    6.8021   -2.1679 C   0  0  0  0  0  0  0  0  0  0  0  0
 32 33  2  0
 33 34  1  0
 34 35  2  0
 35 20  1  0
 20 21  2  0
 21 22  1  0
 22 23  2  0
 23 24  1  0
 24 25  1  0
 25 26  2  0
 26 27  1  0
 27 28  2  0
 28  1  1  0
  1  2  2  0
  2  3  1  0
  3  4  2  0
  4  5  1  0
  5  6  2  0
  5  7  1  0
  7  8  1  0
  8  9  1  0
  9 10  2  0
 10 11  1  0
 11 12  2  0
 12 13  1  0
 13 14  2  0
 14 15  1  0
 15 16  2  0
 16 17  1  0
 17 18  2  0
 10 19  1  0
 27 29  1  0
 29 30  1  0
 24 31  2  0
 35 36  1  0
 36 37  2  0
 37 32  1  0
 31 20  1  0
 29 23  1  0
  6  1  1  0
 18  9  1  0
 19  4  1  0
 17 12  1  0
M  END
>  <minimizedAffinity>  (243) 
-17.15223

$$$$
Mol: 191_7 - SminaDock
     RDKit          3D

 41 48  0  0  0  0  0  0  0  0999 V2000
    8.7726    6.2614  -12.3391 C   0  0  0  0  0  0  0  0  0  0  0  0
    9.2324    5.7269  -13.5291 C   0  0  0  0  0  0  0  0  0  0  0  0
    8.6131    4.6451  -14.1127 C   0  0  0  0  0  0  0  0  0  0  0  0
    7.4982    4.0436  -13.5299 C   0  0  0  0  0  0  0  0  0  0  0  0
    7.0472    4.5773  -12.3512 C   0  0  0  0  0  0  0  0  0  0  0  0
    7.6739    5.6759  -11.7559 C   0  0  0  0  0  0  0  0  0  0  0  0
    5.8726    3.7831  -11.9316 C   0  0  0  0  0  0  0  0  0  0  0  0
    5.6784    2.7471  -12.9613 C   0  0  0  0  0  0  0  0  0  0  0  0
    4.7394    1.7144  -13.1099 C   0  0  0  0  0  0  0  0  0  0  0  0
    4.7629    0.8514  -14.1857 C   0  0  0  0  0  0  0  0  0  0  0  0
    5.7484    1.0258  -15.1338 C   0  0  0  0  0  0  0  0  0  0  0  0
    6.6763    2.0488  -14.9840 C   0  0  0  0  0  0  0  0  0  0  0  0
    6.6562    2.9176  -13.9052 C   0  0  0  0  0  0  0  0  0  0  0  0
    5.7736    0.0998  -16.2845 C   0  0  2  0  0  0  0  0  0  0  0  0
    4.3642   -0.1838  -16.6522 C   0  0  0  0  0  0  0  0  0  0  0  0
    3.9958   -0.0848  -17.8376 O   0  0  0  0  0  0  0  0  0  0  0  0
    3.5023   -0.5516  -15.6526 O   0  0  0  0  0  0  0  0  0  0  0  0
    3.7230   -0.2327  -14.2864 C   0  0  0  0  0  0  0  0  0  0  0  0
    6.4666   -1.1377  -15.8378 C   0  0  0  0  0  0  0  0  0  0  0  0
    5.8878   -2.1472  -15.4070 O   0  0  0  0  0  0  0  0  0  0  0  0
    7.8207   -0.8581  -16.0267 O   0  0  0  0  0  0  0  0  0  0  0  0
    7.9441   -0.0301  -17.1955 C   0  0  0  0  0  0  0  0  0  0  0  0
    6.6017    0.5600  -17.4195 C   0  0  0  0  0  0  0  0  0  0  0  0
   11.3564    8.0783   -5.8889 C   0  0  0  0  0  0  0  0  0  0  0  0
   11.6378    9.2400   -6.6116 C   0  0  0  0  0  0  0  0  0  0  0  0
   11.2963    9.3257   -7.9458 C   0  0  0  0  0  0  0  0  0  0  0  0
   10.6756    8.2739   -8.5849 C   0  0  0  0  0  0  0  0  0  0  0  0
   10.3824    7.1020   -7.8888 C   0  0  0  0  0  0  0  0  0  0  0  0
    9.7620    6.0373   -8.5076 C   0  0  0  0  0  0  0  0  0  0  0  0
    9.4576    6.1910   -9.8106 N   0  0  0  0  0  0  0  0  0  0  0  0
    9.7321    7.3093  -10.4943 C   0  0  0  0  0  0  0  0  0  0  0  0
    9.4142    7.3846  -11.7309 N   0  0  0  0  0  0  0  0  0  0  0  0
   10.3373    8.3557   -9.9020 N   0  0  0  0  0  0  0  0  0  0  0  0
   10.5528    9.2313  -10.4352 H   0  0  0  0  0  0  0  0  0  0  0  0
   10.7396    7.0613   -6.5658 C   0  0  0  0  0  0  0  0  0  0  0  0
   12.4121    7.8825   -1.8078 C   0  0  0  0  0  0  0  0  0  0  0  0
   12.4349    9.0933   -2.4676 C   0  0  0  0  0  0  0  0  0  0  0  0
   12.0832    9.1304   -3.8097 C   0  0  0  0  0  0  0  0  0  0  0  0
   11.7200    7.9873   -4.4687 C   0  0  0  0  0  0  0  0  0  0  0  0
   11.6885    6.7716   -3.8385 C   0  0  0  0  0  0  0  0  0  0  0  0
   12.0405    6.7404   -2.4987 C   0  0  0  0  0  0  0  0  0  0  0  0
 36 37  2  0
 37 38  1  0
 38 39  2  0
 39 24  1  0
 24 25  2  0
 25 26  1  0
 26 27  2  0
 27 28  1  0
 28 29  1  0
 29 30  2  0
 30 31  1  0
 31 32  2  0
 32  1  1  0
  1  2  2  0
  2  3  1  0
  3  4  2  0
  4  5  1  0
  5  6  2  0
  5  7  1  0
  7  8  1  0
  8  9  2  0
  9 10  1  0
 10 11  2  0
 11 12  1  0
 12 13  2  0
 11 14  1  0
 14 15  1  0
 15 16  2  0
 15 17  1  0
 17 18  1  0
 14 19  1  0
 19 20  2  0
 19 21  1  0
 21 22  1  0
 22 23  1  0
 31 33  1  0
 33 34  1  0
 28 35  2  0
 39 40  1  0
 40 41  2  0
 41 36  1  0
 35 24  1  0
 33 27  1  0
  6  1  1  0
 13  8  1  0
 14 23  1  6
 13  4  1  0
 18 10  1  0
M  END
>  <minimizedAffinity>  (244) 
-17.23996

$$$$
Mol: 153_25 - SminaDock
     RDKit          3D

 37 43  0  0  0  0  0  0  0  0999 V2000
    1.7643   -1.1457  -13.8775 H   0  0  0  0  0  0  0  0  0  0  0  0
    2.4242   -1.2430  -14.6342 O   0  0  0  0  0  0  0  0  0  0  0  0
    3.6534   -0.5642  -14.6630 C   0  0  0  0  0  0  0  0  0  0  0  0
    3.8337    0.4964  -13.9561 N   0  0  0  0  0  0  0  0  0  0  0  0
    5.1476    0.9975  -14.1527 C   0  0  0  0  0  0  0  0  0  0  0  0
    5.8186    0.1922  -15.0383 C   0  0  0  0  0  0  0  0  0  0  0  0
    7.1244    0.4831  -15.3872 C   0  0  0  0  0  0  0  0  0  0  0  0
    7.7513    1.6025  -14.8322 C   0  0  0  0  0  0  0  0  0  0  0  0
    7.0532    2.3899  -13.9501 C   0  0  0  0  0  0  0  0  0  0  0  0
    5.7574    2.1190  -13.5864 C   0  0  0  0  0  0  0  0  0  0  0  0
    5.0100    2.8924  -12.5741 C   0  0  0  0  0  0  0  0  0  0  0  0
    5.4584    4.2688  -12.4205 C   0  0  0  0  0  0  0  0  0  0  0  0
    6.9049    4.4682  -12.6186 C   0  0  0  0  0  0  0  0  0  0  0  0
    7.5136    5.5963  -12.0370 C   0  0  0  0  0  0  0  0  0  0  0  0
    8.8373    5.8362  -12.2911 C   0  0  0  0  0  0  0  0  0  0  0  0
    9.5740    4.9976  -13.0996 C   0  0  0  0  0  0  0  0  0  0  0  0
    8.9826    3.8812  -13.6765 C   0  0  0  0  0  0  0  0  0  0  0  0
    7.6526    3.6326  -13.4243 C   0  0  0  0  0  0  0  0  0  0  0  0
    4.8650   -0.8878  -15.4256 C   0  0  0  0  0  0  0  0  0  0  0  0
    9.4766    6.9760  -11.7107 N   0  0  0  0  0  0  0  0  0  0  0  0
    9.7969    6.9864  -10.4486 C   0  0  0  0  0  0  0  0  0  0  0  0
   10.4000    8.0553   -9.8888 N   0  0  0  0  0  0  0  0  0  0  0  0
   10.7460    8.1028   -8.5900 C   0  0  0  0  0  0  0  0  0  0  0  0
   11.3611    9.1969   -8.0228 C   0  0  0  0  0  0  0  0  0  0  0  0
   11.7038    9.2077   -6.6718 C   0  0  0  0  0  0  0  0  0  0  0  0
   11.4276    8.1066   -5.8709 C   0  0  0  0  0  0  0  0  0  0  0  0
   10.8107    7.0371   -6.4874 C   0  0  0  0  0  0  0  0  0  0  0  0
   10.4636    7.0004   -7.8120 C   0  0  0  0  0  0  0  0  0  0  0  0
    9.8463    5.9221   -8.4122 C   0  0  0  0  0  0  0  0  0  0  0  0
    9.5091    5.8963   -9.7133 N   0  0  0  0  0  0  0  0  0  0  0  0
    9.0354    5.0559  -10.1523 H   0  0  0  0  0  0  0  0  0  0  0  0
   11.7757    8.0951   -4.4582 C   0  0  0  0  0  0  0  0  0  0  0  0
   11.7404    6.9150   -3.7502 C   0  0  0  0  0  0  0  0  0  0  0  0
   12.0680    6.8665   -2.3943 C   0  0  0  0  0  0  0  0  0  0  0  0
   12.4352    8.0056   -1.7336 C   0  0  0  0  0  0  0  0  0  0  0  0
   12.4770    9.2092   -2.4320 C   0  0  0  0  0  0  0  0  0  0  0  0
   12.1467    9.2359   -3.7829 C   0  0  0  0  0  0  0  0  0  0  0  0
  1  2  1  0
  2  3  1  0
  3  4  2  0
  4  5  1  0
  5  6  2  0
  6  7  1  0
  7  8  2  0
  8  9  1  0
  9 10  2  0
 10 11  1  0
 11 12  1  0
 12 13  1  0
 13 14  2  0
 14 15  1  0
 15 20  1  0
 20 21  2  0
 21 22  1  0
 22 23  2  0
 23 24  1  0
 24 25  2  0
 25 26  1  0
 26 32  1  0
 32 33  2  0
 33 34  1  0
 34 35  2  0
 35 36  1  0
 36 37  2  0
 26 27  2  0
 27 28  1  0
 28 29  2  0
 29 30  1  0
 30 31  1  0
 15 16  2  0
 16 17  1  0
 17 18  2  0
  6 19  1  0
 19  3  1  0
 10  5  1  0
 18 13  1  0
 18  9  1  0
 30 21  1  0
 28 23  1  0
 37 32  1  0
M  END
>  <minimizedAffinity>  (245) 
-17.21029

$$$$
Mol: 152_61 - SminaDock
     RDKit          3D

 42 49  0  0  0  0  0  0  0  0999 V2000
    6.4244   -1.0051  -17.4724 C   0  0  2  0  0  0  0  0  0  0  0  0
    5.4286   -1.6187  -16.6708 O   0  0  0  0  0  0  0  0  0  0  0  0
    4.8210   -0.9398  -15.6291 C   0  0  0  0  0  0  0  0  0  0  0  0
    3.7098   -1.2692  -15.1315 O   0  0  0  0  0  0  0  0  0  0  0  0
    5.4946    0.2371  -15.0562 C   0  0  0  0  0  0  0  0  0  0  0  0
    4.9191    0.9402  -14.0284 C   0  0  0  0  0  0  0  0  0  0  0  0
    5.5373    2.0693  -13.4704 C   0  0  0  0  0  0  0  0  0  0  0  0
    6.7413    2.4149  -14.0215 C   0  0  0  0  0  0  0  0  0  0  0  0
    7.3413    1.7421  -15.0389 C   0  0  0  0  0  0  0  0  0  0  0  0
    6.7005    0.6152  -15.5765 C   0  0  0  0  0  0  0  0  0  0  0  0
    7.3307   -0.1332  -16.6691 C   0  0  0  0  0  0  0  0  0  0  0  0
    7.4029    3.6347  -13.5153 C   0  0  0  0  0  0  0  0  0  0  0  0
    8.6436    4.0334  -13.9652 C   0  0  0  0  0  0  0  0  0  0  0  0
    9.3064    5.1589  -13.4589 C   0  0  0  0  0  0  0  0  0  0  0  0
    8.7007    5.8978  -12.4749 C   0  0  0  0  0  0  0  0  0  0  0  0
    7.4659    5.4966  -12.0319 C   0  0  0  0  0  0  0  0  0  0  0  0
    6.7938    4.3729  -12.5328 C   0  0  0  0  0  0  0  0  0  0  0  0
    5.4531    4.0934  -12.0020 C   0  0  0  0  0  0  0  0  0  0  0  0
    4.9251    2.7638  -12.3430 C   0  0  0  0  0  0  0  0  0  0  0  0
    9.3527    7.0635  -11.9328 N   0  0  0  0  0  0  0  0  0  0  0  0
    9.6618    7.0363  -10.6756 C   0  0  0  0  0  0  0  0  0  0  0  0
    9.3930    5.9716   -9.8920 N   0  0  0  0  0  0  0  0  0  0  0  0
    9.6987    5.9083   -8.5845 C   0  0  0  0  0  0  0  0  0  0  0  0
   10.3245    6.9747   -7.9736 C   0  0  0  0  0  0  0  0  0  0  0  0
   10.6533    6.9438   -6.6343 C   0  0  0  0  0  0  0  0  0  0  0  0
   11.2798    8.0190   -6.0364 C   0  0  0  0  0  0  0  0  0  0  0  0
   11.5541    9.1122   -6.8479 C   0  0  0  0  0  0  0  0  0  0  0  0
   11.2282    9.1483   -8.1858 C   0  0  0  0  0  0  0  0  0  0  0  0
   10.5979    8.0626   -8.7806 C   0  0  0  0  0  0  0  0  0  0  0  0
   10.2742    8.0847  -10.0868 N   0  0  0  0  0  0  0  0  0  0  0  0
   10.4997    8.9294  -10.6596 H   0  0  0  0  0  0  0  0  0  0  0  0
   11.6466    8.0326   -4.6189 C   0  0  0  0  0  0  0  0  0  0  0  0
   11.6334    6.8637   -3.9038 C   0  0  0  0  0  0  0  0  0  0  0  0
   11.9733    6.8076   -2.5579 C   0  0  0  0  0  0  0  0  0  0  0  0
   12.3423    7.9540   -1.8872 C   0  0  0  0  0  0  0  0  0  0  0  0
   12.3544    9.1309   -2.6107 C   0  0  0  0  0  0  0  0  0  0  0  0
   12.0175    9.1922   -3.9481 C   0  0  0  0  0  0  0  0  0  0  0  0
    4.4433    0.6511  -20.0388 C   0  0  0  0  0  0  0  0  0  0  0  0
    5.6518    1.0840  -20.2830 O   0  0  0  0  0  0  0  0  0  0  0  0
    6.5015    0.5927  -19.4571 N   0  0  0  0  0  0  0  0  0  0  0  0
    5.8667   -0.2212  -18.5933 C   0  0  0  0  0  0  0  0  0  0  0  0
    4.5421   -0.1924  -18.9567 C   0  0  0  0  0  0  0  0  0  0  0  0
 38 39  1  0
 39 40  1  0
 40 41  2  0
  1 41  1  6
  1  2  1  0
  2  3  1  0
  3  4  2  0
  3  5  1  0
  5  6  2  0
  6  7  1  0
  7  8  2  0
  8  9  1  0
  9 10  2  0
 10 11  1  0
  8 12  1  0
 12 13  2  0
 13 14  1  0
 14 15  2  0
 15 20  1  0
 20 21  2  0
 21 22  1  0
 22 23  2  0
 23 24  1  0
 24 25  2  0
 25 26  1  0
 26 32  1  0
 32 33  2  0
 33 34  1  0
 34 35  2  0
 35 36  1  0
 36 37  2  0
 26 27  2  0
 27 28  1  0
 28 29  2  0
 29 30  1  0
 30 31  1  0
 15 16  1  0
 16 17  2  0
 17 18  1  0
 18 19  1  0
 41 42  1  0
 42 38  2  0
 11  1  1  0
 17 12  1  0
 10  5  1  0
 30 21  1  0
 19  7  1  0
 29 24  1  0
 37 32  1  0
M  END
>  <minimizedAffinity>  (246) 
-17.22013

$$$$
Mol: 195_56 - SminaDock
     RDKit          3D

 42 49  0  0  0  0  0  0  0  0999 V2000
    9.3208    0.4647  -14.4673 C   0  0  0  0  0  0  0  0  0  0  0  0
    8.4366    1.4412  -15.2687 C   0  0  1  0  0  0  0  0  0  0  0  0
    7.0763    1.2329  -14.7480 C   0  0  0  0  0  0  0  0  0  0  0  0
    6.4610    2.0827  -13.8579 C   0  0  0  0  0  0  0  0  0  0  0  0
    5.2005    1.7890  -13.3664 C   0  0  0  0  0  0  0  0  0  0  0  0
    4.5569    0.6219  -13.7840 C   0  0  0  0  0  0  0  0  0  0  0  0
    5.1842   -0.2190  -14.6771 C   0  0  0  0  0  0  0  0  0  0  0  0
    4.8264   -1.3949  -15.2566 N   0  0  0  0  0  0  0  0  0  0  0  0
    5.7997   -1.7817  -16.0386 O   0  0  0  0  0  0  0  0  0  0  0  0
    6.7836   -0.9139  -16.0014 N   0  0  0  0  0  0  0  0  0  0  0  0
    6.4287    0.0558  -15.1711 C   0  0  0  0  0  0  0  0  0  0  0  0
    7.1225    3.3266  -13.4848 C   0  0  0  0  0  0  0  0  0  0  0  0
    6.5227    4.1328  -12.5572 C   0  0  0  0  0  0  0  0  0  0  0  0
    7.2147    5.2974  -12.1849 C   0  0  0  0  0  0  0  0  0  0  0  0
    8.4346    5.6262  -12.7164 C   0  0  0  0  0  0  0  0  0  0  0  0
    8.9917    4.7674  -13.6546 C   0  0  0  0  0  0  0  0  0  0  0  0
    8.3442    3.6186  -14.0445 C   0  0  0  0  0  0  0  0  0  0  0  0
    8.9876    2.7892  -15.0769 C   0  0  2  0  0  0  0  0  0  0  0  0
    8.9886    3.5524  -16.4243 C   0  0  0  0  0  0  0  0  0  0  0  0
   10.2305    2.9041  -17.0539 C   0  0  0  0  0  0  0  0  0  0  0  0
   11.0979    2.7233  -15.9176 N   0  0  0  0  0  0  0  0  0  0  0  0
   10.4505    2.6582  -14.8253 C   0  0  0  0  0  0  0  0  0  0  0  0
   11.0772    2.4864  -13.5839 O   0  0  0  0  0  0  0  0  0  0  0  0
   12.0725    2.5947  -13.5000 H   0  0  0  0  0  0  0  0  0  0  0  0
    9.1150    6.8161  -12.3152 N   0  0  0  0  0  0  0  0  0  0  0  0
    9.2888    7.5881  -12.9907 H   0  0  0  0  0  0  0  0  0  0  0  0
    9.5453    6.9058  -10.9634 C   0  0  0  0  0  0  0  0  0  0  0  0
    9.2627    5.7756  -10.1872 C   0  0  0  0  0  0  0  0  0  0  0  0
    9.6173    5.7394   -8.8746 C   0  0  0  0  0  0  0  0  0  0  0  0
   10.2620    6.8576   -8.3495 C   0  0  0  0  0  0  0  0  0  0  0  0
   10.6363    6.8656   -7.0258 C   0  0  0  0  0  0  0  0  0  0  0  0
   11.2805    7.9389   -6.4196 C   0  0  0  0  0  0  0  0  0  0  0  0
   11.5396    9.0334   -7.2226 C   0  0  0  0  0  0  0  0  0  0  0  0
   11.1707    9.0446   -8.5579 C   0  0  0  0  0  0  0  0  0  0  0  0
   10.5350    7.9735   -9.1378 C   0  0  0  0  0  0  0  0  0  0  0  0
   10.1656    7.9743  -10.4474 N   0  0  0  0  0  0  0  0  0  0  0  0
   11.6629    7.9082   -5.0171 C   0  0  0  0  0  0  0  0  0  0  0  0
   11.3647    6.8407   -4.2069 C   0  0  0  0  0  0  0  0  0  0  0  0
   11.7228    6.8052   -2.8669 C   0  0  0  0  0  0  0  0  0  0  0  0
   12.3968    7.8849   -2.3565 C   0  0  0  0  0  0  0  0  0  0  0  0
   12.7165    8.9716   -3.1231 C   0  0  0  0  0  0  0  0  0  0  0  0
   12.3394    8.9619   -4.4529 C   0  0  0  0  0  0  0  0  0  0  0  0
  2  1  1  1
  2  3  1  0
  3  4  2  0
  4  5  1  0
  5  6  2  0
  6  7  1  0
  7  8  2  0
  8  9  1  0
  9 10  1  0
 10 11  2  0
  4 12  1  0
 12 13  2  0
 13 14  1  0
 14 15  2  0
 15 25  1  0
 25 27  1  0
 27 28  2  0
 28 29  1  0
 29 30  2  0
 30 31  1  0
 31 32  2  0
 32 37  1  0
 37 38  2  0
 38 39  1  0
 39 40  2  0
 40 41  1  0
 41 42  2  0
 32 33  1  0
 33 34  2  0
 34 35  1  0
 35 36  2  0
 15 16  1  0
 16 17  2  0
 17 18  1  0
 18 19  1  6
 19 20  1  0
 20 21  1  0
 21 22  2  0
 22 23  1  0
 18  2  1  0
 11  3  1  0
 17 12  1  0
 22 18  1  0
 11  7  1  0
 36 27  1  0
 35 30  1  0
 42 37  1  0
 25 26  1  0
 23 24  1  0
M  END
>  <minimizedAffinity>  (247) 
-17.19535

$$$$
Mol: 165_47 - SminaDock
     RDKit          3D

 40 46  0  0  0  0  0  0  0  0999 V2000
    8.7145    5.6154  -12.4011 C   0  0  0  0  0  0  0  0  0  0  0  0
    9.3873    4.9393  -13.3678 C   0  0  0  0  0  0  0  0  0  0  0  0
    8.8838    3.8128  -13.9971 C   0  0  0  0  0  0  0  0  0  0  0  0
    7.6372    3.3652  -13.6139 C   0  0  0  0  0  0  0  0  0  0  0  0
    6.9128    4.0082  -12.6411 C   0  0  0  0  0  0  0  0  0  0  0  0
    7.4570    5.1509  -12.0242 C   0  0  0  0  0  0  0  0  0  0  0  0
    5.5959    3.5379  -12.2147 C   0  0  0  0  0  0  0  0  0  0  0  0
    5.0049    2.3821  -12.8885 C   0  0  0  0  0  0  0  0  0  0  0  0
    5.8158    1.7162  -13.9065 C   0  0  0  0  0  0  0  0  0  0  0  0
    5.2769    0.5858  -14.5220 C   0  0  0  0  0  0  0  0  0  0  0  0
    5.9660   -0.0946  -15.4958 C   0  0  0  0  0  0  0  0  0  0  0  0
    7.2066    0.3997  -15.8243 C   0  0  0  0  0  0  0  0  0  0  0  0
    7.7432    1.5272  -15.2092 C   0  0  0  0  0  0  0  0  0  0  0  0
    7.0493    2.1852  -14.2511 C   0  0  0  0  0  0  0  0  0  0  0  0
    8.0821   -0.1542  -16.8066 N   0  0  0  0  0  0  0  0  0  0  0  0
    9.0726    0.2192  -16.7524 H   0  0  0  0  0  0  0  0  0  0  0  0
    7.8364   -1.1153  -17.8353 C   0  0  0  0  0  0  0  0  0  0  0  0
    8.7941   -1.5285  -18.5261 O   0  0  0  0  0  0  0  0  0  0  0  0
    6.5563   -1.6141  -18.0997 O   0  0  0  0  0  0  0  0  0  0  0  0
    5.3106   -1.3904  -17.5244 C   0  0  2  0  0  0  0  0  0  0  0  0
    4.7258   -0.1380  -18.1475 C   0  0  0  0  0  0  0  0  0  0  0  0
    5.2759   -1.2549  -16.0473 C   0  0  0  0  0  0  0  0  0  0  0  0
   11.2534    8.0709   -5.9981 C   0  0  0  0  0  0  0  0  0  0  0  0
   11.4097    9.1786   -6.8272 C   0  0  0  0  0  0  0  0  0  0  0  0
   11.0323    9.1348   -8.1594 C   0  0  0  0  0  0  0  0  0  0  0  0
   10.4832    7.9747   -8.7107 C   0  0  0  0  0  0  0  0  0  0  0  0
   10.3355    6.8929   -7.8853 C   0  0  0  0  0  0  0  0  0  0  0  0
    9.8006    5.7478   -8.4293 C   0  0  0  0  0  0  0  0  0  0  0  0
    9.4453    5.7288   -9.7363 N   0  0  0  0  0  0  0  0  0  0  0  0
    9.5845    6.7796  -10.5521 C   0  0  0  0  0  0  0  0  0  0  0  0
    9.2593    6.7644  -11.7819 N   0  0  0  0  0  0  0  0  0  0  0  0
   10.1174    7.9245  -10.0138 N   0  0  0  0  0  0  0  0  0  0  0  0
   10.2241    8.7424  -10.6434 H   0  0  0  0  0  0  0  0  0  0  0  0
   10.7110    6.9394   -6.5605 C   0  0  0  0  0  0  0  0  0  0  0  0
   12.4013    8.0239   -1.8696 C   0  0  0  0  0  0  0  0  0  0  0  0
   12.0490    6.8742   -2.5505 C   0  0  0  0  0  0  0  0  0  0  0  0
   11.6795    6.8826   -3.8726 C   0  0  0  0  0  0  0  0  0  0  0  0
   11.6454    8.0670   -4.5865 C   0  0  0  0  0  0  0  0  0  0  0  0
   11.9914    9.2240   -3.9333 C   0  0  0  0  0  0  0  0  0  0  0  0
   12.3642    9.2097   -2.5978 C   0  0  0  0  0  0  0  0  0  0  0  0
 35 36  2  0
 36 37  1  0
 37 38  2  0
 38 23  1  0
 23 24  2  0
 24 25  1  0
 25 26  2  0
 26 27  1  0
 27 28  1  0
 28 29  2  0
 29 30  1  0
 30 31  2  0
 31  1  1  0
  1  2  2  0
  2  3  1  0
  3  4  2  0
  4  5  1  0
  5  6  2  0
  5  7  1  0
  7  8  1  0
  8  9  1  0
  9 10  2  0
 10 11  1  0
 11 12  2  0
 12 13  1  0
 13 14  2  0
 12 15  1  0
 15 16  1  0
 15 17  1  0
 17 18  2  0
 17 19  1  0
 19 20  1  0
 20 21  1  6
 20 22  1  0
 30 32  1  0
 32 33  1  0
 27 34  2  0
 38 39  1  0
 39 40  2  0
 40 35  1  0
 34 23  1  0
 32 26  1  0
  6  1  1  0
 14  9  1  0
 14  4  1  0
 22 11  1  0
M  END
>  <minimizedAffinity>  (248) 
-17.21175

$$$$
Mol: 165_30 - SminaDock
     RDKit          3D

 41 47  0  0  0  0  0  0  0  0999 V2000
    8.7684    5.8656  -12.3213 C   0  0  0  0  0  0  0  0  0  0  0  0
    9.4403    5.3179  -13.3908 C   0  0  0  0  0  0  0  0  0  0  0  0
    8.8941    4.2453  -14.0635 C   0  0  0  0  0  0  0  0  0  0  0  0
    7.6857    3.7407  -13.6531 C   0  0  0  0  0  0  0  0  0  0  0  0
    7.0156    4.3008  -12.5723 C   0  0  0  0  0  0  0  0  0  0  0  0
    7.5614    5.3821  -11.8907 C   0  0  0  0  0  0  0  0  0  0  0  0
    5.7248    3.7814  -12.1194 C   0  0  0  0  0  0  0  0  0  0  0  0
    5.1665    2.6292  -12.8357 C   0  0  0  0  0  0  0  0  0  0  0  0
    5.9170    2.0838  -13.9731 C   0  0  0  0  0  0  0  0  0  0  0  0
    5.3381    0.9909  -14.6399 C   0  0  0  0  0  0  0  0  0  0  0  0
    6.0009    0.4394  -15.7115 C   0  0  0  0  0  0  0  0  0  0  0  0
    7.2111    0.9757  -16.0969 C   0  0  0  0  0  0  0  0  0  0  0  0
    7.7904    2.0585  -15.4408 C   0  0  0  0  0  0  0  0  0  0  0  0
    7.1239    2.5987  -14.3781 C   0  0  0  0  0  0  0  0  0  0  0  0
    8.0791    0.5326  -17.2098 C   0  0  0  0  0  0  0  0  0  0  0  0
    9.0428    1.3046  -17.5286 O   0  0  0  0  0  0  0  0  0  0  0  0
    7.9176   -0.6827  -17.9438 N   0  0  0  0  0  0  0  0  0  0  0  0
    6.7631   -1.5083  -18.0172 C   0  0  0  0  0  0  0  0  0  0  0  0
    6.9248   -2.6610  -18.4759 O   0  0  0  0  0  0  0  0  0  0  0  0
    5.3925   -1.1167  -17.5973 C   0  0  1  0  0  0  0  0  0  0  0  0
    4.9731    0.0000  -18.5614 C   0  0  0  0  0  0  0  0  0  0  0  0
    4.4043   -2.2401  -17.8263 C   0  0  0  0  0  0  0  0  0  0  0  0
    5.3247   -0.6329  -16.2820 O   0  0  0  0  0  0  0  0  0  0  0  0
   11.3460    8.1273   -5.9093 C   0  0  0  0  0  0  0  0  0  0  0  0
   11.5600    9.2536   -6.6771 C   0  0  0  0  0  0  0  0  0  0  0  0
   11.1933    9.2265   -8.0005 C   0  0  0  0  0  0  0  0  0  0  0  0
   10.6172    8.0906   -8.5625 C   0  0  0  0  0  0  0  0  0  0  0  0
   10.2540    8.0563   -9.8595 N   0  0  0  0  0  0  0  0  0  0  0  0
    9.6963    6.9638  -10.4112 C   0  0  0  0  0  0  0  0  0  0  0  0
    9.3589    6.9647  -11.6579 N   0  0  0  0  0  0  0  0  0  0  0  0
    9.4650    5.8390   -9.7104 N   0  0  0  0  0  0  0  0  0  0  0  0
    9.0361    4.9862  -10.1186 H   0  0  0  0  0  0  0  0  0  0  0  0
    9.8334    5.8750   -8.3958 C   0  0  0  0  0  0  0  0  0  0  0  0
   10.3998    6.9623   -7.8044 C   0  0  0  0  0  0  0  0  0  0  0  0
   10.7740    7.0046   -6.4744 C   0  0  0  0  0  0  0  0  0  0  0  0
   12.4197    7.9472   -1.7650 C   0  0  0  0  0  0  0  0  0  0  0  0
   12.0685    6.8178   -2.4717 C   0  0  0  0  0  0  0  0  0  0  0  0
   11.7208    6.8954   -3.8234 C   0  0  0  0  0  0  0  0  0  0  0  0
   11.7176    8.0970   -4.4905 C   0  0  0  0  0  0  0  0  0  0  0  0
   12.0682    9.2251   -3.7852 C   0  0  0  0  0  0  0  0  0  0  0  0
   12.4157    9.1513   -2.4367 C   0  0  0  0  0  0  0  0  0  0  0  0
 36 37  2  0
 37 38  1  0
 38 39  2  0
 39 24  1  0
 24 25  1  0
 25 26  2  0
 26 27  1  0
 27 28  2  0
 28 29  1  0
 29 30  2  0
 30  1  1  0
  1  2  2  0
  2  3  1  0
  3  4  2  0
  4  5  1  0
  5  6  2  0
  5  7  1  0
  7  8  1  0
  8  9  1  0
  9 10  2  0
 10 11  1  0
 11 12  2  0
 12 13  1  0
 13 14  2  0
 12 15  1  0
 15 16  2  0
 15 17  1  0
 17 18  1  0
 18 19  2  0
 18 20  1  0
 20 21  1  6
 20 22  1  0
 20 23  1  0
 29 31  1  0
 31 32  1  0
 31 33  1  0
 33 34  2  0
 34 35  1  0
 39 40  1  0
 40 41  2  0
 41 36  1  0
 35 24  2  0
 34 27  1  0
  6  1  1  0
 14  9  1  0
 14  4  1  0
 23 11  1  0
M  CHG  1  17  -1
M  END
>  <minimizedAffinity>  (249) 
-17.21429

$$$$
Mol: 138_15 - SminaDock
     RDKit          3D

 45 52  0  0  0  0  0  0  0  0999 V2000
   10.6904    0.2018  -14.2695 H   0  0  0  0  0  0  0  0  0  0  0  0
    9.9705    0.9121  -14.3253 O   0  0  0  0  0  0  0  0  0  0  0  0
   10.1657    2.0320  -15.1442 C   0  0  0  0  0  0  0  0  0  0  0  0
   11.2675    2.4204  -15.5968 N   0  0  0  0  0  0  0  0  0  0  0  0
   11.1701    3.5623  -16.3831 C   0  0  0  0  0  0  0  0  0  0  0  0
   12.1146    4.1863  -16.9756 O   0  0  0  0  0  0  0  0  0  0  0  0
    9.8114    3.9349  -16.4236 N   0  0  0  0  0  0  0  0  0  0  0  0
    9.4371    4.7473  -16.9330 H   0  0  0  0  0  0  0  0  0  0  0  0
    9.0762    2.9616  -15.6200 C   0  0  2  0  0  0  0  0  0  0  0  0
    8.4867    3.6107  -14.4358 C   0  0  0  0  0  0  0  0  0  0  0  0
    9.1104    4.7153  -13.8483 C   0  0  0  0  0  0  0  0  0  0  0  0
    8.6455    5.3005  -12.7001 C   0  0  0  0  0  0  0  0  0  0  0  0
    7.5204    4.7621  -12.1224 C   0  0  0  0  0  0  0  0  0  0  0  0
    6.8698    3.6675  -12.6733 C   0  0  0  0  0  0  0  0  0  0  0  0
    7.3731    3.1111  -13.8326 C   0  0  0  0  0  0  0  0  0  0  0  0
    6.6434    2.0151  -14.4859 C   0  0  0  0  0  0  0  0  0  0  0  0
    5.5994    1.4802  -13.8348 N   0  0  0  0  0  0  0  0  0  0  0  0
    4.9302    0.4347  -14.3254 C   0  0  0  0  0  0  0  0  0  0  0  0
    3.9449   -0.0941  -13.7418 O   0  0  0  0  0  0  0  0  0  0  0  0
    5.3094   -0.1255  -15.5366 C   0  0  0  0  0  0  0  0  0  0  0  0
    6.3767    0.4215  -16.2044 C   0  0  0  0  0  0  0  0  0  0  0  0
    7.0831    1.5225  -15.6930 C   0  0  0  0  0  0  0  0  0  0  0  0
    8.1749    2.1341  -16.4691 C   0  0  0  0  0  0  0  0  0  0  0  0
    6.8350   -0.1281  -17.5021 C   0  0  0  0  0  0  0  0  0  0  0  0
    5.9286   -1.2462  -17.9479 C   0  0  0  0  0  0  0  0  0  0  0  0
    4.6368   -1.1482  -17.4911 O   0  0  0  0  0  0  0  0  0  0  0  0
    4.5793   -1.2901  -16.1025 C   0  0  0  0  0  0  0  0  0  0  0  0
    9.2735    6.4010  -12.1215 N   0  0  0  0  0  0  0  0  0  0  0  0
    9.6005    6.5195  -10.8882 C   0  0  0  0  0  0  0  0  0  0  0  0
   10.2067    7.6199  -10.4071 N   0  0  0  0  0  0  0  0  0  0  0  0
   10.5610    7.7718   -9.1189 C   0  0  0  0  0  0  0  0  0  0  0  0
   11.1765    8.8849   -8.6223 C   0  0  0  0  0  0  0  0  0  0  0  0
   11.5261    9.0013   -7.2826 C   0  0  0  0  0  0  0  0  0  0  0  0
   11.2592    7.9800   -6.3933 C   0  0  0  0  0  0  0  0  0  0  0  0
   10.6323    6.8565   -6.9199 C   0  0  0  0  0  0  0  0  0  0  0  0
   10.2862    6.7433   -8.2505 C   0  0  0  0  0  0  0  0  0  0  0  0
    9.6638    5.6252   -8.7684 C   0  0  0  0  0  0  0  0  0  0  0  0
    9.3194    5.4971  -10.0610 N   0  0  0  0  0  0  0  0  0  0  0  0
    8.8405    4.6188  -10.4231 H   0  0  0  0  0  0  0  0  0  0  0  0
   11.6088    8.0603   -4.9795 C   0  0  0  0  0  0  0  0  0  0  0  0
   12.1608    9.1803   -4.3899 C   0  0  0  0  0  0  0  0  0  0  0  0
   12.4873    9.2592   -3.0709 C   0  0  0  0  0  0  0  0  0  0  0  0
   12.2541    8.1467   -2.2568 C   0  0  0  0  0  0  0  0  0  0  0  0
   11.7012    7.0058   -2.8160 C   0  0  0  0  0  0  0  0  0  0  0  0
   11.3851    6.9736   -4.1667 C   0  0  0  0  0  0  0  0  0  0  0  0
  1  2  1  0
  2  3  1  0
  3  4  2  0
  4  5  1  0
  5  6  2  0
  5  7  1  0
  7  8  1  0
  9  7  1  0
  9 10  1  0
 10 11  2  0
 11 12  1  0
 12 28  1  0
 28 29  2  0
 29 30  1  0
 30 31  2  0
 31 32  1  0
 32 33  2  0
 33 34  1  0
 34 40  1  0
 40 41  2  0
 41 42  1  0
 42 43  2  0
 43 44  1  0
 44 45  2  0
 34 35  2  0
 35 36  1  0
 36 37  2  0
 37 38  1  0
 38 39  1  0
 12 13  2  0
 13 14  1  0
 14 15  2  0
 15 16  1  0
 16 17  1  0
 17 18  1  0
 18 19  2  0
 18 20  1  0
 20 21  2  0
 21 22  1  0
 22 23  1  0
 21 24  1  0
 24 25  1  0
 25 26  1  0
 26 27  1  0
  9  3  1  0
 15 10  1  0
 22 16  2  0
  9 23  1  6
 38 29  1  0
 27 20  1  0
 36 31  1  0
 45 40  1  0
M  CHG  1  17  -1
M  END
>  <minimizedAffinity>  (250) 
-17.15247

$$$$
Mol: 179_26 - SminaDock
     RDKit          3D

 39 45  0  0  0  0  0  0  0  0999 V2000
    5.6134   -1.5921  -16.8083 C   0  0  0  0  0  0  0  0  0  0  0  0
    6.8280   -1.2279  -17.2854 N   0  0  0  0  0  0  0  0  0  0  0  0
    7.4605   -0.1617  -16.7696 C   0  0  0  0  0  0  0  0  0  0  0  0
    8.7382    0.2387  -17.2565 N   0  0  0  0  0  0  0  0  0  0  0  0
    9.4443   -0.4901  -17.4822 H   0  0  0  0  0  0  0  0  0  0  0  0
    9.0110    1.2332  -17.4019 H   0  0  0  0  0  0  0  0  0  0  0  0
    6.8321    0.5289  -15.7560 C   0  0  0  0  0  0  0  0  0  0  0  0
    7.4454    1.6426  -15.1869 C   0  0  0  0  0  0  0  0  0  0  0  0
    6.8111    2.3060  -14.1932 C   0  0  0  0  0  0  0  0  0  0  0  0
    5.5769    1.9483  -13.6941 C   0  0  0  0  0  0  0  0  0  0  0  0
    4.9575    0.8227  -14.2717 C   0  0  0  0  0  0  0  0  0  0  0  0
    5.5911    0.1476  -15.2766 C   0  0  0  0  0  0  0  0  0  0  0  0
    4.9873   -0.9336  -15.8245 N   0  0  0  0  0  0  0  0  0  0  0  0
    4.8803    2.6093  -12.5812 C   0  0  0  0  0  0  0  0  0  0  0  0
    5.3978    3.9342  -12.2026 C   0  0  0  0  0  0  0  0  0  0  0  0
    6.7510    4.2351  -12.6457 C   0  0  0  0  0  0  0  0  0  0  0  0
    7.3661    5.3634  -12.0573 C   0  0  0  0  0  0  0  0  0  0  0  0
    8.6113    5.7032  -12.4855 C   0  0  0  0  0  0  0  0  0  0  0  0
    9.2747    4.9963  -13.4531 C   0  0  0  0  0  0  0  0  0  0  0  0
    8.6704    3.9025  -14.0175 C   0  0  0  0  0  0  0  0  0  0  0  0
    7.4121    3.5306  -13.6072 C   0  0  0  0  0  0  0  0  0  0  0  0
    9.2618    6.8251  -11.9223 N   0  0  0  0  0  0  0  0  0  0  0  0
    9.5905    6.8466  -10.6870 C   0  0  0  0  0  0  0  0  0  0  0  0
    9.3118    5.7669   -9.8870 C   0  0  0  0  0  0  0  0  0  0  0  0
    9.6559    5.7706   -8.5559 C   0  0  0  0  0  0  0  0  0  0  0  0
   10.2948    6.8705   -7.9910 C   0  0  0  0  0  0  0  0  0  0  0  0
   10.6485    6.8963   -6.6575 C   0  0  0  0  0  0  0  0  0  0  0  0
   11.2824    7.9770   -6.0757 C   0  0  0  0  0  0  0  0  0  0  0  0
   11.5477    9.0532   -6.9223 C   0  0  0  0  0  0  0  0  0  0  0  0
   11.1960    9.0309   -8.2544 C   0  0  0  0  0  0  0  0  0  0  0  0
   10.5602    7.9378   -8.8217 C   0  0  0  0  0  0  0  0  0  0  0  0
   10.2166    7.9207  -10.1275 N   0  0  0  0  0  0  0  0  0  0  0  0
   10.4260    8.7413  -10.7460 H   0  0  0  0  0  0  0  0  0  0  0  0
   11.6519    8.0034   -4.6712 C   0  0  0  0  0  0  0  0  0  0  0  0
   12.0144    9.1660   -4.0291 C   0  0  0  0  0  0  0  0  0  0  0  0
   12.3610    9.1501   -2.6840 C   0  0  0  0  0  0  0  0  0  0  0  0
   12.3506    7.9705   -1.9600 C   0  0  0  0  0  0  0  0  0  0  0  0
   11.9849    6.8068   -2.6138 C   0  0  0  0  0  0  0  0  0  0  0  0
   11.6448    6.8405   -3.9449 C   0  0  0  0  0  0  0  0  0  0  0  0
  1  2  2  0
  2  3  1  0
  3  4  1  0
  4  5  1  0
  4  6  1  0
  3  7  2  0
  7  8  1  0
  8  9  2  0
  9 10  1  0
 10 11  2  0
 11 12  1  0
 12 13  2  0
 10 14  1  0
 14 15  1  0
 15 16  1  0
 16 17  2  0
 17 18  1  0
 18 22  1  0
 22 23  2  0
 23 24  1  0
 24 25  2  0
 25 26  1  0
 26 27  2  0
 27 28  1  0
 28 34  1  0
 34 35  2  0
 35 36  1  0
 36 37  2  0
 37 38  1  0
 38 39  2  0
 28 29  2  0
 29 30  1  0
 30 31  2  0
 31 32  1  0
 32 33  1  0
 18 19  2  0
 19 20  1  0
 20 21  2  0
 13  1  1  0
 21 16  1  0
 12  7  1  0
 32 23  1  0
 21  9  1  0
 31 26  1  0
 39 34  1  0
M  END
>  <minimizedAffinity>  (251) 
-17.20798

$$$$
Mol: 94_24 - SminaDock
     RDKit          3D

 39 45  0  0  0  0  0  0  0  0999 V2000
    8.7123    5.8728  -13.0068 N   0  0  0  0  0  0  0  0  0  0  0  0
    9.3192    5.8686  -11.7935 C   0  0  0  0  0  0  0  0  0  0  0  0
    9.0422    4.9883  -10.8243 C   0  0  0  0  0  0  0  0  0  0  0  0
    9.3410    5.3285   -9.4866 C   0  0  0  0  0  0  0  0  0  0  0  0
    9.8867    6.5201   -9.2433 C   0  0  0  0  0  0  0  0  0  0  0  0
   10.0936    6.9274   -7.9089 C   0  0  0  0  0  0  0  0  0  0  0  0
   10.5558    8.1519   -7.5476 C   0  0  0  0  0  0  0  0  0  0  0  0
   10.8436    9.0453   -8.5490 C   0  0  0  0  0  0  0  0  0  0  0  0
   10.6616    8.6873   -9.8815 C   0  0  0  0  0  0  0  0  0  0  0  0
   10.1916    7.4515  -10.2087 C   0  0  0  0  0  0  0  0  0  0  0  0
    9.8918    7.0960  -11.5444 N   0  0  0  0  0  0  0  0  0  0  0  0
   10.1309    7.7596  -12.2719 H   0  0  0  0  0  0  0  0  0  0  0  0
    3.3013   -0.8175  -15.2326 C   0  0  0  0  0  0  0  0  0  0  0  0
    3.6278    0.1337  -14.3407 N   0  0  0  0  0  0  0  0  0  0  0  0
    4.8795    0.4914  -14.0802 C   0  0  0  0  0  0  0  0  0  0  0  0
    5.9872   -0.0843  -14.6989 C   0  0  0  0  0  0  0  0  0  0  0  0
    5.6721   -1.0935  -15.6469 C   0  0  0  0  0  0  0  0  0  0  0  0
    4.3670   -1.4142  -15.8745 C   0  0  0  0  0  0  0  0  0  0  0  0
    7.4287    0.0505  -14.6571 C   0  0  0  0  0  0  0  0  0  0  0  0
    7.9960    1.2918  -14.1360 C   0  0  0  0  0  0  0  0  0  0  0  0
    9.2320    1.4592  -14.1682 O   0  0  0  0  0  0  0  0  0  0  0  0
    7.3176    2.4663  -13.5293 C   0  0  0  0  0  0  0  0  0  0  0  0
    8.1188    3.5898  -13.4632 C   0  0  0  0  0  0  0  0  0  0  0  0
    7.6970    4.8406  -13.0138 C   0  0  0  0  0  0  0  0  0  0  0  0
    6.4034    4.9398  -12.5986 C   0  0  0  0  0  0  0  0  0  0  0  0
    5.5563    3.8092  -12.6422 C   0  0  0  0  0  0  0  0  0  0  0  0
    6.0344    2.5780  -13.1186 C   0  0  0  0  0  0  0  0  0  0  0  0
    4.9693    1.6051  -13.1702 N   0  0  0  0  0  0  0  0  0  0  0  0
    4.2009    1.7375  -12.5387 H   0  0  0  0  0  0  0  0  0  0  0  0
   10.7021    8.5119   -6.1054 C   0  0  0  0  0  0  0  0  0  0  0  0
   10.8375    9.7128   -5.5736 C   0  0  0  0  0  0  0  0  0  0  0  0
   11.2960   10.0498   -4.3217 C   0  0  0  0  0  0  0  0  0  0  0  0
   11.6701    8.9309   -3.5272 C   0  0  0  0  0  0  0  0  0  0  0  0
   12.2722    9.2166   -2.3171 C   0  0  0  0  0  0  0  0  0  0  0  0
   12.7903    8.1412   -1.5738 C   0  0  0  0  0  0  0  0  0  0  0  0
   12.6588    6.8855   -2.0818 C   0  0  0  0  0  0  0  0  0  0  0  0
   12.0608    6.5952   -3.2722 C   0  0  0  0  0  0  0  0  0  0  0  0
   11.5502    7.6766   -4.0205 C   0  0  0  0  0  0  0  0  0  0  0  0
   11.0594    7.4126   -5.3132 C   0  0  0  0  0  0  0  0  0  0  0  0
 13 14  2  0
 14 15  1  0
 15 16  2  0
 16 17  1  0
 17 18  2  0
 16 19  1  0
 19 20  1  0
 20 21  2  0
 20 22  1  0
 22 23  2  0
 23 24  1  0
 24  1  1  0
  1  2  2  0
  2  3  1  0
  3  4  2  0
  4  5  1  0
  5  6  2  0
  6  7  1  0
  7 30  1  0
 30 31  2  0
 31 32  1  0
 32 33  2  0
 33 34  1  0
 34 35  2  0
 35 36  1  0
 36 37  2  0
 37 38  1  0
 38 39  2  0
  7  8  2  0
  8  9  1  0
  9 10  2  0
 10 11  1  0
 11 12  1  0
 24 25  2  0
 25 26  1  0
 26 27  2  0
 27 28  1  0
 28 29  1  0
 18 13  1  0
 27 22  1  0
 28 15  1  0
 11  2  1  0
 10  5  1  0
 39 30  1  0
 38 33  1  0
M  END
>  <minimizedAffinity>  (252) 
-17.16726

$$$$
Mol: 166_13 - SminaDock
     RDKit          3D

 41 47  0  0  0  0  0  0  0  0999 V2000
    2.2470   -1.7964  -14.2900 H   0  0  0  0  0  0  0  0  0  0  0  0
    2.6986   -0.9326  -13.9651 N   0  0  0  0  0  0  0  0  0  0  0  0
    3.9105   -0.6445  -14.2966 C   0  0  0  0  0  0  0  0  0  0  0  0
    4.5002    0.4853  -13.8712 N   0  0  0  0  0  0  0  0  0  0  0  0
    5.7575    0.8070  -14.2008 C   0  0  0  0  0  0  0  0  0  0  0  0
    6.3171    1.9970  -13.7272 C   0  0  0  0  0  0  0  0  0  0  0  0
    7.6028    2.2681  -14.0983 C   0  0  0  0  0  0  0  0  0  0  0  0
    8.3010    1.4293  -14.8841 N   0  0  0  0  0  0  0  0  0  0  0  0
    7.7489    0.2682  -15.3436 C   0  0  0  0  0  0  0  0  0  0  0  0
    8.4525   -0.4780  -16.0767 O   0  0  0  0  0  0  0  0  0  0  0  0
    6.4658   -0.0504  -15.0017 C   0  0  0  0  0  0  0  0  0  0  0  0
    5.8761   -1.2099  -15.4447 C   0  0  0  0  0  0  0  0  0  0  0  0
    4.6037   -1.4889  -15.0835 N   0  0  0  0  0  0  0  0  0  0  0  0
    4.1384   -2.3549  -15.4040 H   0  0  0  0  0  0  0  0  0  0  0  0
    8.2736    3.4868  -13.6535 C   0  0  0  0  0  0  0  0  0  0  0  0
    9.5685    3.7846  -14.0105 C   0  0  0  0  0  0  0  0  0  0  0  0
   10.1719    4.9673  -13.5572 C   0  0  0  0  0  0  0  0  0  0  0  0
    9.5164    5.8529  -12.7612 C   0  0  0  0  0  0  0  0  0  0  0  0
    8.2045    5.5165  -12.4204 C   0  0  0  0  0  0  0  0  0  0  0  0
    7.5801    4.3750  -12.8405 C   0  0  0  0  0  0  0  0  0  0  0  0
    6.2047    4.0734  -12.4546 C   0  0  0  0  0  0  0  0  0  0  0  0
    5.6064    4.9030  -11.7236 O   0  0  0  0  0  0  0  0  0  0  0  0
    5.4882    2.8545  -12.8760 C   0  0  0  0  0  0  0  0  0  0  0  0
   10.0810    7.0314  -12.2907 N   0  0  0  0  0  0  0  0  0  0  0  0
   10.1450    7.8477  -12.9907 H   0  0  0  0  0  0  0  0  0  0  0  0
   10.5828    7.2835  -10.9975 C   0  0  0  0  0  0  0  0  0  0  0  0
   11.7403    7.8822  -10.7270 N   0  0  0  0  0  0  0  0  0  0  0  0
   12.2125    8.1191   -9.4933 C   0  0  0  0  0  0  0  0  0  0  0  0
   11.4736    7.7285   -8.4066 C   0  0  0  0  0  0  0  0  0  0  0  0
   11.9008    7.9417   -7.1219 C   0  0  0  0  0  0  0  0  0  0  0  0
   11.1574    7.5487   -6.0238 C   0  0  0  0  0  0  0  0  0  0  0  0
    9.9568    6.9275   -6.2855 C   0  0  0  0  0  0  0  0  0  0  0  0
    9.5003    6.6992   -7.5701 C   0  0  0  0  0  0  0  0  0  0  0  0
   10.2784    7.1101   -8.6521 C   0  0  0  0  0  0  0  0  0  0  0  0
    9.8597    6.9011   -9.9065 N   0  0  0  0  0  0  0  0  0  0  0  0
   11.5953    7.7666   -4.6595 C   0  0  0  0  0  0  0  0  0  0  0  0
   11.9318    9.0271   -4.2166 C   0  0  0  0  0  0  0  0  0  0  0  0
   12.3559    9.2535   -2.9053 C   0  0  0  0  0  0  0  0  0  0  0  0
   12.4365    8.1744   -2.0361 C   0  0  0  0  0  0  0  0  0  0  0  0
   12.1046    6.9064   -2.4593 C   0  0  0  0  0  0  0  0  0  0  0  0
   11.6899    6.7185   -3.7597 C   0  0  0  0  0  0  0  0  0  0  0  0
  1  2  1  0
  2  3  2  0
  3  4  1  0
  4  5  2  0
  5  6  1  0
  6  7  2  0
  7  8  1  0
  8  9  1  0
  9 10  2  0
  9 11  1  0
 11 12  2  0
 12 13  1  0
 13 14  1  0
  7 15  1  0
 15 16  2  0
 16 17  1  0
 17 18  2  0
 18 24  1  0
 24 25  1  0
 24 26  1  0
 26 27  2  0
 27 28  1  0
 28 29  2  0
 29 30  1  0
 30 31  2  0
 31 36  1  0
 36 37  2  0
 37 38  1  0
 38 39  2  0
 39 40  1  0
 40 41  2  0
 31 32  1  0
 32 33  2  0
 33 34  1  0
 34 35  2  0
 18 19  1  0
 19 20  2  0
 20 21  1  0
 21 22  2  0
 21 23  1  0
 13  3  1  0
 20 15  1  0
 11  5  1  0
 35 26  1  0
 23  6  1  0
 34 29  1  0
 41 36  1  0
M  CHG  1   8  -1
M  END
>  <minimizedAffinity>  (253) 
-17.16494

$$$$
Mol: 90_35 - SminaDock
     RDKit          3D

 42 48  0  0  0  0  0  0  0  0999 V2000
    8.0120    5.2356  -13.3438 N   0  0  0  0  0  0  0  0  0  0  0  0
    8.5620    5.7190  -12.3073 C   0  0  0  0  0  0  0  0  0  0  0  0
    9.3306    6.8575  -12.4580 C   0  0  0  0  0  0  0  0  0  0  0  0
    9.9732    7.4676  -11.4066 C   0  0  0  0  0  0  0  0  0  0  0  0
    9.8329    6.9040  -10.1529 C   0  0  0  0  0  0  0  0  0  0  0  0
   10.4496    7.4602   -9.0456 C   0  0  0  0  0  0  0  0  0  0  0  0
   10.3118    6.9000   -7.7935 C   0  0  0  0  0  0  0  0  0  0  0  0
    9.5380    5.7576   -7.6544 C   0  0  0  0  0  0  0  0  0  0  0  0
    8.9317    5.2185   -8.7705 C   0  0  0  0  0  0  0  0  0  0  0  0
    9.0663    5.7771  -10.0327 C   0  0  0  0  0  0  0  0  0  0  0  0
    8.4418    5.1962  -11.0959 N   0  0  0  0  0  0  0  0  0  0  0  0
    7.8727    4.3456  -10.9557 H   0  0  0  0  0  0  0  0  0  0  0  0
    2.9031   -1.0154  -13.6022 H   0  0  0  0  0  0  0  0  0  0  0  0
    2.6877   -0.8366  -14.5940 O   0  0  0  0  0  0  0  0  0  0  0  0
    3.6789   -0.5396  -15.5019 C   0  0  0  0  0  0  0  0  0  0  0  0
    4.7065    0.1335  -15.1196 N   0  0  0  0  0  0  0  0  0  0  0  0
    4.7741    0.5539  -13.7337 C   0  0  0  0  0  0  0  0  0  0  0  0
    5.6124    1.7864  -13.6190 C   0  0  0  0  0  0  0  0  0  0  0  0
    5.2806    2.7611  -12.7243 C   0  0  0  0  0  0  0  0  0  0  0  0
    6.0700    3.9070  -12.6268 C   0  0  0  0  0  0  0  0  0  0  0  0
    7.1932    4.0906  -13.4178 C   0  0  0  0  0  0  0  0  0  0  0  0
    7.4849    3.0685  -14.3104 C   0  0  0  0  0  0  0  0  0  0  0  0
    6.7412    1.9423  -14.4321 C   0  0  0  0  0  0  0  0  0  0  0  0
    6.9903    0.8138  -15.3565 C   0  0  2  0  0  0  0  0  0  0  0  0
    7.5557   -0.3647  -14.5733 C   0  0  0  0  0  0  0  0  0  0  0  0
    8.4640   -0.5334  -15.6430 O   0  0  0  0  0  0  0  0  0  0  0  0
    8.2742    0.7930  -16.0968 C   0  0  0  0  0  0  0  0  0  0  0  0
    5.7550    0.4394  -16.0970 C   0  0  0  0  0  0  0  0  0  0  0  0
    3.5437   -0.9881  -16.8592 N   0  0  0  0  0  0  0  0  0  0  0  0
    2.9712   -0.4217  -17.5479 H   0  0  0  0  0  0  0  0  0  0  0  0
    4.1658   -2.1365  -17.2090 O   0  0  0  0  0  0  0  0  0  0  0  0
    3.7650   -2.4135  -18.0788 H   0  0  0  0  0  0  0  0  0  0  0  0
   10.9757    7.5179   -6.6674 C   0  0  0  0  0  0  0  0  0  0  0  0
   11.6266    8.7394   -6.7862 C   0  0  0  0  0  0  0  0  0  0  0  0
   12.2515    9.3206   -5.7258 C   0  0  0  0  0  0  0  0  0  0  0  0
   12.2278    8.6588   -4.4958 C   0  0  0  0  0  0  0  0  0  0  0  0
   12.8553    9.2316   -3.4097 C   0  0  0  0  0  0  0  0  0  0  0  0
   12.8745    8.6375   -2.1626 C   0  0  0  0  0  0  0  0  0  0  0  0
   12.2220    7.4138   -2.0444 C   0  0  0  0  0  0  0  0  0  0  0  0
   11.5912    6.8308   -3.1220 C   0  0  0  0  0  0  0  0  0  0  0  0
   11.5853    7.4481   -4.3685 C   0  0  0  0  0  0  0  0  0  0  0  0
   10.9550    6.8704   -5.4551 C   0  0  0  0  0  0  0  0  0  0  0  0
 13 14  1  0
 14 15  1  0
 15 29  1  0
 29 30  1  0
 29 31  1  0
 31 32  1  0
 15 16  2  0
 16 17  1  0
 17 18  1  0
 18 19  2  0
 19 20  1  0
 20 21  2  0
 21  1  1  0
  1  2  2  0
  2  3  1  0
  3  4  2  0
  4  5  1  0
  5  6  2  0
  6  7  1  0
  7 33  1  0
 33 34  2  0
 34 35  1  0
 35 36  2  0
 36 37  1  0
 37 38  2  0
 38 39  1  0
 39 40  2  0
 40 41  1  0
 41 42  2  0
  7  8  2  0
  8  9  1  0
  9 10  2  0
 10 11  1  0
 11 12  1  0
 21 22  1  0
 22 23  2  0
 23 24  1  0
 24 25  1  1
 25 26  1  0
 26 27  1  0
 24 28  1  0
 28 16  1  0
 23 18  1  0
 27 24  1  0
 11  2  1  0
 10  5  1  0
 42 33  1  0
 41 36  1  0
M  CHG  1  16   1
M  END
>  <minimizedAffinity>  (254) 
-17.20231

$$$$
Mol: 91_35 - SminaDock
     RDKit          3D

 46 53  0  0  0  0  0  0  0  0999 V2000
    7.3226    6.0932  -12.8332 C   0  0  0  0  0  0  0  0  0  0  0  0
    6.4511    7.1600  -12.8393 C   0  0  0  0  0  0  0  0  0  0  0  0
    6.8555    8.4195  -12.4604 C   0  0  0  0  0  0  0  0  0  0  0  0
    8.1362    8.6590  -12.0645 C   0  0  0  0  0  0  0  0  0  0  0  0
    9.0367    7.6033  -12.0488 C   0  0  0  0  0  0  0  0  0  0  0  0
    8.6140    6.3387  -12.4339 C   0  0  0  0  0  0  0  0  0  0  0  0
   10.0073   -1.4921  -17.6832 H   0  0  0  0  0  0  0  0  0  0  0  0
   10.4781   -0.7868  -17.0945 O   0  0  0  0  0  0  0  0  0  0  0  0
    9.7387    0.1643  -16.3758 C   0  0  0  0  0  0  0  0  0  0  0  0
    8.6392    0.5794  -16.8847 N   0  0  0  0  0  0  0  0  0  0  0  0
    7.8710    1.5502  -16.1662 C   0  0  0  0  0  0  0  0  0  0  0  0
    7.1317    2.3835  -16.7152 O   0  0  0  0  0  0  0  0  0  0  0  0
    8.0380    1.4761  -14.6515 C   0  0  1  0  0  0  0  0  0  0  0  0
    7.2136    2.5115  -14.0115 C   0  0  0  0  0  0  0  0  0  0  0  0
    7.7025    3.7665  -13.6914 C   0  0  0  0  0  0  0  0  0  0  0  0
    6.8646    4.7494  -13.2170 C   0  0  0  0  0  0  0  0  0  0  0  0
    5.5310    4.4534  -13.0700 C   0  0  0  0  0  0  0  0  0  0  0  0
    4.9852    3.2000  -13.3764 C   0  0  0  0  0  0  0  0  0  0  0  0
    5.8586    2.2436  -13.8446 C   0  0  0  0  0  0  0  0  0  0  0  0
    5.3214    0.8660  -13.9947 C   0  0  0  0  0  0  0  0  0  0  0  0
    3.9673    0.6054  -13.9702 C   0  0  0  0  0  0  0  0  0  0  0  0
    3.4831   -0.6561  -14.2357 C   0  0  0  0  0  0  0  0  0  0  0  0
    4.4075   -1.6468  -14.5266 C   0  0  0  0  0  0  0  0  0  0  0  0
    5.7468   -1.4159  -14.5548 C   0  0  0  0  0  0  0  0  0  0  0  0
    6.2229   -0.1359  -14.2822 C   0  0  0  0  0  0  0  0  0  0  0  0
    7.6641    0.1272  -14.1750 C   0  0  0  0  0  0  0  0  0  0  0  0
    9.5205    1.7255  -14.4445 C   0  0  0  0  0  0  0  0  0  0  0  0
   10.3079    0.6020  -15.0806 C   0  0  0  0  0  0  0  0  0  0  0  0
   10.3723    7.7724  -11.6368 N   0  0  0  0  0  0  0  0  0  0  0  0
   10.7775    7.8107  -10.4356 C   0  0  0  0  0  0  0  0  0  0  0  0
   12.1417    7.9827  -10.1550 C   0  0  0  0  0  0  0  0  0  0  0  0
   12.6143    8.0265   -8.8603 C   0  0  0  0  0  0  0  0  0  0  0  0
   11.7447    7.9013   -7.8024 C   0  0  0  0  0  0  0  0  0  0  0  0
   12.1708    7.9357   -6.4983 C   0  0  0  0  0  0  0  0  0  0  0  0
   11.2668    7.8022   -5.4389 C   0  0  0  0  0  0  0  0  0  0  0  0
    9.9306    7.6354   -5.7073 C   0  0  0  0  0  0  0  0  0  0  0  0
    9.5234    7.6035   -7.0246 C   0  0  0  0  0  0  0  0  0  0  0  0
   10.4030    7.7331   -8.1007 C   0  0  0  0  0  0  0  0  0  0  0  0
    9.9655    7.6935   -9.3713 N   0  0  0  0  0  0  0  0  0  0  0  0
    8.9387    7.5655   -9.5174 H   0  0  0  0  0  0  0  0  0  0  0  0
   11.7622    7.8390   -4.0722 C   0  0  0  0  0  0  0  0  0  0  0  0
   11.9961    9.0673   -3.4564 C   0  0  0  0  0  0  0  0  0  0  0  0
   12.4610    9.1813   -2.1633 C   0  0  0  0  0  0  0  0  0  0  0  0
   12.7124    8.0361   -1.4324 C   0  0  0  0  0  0  0  0  0  0  0  0
   12.4853    6.8176   -2.0313 C   0  0  0  0  0  0  0  0  0  0  0  0
   12.0152    6.7139   -3.3363 C   0  0  0  0  0  0  0  0  0  0  0  0
  7  8  1  0
  8  9  1  0
  9 10  2  0
 10 11  1  0
 11 12  2  0
 11 13  1  0
 13 14  1  0
 14 15  2  0
 15 16  1  0
 16  1  1  0
  1  2  2  0
  2  3  1  0
  3  4  2  0
  4  5  1  0
  5 29  1  0
 29 30  2  0
 30 31  1  0
 31 32  2  0
 32 33  1  0
 33 34  2  0
 34 35  1  0
 35 41  1  0
 41 42  2  0
 42 43  1  0
 43 44  2  0
 44 45  1  0
 45 46  2  0
 35 36  2  0
 36 37  1  0
 37 38  2  0
 38 39  1  0
 39 40  1  0
  5  6  2  0
 16 17  2  0
 17 18  1  0
 18 19  2  0
 19 20  1  0
 20 21  2  0
 21 22  1  0
 22 23  2  0
 23 24  1  0
 24 25  2  0
 25 26  1  0
 13 27  1  6
 27 28  1  0
 28  9  1  0
 26 13  1  0
 19 14  1  0
 25 20  1  0
  6  1  1  0
 39 30  1  0
 38 33  1  0
 46 41  1  0
M  END
>  <minimizedAffinity>  (255) 
-17.22333

$$$$
Mol: 163_4 - SminaDock
     RDKit          3D

 38 44  0  0  0  0  0  0  0  0999 V2000
    3.2604   -1.2398  -14.1894 H   0  0  0  0  0  0  0  0  0  0  0  0
    3.5164   -1.2526  -15.1471 O   0  0  0  0  0  0  0  0  0  0  0  0
    4.7223   -0.8387  -15.6679 C   0  0  0  0  0  0  0  0  0  0  0  0
    5.2659   -1.4771  -16.7229 N   0  0  0  0  0  0  0  0  0  0  0  0
    6.4394   -1.1132  -17.2683 C   0  0  0  0  0  0  0  0  0  0  0  0
    7.0799   -0.0649  -16.7214 N   0  0  0  0  0  0  0  0  0  0  0  0
    6.5895    0.6127  -15.6686 C   0  0  0  0  0  0  0  0  0  0  0  0
    7.2749    1.6948  -15.1258 C   0  0  0  0  0  0  0  0  0  0  0  0
    6.7272    2.3484  -14.0534 C   0  0  0  0  0  0  0  0  0  0  0  0
    5.5233    1.9615  -13.4991 C   0  0  0  0  0  0  0  0  0  0  0  0
    4.8385    0.8816  -14.0445 C   0  0  0  0  0  0  0  0  0  0  0  0
    5.3911    0.2354  -15.1170 C   0  0  0  0  0  0  0  0  0  0  0  0
    5.0321    2.6239  -12.2771 C   0  0  0  0  0  0  0  0  0  0  0  0
    5.4060    4.0426  -12.1951 C   0  0  0  0  0  0  0  0  0  0  0  0
    6.7997    4.3120  -12.5789 C   0  0  0  0  0  0  0  0  0  0  0  0
    7.4731    5.3973  -12.0123 C   0  0  0  0  0  0  0  0  0  0  0  0
    8.7307    5.7110  -12.4578 C   0  0  0  0  0  0  0  0  0  0  0  0
    9.3387    4.9666  -13.4596 C   0  0  0  0  0  0  0  0  0  0  0  0
    8.6739    3.8948  -14.0160 C   0  0  0  0  0  0  0  0  0  0  0  0
    7.4055    3.5752  -13.5665 C   0  0  0  0  0  0  0  0  0  0  0  0
    9.4375    6.8092  -11.8974 N   0  0  0  0  0  0  0  0  0  0  0  0
    9.7450    6.8462  -10.6356 C   0  0  0  0  0  0  0  0  0  0  0  0
   10.4201    7.9061  -10.1251 N   0  0  0  0  0  0  0  0  0  0  0  0
   10.7390    7.9519   -8.8340 C   0  0  0  0  0  0  0  0  0  0  0  0
   11.4274    9.0102   -8.2607 C   0  0  0  0  0  0  0  0  0  0  0  0
   11.7345    9.0133   -6.9220 C   0  0  0  0  0  0  0  0  0  0  0  0
   11.3716    7.9600   -6.0801 C   0  0  0  0  0  0  0  0  0  0  0  0
   10.6897    6.9253   -6.6794 C   0  0  0  0  0  0  0  0  0  0  0  0
   10.3706    6.9002   -8.0198 C   0  0  0  0  0  0  0  0  0  0  0  0
    9.6858    5.8342   -8.5582 C   0  0  0  0  0  0  0  0  0  0  0  0
    9.3727    5.8085   -9.8710 N   0  0  0  0  0  0  0  0  0  0  0  0
    8.8514    5.0020  -10.2932 H   0  0  0  0  0  0  0  0  0  0  0  0
   11.6986    7.9671   -4.6629 C   0  0  0  0  0  0  0  0  0  0  0  0
   12.0933    9.1422   -4.0614 C   0  0  0  0  0  0  0  0  0  0  0  0
   12.4188    9.2320   -2.7278 C   0  0  0  0  0  0  0  0  0  0  0  0
   12.3552    8.1094   -1.9369 C   0  0  0  0  0  0  0  0  0  0  0  0
   11.9650    6.9165   -2.5019 C   0  0  0  0  0  0  0  0  0  0  0  0
   11.6401    6.8514   -3.8558 C   0  0  0  0  0  0  0  0  0  0  0  0
  1  2  1  0
  2  3  1  0
  3  4  2  0
  4  5  1  0
  5  6  2  0
  6  7  1  0
  7  8  2  0
  8  9  1  0
  9 10  2  0
 10 11  1  0
 11 12  2  0
 10 13  1  0
 13 14  1  0
 14 15  1  0
 15 16  2  0
 16 17  1  0
 17 21  1  0
 21 22  2  0
 22 23  1  0
 23 24  2  0
 24 25  1  0
 25 26  2  0
 26 27  1  0
 27 33  1  0
 33 34  2  0
 34 35  1  0
 35 36  2  0
 36 37  1  0
 37 38  2  0
 27 28  2  0
 28 29  1  0
 29 30  2  0
 30 31  1  0
 31 32  1  0
 17 18  2  0
 18 19  1  0
 19 20  2  0
 12  3  1  0
 20 15  1  0
 12  7  1  0
 31 22  1  0
 20  9  1  0
 29 24  1  0
 38 33  1  0
M  END
>  <minimizedAffinity>  (256) 
-17.15627

$$$$
Mol: 152_22 - SminaDock
     RDKit          3D

 38 44  0  0  0  0  0  0  0  0999 V2000
    8.7418    5.5196  -12.3176 C   0  0  0  0  0  0  0  0  0  0  0  0
    9.4792    4.8274  -13.2480 C   0  0  0  0  0  0  0  0  0  0  0  0
    8.9477    3.7152  -13.9134 C   0  0  0  0  0  0  0  0  0  0  0  0
    7.6711    3.3565  -13.5942 C   0  0  0  0  0  0  0  0  0  0  0  0
    6.9215    4.0397  -12.6669 C   0  0  0  0  0  0  0  0  0  0  0  0
    7.4611    5.1575  -11.9999 C   0  0  0  0  0  0  0  0  0  0  0  0
    5.5311    3.7183  -12.3090 C   0  0  0  0  0  0  0  0  0  0  0  0
    5.0209    2.4834  -12.8564 C   0  0  0  0  0  0  0  0  0  0  0  0
    5.7936    1.8006  -13.8764 C   0  0  0  0  0  0  0  0  0  0  0  0
    7.0633    2.1743  -14.2305 C   0  0  0  0  0  0  0  0  0  0  0  0
    7.7787    1.4712  -15.1988 C   0  0  0  0  0  0  0  0  0  0  0  0
    7.1618    0.3699  -15.8021 C   0  0  0  0  0  0  0  0  0  0  0  0
    5.8920    0.0095  -15.4378 C   0  0  0  0  0  0  0  0  0  0  0  0
    5.2700   -1.0917  -16.0353 C   0  0  0  0  0  0  0  0  0  0  0  0
    5.8678   -1.7618  -16.9148 O   0  0  0  0  0  0  0  0  0  0  0  0
    4.0330   -1.4266  -15.6635 N   0  0  0  0  0  0  0  0  0  0  0  0
    3.5733   -2.2367  -16.1024 H   0  0  0  0  0  0  0  0  0  0  0  0
    3.3426   -0.7512  -14.7306 N   0  0  0  0  0  0  0  0  0  0  0  0
    3.8986    0.3106  -14.1313 C   0  0  0  0  0  0  0  0  0  0  0  0
    5.1743    0.6735  -14.5005 C   0  0  0  0  0  0  0  0  0  0  0  0
   11.2059    8.0527   -5.9142 C   0  0  0  0  0  0  0  0  0  0  0  0
   11.3704    9.1286   -6.7751 C   0  0  0  0  0  0  0  0  0  0  0  0
   11.0092    9.0321   -8.1020 C   0  0  0  0  0  0  0  0  0  0  0  0
   10.4732    7.8805   -8.6392 C   0  0  0  0  0  0  0  0  0  0  0  0
   10.3001    6.7857   -7.7858 C   0  0  0  0  0  0  0  0  0  0  0  0
   10.6698    6.9039   -6.4552 C   0  0  0  0  0  0  0  0  0  0  0  0
    9.7681    5.6325   -8.3058 C   0  0  0  0  0  0  0  0  0  0  0  0
    9.4135    5.5496   -9.6275 C   0  0  0  0  0  0  0  0  0  0  0  0
    9.6156    6.6755  -10.4074 C   0  0  0  0  0  0  0  0  0  0  0  0
    9.3021    6.6509  -11.6474 N   0  0  0  0  0  0  0  0  0  0  0  0
   10.1321    7.8177   -9.9341 N   0  0  0  0  0  0  0  0  0  0  0  0
   10.2664    8.6523  -10.5753 H   0  0  0  0  0  0  0  0  0  0  0  0
   12.3392    8.4475   -1.8416 C   0  0  0  0  0  0  0  0  0  0  0  0
   12.0497    9.5216   -2.5979 N   0  0  0  0  0  0  0  0  0  0  0  0
   11.6920    9.4029   -3.8823 C   0  0  0  0  0  0  0  0  0  0  0  0
   11.5963    8.1787   -4.5147 C   0  0  0  0  0  0  0  0  0  0  0  0
   11.8849    7.0573   -3.7729 C   0  0  0  0  0  0  0  0  0  0  0  0
   12.2541    7.2075   -2.4406 C   0  0  0  0  0  0  0  0  0  0  0  0
 33 34  2  0
 34 35  1  0
 35 36  2  0
 36 21  1  0
 21 22  2  0
 22 23  1  0
 23 24  2  0
 24 25  1  0
 25 26  2  0
 25 27  1  0
 27 28  2  0
 28 29  1  0
 29 30  2  0
 30  1  1  0
  1  2  2  0
  2  3  1  0
  3  4  2  0
  4  5  1  0
  5  6  2  0
  5  7  1  0
  7  8  1  0
  8  9  1  0
  9 10  2  0
 10 11  1  0
 11 12  2  0
 12 13  1  0
 13 14  1  0
 14 15  2  0
 14 16  1  0
 16 17  1  0
 16 18  1  0
 18 19  2  0
 19 20  1  0
 29 31  1  0
 31 32  1  0
 36 37  1  0
 37 38  2  0
 38 33  1  0
 26 21  1  0
  6  1  1  0
 20  9  1  0
 31 24  1  0
 10  4  1  0
 20 13  2  0
M  END
>  <minimizedAffinity>  (257) 
-17.18284

$$$$
Mol: 143_8 - SminaDock
     RDKit          3D

 41 47  0  0  0  0  0  0  0  0999 V2000
    8.4529    5.1608  -12.7144 C   0  0  0  0  0  0  0  0  0  0  0  0
    7.0848    5.0696  -12.5878 C   0  0  0  0  0  0  0  0  0  0  0  0
    6.4640    3.9735  -13.1208 C   0  0  0  0  0  0  0  0  0  0  0  0
    7.1357    2.9209  -13.7975 C   0  0  0  0  0  0  0  0  0  0  0  0
    8.4772    3.0173  -13.9162 C   0  0  0  0  0  0  0  0  0  0  0  0
    9.1120    4.1527  -13.3635 C   0  0  0  0  0  0  0  0  0  0  0  0
    9.4586    2.0966  -14.5282 C   0  0  0  0  0  0  0  0  0  0  0  0
    9.0780    0.6972  -14.7402 C   0  0  0  0  0  0  0  0  0  0  0  0
    9.2992    0.4237  -16.1726 N   0  0  0  0  0  0  0  0  0  0  0  0
    9.9133   -0.3693  -16.3527 H   0  0  0  0  0  0  0  0  0  0  0  0
    8.0183    0.3448  -16.8234 C   0  0  0  0  0  0  0  0  0  0  0  0
    7.1757    1.5811  -16.6047 C   0  0  0  0  0  0  0  0  0  0  0  0
    6.1957    1.2790  -15.5199 C   0  0  0  0  0  0  0  0  0  0  0  0
    5.2399    0.3227  -15.8610 C   0  0  0  0  0  0  0  0  0  0  0  0
    4.2903   -0.0778  -14.9465 C   0  0  0  0  0  0  0  0  0  0  0  0
    4.3024    0.4879  -13.6891 C   0  0  0  0  0  0  0  0  0  0  0  0
    5.2546    1.4309  -13.3821 C   0  0  0  0  0  0  0  0  0  0  0  0
    6.2364    1.8604  -14.2894 C   0  0  0  0  0  0  0  0  0  0  0  0
    3.3802   -1.1190  -15.5485 C   0  0  0  0  0  0  0  0  0  0  0  0
    3.8110   -1.2367  -16.9024 N   0  0  0  0  0  0  0  0  0  0  0  0
    3.3849   -1.8255  -17.6361 H   0  0  0  0  0  0  0  0  0  0  0  0
    4.9463   -0.3957  -17.0872 C   0  0  0  0  0  0  0  0  0  0  0  0
    5.5951   -0.3050  -18.1946 O   0  0  0  0  0  0  0  0  0  0  0  0
   11.1620    7.7267   -6.5597 C   0  0  0  0  0  0  0  0  0  0  0  0
   11.4727    8.7705   -7.4188 C   0  0  0  0  0  0  0  0  0  0  0  0
   11.0983    8.6387   -8.7349 C   0  0  0  0  0  0  0  0  0  0  0  0
   10.4416    7.5080   -9.1641 C   0  0  0  0  0  0  0  0  0  0  0  0
   10.1281    6.4578   -8.3033 C   0  0  0  0  0  0  0  0  0  0  0  0
    9.4891    5.3847   -8.7773 N   0  0  0  0  0  0  0  0  0  0  0  0
    9.1715    5.3514  -10.0571 N   0  0  0  0  0  0  0  0  0  0  0  0
    9.4516    6.3342  -10.9199 C   0  0  0  0  0  0  0  0  0  0  0  0
    9.1373    6.2931  -12.1702 N   0  0  0  0  0  0  0  0  0  0  0  0
   10.0972    7.4291  -10.4630 N   0  0  0  0  0  0  0  0  0  0  0  0
   10.3327    8.2165  -11.1064 H   0  0  0  0  0  0  0  0  0  0  0  0
   10.5061    6.5894   -6.9718 C   0  0  0  0  0  0  0  0  0  0  0  0
   12.3389    8.1839   -2.5027 C   0  0  0  0  0  0  0  0  0  0  0  0
   12.5097    9.1833   -3.4329 C   0  0  0  0  0  0  0  0  0  0  0  0
   12.1346    9.0539   -4.7521 C   0  0  0  0  0  0  0  0  0  0  0  0
   11.5597    7.8730   -5.1763 C   0  0  0  0  0  0  0  0  0  0  0  0
   11.3805    6.8570   -4.2535 C   0  0  0  0  0  0  0  0  0  0  0  0
   11.7661    7.0047   -2.9207 C   0  0  0  0  0  0  0  0  0  0  0  0
 36 37  2  0
 37 38  1  0
 38 39  2  0
 39 24  1  0
 24 25  2  0
 25 26  1  0
 26 27  2  0
 27 28  1  0
 28 29  1  0
 29 30  2  0
 30 31  1  0
 31 32  2  0
 32  1  1  0
  1  2  2  0
  2  3  1  0
  3  4  2  0
  4  5  1  0
  5  6  2  0
  5  7  1  0
  7  8  1  0
  8  9  1  0
  9 10  1  0
  9 11  1  0
 11 12  1  0
 12 13  1  0
 13 14  2  0
 14 15  1  0
 15 16  2  0
 16 17  1  0
 17 18  2  0
 15 19  1  0
 19 20  1  0
 20 21  1  0
 20 22  1  0
 22 23  2  0
 31 33  1  0
 33 34  1  0
 28 35  2  0
 39 40  1  0
 40 41  2  0
 41 36  1  0
 35 24  1  0
 33 27  1  0
  6  1  1  0
 18 13  1  0
 18  4  1  0
 22 14  1  0
M  END
>  <minimizedAffinity>  (258) 
-17.16149

$$$$
Mol: 141_29 - SminaDock
     RDKit          3D

 43 50  0  0  0  0  0  0  0  0999 V2000
   10.8191    6.1774  -17.4445 H   0  0  0  0  0  0  0  0  0  0  0  0
   11.3829    5.5025  -16.9234 O   0  0  0  0  0  0  0  0  0  0  0  0
   10.7521    4.4899  -16.1612 C   0  0  0  0  0  0  0  0  0  0  0  0
    9.4877    4.3405  -16.1274 N   0  0  0  0  0  0  0  0  0  0  0  0
    9.0891    3.2293  -15.2711 C   0  0  1  0  0  0  0  0  0  0  0  0
   10.4048    2.7069  -14.7675 C   0  0  0  0  0  0  0  0  0  0  0  0
   10.6343    1.7583  -13.9980 O   0  0  0  0  0  0  0  0  0  0  0  0
   11.3975    3.5224  -15.3488 N   0  0  0  0  0  0  0  0  0  0  0  0
    8.4004    3.8404  -14.1078 C   0  0  0  0  0  0  0  0  0  0  0  0
    8.9987    4.9750  -13.5229 C   0  0  0  0  0  0  0  0  0  0  0  0
    8.4870    5.6089  -12.4200 C   0  0  0  0  0  0  0  0  0  0  0  0
    7.3285    5.0774  -11.8875 C   0  0  0  0  0  0  0  0  0  0  0  0
    6.7111    3.9763  -12.4228 C   0  0  0  0  0  0  0  0  0  0  0  0
    7.2552    3.3741  -13.5258 C   0  0  0  0  0  0  0  0  0  0  0  0
    6.6212    2.2235  -14.1850 C   0  0  0  0  0  0  0  0  0  0  0  0
    5.5088    1.7164  -13.6049 N   0  0  0  0  0  0  0  0  0  0  0  0
    4.9153    0.6417  -14.1550 C   0  0  0  0  0  0  0  0  0  0  0  0
    5.4142    0.0463  -15.2951 C   0  0  0  0  0  0  0  0  0  0  0  0
    4.7698   -1.0684  -15.8408 C   0  0  0  0  0  0  0  0  0  0  0  0
    5.2658   -1.6480  -16.9662 C   0  0  0  0  0  0  0  0  0  0  0  0
    6.4052   -1.1340  -17.5683 C   0  0  0  0  0  0  0  0  0  0  0  0
    7.0599   -0.0390  -17.0539 C   0  0  0  0  0  0  0  0  0  0  0  0
    6.5407    0.5324  -15.9129 C   0  0  0  0  0  0  0  0  0  0  0  0
    7.1472    1.6675  -15.3120 C   0  0  0  0  0  0  0  0  0  0  0  0
    8.3131    2.2118  -15.9745 C   0  0  0  0  0  0  0  0  0  0  0  0
    9.1653    6.7435  -11.9163 N   0  0  0  0  0  0  0  0  0  0  0  0
    9.4894    6.7566  -10.6712 C   0  0  0  0  0  0  0  0  0  0  0  0
    9.2025    5.7334   -9.8520 N   0  0  0  0  0  0  0  0  0  0  0  0
    9.5398    5.7364   -8.5468 C   0  0  0  0  0  0  0  0  0  0  0  0
   10.2068    6.8113   -7.9863 C   0  0  0  0  0  0  0  0  0  0  0  0
   10.5716    6.8524   -6.6492 C   0  0  0  0  0  0  0  0  0  0  0  0
   11.2373    7.9277   -6.0963 C   0  0  0  0  0  0  0  0  0  0  0  0
   11.5301    8.9797   -6.9463 C   0  0  0  0  0  0  0  0  0  0  0  0
   11.1702    8.9460   -8.2787 C   0  0  0  0  0  0  0  0  0  0  0  0
   10.5030    7.8650   -8.8262 C   0  0  0  0  0  0  0  0  0  0  0  0
   10.1456    7.8145  -10.1195 N   0  0  0  0  0  0  0  0  0  0  0  0
   10.3905    8.6383  -10.7206 H   0  0  0  0  0  0  0  0  0  0  0  0
   11.6262    7.9785   -4.6876 C   0  0  0  0  0  0  0  0  0  0  0  0
   11.6711    6.8267   -3.9185 C   0  0  0  0  0  0  0  0  0  0  0  0
   12.0276    6.8276   -2.5969 C   0  0  0  0  0  0  0  0  0  0  0  0
   12.3540    8.0227   -2.0114 C   0  0  0  0  0  0  0  0  0  0  0  0
   12.3251    9.1951   -2.7329 C   0  0  0  0  0  0  0  0  0  0  0  0
   11.9584    9.1641   -4.0767 C   0  0  0  0  0  0  0  0  0  0  0  0
  1  2  1  0
  2  3  1  0
  3  4  2  0
  4  5  1  0
  5  6  1  0
  6  7  2  0
  6  8  1  0
  5  9  1  0
  9 10  2  0
 10 11  1  0
 11 26  1  0
 26 27  2  0
 27 28  1  0
 28 29  2  0
 29 30  1  0
 30 31  2  0
 31 32  1  0
 32 38  1  0
 38 39  2  0
 39 40  1  0
 40 41  2  0
 41 42  1  0
 42 43  2  0
 32 33  2  0
 33 34  1  0
 34 35  2  0
 35 36  1  0
 36 37  1  0
 11 12  2  0
 12 13  1  0
 13 14  2  0
 14 15  1  0
 15 16  2  0
 16 17  1  0
 17 18  2  0
 18 19  1  0
 19 20  2  0
 20 21  1  0
 21 22  2  0
 22 23  1  0
 23 24  2  0
 24 25  1  0
  8  3  1  0
 14  9  1  0
 24 15  1  0
  5 25  1  6
 36 27  1  0
 23 18  1  0
 35 30  1  0
 43 38  1  0
M  CHG  1   8  -1
M  END
>  <minimizedAffinity>  (259) 
-17.18977

$$$$
Mol: 141_27 - SminaDock
     RDKit          3D

 41 47  0  0  0  0  0  0  0  0999 V2000
    3.4021   -0.7430  -15.5735 H   0  0  0  0  0  0  0  0  0  0  0  0
    4.1693   -1.3959  -15.6975 O   0  0  0  0  0  0  0  0  0  0  0  0
    5.4150   -0.9509  -16.1170 C   0  0  0  0  0  0  0  0  0  0  0  0
    6.0570   -1.6090  -17.0916 N   0  0  0  0  0  0  0  0  0  0  0  0
    7.2578   -1.1733  -17.4902 N   0  0  0  0  0  0  0  0  0  0  0  0
    7.8082   -0.0819  -16.9109 C   0  0  0  0  0  0  0  0  0  0  0  0
    9.0837    0.3393  -17.3705 N   0  0  0  0  0  0  0  0  0  0  0  0
    9.2034    1.1477  -18.0398 H   0  0  0  0  0  0  0  0  0  0  0  0
    9.9834   -0.1170  -17.0809 H   0  0  0  0  0  0  0  0  0  0  0  0
    7.1563    0.5997  -15.9099 C   0  0  0  0  0  0  0  0  0  0  0  0
    7.6884    1.7259  -15.2876 C   0  0  0  0  0  0  0  0  0  0  0  0
    6.9987    2.3784  -14.2870 C   0  0  0  0  0  0  0  0  0  0  0  0
    5.7626    1.9597  -13.8551 C   0  0  0  0  0  0  0  0  0  0  0  0
    5.2281    0.8201  -14.4851 C   0  0  0  0  0  0  0  0  0  0  0  0
    5.9208    0.1749  -15.4798 C   0  0  0  0  0  0  0  0  0  0  0  0
    4.9580    2.6547  -12.8315 C   0  0  0  0  0  0  0  0  0  0  0  0
    5.6842    3.6112  -11.9845 C   0  0  0  0  0  0  0  0  0  0  0  0
    6.9368    4.1409  -12.5476 C   0  0  0  0  0  0  0  0  0  0  0  0
    7.5138    5.2717  -11.9661 C   0  0  0  0  0  0  0  0  0  0  0  0
    8.6995    5.7770  -12.4000 C   0  0  0  0  0  0  0  0  0  0  0  0
    9.3390    5.1463  -13.4426 C   0  0  0  0  0  0  0  0  0  0  0  0
    8.7816    4.0349  -14.0230 C   0  0  0  0  0  0  0  0  0  0  0  0
    7.5860    3.5245  -13.5884 C   0  0  0  0  0  0  0  0  0  0  0  0
    9.3020    6.9310  -11.8190 N   0  0  0  0  0  0  0  0  0  0  0  0
    9.6348    6.9301  -10.5514 C   0  0  0  0  0  0  0  0  0  0  0  0
   10.2016    8.0165  -10.0062 N   0  0  0  0  0  0  0  0  0  0  0  0
   10.5696    8.0806   -8.7003 C   0  0  0  0  0  0  0  0  0  0  0  0
   11.1526    9.2042   -8.1498 C   0  0  0  0  0  0  0  0  0  0  0  0
   11.5276    9.2628   -6.8104 C   0  0  0  0  0  0  0  0  0  0  0  0
   11.3119    8.1655   -6.0032 C   0  0  0  0  0  0  0  0  0  0  0  0
   10.7219    7.0258   -6.5568 C   0  0  0  0  0  0  0  0  0  0  0  0
   10.3597    6.9935   -7.8870 C   0  0  0  0  0  0  0  0  0  0  0  0
    9.7736    5.8770   -8.4605 C   0  0  0  0  0  0  0  0  0  0  0  0
    9.4279    5.8661   -9.7599 N   0  0  0  0  0  0  0  0  0  0  0  0
    8.9901    4.9977  -10.1368 H   0  0  0  0  0  0  0  0  0  0  0  0
   11.6598    8.1088   -4.5938 C   0  0  0  0  0  0  0  0  0  0  0  0
   11.6191    6.8796   -3.9258 C   0  0  0  0  0  0  0  0  0  0  0  0
   11.9485    6.8264   -2.5933 C   0  0  0  0  0  0  0  0  0  0  0  0
   12.3162    8.0012   -1.9378 C   0  0  0  0  0  0  0  0  0  0  0  0
   12.3600    9.2171   -2.5844 C   0  0  0  0  0  0  0  0  0  0  0  0
   12.0248    9.2585   -3.9315 C   0  0  0  0  0  0  0  0  0  0  0  0
  1  2  1  0
  2  3  1  0
  3  4  2  0
  4  5  1  0
  5  6  2  0
  6  7  1  0
  7  8  1  0
  7  9  1  0
  6 10  1  0
 10 11  2  0
 11 12  1  0
 12 13  2  0
 13 14  1  0
 14 15  2  0
 13 16  1  0
 16 17  1  0
 17 18  1  0
 18 19  2  0
 19 20  1  0
 20 24  1  0
 24 25  2  0
 25 26  1  0
 26 27  2  0
 27 28  1  0
 28 29  2  0
 29 30  1  0
 30 36  1  0
 36 37  2  0
 37 38  1  0
 38 39  2  0
 39 40  1  0
 40 41  2  0
 30 31  2  0
 31 32  1  0
 32 33  2  0
 33 34  1  0
 34 35  1  0
 20 21  2  0
 21 22  1  0
 22 23  2  0
 15  3  1  0
 23 18  1  0
 15 10  1  0
 34 25  1  0
 23 12  1  0
 32 27  1  0
 41 36  1  0
M  END
>  <minimizedAffinity>  (260) 
-17.16050

$$$$
Mol: 105_57 - SminaDock
     RDKit          3D

 44 50  0  0  0  0  0  0  0  0999 V2000
    7.8103    7.0118   -7.5788 H   0  0  0  0  0  0  0  0  0  0  0  0
    8.6498    6.4535   -7.6140 O   0  0  0  0  0  0  0  0  0  0  0  0
    9.8597    7.1291   -7.6388 C   0  0  0  0  0  0  0  0  0  0  0  0
   10.4960    7.2426   -8.7760 C   0  0  0  0  0  0  0  0  0  0  0  0
   11.6970    7.8980   -8.8756 C   0  0  0  0  0  0  0  0  0  0  0  0
   12.3196    7.9727  -10.1027 C   0  0  0  0  0  0  0  0  0  0  0  0
   11.7885    7.4127  -11.2592 C   0  0  0  0  0  0  0  0  0  0  0  0
   10.5850    6.7600  -11.1545 C   0  0  0  0  0  0  0  0  0  0  0  0
    9.9595    6.6851   -9.9123 C   0  0  0  0  0  0  0  0  0  0  0  0
   10.2161    6.2843  -12.4390 N   0  0  0  0  0  0  0  0  0  0  0  0
   11.2764    6.6438  -13.3570 C   0  0  0  0  0  0  0  0  0  0  0  0
   12.2295    7.3729  -12.5049 C   0  0  0  0  0  0  0  0  0  0  0  0
   10.4512    7.7185   -6.4465 C   0  0  0  0  0  0  0  0  0  0  0  0
   10.5259    9.0843   -6.2659 C   0  0  0  0  0  0  0  0  0  0  0  0
   11.0809    9.6702   -5.1341 C   0  0  0  0  0  0  0  0  0  0  0  0
   11.5810    8.8538   -4.1466 C   0  0  0  0  0  0  0  0  0  0  0  0
   12.1313    9.4197   -3.0199 C   0  0  0  0  0  0  0  0  0  0  0  0
   12.6436    8.6446   -1.9986 C   0  0  0  0  0  0  0  0  0  0  0  0
   12.5857    7.2746   -2.1442 C   0  0  0  0  0  0  0  0  0  0  0  0
   12.0341    6.7052   -3.2749 C   0  0  0  0  0  0  0  0  0  0  0  0
   11.5229    7.4777   -4.2954 C   0  0  0  0  0  0  0  0  0  0  0  0
   10.9695    6.9265   -5.4208 C   0  0  0  0  0  0  0  0  0  0  0  0
    9.0069    5.6096  -12.7286 C   0  0  0  0  0  0  0  0  0  0  0  0
    9.0568    4.5681  -13.6506 C   0  0  0  0  0  0  0  0  0  0  0  0
    8.1918    3.4878  -13.7889 C   0  0  0  0  0  0  0  0  0  0  0  0
    6.8456    3.5256  -13.5042 C   0  0  0  0  0  0  0  0  0  0  0  0
    6.1366    4.4583  -12.7380 C   0  0  0  0  0  0  0  0  0  0  0  0
    6.5950    5.5986  -12.1240 C   0  0  0  0  0  0  0  0  0  0  0  0
    5.7427    6.3055  -11.5299 O   0  0  0  0  0  0  0  0  0  0  0  0
    7.8972    6.0756  -12.0783 C   0  0  0  0  0  0  0  0  0  0  0  0
    8.7504    2.2327  -14.2594 C   0  0  0  0  0  0  0  0  0  0  0  0
    9.7606    2.1544  -14.9950 O   0  0  0  0  0  0  0  0  0  0  0  0
    8.0855    1.0192  -13.8429 N   0  0  0  0  0  0  0  0  0  0  0  0
    7.2078    0.4561  -14.6116 C   0  0  0  0  0  0  0  0  0  0  0  0
    6.5836   -0.6995  -14.1974 C   0  0  0  0  0  0  0  0  0  0  0  0
    5.6537   -1.3375  -14.9685 C   0  0  0  0  0  0  0  0  0  0  0  0
    5.3333   -0.8070  -16.1961 C   0  0  0  0  0  0  0  0  0  0  0  0
    4.3925   -1.4283  -17.0068 C   0  0  0  0  0  0  0  0  0  0  0  0
    4.1113   -0.8537  -18.2233 C   0  0  0  0  0  0  0  0  0  0  0  0
    4.7415    0.3010  -18.6271 C   0  0  0  0  0  0  0  0  0  0  0  0
    5.6599    0.9318  -17.8696 N   0  0  0  0  0  0  0  0  0  0  0  0
    6.1404    1.8169  -18.1838 H   0  0  0  0  0  0  0  0  0  0  0  0
    5.9731    0.4134  -16.6694 C   0  0  0  0  0  0  0  0  0  0  0  0
    6.9113    1.0165  -15.8367 C   0  0  0  0  0  0  0  0  0  0  0  0
  1  2  1  0
  2  3  1  0
  3 13  1  0
 13 14  2  0
 14 15  1  0
 15 16  2  0
 16 17  1  0
 17 18  2  0
 18 19  1  0
 19 20  2  0
 20 21  1  0
 21 22  2  0
  3  4  2  0
  4  5  1  0
  5  6  2  0
  6  7  1  0
  7  8  1  0
  8  9  2  0
  8 10  1  0
 10 23  1  0
 23 24  1  0
 24 25  2  0
 25 31  1  0
 31 32  2  0
 31 33  1  0
 33 34  2  0
 34 35  1  0
 35 36  2  0
 36 37  1  0
 37 38  2  0
 38 39  1  0
 39 40  2  0
 40 41  1  0
 41 42  1  0
 41 43  1  0
 43 44  2  0
 25 26  1  0
 26 27  2  0
 27 28  1  0
 28 29  2  0
 28 30  1  0
 10 11  1  0
 11 12  1  0
 22 13  1  0
  9  4  1  0
 30 23  2  0
 21 16  1  0
 12  7  2  0
 44 34  1  0
 43 37  1  0
M  END
>  <minimizedAffinity>  (261) 
-17.21442

$$$$
Mol: 175_41 - SminaDock
     RDKit          3D

 44 51  0  0  0  0  0  0  0  0999 V2000
    8.7107    5.9168  -12.2933 C   0  0  0  0  0  0  0  0  0  0  0  0
    7.5360    5.3686  -11.8117 C   0  0  0  0  0  0  0  0  0  0  0  0
    7.0196    4.2475  -12.4243 C   0  0  0  0  0  0  0  0  0  0  0  0
    7.7056    3.6988  -13.5191 C   0  0  0  0  0  0  0  0  0  0  0  0
    8.8613    4.2378  -13.9928 C   0  0  0  0  0  0  0  0  0  0  0  0
    9.3746    5.3770  -13.3609 C   0  0  0  0  0  0  0  0  0  0  0  0
    9.6008    3.6719  -15.1320 C   0  0  2  0  0  0  0  0  0  0  0  0
    8.9798    2.4920  -15.7890 C   0  0  0  0  0  0  0  0  0  0  0  0
    7.7446    1.9692  -15.2072 C   0  0  0  0  0  0  0  0  0  0  0  0
    7.0974    2.5204  -14.1244 C   0  0  0  0  0  0  0  0  0  0  0  0
    5.9858    1.7933  -13.8553 N   0  0  0  0  0  0  0  0  0  0  0  0
    5.8800    0.7799  -14.7260 C   0  0  0  0  0  0  0  0  0  0  0  0
    4.9982   -0.2274  -14.9209 N   0  0  0  0  0  0  0  0  0  0  0  0
    4.0263   -0.2975  -14.1478 O   0  0  0  0  0  0  0  0  0  0  0  0
    5.1715   -1.0730  -15.8735 O   0  0  0  0  0  0  0  0  0  0  0  0
    6.1729   -1.0486  -16.7152 N   0  0  0  0  0  0  0  0  0  0  0  0
    6.1979   -1.7913  -17.4420 H   0  0  0  0  0  0  0  0  0  0  0  0
    7.1136   -0.0919  -16.6192 C   0  0  0  0  0  0  0  0  0  0  0  0
    8.2342   -0.0821  -17.5787 C   0  0  0  0  0  0  0  0  0  0  0  0
    7.0245    0.8620  -15.6365 C   0  0  0  0  0  0  0  0  0  0  0  0
   10.9533    3.2592  -14.5760 C   0  0  0  0  0  0  0  0  0  0  0  0
   12.0978    3.8615  -15.3429 C   0  0  0  0  0  0  0  0  0  0  0  0
   11.8241    3.5901  -16.7611 N   0  0  0  0  0  0  0  0  0  0  0  0
   12.6977    3.7708  -17.2738 H   0  0  0  0  0  0  0  0  0  0  0  0
   10.8179    4.5239  -17.1655 C   0  0  0  0  0  0  0  0  0  0  0  0
    9.7419    4.7639  -16.1741 C   0  0  0  0  0  0  0  0  0  0  0  0
   11.3163    8.0820   -5.8408 C   0  0  0  0  0  0  0  0  0  0  0  0
   11.4846    9.2269   -6.5894 C   0  0  0  0  0  0  0  0  0  0  0  0
   11.0948    9.2098   -7.9090 C   0  0  0  0  0  0  0  0  0  0  0  0
   10.5443    8.1031   -8.5183 C   0  0  0  0  0  0  0  0  0  0  0  0
   10.3798    6.9629   -7.7623 C   0  0  0  0  0  0  0  0  0  0  0  0
    9.8243    5.8645   -8.3994 C   0  0  0  0  0  0  0  0  0  0  0  0
    9.4613    5.9065   -9.6960 N   0  0  0  0  0  0  0  0  0  0  0  0
    9.6272    7.0258  -10.4230 C   0  0  0  0  0  0  0  0  0  0  0  0
    9.2839    7.0900  -11.6800 N   0  0  0  0  0  0  0  0  0  0  0  0
   10.1659    8.0935   -9.8083 N   0  0  0  0  0  0  0  0  0  0  0  0
   10.3058    8.9687  -10.3421 H   0  0  0  0  0  0  0  0  0  0  0  0
   10.7610    6.9502   -6.4378 C   0  0  0  0  0  0  0  0  0  0  0  0
   12.4746    7.9504   -1.7713 C   0  0  0  0  0  0  0  0  0  0  0  0
   12.1159    6.8054   -2.4405 C   0  0  0  0  0  0  0  0  0  0  0  0
   11.7390    6.8699   -3.7753 C   0  0  0  0  0  0  0  0  0  0  0  0
   11.7168    8.0680   -4.4492 C   0  0  0  0  0  0  0  0  0  0  0  0
   12.0772    9.2385   -3.7864 C   0  0  0  0  0  0  0  0  0  0  0  0
   12.4452    9.1318   -2.4619 C   0  0  0  0  0  0  0  0  0  0  0  0
 39 40  2  0
 40 41  1  0
 41 42  2  0
 42 27  1  0
 27 28  2  0
 28 29  1  0
 29 30  2  0
 30 31  1  0
 31 32  1  0
 32 33  2  0
 33 34  1  0
 34 35  2  0
 35  1  1  0
  1  2  2  0
  2  3  1  0
  3  4  2  0
  4  5  1  0
  5  6  2  0
  5  7  1  0
  7  8  1  6
  8  9  1  0
  9 10  2  0
 10 11  1  0
 11 12  2  0
 12 13  1  0
 13 14  2  0
 13 15  1  0
 15 16  1  0
 16 17  1  0
 16 18  1  0
 18 19  1  0
 18 20  2  0
  7 21  1  0
 21 22  1  0
 22 23  1  0
 23 24  1  0
 23 25  1  0
 25 26  1  0
 34 36  1  0
 36 37  1  0
 31 38  2  0
 42 43  1  0
 43 44  2  0
 44 39  1  0
 38 27  1  0
 36 30  1  0
  6  1  1  0
 26  7  1  0
 10  4  1  0
 20 12  1  0
 20  9  1  0
M  CHG  1  13   1
M  END
>  <minimizedAffinity>  (262) 
-17.15210

$$$$
Mol: 153_40 - SminaDock
     RDKit          3D

 37 43  0  0  0  0  0  0  0  0999 V2000
    9.0252    6.4713  -12.4028 C   0  0  0  0  0  0  0  0  0  0  0  0
    7.8524    7.0086  -11.9096 C   0  0  0  0  0  0  0  0  0  0  0  0
    6.6451    6.3844  -12.1691 C   0  0  0  0  0  0  0  0  0  0  0  0
    6.6061    5.2248  -12.9203 C   0  0  0  0  0  0  0  0  0  0  0  0
    7.7544    4.6622  -13.4270 C   0  0  0  0  0  0  0  0  0  0  0  0
    8.9483    5.2941  -13.1609 C   0  0  0  0  0  0  0  0  0  0  0  0
    8.0013    3.4538  -14.2363 C   0  0  0  0  0  0  0  0  0  0  0  0
    6.9857    2.4117  -14.0691 C   0  0  0  0  0  0  0  0  0  0  0  0
    5.8291    2.3265  -13.3289 C   0  0  0  0  0  0  0  0  0  0  0  0
    5.0707    1.1735  -13.3863 C   0  0  0  0  0  0  0  0  0  0  0  0
    5.4398    0.0913  -14.1721 C   0  0  0  0  0  0  0  0  0  0  0  0
    4.9178   -1.1192  -14.4190 N   0  0  0  0  0  0  0  0  0  0  0  0
    5.7051   -1.7763  -15.2776 C   0  0  0  0  0  0  0  0  0  0  0  0
    5.5598   -2.9371  -15.7557 O   0  0  0  0  0  0  0  0  0  0  0  0
    6.7056   -0.9857  -15.5621 O   0  0  0  0  0  0  0  0  0  0  0  0
    6.5884    0.1626  -14.9138 C   0  0  0  0  0  0  0  0  0  0  0  0
    7.3442    1.3126  -14.8556 C   0  0  0  0  0  0  0  0  0  0  0  0
    5.2204    3.3401  -12.4084 C   0  0  0  0  0  0  0  0  0  0  0  0
    5.2510    4.6615  -13.1126 C   0  0  0  0  0  0  0  0  0  0  0  0
   11.1742    7.5934   -5.9730 C   0  0  0  0  0  0  0  0  0  0  0  0
    9.9416    7.0151   -6.1953 C   0  0  0  0  0  0  0  0  0  0  0  0
    9.5533    6.8135   -7.5024 C   0  0  0  0  0  0  0  0  0  0  0  0
   10.3365    7.1613   -8.5921 C   0  0  0  0  0  0  0  0  0  0  0  0
   11.5583    7.7349   -8.3497 C   0  0  0  0  0  0  0  0  0  0  0  0
   12.3128    8.0658   -9.4569 C   0  0  0  0  0  0  0  0  0  0  0  0
   11.8985    7.8490  -10.7089 N   0  0  0  0  0  0  0  0  0  0  0  0
   10.6842    7.2788  -10.9236 C   0  0  0  0  0  0  0  0  0  0  0  0
   10.2859    7.0650  -12.1547 N   0  0  0  0  0  0  0  0  0  0  0  0
    9.9447    6.9548   -9.8545 N   0  0  0  0  0  0  0  0  0  0  0  0
    8.9885    6.5122   -9.9684 H   0  0  0  0  0  0  0  0  0  0  0  0
   11.9788    7.9513   -7.0516 C   0  0  0  0  0  0  0  0  0  0  0  0
   12.4086    8.1531   -1.9874 C   0  0  0  0  0  0  0  0  0  0  0  0
   12.1349    6.8971   -2.4669 C   0  0  0  0  0  0  0  0  0  0  0  0
   11.7290    6.7085   -3.7802 C   0  0  0  0  0  0  0  0  0  0  0  0
   11.6069    7.8129   -4.5924 C   0  0  0  0  0  0  0  0  0  0  0  0
   11.8766    9.0967   -4.1367 C   0  0  0  0  0  0  0  0  0  0  0  0
   12.2768    9.2503   -2.8295 C   0  0  0  0  0  0  0  0  0  0  0  0
 32 33  2  0
 33 34  1  0
 34 35  2  0
 35 20  1  0
 20 21  2  0
 21 22  1  0
 22 23  2  0
 23 24  1  0
 24 25  1  0
 25 26  2  0
 26 27  1  0
 27 28  2  0
 28  1  1  0
  1  2  2  0
  2  3  1  0
  3  4  2  0
  4  5  1  0
  5  6  2  0
  5  7  1  0
  7  8  1  0
  8  9  2  0
  9 10  1  0
 10 11  2  0
 11 12  1  0
 12 13  1  0
 13 14  2  0
 13 15  1  0
 15 16  1  0
 16 17  2  0
  9 18  1  0
 18 19  1  0
 27 29  1  0
 29 30  1  0
 24 31  2  0
 35 36  1  0
 36 37  2  0
 37 32  1  0
 31 20  1  0
 29 23  1  0
  6  1  1  0
 17  8  1  0
 19  4  1  0
 16 11  1  0
M  CHG  1  12  -1
M  END
>  <minimizedAffinity>  (263) 
-17.17234

$$$$
Mol: 135_44 - SminaDock
     RDKit          3D

 38 44  0  0  0  0  0  0  0  0999 V2000
    8.7394    5.7619  -12.1688 C   0  0  0  0  0  0  0  0  0  0  0  0
    7.3717    5.7055  -12.1300 C   0  0  0  0  0  0  0  0  0  0  0  0
    6.6674    4.6211  -12.6635 C   0  0  0  0  0  0  0  0  0  0  0  0
    7.3880    3.6158  -13.2241 C   0  0  0  0  0  0  0  0  0  0  0  0
    8.8021    3.6610  -13.2773 C   0  0  0  0  0  0  0  0  0  0  0  0
    9.4558    4.7330  -12.7467 C   0  0  0  0  0  0  0  0  0  0  0  0
    9.5642    2.6592  -13.8566 O   0  0  0  0  0  0  0  0  0  0  0  0
    9.3779    2.1198  -15.1492 C   0  0  0  0  0  0  0  0  0  0  0  0
    8.1548    1.3493  -15.4117 C   0  0  0  0  0  0  0  0  0  0  0  0
    6.9435    1.6084  -14.6400 C   0  0  0  0  0  0  0  0  0  0  0  0
    6.0128    0.6106  -14.9862 C   0  0  0  0  0  0  0  0  0  0  0  0
    4.7764    0.5582  -14.3731 C   0  0  0  0  0  0  0  0  0  0  0  0
    4.4502    1.5046  -13.4012 C   0  0  0  0  0  0  0  0  0  0  0  0
    5.3408    2.4967  -13.0398 C   0  0  0  0  0  0  0  0  0  0  0  0
    6.5473    2.5142  -13.6705 C   0  0  0  0  0  0  0  0  0  0  0  0
    3.9947   -0.5472  -14.8980 C   0  0  0  0  0  0  0  0  0  0  0  0
    2.8403   -0.8836  -14.5693 O   0  0  0  0  0  0  0  0  0  0  0  0
    4.7889   -1.1897  -15.8685 N   0  0  0  0  0  0  0  0  0  0  0  0
    6.0317   -0.4981  -15.9415 C   0  0  0  0  0  0  0  0  0  0  0  0
    6.9328   -0.8498  -16.7229 O   0  0  0  0  0  0  0  0  0  0  0  0
   11.4576    8.0325   -5.8842 C   0  0  0  0  0  0  0  0  0  0  0  0
   11.8521    9.0463   -6.7358 C   0  0  0  0  0  0  0  0  0  0  0  0
   11.5559    9.0539   -8.0783 C   0  0  0  0  0  0  0  0  0  0  0  0
   10.8319    7.9988   -8.5915 C   0  0  0  0  0  0  0  0  0  0  0  0
   10.5108    7.9517   -9.9051 N   0  0  0  0  0  0  0  0  0  0  0  0
    9.8072    6.9175  -10.3822 C   0  0  0  0  0  0  0  0  0  0  0  0
    9.4882    6.8512  -11.6307 N   0  0  0  0  0  0  0  0  0  0  0  0
    9.4179    5.9245   -9.5614 N   0  0  0  0  0  0  0  0  0  0  0  0
    8.8677    5.1220   -9.9501 H   0  0  0  0  0  0  0  0  0  0  0  0
    9.7015    5.9065   -8.2478 C   0  0  0  0  0  0  0  0  0  0  0  0
   10.4360    6.9851   -7.7473 C   0  0  0  0  0  0  0  0  0  0  0  0
   10.7360    6.9884   -6.4158 C   0  0  0  0  0  0  0  0  0  0  0  0
   12.3688    8.0122   -1.7942 C   0  0  0  0  0  0  0  0  0  0  0  0
   12.4384    9.1899   -2.5007 C   0  0  0  0  0  0  0  0  0  0  0  0
   12.1367    9.2017   -3.8617 C   0  0  0  0  0  0  0  0  0  0  0  0
   11.7743    8.0346   -4.4745 C   0  0  0  0  0  0  0  0  0  0  0  0
   11.7099    6.8718   -3.7579 C   0  0  0  0  0  0  0  0  0  0  0  0
   12.0073    6.8441   -2.4025 C   0  0  0  0  0  0  0  0  0  0  0  0
 33 34  2  0
 34 35  1  0
 35 36  2  0
 36 21  1  0
 21 22  1  0
 22 23  2  0
 23 24  1  0
 24 25  2  0
 25 26  1  0
 26 27  2  0
 27  1  1  0
  1  2  2  0
  2  3  1  0
  3  4  2  0
  4  5  1  0
  5  6  2  0
  5  7  1  0
  7  8  1  0
  8  9  1  0
  9 10  1  0
 10 11  2  0
 11 12  1  0
 12 13  2  0
 13 14  1  0
 14 15  2  0
 12 16  1  0
 16 17  2  0
 16 18  1  0
 18 19  1  0
 19 20  2  0
 26 28  1  0
 28 29  1  0
 28 30  1  0
 30 31  2  0
 31 32  1  0
 36 37  1  0
 37 38  2  0
 38 33  1  0
 32 21  2  0
 31 24  1  0
  6  1  1  0
 15 10  1  0
 15  4  1  0
 19 11  1  0
M  CHG  1  18  -1
M  END
>  <minimizedAffinity>  (264) 
-17.20456

$$$$
Mol: 155_8 - SminaDock
     RDKit          3D

 37 43  0  0  0  0  0  0  0  0999 V2000
    8.6905    5.6922  -12.2269 C   0  0  0  0  0  0  0  0  0  0  0  0
    9.4744    4.9164  -13.0716 C   0  0  0  0  0  0  0  0  0  0  0  0
    8.9784    3.7762  -13.6504 C   0  0  0  0  0  0  0  0  0  0  0  0
    7.6819    3.4427  -13.3566 C   0  0  0  0  0  0  0  0  0  0  0  0
    6.8640    4.1700  -12.5300 C   0  0  0  0  0  0  0  0  0  0  0  0
    7.3947    5.3407  -11.9451 C   0  0  0  0  0  0  0  0  0  0  0  0
    5.4844    3.7976  -12.1898 C   0  0  0  0  0  0  0  0  0  0  0  0
    4.9336    2.6706  -12.9168 C   0  0  0  0  0  0  0  0  0  0  0  0
    5.8231    1.8940  -13.7509 C   0  0  0  0  0  0  0  0  0  0  0  0
    7.1137    2.2411  -13.9907 C   0  0  0  0  0  0  0  0  0  0  0  0
    7.8714    1.5057  -14.7893 O   0  0  0  0  0  0  0  0  0  0  0  0
    7.4467    0.4266  -15.3846 C   0  0  0  0  0  0  0  0  0  0  0  0
    8.1720   -0.2579  -16.1354 O   0  0  0  0  0  0  0  0  0  0  0  0
    6.1478    0.0253  -15.1780 C   0  0  0  0  0  0  0  0  0  0  0  0
    5.6605   -1.1320  -15.8034 C   0  0  0  0  0  0  0  0  0  0  0  0
    4.3533   -1.5548  -15.6083 C   0  0  0  0  0  0  0  0  0  0  0  0
    3.5579   -0.7964  -14.7801 C   0  0  0  0  0  0  0  0  0  0  0  0
    3.9868    0.3466  -14.1430 C   0  0  0  0  0  0  0  0  0  0  0  0
    5.2990    0.7294  -14.3679 C   0  0  0  0  0  0  0  0  0  0  0  0
   11.3194    8.1016   -5.9455 C   0  0  0  0  0  0  0  0  0  0  0  0
   11.5253    9.1857   -6.7543 C   0  0  0  0  0  0  0  0  0  0  0  0
   11.1592    9.1675   -8.0904 C   0  0  0  0  0  0  0  0  0  0  0  0
   10.5769    8.0513   -8.6356 C   0  0  0  0  0  0  0  0  0  0  0  0
   10.3559    6.9423   -7.8466 C   0  0  0  0  0  0  0  0  0  0  0  0
    9.7779    5.8272   -8.3771 C   0  0  0  0  0  0  0  0  0  0  0  0
    9.4143    5.7883   -9.6733 N   0  0  0  0  0  0  0  0  0  0  0  0
    9.6308    6.8691  -10.4379 C   0  0  0  0  0  0  0  0  0  0  0  0
    9.2982    6.8660  -11.6708 N   0  0  0  0  0  0  0  0  0  0  0  0
   10.2072    7.9955   -9.9295 N   0  0  0  0  0  0  0  0  0  0  0  0
   10.3506    8.7992  -10.5638 H   0  0  0  0  0  0  0  0  0  0  0  0
   10.7295    6.9840   -6.5171 C   0  0  0  0  0  0  0  0  0  0  0  0
   12.3898    7.9923   -1.8475 C   0  0  0  0  0  0  0  0  0  0  0  0
   12.4121    9.1983   -2.5300 C   0  0  0  0  0  0  0  0  0  0  0  0
   12.0559    9.2163   -3.8819 C   0  0  0  0  0  0  0  0  0  0  0  0
   11.6887    8.0819   -4.5426 C   0  0  0  0  0  0  0  0  0  0  0  0
   11.6783    6.8974   -3.8290 C   0  0  0  0  0  0  0  0  0  0  0  0
   12.0243    6.8364   -2.4883 C   0  0  0  0  0  0  0  0  0  0  0  0
 32 33  2  0
 33 34  1  0
 34 35  2  0
 35 20  1  0
 20 21  2  0
 21 22  1  0
 22 23  2  0
 23 24  1  0
 24 25  1  0
 25 26  2  0
 26 27  1  0
 27 28  2  0
 28  1  1  0
  1  2  2  0
  2  3  1  0
  3  4  2  0
  4  5  1  0
  5  6  2  0
  5  7  1  0
  7  8  1  0
  8  9  1  0
  9 10  2  0
 10 11  1  0
 11 12  1  0
 12 13  2  0
 12 14  1  0
 14 15  2  0
 15 16  1  0
 16 17  2  0
 17 18  1  0
 18 19  2  0
 27 29  1  0
 29 30  1  0
 24 31  2  0
 35 36  1  0
 36 37  2  0
 37 32  1  0
 31 20  1  0
 29 23  1  0
  6  1  1  0
 19  9  1  0
 10  4  1  0
 19 14  1  0
M  END
>  <minimizedAffinity>  (265) 
-17.21417

$$$$
Mol: 196_6 - SminaDock
     RDKit          3D

 41 48  0  0  0  0  0  0  0  0999 V2000
    8.2431    5.0715  -12.6070 C   0  0  0  0  0  0  0  0  0  0  0  0
    7.0558    4.7804  -11.9815 C   0  0  0  0  0  0  0  0  0  0  0  0
    6.2589    3.7411  -12.3795 C   0  0  0  0  0  0  0  0  0  0  0  0
    6.6936    2.9637  -13.4651 C   0  0  0  0  0  0  0  0  0  0  0  0
    7.8625    3.2418  -14.0875 C   0  0  0  0  0  0  0  0  0  0  0  0
    8.6493    4.3081  -13.6568 C   0  0  0  0  0  0  0  0  0  0  0  0
    8.0825    2.2635  -15.1783 C   0  0  2  0  0  0  0  0  0  0  0  0
    6.9017    1.4376  -15.1577 C   0  0  0  0  0  0  0  0  0  0  0  0
    6.0961    1.8278  -14.1446 C   0  0  0  0  0  0  0  0  0  0  0  0
    4.8712    1.1917  -13.8668 C   0  0  0  0  0  0  0  0  0  0  0  0
    4.4925    0.1369  -14.6635 C   0  0  0  0  0  0  0  0  0  0  0  0
    3.4014   -0.4610  -14.4482 O   0  0  0  0  0  0  0  0  0  0  0  0
    5.2663   -0.2631  -15.6640 N   0  0  0  0  0  0  0  0  0  0  0  0
    4.8492   -1.3139  -16.4301 C   0  0  0  0  0  0  0  0  0  0  0  0
    5.6003   -1.7768  -17.4805 C   0  0  0  0  0  0  0  0  0  0  0  0
    6.8089   -1.1271  -17.7317 C   0  0  0  0  0  0  0  0  0  0  0  0
    7.2278   -0.0652  -16.9553 C   0  0  0  0  0  0  0  0  0  0  0  0
    6.4352    0.3521  -15.9201 C   0  0  0  0  0  0  0  0  0  0  0  0
    9.1953    1.3659  -14.6498 C   0  0  0  0  0  0  0  0  0  0  0  0
   10.5813    1.7317  -14.9560 C   0  0  0  0  0  0  0  0  0  0  0  0
   10.7218    1.9148  -16.4537 C   0  0  0  0  0  0  0  0  0  0  0  0
    9.8998    3.1158  -16.7787 C   0  0  0  0  0  0  0  0  0  0  0  0
    8.4781    2.9698  -16.3784 C   0  0  0  0  0  0  0  0  0  0  0  0
   11.2357    7.6999   -6.5874 C   0  0  0  0  0  0  0  0  0  0  0  0
   11.6279    8.6515   -7.5215 C   0  0  0  0  0  0  0  0  0  0  0  0
   11.2637    8.5395   -8.8467 C   0  0  0  0  0  0  0  0  0  0  0  0
   10.5029    7.4771   -9.2607 C   0  0  0  0  0  0  0  0  0  0  0  0
   10.1334    7.3453  -10.5503 N   0  0  0  0  0  0  0  0  0  0  0  0
    9.3871    6.2923  -10.9237 C   0  0  0  0  0  0  0  0  0  0  0  0
    9.0485    6.1866  -12.1437 N   0  0  0  0  0  0  0  0  0  0  0  0
    8.9909    5.3548  -10.0483 N   0  0  0  0  0  0  0  0  0  0  0  0
    8.4113    4.5221  -10.2975 H   0  0  0  0  0  0  0  0  0  0  0  0
    9.3428    5.4559   -8.7502 C   0  0  0  0  0  0  0  0  0  0  0  0
   10.1098    6.5352   -8.3585 C   0  0  0  0  0  0  0  0  0  0  0  0
   10.4732    6.6480   -7.0395 C   0  0  0  0  0  0  0  0  0  0  0  0
   12.3852    8.1126   -2.5716 C   0  0  0  0  0  0  0  0  0  0  0  0
   12.7036    9.1118   -3.4500 C   0  0  0  0  0  0  0  0  0  0  0  0
   12.3179    8.9619   -4.7719 C   0  0  0  0  0  0  0  0  0  0  0  0
   11.6349    7.8478   -5.2025 C   0  0  0  0  0  0  0  0  0  0  0  0
   11.3340    6.8674   -4.2915 C   0  0  0  0  0  0  0  0  0  0  0  0
   11.7094    6.9954   -2.9651 C   0  0  0  0  0  0  0  0  0  0  0  0
 36 37  2  0
 37 38  1  0
 38 39  2  0
 39 24  1  0
 24 25  1  0
 25 26  2  0
 26 27  1  0
 27 28  2  0
 28 29  1  0
 29 30  2  0
 30  1  1  0
  1  2  2  0
  2  3  1  0
  3  4  2  0
  4  5  1  0
  5  6  2  0
  5  7  1  0
  7  8  1  0
  8  9  1  0
  9 10  2  0
 10 11  1  0
 11 12  2  0
 11 13  1  0
 13 14  1  0
 14 15  2  0
 15 16  1  0
 16 17  2  0
 17 18  1  0
  7 19  1  1
 19 20  1  0
 20 21  1  0
 21 22  1  0
 22 23  1  0
 29 31  1  0
 31 32  1  0
 31 33  1  0
 33 34  2  0
 34 35  1  0
 39 40  1  0
 40 41  2  0
 41 36  1  0
 35 24  2  0
 34 27  1  0
  6  1  1  0
 23  7  1  0
  9  4  1  0
 18 13  1  0
 18  8  2  0
M  END
>  <minimizedAffinity>  (266) 
-17.17926

$$$$
Mol: 142_1 - SminaDock
     RDKit          3D

 36 42  0  0  0  0  0  0  0  0999 V2000
   11.3199    8.1057   -5.8773 C   0  0  0  0  0  0  0  0  0  0  0  0
   11.5037    9.2621   -6.5934 C   0  0  0  0  0  0  0  0  0  0  0  0
   11.1418    9.2864   -7.9306 C   0  0  0  0  0  0  0  0  0  0  0  0
   10.6016    8.1551   -8.5329 C   0  0  0  0  0  0  0  0  0  0  0  0
   10.2376    8.1482   -9.8393 N   0  0  0  0  0  0  0  0  0  0  0  0
    9.7153    7.0824  -10.4540 C   0  0  0  0  0  0  0  0  0  0  0  0
    9.3980    7.1574  -11.6869 N   0  0  0  0  0  0  0  0  0  0  0  0
    9.5339    5.9569   -9.7658 N   0  0  0  0  0  0  0  0  0  0  0  0
    9.1311    5.1308  -10.2351 H   0  0  0  0  0  0  0  0  0  0  0  0
    9.8761    5.9046   -8.4678 C   0  0  0  0  0  0  0  0  0  0  0  0
   10.4199    7.0034   -7.8149 C   0  0  0  0  0  0  0  0  0  0  0  0
   10.7841    6.9910   -6.4834 C   0  0  0  0  0  0  0  0  0  0  0  0
    8.8455    6.0326  -12.3400 C   0  0  0  0  0  0  0  0  0  0  0  0
    9.5171    5.3885  -13.3531 C   0  0  0  0  0  0  0  0  0  0  0  0
    8.9372    4.2753  -13.9772 C   0  0  0  0  0  0  0  0  0  0  0  0
    7.7193    3.8548  -13.5664 C   0  0  0  0  0  0  0  0  0  0  0  0
    6.9978    4.4570  -12.5603 C   0  0  0  0  0  0  0  0  0  0  0  0
    7.6152    5.5726  -11.9575 C   0  0  0  0  0  0  0  0  0  0  0  0
    5.6606    4.0620  -12.0991 C   0  0  0  0  0  0  0  0  0  0  0  0
    5.1611    2.8168  -12.6400 C   0  0  0  0  0  0  0  0  0  0  0  0
    5.8721    2.2025  -13.7417 C   0  0  0  0  0  0  0  0  0  0  0  0
    7.0923    2.6633  -14.1734 C   0  0  0  0  0  0  0  0  0  0  0  0
    7.7341    2.0247  -15.2056 C   0  0  0  0  0  0  0  0  0  0  0  0
    7.1529    0.9179  -15.8121 C   0  0  0  0  0  0  0  0  0  0  0  0
    5.9270    0.4651  -15.3700 C   0  0  0  0  0  0  0  0  0  0  0  0
    5.3320   -0.6531  -15.9735 C   0  0  0  0  0  0  0  0  0  0  0  0
    4.1173   -1.0781  -15.5093 C   0  0  0  0  0  0  0  0  0  0  0  0
    3.4487   -0.4597  -14.4755 C   0  0  0  0  0  0  0  0  0  0  0  0
    4.0398    0.6420  -13.8844 C   0  0  0  0  0  0  0  0  0  0  0  0
    5.2593    1.0724  -14.3478 C   0  0  0  0  0  0  0  0  0  0  0  0
   12.3850    7.9601   -1.8553 C   0  0  0  0  0  0  0  0  0  0  0  0
   12.0480    6.7849   -2.5213 C   0  0  0  0  0  0  0  0  0  0  0  0
   11.6976    6.8348   -3.8467 C   0  0  0  0  0  0  0  0  0  0  0  0
   11.6934    8.0642   -4.4737 C   0  0  0  0  0  0  0  0  0  0  0  0
   12.0257    9.2380   -3.8242 C   0  0  0  0  0  0  0  0  0  0  0  0
   12.3775    9.1825   -2.4910 C   0  0  0  0  0  0  0  0  0  0  0  0
 31 32  2  0
 32 33  1  0
 33 34  2  0
 34  1  1  0
  1  2  1  0
  2  3  2  0
  3  4  1  0
  4  5  2  0
  5  6  1  0
  6  7  2  0
  7 13  1  0
 13 14  2  0
 14 15  1  0
 15 16  2  0
 16 17  1  0
 17 18  2  0
 17 19  1  0
 19 20  1  0
 20 21  1  0
 21 22  2  0
 22 23  1  0
 23 24  2  0
 24 25  1  0
 25 26  2  0
 26 27  1  0
 27 28  2  0
 28 29  1  0
 29 30  2  0
  6  8  1  0
  8  9  1  0
  8 10  1  0
 10 11  2  0
 11 12  1  0
 34 35  1  0
 35 36  2  0
 36 31  1  0
 12  1  2  0
 11  4  1  0
 18 13  1  0
 30 21  1  0
 22 16  1  0
 30 25  1  0
M  END
>  <minimizedAffinity>  (267) 
-17.23538

$$$$
Mol: 192_46 - SminaDock
     RDKit          3D

 42 49  0  0  0  0  0  0  0  0999 V2000
    8.6138    5.8869  -12.2441 C   0  0  0  0  0  0  0  0  0  0  0  0
    7.3808    5.5166  -11.7402 C   0  0  0  0  0  0  0  0  0  0  0  0
    6.7124    4.4291  -12.2620 C   0  0  0  0  0  0  0  0  0  0  0  0
    7.2632    3.6962  -13.2923 C   0  0  0  0  0  0  0  0  0  0  0  0
    8.4813    4.0294  -13.8195 C   0  0  0  0  0  0  0  0  0  0  0  0
    9.1265    5.1212  -13.2780 C   0  0  0  0  0  0  0  0  0  0  0  0
    9.1596    3.3074  -14.9263 C   0  0  1  0  0  0  0  0  0  0  0  0
    8.3418    2.1609  -15.4000 C   0  0  0  0  0  0  0  0  0  0  0  0
    8.7916    1.4549  -16.3381 O   0  0  0  0  0  0  0  0  0  0  0  0
    7.0526    1.7992  -14.8502 C   0  0  0  0  0  0  0  0  0  0  0  0
    6.5271    2.5520  -13.8192 C   0  0  0  0  0  0  0  0  0  0  0  0
    5.3629    1.9993  -13.5252 O   0  0  0  0  0  0  0  0  0  0  0  0
    5.1142    0.9645  -14.2842 C   0  0  0  0  0  0  0  0  0  0  0  0
    4.0596    0.0628  -14.3776 C   0  0  0  0  0  0  0  0  0  0  0  0
    4.0540   -0.9601  -15.2908 C   0  0  0  0  0  0  0  0  0  0  0  0
    5.1281   -1.1238  -16.1657 C   0  0  0  0  0  0  0  0  0  0  0  0
    6.1842   -0.2416  -16.0908 C   0  0  0  0  0  0  0  0  0  0  0  0
    6.1613    0.7760  -15.1631 C   0  0  0  0  0  0  0  0  0  0  0  0
    9.3547    4.2774  -16.0519 C   0  0  0  0  0  0  0  0  0  0  0  0
   10.4793    3.9838  -16.9627 C   0  0  0  0  0  0  0  0  0  0  0  0
   11.4772    3.0961  -16.4830 N   0  0  0  0  0  0  0  0  0  0  0  0
   11.4201    2.1195  -16.7801 H   0  0  0  0  0  0  0  0  0  0  0  0
   11.6615    3.2973  -15.0654 C   0  0  0  0  0  0  0  0  0  0  0  0
   10.4442    2.7470  -14.3799 C   0  0  0  0  0  0  0  0  0  0  0  0
   11.3584    8.1044   -5.9467 C   0  0  0  0  0  0  0  0  0  0  0  0
   11.6683    9.1697   -6.7666 C   0  0  0  0  0  0  0  0  0  0  0  0
   11.3245    9.1828   -8.1020 C   0  0  0  0  0  0  0  0  0  0  0  0
   10.6454    8.0965   -8.6508 C   0  0  0  0  0  0  0  0  0  0  0  0
   10.3074    8.1107   -9.9665 N   0  0  0  0  0  0  0  0  0  0  0  0
    9.6474    7.0390  -10.4694 C   0  0  0  0  0  0  0  0  0  0  0  0
    9.3037    7.0027  -11.7111 N   0  0  0  0  0  0  0  0  0  0  0  0
    9.3376    5.9915   -9.6820 N   0  0  0  0  0  0  0  0  0  0  0  0
    8.8322    5.1880  -10.0997 H   0  0  0  0  0  0  0  0  0  0  0  0
    9.6611    5.9512   -8.3735 C   0  0  0  0  0  0  0  0  0  0  0  0
   10.3373    7.0332   -7.8282 C   0  0  0  0  0  0  0  0  0  0  0  0
   10.6868    7.0342   -6.4973 C   0  0  0  0  0  0  0  0  0  0  0  0
   12.3991    7.9019   -1.8506 C   0  0  0  0  0  0  0  0  0  0  0  0
   12.4344    9.1325   -2.5038 C   0  0  0  0  0  0  0  0  0  0  0  0
   12.0990    9.2188   -3.8372 C   0  0  0  0  0  0  0  0  0  0  0  0
   11.7280    8.1042   -4.5373 C   0  0  0  0  0  0  0  0  0  0  0  0
   11.6954    6.8902   -3.8845 C   0  0  0  0  0  0  0  0  0  0  0  0
   12.0276    6.7957   -2.5579 C   0  0  0  0  0  0  0  0  0  0  0  0
 37 38  2  0
 38 39  1  0
 39 40  2  0
 40 25  1  0
 25 26  1  0
 26 27  2  0
 27 28  1  0
 28 29  2  0
 29 30  1  0
 30 31  2  0
 31  1  1  0
  1  2  2  0
  2  3  1  0
  3  4  2  0
  4  5  1  0
  5  6  2  0
  5  7  1  0
  7  8  1  0
  8  9  2  0
  8 10  1  0
 10 11  2  0
 11 12  1  0
 12 13  1  0
 13 14  2  0
 14 15  1  0
 15 16  2  0
 16 17  1  0
 17 18  2  0
  7 19  1  6
 19 20  1  0
 20 21  1  0
 21 22  1  0
 21 23  1  0
 23 24  1  0
 30 32  1  0
 32 33  1  0
 32 34  1  0
 34 35  2  0
 35 36  1  0
 40 41  1  0
 41 42  2  0
 42 37  1  0
 36 25  2  0
 35 28  1  0
  6  1  1  0
 24  7  1  0
 11  4  1  0
 18 13  1  0
 18 10  1  0
M  END
>  <minimizedAffinity>  (268) 
-17.15881

$$$$
Mol: 192_25 - SminaDock
     RDKit          3D

 37 43  0  0  0  0  0  0  0  0999 V2000
    8.7697    5.7181  -12.2599 C   0  0  0  0  0  0  0  0  0  0  0  0
    9.5484    4.9247  -13.0834 C   0  0  0  0  0  0  0  0  0  0  0  0
    9.0474    3.7752  -13.6542 C   0  0  0  0  0  0  0  0  0  0  0  0
    7.7542    3.3944  -13.4126 C   0  0  0  0  0  0  0  0  0  0  0  0
    6.9668    4.1651  -12.6011 C   0  0  0  0  0  0  0  0  0  0  0  0
    7.4702    5.3361  -12.0171 C   0  0  0  0  0  0  0  0  0  0  0  0
    5.5672    3.8459  -12.2772 C   0  0  0  0  0  0  0  0  0  0  0  0
    5.0233    2.6070  -12.8851 C   0  0  0  0  0  0  0  0  0  0  0  0
    5.9316    1.8317  -13.7394 C   0  0  0  0  0  0  0  0  0  0  0  0
    7.2254    2.1819  -14.0075 C   0  0  0  0  0  0  0  0  0  0  0  0
    7.9828    1.3971  -14.8112 N   0  0  0  0  0  0  0  0  0  0  0  0
    7.4966    0.2713  -15.3597 C   0  0  0  0  0  0  0  0  0  0  0  0
    8.1902   -0.4648  -16.1071 O   0  0  0  0  0  0  0  0  0  0  0  0
    6.1958   -0.1056  -15.1059 C   0  0  0  0  0  0  0  0  0  0  0  0
    5.3988    0.6676  -14.2948 C   0  0  0  0  0  0  0  0  0  0  0  0
    4.1436    0.1008  -14.1823 C   0  0  0  0  0  0  0  0  0  0  0  0
    4.2064   -1.0584  -14.9631 C   0  0  0  0  0  0  0  0  0  0  0  0
    5.4364   -1.1555  -15.4992 N   0  0  0  0  0  0  0  0  0  0  0  0
    5.7774   -1.9060  -16.1208 H   0  0  0  0  0  0  0  0  0  0  0  0
   11.3210    8.0417   -5.9092 C   0  0  0  0  0  0  0  0  0  0  0  0
   11.5015    9.1147   -6.7521 C   0  0  0  0  0  0  0  0  0  0  0  0
   11.1487    9.1066   -8.0734 C   0  0  0  0  0  0  0  0  0  0  0  0
   10.5730    7.9540   -8.6107 C   0  0  0  0  0  0  0  0  0  0  0  0
   10.3779    6.8622   -7.7959 C   0  0  0  0  0  0  0  0  0  0  0  0
   10.7518    6.9083   -6.4485 C   0  0  0  0  0  0  0  0  0  0  0  0
    9.8131    5.7499   -8.3515 C   0  0  0  0  0  0  0  0  0  0  0  0
    9.4686    5.7664   -9.6788 C   0  0  0  0  0  0  0  0  0  0  0  0
    9.6823    6.8857  -10.4626 C   0  0  0  0  0  0  0  0  0  0  0  0
    9.3536    6.8815  -11.7025 N   0  0  0  0  0  0  0  0  0  0  0  0
   10.2461    7.9856   -9.8935 N   0  0  0  0  0  0  0  0  0  0  0  0
   10.3883    8.8013  -10.5189 H   0  0  0  0  0  0  0  0  0  0  0  0
   12.4297    8.0537   -1.7850 C   0  0  0  0  0  0  0  0  0  0  0  0
   12.1033    6.8880   -2.4450 C   0  0  0  0  0  0  0  0  0  0  0  0
   11.7442    6.8789   -3.7775 C   0  0  0  0  0  0  0  0  0  0  0  0
   11.6998    8.0592   -4.5045 C   0  0  0  0  0  0  0  0  0  0  0  0
   12.0261    9.2233   -3.8443 C   0  0  0  0  0  0  0  0  0  0  0  0
   12.3874    9.2376   -2.5064 C   0  0  0  0  0  0  0  0  0  0  0  0
 32 33  2  0
 33 34  1  0
 34 35  2  0
 35 20  1  0
 20 21  2  0
 21 22  1  0
 22 23  2  0
 23 24  1  0
 24 25  2  0
 24 26  1  0
 26 27  2  0
 27 28  1  0
 28 29  2  0
 29  1  1  0
  1  2  2  0
  2  3  1  0
  3  4  2  0
  4  5  1  0
  5  6  2  0
  5  7  1  0
  7  8  1  0
  8  9  1  0
  9 10  2  0
 10 11  1  0
 11 12  1  0
 12 13  2  0
 12 14  1  0
 14 15  2  0
 15 16  1  0
 16 17  2  0
 17 18  1  0
 18 19  1  0
 28 30  1  0
 30 31  1  0
 35 36  1  0
 36 37  2  0
 37 32  1  0
 25 20  1  0
  6  1  1  0
 15  9  1  0
 30 23  1  0
 10  4  1  0
 18 14  1  0
M  CHG  1  11  -1
M  END
>  <minimizedAffinity>  (269) 
-17.22159

$$$$
Mol: 192_30 - SminaDock
     RDKit          3D

 39 45  0  0  0  0  0  0  0  0999 V2000
    4.4244   -0.7988  -15.3010 C   0  0  0  0  0  0  0  0  0  0  0  0
    5.2564   -1.3003  -16.2340 N   0  0  0  0  0  0  0  0  0  0  0  0
    6.4279   -0.7268  -16.4844 C   0  0  0  0  0  0  0  0  0  0  0  0
    7.1909   -1.2028  -17.3533 O   0  0  0  0  0  0  0  0  0  0  0  0
    6.8251    0.3923  -15.8007 C   0  0  0  0  0  0  0  0  0  0  0  0
    8.0276    0.9583  -16.0767 C   0  0  0  0  0  0  0  0  0  0  0  0
    8.4781    2.0829  -15.4216 C   0  0  0  0  0  0  0  0  0  0  0  0
    7.6494    2.6122  -14.4675 C   0  0  0  0  0  0  0  0  0  0  0  0
    6.3994    2.0641  -14.1473 C   0  0  0  0  0  0  0  0  0  0  0  0
    5.9726    0.9269  -14.8274 C   0  0  0  0  0  0  0  0  0  0  0  0
    4.7690    0.3394  -14.5688 C   0  0  0  0  0  0  0  0  0  0  0  0
    5.5515    2.6497  -13.1346 C   0  0  0  0  0  0  0  0  0  0  0  0
    4.4302    2.2033  -12.8097 O   0  0  0  0  0  0  0  0  0  0  0  0
    6.0435    3.8551  -12.4382 C   0  0  0  0  0  0  0  0  0  0  0  0
    5.3024    4.3600  -11.5587 O   0  0  0  0  0  0  0  0  0  0  0  0
    7.3296    4.4114  -12.7740 C   0  0  0  0  0  0  0  0  0  0  0  0
    7.7501    5.5479  -12.0909 C   0  0  0  0  0  0  0  0  0  0  0  0
    8.9652    6.1079  -12.3798 C   0  0  0  0  0  0  0  0  0  0  0  0
    9.7586    5.5422  -13.3423 C   0  0  0  0  0  0  0  0  0  0  0  0
    9.3236    4.4043  -14.0175 C   0  0  0  0  0  0  0  0  0  0  0  0
    8.0881    3.8052  -13.7483 C   0  0  0  0  0  0  0  0  0  0  0  0
    9.4453    7.2661  -11.7163 N   0  0  0  0  0  0  0  0  0  0  0  0
    9.7650    7.1380  -10.4601 C   0  0  0  0  0  0  0  0  0  0  0  0
    9.6512    5.9432   -9.7841 C   0  0  0  0  0  0  0  0  0  0  0  0
   10.0139    5.9028   -8.4547 C   0  0  0  0  0  0  0  0  0  0  0  0
   10.4809    7.0172   -7.7987 C   0  0  0  0  0  0  0  0  0  0  0  0
   10.8410    6.9639   -6.4678 C   0  0  0  0  0  0  0  0  0  0  0  0
   11.3034    8.1006   -5.8494 C   0  0  0  0  0  0  0  0  0  0  0  0
   11.4084    9.2834   -6.5462 C   0  0  0  0  0  0  0  0  0  0  0  0
   11.0487    9.3367   -7.8757 C   0  0  0  0  0  0  0  0  0  0  0  0
   10.5761    8.1956   -8.5263 C   0  0  0  0  0  0  0  0  0  0  0  0
   10.2194    8.2246   -9.8238 N   0  0  0  0  0  0  0  0  0  0  0  0
   10.3185    9.1605  -10.3184 H   0  0  0  0  0  0  0  0  0  0  0  0
   11.6882    8.0699   -4.4511 C   0  0  0  0  0  0  0  0  0  0  0  0
   11.7013    6.9060   -3.7183 C   0  0  0  0  0  0  0  0  0  0  0  0
   12.0603    6.8434   -2.3936 C   0  0  0  0  0  0  0  0  0  0  0  0
   12.4305    8.0157   -1.7574 C   0  0  0  0  0  0  0  0  0  0  0  0
   12.4292    9.1990   -2.4592 C   0  0  0  0  0  0  0  0  0  0  0  0
   12.0659    9.2365   -3.7840 C   0  0  0  0  0  0  0  0  0  0  0  0
  1  2  1  0
  2  3  1  0
  3  4  2  0
  3  5  1  0
  5  6  2  0
  6  7  1  0
  7  8  2  0
  8  9  1  0
  9 10  2  0
 10 11  1  0
  9 12  1  0
 12 13  2  0
 12 14  1  0
 14 15  2  0
 14 16  1  0
 16 17  2  0
 17 18  1  0
 18 22  1  0
 22 23  2  0
 23 24  1  0
 24 25  2  0
 25 26  1  0
 26 27  2  0
 27 28  1  0
 28 34  1  0
 34 35  2  0
 35 36  1  0
 36 37  2  0
 37 38  1  0
 38 39  2  0
 28 29  2  0
 29 30  1  0
 30 31  2  0
 31 32  1  0
 32 33  1  0
 18 19  2  0
 19 20  1  0
 20 21  2  0
 11  1  2  0
 21 16  1  0
 10  5  1  0
 32 23  1  0
 21  8  1  0
 31 26  1  0
 39 34  1  0
M  CHG  1   2  -1
M  END
>  <minimizedAffinity>  (270) 
-17.24669

$$$$
Mol: 144_23 - SminaDock
     RDKit          3D

 39 45  0  0  0  0  0  0  0  0999 V2000
    8.6591    5.8801  -12.5450 C   0  0  0  0  0  0  0  0  0  0  0  0
    9.2106    5.1540  -13.5632 C   0  0  0  0  0  0  0  0  0  0  0  0
    8.5933    4.0429  -14.1215 C   0  0  0  0  0  0  0  0  0  0  0  0
    7.3655    3.6719  -13.6087 C   0  0  0  0  0  0  0  0  0  0  0  0
    6.7908    4.3889  -12.5879 C   0  0  0  0  0  0  0  0  0  0  0  0
    7.4443    5.5132  -12.0401 C   0  0  0  0  0  0  0  0  0  0  0  0
    5.4365    4.0585  -12.1074 C   0  0  0  0  0  0  0  0  0  0  0  0
    5.0465    2.6562  -12.3110 C   0  0  0  0  0  0  0  0  0  0  0  0
    5.6059    2.0286  -13.5197 C   0  0  0  0  0  0  0  0  0  0  0  0
    6.7703    2.4373  -14.1279 C   0  0  0  0  0  0  0  0  0  0  0  0
    7.2798    1.7478  -15.2157 C   0  0  0  0  0  0  0  0  0  0  0  0
    6.6570    0.6332  -15.7426 C   0  0  0  0  0  0  0  0  0  0  0  0
    7.1390   -0.0660  -16.8169 C   0  0  0  0  0  0  0  0  0  0  0  0
    6.5263   -1.1735  -17.3468 C   0  0  0  0  0  0  0  0  0  0  0  0
    7.0177   -1.9054  -18.4600 N   0  0  0  0  0  0  0  0  0  0  0  0
    6.6796   -1.6469  -19.4314 H   0  0  0  0  0  0  0  0  0  0  0  0
    7.6889   -2.6837  -18.4121 H   0  0  0  0  0  0  0  0  0  0  0  0
    5.3567   -1.5942  -16.7506 C   0  0  0  0  0  0  0  0  0  0  0  0
    4.8417   -0.9066  -15.6592 C   0  0  0  0  0  0  0  0  0  0  0  0
    5.4860    0.2107  -15.1469 C   0  0  0  0  0  0  0  0  0  0  0  0
    4.9857    0.8960  -14.0688 C   0  0  0  0  0  0  0  0  0  0  0  0
   11.2960    7.9999   -6.1393 C   0  0  0  0  0  0  0  0  0  0  0  0
   11.6086    9.0835   -6.9441 C   0  0  0  0  0  0  0  0  0  0  0  0
   11.2855    9.1250   -8.2950 C   0  0  0  0  0  0  0  0  0  0  0  0
   10.6335    8.0628   -8.8674 C   0  0  0  0  0  0  0  0  0  0  0  0
   10.2995    8.0543  -10.1670 N   0  0  0  0  0  0  0  0  0  0  0  0
    9.6554    7.0145  -10.7506 C   0  0  0  0  0  0  0  0  0  0  0  0
    9.3442    7.0257  -11.9989 N   0  0  0  0  0  0  0  0  0  0  0  0
    9.3460    5.9625   -9.9928 N   0  0  0  0  0  0  0  0  0  0  0  0
    8.8516    5.1501  -10.4142 H   0  0  0  0  0  0  0  0  0  0  0  0
    9.6620    5.9242   -8.6758 C   0  0  0  0  0  0  0  0  0  0  0  0
   10.3165    6.9792   -8.0802 C   0  0  0  0  0  0  0  0  0  0  0  0
   10.6423    6.9473   -6.7367 C   0  0  0  0  0  0  0  0  0  0  0  0
   12.3125    7.9641   -1.9975 C   0  0  0  0  0  0  0  0  0  0  0  0
   12.3264    9.1425   -2.7087 C   0  0  0  0  0  0  0  0  0  0  0  0
   11.9922    9.1357   -4.0582 C   0  0  0  0  0  0  0  0  0  0  0  0
   11.6406    7.9682   -4.7228 C   0  0  0  0  0  0  0  0  0  0  0  0
   11.6392    6.8078   -3.9724 C   0  0  0  0  0  0  0  0  0  0  0  0
   11.9685    6.7991   -2.6324 C   0  0  0  0  0  0  0  0  0  0  0  0
 34 35  2  0
 35 36  1  0
 36 37  2  0
 37 22  1  0
 22 23  1  0
 23 24  2  0
 24 25  1  0
 25 26  2  0
 26 27  1  0
 27 28  2  0
 28  1  1  0
  1  2  2  0
  2  3  1  0
  3  4  2  0
  4  5  1  0
  5  6  2  0
  5  7  1  0
  7  8  1  0
  8  9  1  0
  9 10  2  0
 10 11  1  0
 11 12  2  0
 12 13  1  0
 13 14  2  0
 14 15  1  0
 15 16  1  0
 15 17  1  0
 14 18  1  0
 18 19  2  0
 19 20  1  0
 20 21  2  0
 27 29  1  0
 29 30  1  0
 29 31  1  0
 31 32  2  0
 32 33  1  0
 37 38  1  0
 38 39  2  0
 39 34  1  0
 33 22  2  0
 32 25  1  0
  6  1  1  0
 21  9  1  0
 10  4  1  0
 20 12  1  0
M  END
>  <minimizedAffinity>  (271) 
-17.19968

$$$$
Mol: 143_42 - SminaDock
     RDKit          3D

 43 50  0  0  0  0  0  0  0  0999 V2000
    9.3642    5.7760  -12.6953 C   0  0  0  0  0  0  0  0  0  0  0  0
    8.2709    5.6251  -11.8922 C   0  0  0  0  0  0  0  0  0  0  0  0
    7.3160    4.6316  -12.0871 C   0  0  0  0  0  0  0  0  0  0  0  0
    7.4958    3.7608  -13.1504 C   0  0  0  0  0  0  0  0  0  0  0  0
    8.5865    3.8690  -13.9875 C   0  0  0  0  0  0  0  0  0  0  0  0
    9.5198    4.8993  -13.7397 C   0  0  0  0  0  0  0  0  0  0  0  0
    8.8167    2.8749  -15.0115 C   0  0  2  0  0  0  0  0  0  0  0  0
    9.5833    1.7655  -14.3613 N   0  0  0  0  0  0  0  0  0  0  0  0
    9.7121    1.5969  -13.3549 H   0  0  0  0  0  0  0  0  0  0  0  0
   10.0770    1.0202  -15.4632 C   0  0  0  0  0  0  0  0  0  0  0  0
   10.4269   -0.2028  -15.4320 O   0  0  0  0  0  0  0  0  0  0  0  0
   10.1052    1.8984  -16.6013 N   0  0  0  0  0  0  0  0  0  0  0  0
   10.2853    1.5812  -17.5616 H   0  0  0  0  0  0  0  0  0  0  0  0
    9.8320    3.2642  -16.0861 C   0  0  0  0  0  0  0  0  0  0  0  0
    7.6285    2.2441  -15.6015 C   0  0  0  0  0  0  0  0  0  0  0  0
    6.5481    2.0005  -14.6408 C   0  0  0  0  0  0  0  0  0  0  0  0
    6.4416    2.7761  -13.4951 C   0  0  0  0  0  0  0  0  0  0  0  0
    5.4034    2.6179  -12.6034 C   0  0  0  0  0  0  0  0  0  0  0  0
    4.4425    1.6612  -12.8530 C   0  0  0  0  0  0  0  0  0  0  0  0
    4.5376    0.8848  -13.9848 C   0  0  0  0  0  0  0  0  0  0  0  0
    3.5466   -0.0787  -14.2269 C   0  0  0  0  0  0  0  0  0  0  0  0
    3.6454   -0.8437  -15.3662 C   0  0  0  0  0  0  0  0  0  0  0  0
    4.6846   -0.6746  -16.2496 C   0  0  0  0  0  0  0  0  0  0  0  0
    5.6738    0.2796  -16.0176 C   0  0  0  0  0  0  0  0  0  0  0  0
    5.5655    1.0399  -14.8723 C   0  0  0  0  0  0  0  0  0  0  0  0
   11.0740    7.5360   -6.3336 C   0  0  0  0  0  0  0  0  0  0  0  0
   10.1546    6.5545   -6.6250 C   0  0  0  0  0  0  0  0  0  0  0  0
    9.8283    6.2196   -7.9192 C   0  0  0  0  0  0  0  0  0  0  0  0
   10.4092    6.8538   -8.9800 C   0  0  0  0  0  0  0  0  0  0  0  0
   10.0745    6.5097  -10.2519 N   0  0  0  0  0  0  0  0  0  0  0  0
   10.6595    7.1477  -11.2713 C   0  0  0  0  0  0  0  0  0  0  0  0
   10.3385    6.8173  -12.4716 N   0  0  0  0  0  0  0  0  0  0  0  0
   11.5701    8.1209  -11.0728 N   0  0  0  0  0  0  0  0  0  0  0  0
   11.9975    8.5883  -11.9194 H   0  0  0  0  0  0  0  0  0  0  0  0
   11.9044    8.4647   -9.8141 C   0  0  0  0  0  0  0  0  0  0  0  0
   11.3356    7.8432   -8.7255 C   0  0  0  0  0  0  0  0  0  0  0  0
   11.6568    8.1725   -7.4256 C   0  0  0  0  0  0  0  0  0  0  0  0
   12.1010    8.4368   -2.3717 C   0  0  0  0  0  0  0  0  0  0  0  0
   11.9663    9.4779   -3.2850 C   0  0  0  0  0  0  0  0  0  0  0  0
   11.6314    9.2120   -4.5868 C   0  0  0  0  0  0  0  0  0  0  0  0
   11.4340    7.9059   -4.9631 C   0  0  0  0  0  0  0  0  0  0  0  0
   11.5685    6.8696   -4.0524 C   0  0  0  0  0  0  0  0  0  0  0  0
   11.9053    7.1176   -2.7366 C   0  0  0  0  0  0  0  0  0  0  0  0
 38 39  2  0
 39 40  1  0
 40 41  2  0
 41 26  1  0
 26 27  1  0
 27 28  2  0
 28 29  1  0
 29 30  2  0
 30 31  1  0
 31 32  2  0
 32  1  1  0
  1  2  2  0
  2  3  1  0
  3  4  2  0
  4  5  1  0
  5  6  2  0
  5  7  1  0
  7  8  1  0
  8  9  1  0
  8 10  1  0
 10 11  2  0
 10 12  1  0
 12 13  1  0
 12 14  1  0
  7 15  1  6
 15 16  1  0
 16 17  2  0
 17 18  1  0
 18 19  2  0
 19 20  1  0
 20 21  2  0
 21 22  1  0
 22 23  2  0
 23 24  1  0
 24 25  2  0
 31 33  1  0
 33 34  1  0
 33 35  1  0
 35 36  2  0
 36 37  1  0
 41 42  1  0
 42 43  2  0
 43 38  1  0
 37 26  2  0
 36 29  1  0
  6  1  1  0
 14  7  1  0
 25 16  1  0
 17  4  1  0
 25 20  1  0
M  END
>  <minimizedAffinity>  (272) 
-17.23392

$$$$
Mol: 172_12 - SminaDock
     RDKit          3D

 40 46  0  0  0  0  0  0  0  0999 V2000
    7.1802   -1.0025  -17.1690 H   0  0  0  0  0  0  0  0  0  0  0  0
    7.1778   -0.5343  -16.2962 O   0  0  0  0  0  0  0  0  0  0  0  0
    5.8399   -0.3688  -15.9439 C   0  0  1  0  0  0  0  0  0  0  0  0
    5.0055    0.0124  -17.1414 C   0  0  0  0  0  0  0  0  0  0  0  0
    5.2885   -1.5713  -15.2753 C   0  0  0  0  0  0  0  0  0  0  0  0
    5.9243   -2.6510  -15.3101 O   0  0  0  0  0  0  0  0  0  0  0  0
    4.0701   -1.4465  -14.6282 O   0  0  0  0  0  0  0  0  0  0  0  0
    3.5004   -0.1557  -14.3621 C   0  0  0  0  0  0  0  0  0  0  0  0
    4.6229    0.8197  -14.1951 C   0  0  0  0  0  0  0  0  0  0  0  0
    4.5578    1.8474  -13.2741 C   0  0  0  0  0  0  0  0  0  0  0  0
    5.5981    2.7485  -13.1232 C   0  0  0  0  0  0  0  0  0  0  0  0
    6.7456    2.6621  -13.8840 C   0  0  0  0  0  0  0  0  0  0  0  0
    6.8110    1.6284  -14.8105 C   0  0  0  0  0  0  0  0  0  0  0  0
    5.7706    0.7361  -14.9539 C   0  0  0  0  0  0  0  0  0  0  0  0
    7.6674    3.7340  -13.5158 C   0  0  0  0  0  0  0  0  0  0  0  0
    8.9282    4.0999  -13.9566 C   0  0  0  0  0  0  0  0  0  0  0  0
    9.6025    5.1814  -13.4321 C   0  0  0  0  0  0  0  0  0  0  0  0
    9.0467    5.9613  -12.4301 C   0  0  0  0  0  0  0  0  0  0  0  0
    7.7907    5.5991  -11.9890 C   0  0  0  0  0  0  0  0  0  0  0  0
    7.1230    4.5154  -12.5193 C   0  0  0  0  0  0  0  0  0  0  0  0
    5.8049    3.9051  -12.2544 C   0  0  0  0  0  0  0  0  0  0  0  0
    4.9843    4.3126  -11.4133 O   0  0  0  0  0  0  0  0  0  0  0  0
    9.6991    7.0702  -11.8699 N   0  0  0  0  0  0  0  0  0  0  0  0
    9.9836    7.0833  -10.6197 C   0  0  0  0  0  0  0  0  0  0  0  0
    9.6495    6.0279   -9.8635 N   0  0  0  0  0  0  0  0  0  0  0  0
    9.9094    5.9611   -8.5469 C   0  0  0  0  0  0  0  0  0  0  0  0
   10.5459    7.0015   -7.9058 C   0  0  0  0  0  0  0  0  0  0  0  0
   10.8338    6.9799   -6.5572 C   0  0  0  0  0  0  0  0  0  0  0  0
   11.4712    8.0254   -5.9194 C   0  0  0  0  0  0  0  0  0  0  0  0
   11.8147    9.1156   -6.7079 C   0  0  0  0  0  0  0  0  0  0  0  0
   11.5270    9.1373   -8.0562 C   0  0  0  0  0  0  0  0  0  0  0  0
   10.8888    8.0866   -8.6854 C   0  0  0  0  0  0  0  0  0  0  0  0
   10.6088    8.1121  -10.0041 N   0  0  0  0  0  0  0  0  0  0  0  0
   10.8883    8.9591  -10.5596 H   0  0  0  0  0  0  0  0  0  0  0  0
   11.7726    7.9971   -4.4917 C   0  0  0  0  0  0  0  0  0  0  0  0
   11.6814    6.8548   -3.7252 C   0  0  0  0  0  0  0  0  0  0  0  0
   11.9734    6.8606   -2.3731 C   0  0  0  0  0  0  0  0  0  0  0  0
   12.3736    8.0361   -1.7368 C   0  0  0  0  0  0  0  0  0  0  0  0
   12.4656    9.1741   -2.4951 C   0  0  0  0  0  0  0  0  0  0  0  0
   12.1741    9.1607   -3.8370 C   0  0  0  0  0  0  0  0  0  0  0  0
  1  2  1  0
  3  2  1  0
  3  4  1  6
  3  5  1  0
  5  6  2  0
  5  7  1  0
  7  8  1  0
  8  9  1  0
  9 10  2  0
 10 11  1  0
 11 12  2  0
 12 13  1  0
 13 14  2  0
 12 15  1  0
 15 16  2  0
 16 17  1  0
 17 18  2  0
 18 23  1  0
 23 24  2  0
 24 25  1  0
 25 26  2  0
 26 27  1  0
 27 28  2  0
 28 29  1  0
 29 35  1  0
 35 36  2  0
 36 37  1  0
 37 38  2  0
 38 39  1  0
 39 40  2  0
 29 30  2  0
 30 31  1  0
 31 32  2  0
 32 33  1  0
 33 34  1  0
 18 19  1  0
 19 20  2  0
 20 21  1  0
 21 22  2  0
 14  3  1  0
 20 15  1  0
 14  9  1  0
 33 24  1  0
 21 11  1  0
 32 27  1  0
 40 35  1  0
M  END
>  <minimizedAffinity>  (273) 
-17.15992

$$$$
Mol: 180_46 - SminaDock
     RDKit          3D

 40 46  0  0  0  0  0  0  0  0999 V2000
    8.7221    0.1534  -17.5517 C   0  0  0  0  0  0  0  0  0  0  0  0
    7.4615   -0.5578  -17.2830 C   0  0  0  0  0  0  0  0  0  0  0  0
    7.2244   -1.5746  -18.0250 O   0  0  0  0  0  0  0  0  0  0  0  0
    6.5018   -0.2347  -16.3021 N   0  0  0  0  0  0  0  0  0  0  0  0
    5.3485   -0.9461  -16.1065 C   0  0  0  0  0  0  0  0  0  0  0  0
    4.9819   -1.9578  -16.7467 O   0  0  0  0  0  0  0  0  0  0  0  0
    4.6243   -0.3910  -15.0881 C   0  0  0  0  0  0  0  0  0  0  0  0
    3.5204   -0.7637  -14.6254 O   0  0  0  0  0  0  0  0  0  0  0  0
    5.3205    0.6997  -14.6151 C   0  0  0  0  0  0  0  0  0  0  0  0
    5.0848    1.6291  -13.6144 C   0  0  0  0  0  0  0  0  0  0  0  0
    5.9641    2.6449  -13.3406 C   0  0  0  0  0  0  0  0  0  0  0  0
    5.9717    3.6796  -12.4203 C   0  0  0  0  0  0  0  0  0  0  0  0
    5.0869    3.9331  -11.5555 O   0  0  0  0  0  0  0  0  0  0  0  0
    7.1433    4.4241  -12.5990 C   0  0  0  0  0  0  0  0  0  0  0  0
    7.6348    5.5406  -11.9538 C   0  0  0  0  0  0  0  0  0  0  0  0
    8.8389    6.0797  -12.3391 C   0  0  0  0  0  0  0  0  0  0  0  0
    9.5288    5.4877  -13.3663 C   0  0  0  0  0  0  0  0  0  0  0  0
    9.0208    4.3680  -14.0026 C   0  0  0  0  0  0  0  0  0  0  0  0
    7.8130    3.8087  -13.6326 C   0  0  0  0  0  0  0  0  0  0  0  0
    7.1101    2.7203  -14.0996 C   0  0  0  0  0  0  0  0  0  0  0  0
    7.3376    1.7811  -15.1031 C   0  0  0  0  0  0  0  0  0  0  0  0
    6.4730    0.7593  -15.3930 C   0  0  0  0  0  0  0  0  0  0  0  0
    9.3256    7.2194  -11.6674 N   0  0  0  0  0  0  0  0  0  0  0  0
    9.6888    7.1963  -10.4256 C   0  0  0  0  0  0  0  0  0  0  0  0
    9.5855    6.0219   -9.7785 N   0  0  0  0  0  0  0  0  0  0  0  0
    9.9429    5.9211   -8.4946 C   0  0  0  0  0  0  0  0  0  0  0  0
   10.4172    7.0309   -7.8432 C   0  0  0  0  0  0  0  0  0  0  0  0
   10.8029    6.9683   -6.4992 C   0  0  0  0  0  0  0  0  0  0  0  0
   11.2819    8.0963   -5.8491 C   0  0  0  0  0  0  0  0  0  0  0  0
   11.3827    9.2903   -6.5210 C   0  0  0  0  0  0  0  0  0  0  0  0
   11.0052    9.3572   -7.8414 C   0  0  0  0  0  0  0  0  0  0  0  0
   10.5227    8.2337   -8.5072 C   0  0  0  0  0  0  0  0  0  0  0  0
   10.1537    8.3051   -9.8049 N   0  0  0  0  0  0  0  0  0  0  0  0
   10.2205    9.1994  -10.3379 H   0  0  0  0  0  0  0  0  0  0  0  0
   11.6863    8.0505   -4.4547 C   0  0  0  0  0  0  0  0  0  0  0  0
   11.7237    6.8399   -3.7599 C   0  0  0  0  0  0  0  0  0  0  0  0
   12.1098    6.8182   -2.4436 C   0  0  0  0  0  0  0  0  0  0  0  0
   12.4643    7.9751   -1.7879 C   0  0  0  0  0  0  0  0  0  0  0  0
   12.4176    9.1518   -2.4984 C   0  0  0  0  0  0  0  0  0  0  0  0
   12.0376    9.2337   -3.8225 C   0  0  0  0  0  0  0  0  0  0  0  0
  1  2  1  0
  2  3  2  0
  2  4  1  0
  4  5  1  0
  5  6  2  0
  5  7  1  0
  7  8  2  0
  7  9  1  0
  9 10  2  0
 10 11  1  0
 11 12  1  0
 12 13  2  0
 12 14  1  0
 14 15  2  0
 15 16  1  0
 16 23  1  0
 23 24  2  0
 24 25  1  0
 25 26  2  0
 26 27  1  0
 27 28  2  0
 28 29  1  0
 29 35  1  0
 35 36  2  0
 36 37  1  0
 37 38  2  0
 38 39  1  0
 39 40  2  0
 29 30  2  0
 30 31  1  0
 31 32  2  0
 32 33  1  0
 16 17  2  0
 17 18  1  0
 18 19  2  0
 19 20  1  0
 20 21  1  0
 21 22  2  0
 22  4  1  0
 22  9  1  0
 20 11  2  0
 19 14  1  0
 33 24  1  0
 32 27  1  0
 40 35  1  0
 33 34  1  0
M  END
>  <minimizedAffinity>  (274) 
-17.16248

$$$$
Mol: 184_37 - SminaDock
     RDKit          3D

 42 49  0  0  0  0  0  0  0  0999 V2000
    7.8928    4.7590  -12.6884 C   0  0  0  0  0  0  0  0  0  0  0  0
    6.6072    4.7020  -12.1978 C   0  0  0  0  0  0  0  0  0  0  0  0
    5.7746    3.6715  -12.5682 C   0  0  0  0  0  0  0  0  0  0  0  0
    6.2698    2.6976  -13.4467 C   0  0  0  0  0  0  0  0  0  0  0  0
    7.5511    2.7440  -13.9429 C   0  0  0  0  0  0  0  0  0  0  0  0
    8.3553    3.7996  -13.5434 C   0  0  0  0  0  0  0  0  0  0  0  0
    7.7573    1.5793  -14.8357 C   0  0  2  0  0  0  0  0  0  0  0  0
    8.8867    0.7387  -14.4158 C   0  0  0  0  0  0  0  0  0  0  0  0
    8.6748   -0.3063  -13.7570 O   0  0  0  0  0  0  0  0  0  0  0  0
   10.2091    1.0914  -14.7436 N   0  0  0  0  0  0  0  0  0  0  0  0
   10.4914    1.9741  -15.8236 C   0  0  0  0  0  0  0  0  0  0  0  0
   11.6431    2.3147  -16.1511 O   0  0  0  0  0  0  0  0  0  0  0  0
    9.3601    2.4631  -16.5317 N   0  0  0  0  0  0  0  0  0  0  0  0
    8.0314    2.1157  -16.2111 C   0  0  0  0  0  0  0  0  0  0  0  0
    7.0568    2.2236  -16.9976 O   0  0  0  0  0  0  0  0  0  0  0  0
    6.4772    0.8629  -14.8009 C   0  0  0  0  0  0  0  0  0  0  0  0
    5.6051    1.5193  -13.9874 C   0  0  0  0  0  0  0  0  0  0  0  0
    4.2987    1.0362  -13.7816 C   0  0  0  0  0  0  0  0  0  0  0  0
    3.8860   -0.1216  -14.4108 C   0  0  0  0  0  0  0  0  0  0  0  0
    4.7692   -0.7951  -15.2406 C   0  0  0  0  0  0  0  0  0  0  0  0
    4.6515   -1.8943  -15.9510 O   0  0  0  0  0  0  0  0  0  0  0  0
    5.7788   -2.1263  -16.5769 N   0  0  0  0  0  0  0  0  0  0  0  0
    6.6690   -1.1606  -16.2775 C   0  0  0  0  0  0  0  0  0  0  0  0
    6.0300   -0.3001  -15.4194 C   0  0  0  0  0  0  0  0  0  0  0  0
   11.2101    7.5661   -6.8277 C   0  0  0  0  0  0  0  0  0  0  0  0
   11.6549    8.3882   -7.8480 C   0  0  0  0  0  0  0  0  0  0  0  0
   11.2487    8.1888   -9.1514 C   0  0  0  0  0  0  0  0  0  0  0  0
   10.3881    7.1694   -9.4925 C   0  0  0  0  0  0  0  0  0  0  0  0
    9.9390    6.3456   -8.4884 C   0  0  0  0  0  0  0  0  0  0  0  0
    9.0766    5.3272   -8.8429 C   0  0  0  0  0  0  0  0  0  0  0  0
    8.6892    5.1460  -10.1215 N   0  0  0  0  0  0  0  0  0  0  0  0
    9.1464    5.9683  -11.0775 C   0  0  0  0  0  0  0  0  0  0  0  0
    8.7876    5.8165  -12.3250 N   0  0  0  0  0  0  0  0  0  0  0  0
    9.9850    6.9644  -10.7565 N   0  0  0  0  0  0  0  0  0  0  0  0
   10.3306    7.5893  -11.4929 H   0  0  0  0  0  0  0  0  0  0  0  0
   10.3494    6.5485   -7.1775 C   0  0  0  0  0  0  0  0  0  0  0  0
   12.4575    8.1583   -2.7737 C   0  0  0  0  0  0  0  0  0  0  0  0
   11.7452    7.0324   -3.1588 C   0  0  0  0  0  0  0  0  0  0  0  0
   11.3504    6.8543   -4.4641 C   0  0  0  0  0  0  0  0  0  0  0  0
   11.6387    7.7757   -5.4493 C   0  0  0  0  0  0  0  0  0  0  0  0
   12.3503    8.9017   -5.0673 C   0  0  0  0  0  0  0  0  0  0  0  0
   12.7462    9.0802   -3.7576 C   0  0  0  0  0  0  0  0  0  0  0  0
 37 38  2  0
 38 39  1  0
 39 40  2  0
 40 25  1  0
 25 26  2  0
 26 27  1  0
 27 28  2  0
 28 29  1  0
 29 30  1  0
 30 31  2  0
 31 32  1  0
 32 33  2  0
 33  1  1  0
  1  2  2  0
  2  3  1  0
  3  4  2  0
  4  5  1  0
  5  6  2  0
  5  7  1  0
  7  8  1  1
  8  9  2  0
  8 10  1  0
 10 11  1  0
 11 12  2  0
 11 13  1  0
 13 14  1  0
 14 15  2  0
  7 16  1  0
 16 17  2  0
 17 18  1  0
 18 19  2  0
 19 20  1  0
 20 21  1  0
 21 22  1  0
 22 23  2  0
 23 24  1  0
 32 34  1  0
 34 35  1  0
 29 36  2  0
 40 41  1  0
 41 42  2  0
 42 37  1  0
 36 25  1  0
 34 28  1  0
  6  1  1  0
 14  7  1  0
 24 16  1  0
 17  4  1  0
 24 20  2  0
M  CHG  2  10  -1  13  -1
M  END
>  <minimizedAffinity>  (275) 
-17.24419

$$$$
Mol: 168_5 - SminaDock
     RDKit          3D

 39 45  0  0  0  0  0  0  0  0999 V2000
    8.7663    5.9508  -12.4636 C   0  0  0  0  0  0  0  0  0  0  0  0
    9.4232    5.2426  -13.4413 C   0  0  0  0  0  0  0  0  0  0  0  0
    8.8230    4.1226  -14.0003 C   0  0  0  0  0  0  0  0  0  0  0  0
    7.5572    3.7020  -13.5837 C   0  0  0  0  0  0  0  0  0  0  0  0
    6.9094    4.4163  -12.6066 C   0  0  0  0  0  0  0  0  0  0  0  0
    7.5296    5.5465  -12.0512 C   0  0  0  0  0  0  0  0  0  0  0  0
    5.5658    4.0383  -12.1119 C   0  0  0  0  0  0  0  0  0  0  0  0
    4.9665    2.8474  -12.7101 C   0  0  0  0  0  0  0  0  0  0  0  0
    5.7174    2.1410  -13.7506 C   0  0  0  0  0  0  0  0  0  0  0  0
    6.9647    2.5187  -14.1955 C   0  0  0  0  0  0  0  0  0  0  0  0
    7.6249    1.8238  -15.1679 C   0  0  0  0  0  0  0  0  0  0  0  0
    6.9767    0.7069  -15.6949 C   0  0  0  0  0  0  0  0  0  0  0  0
    5.7283    0.3059  -15.2686 C   0  0  0  0  0  0  0  0  0  0  0  0
    5.0890    1.0159  -14.2963 C   0  0  0  0  0  0  0  0  0  0  0  0
    5.0924   -0.8150  -15.8065 C   0  0  0  0  0  0  0  0  0  0  0  0
    3.9689   -1.1975  -15.4406 O   0  0  0  0  0  0  0  0  0  0  0  0
    5.7539   -1.5197  -16.7877 C   0  0  0  0  0  0  0  0  0  0  0  0
    5.2798   -2.5450  -17.3448 O   0  0  0  0  0  0  0  0  0  0  0  0
    6.9665   -1.0958  -17.1734 N   0  0  0  0  0  0  0  0  0  0  0  0
    7.5546   -0.0276  -16.6500 N   0  0  0  0  0  0  0  0  0  0  0  0
    8.8682    0.3695  -17.1191 C   0  0  0  0  0  0  0  0  0  0  0  0
   11.2888    8.0099   -6.0198 C   0  0  0  0  0  0  0  0  0  0  0  0
   11.5111    9.1366   -6.7855 C   0  0  0  0  0  0  0  0  0  0  0  0
   11.1755    9.2015   -8.1209 C   0  0  0  0  0  0  0  0  0  0  0  0
   10.5929    8.1091   -8.7384 C   0  0  0  0  0  0  0  0  0  0  0  0
   10.3558    6.9646   -8.0025 C   0  0  0  0  0  0  0  0  0  0  0  0
    9.7726    5.8430   -8.5813 C   0  0  0  0  0  0  0  0  0  0  0  0
    9.4544    5.9278   -9.8801 N   0  0  0  0  0  0  0  0  0  0  0  0
    9.6752    7.0295  -10.6165 C   0  0  0  0  0  0  0  0  0  0  0  0
    9.3728    7.1211  -11.8668 N   0  0  0  0  0  0  0  0  0  0  0  0
   10.2410    8.1001  -10.0300 N   0  0  0  0  0  0  0  0  0  0  0  0
   10.4135    8.9563  -10.5991 H   0  0  0  0  0  0  0  0  0  0  0  0
   10.7070    6.9313   -6.6539 C   0  0  0  0  0  0  0  0  0  0  0  0
   12.3718    7.9845   -1.9048 C   0  0  0  0  0  0  0  0  0  0  0  0
   12.0072    6.8051   -2.5237 C   0  0  0  0  0  0  0  0  0  0  0  0
   11.6512    6.8073   -3.8724 C   0  0  0  0  0  0  0  0  0  0  0  0
   11.6541    7.9700   -4.6114 C   0  0  0  0  0  0  0  0  0  0  0  0
   12.0183    9.1359   -3.9851 C   0  0  0  0  0  0  0  0  0  0  0  0
   12.3790    9.1562   -2.6331 C   0  0  0  0  0  0  0  0  0  0  0  0
 34 35  2  0
 35 36  1  0
 36 37  2  0
 37 22  1  0
 22 23  2  0
 23 24  1  0
 24 25  2  0
 25 26  1  0
 26 27  1  0
 27 28  2  0
 28 29  1  0
 29 30  2  0
 30  1  1  0
  1  2  2  0
  2  3  1  0
  3  4  2  0
  4  5  1  0
  5  6  2  0
  5  7  1  0
  7  8  1  0
  8  9  1  0
  9 10  2  0
 10 11  1  0
 11 12  2  0
 12 13  1  0
 13 14  2  0
 13 15  1  0
 15 16  2  0
 15 17  1  0
 17 18  2  0
 17 19  1  0
 19 20  1  0
 20 21  1  0
 29 31  1  0
 31 32  1  0
 26 33  2  0
 37 38  1  0
 38 39  2  0
 39 34  1  0
 33 22  1  0
 31 25  1  0
  6  1  1  0
 14  9  1  0
 10  4  1  0
 20 12  1  0
M  CHG  1  19  -1
M  END
>  <minimizedAffinity>  (276) 
-17.23820

$$$$
Mol: 133_14 - SminaDock
     RDKit          3D

 43 49  0  0  0  0  0  0  0  0999 V2000
    2.7952   -0.4854  -12.5891 H   0  0  0  0  0  0  0  0  0  0  0  0
    2.9348   -0.6351  -13.5778 O   0  0  0  0  0  0  0  0  0  0  0  0
    4.0329   -0.1199  -14.2627 C   0  0  0  0  0  0  0  0  0  0  0  0
    4.6765    0.9414  -13.7227 N   0  0  0  0  0  0  0  0  0  0  0  0
    5.7329    1.4115  -14.4133 C   0  0  0  0  0  0  0  0  0  0  0  0
    6.1439    0.8579  -15.6046 C   0  0  0  0  0  0  0  0  0  0  0  0
    5.4753   -0.2237  -16.1349 C   0  0  0  0  0  0  0  0  0  0  0  0
    4.4010   -0.7133  -15.4424 C   0  0  0  0  0  0  0  0  0  0  0  0
    7.2212    1.5415  -16.3400 C   0  0  0  0  0  0  0  0  0  0  0  0
    8.2962    2.0517  -15.4458 C   0  0  1  0  0  0  0  0  0  0  0  0
    7.7006    2.8771  -14.3647 C   0  0  0  0  0  0  0  0  0  0  0  0
    8.3565    3.9743  -13.8346 C   0  0  0  0  0  0  0  0  0  0  0  0
    7.8914    4.6706  -12.7387 C   0  0  0  0  0  0  0  0  0  0  0  0
    6.7180    4.2379  -12.1592 C   0  0  0  0  0  0  0  0  0  0  0  0
    6.0483    3.1497  -12.6731 C   0  0  0  0  0  0  0  0  0  0  0  0
    6.5355    2.4593  -13.7872 C   0  0  0  0  0  0  0  0  0  0  0  0
    9.0112    0.8924  -14.7723 C   0  0  0  0  0  0  0  0  0  0  0  0
   10.0469    0.2325  -15.6150 C   0  0  0  0  0  0  0  0  0  0  0  0
   10.9345    1.2011  -16.3542 C   0  0  0  0  0  0  0  0  0  0  0  0
   10.6233    2.6318  -15.9021 C   0  0  1  0  0  0  0  0  0  0  0  0
   11.5014    3.5506  -16.5893 N   0  0  2  0  0  0  0  0  0  0  0  0
   11.3538    4.4934  -16.1301 H   0  0  0  0  0  0  0  0  0  0  0  0
   11.1985    3.6964  -17.5844 H   0  0  0  0  0  0  0  0  0  0  0  0
   12.5052    3.3322  -16.4866 H   0  0  0  0  0  0  0  0  0  0  0  0
    9.2204    2.8773  -16.3165 C   0  0  0  0  0  0  0  0  0  0  0  0
    8.6100    5.8010  -12.2263 N   0  0  0  0  0  0  0  0  0  0  0  0
    9.0199    5.9302  -11.0306 C   0  0  0  0  0  0  0  0  0  0  0  0
    9.6763    7.0564  -10.7278 N   0  0  0  0  0  0  0  0  0  0  0  0
   10.1307    7.2410   -9.4829 C   0  0  0  0  0  0  0  0  0  0  0  0
   10.8087    8.3971   -9.1635 C   0  0  0  0  0  0  0  0  0  0  0  0
   11.2854    8.5997   -7.8787 C   0  0  0  0  0  0  0  0  0  0  0  0
   11.0764    7.6362   -6.9228 C   0  0  0  0  0  0  0  0  0  0  0  0
   10.3884    6.4734   -7.2639 C   0  0  0  0  0  0  0  0  0  0  0  0
    9.9086    6.2488   -8.5214 C   0  0  0  0  0  0  0  0  0  0  0  0
    9.2278    5.1117   -8.8882 C   0  0  0  0  0  0  0  0  0  0  0  0
    8.7830    4.9525  -10.1446 N   0  0  0  0  0  0  0  0  0  0  0  0
    8.2590    4.0685  -10.4085 H   0  0  0  0  0  0  0  0  0  0  0  0
   11.5898    7.8723   -5.5793 C   0  0  0  0  0  0  0  0  0  0  0  0
   11.3919    6.9112   -4.6139 C   0  0  0  0  0  0  0  0  0  0  0  0
   11.8693    7.1015   -3.3152 C   0  0  0  0  0  0  0  0  0  0  0  0
   12.5391    8.2659   -3.0218 C   0  0  0  0  0  0  0  0  0  0  0  0
   12.7533    9.2518   -3.9741 C   0  0  0  0  0  0  0  0  0  0  0  0
   12.2656    9.0231   -5.2427 C   0  0  0  0  0  0  0  0  0  0  0  0
  1  2  1  0
  2  3  1  0
  3  4  2  0
  4  5  1  0
  5  6  2  0
  6  7  1  0
  7  8  2  0
  6  9  1  0
 10  9  1  6
 10 11  1  0
 11 12  2  0
 12 13  1  0
 13 26  1  0
 26 27  2  0
 27 28  1  0
 28 29  2  0
 29 30  1  0
 30 31  2  0
 31 32  1  0
 32 38  1  0
 38 39  2  0
 39 40  1  0
 40 41  2  0
 41 42  1  0
 42 43  2  0
 32 33  2  0
 33 34  1  0
 34 35  2  0
 35 36  1  0
 36 37  1  0
 13 14  2  0
 14 15  1  0
 15 16  2  0
 10 17  1  0
 17 18  1  0
 18 19  1  0
 20 19  1  6
 20 21  1  0
 21 22  1  1
 21 23  1  0
 21 24  1  0
 20 25  1  0
  8  3  1  0
 25 10  1  0
 16  5  1  0
 16 11  1  0
 36 27  1  0
 34 29  1  0
 43 38  1  0
M  CHG  1  21   1
M  END
>  <minimizedAffinity>  (277) 
-17.17399

$$$$
Mol: 133_42 - SminaDock
     RDKit          3D

 45 52  0  0  0  0  0  0  0  0999 V2000
    7.3682    6.1149  -12.7466 C   0  0  0  0  0  0  0  0  0  0  0  0
    6.5177    7.1996  -12.7554 C   0  0  0  0  0  0  0  0  0  0  0  0
    6.9407    8.4725  -12.4262 C   0  0  0  0  0  0  0  0  0  0  0  0
    8.2687    8.6218  -12.0823 C   0  0  0  0  0  0  0  0  0  0  0  0
    9.1592    7.5581  -12.0601 C   0  0  0  0  0  0  0  0  0  0  0  0
    8.6915    6.2828  -12.4004 C   0  0  0  0  0  0  0  0  0  0  0  0
   12.0006    2.8905  -14.5438 H   0  0  0  0  0  0  0  0  0  0  0  0
   11.5199    2.7330  -15.4371 O   0  0  0  0  0  0  0  0  0  0  0  0
   10.1732    2.3863  -15.4453 C   0  0  0  0  0  0  0  0  0  0  0  0
    9.5353    1.9843  -14.4250 N   0  0  0  0  0  0  0  0  0  0  0  0
    8.1311    1.6913  -14.7284 C   0  0  2  0  0  0  0  0  0  0  0  0
    8.0449    2.0108  -16.1987 C   0  0  0  0  0  0  0  0  0  0  0  0
    7.0000    1.8948  -16.8617 O   0  0  0  0  0  0  0  0  0  0  0  0
    9.3312    2.4328  -16.5837 N   0  0  0  0  0  0  0  0  0  0  0  0
    7.2510    2.6391  -14.0137 C   0  0  0  0  0  0  0  0  0  0  0  0
    7.7173    3.8992  -13.6677 C   0  0  0  0  0  0  0  0  0  0  0  0
    6.8585    4.7940  -13.1054 C   0  0  0  0  0  0  0  0  0  0  0  0
    5.5380    4.5088  -12.8606 C   0  0  0  0  0  0  0  0  0  0  0  0
    5.0758    3.2401  -13.2086 C   0  0  0  0  0  0  0  0  0  0  0  0
    5.9388    2.3236  -13.7780 C   0  0  0  0  0  0  0  0  0  0  0  0
    5.4530    0.9407  -14.0200 C   0  0  0  0  0  0  0  0  0  0  0  0
    4.1138    0.6523  -13.9070 C   0  0  0  0  0  0  0  0  0  0  0  0
    3.6545   -0.6236  -14.2526 C   0  0  0  0  0  0  0  0  0  0  0  0
    4.5697   -1.5471  -14.6960 C   0  0  0  0  0  0  0  0  0  0  0  0
    5.8862   -1.2690  -14.8070 C   0  0  0  0  0  0  0  0  0  0  0  0
    6.3534    0.0028  -14.4616 C   0  0  0  0  0  0  0  0  0  0  0  0
    7.7889    0.2905  -14.4659 C   0  0  0  0  0  0  0  0  0  0  0  0
   10.5225    7.7607  -11.6991 N   0  0  0  0  0  0  0  0  0  0  0  0
   10.8950    7.7988  -10.4710 C   0  0  0  0  0  0  0  0  0  0  0  0
   10.0350    7.6520   -9.4515 N   0  0  0  0  0  0  0  0  0  0  0  0
   10.4226    7.6893   -8.1626 C   0  0  0  0  0  0  0  0  0  0  0  0
    9.5297    7.5372   -7.1188 C   0  0  0  0  0  0  0  0  0  0  0  0
    9.9587    7.5802   -5.8098 C   0  0  0  0  0  0  0  0  0  0  0  0
   11.2878    7.7754   -5.4771 C   0  0  0  0  0  0  0  0  0  0  0  0
   12.1607    7.9249   -6.5416 C   0  0  0  0  0  0  0  0  0  0  0  0
   11.7480    7.8846   -7.8642 C   0  0  0  0  0  0  0  0  0  0  0  0
   12.6471    8.0376   -8.9067 C   0  0  0  0  0  0  0  0  0  0  0  0
   12.1857    7.9888  -10.1709 N   0  0  0  0  0  0  0  0  0  0  0  0
   12.9035    8.1101  -10.9379 H   0  0  0  0  0  0  0  0  0  0  0  0
   11.7610    7.8239   -4.0988 C   0  0  0  0  0  0  0  0  0  0  0  0
   11.9611    6.6979   -3.3300 C   0  0  0  0  0  0  0  0  0  0  0  0
   12.4153    6.8131   -2.0230 C   0  0  0  0  0  0  0  0  0  0  0  0
   12.6646    8.0758   -1.5031 C   0  0  0  0  0  0  0  0  0  0  0  0
   12.4689    9.2136   -2.2613 C   0  0  0  0  0  0  0  0  0  0  0  0
   12.0180    9.0615   -3.5520 C   0  0  0  0  0  0  0  0  0  0  0  0
  7  8  1  0
  8  9  1  0
  9 10  2  0
 10 11  1  0
 11 12  1  0
 12 13  2  0
 12 14  1  0
 11 15  1  0
 15 16  2  0
 16 17  1  0
 17  1  1  0
  1  2  2  0
  2  3  1  0
  3  4  2  0
  4  5  1  0
  5 28  1  0
 28 29  2  0
 29 30  1  0
 30 31  2  0
 31 32  1  0
 32 33  2  0
 33 34  1  0
 34 40  1  0
 40 41  2  0
 41 42  1  0
 42 43  2  0
 43 44  1  0
 44 45  2  0
 34 35  2  0
 35 36  1  0
 36 37  2  0
 37 38  1  0
 38 39  1  0
  5  6  2  0
 17 18  2  0
 18 19  1  0
 19 20  2  0
 20 21  1  0
 21 22  2  0
 22 23  1  0
 23 24  2  0
 24 25  1  0
 25 26  2  0
 26 27  1  0
 14  9  1  0
 20 15  1  0
 26 21  1  0
 11 27  1  6
  6  1  1  0
 38 29  1  0
 36 31  1  0
 45 40  1  0
M  CHG  1  14  -1
M  END
>  <minimizedAffinity>  (278) 
-17.24682

$$$$
Mol: 182_8 - SminaDock
     RDKit          3D

 40 46  0  0  0  0  0  0  0  0999 V2000
    6.8760   -1.4800  -15.5020 H   0  0  0  0  0  0  0  0  0  0  0  0
    6.4600   -1.6101  -16.4081 O   0  0  0  0  0  0  0  0  0  0  0  0
    5.8543   -0.4191  -16.8574 C   0  0  1  0  0  0  0  0  0  0  0  0
    6.7935    0.1970  -17.8534 C   0  0  0  0  0  0  0  0  0  0  0  0
    4.5033   -0.6435  -17.3635 C   0  0  0  0  0  0  0  0  0  0  0  0
    4.2867   -0.7329  -18.5907 O   0  0  0  0  0  0  0  0  0  0  0  0
    3.4529   -0.7580  -16.4696 O   0  0  0  0  0  0  0  0  0  0  0  0
    3.6884   -0.7484  -15.0529 C   0  0  0  0  0  0  0  0  0  0  0  0
    4.6863    0.3134  -14.7785 C   0  0  0  0  0  0  0  0  0  0  0  0
    4.5834    1.1439  -13.6647 C   0  0  0  0  0  0  0  0  0  0  0  0
    5.5270    2.1235  -13.4350 C   0  0  0  0  0  0  0  0  0  0  0  0
    6.5965    2.3076  -14.3001 C   0  0  0  0  0  0  0  0  0  0  0  0
    6.6548    1.4590  -15.3905 C   0  0  0  0  0  0  0  0  0  0  0  0
    5.7392    0.4778  -15.6508 C   0  0  0  0  0  0  0  0  0  0  0  0
    7.4250    3.4048  -13.8094 C   0  0  0  0  0  0  0  0  0  0  0  0
    8.5819    3.9940  -14.2709 C   0  0  0  0  0  0  0  0  0  0  0  0
    9.2243    5.0341  -13.6599 C   0  0  0  0  0  0  0  0  0  0  0  0
    8.6668    5.5378  -12.4797 C   0  0  0  0  0  0  0  0  0  0  0  0
    7.5104    4.9731  -11.9893 C   0  0  0  0  0  0  0  0  0  0  0  0
    6.8849    3.9222  -12.6306 C   0  0  0  0  0  0  0  0  0  0  0  0
    5.6890    3.1267  -12.3802 C   0  0  0  0  0  0  0  0  0  0  0  0
    4.9171    3.2911  -11.3946 O   0  0  0  0  0  0  0  0  0  0  0  0
    9.3436    6.6042  -11.8688 N   0  0  0  0  0  0  0  0  0  0  0  0
    9.6584    6.6782  -10.6403 C   0  0  0  0  0  0  0  0  0  0  0  0
    9.3225    5.6374   -9.7993 C   0  0  0  0  0  0  0  0  0  0  0  0
    9.6437    5.6632   -8.4414 C   0  0  0  0  0  0  0  0  0  0  0  0
   10.3136    6.7771   -7.9746 C   0  0  0  0  0  0  0  0  0  0  0  0
   10.6550    6.8430   -6.6183 C   0  0  0  0  0  0  0  0  0  0  0  0
   11.3230    7.9369   -6.1168 C   0  0  0  0  0  0  0  0  0  0  0  0
   11.6373    8.9521   -6.9960 C   0  0  0  0  0  0  0  0  0  0  0  0
   11.3049    8.8932   -8.3273 C   0  0  0  0  0  0  0  0  0  0  0  0
   10.6397    7.8066   -8.8333 C   0  0  0  0  0  0  0  0  0  0  0  0
   10.3167    7.7533  -10.1382 N   0  0  0  0  0  0  0  0  0  0  0  0
   10.5630    8.5324  -10.7902 H   0  0  0  0  0  0  0  0  0  0  0  0
   11.6757    7.9947   -4.6979 C   0  0  0  0  0  0  0  0  0  0  0  0
   12.0537    9.1761   -4.0926 C   0  0  0  0  0  0  0  0  0  0  0  0
   12.3869    9.2102   -2.7373 C   0  0  0  0  0  0  0  0  0  0  0  0
   12.3516    8.0741   -1.9575 C   0  0  0  0  0  0  0  0  0  0  0  0
   11.9724    6.8931   -2.5679 C   0  0  0  0  0  0  0  0  0  0  0  0
   11.6447    6.8612   -3.9017 C   0  0  0  0  0  0  0  0  0  0  0  0
  1  2  1  0
  3  2  1  0
  3  4  1  6
  3  5  1  0
  5  6  2  0
  5  7  1  0
  7  8  1  0
  8  9  1  0
  9 10  2  0
 10 11  1  0
 11 12  2  0
 12 13  1  0
 13 14  2  0
 12 15  1  0
 15 16  2  0
 16 17  1  0
 17 18  2  0
 18 23  1  0
 23 24  2  0
 24 25  1  0
 25 26  2  0
 26 27  1  0
 27 28  2  0
 28 29  1  0
 29 35  1  0
 35 36  2  0
 36 37  1  0
 37 38  2  0
 38 39  1  0
 39 40  2  0
 29 30  2  0
 30 31  1  0
 31 32  2  0
 32 33  1  0
 33 34  1  0
 18 19  1  0
 19 20  2  0
 20 21  1  0
 21 22  2  0
 14  3  1  0
 20 15  1  0
 14  9  1  0
 33 24  1  0
 21 11  1  0
 32 27  1  0
 40 35  1  0
M  END
>  <minimizedAffinity>  (279) 
-17.24401

$$$$
Mol: 186_6 - SminaDock
     RDKit          3D

 43 50  0  0  0  0  0  0  0  0999 V2000
    7.9819   -1.3970  -18.8886 H   0  0  0  0  0  0  0  0  0  0  0  0
    7.3917   -2.0234  -18.3658 O   0  0  0  0  0  0  0  0  0  0  0  0
    6.5706   -1.5101  -17.3643 C   0  0  0  0  0  0  0  0  0  0  0  0
    6.9546   -0.4468  -16.6396 N   0  0  0  0  0  0  0  0  0  0  0  0
    6.2356    0.1014  -15.6724 C   0  0  0  0  0  0  0  0  0  0  0  0
    6.7354    1.2229  -14.9812 C   0  0  0  0  0  0  0  0  0  0  0  0
    5.9200    1.7298  -14.0044 C   0  0  0  0  0  0  0  0  0  0  0  0
    4.7137    1.1786  -13.7279 N   0  0  0  0  0  0  0  0  0  0  0  0
    4.2523    0.1080  -14.3960 C   0  0  0  0  0  0  0  0  0  0  0  0
    3.1282   -0.4200  -14.1507 O   0  0  0  0  0  0  0  0  0  0  0  0
    5.0115   -0.4612  -15.3953 C   0  0  0  0  0  0  0  0  0  0  0  0
    4.5311   -1.5589  -16.0890 C   0  0  0  0  0  0  0  0  0  0  0  0
    5.3347   -2.0768  -17.0831 C   0  0  0  0  0  0  0  0  0  0  0  0
    6.5792    2.8897  -13.4290 C   0  0  0  0  0  0  0  0  0  0  0  0
    6.2152    3.7970  -12.4275 C   0  0  0  0  0  0  0  0  0  0  0  0
    7.0315    4.8461  -12.0773 C   0  0  0  0  0  0  0  0  0  0  0  0
    8.2604    5.0385  -12.7175 C   0  0  0  0  0  0  0  0  0  0  0  0
    8.6265    4.1531  -13.7014 C   0  0  0  0  0  0  0  0  0  0  0  0
    7.7757    3.0975  -14.0341 C   0  0  0  0  0  0  0  0  0  0  0  0
    7.9610    1.9997  -15.0471 C   0  0  1  0  0  0  0  0  0  0  0  0
    9.2037    1.2780  -14.5794 C   0  0  0  0  0  0  0  0  0  0  0  0
    9.8712    0.4089  -15.5746 C   0  0  0  0  0  0  0  0  0  0  0  0
    9.9409    0.9709  -16.8244 O   0  0  0  0  0  0  0  0  0  0  0  0
    9.6554    2.3377  -16.8096 C   0  0  0  0  0  0  0  0  0  0  0  0
    8.2272    2.5948  -16.4091 C   0  0  0  0  0  0  0  0  0  0  0  0
    9.0968    6.1289  -12.3466 N   0  0  0  0  0  0  0  0  0  0  0  0
    9.4146    6.2631  -11.1139 C   0  0  0  0  0  0  0  0  0  0  0  0
    8.9590    5.3849  -10.2077 N   0  0  0  0  0  0  0  0  0  0  0  0
    9.2516    5.4642   -8.9015 C   0  0  0  0  0  0  0  0  0  0  0  0
   10.0533    6.4825   -8.4407 C   0  0  0  0  0  0  0  0  0  0  0  0
   10.3968    6.6301   -7.1162 C   0  0  0  0  0  0  0  0  0  0  0  0
   11.2010    7.6556   -6.6671 C   0  0  0  0  0  0  0  0  0  0  0  0
   11.6662    8.5551   -7.6025 C   0  0  0  0  0  0  0  0  0  0  0  0
   11.3375    8.4364   -8.9583 C   0  0  0  0  0  0  0  0  0  0  0  0
   10.5325    7.4016   -9.3756 C   0  0  0  0  0  0  0  0  0  0  0  0
   10.2064    7.2720  -10.6712 N   0  0  0  0  0  0  0  0  0  0  0  0
   10.5409    7.9376  -11.4155 H   0  0  0  0  0  0  0  0  0  0  0  0
   11.5651    7.8068   -5.2500 C   0  0  0  0  0  0  0  0  0  0  0  0
   12.0991    9.0062   -4.8198 C   0  0  0  0  0  0  0  0  0  0  0  0
   12.4551    9.2024   -3.5117 C   0  0  0  0  0  0  0  0  0  0  0  0
   12.2722    8.1761   -2.6182 C   0  0  0  0  0  0  0  0  0  0  0  0
   11.7339    6.9588   -3.0378 C   0  0  0  0  0  0  0  0  0  0  0  0
   11.3818    6.7807   -4.3581 C   0  0  0  0  0  0  0  0  0  0  0  0
  1  2  1  0
  2  3  1  0
  3  4  2  0
  4  5  1  0
  5  6  1  0
  6  7  2  0
  7  8  1  0
  8  9  1  0
  9 10  2  0
  9 11  1  0
 11 12  1  0
 12 13  2  0
  7 14  1  0
 14 15  2  0
 15 16  1  0
 16 17  2  0
 17 26  1  0
 26 27  2  0
 27 28  1  0
 28 29  2  0
 29 30  1  0
 30 31  2  0
 31 32  1  0
 32 38  1  0
 38 39  2  0
 39 40  1  0
 40 41  2  0
 41 42  1  0
 42 43  2  0
 32 33  2  0
 33 34  1  0
 34 35  2  0
 35 36  1  0
 36 37  1  0
 17 18  1  0
 18 19  2  0
 19 20  1  0
 20 21  1  1
 21 22  1  0
 22 23  1  0
 23 24  1  0
 24 25  1  0
 13  3  1  0
 19 14  1  0
 25 20  1  0
 11  5  2  0
 36 27  1  0
 20  6  1  0
 35 30  1  0
 43 38  1  0
M  CHG  1   8  -1
M  END
>  <minimizedAffinity>  (280) 
-17.16622

$$$$
Mol: 126_56 - SminaDock
     RDKit          3D

 41 48  0  0  0  0  0  0  0  0999 V2000
    8.7324    5.9859  -12.2343 C   0  0  0  0  0  0  0  0  0  0  0  0
    7.4825    5.5515  -11.8428 C   0  0  0  0  0  0  0  0  0  0  0  0
    6.9616    4.4042  -12.4501 C   0  0  0  0  0  0  0  0  0  0  0  0
    7.6728    3.7198  -13.4155 C   0  0  0  0  0  0  0  0  0  0  0  0
    8.9030    4.1504  -13.7987 C   0  0  0  0  0  0  0  0  0  0  0  0
    9.4255    5.2818  -13.2050 C   0  0  0  0  0  0  0  0  0  0  0  0
    9.7238    3.4858  -14.8291 C   0  0  1  0  0  0  0  0  0  0  0  0
    9.1917    2.2514  -15.4101 C   0  0  0  0  0  0  0  0  0  0  0  0
    7.8553    1.8470  -14.9843 C   0  0  0  0  0  0  0  0  0  0  0  0
    7.1288    2.5080  -14.0449 C   0  0  0  0  0  0  0  0  0  0  0  0
    5.8760    2.0977  -13.6532 N   0  0  0  0  0  0  0  0  0  0  0  0
    5.3196    1.0092  -14.1982 C   0  0  0  0  0  0  0  0  0  0  0  0
    4.0445    0.5788  -13.8102 C   0  0  0  0  0  0  0  0  0  0  0  0
    3.4512   -0.5375  -14.3564 C   0  0  0  0  0  0  0  0  0  0  0  0
    4.1524   -1.2385  -15.3136 C   0  0  0  0  0  0  0  0  0  0  0  0
    5.4041   -0.8158  -15.6944 C   0  0  0  0  0  0  0  0  0  0  0  0
    6.0288    0.3158  -15.1540 C   0  0  0  0  0  0  0  0  0  0  0  0
    7.2770    0.6895  -15.5717 C   0  0  0  0  0  0  0  0  0  0  0  0
    9.8733    4.5293  -15.9565 C   0  0  0  0  0  0  0  0  0  0  0  0
   11.0922    4.1245  -16.5898 N   0  0  0  0  0  0  0  0  0  0  0  0
   10.9617    3.3738  -17.2824 H   0  0  0  0  0  0  0  0  0  0  0  0
   12.0027    3.7942  -15.5179 C   0  0  0  0  0  0  0  0  0  0  0  0
   11.1695    3.3415  -14.3521 C   0  0  0  0  0  0  0  0  0  0  0  0
   11.3238    8.0954   -5.8281 C   0  0  0  0  0  0  0  0  0  0  0  0
   11.4966    9.2231   -6.6042 C   0  0  0  0  0  0  0  0  0  0  0  0
   11.1402    9.2974   -7.9315 C   0  0  0  0  0  0  0  0  0  0  0  0
   10.5770    8.1996   -8.5470 C   0  0  0  0  0  0  0  0  0  0  0  0
   10.3945    7.0621   -7.7926 C   0  0  0  0  0  0  0  0  0  0  0  0
    9.8345    5.9417   -8.3683 C   0  0  0  0  0  0  0  0  0  0  0  0
    9.4851    6.0115   -9.6648 N   0  0  0  0  0  0  0  0  0  0  0  0
    9.6690    7.1305  -10.3916 C   0  0  0  0  0  0  0  0  0  0  0  0
    9.3190    7.1638  -11.6414 N   0  0  0  0  0  0  0  0  0  0  0  0
   10.2114    8.2314   -9.8528 N   0  0  0  0  0  0  0  0  0  0  0  0
   10.3699    9.1114  -10.3775 H   0  0  0  0  0  0  0  0  0  0  0  0
   10.7613    7.0091   -6.4551 C   0  0  0  0  0  0  0  0  0  0  0  0
   12.4512    7.9353   -1.7759 C   0  0  0  0  0  0  0  0  0  0  0  0
   12.0699    6.7848   -2.4562 C   0  0  0  0  0  0  0  0  0  0  0  0
   11.7105    6.8694   -3.7675 C   0  0  0  0  0  0  0  0  0  0  0  0
   11.7141    8.0725   -4.4443 C   0  0  0  0  0  0  0  0  0  0  0  0
   12.0873    9.2021   -3.7802 C   0  0  0  0  0  0  0  0  0  0  0  0
   12.4512    9.1221   -2.4559 C   0  0  0  0  0  0  0  0  0  0  0  0
 36 37  2  0
 37 38  1  0
 38 39  2  0
 39 24  1  0
 24 25  2  0
 25 26  1  0
 26 27  2  0
 27 28  1  0
 28 29  1  0
 29 30  2  0
 30 31  1  0
 31 32  2  0
 32  1  1  0
  1  2  2  0
  2  3  1  0
  3  4  2  0
  4  5  1  0
  5  6  2  0
  5  7  1  0
  7  8  1  6
  8  9  1  0
  9 10  2  0
 10 11  1  0
 11 12  2  0
 12 13  1  0
 13 14  2  0
 14 15  1  0
 15 16  2  0
 16 17  1  0
 17 18  2  0
  7 19  1  0
 19 20  1  0
 20 21  1  0
 20 22  1  0
 22 23  1  0
 31 33  1  0
 33 34  1  0
 28 35  2  0
 39 40  1  0
 40 41  2  0
 41 36  1  0
 35 24  1  0
 33 27  1  0
  6  1  1  0
 23  7  1  0
 10  4  1  0
 17 12  1  0
 18  9  1  0
M  END
>  <minimizedAffinity>  (281) 
-17.23667

$$$$
Mol: 188_59 - SminaDock
     RDKit          3D

 42 49  0  0  0  0  0  0  0  0999 V2000
    8.1297    5.0943  -12.5037 C   0  0  0  0  0  0  0  0  0  0  0  0
    6.9415    4.8400  -11.8407 C   0  0  0  0  0  0  0  0  0  0  0  0
    6.1042    3.8206  -12.1995 C   0  0  0  0  0  0  0  0  0  0  0  0
    6.4496    3.0069  -13.2647 C   0  0  0  0  0  0  0  0  0  0  0  0
    7.6153    3.2210  -13.9501 C   0  0  0  0  0  0  0  0  0  0  0  0
    8.4530    4.2736  -13.5588 C   0  0  0  0  0  0  0  0  0  0  0  0
    7.7122    2.2165  -15.0127 C   0  0  2  0  0  0  0  0  0  0  0  0
    8.9677    1.4395  -14.6478 C   0  0  0  0  0  0  0  0  0  0  0  0
    8.9368    0.3395  -14.0765 O   0  0  0  0  0  0  0  0  0  0  0  0
   10.0322    2.2521  -15.1012 N   0  0  0  0  0  0  0  0  0  0  0  0
    9.4543    3.0590  -16.1533 C   0  0  0  0  0  0  0  0  0  0  0  0
   10.1345    3.9243  -16.8052 O   0  0  0  0  0  0  0  0  0  0  0  0
    8.0880    2.7067  -16.2870 N   0  0  0  0  0  0  0  0  0  0  0  0
    7.5484    2.8095  -17.1464 H   0  0  0  0  0  0  0  0  0  0  0  0
    6.5409    1.3950  -14.9143 C   0  0  0  0  0  0  0  0  0  0  0  0
    5.7868    1.8608  -13.8788 C   0  0  0  0  0  0  0  0  0  0  0  0
    4.5762    1.2118  -13.5835 C   0  0  0  0  0  0  0  0  0  0  0  0
    4.1529    0.1258  -14.3211 C   0  0  0  0  0  0  0  0  0  0  0  0
    4.9570   -0.3044  -15.3600 C   0  0  0  0  0  0  0  0  0  0  0  0
    4.5619   -1.4024  -16.1305 C   0  0  0  0  0  0  0  0  0  0  0  0
    5.3095   -1.8888  -17.1809 C   0  0  0  0  0  0  0  0  0  0  0  0
    6.5093   -1.2409  -17.4691 C   0  0  0  0  0  0  0  0  0  0  0  0
    6.9381   -0.1581  -16.7391 C   0  0  0  0  0  0  0  0  0  0  0  0
    6.1507    0.2880  -15.6976 C   0  0  0  0  0  0  0  0  0  0  0  0
   11.3156    7.6810   -6.5647 C   0  0  0  0  0  0  0  0  0  0  0  0
   11.8003    8.5600   -7.5099 C   0  0  0  0  0  0  0  0  0  0  0  0
   11.4140    8.4030   -8.8213 C   0  0  0  0  0  0  0  0  0  0  0  0
   10.5588    7.3992   -9.2300 C   0  0  0  0  0  0  0  0  0  0  0  0
   10.0912    6.5347   -8.2553 C   0  0  0  0  0  0  0  0  0  0  0  0
    9.2393    5.5433   -8.7004 C   0  0  0  0  0  0  0  0  0  0  0  0
    8.8747    5.4060   -9.9836 N   0  0  0  0  0  0  0  0  0  0  0  0
    9.3455    6.2593  -10.9015 C   0  0  0  0  0  0  0  0  0  0  0  0
    9.0104    6.1478  -12.1441 N   0  0  0  0  0  0  0  0  0  0  0  0
   10.1758    7.2360  -10.5064 N   0  0  0  0  0  0  0  0  0  0  0  0
   10.5693    7.9282  -11.1912 H   0  0  0  0  0  0  0  0  0  0  0  0
   10.4580    6.6618   -6.9267 C   0  0  0  0  0  0  0  0  0  0  0  0
   12.4512    8.0959   -2.5096 C   0  0  0  0  0  0  0  0  0  0  0  0
   12.8195    9.0084   -3.4634 C   0  0  0  0  0  0  0  0  0  0  0  0
   12.4611    8.8935   -4.7896 C   0  0  0  0  0  0  0  0  0  0  0  0
   11.7012    7.8067   -5.1432 C   0  0  0  0  0  0  0  0  0  0  0  0
   11.3263    6.8852   -4.1935 C   0  0  0  0  0  0  0  0  0  0  0  0
   11.6901    7.0091   -2.8687 C   0  0  0  0  0  0  0  0  0  0  0  0
 37 38  2  0
 38 39  1  0
 39 40  2  0
 40 25  1  0
 25 26  2  0
 26 27  1  0
 27 28  2  0
 28 29  1  0
 29 30  1  0
 30 31  2  0
 31 32  1  0
 32 33  2  0
 33  1  1  0
  1  2  2  0
  2  3  1  0
  3  4  2  0
  4  5  1  0
  5  6  2  0
  5  7  1  0
  7  8  1  0
  8  9  2  0
  8 10  1  0
 10 11  1  0
 11 12  2  0
 11 13  1  0
 13 14  1  0
  7 15  1  0
 15 16  2  0
 16 17  1  0
 17 18  2  0
 18 19  1  0
 19 20  2  0
 20 21  1  0
 21 22  2  0
 22 23  1  0
 23 24  2  0
 32 34  1  0
 34 35  1  0
 29 36  2  0
 40 41  1  0
 41 42  2  0
 42 37  1  0
 36 25  1  0
 34 28  1  0
  6  1  1  0
  7 13  1  6
 24 15  1  0
 16  4  1  0
 24 19  1  0
M  CHG  1  10  -1
M  END
>  <minimizedAffinity>  (282) 
-17.21689

$$$$
Mol: 189_2 - SminaDock
     RDKit          3D

 37 43  0  0  0  0  0  0  0  0999 V2000
    4.0208   -0.5883  -17.9520 H   0  0  0  0  0  0  0  0  0  0  0  0
    3.8088   -0.1937  -17.0581 O   0  0  0  0  0  0  0  0  0  0  0  0
    4.3926   -1.0457  -16.1096 C   0  0  2  0  0  0  0  0  0  0  0  0
    3.8752   -0.7228  -14.7375 C   0  0  0  0  0  0  0  0  0  0  0  0
    2.9594   -1.2693  -14.0826 O   0  0  0  0  0  0  0  0  0  0  0  0
    4.7139    0.4217  -14.3157 C   0  0  0  0  0  0  0  0  0  0  0  0
    4.5300    1.4030  -13.3581 C   0  0  0  0  0  0  0  0  0  0  0  0
    5.4920    2.3966  -13.1560 C   0  0  0  0  0  0  0  0  0  0  0  0
    6.6307    2.3854  -13.9267 C   0  0  0  0  0  0  0  0  0  0  0  0
    6.8544    1.4130  -14.9030 C   0  0  0  0  0  0  0  0  0  0  0  0
    5.8620    0.4506  -15.0580 C   0  0  0  0  0  0  0  0  0  0  0  0
    5.8354   -0.6953  -16.0045 C   0  0  0  0  0  0  0  0  0  0  0  0
    7.4379    3.5330  -13.4902 C   0  0  0  0  0  0  0  0  0  0  0  0
    8.6801    3.9659  -13.9523 C   0  0  0  0  0  0  0  0  0  0  0  0
    9.2515    5.0807  -13.3860 C   0  0  0  0  0  0  0  0  0  0  0  0
    8.6350    5.7852  -12.3748 C   0  0  0  0  0  0  0  0  0  0  0  0
    7.4094    5.3412  -11.9332 C   0  0  0  0  0  0  0  0  0  0  0  0
    6.7940    4.2081  -12.4857 C   0  0  0  0  0  0  0  0  0  0  0  0
    5.5032    3.5335  -12.1967 C   0  0  0  0  0  0  0  0  0  0  0  0
    9.2629    6.9449  -11.8079 N   0  0  0  0  0  0  0  0  0  0  0  0
    9.6088    6.9304  -10.5437 C   0  0  0  0  0  0  0  0  0  0  0  0
    9.3890    5.8549   -9.7668 N   0  0  0  0  0  0  0  0  0  0  0  0
    9.7464    5.8465   -8.4701 C   0  0  0  0  0  0  0  0  0  0  0  0
   10.3508    6.9343   -7.8836 C   0  0  0  0  0  0  0  0  0  0  0  0
   10.7295    6.9527   -6.5502 C   0  0  0  0  0  0  0  0  0  0  0  0
   11.3355    8.0424   -5.9603 C   0  0  0  0  0  0  0  0  0  0  0  0
   11.5496    9.1412   -6.7920 C   0  0  0  0  0  0  0  0  0  0  0  0
   11.1765    9.1287   -8.1141 C   0  0  0  0  0  0  0  0  0  0  0  0
   10.5775    8.0444   -8.6865 C   0  0  0  0  0  0  0  0  0  0  0  0
   10.1987    7.9965   -9.9776 N   0  0  0  0  0  0  0  0  0  0  0  0
   10.3661    8.8268  -10.5852 H   0  0  0  0  0  0  0  0  0  0  0  0
   11.7184    8.0317   -4.5689 C   0  0  0  0  0  0  0  0  0  0  0  0
   12.0767    9.1933   -3.9139 C   0  0  0  0  0  0  0  0  0  0  0  0
   12.4452    9.2006   -2.5847 C   0  0  0  0  0  0  0  0  0  0  0  0
   12.4614    8.0188   -1.8735 C   0  0  0  0  0  0  0  0  0  0  0  0
   12.1091    6.8339   -2.4939 C   0  0  0  0  0  0  0  0  0  0  0  0
   11.7405    6.8588   -3.8413 C   0  0  0  0  0  0  0  0  0  0  0  0
  1  2  1  0
  3  2  1  6
  3  4  1  0
  4  5  2  0
  4  6  1  0
  6  7  2  0
  7  8  1  0
  8  9  2  0
  9 10  1  0
 10 11  2  0
 11 12  1  0
  9 13  1  0
 13 14  2  0
 14 15  1  0
 15 16  2  0
 16 20  1  0
 20 21  2  0
 21 22  1  0
 22 23  2  0
 23 24  1  0
 24 25  2  0
 25 26  1  0
 26 32  1  0
 32 33  2  0
 33 34  1  0
 34 35  2  0
 35 36  1  0
 36 37  2  0
 26 27  2  0
 27 28  1  0
 28 29  2  0
 29 30  1  0
 30 31  1  0
 16 17  1  0
 17 18  2  0
 18 19  1  0
 12  3  1  0
 18 13  1  0
 11  6  1  0
 30 21  1  0
 19  8  1  0
 29 24  1  0
 37 32  1  0
M  END
>  <minimizedAffinity>  (283) 
-17.17017

$$$$
Mol: 188_28 - SminaDock
     RDKit          3D

 44 51  0  0  0  0  0  0  0  0999 V2000
   11.5791    3.5056  -16.7793 H   0  0  0  0  0  0  0  0  0  0  0  0
   10.5949    3.7413  -16.6614 O   0  0  0  0  0  0  0  0  0  0  0  0
    9.7109    2.8775  -16.0114 C   0  0  0  0  0  0  0  0  0  0  0  0
   10.1146    2.0590  -15.0688 N   0  0  0  0  0  0  0  0  0  0  0  0
    8.9937    1.3139  -14.6022 C   0  0  0  0  0  0  0  0  0  0  0  0
    8.9845    0.2260  -13.9969 O   0  0  0  0  0  0  0  0  0  0  0  0
    7.8013    2.1603  -15.0165 C   0  0  2  0  0  0  0  0  0  0  0  0
    7.6776    3.1376  -13.9185 C   0  0  0  0  0  0  0  0  0  0  0  0
    8.5346    4.1614  -13.4701 C   0  0  0  0  0  0  0  0  0  0  0  0
    8.1638    4.9671  -12.4168 C   0  0  0  0  0  0  0  0  0  0  0  0
    6.9348    4.7398  -11.8204 C   0  0  0  0  0  0  0  0  0  0  0  0
    6.0878    3.7387  -12.2519 C   0  0  0  0  0  0  0  0  0  0  0  0
    6.4759    2.9243  -13.3247 C   0  0  0  0  0  0  0  0  0  0  0  0
    5.8268    1.7937  -13.9808 C   0  0  0  0  0  0  0  0  0  0  0  0
    4.5935    1.2017  -13.6961 C   0  0  0  0  0  0  0  0  0  0  0  0
    4.1889    0.1187  -14.4310 C   0  0  0  0  0  0  0  0  0  0  0  0
    5.0232   -0.3502  -15.4330 C   0  0  0  0  0  0  0  0  0  0  0  0
    4.6308   -1.4597  -16.1919 C   0  0  0  0  0  0  0  0  0  0  0  0
    5.4613   -1.9399  -17.1929 C   0  0  0  0  0  0  0  0  0  0  0  0
    6.6430   -1.3661  -17.4588 N   0  0  0  0  0  0  0  0  0  0  0  0
    7.0476   -0.2934  -16.7425 C   0  0  0  0  0  0  0  0  0  0  0  0
    8.1493    0.2574  -16.9736 O   0  0  0  0  0  0  0  0  0  0  0  0
    6.2482    0.2059  -15.7456 C   0  0  0  0  0  0  0  0  0  0  0  0
    6.6566    1.3252  -14.9816 C   0  0  0  0  0  0  0  0  0  0  0  0
    8.3151    2.7081  -16.2056 N   0  0  0  0  0  0  0  0  0  0  0  0
    7.8133    2.9565  -17.0685 H   0  0  0  0  0  0  0  0  0  0  0  0
    8.9958    6.0069  -11.9404 N   0  0  0  0  0  0  0  0  0  0  0  0
    9.3075    6.1788  -10.6989 C   0  0  0  0  0  0  0  0  0  0  0  0
   10.1084    7.2089  -10.3879 N   0  0  0  0  0  0  0  0  0  0  0  0
   10.4641    7.4392   -9.1144 C   0  0  0  0  0  0  0  0  0  0  0  0
   11.2820    8.4791   -8.7427 C   0  0  0  0  0  0  0  0  0  0  0  0
   11.5950    8.6380   -7.4093 C   0  0  0  0  0  0  0  0  0  0  0  0
   11.1296    7.8070   -6.4265 C   0  0  0  0  0  0  0  0  0  0  0  0
   10.3134    6.7719   -6.8107 C   0  0  0  0  0  0  0  0  0  0  0  0
    9.9755    6.5807   -8.1538 C   0  0  0  0  0  0  0  0  0  0  0  0
    9.1518    5.5250   -8.4927 C   0  0  0  0  0  0  0  0  0  0  0  0
    8.8215    5.3317   -9.7781 N   0  0  0  0  0  0  0  0  0  0  0  0
    8.1851    4.5209  -10.0611 H   0  0  0  0  0  0  0  0  0  0  0  0
   11.4782    7.9949   -5.0080 C   0  0  0  0  0  0  0  0  0  0  0  0
   11.6004    9.2811   -4.5066 C   0  0  0  0  0  0  0  0  0  0  0  0
   11.9159    9.5165   -3.2209 N   0  0  0  0  0  0  0  0  0  0  0  0
   12.1146    8.4608   -2.4146 C   0  0  0  0  0  0  0  0  0  0  0  0
   12.0028    7.1551   -2.8731 C   0  0  0  0  0  0  0  0  0  0  0  0
   11.6782    6.9222   -4.1961 C   0  0  0  0  0  0  0  0  0  0  0  0
  1  2  1  0
  2  3  1  0
  3  4  2  0
  4  5  1  0
  5  6  2  0
  5  7  1  0
  7  8  1  0
  8  9  2  0
  9 10  1  0
 10 27  1  0
 27 28  2  0
 28 29  1  0
 29 30  2  0
 30 31  1  0
 31 32  2  0
 32 33  1  0
 33 39  1  0
 39 40  2  0
 40 41  1  0
 41 42  2  0
 42 43  1  0
 43 44  2  0
 33 34  2  0
 34 35  1  0
 35 36  2  0
 36 37  1  0
 37 38  1  0
 10 11  2  0
 11 12  1  0
 12 13  2  0
 13 14  1  0
 14 15  2  0
 15 16  1  0
 16 17  2  0
 17 18  1  0
 18 19  2  0
 19 20  1  0
 20 21  1  0
 21 22  2  0
 21 23  1  0
 23 24  2  0
  7 25  1  6
 25 26  1  0
 25  3  1  0
 24  7  1  0
 13  8  1  0
 24 14  1  0
 37 28  1  0
 23 17  1  0
 35 30  1  0
 44 39  1  0
M  CHG  1  20  -1
M  END
>  <minimizedAffinity>  (284) 
-17.22464

$$$$
Mol: 187_26 - SminaDock
     RDKit          3D

 38 44  0  0  0  0  0  0  0  0999 V2000
    6.2428   -2.6704  -15.3724 H   0  0  0  0  0  0  0  0  0  0  0  0
    5.7052   -2.7061  -16.2045 O   0  0  0  0  0  0  0  0  0  0  0  0
    4.8813   -1.5564  -16.1868 C   0  0  1  0  0  0  0  0  0  0  0  0
    4.1602   -1.6298  -15.0008 O   0  0  0  0  0  0  0  0  0  0  0  0
    3.5857   -0.4200  -14.6285 C   0  0  0  0  0  0  0  0  0  0  0  0
    4.5986    0.6222  -14.3612 C   0  0  0  0  0  0  0  0  0  0  0  0
    4.4646    1.5783  -13.3822 C   0  0  0  0  0  0  0  0  0  0  0  0
    5.4707    2.5426  -13.1824 C   0  0  0  0  0  0  0  0  0  0  0  0
    6.6019    2.5525  -13.9540 C   0  0  0  0  0  0  0  0  0  0  0  0
    6.7178    1.5793  -14.9364 C   0  0  0  0  0  0  0  0  0  0  0  0
    5.7376    0.6302  -15.1400 C   0  0  0  0  0  0  0  0  0  0  0  0
    5.8396   -0.3995  -16.1645 C   0  0  0  0  0  0  0  0  0  0  0  0
    6.7374   -0.3000  -17.0204 O   0  0  0  0  0  0  0  0  0  0  0  0
    7.4396    3.6554  -13.5092 C   0  0  0  0  0  0  0  0  0  0  0  0
    8.6844    4.1048  -13.9515 C   0  0  0  0  0  0  0  0  0  0  0  0
    9.2843    5.1941  -13.3553 C   0  0  0  0  0  0  0  0  0  0  0  0
    8.6567    5.8502  -12.3134 C   0  0  0  0  0  0  0  0  0  0  0  0
    7.4296    5.4292  -11.8570 C   0  0  0  0  0  0  0  0  0  0  0  0
    6.8318    4.3166  -12.4763 C   0  0  0  0  0  0  0  0  0  0  0  0
    5.5462    3.6475  -12.2094 C   0  0  0  0  0  0  0  0  0  0  0  0
    9.2995    6.9674  -11.7213 N   0  0  0  0  0  0  0  0  0  0  0  0
    9.6090    6.8930  -10.4737 C   0  0  0  0  0  0  0  0  0  0  0  0
    9.3361    5.7752   -9.7129 C   0  0  0  0  0  0  0  0  0  0  0  0
    9.7057    5.7881   -8.3836 C   0  0  0  0  0  0  0  0  0  0  0  0
   10.3305    6.8932   -7.8379 C   0  0  0  0  0  0  0  0  0  0  0  0
   10.7112    6.9244   -6.4963 C   0  0  0  0  0  0  0  0  0  0  0  0
   11.3360    8.0123   -5.9234 C   0  0  0  0  0  0  0  0  0  0  0  0
   11.5818    9.1002   -6.7352 C   0  0  0  0  0  0  0  0  0  0  0  0
   11.2106    9.0845   -8.0670 C   0  0  0  0  0  0  0  0  0  0  0  0
   10.5840    7.9875   -8.6322 C   0  0  0  0  0  0  0  0  0  0  0  0
   10.2197    7.9686   -9.9332 N   0  0  0  0  0  0  0  0  0  0  0  0
   10.4379    8.8291  -10.4885 H   0  0  0  0  0  0  0  0  0  0  0  0
   11.7282    8.0238   -4.5083 C   0  0  0  0  0  0  0  0  0  0  0  0
   11.7944    6.8479   -3.7594 C   0  0  0  0  0  0  0  0  0  0  0  0
   12.1594    6.8569   -2.4414 C   0  0  0  0  0  0  0  0  0  0  0  0
   12.4717    8.0357   -1.8211 C   0  0  0  0  0  0  0  0  0  0  0  0
   12.4144    9.2018   -2.5329 C   0  0  0  0  0  0  0  0  0  0  0  0
   12.0451    9.1828   -3.8621 C   0  0  0  0  0  0  0  0  0  0  0  0
  1  2  1  0
  3  2  1  1
  3  4  1  0
  4  5  1  0
  5  6  1  0
  6  7  2  0
  7  8  1  0
  8  9  2  0
  9 10  1  0
 10 11  2  0
 11 12  1  0
 12 13  2  0
  9 14  1  0
 14 15  2  0
 15 16  1  0
 16 17  2  0
 17 21  1  0
 21 22  2  0
 22 23  1  0
 23 24  2  0
 24 25  1  0
 25 26  2  0
 26 27  1  0
 27 33  1  0
 33 34  2  0
 34 35  1  0
 35 36  2  0
 36 37  1  0
 37 38  2  0
 27 28  2  0
 28 29  1  0
 29 30  2  0
 30 31  1  0
 31 32  1  0
 17 18  1  0
 18 19  2  0
 19 20  1  0
 12  3  1  0
 19 14  1  0
 11  6  1  0
 31 22  1  0
 20  8  1  0
 30 25  1  0
 38 33  1  0
M  END
>  <minimizedAffinity>  (285) 
-17.22397

$$$$
Mol: 149_49 - SminaDock
     RDKit          3D

 44 51  0  0  0  0  0  0  0  0999 V2000
    8.7441    5.5963  -12.4216 C   0  0  0  0  0  0  0  0  0  0  0  0
    9.2997    5.1168  -13.5833 C   0  0  0  0  0  0  0  0  0  0  0  0
    8.7219    4.0670  -14.3102 C   0  0  0  0  0  0  0  0  0  0  0  0
    7.5475    3.4816  -13.8529 C   0  0  0  0  0  0  0  0  0  0  0  0
    6.9661    3.9383  -12.6945 C   0  0  0  0  0  0  0  0  0  0  0  0
    7.5880    4.9974  -12.0001 C   0  0  0  0  0  0  0  0  0  0  0  0
    5.7235    3.3626  -12.1748 C   0  0  0  0  0  0  0  0  0  0  0  0
    5.1325    2.2252  -12.8940 C   0  0  0  0  0  0  0  0  0  0  0  0
    5.7819    1.7941  -14.1298 C   0  0  0  0  0  0  0  0  0  0  0  0
    5.2377    0.7688  -14.8598 C   0  0  0  0  0  0  0  0  0  0  0  0
    5.8020    0.3073  -16.0289 C   0  0  0  0  0  0  0  0  0  0  0  0
    6.9748    0.9194  -16.4741 C   0  0  0  0  0  0  0  0  0  0  0  0
    7.5439    1.9508  -15.7619 C   0  0  0  0  0  0  0  0  0  0  0  0
    6.9556    2.3838  -14.6044 C   0  0  0  0  0  0  0  0  0  0  0  0
    7.7391    0.6248  -17.6444 N   0  0  0  0  0  0  0  0  0  0  0  0
    7.7775   -0.6265  -18.3866 C   0  0  0  0  0  0  0  0  0  0  0  0
    8.9213   -0.7066  -18.9795 N   0  0  0  0  0  0  0  0  0  0  0  0
    9.2547   -1.4844  -19.5892 H   0  0  0  0  0  0  0  0  0  0  0  0
    9.7417    0.4775  -18.6816 C   0  0  0  0  0  0  0  0  0  0  0  0
    8.6201    1.4666  -18.3426 C   0  0  0  0  0  0  0  0  0  0  0  0
    6.7595   -1.6231  -18.4724 N   0  0  0  0  0  0  0  0  0  0  0  0
    6.9806   -2.7169  -19.4199 C   0  0  0  0  0  0  0  0  0  0  0  0
    5.5273   -1.6948  -17.7394 C   0  0  0  0  0  0  0  0  0  0  0  0
    4.7571   -2.6150  -18.0478 O   0  0  0  0  0  0  0  0  0  0  0  0
    5.0771   -0.7913  -16.6574 C   0  0  0  0  0  0  0  0  0  0  0  0
    3.9271   -0.9675  -16.2001 O   0  0  0  0  0  0  0  0  0  0  0  0
   11.2569    7.9963   -5.9441 C   0  0  0  0  0  0  0  0  0  0  0  0
   11.3927    9.0782   -6.7832 C   0  0  0  0  0  0  0  0  0  0  0  0
   11.0174    8.9988   -8.0980 C   0  0  0  0  0  0  0  0  0  0  0  0
   10.4949    7.8240   -8.5998 C   0  0  0  0  0  0  0  0  0  0  0  0
   10.3447    6.7167   -7.7840 C   0  0  0  0  0  0  0  0  0  0  0  0
    9.8217    5.5813   -8.3384 C   0  0  0  0  0  0  0  0  0  0  0  0
    9.4630    5.5401   -9.6397 N   0  0  0  0  0  0  0  0  0  0  0  0
    9.6069    6.6092  -10.4322 C   0  0  0  0  0  0  0  0  0  0  0  0
    9.2943    6.6499  -11.6622 N   0  0  0  0  0  0  0  0  0  0  0  0
   10.1230    7.7246   -9.8781 N   0  0  0  0  0  0  0  0  0  0  0  0
   10.2532    8.5922  -10.4708 H   0  0  0  0  0  0  0  0  0  0  0  0
   10.7321    6.8352   -6.4723 C   0  0  0  0  0  0  0  0  0  0  0  0
   12.4014    8.1169   -1.8702 C   0  0  0  0  0  0  0  0  0  0  0  0
   12.3673    9.2970   -2.5776 C   0  0  0  0  0  0  0  0  0  0  0  0
   11.9928    9.2432   -3.9036 C   0  0  0  0  0  0  0  0  0  0  0  0
   11.6532    8.0747   -4.5520 C   0  0  0  0  0  0  0  0  0  0  0  0
   11.7041    6.9066   -3.7898 C   0  0  0  0  0  0  0  0  0  0  0  0
   12.0726    6.9305   -2.4706 C   0  0  0  0  0  0  0  0  0  0  0  0
 39 40  2  0
 40 41  1  0
 41 42  2  0
 42 27  1  0
 27 28  2  0
 28 29  1  0
 29 30  2  0
 30 31  1  0
 31 32  1  0
 32 33  2  0
 33 34  1  0
 34 35  2  0
 35  1  1  0
  1  2  2  0
  2  3  1  0
  3  4  2  0
  4  5  1  0
  5  6  2  0
  5  7  1  0
  7  8  1  0
  8  9  1  0
  9 10  2  0
 10 11  1  0
 11 12  2  0
 12 13  1  0
 13 14  2  0
 12 15  1  0
 15 16  1  0
 16 17  2  0
 17 18  1  0
 17 19  1  0
 19 20  1  0
 16 21  1  0
 21 22  1  0
 21 23  1  0
 23 24  2  0
 23 25  1  0
 25 26  2  0
 34 36  1  0
 36 37  1  0
 31 38  2  0
 42 43  1  0
 43 44  2  0
 44 39  1  0
 38 27  1  0
 36 30  1  0
  6  1  1  0
 14  9  1  0
 20 15  1  0
 14  4  1  0
 25 11  1  0
M  CHG  1  17   1
M  END
>  <minimizedAffinity>  (286) 
-17.21159

$$$$
Mol: 194_45 - SminaDock
     RDKit          3D

 47 54  0  0  0  0  0  0  0  0999 V2000
    8.6199    1.7771  -16.6089 C   0  0  1  0  0  0  0  0  0  0  0  0
    7.0780    1.7290  -16.5719 C   0  0  0  0  0  0  0  0  0  0  0  0
    6.5179    1.5436  -15.2496 C   0  0  0  0  0  0  0  0  0  0  0  0
    6.6887    2.1524  -14.0083 C   0  0  0  0  0  0  0  0  0  0  0  0
    6.0316    1.7737  -12.8677 C   0  0  0  0  0  0  0  0  0  0  0  0
    5.1719    0.7532  -12.9748 N   0  0  0  0  0  0  0  0  0  0  0  0
    4.9633    0.1204  -14.1644 C   0  0  0  0  0  0  0  0  0  0  0  0
    4.1890   -0.8783  -14.5018 O   0  0  0  0  0  0  0  0  0  0  0  0
    4.2934   -1.1698  -15.7410 N   0  0  0  0  0  0  0  0  0  0  0  0
    5.1962   -0.3290  -16.3245 C   0  0  0  0  0  0  0  0  0  0  0  0
    5.6356    0.5029  -15.3342 C   0  0  0  0  0  0  0  0  0  0  0  0
    7.5169    3.2722  -13.5663 C   0  0  0  0  0  0  0  0  0  0  0  0
    6.6999    3.9374  -12.6889 C   0  0  0  0  0  0  0  0  0  0  0  0
    7.2134    5.0500  -12.0685 C   0  0  0  0  0  0  0  0  0  0  0  0
    8.5282    5.4728  -12.3407 C   0  0  0  0  0  0  0  0  0  0  0  0
    9.3185    4.7681  -13.2404 C   0  0  0  0  0  0  0  0  0  0  0  0
    8.8206    3.6760  -13.8508 C   0  0  0  0  0  0  0  0  0  0  0  0
    9.8254    3.0927  -14.7856 C   0  0  0  0  0  0  0  0  0  0  0  0
    9.1830    3.0604  -16.1311 C   0  0  0  0  0  0  0  0  0  0  0  0
    9.0562    6.6194  -11.6987 N   0  0  0  0  0  0  0  0  0  0  0  0
    9.4377    6.6904  -10.4860 C   0  0  0  0  0  0  0  0  0  0  0  0
    9.3459    5.5700   -9.6909 C   0  0  0  0  0  0  0  0  0  0  0  0
    9.7484    5.6043   -8.3844 C   0  0  0  0  0  0  0  0  0  0  0  0
   10.2509    6.7724   -7.8590 C   0  0  0  0  0  0  0  0  0  0  0  0
   10.6694    6.8433   -6.5421 C   0  0  0  0  0  0  0  0  0  0  0  0
   11.1726    7.9945   -6.0024 C   0  0  0  0  0  0  0  0  0  0  0  0
   11.2564    9.1112   -6.8180 C   0  0  0  0  0  0  0  0  0  0  0  0
   10.8401    9.0401   -8.1276 C   0  0  0  0  0  0  0  0  0  0  0  0
   10.3340    7.8829   -8.6719 C   0  0  0  0  0  0  0  0  0  0  0  0
    9.9291    7.8191   -9.9574 N   0  0  0  0  0  0  0  0  0  0  0  0
   10.0119    8.6972  -10.5416 H   0  0  0  0  0  0  0  0  0  0  0  0
   11.6078    8.0258   -4.6098 C   0  0  0  0  0  0  0  0  0  0  0  0
   11.9424    9.2166   -4.0039 C   0  0  0  0  0  0  0  0  0  0  0  0
   12.3508    9.2301   -2.6729 C   0  0  0  0  0  0  0  0  0  0  0  0
   12.4237    8.0588   -1.9529 C   0  0  0  0  0  0  0  0  0  0  0  0
   12.0886    6.8811   -2.5662 C   0  0  0  0  0  0  0  0  0  0  0  0
   11.6860    6.8580   -3.8747 C   0  0  0  0  0  0  0  0  0  0  0  0
   10.7098   -0.3789  -17.7021 C   0  0  0  0  0  0  0  0  0  0  0  0
    9.5531   -0.9761  -17.7715 C   0  0  0  0  0  0  0  0  0  0  0  0
    9.1792   -2.0010  -18.7106 N   0  0  0  0  0  0  0  0  0  0  0  0
    9.5607   -1.8724  -19.6788 H   0  0  0  0  0  0  0  0  0  0  0  0
    8.5857   -2.8057  -18.4761 H   0  0  0  0  0  0  0  0  0  0  0  0
    8.6645   -0.5031  -16.7982 N   0  0  1  0  0  0  0  0  0  0  0  0
    7.7599   -0.2568  -17.2967 H   0  0  0  0  0  0  0  0  0  0  0  0
    8.4627   -1.3164  -16.1513 H   0  0  0  0  0  0  0  0  0  0  0  0
    9.2402    0.5782  -16.1605 N   0  0  0  0  0  0  0  0  0  0  0  0
   10.6080    0.5902  -16.5864 C   0  0  0  0  0  0  0  0  0  0  0  0
 38 39  2  0
 39 40  1  0
 40 41  1  0
 40 42  1  0
 39 43  1  0
 43 44  1  6
 43 45  1  0
 43 46  1  0
  1 46  1  1
  1  2  1  0
  2  3  1  0
  3  4  2  0
  4  5  1  0
  5  6  2  0
  6  7  1  0
  7  8  1  0
  8  9  1  0
  9 10  2  0
 10 11  1  0
  4 12  1  0
 12 13  2  0
 13 14  1  0
 14 15  2  0
 15 20  1  0
 20 21  2  0
 21 22  1  0
 22 23  2  0
 23 24  1  0
 24 25  2  0
 25 26  1  0
 26 32  1  0
 32 33  2  0
 33 34  1  0
 34 35  2  0
 35 36  1  0
 36 37  2  0
 26 27  2  0
 27 28  1  0
 28 29  2  0
 29 30  1  0
 30 31  1  0
 15 16  1  0
 16 17  2  0
 17 18  1  0
 18 19  1  0
 46 47  1  0
 47 38  1  0
 19  1  1  0
 11  3  1  0
 17 12  1  0
 11  7  2  0
 30 21  1  0
 29 24  1  0
 37 32  1  0
M  CHG  1  43   1
M  END
>  <minimizedAffinity>  (287) 
-17.24854

$$$$
Mol: 95_60 - SminaDock
     RDKit          3D

 42 48  0  0  0  0  0  0  0  0999 V2000
    5.7760   -1.9631  -17.7473 H   0  0  0  0  0  0  0  0  0  0  0  0
    6.2675   -1.3231  -18.3725 O   0  0  0  0  0  0  0  0  0  0  0  0
    7.0660   -0.3573  -17.7804 C   0  0  0  0  0  0  0  0  0  0  0  0
    7.5776   -0.6176  -16.5971 N   0  0  0  0  0  0  0  0  0  0  0  0
    8.4127    0.2074  -15.8082 C   0  0  0  0  0  0  0  0  0  0  0  0
    9.3687   -0.3174  -15.1710 O   0  0  0  0  0  0  0  0  0  0  0  0
    8.2544    1.7082  -15.6562 C   0  0  2  0  0  0  0  0  0  0  0  0
    8.6444    2.3358  -16.9482 C   0  0  0  0  0  0  0  0  0  0  0  0
    8.1679    1.9039  -18.1831 C   0  0  0  0  0  0  0  0  0  0  0  0
    8.5872    2.5598  -19.2983 N   0  0  0  0  0  0  0  0  0  0  0  0
    9.4340    3.5913  -19.2093 C   0  0  0  0  0  0  0  0  0  0  0  0
    9.9134    4.0304  -17.9973 C   0  0  0  0  0  0  0  0  0  0  0  0
    9.5131    3.3934  -16.8446 C   0  0  0  0  0  0  0  0  0  0  0  0
    7.2550    0.8417  -18.5275 N   0  0  0  0  0  0  0  0  0  0  0  0
    6.7000    0.9886  -19.4030 H   0  0  0  0  0  0  0  0  0  0  0  0
    8.9836    2.1834  -14.4592 C   0  0  0  0  0  0  0  0  0  0  0  0
    8.3456    3.3112  -13.7282 C   0  0  0  0  0  0  0  0  0  0  0  0
    8.9917    4.4283  -13.2666 C   0  0  0  0  0  0  0  0  0  0  0  0
    8.3509    5.4444  -12.5816 C   0  0  0  0  0  0  0  0  0  0  0  0
    6.9949    5.2990  -12.3671 C   0  0  0  0  0  0  0  0  0  0  0  0
    6.3121    4.1621  -12.8315 C   0  0  0  0  0  0  0  0  0  0  0  0
    6.9587    3.1750  -13.5023 C   0  0  0  0  0  0  0  0  0  0  0  0
    6.3882    1.9259  -14.0573 C   0  0  0  0  0  0  0  0  0  0  0  0
    6.7715    1.9283  -15.5141 C   0  0  0  0  0  0  0  0  0  0  0  0
    9.0444    6.5921  -12.1149 N   0  0  0  0  0  0  0  0  0  0  0  0
    9.3978    6.6591  -10.8836 C   0  0  0  0  0  0  0  0  0  0  0  0
    9.0937    5.6145  -10.0507 C   0  0  0  0  0  0  0  0  0  0  0  0
    9.4463    5.6327   -8.7189 C   0  0  0  0  0  0  0  0  0  0  0  0
   10.1153    6.7165   -8.2132 C   0  0  0  0  0  0  0  0  0  0  0  0
   10.4925    6.7826   -6.8709 C   0  0  0  0  0  0  0  0  0  0  0  0
   11.1631    7.8782   -6.3741 C   0  0  0  0  0  0  0  0  0  0  0  0
   11.4478    8.8998   -7.2389 C   0  0  0  0  0  0  0  0  0  0  0  0
   11.0815    8.8478   -8.5657 C   0  0  0  0  0  0  0  0  0  0  0  0
   10.4062    7.7506   -9.0774 C   0  0  0  0  0  0  0  0  0  0  0  0
   10.0553    7.7179  -10.3744 N   0  0  0  0  0  0  0  0  0  0  0  0
   10.2681    8.4909  -11.0384 H   0  0  0  0  0  0  0  0  0  0  0  0
   11.5565    7.9383   -4.9515 C   0  0  0  0  0  0  0  0  0  0  0  0
   11.5104    6.8364   -4.1264 C   0  0  0  0  0  0  0  0  0  0  0  0
   11.8834    6.9175   -2.7871 C   0  0  0  0  0  0  0  0  0  0  0  0
   12.3065    8.1188   -2.2746 C   0  0  0  0  0  0  0  0  0  0  0  0
   12.3551    9.2207   -3.0903 C   0  0  0  0  0  0  0  0  0  0  0  0
   11.9889    9.1330   -4.3977 C   0  0  0  0  0  0  0  0  0  0  0  0
  1  2  1  0
  2  3  1  0
  3  4  2  0
  4  5  1  0
  5  6  2  0
  5  7  1  0
  7  8  1  0
  8  9  2  0
  9 10  1  0
 10 11  2  0
 11 12  1  0
 12 13  2  0
  9 14  1  0
 14 15  1  0
  7 16  1  1
 16 17  1  0
 17 18  2  0
 18 19  1  0
 19 25  1  0
 25 26  2  0
 26 27  1  0
 27 28  2  0
 28 29  1  0
 29 30  2  0
 30 31  1  0
 31 37  1  0
 37 38  2  0
 38 39  1  0
 39 40  2  0
 40 41  1  0
 41 42  2  0
 31 32  2  0
 32 33  1  0
 33 34  2  0
 34 35  1  0
 35 36  1  0
 19 20  2  0
 20 21  1  0
 21 22  2  0
 22 23  1  0
 23 24  1  0
 14  3  1  0
 22 17  1  0
 24  7  1  0
 13  8  1  0
 35 26  1  0
 34 29  1  0
 42 37  1  0
M  END
>  <minimizedAffinity>  (288) 
-17.23676

$$$$
Mol: 184_21 - SminaDock
     RDKit          3D

 46 53  0  0  0  0  0  0  0  0999 V2000
    5.6729   -1.9106  -17.9484 C   0  0  0  0  0  0  0  0  0  0  0  0
    6.7702   -1.7869  -18.7390 C   0  0  0  0  0  0  0  0  0  0  0  0
    7.6942   -0.8053  -18.4944 C   0  0  0  0  0  0  0  0  0  0  0  0
    7.5227    0.0714  -17.4412 C   0  0  0  0  0  0  0  0  0  0  0  0
    8.4462    1.0571  -17.1923 C   0  0  0  0  0  0  0  0  0  0  0  0
    8.3022    1.9550  -16.1409 C   0  0  0  0  0  0  0  0  0  0  0  0
    7.2171    1.8745  -15.3154 C   0  0  0  0  0  0  0  0  0  0  0  0
    7.0519    2.7520  -14.2645 C   0  0  0  0  0  0  0  0  0  0  0  0
    5.9413    2.6584  -13.4287 C   0  0  0  0  0  0  0  0  0  0  0  0
    5.0221    1.6486  -13.7059 C   0  0  0  0  0  0  0  0  0  0  0  0
    5.1558    0.7577  -14.7447 C   0  0  0  0  0  0  0  0  0  0  0  0
    6.2647    0.8859  -15.5431 C   0  0  0  0  0  0  0  0  0  0  0  0
    6.4139   -0.0137  -16.6012 C   0  0  0  0  0  0  0  0  0  0  0  0
    5.5138   -1.0123  -16.8835 C   0  0  0  0  0  0  0  0  0  0  0  0
    6.0032    3.6858  -12.4135 C   0  0  0  0  0  0  0  0  0  0  0  0
    5.1614    3.8685  -11.5160 O   0  0  0  0  0  0  0  0  0  0  0  0
    7.2187    4.4433  -12.6481 C   0  0  0  0  0  0  0  0  0  0  0  0
    7.7663    5.5406  -11.9702 C   0  0  0  0  0  0  0  0  0  0  0  0
    8.9444    6.1198  -12.3608 C   0  0  0  0  0  0  0  0  0  0  0  0
    9.5706    5.5798  -13.4482 C   0  0  0  0  0  0  0  0  0  0  0  0
    9.0224    4.4788  -14.1292 C   0  0  0  0  0  0  0  0  0  0  0  0
    7.8416    3.8860  -13.7506 C   0  0  0  0  0  0  0  0  0  0  0  0
    9.4991    7.2439  -11.6639 N   0  0  0  0  0  0  0  0  0  0  0  0
    9.8214    7.1924  -10.4122 C   0  0  0  0  0  0  0  0  0  0  0  0
   10.3365    8.2574   -9.7919 N   0  0  0  0  0  0  0  0  0  0  0  0
   10.6619    8.1864   -8.5105 C   0  0  0  0  0  0  0  0  0  0  0  0
   11.2012    9.2880   -7.8511 C   0  0  0  0  0  0  0  0  0  0  0  0
   11.5352    9.2045   -6.5287 C   0  0  0  0  0  0  0  0  0  0  0  0
   11.3437    8.0291   -5.8265 C   0  0  0  0  0  0  0  0  0  0  0  0
   10.8160    6.9294   -6.4451 C   0  0  0  0  0  0  0  0  0  0  0  0
   10.4786    7.0149   -7.7831 C   0  0  0  0  0  0  0  0  0  0  0  0
    9.9466    5.9307   -8.4414 C   0  0  0  0  0  0  0  0  0  0  0  0
    9.6324    6.0514   -9.7411 N   0  0  0  0  0  0  0  0  0  0  0  0
    9.2202    5.2062  -10.2434 H   0  0  0  0  0  0  0  0  0  0  0  0
   11.7048    7.9479   -4.4178 C   0  0  0  0  0  0  0  0  0  0  0  0
   11.7443    6.7747   -3.7001 C   0  0  0  0  0  0  0  0  0  0  0  0
   12.1038    6.8079   -2.3581 C   0  0  0  0  0  0  0  0  0  0  0  0
   12.4260    7.9862   -1.7122 C   0  0  0  0  0  0  0  0  0  0  0  0
   12.3878    9.1784   -2.4342 C   0  0  0  0  0  0  0  0  0  0  0  0
   12.0319    9.1328   -3.7560 C   0  0  0  0  0  0  0  0  0  0  0  0
    2.2061   -3.9018  -19.7622 H   0  0  0  0  0  0  0  0  0  0  0  0
    2.5164   -3.5562  -18.8634 O   0  0  0  0  0  0  0  0  0  0  0  0
    3.4975   -2.6425  -18.6742 N   0  0  0  0  0  0  0  0  0  0  0  0
    4.6332   -2.9313  -18.1365 C   0  0  0  0  0  0  0  0  0  0  0  0
    4.8460   -4.2407  -17.7388 O   0  0  0  0  0  0  0  0  0  0  0  0
    4.4113   -4.9656  -18.3283 H   0  0  0  0  0  0  0  0  0  0  0  0
 41 42  1  0
 42 43  1  0
 43 44  2  0
 44 45  1  0
 45 46  1  0
 44  1  1  0
  1  2  2  0
  2  3  1  0
  3  4  2  0
  4  5  1  0
  5  6  2  0
  6  7  1  0
  7  8  2  0
  8  9  1  0
  9 10  2  0
 10 11  1  0
 11 12  2  0
 12 13  1  0
 13 14  2  0
  9 15  1  0
 15 16  2  0
 15 17  1  0
 17 18  2  0
 18 19  1  0
 19 23  1  0
 23 24  2  0
 24 25  1  0
 25 26  2  0
 26 27  1  0
 27 28  2  0
 28 29  1  0
 29 35  1  0
 35 36  2  0
 36 37  1  0
 37 38  2  0
 38 39  1  0
 39 40  2  0
 29 30  2  0
 30 31  1  0
 31 32  2  0
 32 33  1  0
 33 34  1  0
 19 20  2  0
 20 21  1  0
 21 22  2  0
 14  1  1  0
 22 17  1  0
 13  4  1  0
 33 24  1  0
 12  7  1  0
 31 26  1  0
 22  8  1  0
 40 35  1  0
M  END
>  <minimizedAffinity>  (289) 
-17.16465

$$$$
Mol: 131_36 - SminaDock
     RDKit          3D

 38 44  0  0  0  0  0  0  0  0999 V2000
    2.2546   -1.8020  -15.5601 H   0  0  0  0  0  0  0  0  0  0  0  0
    2.7133   -1.2095  -14.8519 O   0  0  0  0  0  0  0  0  0  0  0  0
    4.0213   -0.7806  -15.1130 C   0  0  0  0  0  0  0  0  0  0  0  0
    4.8906   -1.2896  -15.8964 N   0  0  0  0  0  0  0  0  0  0  0  0
    6.1133   -0.5440  -15.8758 C   0  0  0  0  0  0  0  0  0  0  0  0
    7.1655   -0.7667  -16.5220 O   0  0  0  0  0  0  0  0  0  0  0  0
    5.9040    0.5515  -14.9400 C   0  0  0  0  0  0  0  0  0  0  0  0
    4.6139    0.3930  -14.4792 C   0  0  0  0  0  0  0  0  0  0  0  0
    4.1208    1.2963  -13.5632 C   0  0  0  0  0  0  0  0  0  0  0  0
    4.8804    2.3684  -13.0832 C   0  0  0  0  0  0  0  0  0  0  0  0
    6.1581    2.4909  -13.5662 C   0  0  0  0  0  0  0  0  0  0  0  0
    6.6912    1.6146  -14.4793 C   0  0  0  0  0  0  0  0  0  0  0  0
    8.0430    1.6777  -15.0415 C   0  0  0  0  0  0  0  0  0  0  0  0
    8.8848    2.7964  -14.5622 C   0  0  0  0  0  0  0  0  0  0  0  0
    8.2707    3.7051  -13.5938 C   0  0  0  0  0  0  0  0  0  0  0  0
    9.0612    4.7565  -13.1509 C   0  0  0  0  0  0  0  0  0  0  0  0
    8.6192    5.6897  -12.2395 C   0  0  0  0  0  0  0  0  0  0  0  0
    7.3230    5.5453  -11.7619 C   0  0  0  0  0  0  0  0  0  0  0  0
    6.4977    4.5176  -12.1709 C   0  0  0  0  0  0  0  0  0  0  0  0
    6.9795    3.5951  -13.0925 C   0  0  0  0  0  0  0  0  0  0  0  0
    9.4027    6.7772  -11.7726 N   0  0  0  0  0  0  0  0  0  0  0  0
    9.6895    6.8013  -10.5062 C   0  0  0  0  0  0  0  0  0  0  0  0
   10.4406    7.8211   -9.9935 N   0  0  0  0  0  0  0  0  0  0  0  0
   10.7614    7.8835   -8.6899 C   0  0  0  0  0  0  0  0  0  0  0  0
   11.5241    8.9160   -8.1687 C   0  0  0  0  0  0  0  0  0  0  0  0
   11.8493    8.9708   -6.8285 C   0  0  0  0  0  0  0  0  0  0  0  0
   11.4306    8.0003   -5.9442 C   0  0  0  0  0  0  0  0  0  0  0  0
   10.6696    6.9710   -6.4672 C   0  0  0  0  0  0  0  0  0  0  0  0
   10.3404    6.9099   -7.8069 C   0  0  0  0  0  0  0  0  0  0  0  0
    9.5829    5.8885   -8.3427 C   0  0  0  0  0  0  0  0  0  0  0  0
    9.2710    5.8442   -9.6585 N   0  0  0  0  0  0  0  0  0  0  0  0
    8.6954    5.0622  -10.0438 H   0  0  0  0  0  0  0  0  0  0  0  0
   11.7606    8.0332   -4.5214 C   0  0  0  0  0  0  0  0  0  0  0  0
   11.7454    6.8692   -3.7677 C   0  0  0  0  0  0  0  0  0  0  0  0
   12.0507    6.8622   -2.4257 C   0  0  0  0  0  0  0  0  0  0  0  0
   12.3794    8.0408   -1.8162 C   0  0  0  0  0  0  0  0  0  0  0  0
   12.3998    9.2096   -2.5499 C   0  0  0  0  0  0  0  0  0  0  0  0
   12.0884    9.1944   -3.9038 C   0  0  0  0  0  0  0  0  0  0  0  0
  1  2  1  0
  2  3  1  0
  3  4  2  0
  4  5  1  0
  5  6  2  0
  5  7  1  0
  7  8  2  0
  8  9  1  0
  9 10  2  0
 10 11  1  0
 11 12  2  0
 12 13  1  0
 13 14  1  0
 14 15  1  0
 15 16  2  0
 16 17  1  0
 17 21  1  0
 21 22  2  0
 22 23  1  0
 23 24  2  0
 24 25  1  0
 25 26  2  0
 26 27  1  0
 27 33  1  0
 33 34  2  0
 34 35  1  0
 35 36  2  0
 36 37  1  0
 37 38  2  0
 27 28  2  0
 28 29  1  0
 29 30  2  0
 30 31  1  0
 31 32  1  0
 17 18  2  0
 18 19  1  0
 19 20  2  0
  8  3  1  0
 20 11  1  0
 12  7  1  0
 20 15  1  0
 31 22  1  0
 29 24  1  0
 38 33  1  0
M  END
>  <minimizedAffinity>  (290) 
-17.15510

$$$$
Mol: 169_62 - SminaDock
     RDKit          3D

 39 45  0  0  0  0  0  0  0  0999 V2000
    8.9430    5.8671  -12.3999 C   0  0  0  0  0  0  0  0  0  0  0  0
    9.6314    5.1483  -13.3274 C   0  0  0  0  0  0  0  0  0  0  0  0
    9.0890    4.0030  -13.9271 C   0  0  0  0  0  0  0  0  0  0  0  0
    7.8328    3.6005  -13.5675 C   0  0  0  0  0  0  0  0  0  0  0  0
    7.1138    4.3400  -12.6091 C   0  0  0  0  0  0  0  0  0  0  0  0
    7.6878    5.4622  -12.0432 C   0  0  0  0  0  0  0  0  0  0  0  0
    5.7783    3.9231  -12.2571 C   0  0  0  0  0  0  0  0  0  0  0  0
    5.1251    4.7444  -11.5238 O   0  0  0  0  0  0  0  0  0  0  0  0
    5.2228    2.6701  -12.7016 C   0  0  0  0  0  0  0  0  0  0  0  0
    5.9819    1.9944  -13.7294 C   0  0  0  0  0  0  0  0  0  0  0  0
    7.2343    2.3969  -14.1365 C   0  0  0  0  0  0  0  0  0  0  0  0
    7.9236    1.6833  -15.1109 C   0  0  0  0  0  0  0  0  0  0  0  0
    9.0549    1.9634  -15.5451 O   0  0  0  0  0  0  0  0  0  0  0  0
    7.3197    0.5980  -15.6310 N   0  0  0  0  0  0  0  0  0  0  0  0
    7.8156    0.0334  -16.3733 H   0  0  0  0  0  0  0  0  0  0  0  0
    6.1098    0.1856  -15.2578 C   0  0  0  0  0  0  0  0  0  0  0  0
    5.5175   -0.9504  -15.8254 C   0  0  0  0  0  0  0  0  0  0  0  0
    4.2647   -1.3590  -15.4232 C   0  0  0  0  0  0  0  0  0  0  0  0
    3.5813   -0.6541  -14.4586 C   0  0  0  0  0  0  0  0  0  0  0  0
    4.1503    0.4694  -13.8875 C   0  0  0  0  0  0  0  0  0  0  0  0
    5.3958    0.8534  -14.3052 C   0  0  0  0  0  0  0  0  0  0  0  0
   11.3707    8.0934   -5.9185 C   0  0  0  0  0  0  0  0  0  0  0  0
   11.6175    9.2164   -6.6818 C   0  0  0  0  0  0  0  0  0  0  0  0
   11.2914    9.2240   -8.0392 C   0  0  0  0  0  0  0  0  0  0  0  0
   10.7213    8.1267   -8.6500 C   0  0  0  0  0  0  0  0  0  0  0  0
   10.4018    8.1194   -9.9563 N   0  0  0  0  0  0  0  0  0  0  0  0
    9.8425    7.0437  -10.5565 C   0  0  0  0  0  0  0  0  0  0  0  0
    9.5410    7.0454  -11.8030 N   0  0  0  0  0  0  0  0  0  0  0  0
    9.5921    5.9359   -9.8321 N   0  0  0  0  0  0  0  0  0  0  0  0
    9.1570    5.1034  -10.3058 H   0  0  0  0  0  0  0  0  0  0  0  0
    9.9045    5.9246   -8.5259 C   0  0  0  0  0  0  0  0  0  0  0  0
   10.4704    6.9967   -7.8924 C   0  0  0  0  0  0  0  0  0  0  0  0
   10.7987    7.0017   -6.5466 C   0  0  0  0  0  0  0  0  0  0  0  0
   12.3332    7.9299   -1.8066 C   0  0  0  0  0  0  0  0  0  0  0  0
   12.3968    9.1421   -2.4725 C   0  0  0  0  0  0  0  0  0  0  0  0
   12.0869    9.2329   -3.8259 C   0  0  0  0  0  0  0  0  0  0  0  0
   11.7138    8.0852   -4.4908 C   0  0  0  0  0  0  0  0  0  0  0  0
   11.6558    6.8852   -3.8107 C   0  0  0  0  0  0  0  0  0  0  0  0
   11.9624    6.7895   -2.4673 C   0  0  0  0  0  0  0  0  0  0  0  0
 34 35  2  0
 35 36  1  0
 36 37  2  0
 37 22  1  0
 22 23  1  0
 23 24  2  0
 24 25  1  0
 25 26  2  0
 26 27  1  0
 27 28  2  0
 28  1  1  0
  1  2  2  0
  2  3  1  0
  3  4  2  0
  4  5  1  0
  5  6  2  0
  5  7  1  0
  7  8  2  0
  7  9  1  0
  9 10  1  0
 10 11  2  0
 11 12  1  0
 12 13  2  0
 12 14  1  0
 14 15  1  0
 14 16  1  0
 16 17  2  0
 17 18  1  0
 18 19  2  0
 19 20  1  0
 20 21  2  0
 27 29  1  0
 29 30  1  0
 29 31  1  0
 31 32  2  0
 32 33  1  0
 37 38  1  0
 38 39  2  0
 39 34  1  0
 33 22  2  0
 32 25  1  0
  6  1  1  0
 21 10  1  0
 11  4  1  0
 21 16  1  0
M  END
>  <minimizedAffinity>  (291) 
-17.23360

$$$$
Mol: 148_34 - SminaDock
     RDKit          3D

 38 44  0  0  0  0  0  0  0  0999 V2000
    8.8331    6.0229  -12.4043 C   0  0  0  0  0  0  0  0  0  0  0  0
    9.4871    5.2898  -13.3663 C   0  0  0  0  0  0  0  0  0  0  0  0
    8.9487    4.1733  -13.9536 C   0  0  0  0  0  0  0  0  0  0  0  0
    7.6754    3.7766  -13.5435 C   0  0  0  0  0  0  0  0  0  0  0  0
    6.9988    4.4880  -12.5880 C   0  0  0  0  0  0  0  0  0  0  0  0
    7.5886    5.6250  -12.0126 C   0  0  0  0  0  0  0  0  0  0  0  0
    5.6396    4.1069  -12.1667 C   0  0  0  0  0  0  0  0  0  0  0  0
    5.0920    2.8309  -12.6172 C   0  0  0  0  0  0  0  0  0  0  0  0
    5.8203    2.1298  -13.6941 C   0  0  0  0  0  0  0  0  0  0  0  0
    5.1875    1.0100  -14.2183 C   0  0  0  0  0  0  0  0  0  0  0  0
    5.8107    0.2666  -15.2157 C   0  0  0  0  0  0  0  0  0  0  0  0
    7.0392    0.6978  -15.6273 C   0  0  0  0  0  0  0  0  0  0  0  0
    7.6685    1.8325  -15.0891 C   0  0  0  0  0  0  0  0  0  0  0  0
    7.0569    2.5740  -14.1010 C   0  0  0  0  0  0  0  0  0  0  0  0
    7.7337   -0.0273  -16.6756 C   0  0  0  0  0  0  0  0  0  0  0  0
    8.8565    0.3571  -17.0581 O   0  0  0  0  0  0  0  0  0  0  0  0
    7.0563   -1.1398  -17.1873 O   0  0  0  0  0  0  0  0  0  0  0  0
    5.6314   -1.1443  -17.1952 C   0  0  1  0  0  0  0  0  0  0  0  0
    5.1153   -2.4870  -17.6646 C   0  0  0  0  0  0  0  0  0  0  0  0
    5.1671   -0.9413  -15.7828 C   0  0  0  0  0  0  0  0  0  0  0  0
   11.3230    8.1416   -5.9527 C   0  0  0  0  0  0  0  0  0  0  0  0
   11.5281    9.2755   -6.7104 C   0  0  0  0  0  0  0  0  0  0  0  0
   11.1816    9.3145   -8.0541 C   0  0  0  0  0  0  0  0  0  0  0  0
   10.6191    8.2209   -8.6828 C   0  0  0  0  0  0  0  0  0  0  0  0
   10.2728    8.2325   -9.9921 N   0  0  0  0  0  0  0  0  0  0  0  0
    9.7236    7.1342  -10.5674 C   0  0  0  0  0  0  0  0  0  0  0  0
    9.4060    7.1727  -11.8094 N   0  0  0  0  0  0  0  0  0  0  0  0
    9.5138    6.0187   -9.8527 N   0  0  0  0  0  0  0  0  0  0  0  0
    9.0897    5.1612  -10.2843 H   0  0  0  0  0  0  0  0  0  0  0  0
    9.8514    5.9851   -8.5461 C   0  0  0  0  0  0  0  0  0  0  0  0
   10.4176    7.0908   -7.9172 C   0  0  0  0  0  0  0  0  0  0  0  0
   10.7572    7.0374   -6.5802 C   0  0  0  0  0  0  0  0  0  0  0  0
   12.3858    7.9148   -1.8119 C   0  0  0  0  0  0  0  0  0  0  0  0
   12.3251    9.1278   -2.4618 C   0  0  0  0  0  0  0  0  0  0  0  0
   11.9844    9.2298   -3.7995 C   0  0  0  0  0  0  0  0  0  0  0  0
   11.6890    8.1015   -4.5398 C   0  0  0  0  0  0  0  0  0  0  0  0
   11.7465    6.8740   -3.8968 C   0  0  0  0  0  0  0  0  0  0  0  0
   12.0869    6.7816   -2.5638 C   0  0  0  0  0  0  0  0  0  0  0  0
 33 34  2  0
 34 35  1  0
 35 36  2  0
 36 21  1  0
 21 22  1  0
 22 23  2  0
 23 24  1  0
 24 25  2  0
 25 26  1  0
 26 27  2  0
 27  1  1  0
  1  2  2  0
  2  3  1  0
  3  4  2  0
  4  5  1  0
  5  6  2  0
  5  7  1  0
  7  8  1  0
  8  9  1  0
  9 10  2  0
 10 11  1  0
 11 12  2  0
 12 13  1  0
 13 14  2  0
 12 15  1  0
 15 16  2  0
 15 17  1  0
 17 18  1  0
 18 19  1  1
 18 20  1  0
 26 28  1  0
 28 29  1  0
 28 30  1  0
 30 31  2  0
 31 32  1  0
 36 37  1  0
 37 38  2  0
 38 33  1  0
 32 21  2  0
 31 24  1  0
  6  1  1  0
 14  9  1  0
 14  4  1  0
 20 11  1  0
M  END
>  <minimizedAffinity>  (292) 
-17.21943

$$$$
Mol: 160_29 - SminaDock
     RDKit          3D

 39 45  0  0  0  0  0  0  0  0999 V2000
    3.1641   -0.3691  -13.0400 H   0  0  0  0  0  0  0  0  0  0  0  0
    3.1510    0.0299  -13.9675 O   0  0  0  0  0  0  0  0  0  0  0  0
    4.2499   -0.1913  -14.7630 C   0  0  0  0  0  0  0  0  0  0  0  0
    5.3262    0.6616  -14.6515 C   0  0  0  0  0  0  0  0  0  0  0  0
    5.6195    1.7851  -13.8779 C   0  0  0  0  0  0  0  0  0  0  0  0
    6.8610    2.1764  -14.2445 C   0  0  0  0  0  0  0  0  0  0  0  0
    7.3873    1.3779  -15.2017 N   0  0  0  0  0  0  0  0  0  0  0  0
    6.4929    0.4396  -15.4853 C   0  0  0  0  0  0  0  0  0  0  0  0
    6.4381   -0.6474  -16.3597 C   0  0  0  0  0  0  0  0  0  0  0  0
    7.4626   -0.8209  -17.0740 O   0  0  0  0  0  0  0  0  0  0  0  0
    5.3495   -1.4129  -16.3917 N   0  0  0  0  0  0  0  0  0  0  0  0
    4.2792   -1.2303  -15.6442 N   0  0  0  0  0  0  0  0  0  0  0  0
    3.4452   -1.8700  -15.7129 H   0  0  0  0  0  0  0  0  0  0  0  0
    7.4221    3.3701  -13.6117 C   0  0  0  0  0  0  0  0  0  0  0  0
    8.7056    3.7386  -13.9559 C   0  0  0  0  0  0  0  0  0  0  0  0
    9.3273    4.8256  -13.3800 C   0  0  0  0  0  0  0  0  0  0  0  0
    8.6053    5.5296  -12.4416 C   0  0  0  0  0  0  0  0  0  0  0  0
    7.3288    5.1773  -12.0886 C   0  0  0  0  0  0  0  0  0  0  0  0
    6.6918    4.0707  -12.6737 C   0  0  0  0  0  0  0  0  0  0  0  0
    5.3206    3.7162  -12.3259 C   0  0  0  0  0  0  0  0  0  0  0  0
    4.8204    2.4322  -12.8481 C   0  0  0  0  0  0  0  0  0  0  0  0
    9.2597    6.6590  -11.8445 N   0  0  0  0  0  0  0  0  0  0  0  0
    9.5823    6.6605  -10.5920 C   0  0  0  0  0  0  0  0  0  0  0  0
    9.3243    5.6142   -9.7919 N   0  0  0  0  0  0  0  0  0  0  0  0
    9.6812    5.6776   -8.4975 C   0  0  0  0  0  0  0  0  0  0  0  0
   10.3058    6.7728   -7.9394 C   0  0  0  0  0  0  0  0  0  0  0  0
   10.6726    6.8467   -6.6163 C   0  0  0  0  0  0  0  0  0  0  0  0
   11.2991    7.9638   -6.0813 C   0  0  0  0  0  0  0  0  0  0  0  0
   11.5403    9.0096   -6.9475 C   0  0  0  0  0  0  0  0  0  0  0  0
   11.1825    8.9678   -8.2911 C   0  0  0  0  0  0  0  0  0  0  0  0
   10.5581    7.8378   -8.7947 C   0  0  0  0  0  0  0  0  0  0  0  0
   10.1896    7.7488  -10.0910 N   0  0  0  0  0  0  0  0  0  0  0  0
   10.4020    8.5758  -10.6898 H   0  0  0  0  0  0  0  0  0  0  0  0
   11.6834    8.0256   -4.6648 C   0  0  0  0  0  0  0  0  0  0  0  0
   11.6660    6.8615   -3.9209 C   0  0  0  0  0  0  0  0  0  0  0  0
   12.0129    6.8384   -2.5796 C   0  0  0  0  0  0  0  0  0  0  0  0
   12.3820    8.0327   -2.0005 C   0  0  0  0  0  0  0  0  0  0  0  0
   12.3990    9.1948   -2.7452 C   0  0  0  0  0  0  0  0  0  0  0  0
   12.0561    9.2081   -4.0640 C   0  0  0  0  0  0  0  0  0  0  0  0
  1  2  1  0
  2  3  1  0
  3  4  2  0
  4  5  1  0
  5  6  2  0
  6  7  1  0
  7  8  2  0
  8  9  1  0
  9 10  2  0
  9 11  1  0
 11 12  1  0
 12 13  1  0
  6 14  1  0
 14 15  2  0
 15 16  1  0
 16 17  2  0
 17 22  1  0
 22 23  2  0
 23 24  1  0
 24 25  2  0
 25 26  1  0
 26 27  2  0
 27 28  1  0
 28 34  1  0
 34 35  2  0
 35 36  1  0
 36 37  2  0
 37 38  1  0
 38 39  2  0
 28 29  2  0
 29 30  1  0
 30 31  2  0
 31 32  1  0
 32 33  1  0
 17 18  1  0
 18 19  2  0
 19 20  1  0
 20 21  1  0
 12  3  1  0
 19 14  1  0
  8  4  1  0
 32 23  1  0
 21  5  1  0
 31 26  1  0
 39 34  1  0
M  CHG  1  11  -1
M  END
>  <minimizedAffinity>  (293) 
-17.21111

$$$$
Mol: 158_37 - SminaDock
     RDKit          3D

 37 43  0  0  0  0  0  0  0  0999 V2000
    8.5276    0.9151  -16.6239 C   0  0  0  0  0  0  0  0  0  0  0  0
    7.8122   -0.1994  -16.7856 N   0  0  0  0  0  0  0  0  0  0  0  0
    6.7742   -0.5001  -16.0005 C   0  0  0  0  0  0  0  0  0  0  0  0
    6.1331   -1.5837  -16.2171 O   0  0  0  0  0  0  0  0  0  0  0  0
    6.4014    0.3418  -14.9764 C   0  0  0  0  0  0  0  0  0  0  0  0
    5.2266    0.0797  -14.2769 C   0  0  0  0  0  0  0  0  0  0  0  0
    4.7932    0.9998  -13.3671 C   0  0  0  0  0  0  0  0  0  0  0  0
    5.4945    2.1545  -13.1309 C   0  0  0  0  0  0  0  0  0  0  0  0
    6.6789    2.4036  -13.8353 C   0  0  0  0  0  0  0  0  0  0  0  0
    7.1353    1.5232  -14.7649 C   0  0  0  0  0  0  0  0  0  0  0  0
    8.1817    1.8012  -15.5933 C   0  0  0  0  0  0  0  0  0  0  0  0
    7.3600    3.6701  -13.5867 C   0  0  0  0  0  0  0  0  0  0  0  0
    8.7018    3.7806  -13.8891 C   0  0  0  0  0  0  0  0  0  0  0  0
    9.4435    4.8432  -13.3510 C   0  0  0  0  0  0  0  0  0  0  0  0
    8.9021    5.7821  -12.5267 C   0  0  0  0  0  0  0  0  0  0  0  0
    7.5656    5.6502  -12.2314 C   0  0  0  0  0  0  0  0  0  0  0  0
    6.8198    4.6415  -12.7361 C   0  0  0  0  0  0  0  0  0  0  0  0
    5.3379    4.5553  -12.4408 C   0  0  0  0  0  0  0  0  0  0  0  0
    5.0521    3.1227  -12.1112 C   0  0  0  0  0  0  0  0  0  0  0  0
    9.6996    6.8463  -12.0056 N   0  0  0  0  0  0  0  0  0  0  0  0
    9.9334    6.8702  -10.7441 C   0  0  0  0  0  0  0  0  0  0  0  0
    9.4498    5.9348   -9.9438 N   0  0  0  0  0  0  0  0  0  0  0  0
    9.6656    5.9186   -8.6301 C   0  0  0  0  0  0  0  0  0  0  0  0
   10.4217    6.9162   -8.0908 C   0  0  0  0  0  0  0  0  0  0  0  0
   10.6492    6.9047   -6.7257 C   0  0  0  0  0  0  0  0  0  0  0  0
   11.4088    7.9021   -6.1628 C   0  0  0  0  0  0  0  0  0  0  0  0
   11.9236    8.8852   -6.9674 C   0  0  0  0  0  0  0  0  0  0  0  0
   11.7007    8.9038   -8.3338 C   0  0  0  0  0  0  0  0  0  0  0  0
   10.9326    7.8974   -8.9102 C   0  0  0  0  0  0  0  0  0  0  0  0
   10.6809    7.8580  -10.2172 N   0  0  0  0  0  0  0  0  0  0  0  0
   11.0595    8.5922  -10.8512 H   0  0  0  0  0  0  0  0  0  0  0  0
   11.6579    7.9102   -4.7415 C   0  0  0  0  0  0  0  0  0  0  0  0
   11.9422    9.1023   -4.0909 C   0  0  0  0  0  0  0  0  0  0  0  0
   12.1840    9.1381   -2.7359 C   0  0  0  0  0  0  0  0  0  0  0  0
   12.1498    7.9800   -1.9817 C   0  0  0  0  0  0  0  0  0  0  0  0
   11.8671    6.8033   -2.6347 C   0  0  0  0  0  0  0  0  0  0  0  0
   11.6219    6.7513   -3.9960 C   0  0  0  0  0  0  0  0  0  0  0  0
  1  2  1  0
  2  3  1  0
  3  4  2  0
  3  5  1  0
  5  6  2  0
  6  7  1  0
  7  8  2  0
  8  9  1  0
  9 10  2  0
 10 11  1  0
  9 12  1  0
 12 13  2  0
 13 14  1  0
 14 15  2  0
 15 20  1  0
 20 21  2  0
 21 22  1  0
 22 23  2  0
 23 24  1  0
 24 25  2  0
 25 26  1  0
 26 32  1  0
 32 33  2  0
 33 34  1  0
 34 35  2  0
 35 36  1  0
 36 37  2  0
 26 27  2  0
 27 28  1  0
 28 29  2  0
 29 30  1  0
 30 31  1  0
 15 16  1  0
 16 17  2  0
 17 18  1  0
 18 19  1  0
 11  1  2  0
 17 12  1  0
 10  5  1  0
 30 21  1  0
 19  8  1  0
 29 24  1  0
 37 32  1  0
M  CHG  1   2  -1
M  END
>  <minimizedAffinity>  (294) 
-17.17284

$$$$
Mol: 157_52 - SminaDock
     RDKit          3D

 40 46  0  0  0  0  0  0  0  0999 V2000
    2.1943    0.9540  -13.9035 H   0  0  0  0  0  0  0  0  0  0  0  0
    3.1454    0.7081  -13.6337 O   0  0  0  0  0  0  0  0  0  0  0  0
    3.9711    0.0938  -14.5257 C   0  0  0  0  0  0  0  0  0  0  0  0
    3.4782   -0.9275  -15.2143 C   0  0  0  0  0  0  0  0  0  0  0  0
    4.2946   -1.5994  -16.1552 N   0  0  0  0  0  0  0  0  0  0  0  0
    3.8653   -2.3814  -16.6893 H   0  0  0  0  0  0  0  0  0  0  0  0
    5.6517   -1.2757  -16.4139 C   0  0  0  0  0  0  0  0  0  0  0  0
    6.1666   -0.1178  -15.6573 C   0  0  0  0  0  0  0  0  0  0  0  0
    5.3330    0.5145  -14.7394 C   0  0  0  0  0  0  0  0  0  0  0  0
    5.8847    1.5996  -14.0542 C   0  0  0  0  0  0  0  0  0  0  0  0
    7.1821    2.0104  -14.2957 C   0  0  0  0  0  0  0  0  0  0  0  0
    7.9321    1.3450  -15.2020 N   0  0  0  0  0  0  0  0  0  0  0  0
    7.4762    0.3023  -15.8871 C   0  0  0  0  0  0  0  0  0  0  0  0
    8.1608   -0.3311  -16.7353 O   0  0  0  0  0  0  0  0  0  0  0  0
    7.6655    3.2438  -13.6940 C   0  0  0  0  0  0  0  0  0  0  0  0
    8.9983    3.5950  -13.8544 C   0  0  0  0  0  0  0  0  0  0  0  0
    9.5021    4.7283  -13.2120 C   0  0  0  0  0  0  0  0  0  0  0  0
    8.6990    5.5162  -12.4130 C   0  0  0  0  0  0  0  0  0  0  0  0
    7.3656    5.1402  -12.2718 C   0  0  0  0  0  0  0  0  0  0  0  0
    6.8592    4.0257  -12.9022 C   0  0  0  0  0  0  0  0  0  0  0  0
    5.3860    3.7204  -12.7920 C   0  0  0  0  0  0  0  0  0  0  0  0
    5.1994    2.2531  -12.9401 C   0  0  0  0  0  0  0  0  0  0  0  0
    9.2774    6.6386  -11.7996 N   0  0  0  0  0  0  0  0  0  0  0  0
    9.6229    6.7343  -10.5859 C   0  0  0  0  0  0  0  0  0  0  0  0
    9.4225    5.6581   -9.7862 N   0  0  0  0  0  0  0  0  0  0  0  0
    9.7570    5.6699   -8.4916 C   0  0  0  0  0  0  0  0  0  0  0  0
   10.3208    6.7769   -7.9114 C   0  0  0  0  0  0  0  0  0  0  0  0
   10.6812    6.8238   -6.5672 C   0  0  0  0  0  0  0  0  0  0  0  0
   11.2468    7.9450   -6.0010 C   0  0  0  0  0  0  0  0  0  0  0  0
   11.4488    9.0389   -6.8204 C   0  0  0  0  0  0  0  0  0  0  0  0
   11.0918    8.9938   -8.1538 C   0  0  0  0  0  0  0  0  0  0  0  0
   10.5260    7.8757   -8.7256 C   0  0  0  0  0  0  0  0  0  0  0  0
   10.1741    7.8149  -10.0160 N   0  0  0  0  0  0  0  0  0  0  0  0
   10.3345    8.6507  -10.6185 H   0  0  0  0  0  0  0  0  0  0  0  0
   11.6342    8.0171   -4.5909 C   0  0  0  0  0  0  0  0  0  0  0  0
   11.6648    6.8980   -3.7889 C   0  0  0  0  0  0  0  0  0  0  0  0
   12.0294    6.9444   -2.4484 C   0  0  0  0  0  0  0  0  0  0  0  0
   12.3787    8.1455   -1.8744 C   0  0  0  0  0  0  0  0  0  0  0  0
   12.3488    9.2742   -2.6793 C   0  0  0  0  0  0  0  0  0  0  0  0
   11.9874    9.2303   -4.0097 C   0  0  0  0  0  0  0  0  0  0  0  0
  1  2  1  0
  2  3  1  0
  3  4  2  0
  4  5  1  0
  5  6  1  0
  5  7  1  0
  7  8  1  0
  8  9  2  0
  9 10  1  0
 10 11  2  0
 11 12  1  0
 12 13  1  0
 13 14  2  0
 11 15  1  0
 15 16  2  0
 16 17  1  0
 17 18  2  0
 18 23  1  0
 23 24  2  0
 24 25  1  0
 25 26  2  0
 26 27  1  0
 27 28  2  0
 28 29  1  0
 29 35  1  0
 35 36  2  0
 36 37  1  0
 37 38  2  0
 38 39  1  0
 39 40  2  0
 29 30  2  0
 30 31  1  0
 31 32  2  0
 32 33  1  0
 33 34  1  0
 18 19  1  0
 19 20  2  0
 20 21  1  0
 21 22  1  0
  9  3  1  0
 22 10  1  0
 13  8  1  0
 20 15  1  0
 33 24  1  0
 32 27  1  0
 40 35  1  0
M  CHG  1  12  -1
M  END
>  <minimizedAffinity>  (295) 
-17.16780

$$$$
Mol: 162_7 - SminaDock
     RDKit          3D

 39 45  0  0  0  0  0  0  0  0999 V2000
    8.5218    5.6479  -12.6539 C   0  0  0  0  0  0  0  0  0  0  0  0
    9.0936    5.0696  -13.7520 C   0  0  0  0  0  0  0  0  0  0  0  0
    8.5102    3.9503  -14.3341 C   0  0  0  0  0  0  0  0  0  0  0  0
    7.3607    3.4483  -13.7848 C   0  0  0  0  0  0  0  0  0  0  0  0
    6.7906    4.0383  -12.6779 C   0  0  0  0  0  0  0  0  0  0  0  0
    7.3748    5.1654  -12.0881 C   0  0  0  0  0  0  0  0  0  0  0  0
    5.5491    3.5436  -12.0847 C   0  0  0  0  0  0  0  0  0  0  0  0
    5.0077    2.2813  -12.6064 C   0  0  0  0  0  0  0  0  0  0  0  0
    5.6214    1.7233  -13.8184 C   0  0  0  0  0  0  0  0  0  0  0  0
    6.7597    2.2409  -14.3915 C   0  0  0  0  0  0  0  0  0  0  0  0
    7.3162    1.6640  -15.5235 C   0  0  0  0  0  0  0  0  0  0  0  0
    6.7430    0.5375  -16.1253 C   0  0  0  0  0  0  0  0  0  0  0  0
    7.2731   -0.0566  -17.2506 C   0  0  0  0  0  0  0  0  0  0  0  0
    8.4493    0.4771  -17.8427 N   0  0  0  0  0  0  0  0  0  0  0  0
    8.4584    0.6673  -18.8638 H   0  0  0  0  0  0  0  0  0  0  0  0
    9.3081    0.6882  -17.2983 H   0  0  0  0  0  0  0  0  0  0  0  0
    6.6951   -1.1680  -17.8335 C   0  0  0  0  0  0  0  0  0  0  0  0
    5.5578   -1.6816  -17.2590 C   0  0  0  0  0  0  0  0  0  0  0  0
    5.0304   -1.0858  -16.1347 C   0  0  0  0  0  0  0  0  0  0  0  0
    5.6073    0.0352  -15.5409 C   0  0  0  0  0  0  0  0  0  0  0  0
    5.0587    0.5966  -14.4314 C   0  0  0  0  0  0  0  0  0  0  0  0
   11.2844    7.9386   -6.3436 C   0  0  0  0  0  0  0  0  0  0  0  0
   11.5394    9.0212   -7.1578 C   0  0  0  0  0  0  0  0  0  0  0  0
   11.1769    9.0361   -8.4876 C   0  0  0  0  0  0  0  0  0  0  0  0
   10.5401    7.9362   -9.0215 C   0  0  0  0  0  0  0  0  0  0  0  0
   10.2773    6.8453   -8.2219 C   0  0  0  0  0  0  0  0  0  0  0  0
   10.6488    6.8553   -6.8996 C   0  0  0  0  0  0  0  0  0  0  0  0
    9.6429    5.7301   -8.7230 C   0  0  0  0  0  0  0  0  0  0  0  0
    9.2728    5.7393  -10.0722 C   0  0  0  0  0  0  0  0  0  0  0  0
    9.5374    6.8308  -10.8667 C   0  0  0  0  0  0  0  0  0  0  0  0
    9.1818    6.7994  -12.1075 N   0  0  0  0  0  0  0  0  0  0  0  0
   10.1540    7.8686  -10.3052 N   0  0  0  0  0  0  0  0  0  0  0  0
   10.3459    8.6952  -10.9375 H   0  0  0  0  0  0  0  0  0  0  0  0
   12.4055    7.8971   -2.2448 C   0  0  0  0  0  0  0  0  0  0  0  0
   12.7232    8.9834   -3.0210 C   0  0  0  0  0  0  0  0  0  0  0  0
   12.3478    8.9684   -4.3417 C   0  0  0  0  0  0  0  0  0  0  0  0
   11.6658    7.9120   -4.9247 C   0  0  0  0  0  0  0  0  0  0  0  0
   11.3623    6.8368   -4.1168 C   0  0  0  0  0  0  0  0  0  0  0  0
   11.7242    6.8173   -2.7841 C   0  0  0  0  0  0  0  0  0  0  0  0
 34 35  2  0
 35 36  1  0
 36 37  2  0
 37 22  1  0
 22 23  2  0
 23 24  1  0
 24 25  2  0
 25 26  1  0
 26 27  2  0
 26 28  1  0
 28 29  2  0
 29 30  1  0
 30 31  2  0
 31  1  1  0
  1  2  2  0
  2  3  1  0
  3  4  2  0
  4  5  1  0
  5  6  2  0
  5  7  1  0
  7  8  1  0
  8  9  1  0
  9 10  2  0
 10 11  1  0
 11 12  2  0
 12 13  1  0
 13 14  1  0
 14 15  1  0
 14 16  1  0
 13 17  2  0
 17 18  1  0
 18 19  2  0
 19 20  1  0
 20 21  2  0
 30 32  1  0
 32 33  1  0
 37 38  1  0
 38 39  2  0
 39 34  1  0
 27 22  1  0
  6  1  1  0
 21  9  1  0
 32 25  1  0
 10  4  1  0
 20 12  1  0
M  END
>  <minimizedAffinity>  (296) 
-17.06488

$$$$
Mol: 160_24 - SminaDock
     RDKit          3D

 39 45  0  0  0  0  0  0  0  0999 V2000
    8.8191   -1.0926  -15.6072 H   0  0  0  0  0  0  0  0  0  0  0  0
    8.0787   -0.5318  -16.0244 O   0  0  0  0  0  0  0  0  0  0  0  0
    7.2700    0.2887  -15.2211 C   0  0  0  0  0  0  0  0  0  0  0  0
    7.7900    1.4242  -14.7195 N   0  0  0  0  0  0  0  0  0  0  0  0
    7.0041    2.2029  -13.9502 C   0  0  0  0  0  0  0  0  0  0  0  0
    5.7025    1.8367  -13.6896 C   0  0  0  0  0  0  0  0  0  0  0  0
    5.1524    0.6738  -14.1969 C   0  0  0  0  0  0  0  0  0  0  0  0
    5.9881   -0.1034  -14.9839 C   0  0  0  0  0  0  0  0  0  0  0  0
    5.2052   -1.2855  -15.4159 C   0  0  0  0  0  0  0  0  0  0  0  0
    3.8225   -0.9806  -15.1303 N   0  0  2  0  0  0  0  0  0  0  0  0
    3.2783   -1.7861  -14.8083 H   0  0  0  0  0  0  0  0  0  0  0  0
    3.3854   -0.6309  -16.0195 H   0  0  0  0  0  0  0  0  0  0  0  0
    3.8178    0.0291  -14.0948 C   0  0  0  0  0  0  0  0  0  0  0  0
    4.8457    2.6737  -12.8507 C   0  0  0  0  0  0  0  0  0  0  0  0
    5.4127    3.9267  -12.3339 C   0  0  0  0  0  0  0  0  0  0  0  0
    6.8095    4.2419  -12.6448 C   0  0  0  0  0  0  0  0  0  0  0  0
    7.3743    5.4251  -12.1301 C   0  0  0  0  0  0  0  0  0  0  0  0
    8.6796    5.7366  -12.4171 C   0  0  0  0  0  0  0  0  0  0  0  0
    9.4796    4.9298  -13.2009 C   0  0  0  0  0  0  0  0  0  0  0  0
    8.9056    3.7783  -13.6927 C   0  0  0  0  0  0  0  0  0  0  0  0
    7.5888    3.4287  -13.4247 C   0  0  0  0  0  0  0  0  0  0  0  0
    9.1754    6.9569  -11.8546 N   0  0  0  0  0  0  0  0  0  0  0  0
    9.5442    6.9214  -10.5885 C   0  0  0  0  0  0  0  0  0  0  0  0
    9.4509    5.7881   -9.8823 N   0  0  0  0  0  0  0  0  0  0  0  0
    9.8246    5.7511   -8.5985 C   0  0  0  0  0  0  0  0  0  0  0  0
   10.3196    6.8880   -7.9638 C   0  0  0  0  0  0  0  0  0  0  0  0
   10.7071    6.8662   -6.6473 C   0  0  0  0  0  0  0  0  0  0  0  0
   11.1917    8.0055   -6.0496 C   0  0  0  0  0  0  0  0  0  0  0  0
   11.2761    9.1504   -6.7965 C   0  0  0  0  0  0  0  0  0  0  0  0
   10.8894    9.1713   -8.1095 C   0  0  0  0  0  0  0  0  0  0  0  0
   10.3975    8.0214   -8.7220 C   0  0  0  0  0  0  0  0  0  0  0  0
   10.0158    8.0226  -10.0005 N   0  0  0  0  0  0  0  0  0  0  0  0
   10.0967    8.9206  -10.5363 H   0  0  0  0  0  0  0  0  0  0  0  0
   11.6166    8.0201   -4.6410 C   0  0  0  0  0  0  0  0  0  0  0  0
   11.6870    6.8505   -3.9089 C   0  0  0  0  0  0  0  0  0  0  0  0
   12.0854    6.8464   -2.5805 C   0  0  0  0  0  0  0  0  0  0  0  0
   12.4241    8.0418   -1.9613 C   0  0  0  0  0  0  0  0  0  0  0  0
   12.3462    9.1917   -2.7101 C   0  0  0  0  0  0  0  0  0  0  0  0
   11.9497    9.2094   -4.0379 C   0  0  0  0  0  0  0  0  0  0  0  0
  1  2  1  0
  2  3  1  0
  3  4  2  0
  4  5  1  0
  5  6  2  0
  6  7  1  0
  7  8  2  0
  8  9  1  0
  9 10  1  0
 10 11  1  1
 10 12  1  0
 10 13  1  0
  6 14  1  0
 14 15  1  0
 15 16  1  0
 16 17  2  0
 17 18  1  0
 18 22  1  0
 22 23  2  0
 23 24  1  0
 24 25  2  0
 25 26  1  0
 26 27  2  0
 27 28  1  0
 28 34  1  0
 34 35  2  0
 35 36  1  0
 36 37  2  0
 37 38  1  0
 38 39  2  0
 28 29  2  0
 29 30  1  0
 30 31  2  0
 31 32  1  0
 32 33  1  0
 18 19  2  0
 19 20  1  0
 20 21  2  0
  8  3  1  0
 21 16  1  0
 21  5  1  0
 13  7  1  0
 32 23  1  0
 31 26  1  0
 39 34  1  0
M  CHG  1  10   1
M  END
>  <minimizedAffinity>  (297) 
-17.07773

$$$$
Mol: 149_29 - SminaDock
     RDKit          3D

 44 50  0  0  0  0  0  0  0  0999 V2000
    4.9128   -1.5504  -17.4455 C   0  0  0  0  0  0  0  0  0  0  0  0
    3.8234   -1.2218  -16.6290 C   0  0  0  0  0  0  0  0  0  0  0  0
    3.8366   -0.3573  -15.5377 C   0  0  0  0  0  0  0  0  0  0  0  0
    4.9005    0.2823  -14.9517 C   0  0  0  0  0  0  0  0  0  0  0  0
    6.0925    0.6602  -15.6060 C   0  0  0  0  0  0  0  0  0  0  0  0
    6.6160    0.1154  -16.7435 C   0  0  0  0  0  0  0  0  0  0  0  0
    7.5203    0.7414  -17.3040 O   0  0  0  0  0  0  0  0  0  0  0  0
    6.2229   -1.0890  -17.3411 C   0  0  0  0  0  0  0  0  0  0  0  0
    6.8561    1.7807  -15.0359 C   0  0  0  0  0  0  0  0  0  0  0  0
    6.3751    2.3764  -13.9508 C   0  0  0  0  0  0  0  0  0  0  0  0
    7.1393    3.5058  -13.3490 C   0  0  0  0  0  0  0  0  0  0  0  0
    6.6337    4.1755  -12.2646 C   0  0  0  0  0  0  0  0  0  0  0  0
    7.3289    5.2737  -11.7347 C   0  0  0  0  0  0  0  0  0  0  0  0
    8.5227    5.6530  -12.3330 C   0  0  0  0  0  0  0  0  0  0  0  0
    8.9860    4.9451  -13.4201 C   0  0  0  0  0  0  0  0  0  0  0  0
    8.2910    3.8497  -13.9465 C   0  0  0  0  0  0  0  0  0  0  0  0
    8.9192    3.1822  -15.0633 C   0  0  0  0  0  0  0  0  0  0  0  0
    8.0875    2.1435  -15.7613 C   0  0  0  0  0  0  0  0  0  0  0  0
    5.1000    2.0086  -13.3495 C   0  0  0  0  0  0  0  0  0  0  0  0
    4.7705    0.5601  -13.5012 C   0  0  0  0  0  0  0  0  0  0  0  0
    9.2201    6.7692  -11.7918 N   0  0  0  0  0  0  0  0  0  0  0  0
    9.5780    6.8508  -10.5673 C   0  0  0  0  0  0  0  0  0  0  0  0
    9.2863    5.8333   -9.7358 N   0  0  0  0  0  0  0  0  0  0  0  0
    9.6141    5.8140   -8.4333 C   0  0  0  0  0  0  0  0  0  0  0  0
   10.2830    6.8970   -7.9374 C   0  0  0  0  0  0  0  0  0  0  0  0
   10.6380    6.9268   -6.6246 C   0  0  0  0  0  0  0  0  0  0  0  0
   11.3107    8.0101   -6.1124 C   0  0  0  0  0  0  0  0  0  0  0  0
   11.6259    9.0768   -6.9494 C   0  0  0  0  0  0  0  0  0  0  0  0
   11.2598    9.0338   -8.2794 C   0  0  0  0  0  0  0  0  0  0  0  0
   10.5764    7.9386   -8.8093 C   0  0  0  0  0  0  0  0  0  0  0  0
   10.2349    7.9282  -10.1069 N   0  0  0  0  0  0  0  0  0  0  0  0
   10.4639    8.7193  -10.7450 H   0  0  0  0  0  0  0  0  0  0  0  0
   11.6744    8.0082   -4.7011 C   0  0  0  0  0  0  0  0  0  0  0  0
   12.0472    9.1802   -4.0596 C   0  0  0  0  0  0  0  0  0  0  0  0
   12.3869    9.1703   -2.7226 C   0  0  0  0  0  0  0  0  0  0  0  0
   12.3515    7.9752   -2.0282 C   0  0  0  0  0  0  0  0  0  0  0  0
   11.9848    6.7992   -2.6436 C   0  0  0  0  0  0  0  0  0  0  0  0
   11.6498    6.8343   -3.9795 C   0  0  0  0  0  0  0  0  0  0  0  0
    2.7372   -3.4268  -20.5358 H   0  0  0  0  0  0  0  0  0  0  0  0
    3.1084   -3.9212  -19.7394 O   0  0  0  0  0  0  0  0  0  0  0  0
    3.3549   -3.0317  -18.7141 N   0  0  0  0  0  0  0  0  0  0  0  0
    2.5748   -2.7735  -18.0848 H   0  0  0  0  0  0  0  0  0  0  0  0
    4.6313   -2.4822  -18.5072 C   0  0  0  0  0  0  0  0  0  0  0  0
    5.5557   -2.8243  -19.2833 O   0  0  0  0  0  0  0  0  0  0  0  0
 39 40  1  0
 40 41  1  0
 41 42  1  0
 41 43  1  0
 43 44  2  0
 43  1  1  0
  1  2  1  0
  2  3  2  0
  3  4  1  0
  4  5  2  0
  5  6  1  0
  6  7  2  0
  6  8  1  0
  5  9  1  0
  9 10  2  0
 10 11  1  0
 11 12  2  0
 12 13  1  0
 13 14  2  0
 14 21  1  0
 21 22  2  0
 22 23  1  0
 23 24  2  0
 24 25  1  0
 25 26  2  0
 26 27  1  0
 27 33  1  0
 33 34  2  0
 34 35  1  0
 35 36  2  0
 36 37  1  0
 37 38  2  0
 27 28  2  0
 28 29  1  0
 29 30  2  0
 30 31  1  0
 31 32  1  0
 14 15  1  0
 15 16  2  0
 16 17  1  0
 17 18  1  0
 10 19  1  0
 19 20  1  0
  8  1  2  0
 18  9  1  0
 20  4  1  0
 16 11  1  0
 31 22  1  0
 30 25  1  0
 38 33  1  0
M  END
>  <minimizedAffinity>  (298) 
-17.06963

$$$$
Mol: 182_46 - SminaDock
     RDKit          3D

 45 52  0  0  0  0  0  0  0  0999 V2000
    8.9850    6.2200  -12.5034 C   0  0  0  0  0  0  0  0  0  0  0  0
    7.7781    6.1780  -11.8402 C   0  0  0  0  0  0  0  0  0  0  0  0
    6.9568    5.1190  -12.1391 C   0  0  0  0  0  0  0  0  0  0  0  0
    7.3410    4.1373  -13.0745 C   0  0  0  0  0  0  0  0  0  0  0  0
    8.5407    4.2107  -13.7101 C   0  0  0  0  0  0  0  0  0  0  0  0
    9.3801    5.2940  -13.4044 C   0  0  0  0  0  0  0  0  0  0  0  0
    8.9840    3.2155  -14.6704 C   0  0  2  0  0  0  0  0  0  0  0  0
    7.9982    2.1599  -14.9293 C   0  0  0  0  0  0  0  0  0  0  0  0
    8.0748    1.0921  -15.8055 N   0  0  0  0  0  0  0  0  0  0  0  0
    6.9874    0.3447  -15.7593 C   0  0  0  0  0  0  0  0  0  0  0  0
    6.5515   -0.7788  -16.3820 N   0  0  0  0  0  0  0  0  0  0  0  0
    7.1608   -1.2372  -17.0909 H   0  0  0  0  0  0  0  0  0  0  0  0
    5.3578   -1.3406  -16.1294 C   0  0  0  0  0  0  0  0  0  0  0  0
    4.9394   -2.5363  -16.8177 N   0  0  0  0  0  0  0  0  0  0  0  0
    5.0381   -3.4458  -16.3223 H   0  0  0  0  0  0  0  0  0  0  0  0
    4.5493   -2.5414  -17.7702 H   0  0  0  0  0  0  0  0  0  0  0  0
    4.5375   -0.7481  -15.1941 C   0  0  0  0  0  0  0  0  0  0  0  0
    4.8889    0.4052  -14.4995 C   0  0  0  0  0  0  0  0  0  0  0  0
    6.1125    0.9563  -14.7777 C   0  0  0  0  0  0  0  0  0  0  0  0
    6.7890    2.0745  -14.2983 C   0  0  0  0  0  0  0  0  0  0  0  0
    6.3685    3.0679  -13.3135 C   0  0  0  0  0  0  0  0  0  0  0  0
    5.2703    2.9964  -12.7340 O   0  0  0  0  0  0  0  0  0  0  0  0
   10.1989    2.5438  -14.0106 C   0  0  0  0  0  0  0  0  0  0  0  0
   10.7679    1.4703  -14.8832 C   0  0  0  0  0  0  0  0  0  0  0  0
   11.1068    1.9464  -16.2745 C   0  0  0  0  0  0  0  0  0  0  0  0
   10.9386    3.4516  -16.2539 C   0  0  0  0  0  0  0  0  0  0  0  0
    9.4999    3.8032  -15.9598 C   0  0  0  0  0  0  0  0  0  0  0  0
   11.0520    7.5198   -6.0899 C   0  0  0  0  0  0  0  0  0  0  0  0
   10.1822    6.4939   -6.3907 C   0  0  0  0  0  0  0  0  0  0  0  0
    9.7700    6.2407   -7.6983 C   0  0  0  0  0  0  0  0  0  0  0  0
   10.2288    7.0208   -8.7352 C   0  0  0  0  0  0  0  0  0  0  0  0
   11.1015    8.0542   -8.4535 C   0  0  0  0  0  0  0  0  0  0  0  0
   11.5324    8.8056   -9.5219 C   0  0  0  0  0  0  0  0  0  0  0  0
   11.1372    8.5643  -10.7838 N   0  0  0  0  0  0  0  0  0  0  0  0
   10.2878    7.5537  -11.0336 C   0  0  0  0  0  0  0  0  0  0  0  0
    9.8989    7.3073  -12.2340 N   0  0  0  0  0  0  0  0  0  0  0  0
    9.8515    6.8044  -10.0095 N   0  0  0  0  0  0  0  0  0  0  0  0
    9.1852    6.0042  -10.1687 H   0  0  0  0  0  0  0  0  0  0  0  0
   11.4975    8.2896   -7.1579 C   0  0  0  0  0  0  0  0  0  0  0  0
   12.2866    8.1603   -2.0784 C   0  0  0  0  0  0  0  0  0  0  0  0
   12.0433    6.8981   -2.5575 C   0  0  0  0  0  0  0  0  0  0  0  0
   11.6383    6.7002   -3.8761 C   0  0  0  0  0  0  0  0  0  0  0  0
   11.4750    7.7745   -4.7235 C   0  0  0  0  0  0  0  0  0  0  0  0
   11.7256    9.0286   -4.2172 C   0  0  0  0  0  0  0  0  0  0  0  0
   12.1262    9.2443   -2.9185 C   0  0  0  0  0  0  0  0  0  0  0  0
 40 41  2  0
 41 42  1  0
 42 43  2  0
 43 28  1  0
 28 29  2  0
 29 30  1  0
 30 31  2  0
 31 32  1  0
 32 33  1  0
 33 34  2  0
 34 35  1  0
 35 36  2  0
 36  1  1  0
  1  2  2  0
  2  3  1  0
  3  4  2  0
  4  5  1  0
  5  6  2  0
  5  7  1  0
  7  8  1  0
  8  9  1  0
  9 10  2  0
 10 11  1  0
 11 12  1  0
 11 13  1  0
 13 14  1  0
 14 15  1  0
 14 16  1  0
 13 17  2  0
 17 18  1  0
 18 19  2  0
 19 20  1  0
 20 21  1  0
 21 22  2  0
  7 23  1  1
 23 24  1  0
 24 25  1  0
 25 26  1  0
 26 27  1  0
 35 37  1  0
 37 38  1  0
 32 39  2  0
 43 44  1  0
 44 45  2  0
 45 40  1  0
 39 28  1  0
 37 31  1  0
  6  1  1  0
 27  7  1  0
 21  4  1  0
 20  8  2  0
 19 10  1  0
M  END
>  <minimizedAffinity>  (299) 
-17.13283

$$$$
Mol: 182_58 - SminaDock
     RDKit          3D

 38 44  0  0  0  0  0  0  0  0999 V2000
    2.2733   -1.8992  -14.7267 H   0  0  0  0  0  0  0  0  0  0  0  0
    2.6433   -0.9622  -14.6135 O   0  0  0  0  0  0  0  0  0  0  0  0
    3.9081   -0.6082  -15.0573 C   0  0  0  0  0  0  0  0  0  0  0  0
    4.5526   -1.2174  -15.9756 N   0  0  0  0  0  0  0  0  0  0  0  0
    5.8226   -0.5899  -16.1828 C   0  0  0  0  0  0  0  0  0  0  0  0
    6.7019   -0.9401  -17.0140 O   0  0  0  0  0  0  0  0  0  0  0  0
    5.8609    0.4966  -15.2533 N   0  0  0  0  0  0  0  0  0  0  0  0
    4.6930    0.5061  -14.5487 C   0  0  0  0  0  0  0  0  0  0  0  0
    4.5172    1.4781  -13.5918 C   0  0  0  0  0  0  0  0  0  0  0  0
    5.4547    2.4475  -13.3010 C   0  0  0  0  0  0  0  0  0  0  0  0
    6.6359    2.4171  -14.0322 C   0  0  0  0  0  0  0  0  0  0  0  0
    6.7918    1.4310  -14.9895 C   0  0  0  0  0  0  0  0  0  0  0  0
    7.8569    1.3911  -15.6593 O   0  0  0  0  0  0  0  0  0  0  0  0
    7.4399    3.5206  -13.5448 C   0  0  0  0  0  0  0  0  0  0  0  0
    8.6872    3.9440  -13.9180 C   0  0  0  0  0  0  0  0  0  0  0  0
    9.2691    5.0448  -13.3006 C   0  0  0  0  0  0  0  0  0  0  0  0
    8.6180    5.7482  -12.2958 C   0  0  0  0  0  0  0  0  0  0  0  0
    7.3640    5.3166  -11.9257 C   0  0  0  0  0  0  0  0  0  0  0  0
    6.7925    4.2183  -12.5473 C   0  0  0  0  0  0  0  0  0  0  0  0
    5.4804    3.5724  -12.3305 C   0  0  0  0  0  0  0  0  0  0  0  0
    9.2251    6.8784  -11.6675 N   0  0  0  0  0  0  0  0  0  0  0  0
    9.5651    6.8581  -10.4365 C   0  0  0  0  0  0  0  0  0  0  0  0
    9.3860    5.7950   -9.6399 N   0  0  0  0  0  0  0  0  0  0  0  0
    9.7430    5.7712   -8.3521 C   0  0  0  0  0  0  0  0  0  0  0  0
   10.3234    6.8872   -7.8088 C   0  0  0  0  0  0  0  0  0  0  0  0
   10.7075    6.8883   -6.4625 C   0  0  0  0  0  0  0  0  0  0  0  0
   11.2935    8.0027   -5.8999 C   0  0  0  0  0  0  0  0  0  0  0  0
   11.4787    9.0975   -6.7180 C   0  0  0  0  0  0  0  0  0  0  0  0
   11.1011    9.1017   -8.0482 C   0  0  0  0  0  0  0  0  0  0  0  0
   10.5154    7.9840   -8.6049 C   0  0  0  0  0  0  0  0  0  0  0  0
   10.1338    7.9517   -9.9038 N   0  0  0  0  0  0  0  0  0  0  0  0
   10.2881    8.8067  -10.5076 H   0  0  0  0  0  0  0  0  0  0  0  0
   11.7018    8.0160   -4.4862 C   0  0  0  0  0  0  0  0  0  0  0  0
   11.7815    6.8402   -3.7576 C   0  0  0  0  0  0  0  0  0  0  0  0
   12.1554    6.7899   -2.4393 C   0  0  0  0  0  0  0  0  0  0  0  0
   12.4668    7.9857   -1.8166 C   0  0  0  0  0  0  0  0  0  0  0  0
   12.3994    9.1805   -2.5097 C   0  0  0  0  0  0  0  0  0  0  0  0
   12.0181    9.1857   -3.8366 C   0  0  0  0  0  0  0  0  0  0  0  0
  1  2  1  0
  2  3  1  0
  3  4  2  0
  4  5  1  0
  5  6  2  0
  5  7  1  0
  7  8  1  0
  8  9  2  0
  9 10  1  0
 10 11  2  0
 11 12  1  0
 12 13  2  0
 11 14  1  0
 14 15  2  0
 15 16  1  0
 16 17  2  0
 17 21  1  0
 21 22  2  0
 22 23  1  0
 23 24  2  0
 24 25  1  0
 25 26  2  0
 26 27  1  0
 27 33  1  0
 33 34  2  0
 34 35  1  0
 35 36  2  0
 36 37  1  0
 37 38  2  0
 27 28  2  0
 28 29  1  0
 29 30  2  0
 30 31  1  0
 31 32  1  0
 17 18  1  0
 18 19  2  0
 19 20  1  0
  8  3  1  0
 20 10  1  0
 12  7  1  0
 19 14  1  0
 31 22  1  0
 30 25  1  0
 38 33  1  0
M  END
>  <minimizedAffinity>  (300) 
-17.11051

$$$$
Mol: 130_59 - SminaDock
     RDKit          3D

 41 48  0  0  0  0  0  0  0  0999 V2000
    8.7834    6.1426  -12.3905 C   0  0  0  0  0  0  0  0  0  0  0  0
    7.5618    5.6648  -11.9726 C   0  0  0  0  0  0  0  0  0  0  0  0
    7.0133    4.5338  -12.5323 C   0  0  0  0  0  0  0  0  0  0  0  0
    7.7287    3.8794  -13.5388 C   0  0  0  0  0  0  0  0  0  0  0  0
    8.9434    4.3183  -13.9790 C   0  0  0  0  0  0  0  0  0  0  0  0
    9.4583    5.4734  -13.3798 C   0  0  0  0  0  0  0  0  0  0  0  0
    9.7047    3.5669  -14.9698 C   0  0  1  0  0  0  0  0  0  0  0  0
   10.7643    4.3694  -15.6688 C   0  0  0  0  0  0  0  0  0  0  0  0
   10.9208    5.4989  -16.1838 O   0  0  0  0  0  0  0  0  0  0  0  0
   11.6287    3.2523  -15.5172 N   0  0  0  0  0  0  0  0  0  0  0  0
   12.4680    2.8938  -16.0208 H   0  0  0  0  0  0  0  0  0  0  0  0
   10.8867    2.7877  -14.3715 C   0  0  0  0  0  0  0  0  0  0  0  0
    8.9238    2.6786  -15.8395 C   0  0  0  0  0  0  0  0  0  0  0  0
    7.7000    2.1416  -15.2224 C   0  0  0  0  0  0  0  0  0  0  0  0
    7.0586    2.7342  -14.1705 C   0  0  0  0  0  0  0  0  0  0  0  0
    5.8862    2.2675  -13.6546 N   0  0  0  0  0  0  0  0  0  0  0  0
    5.2768    1.1773  -14.1522 C   0  0  0  0  0  0  0  0  0  0  0  0
    4.0937    0.6644  -13.6691 C   0  0  0  0  0  0  0  0  0  0  0  0
    3.4932   -0.4567  -14.2006 C   0  0  0  0  0  0  0  0  0  0  0  0
    4.1194   -1.0831  -15.2664 C   0  0  0  0  0  0  0  0  0  0  0  0
    5.3006   -0.5698  -15.7477 C   0  0  0  0  0  0  0  0  0  0  0  0
    5.9035    0.5557  -15.2142 C   0  0  0  0  0  0  0  0  0  0  0  0
    7.0826    1.0096  -15.7487 C   0  0  0  0  0  0  0  0  0  0  0  0
   11.3280    8.1812   -5.9029 C   0  0  0  0  0  0  0  0  0  0  0  0
   11.4896    9.3275   -6.6487 C   0  0  0  0  0  0  0  0  0  0  0  0
   11.1261    9.3765   -7.9622 C   0  0  0  0  0  0  0  0  0  0  0  0
   10.5766    8.2788   -8.6137 C   0  0  0  0  0  0  0  0  0  0  0  0
   10.2195    8.3284   -9.9064 N   0  0  0  0  0  0  0  0  0  0  0  0
    9.6861    7.2585  -10.5350 C   0  0  0  0  0  0  0  0  0  0  0  0
    9.3459    7.3311  -11.7961 N   0  0  0  0  0  0  0  0  0  0  0  0
    9.5233    6.1373   -9.8216 N   0  0  0  0  0  0  0  0  0  0  0  0
    9.1125    5.2784  -10.2654 H   0  0  0  0  0  0  0  0  0  0  0  0
    9.8686    6.0391   -8.5141 C   0  0  0  0  0  0  0  0  0  0  0  0
   10.4111    7.1269   -7.8748 C   0  0  0  0  0  0  0  0  0  0  0  0
   10.7849    7.0908   -6.5406 C   0  0  0  0  0  0  0  0  0  0  0  0
   12.4312    7.8449   -1.7917 C   0  0  0  0  0  0  0  0  0  0  0  0
   12.4511    9.0581   -2.4234 C   0  0  0  0  0  0  0  0  0  0  0  0
   12.0994    9.2059   -3.7577 C   0  0  0  0  0  0  0  0  0  0  0  0
   11.7129    8.1165   -4.4999 C   0  0  0  0  0  0  0  0  0  0  0  0
   11.6951    6.8890   -3.8524 C   0  0  0  0  0  0  0  0  0  0  0  0
   12.0416    6.7323   -2.5313 C   0  0  0  0  0  0  0  0  0  0  0  0
 36 37  2  0
 37 38  1  0
 38 39  2  0
 39 24  1  0
 24 25  1  0
 25 26  2  0
 26 27  1  0
 27 28  2  0
 28 29  1  0
 29 30  2  0
 30  1  1  0
  1  2  2  0
  2  3  1  0
  3  4  2  0
  4  5  1  0
  5  6  2  0
  5  7  1  0
  7  8  1  0
  8  9  2  0
  8 10  1  0
 10 11  1  0
 10 12  1  0
  7 13  1  6
 13 14  1  0
 14 15  2  0
 15 16  1  0
 16 17  2  0
 17 18  1  0
 18 19  2  0
 19 20  1  0
 20 21  2  0
 21 22  1  0
 22 23  2  0
 29 31  1  0
 31 32  1  0
 31 33  1  0
 33 34  2  0
 34 35  1  0
 39 40  1  0
 40 41  2  0
 41 36  1  0
 35 24  2  0
 34 27  1  0
  6  1  1  0
 12  7  1  0
 23 14  1  0
 15  4  1  0
 22 17  1  0
M  END
>  <minimizedAffinity>  (301) 
-17.12247

$$$$
Mol: 200_46 - SminaDock
     RDKit          3D

 43 50  0  0  0  0  0  0  0  0999 V2000
    8.3777    5.5845  -12.6416 C   0  0  0  0  0  0  0  0  0  0  0  0
    7.2079    5.1410  -12.0604 C   0  0  0  0  0  0  0  0  0  0  0  0
    6.5741    4.0246  -12.5096 C   0  0  0  0  0  0  0  0  0  0  0  0
    7.1342    3.3318  -13.5773 C   0  0  0  0  0  0  0  0  0  0  0  0
    8.2978    3.7329  -14.1906 C   0  0  0  0  0  0  0  0  0  0  0  0
    8.9117    4.8789  -13.6990 C   0  0  0  0  0  0  0  0  0  0  0  0
    9.1063    3.2211  -15.3057 C   0  0  1  0  0  0  0  0  0  0  0  0
    9.6854    4.3061  -15.9655 O   0  0  0  0  0  0  0  0  0  0  0  0
   10.9408    3.9157  -16.3785 C   0  0  0  0  0  0  0  0  0  0  0  0
   11.2825    2.7364  -15.5002 C   0  0  0  0  0  0  0  0  0  0  0  0
   10.1582    2.4828  -14.7591 O   0  0  0  0  0  0  0  0  0  0  0  0
    8.4012    2.3974  -16.2732 C   0  0  0  0  0  0  0  0  0  0  0  0
    8.9425    2.4045  -17.4288 O   0  0  0  0  0  0  0  0  0  0  0  0
    7.2144    1.5583  -16.2404 C   0  0  0  0  0  0  0  0  0  0  0  0
    6.3044    1.4491  -15.2166 C   0  0  0  0  0  0  0  0  0  0  0  0
    5.1988    0.6093  -15.2934 C   0  0  0  0  0  0  0  0  0  0  0  0
    5.0146   -0.1305  -16.4269 C   0  0  0  0  0  0  0  0  0  0  0  0
    4.0829   -0.9889  -16.7727 O   0  0  0  0  0  0  0  0  0  0  0  0
    4.2913   -1.4785  -17.9684 C   0  0  0  0  0  0  0  0  0  0  0  0
    3.4265   -2.4853  -18.6819 C   0  0  0  0  0  0  0  0  0  0  0  0
    5.4487   -0.8938  -18.4378 C   0  0  0  0  0  0  0  0  0  0  0  0
    5.9254   -0.0259  -17.4602 C   0  0  0  0  0  0  0  0  0  0  0  0
    7.0216    0.8097  -17.3785 C   0  0  0  0  0  0  0  0  0  0  0  0
    6.3480    2.1602  -13.9472 C   0  0  0  0  0  0  0  0  0  0  0  0
    5.5975    1.7049  -13.0179 O   0  0  0  0  0  0  0  0  0  0  0  0
   11.1911    7.8779   -6.3669 C   0  0  0  0  0  0  0  0  0  0  0  0
   11.3253    8.9892   -7.2046 C   0  0  0  0  0  0  0  0  0  0  0  0
   10.9061    8.9804   -8.5171 C   0  0  0  0  0  0  0  0  0  0  0  0
   10.3275    7.8576   -9.0679 C   0  0  0  0  0  0  0  0  0  0  0  0
   10.1860    6.7511   -8.2583 C   0  0  0  0  0  0  0  0  0  0  0  0
    9.6035    5.6253   -8.8184 C   0  0  0  0  0  0  0  0  0  0  0  0
    9.1961    5.6198  -10.0974 N   0  0  0  0  0  0  0  0  0  0  0  0
    9.3424    6.7089  -10.8719 C   0  0  0  0  0  0  0  0  0  0  0  0
    8.9700    6.7595  -12.1054 N   0  0  0  0  0  0  0  0  0  0  0  0
    9.9055    7.8107  -10.3460 N   0  0  0  0  0  0  0  0  0  0  0  0
   10.0310    8.6761  -10.9322 H   0  0  0  0  0  0  0  0  0  0  0  0
   10.6095    6.7650   -6.9382 C   0  0  0  0  0  0  0  0  0  0  0  0
   12.4699    7.9306   -2.3774 C   0  0  0  0  0  0  0  0  0  0  0  0
   11.7673    6.8472   -2.8278 C   0  0  0  0  0  0  0  0  0  0  0  0
   11.3517    6.8545   -4.1651 C   0  0  0  0  0  0  0  0  0  0  0  0
   11.6383    7.9072   -4.9900 C   0  0  0  0  0  0  0  0  0  0  0  0
   12.3432    8.9736   -4.5040 C   0  0  0  0  0  0  0  0  0  0  0  0
   12.7757    9.0023   -3.1726 C   0  0  0  0  0  0  0  0  0  0  0  0
 38 39  2  0
 39 40  1  0
 40 41  2  0
 41 26  1  0
 26 27  2  0
 27 28  1  0
 28 29  2  0
 29 30  1  0
 30 31  1  0
 31 32  2  0
 32 33  1  0
 33 34  2  0
 34  1  1  0
  1  2  2  0
  2  3  1  0
  3  4  2  0
  4  5  1  0
  5  6  2  0
  5  7  1  0
  7  8  1  6
  8  9  1  0
  9 10  1  0
 10 11  1  0
  7 12  1  0
 12 13  2  0
 12 14  1  0
 14 15  2  0
 15 16  1  0
 16 17  2  0
 17 18  1  0
 18 19  1  0
 19 20  1  0
 19 21  2  0
 21 22  1  0
 22 23  2  0
 15 24  1  0
 24 25  2  0
 33 35  1  0
 35 36  1  0
 30 37  2  0
 41 42  1  0
 42 43  2  0
 43 38  1  0
 37 26  1  0
 35 29  1  0
  6  1  1  0
 11  7  1  0
 23 14  1  0
 24  4  1  0
 22 17  1  0
M  END
>  <minimizedAffinity>  (302) 
-17.12027

$$$$
Mol: 189_1 - SminaDock
     RDKit          3D

 43 50  0  0  0  0  0  0  0  0999 V2000
    8.5849    5.8226  -12.2948 C   0  0  0  0  0  0  0  0  0  0  0  0
    7.3497    5.4764  -11.7914 C   0  0  0  0  0  0  0  0  0  0  0  0
    6.6960    4.3743  -12.3089 C   0  0  0  0  0  0  0  0  0  0  0  0
    7.2363    3.6088  -13.3115 C   0  0  0  0  0  0  0  0  0  0  0  0
    8.4675    3.9348  -13.8291 C   0  0  0  0  0  0  0  0  0  0  0  0
    9.1225    5.0423  -13.3080 C   0  0  0  0  0  0  0  0  0  0  0  0
    9.1224    3.1749  -14.8932 C   0  0  1  0  0  0  0  0  0  0  0  0
    8.3045    2.0370  -15.3663 C   0  0  0  0  0  0  0  0  0  0  0  0
    8.7479    1.3171  -16.2963 O   0  0  0  0  0  0  0  0  0  0  0  0
    7.0217    1.7233  -14.8028 C   0  0  0  0  0  0  0  0  0  0  0  0
    6.4580    2.4693  -13.7909 C   0  0  0  0  0  0  0  0  0  0  0  0
    5.2909    1.9558  -13.4760 O   0  0  0  0  0  0  0  0  0  0  0  0
    4.9988    0.9090  -14.1914 C   0  0  0  0  0  0  0  0  0  0  0  0
    3.9242    0.0439  -14.2407 C   0  0  0  0  0  0  0  0  0  0  0  0
    3.8802   -1.0158  -15.1286 C   0  0  0  0  0  0  0  0  0  0  0  0
    4.9537   -1.1911  -15.9784 C   0  0  0  0  0  0  0  0  0  0  0  0
    6.0360   -0.3209  -15.9295 C   0  0  0  0  0  0  0  0  0  0  0  0
    6.0659    0.7256  -15.0440 C   0  0  0  0  0  0  0  0  0  0  0  0
    9.5591    4.0150  -15.9937 N   0  0  0  0  0  0  0  0  0  0  0  0
    9.0129    4.3583  -16.8056 H   0  0  0  0  0  0  0  0  0  0  0  0
   10.9303    4.2968  -15.7510 C   0  0  0  0  0  0  0  0  0  0  0  0
   11.6667    5.0693  -16.4435 O   0  0  0  0  0  0  0  0  0  0  0  0
   11.3791    3.5848  -14.6060 N   0  0  0  0  0  0  0  0  0  0  0  0
   12.2499    3.7608  -14.0349 H   0  0  0  0  0  0  0  0  0  0  0  0
   10.4151    2.5522  -14.3503 C   0  0  0  0  0  0  0  0  0  0  0  0
   11.3608    8.0108   -5.9806 C   0  0  0  0  0  0  0  0  0  0  0  0
   11.6750    9.0904   -6.8043 C   0  0  0  0  0  0  0  0  0  0  0  0
   11.3197    9.0935   -8.1363 C   0  0  0  0  0  0  0  0  0  0  0  0
   10.6459    8.0385   -8.6995 C   0  0  0  0  0  0  0  0  0  0  0  0
   10.3387    6.9684   -7.8673 C   0  0  0  0  0  0  0  0  0  0  0  0
    9.6691    5.9212   -8.4299 C   0  0  0  0  0  0  0  0  0  0  0  0
    9.3264    5.9319   -9.7292 N   0  0  0  0  0  0  0  0  0  0  0  0
    9.6214    6.9645  -10.5379 C   0  0  0  0  0  0  0  0  0  0  0  0
    9.2842    6.9556  -11.7799 N   0  0  0  0  0  0  0  0  0  0  0  0
   10.2814    8.0048   -9.9980 N   0  0  0  0  0  0  0  0  0  0  0  0
   10.5349    8.8330  -10.5844 H   0  0  0  0  0  0  0  0  0  0  0  0
   10.6868    6.9474   -6.5292 C   0  0  0  0  0  0  0  0  0  0  0  0
   12.4451    8.0053   -1.8497 C   0  0  0  0  0  0  0  0  0  0  0  0
   12.0665    6.8387   -2.4832 C   0  0  0  0  0  0  0  0  0  0  0  0
   11.7146    6.8397   -3.8227 C   0  0  0  0  0  0  0  0  0  0  0  0
   11.7264    7.9846   -4.5698 C   0  0  0  0  0  0  0  0  0  0  0  0
   12.1032    9.1575   -3.9476 C   0  0  0  0  0  0  0  0  0  0  0  0
   12.4552    9.1585   -2.6091 C   0  0  0  0  0  0  0  0  0  0  0  0
 38 39  2  0
 39 40  1  0
 40 41  2  0
 41 26  1  0
 26 27  2  0
 27 28  1  0
 28 29  2  0
 29 30  1  0
 30 31  1  0
 31 32  2  0
 32 33  1  0
 33 34  2  0
 34  1  1  0
  1  2  2  0
  2  3  1  0
  3  4  2  0
  4  5  1  0
  5  6  2  0
  5  7  1  0
  7  8  1  0
  8  9  2  0
  8 10  1  0
 10 11  2  0
 11 12  1  0
 12 13  1  0
 13 14  2  0
 14 15  1  0
 15 16  2  0
 16 17  1  0
 17 18  2  0
  7 19  1  0
 19 20  1  0
 19 21  1  0
 21 22  2  0
 21 23  1  0
 23 24  1  0
 23 25  1  0
 33 35  1  0
 35 36  1  0
 30 37  2  0
 41 42  1  0
 42 43  2  0
 43 38  1  0
 37 26  1  0
 35 29  1  0
  6  1  1  0
  7 25  1  1
 11  4  1  0
 18 13  1  0
 18 10  1  0
M  END
>  <minimizedAffinity>  (303) 
-17.06431

$$$$
Mol: 117_47 - SminaDock
     RDKit          3D

 39 45  0  0  0  0  0  0  0  0999 V2000
    7.7612    4.4946  -12.8107 C   0  0  0  0  0  0  0  0  0  0  0  0
    6.5912    4.1882  -12.1546 C   0  0  0  0  0  0  0  0  0  0  0  0
    5.8551    3.0787  -12.5127 C   0  0  0  0  0  0  0  0  0  0  0  0
    6.2435    2.2282  -13.5312 C   0  0  0  0  0  0  0  0  0  0  0  0
    7.4266    2.5430  -14.1904 C   0  0  0  0  0  0  0  0  0  0  0  0
    8.1637    3.6385  -13.8449 C   0  0  0  0  0  0  0  0  0  0  0  0
    7.9726    1.7459  -15.2883 C   0  0  2  0  0  0  0  0  0  0  0  0
    6.9399    1.8159  -16.4036 C   0  0  0  0  0  0  0  0  0  0  0  0
    5.8505    0.8464  -16.2123 C   0  0  0  0  0  0  0  0  0  0  0  0
    5.5552    0.1775  -17.3760 C   0  0  0  0  0  0  0  0  0  0  0  0
    4.5474   -0.7911  -17.4139 C   0  0  0  0  0  0  0  0  0  0  0  0
    3.8565   -1.0585  -16.2529 C   0  0  0  0  0  0  0  0  0  0  0  0
    4.1697   -0.3721  -15.0872 C   0  0  0  0  0  0  0  0  0  0  0  0
    5.1632    0.5839  -15.0465 C   0  0  0  0  0  0  0  0  0  0  0  0
    5.2577    1.1261  -13.6912 C   0  0  0  0  0  0  0  0  0  0  0  0
    8.1048    0.2615  -14.8712 C   0  0  0  0  0  0  0  0  0  0  0  0
    9.4245    0.1424  -14.2761 N   0  0  0  0  0  0  0  0  0  0  0  0
    9.9265   -0.7197  -14.6109 H   0  0  0  0  0  0  0  0  0  0  0  0
   10.1909    1.3010  -14.6707 C   0  0  0  0  0  0  0  0  0  0  0  0
    9.3464    1.9964  -15.7451 C   0  0  0  0  0  0  0  0  0  0  0  0
   10.9994    7.6083   -7.0947 C   0  0  0  0  0  0  0  0  0  0  0  0
   11.3043    8.5064   -8.0897 C   0  0  0  0  0  0  0  0  0  0  0  0
   10.8585    8.2833   -9.3973 C   0  0  0  0  0  0  0  0  0  0  0  0
   10.1109    7.1767   -9.7337 C   0  0  0  0  0  0  0  0  0  0  0  0
    9.7997    6.2684   -8.7389 C   0  0  0  0  0  0  0  0  0  0  0  0
    9.0512    5.1609   -9.0771 C   0  0  0  0  0  0  0  0  0  0  0  0
    8.6181    4.9320  -10.3166 N   0  0  0  0  0  0  0  0  0  0  0  0
    8.9410    5.8410  -11.2645 C   0  0  0  0  0  0  0  0  0  0  0  0
    8.5328    5.6338  -12.4552 N   0  0  0  0  0  0  0  0  0  0  0  0
    9.6667    6.9310  -10.9773 N   0  0  0  0  0  0  0  0  0  0  0  0
    9.9133    7.6311  -11.7158 H   0  0  0  0  0  0  0  0  0  0  0  0
   10.2467    6.5060   -7.4633 C   0  0  0  0  0  0  0  0  0  0  0  0
   12.4550    9.1542   -4.0514 C   0  0  0  0  0  0  0  0  0  0  0  0
   12.0315    8.9272   -5.3067 N   0  0  0  0  0  0  0  0  0  0  0  0
   11.4365    7.7824   -5.6998 C   0  0  0  0  0  0  0  0  0  0  0  0
   11.2669    6.8120   -4.7430 C   0  0  0  0  0  0  0  0  0  0  0  0
   11.6946    7.0146   -3.4314 C   0  0  0  0  0  0  0  0  0  0  0  0
   12.2963    8.1957   -3.0728 C   0  0  0  0  0  0  0  0  0  0  0  0
   12.7552    8.4108   -1.6611 C   0  0  0  0  0  0  0  0  0  0  0  0
 33 34  2  0
 34 35  1  0
 35 21  1  0
 21 22  2  0
 22 23  1  0
 23 24  2  0
 24 25  1  0
 25 26  1  0
 26 27  2  0
 27 28  1  0
 28 29  2  0
 29  1  1  0
  1  2  2  0
  2  3  1  0
  3  4  2  0
  4  5  1  0
  5  6  2  0
  5  7  1  0
  7  8  1  6
  8  9  1  0
  9 10  2  0
 10 11  1  0
 11 12  2  0
 12 13  1  0
 13 14  2  0
 14 15  1  0
  7 16  1  0
 16 17  1  0
 17 18  1  0
 17 19  1  0
 19 20  1  0
 28 30  1  0
 30 31  1  0
 25 32  2  0
 35 36  2  0
 36 37  1  0
 37 38  2  0
 38 39  1  0
 38 33  1  0
 32 21  1  0
 30 24  1  0
  6  1  1  0
 20  7  1  0
 15  4  1  0
 14  9  1  0
M  END
>  <minimizedAffinity>  (304) 
-17.08812

$$$$
Mol: 149_53 - SminaDock
     RDKit          3D

 40 46  0  0  0  0  0  0  0  0999 V2000
    2.6875   -2.3460  -17.4384 H   0  0  0  0  0  0  0  0  0  0  0  0
    3.5509   -1.8151  -17.5911 N   0  0  0  0  0  0  0  0  0  0  0  0
    4.1546   -1.1421  -16.6853 C   0  0  0  0  0  0  0  0  0  0  0  0
    5.4004   -0.3783  -16.9135 C   0  0  0  0  0  0  0  0  0  0  0  0
    5.4753    0.4460  -15.6831 C   0  0  0  0  0  0  0  0  0  0  0  0
    6.3177    1.4610  -15.3475 C   0  0  0  0  0  0  0  0  0  0  0  0
    6.1621    2.0711  -14.1072 C   0  0  0  0  0  0  0  0  0  0  0  0
    5.2170    1.7195  -13.1901 C   0  0  0  0  0  0  0  0  0  0  0  0
    4.3717    0.6763  -13.5687 C   0  0  0  0  0  0  0  0  0  0  0  0
    4.4850    0.0420  -14.7863 C   0  0  0  0  0  0  0  0  0  0  0  0
    3.7350   -1.0261  -15.3527 N   0  0  1  0  0  0  0  0  0  0  0  0
    2.7051   -0.8822  -15.2471 H   0  0  0  0  0  0  0  0  0  0  0  0
    4.0122   -1.9100  -14.8492 H   0  0  0  0  0  0  0  0  0  0  0  0
    6.9939    3.1752  -13.6492 C   0  0  0  0  0  0  0  0  0  0  0  0
    6.3059    4.0021  -12.8088 C   0  0  0  0  0  0  0  0  0  0  0  0
    7.0182    5.0896  -12.2878 C   0  0  0  0  0  0  0  0  0  0  0  0
    8.3385    5.3323  -12.5932 C   0  0  0  0  0  0  0  0  0  0  0  0
    9.0068    4.4734  -13.4525 C   0  0  0  0  0  0  0  0  0  0  0  0
    8.3449    3.3962  -13.9841 C   0  0  0  0  0  0  0  0  0  0  0  0
    9.0830    2.5881  -14.8387 O   0  0  0  0  0  0  0  0  0  0  0  0
    8.7482    1.6617  -15.8264 C   0  0  0  0  0  0  0  0  0  0  0  0
    7.3609    1.7733  -16.3915 C   0  0  0  0  0  0  0  0  0  0  0  0
    9.0583    6.4385  -12.0620 N   0  0  0  0  0  0  0  0  0  0  0  0
    9.4070    6.4787  -10.8282 C   0  0  0  0  0  0  0  0  0  0  0  0
    9.1130    5.4843   -9.9756 N   0  0  0  0  0  0  0  0  0  0  0  0
    9.4681    5.5093   -8.6826 C   0  0  0  0  0  0  0  0  0  0  0  0
   10.1724    6.5980   -8.1706 C   0  0  0  0  0  0  0  0  0  0  0  0
   10.5504    6.6550   -6.8518 C   0  0  0  0  0  0  0  0  0  0  0  0
   11.2480    7.7633   -6.4026 C   0  0  0  0  0  0  0  0  0  0  0  0
   11.5751    8.8216   -7.2573 C   0  0  0  0  0  0  0  0  0  0  0  0
   11.1714    8.7111   -8.5670 C   0  0  0  0  0  0  0  0  0  0  0  0
   10.4748    7.6161   -9.0384 C   0  0  0  0  0  0  0  0  0  0  0  0
   10.0849    7.5244  -10.3310 N   0  0  0  0  0  0  0  0  0  0  0  0
   10.3168    8.3039  -10.9885 H   0  0  0  0  0  0  0  0  0  0  0  0
   11.6664    7.8698   -5.0207 C   0  0  0  0  0  0  0  0  0  0  0  0
   12.3913    8.9498   -4.6022 C   0  0  0  0  0  0  0  0  0  0  0  0
   12.8045    9.0704   -3.2700 C   0  0  0  0  0  0  0  0  0  0  0  0
   12.4526    8.0606   -2.3997 C   0  0  0  0  0  0  0  0  0  0  0  0
   11.7239    6.9685   -2.8063 C   0  0  0  0  0  0  0  0  0  0  0  0
   11.3316    6.8819   -4.1336 C   0  0  0  0  0  0  0  0  0  0  0  0
  1  2  1  0
  2  3  2  0
  3  4  1  0
  4  5  1  0
  5  6  2  0
  6  7  1  0
  7  8  2  0
  8  9  1  0
  9 10  2  0
 10 11  1  0
 11 12  1  6
 11 13  1  0
  7 14  1  0
 14 15  2  0
 15 16  1  0
 16 17  2  0
 17 23  1  0
 23 24  2  0
 24 25  1  0
 25 26  2  0
 26 27  1  0
 27 28  2  0
 28 29  1  0
 29 35  1  0
 35 36  2  0
 36 37  1  0
 37 38  2  0
 38 39  1  0
 39 40  2  0
 29 30  2  0
 30 31  1  0
 31 32  2  0
 32 33  1  0
 33 34  1  0
 17 18  1  0
 18 19  2  0
 19 20  1  0
 20 21  1  0
 21 22  1  0
 11  3  1  0
 19 14  1  0
 10  5  1  0
 33 24  1  0
 22  6  1  0
 32 27  1  0
 40 35  1  0
M  CHG  1  11   1
M  END
>  <minimizedAffinity>  (305) 
-17.07008

$$$$
Mol: 149_48 - SminaDock
     RDKit          3D

 37 43  0  0  0  0  0  0  0  0999 V2000
    8.7305    5.9571  -12.3389 C   0  0  0  0  0  0  0  0  0  0  0  0
    9.4471    5.2086  -13.2397 C   0  0  0  0  0  0  0  0  0  0  0  0
    8.8700    4.0898  -13.8122 C   0  0  0  0  0  0  0  0  0  0  0  0
    7.5864    3.7216  -13.4873 C   0  0  0  0  0  0  0  0  0  0  0  0
    6.8669    4.4687  -12.5910 C   0  0  0  0  0  0  0  0  0  0  0  0
    7.4546    5.6073  -12.0060 C   0  0  0  0  0  0  0  0  0  0  0  0
    5.4553    4.1737  -12.2948 C   0  0  0  0  0  0  0  0  0  0  0  0
    5.0749    2.7625  -12.4458 C   0  0  0  0  0  0  0  0  0  0  0  0
    5.7765    2.0919  -13.5675 C   0  0  0  0  0  0  0  0  0  0  0  0
    5.1636    0.9517  -14.1332 C   0  0  0  0  0  0  0  0  0  0  0  0
    5.8221    0.2579  -15.1056 C   0  0  0  0  0  0  0  0  0  0  0  0
    7.0626    0.6554  -15.5341 C   0  0  0  0  0  0  0  0  0  0  0  0
    7.6889    1.7871  -14.9860 C   0  0  0  0  0  0  0  0  0  0  0  0
    7.0178    2.4756  -14.0124 C   0  0  0  0  0  0  0  0  0  0  0  0
    7.7239   -0.1199  -16.5726 C   0  0  0  0  0  0  0  0  0  0  0  0
    8.8677    0.2394  -16.9736 O   0  0  0  0  0  0  0  0  0  0  0  0
    7.0717   -1.2271  -17.0845 O   0  0  0  0  0  0  0  0  0  0  0  0
    5.6748   -1.2827  -17.0300 C   0  0  0  0  0  0  0  0  0  0  0  0
    5.1312   -0.9362  -15.6684 C   0  0  0  0  0  0  0  0  0  0  0  0
   11.3215    8.0668   -5.9800 C   0  0  0  0  0  0  0  0  0  0  0  0
   11.5874    9.1982   -6.7386 C   0  0  0  0  0  0  0  0  0  0  0  0
   11.2213    9.1763   -8.0627 C   0  0  0  0  0  0  0  0  0  0  0  0
   10.6110    8.0869   -8.6472 C   0  0  0  0  0  0  0  0  0  0  0  0
   10.3474    6.9693   -7.9018 C   0  0  0  0  0  0  0  0  0  0  0  0
    9.7405    5.8748   -8.4656 C   0  0  0  0  0  0  0  0  0  0  0  0
    9.4200    5.9514   -9.7728 N   0  0  0  0  0  0  0  0  0  0  0  0
    9.6716    7.0381  -10.5150 C   0  0  0  0  0  0  0  0  0  0  0  0
    9.3696    7.1191  -11.7601 N   0  0  0  0  0  0  0  0  0  0  0  0
   10.2656    8.0949   -9.9408 N   0  0  0  0  0  0  0  0  0  0  0  0
   10.4684    8.9592  -10.5208 H   0  0  0  0  0  0  0  0  0  0  0  0
   10.7138    6.9803   -6.5594 C   0  0  0  0  0  0  0  0  0  0  0  0
   12.3521    7.9061   -1.9390 C   0  0  0  0  0  0  0  0  0  0  0  0
   12.3488    9.1223   -2.5962 C   0  0  0  0  0  0  0  0  0  0  0  0
   12.0110    9.1953   -3.9316 C   0  0  0  0  0  0  0  0  0  0  0  0
   11.6823    8.0209   -4.5708 C   0  0  0  0  0  0  0  0  0  0  0  0
   11.6800    6.8028   -3.9343 C   0  0  0  0  0  0  0  0  0  0  0  0
   12.0225    6.7517   -2.5922 C   0  0  0  0  0  0  0  0  0  0  0  0
 32 33  2  0
 33 34  1  0
 34 35  2  0
 35 20  1  0
 20 21  2  0
 21 22  1  0
 22 23  2  0
 23 24  1  0
 24 25  1  0
 25 26  2  0
 26 27  1  0
 27 28  2  0
 28  1  1  0
  1  2  2  0
  2  3  1  0
  3  4  2  0
  4  5  1  0
  5  6  2  0
  5  7  1  0
  7  8  1  0
  8  9  1  0
  9 10  2  0
 10 11  1  0
 11 12  2  0
 12 13  1  0
 13 14  2  0
 12 15  1  0
 15 16  2  0
 15 17  1  0
 17 18  1  0
 18 19  1  0
 27 29  1  0
 29 30  1  0
 24 31  2  0
 35 36  1  0
 36 37  2  0
 37 32  1  0
 31 20  1  0
 29 23  1  0
  6  1  1  0
 14  9  1  0
 14  4  1  0
 19 11  1  0
M  END
>  <minimizedAffinity>  (306) 
-17.10432

$$$$
Mol: 149_25 - SminaDock
     RDKit          3D

 38 44  0  0  0  0  0  0  0  0999 V2000
    6.9007   -2.3243  -16.3204 H   0  0  0  0  0  0  0  0  0  0  0  0
    6.0810   -1.8270  -16.6362 O   0  0  0  0  0  0  0  0  0  0  0  0
    5.3468   -1.0760  -15.7240 C   0  0  0  0  0  0  0  0  0  0  0  0
    4.1069   -1.4592  -15.3827 N   0  0  0  0  0  0  0  0  0  0  0  0
    3.4342   -0.7270  -14.5147 N   0  0  0  0  0  0  0  0  0  0  0  0
    3.9242    0.3956  -13.9441 C   0  0  0  0  0  0  0  0  0  0  0  0
    5.1945    0.7783  -14.3014 C   0  0  0  0  0  0  0  0  0  0  0  0
    5.7797    1.9487  -13.7380 C   0  0  0  0  0  0  0  0  0  0  0  0
    7.0471    2.3330  -14.0874 C   0  0  0  0  0  0  0  0  0  0  0  0
    7.7769    1.5700  -15.0051 C   0  0  0  0  0  0  0  0  0  0  0  0
    7.2206    0.4396  -15.5533 C   0  0  0  0  0  0  0  0  0  0  0  0
    5.9534    0.0690  -15.1954 C   0  0  0  0  0  0  0  0  0  0  0  0
    7.6201    3.5814  -13.5247 C   0  0  0  0  0  0  0  0  0  0  0  0
    8.9041    3.9059  -13.8363 C   0  0  0  0  0  0  0  0  0  0  0  0
    9.4754    5.0495  -13.2586 C   0  0  0  0  0  0  0  0  0  0  0  0
    8.7176    5.8056  -12.3955 C   0  0  0  0  0  0  0  0  0  0  0  0
    7.4249    5.4582  -12.0979 C   0  0  0  0  0  0  0  0  0  0  0  0
    6.8374    4.3155  -12.6695 C   0  0  0  0  0  0  0  0  0  0  0  0
    5.4363    3.9990  -12.3794 C   0  0  0  0  0  0  0  0  0  0  0  0
    4.9976    2.6765  -12.7595 C   0  0  0  0  0  0  0  0  0  0  0  0
    9.2441    6.9727  -11.7802 N   0  0  0  0  0  0  0  0  0  0  0  0
    9.5922    6.9485  -10.5492 C   0  0  0  0  0  0  0  0  0  0  0  0
    9.4618    5.8311   -9.8435 N   0  0  0  0  0  0  0  0  0  0  0  0
    9.8298    5.7931   -8.5289 C   0  0  0  0  0  0  0  0  0  0  0  0
   10.3428    6.9106   -7.9079 C   0  0  0  0  0  0  0  0  0  0  0  0
   10.7374    6.9563   -6.5876 C   0  0  0  0  0  0  0  0  0  0  0  0
   11.2500    8.0924   -5.9878 C   0  0  0  0  0  0  0  0  0  0  0  0
   11.3560    9.2123   -6.7802 C   0  0  0  0  0  0  0  0  0  0  0  0
   10.9719    9.2057   -8.1048 C   0  0  0  0  0  0  0  0  0  0  0  0
   10.4659    8.0600   -8.6717 C   0  0  0  0  0  0  0  0  0  0  0  0
   10.0846    8.0404   -9.9734 N   0  0  0  0  0  0  0  0  0  0  0  0
   10.1937    8.9303  -10.5167 H   0  0  0  0  0  0  0  0  0  0  0  0
   11.6464    8.0625   -4.5852 C   0  0  0  0  0  0  0  0  0  0  0  0
   11.6617    6.8837   -3.8696 C   0  0  0  0  0  0  0  0  0  0  0  0
   12.0314    6.8182   -2.5382 C   0  0  0  0  0  0  0  0  0  0  0  0
   12.4049    7.9606   -1.8720 C   0  0  0  0  0  0  0  0  0  0  0  0
   12.3926    9.1539   -2.5850 C   0  0  0  0  0  0  0  0  0  0  0  0
   12.0238    9.2142   -3.9102 C   0  0  0  0  0  0  0  0  0  0  0  0
  1  2  1  0
  2  3  1  0
  3  4  2  0
  4  5  1  0
  5  6  2  0
  6  7  1  0
  7  8  2  0
  8  9  1  0
  9 10  2  0
 10 11  1  0
 11 12  2  0
  9 13  1  0
 13 14  2  0
 14 15  1  0
 15 16  2  0
 16 21  1  0
 21 22  2  0
 22 23  1  0
 23 24  2  0
 24 25  1  0
 25 26  2  0
 26 27  1  0
 27 33  1  0
 33 34  2  0
 34 35  1  0
 35 36  2  0
 36 37  1  0
 37 38  2  0
 27 28  2  0
 28 29  1  0
 29 30  2  0
 30 31  1  0
 31 32  1  0
 16 17  1  0
 17 18  2  0
 18 19  1  0
 19 20  1  0
 12  3  1  0
 18 13  1  0
 12  7  1  0
 31 22  1  0
 20  8  1  0
 30 25  1  0
 38 33  1  0
M  END
>  <minimizedAffinity>  (307) 
-17.10444

$$$$
Mol: 149_39 - SminaDock
     RDKit          3D

 38 44  0  0  0  0  0  0  0  0999 V2000
    8.9706    6.1862  -12.3804 C   0  0  0  0  0  0  0  0  0  0  0  0
    9.7990    5.5632  -13.3208 C   0  0  0  0  0  0  0  0  0  0  0  0
    9.2912    4.5117  -14.0549 C   0  0  0  0  0  0  0  0  0  0  0  0
    7.9761    4.0607  -13.8786 C   0  0  0  0  0  0  0  0  0  0  0  0
    7.1985    4.7032  -12.9430 C   0  0  0  0  0  0  0  0  0  0  0  0
    7.6750    5.7508  -12.1985 C   0  0  0  0  0  0  0  0  0  0  0  0
    5.7781    4.3386  -12.6363 C   0  0  0  0  0  0  0  0  0  0  0  0
    5.7513    2.8982  -12.1743 C   0  0  0  0  0  0  0  0  0  0  0  0
    5.7217    2.0609  -13.4028 C   0  0  0  0  0  0  0  0  0  0  0  0
    6.5590    2.1049  -14.4724 C   0  0  0  0  0  0  0  0  0  0  0  0
    6.3626    1.2352  -15.5244 C   0  0  0  0  0  0  0  0  0  0  0  0
    5.3266    0.3231  -15.5013 C   0  0  0  0  0  0  0  0  0  0  0  0
    4.4759    0.2801  -14.4119 C   0  0  0  0  0  0  0  0  0  0  0  0
    4.6893    1.1571  -13.3721 C   0  0  0  0  0  0  0  0  0  0  0  0
    3.5338   -0.7103  -14.6346 C   0  0  0  0  0  0  0  0  0  0  0  0
    2.6014   -1.0165  -13.8335 O   0  0  0  0  0  0  0  0  0  0  0  0
    3.8344   -1.2302  -15.8307 N   0  0  0  0  0  0  0  0  0  0  0  0
    4.8884   -0.6287  -16.3494 N   0  0  0  0  0  0  0  0  0  0  0  0
    5.4867   -0.9447  -17.6399 C   0  0  0  0  0  0  0  0  0  0  0  0
    7.7395    2.9513  -14.7892 C   0  0  0  0  0  0  0  0  0  0  0  0
   11.3472    8.1060   -5.7206 C   0  0  0  0  0  0  0  0  0  0  0  0
   11.5161    9.2568   -6.4531 C   0  0  0  0  0  0  0  0  0  0  0  0
   11.1796    9.3235   -7.7979 C   0  0  0  0  0  0  0  0  0  0  0  0
   10.6644    8.2267   -8.4324 C   0  0  0  0  0  0  0  0  0  0  0  0
   10.3176    8.2219   -9.7314 N   0  0  0  0  0  0  0  0  0  0  0  0
    9.8099    7.1591  -10.3784 C   0  0  0  0  0  0  0  0  0  0  0  0
    9.5110    7.2674  -11.6322 N   0  0  0  0  0  0  0  0  0  0  0  0
    9.6390    6.0258   -9.6742 N   0  0  0  0  0  0  0  0  0  0  0  0
    9.2501    5.1808  -10.1324 H   0  0  0  0  0  0  0  0  0  0  0  0
    9.9693    5.9703   -8.3653 C   0  0  0  0  0  0  0  0  0  0  0  0
   10.4932    7.0701   -7.7018 C   0  0  0  0  0  0  0  0  0  0  0  0
   10.8292    7.0012   -6.3557 C   0  0  0  0  0  0  0  0  0  0  0  0
   12.4511    8.1117   -1.5923 C   0  0  0  0  0  0  0  0  0  0  0  0
   12.1631    6.9291   -2.2410 C   0  0  0  0  0  0  0  0  0  0  0  0
   11.8069    6.9490   -3.5808 C   0  0  0  0  0  0  0  0  0  0  0  0
   11.7230    8.1124   -4.3164 C   0  0  0  0  0  0  0  0  0  0  0  0
   12.0166    9.2971   -3.6474 C   0  0  0  0  0  0  0  0  0  0  0  0
   12.3728    9.2863   -2.3108 C   0  0  0  0  0  0  0  0  0  0  0  0
 33 34  2  0
 34 35  1  0
 35 36  2  0
 36 21  1  0
 21 22  1  0
 22 23  2  0
 23 24  1  0
 24 25  2  0
 25 26  1  0
 26 27  2  0
 27  1  1  0
  1  2  2  0
  2  3  1  0
  3  4  2  0
  4  5  1  0
  5  6  2  0
  5  7  1  0
  7  8  1  0
  8  9  1  0
  9 10  2  0
 10 11  1  0
 11 12  2  0
 12 13  1  0
 13 14  2  0
 13 15  1  0
 15 16  2  0
 15 17  1  0
 17 18  1  0
 18 19  1  0
 10 20  1  0
 26 28  1  0
 28 29  1  0
 28 30  1  0
 30 31  2  0
 31 32  1  0
 36 37  1  0
 37 38  2  0
 38 33  1  0
 32 21  2  0
 31 24  1  0
  6  1  1  0
 14  9  1  0
 20  4  1  0
 18 12  1  0
M  CHG  1  17  -1
M  END
>  <minimizedAffinity>  (308) 
-17.05495

$$$$
Mol: 169_17 - SminaDock
     RDKit          3D

 40 46  0  0  0  0  0  0  0  0999 V2000
    4.0299   -2.6103  -16.1801 H   0  0  0  0  0  0  0  0  0  0  0  0
    4.1675   -1.5934  -16.0785 O   0  0  0  0  0  0  0  0  0  0  0  0
    5.3670   -1.0292  -16.5489 C   0  0  0  0  0  0  0  0  0  0  0  0
    5.9016   -1.5616  -17.5879 N   0  0  0  0  0  0  0  0  0  0  0  0
    5.2627   -2.7209  -18.2459 C   0  0  0  0  0  0  0  0  0  0  0  0
    7.1358   -1.0407  -18.1351 C   0  0  0  0  0  0  0  0  0  0  0  0
    7.6740    0.0780  -17.4298 N   0  0  0  0  0  0  0  0  0  0  0  0
    8.9301    0.6470  -17.9433 C   0  0  0  0  0  0  0  0  0  0  0  0
    7.0747    0.6588  -16.2826 C   0  0  0  0  0  0  0  0  0  0  0  0
    7.5964    1.7411  -15.6044 C   0  0  0  0  0  0  0  0  0  0  0  0
    6.9626    2.2754  -14.4767 C   0  0  0  0  0  0  0  0  0  0  0  0
    5.7922    1.7239  -14.0134 C   0  0  0  0  0  0  0  0  0  0  0  0
    5.2751    0.6332  -14.7073 C   0  0  0  0  0  0  0  0  0  0  0  0
    5.9020    0.1144  -15.8152 C   0  0  0  0  0  0  0  0  0  0  0  0
    5.1191    2.2052  -12.7921 C   0  0  0  0  0  0  0  0  0  0  0  0
    5.4736    3.5548  -12.3265 C   0  0  0  0  0  0  0  0  0  0  0  0
    6.8064    4.0386  -12.7302 C   0  0  0  0  0  0  0  0  0  0  0  0
    7.3357    5.1385  -12.0342 C   0  0  0  0  0  0  0  0  0  0  0  0
    8.5295    5.6518  -12.4215 C   0  0  0  0  0  0  0  0  0  0  0  0
    9.1766    5.0735  -13.4832 C   0  0  0  0  0  0  0  0  0  0  0  0
    8.6771    3.9808  -14.1926 C   0  0  0  0  0  0  0  0  0  0  0  0
    7.4632    3.4640  -13.7919 C   0  0  0  0  0  0  0  0  0  0  0  0
    9.1523    6.7672  -11.7824 N   0  0  0  0  0  0  0  0  0  0  0  0
    9.4995    6.7716  -10.5598 C   0  0  0  0  0  0  0  0  0  0  0  0
    9.2971    5.6985   -9.7704 N   0  0  0  0  0  0  0  0  0  0  0  0
    9.6635    5.7043   -8.4766 C   0  0  0  0  0  0  0  0  0  0  0  0
   10.2602    6.8103   -7.9113 C   0  0  0  0  0  0  0  0  0  0  0  0
   10.6523    6.8645   -6.5929 C   0  0  0  0  0  0  0  0  0  0  0  0
   11.2482    7.9744   -6.0342 C   0  0  0  0  0  0  0  0  0  0  0  0
   11.4434    9.0572   -6.8628 C   0  0  0  0  0  0  0  0  0  0  0  0
   11.0625    9.0349   -8.1864 C   0  0  0  0  0  0  0  0  0  0  0  0
   10.4706    7.9131   -8.7141 C   0  0  0  0  0  0  0  0  0  0  0  0
   10.0806    7.8516  -10.0132 N   0  0  0  0  0  0  0  0  0  0  0  0
   10.2542    8.7077  -10.5999 H   0  0  0  0  0  0  0  0  0  0  0  0
   11.6585    8.0160   -4.6344 C   0  0  0  0  0  0  0  0  0  0  0  0
   11.7002    6.8567   -3.8574 C   0  0  0  0  0  0  0  0  0  0  0  0
   12.0857    6.8837   -2.5336 C   0  0  0  0  0  0  0  0  0  0  0  0
   12.4481    8.0813   -1.9285 C   0  0  0  0  0  0  0  0  0  0  0  0
   12.4141    9.2374   -2.6771 C   0  0  0  0  0  0  0  0  0  0  0  0
   12.0245    9.1897   -4.0039 C   0  0  0  0  0  0  0  0  0  0  0  0
  1  2  1  0
  2  3  1  0
  3  4  2  0
  4  5  1  0
  4  6  1  0
  6  7  1  0
  7  8  1  0
  7  9  1  0
  9 10  2  0
 10 11  1  0
 11 12  2  0
 12 13  1  0
 13 14  2  0
 12 15  1  0
 15 16  1  0
 16 17  1  0
 17 18  2  0
 18 19  1  0
 19 23  1  0
 23 24  2  0
 24 25  1  0
 25 26  2  0
 26 27  1  0
 27 28  2  0
 28 29  1  0
 29 35  1  0
 35 36  2  0
 36 37  1  0
 37 38  2  0
 38 39  1  0
 39 40  2  0
 29 30  2  0
 30 31  1  0
 31 32  2  0
 32 33  1  0
 33 34  1  0
 19 20  2  0
 20 21  1  0
 21 22  2  0
 14  3  1  0
 22 17  1  0
 14  9  1  0
 33 24  1  0
 22 11  1  0
 32 27  1  0
 40 35  1  0
M  CHG  1   4   1
M  END
>  <minimizedAffinity>  (309) 
-17.10747

$$$$
Mol: 127_12 - SminaDock
     RDKit          3D

 47 54  0  0  0  0  0  0  0  0999 V2000
    6.3711    3.6380  -12.8148 H   0  0  0  0  0  0  0  0  0  0  0  0
    7.3546    3.7712  -12.8198 O   0  0  0  0  0  0  0  0  0  0  0  0
    8.1748    3.9469  -13.8995 C   0  0  0  0  0  0  0  0  0  0  0  0
    8.1107    3.1115  -14.9182 C   0  0  0  0  0  0  0  0  0  0  0  0
    8.9374    3.2821  -16.0143 C   0  0  0  0  0  0  0  0  0  0  0  0
    8.8537    2.4106  -17.0524 C   0  0  0  0  0  0  0  0  0  0  0  0
    7.9645    1.3793  -17.0129 C   0  0  0  0  0  0  0  0  0  0  0  0
    7.0942    1.1391  -15.9361 C   0  0  0  0  0  0  0  0  0  0  0  0
    7.2011    2.0372  -14.9033 C   0  0  0  0  0  0  0  0  0  0  0  0
    6.1022    0.1216  -15.6944 C   0  0  1  0  0  0  0  0  0  0  0  0
    6.5146   -1.2794  -16.2037 C   0  0  0  0  0  0  0  0  0  0  0  0
    6.5767   -1.3834  -17.6562 C   0  0  0  0  0  0  0  0  0  0  0  0
    5.8794   -2.4811  -18.1720 C   0  0  0  0  0  0  0  0  0  0  0  0
    5.8941   -2.6535  -19.5263 C   0  0  0  0  0  0  0  0  0  0  0  0
    6.5539   -1.8027  -20.3516 N   0  0  0  0  0  0  0  0  0  0  0  0
    7.2353   -0.7364  -19.8932 C   0  0  0  0  0  0  0  0  0  0  0  0
    7.2358   -0.5390  -18.5209 C   0  0  0  0  0  0  0  0  0  0  0  0
    7.9906    0.6394  -18.1175 C   0  0  0  0  0  0  0  0  0  0  0  0
    5.8537   -0.1317  -14.2471 C   0  0  0  0  0  0  0  0  0  0  0  0
    4.5466    0.3555  -13.7187 C   0  0  0  0  0  0  0  0  0  0  0  0
    3.3642   -0.2036  -14.4895 C   0  0  2  0  0  0  0  0  0  0  0  0
    2.8798   -1.3849  -13.9267 O   0  0  0  0  0  0  0  0  0  0  0  0
    3.3627   -1.4889  -13.0523 H   0  0  0  0  0  0  0  0  0  0  0  0
    3.6760   -0.4600  -15.9241 C   0  0  0  0  0  0  0  0  0  0  0  0
    4.8062    0.3767  -16.4632 C   0  0  0  0  0  0  0  0  0  0  0  0
    9.0780    5.0432  -13.8755 N   0  0  0  0  0  0  0  0  0  0  0  0
    9.4672    5.5995  -12.7793 C   0  0  0  0  0  0  0  0  0  0  0  0
   10.3186    6.6278  -12.8253 N   0  0  0  0  0  0  0  0  0  0  0  0
   10.7702    7.2620  -11.7083 C   0  0  0  0  0  0  0  0  0  0  0  0
   10.3333    6.8288  -10.4699 C   0  0  0  0  0  0  0  0  0  0  0  0
   10.7459    7.4216   -9.2946 C   0  0  0  0  0  0  0  0  0  0  0  0
   10.3027    6.9825   -8.0510 C   0  0  0  0  0  0  0  0  0  0  0  0
    9.4273    5.9236   -8.0204 C   0  0  0  0  0  0  0  0  0  0  0  0
    9.0201    5.3376   -9.1949 C   0  0  0  0  0  0  0  0  0  0  0  0
    9.4554    5.7678  -10.4323 C   0  0  0  0  0  0  0  0  0  0  0  0
    9.0398    5.1749  -11.5790 N   0  0  0  0  0  0  0  0  0  0  0  0
    8.3764    4.3762  -11.5121 H   0  0  0  0  0  0  0  0  0  0  0  0
   10.7474    7.6212   -6.8197 C   0  0  0  0  0  0  0  0  0  0  0  0
   10.8366    8.9974   -6.7186 C   0  0  0  0  0  0  0  0  0  0  0  0
   11.2513    9.5638   -5.5683 N   0  0  0  0  0  0  0  0  0  0  0  0
   11.5866    8.8292   -4.4992 C   0  0  0  0  0  0  0  0  0  0  0  0
   12.0077    9.4601   -3.3369 C   0  0  0  0  0  0  0  0  0  0  0  0
   12.3483    8.6880   -2.2469 C   0  0  0  0  0  0  0  0  0  0  0  0
   12.2664    7.3198   -2.3277 C   0  0  0  0  0  0  0  0  0  0  0  0
   11.8524    6.7094   -3.4716 C   0  0  0  0  0  0  0  0  0  0  0  0
   11.5066    7.4637   -4.5743 C   0  0  0  0  0  0  0  0  0  0  0  0
   11.0850    6.8507   -5.7392 C   0  0  0  0  0  0  0  0  0  0  0  0
  1  2  1  0
  2  3  1  0
  3 26  1  0
 26 27  2  0
 27 28  1  0
 28 29  2  0
 29 30  1  0
 30 31  2  0
 31 32  1  0
 32 38  1  0
 38 39  2  0
 39 40  1  0
 40 41  2  0
 41 42  1  0
 42 43  2  0
 43 44  1  0
 44 45  2  0
 45 46  1  0
 46 47  2  0
 32 33  2  0
 33 34  1  0
 34 35  2  0
 35 36  1  0
 36 37  1  0
  3  4  2  0
  4  5  1  0
  5  6  2  0
  6  7  1  0
  7  8  1  0
  8  9  2  0
  8 10  1  0
 10 11  1  6
 11 12  1  0
 12 13  2  0
 13 14  1  0
 14 15  2  0
 15 16  1  0
 16 17  2  0
 17 18  1  0
 10 19  1  0
 19 20  1  0
 20 21  1  0
 21 22  1  1
 22 23  1  0
 21 24  1  0
 24 25  1  0
 36 27  1  0
  9  4  1  0
 25 10  1  0
 35 30  1  0
 18  7  2  0
 47 38  1  0
 17 12  1  0
 46 41  1  0
M  END
>  <minimizedAffinity>  (310) 
-17.09697

$$$$
Mol: 185_61 - SminaDock
     RDKit          3D

 37 43  0  0  0  0  0  0  0  0999 V2000
    8.6108    5.7819  -12.3841 C   0  0  0  0  0  0  0  0  0  0  0  0
    9.2243    5.2274  -13.4932 C   0  0  0  0  0  0  0  0  0  0  0  0
    8.6896    4.1133  -14.1027 C   0  0  0  0  0  0  0  0  0  0  0  0
    7.5353    3.5056  -13.6451 C   0  0  0  0  0  0  0  0  0  0  0  0
    6.9341    4.0636  -12.5440 C   0  0  0  0  0  0  0  0  0  0  0  0
    7.4707    5.1965  -11.9177 C   0  0  0  0  0  0  0  0  0  0  0  0
    5.7329    3.2449  -12.2519 C   0  0  0  0  0  0  0  0  0  0  0  0
    5.7447    2.1958  -13.2981 C   0  0  0  0  0  0  0  0  0  0  0  0
    6.8172    2.3404  -14.1375 C   0  0  0  0  0  0  0  0  0  0  0  0
    7.0025    1.4507  -15.1853 C   0  0  0  0  0  0  0  0  0  0  0  0
    6.1439    0.4070  -15.4294 C   0  0  0  0  0  0  0  0  0  0  0  0
    6.3191   -0.4828  -16.4685 C   0  0  0  0  0  0  0  0  0  0  0  0
    5.3896   -1.4943  -16.6165 C   0  0  0  0  0  0  0  0  0  0  0  0
    4.3400   -1.6347  -15.7940 N   0  0  0  0  0  0  0  0  0  0  0  0
    3.6552   -2.4205  -15.9432 H   0  0  0  0  0  0  0  0  0  0  0  0
    4.1744   -0.7767  -14.7951 C   0  0  0  0  0  0  0  0  0  0  0  0
    3.1900   -0.9072  -14.0223 O   0  0  0  0  0  0  0  0  0  0  0  0
    5.0698    0.2774  -14.5738 C   0  0  0  0  0  0  0  0  0  0  0  0
    4.8518    1.1401  -13.5226 C   0  0  0  0  0  0  0  0  0  0  0  0
   11.2188    7.9101   -5.9952 C   0  0  0  0  0  0  0  0  0  0  0  0
   11.3903    9.0411   -6.7775 C   0  0  0  0  0  0  0  0  0  0  0  0
   11.0119    9.0651   -8.1090 C   0  0  0  0  0  0  0  0  0  0  0  0
   10.4552    7.9265   -8.6437 C   0  0  0  0  0  0  0  0  0  0  0  0
   10.2758    6.7875   -7.8790 C   0  0  0  0  0  0  0  0  0  0  0  0
    9.7129    5.6953   -8.4901 C   0  0  0  0  0  0  0  0  0  0  0  0
    9.3535    5.7434   -9.7843 N   0  0  0  0  0  0  0  0  0  0  0  0
    9.5267    6.8531  -10.5349 C   0  0  0  0  0  0  0  0  0  0  0  0
    9.1943    6.9368  -11.7786 N   0  0  0  0  0  0  0  0  0  0  0  0
   10.0762    7.9304   -9.9516 N   0  0  0  0  0  0  0  0  0  0  0  0
   10.2138    8.8007  -10.5335 H   0  0  0  0  0  0  0  0  0  0  0  0
   10.6592    6.7794   -6.5497 C   0  0  0  0  0  0  0  0  0  0  0  0
   12.4769    8.0980   -1.9026 C   0  0  0  0  0  0  0  0  0  0  0  0
   12.4169    9.2390   -2.6731 C   0  0  0  0  0  0  0  0  0  0  0  0
   12.0074    9.1688   -4.0008 C   0  0  0  0  0  0  0  0  0  0  0  0
   11.6489    7.9783   -4.5987 C   0  0  0  0  0  0  0  0  0  0  0  0
   11.7111    6.8364   -3.8211 C   0  0  0  0  0  0  0  0  0  0  0  0
   12.1204    6.9039   -2.4922 C   0  0  0  0  0  0  0  0  0  0  0  0
 32 33  2  0
 33 34  1  0
 34 35  2  0
 35 20  1  0
 20 21  2  0
 21 22  1  0
 22 23  2  0
 23 24  1  0
 24 25  1  0
 25 26  2  0
 26 27  1  0
 27 28  2  0
 28  1  1  0
  1  2  2  0
  2  3  1  0
  3  4  2  0
  4  5  1  0
  5  6  2  0
  5  7  1  0
  7  8  1  0
  8  9  2  0
  9 10  1  0
 10 11  2  0
 11 12  1  0
 12 13  2  0
 13 14  1  0
 14 15  1  0
 14 16  1  0
 16 17  2  0
 16 18  1  0
 18 19  2  0
 27 29  1  0
 29 30  1  0
 24 31  2  0
 35 36  1  0
 36 37  2  0
 37 32  1  0
 31 20  1  0
 29 23  1  0
  6  1  1  0
 19  8  1  0
  9  4  1  0
 18 11  1  0
M  END
>  <minimizedAffinity>  (311) 
-17.13798

$$$$
Mol: 185_47 - SminaDock
     RDKit          3D

 42 49  0  0  0  0  0  0  0  0999 V2000
    6.7494   -2.3540  -19.5897 H   0  0  0  0  0  0  0  0  0  0  0  0
    7.1251   -2.3557  -18.6502 O   0  0  0  0  0  0  0  0  0  0  0  0
    6.5647   -1.5512  -17.6670 C   0  0  0  0  0  0  0  0  0  0  0  0
    7.2661   -0.5717  -17.1193 N   0  0  0  0  0  0  0  0  0  0  0  0
    6.7842    0.2346  -16.1714 C   0  0  0  0  0  0  0  0  0  0  0  0
    7.3201    1.3045  -15.4727 C   0  0  0  0  0  0  0  0  0  0  0  0
    6.3342    1.7357  -14.6311 C   0  0  0  0  0  0  0  0  0  0  0  0
    5.2336    0.9622  -14.8014 N   0  0  0  0  0  0  0  0  0  0  0  0
    4.3187    1.0583  -14.2880 H   0  0  0  0  0  0  0  0  0  0  0  0
    5.5109    0.0511  -15.7385 C   0  0  0  0  0  0  0  0  0  0  0  0
    4.7578   -0.9511  -16.2821 N   0  0  0  0  0  0  0  0  0  0  0  0
    5.2706   -1.7441  -17.2323 C   0  0  0  0  0  0  0  0  0  0  0  0
    6.8144    2.8874  -13.8640 C   0  0  0  0  0  0  0  0  0  0  0  0
    6.1548    3.6642  -12.8930 C   0  0  0  0  0  0  0  0  0  0  0  0
    6.8604    4.7180  -12.3336 C   0  0  0  0  0  0  0  0  0  0  0  0
    8.1563    5.0090  -12.7005 C   0  0  0  0  0  0  0  0  0  0  0  0
    8.7593    4.2178  -13.6565 C   0  0  0  0  0  0  0  0  0  0  0  0
    8.0845    3.1437  -14.2475 C   0  0  0  0  0  0  0  0  0  0  0  0
    8.4991    2.1428  -15.2748 C   0  0  1  0  0  0  0  0  0  0  0  0
    9.6153    1.3736  -14.6543 C   0  0  0  0  0  0  0  0  0  0  0  0
   10.3612    0.5548  -15.6537 C   0  0  0  0  0  0  0  0  0  0  0  0
   10.8890    1.4539  -16.7433 C   0  0  0  0  0  0  0  0  0  0  0  0
    9.7664    2.1778  -17.4555 C   0  0  0  0  0  0  0  0  0  0  0  0
    8.8735    2.9112  -16.5244 C   0  0  0  0  0  0  0  0  0  0  0  0
    8.8106    6.0888  -12.0950 N   0  0  0  0  0  0  0  0  0  0  0  0
    9.1960    6.1540  -10.8814 C   0  0  0  0  0  0  0  0  0  0  0  0
    8.9860    5.1002  -10.0153 C   0  0  0  0  0  0  0  0  0  0  0  0
    9.4362    5.2587   -8.7204 C   0  0  0  0  0  0  0  0  0  0  0  0
   10.0672    6.4139   -8.3059 C   0  0  0  0  0  0  0  0  0  0  0  0
   10.5194    6.5689   -6.9981 C   0  0  0  0  0  0  0  0  0  0  0  0
   11.1497    7.7210   -6.5801 C   0  0  0  0  0  0  0  0  0  0  0  0
   11.3355    8.7451   -7.4843 C   0  0  0  0  0  0  0  0  0  0  0  0
   10.8897    8.6064   -8.7944 C   0  0  0  0  0  0  0  0  0  0  0  0
   10.2576    7.4444   -9.2039 C   0  0  0  0  0  0  0  0  0  0  0  0
    9.8132    7.2728  -10.4594 N   0  0  0  0  0  0  0  0  0  0  0  0
    9.9796    8.0877  -11.1156 H   0  0  0  0  0  0  0  0  0  0  0  0
   11.6381    7.9146   -5.2085 C   0  0  0  0  0  0  0  0  0  0  0  0
   11.3997    6.9020   -4.2975 C   0  0  0  0  0  0  0  0  0  0  0  0
   11.8311    7.0195   -2.9940 C   0  0  0  0  0  0  0  0  0  0  0  0
   12.5090    8.1436   -2.5626 C   0  0  0  0  0  0  0  0  0  0  0  0
   12.7252    9.1284   -3.5036 C   0  0  0  0  0  0  0  0  0  0  0  0
   12.3038    9.0344   -4.8125 C   0  0  0  0  0  0  0  0  0  0  0  0
  1  2  1  0
  2  3  1  0
  3  4  2  0
  4  5  1  0
  5  6  1  0
  6  7  2  0
  7  8  1  0
  8  9  1  0
  8 10  1  0
 10 11  1  0
 11 12  2  0
  7 13  1  0
 13 14  2  0
 14 15  1  0
 15 16  2  0
 16 25  1  0
 25 26  2  0
 26 27  1  0
 27 28  2  0
 28 29  1  0
 29 30  2  0
 30 31  1  0
 31 37  1  0
 37 38  2  0
 38 39  1  0
 39 40  2  0
 40 41  1  0
 41 42  2  0
 31 32  2  0
 32 33  1  0
 33 34  2  0
 34 35  1  0
 35 36  1  0
 16 17  1  0
 17 18  2  0
 18 19  1  0
 19 20  1  1
 20 21  1  0
 21 22  1  0
 22 23  1  0
 23 24  1  0
 12  3  1  0
 18 13  1  0
 24 19  1  0
 10  5  2  0
 35 26  1  0
 19  6  1  0
 34 29  1  0
 42 37  1  0
M  END
>  <minimizedAffinity>  (312) 
-17.09565

$$$$
Mol: 199_61 - SminaDock
     RDKit          3D

 40 46  0  0  0  0  0  0  0  0999 V2000
    2.1359   -0.4818  -13.4391 H   0  0  0  0  0  0  0  0  0  0  0  0
    2.6352   -1.0076  -14.1885 N   0  0  0  0  0  0  0  0  0  0  0  0
    3.7943   -0.5436  -14.5424 C   0  0  0  0  0  0  0  0  0  0  0  0
    4.5075   -1.1726  -15.5127 N   0  0  0  0  0  0  0  0  0  0  0  0
    5.7096   -0.7157  -15.8996 C   0  0  0  0  0  0  0  0  0  0  0  0
    6.3677   -1.2893  -16.7892 O   0  0  0  0  0  0  0  0  0  0  0  0
    6.2666    0.4177  -15.3205 C   0  0  0  0  0  0  0  0  0  0  0  0
    7.4871    0.8973  -15.7001 C   0  0  0  0  0  0  0  0  0  0  0  0
    8.0230    2.0539  -15.0884 C   0  0  0  0  0  0  0  0  0  0  0  0
    7.3053    2.6913  -14.1101 C   0  0  0  0  0  0  0  0  0  0  0  0
    6.0919    2.1845  -13.7568 C   0  0  0  0  0  0  0  0  0  0  0  0
    5.5327    1.0412  -14.3419 C   0  0  0  0  0  0  0  0  0  0  0  0
    4.3385    0.5447  -13.9924 N   0  0  0  0  0  0  0  0  0  0  0  0
    3.8192    1.0580  -13.2408 H   0  0  0  0  0  0  0  0  0  0  0  0
    7.8205    3.8866  -13.4878 C   0  0  0  0  0  0  0  0  0  0  0  0
    7.1442    4.5391  -12.4927 C   0  0  0  0  0  0  0  0  0  0  0  0
    7.6460    5.6853  -11.8733 C   0  0  0  0  0  0  0  0  0  0  0  0
    8.8597    6.1508  -12.2967 C   0  0  0  0  0  0  0  0  0  0  0  0
    9.5938    5.5457  -13.2915 C   0  0  0  0  0  0  0  0  0  0  0  0
    9.0602    4.4184  -13.8743 C   0  0  0  0  0  0  0  0  0  0  0  0
    9.8453    3.7889  -14.9540 C   0  0  0  0  0  0  0  0  0  0  0  0
    9.3444    2.5279  -15.5056 C   0  0  0  0  0  0  0  0  0  0  0  0
    9.3769    7.3091  -11.6770 N   0  0  0  0  0  0  0  0  0  0  0  0
    9.7243    7.2514  -10.4411 C   0  0  0  0  0  0  0  0  0  0  0  0
   10.2225    8.3663   -9.8437 N   0  0  0  0  0  0  0  0  0  0  0  0
   10.5797    8.2892   -8.5541 C   0  0  0  0  0  0  0  0  0  0  0  0
   11.0947    9.3954   -7.8920 C   0  0  0  0  0  0  0  0  0  0  0  0
   11.4719    9.3561   -6.5724 C   0  0  0  0  0  0  0  0  0  0  0  0
   11.3528    8.1984   -5.8390 C   0  0  0  0  0  0  0  0  0  0  0  0
   10.8433    7.0954   -6.4856 C   0  0  0  0  0  0  0  0  0  0  0  0
   10.4620    7.1253   -7.8106 C   0  0  0  0  0  0  0  0  0  0  0  0
    9.9518    6.0208   -8.4587 C   0  0  0  0  0  0  0  0  0  0  0  0
    9.5970    6.1071   -9.7490 N   0  0  0  0  0  0  0  0  0  0  0  0
    9.2131    5.2254  -10.1867 H   0  0  0  0  0  0  0  0  0  0  0  0
   11.7360    8.0908   -4.4339 C   0  0  0  0  0  0  0  0  0  0  0  0
   11.7615    6.8857   -3.7555 C   0  0  0  0  0  0  0  0  0  0  0  0
   12.1199    6.7667   -2.4340 C   0  0  0  0  0  0  0  0  0  0  0  0
   12.4731    7.9192   -1.7511 C   0  0  0  0  0  0  0  0  0  0  0  0
   12.4615    9.1382   -2.3869 C   0  0  0  0  0  0  0  0  0  0  0  0
   12.0917    9.2177   -3.7299 C   0  0  0  0  0  0  0  0  0  0  0  0
  1  2  1  0
  2  3  2  0
  3  4  1  0
  4  5  1  0
  5  6  2  0
  5  7  1  0
  7  8  2  0
  8  9  1  0
  9 10  2  0
 10 11  1  0
 11 12  2  0
 12 13  1  0
 13 14  1  0
 10 15  1  0
 15 16  2  0
 16 17  1  0
 17 18  2  0
 18 23  1  0
 23 24  2  0
 24 25  1  0
 25 26  2  0
 26 27  1  0
 27 28  2  0
 28 29  1  0
 29 35  1  0
 35 36  2  0
 36 37  1  0
 37 38  2  0
 38 39  1  0
 39 40  2  0
 29 30  2  0
 30 31  1  0
 31 32  2  0
 32 33  1  0
 33 34  1  0
 18 19  1  0
 19 20  2  0
 20 21  1  0
 21 22  1  0
 13  3  1  0
 20 15  1  0
 12  7  1  0
 33 24  1  0
 22  9  1  0
 31 26  1  0
 40 35  1  0
M  CHG  1   4  -1
M  END
>  <minimizedAffinity>  (313) 
-17.14448

$$$$
Mol: 200_36 - SminaDock
     RDKit          3D

 44 51  0  0  0  0  0  0  0  0999 V2000
    9.2792   -1.4840  -17.3589 H   0  0  0  0  0  0  0  0  0  0  0  0
    8.6667   -0.7414  -17.7142 O   0  0  0  0  0  0  0  0  0  0  0  0
    8.0282    0.0841  -16.7582 C   0  0  0  0  0  0  0  0  0  0  0  0
    8.6854    1.1108  -16.2545 N   0  0  0  0  0  0  0  0  0  0  0  0
    8.1508    1.9691  -15.3214 C   0  0  0  0  0  0  0  0  0  0  0  0
    6.8599    1.7309  -14.8994 C   0  0  0  0  0  0  0  0  0  0  0  0
    6.1442    0.6525  -15.4174 C   0  0  0  0  0  0  0  0  0  0  0  0
    4.8645    0.4194  -14.9997 C   0  0  0  0  0  0  0  0  0  0  0  0
    4.2026   -0.6869  -15.5663 C   0  0  0  0  0  0  0  0  0  0  0  0
    4.7853   -1.5019  -16.4881 C   0  0  0  0  0  0  0  0  0  0  0  0
    6.0673   -1.2427  -16.8863 C   0  0  0  0  0  0  0  0  0  0  0  0
    6.7395   -0.1786  -16.3582 C   0  0  0  0  0  0  0  0  0  0  0  0
    6.2343    2.5752  -13.8957 C   0  0  0  0  0  0  0  0  0  0  0  0
    5.0964    2.4780  -13.4311 O   0  0  0  0  0  0  0  0  0  0  0  0
    7.0608    3.6703  -13.3794 C   0  0  0  0  0  0  0  0  0  0  0  0
    6.5422    4.5223  -12.3931 C   0  0  0  0  0  0  0  0  0  0  0  0
    7.2857    5.5530  -11.8650 C   0  0  0  0  0  0  0  0  0  0  0  0
    8.5698    5.7695  -12.3017 C   0  0  0  0  0  0  0  0  0  0  0  0
    9.0991    4.9583  -13.2585 C   0  0  0  0  0  0  0  0  0  0  0  0
    8.3325    3.8976  -13.8016 C   0  0  0  0  0  0  0  0  0  0  0  0
    8.9690    3.0730  -14.8483 C   0  0  1  0  0  0  0  0  0  0  0  0
   10.3190    2.5675  -14.3641 C   0  0  0  0  0  0  0  0  0  0  0  0
   11.3460    2.8013  -15.4269 C   0  0  0  0  0  0  0  0  0  0  0  0
   10.8845    2.4553  -16.6897 O   0  0  0  0  0  0  0  0  0  0  0  0
    9.9358    3.3411  -17.1377 C   0  0  0  0  0  0  0  0  0  0  0  0
    9.2667    4.0454  -16.0081 C   0  0  0  0  0  0  0  0  0  0  0  0
    9.2975    6.8557  -11.7171 N   0  0  0  0  0  0  0  0  0  0  0  0
    9.6093    6.8509  -10.4729 C   0  0  0  0  0  0  0  0  0  0  0  0
    9.2651    5.8139   -9.6435 C   0  0  0  0  0  0  0  0  0  0  0  0
    9.5963    5.8085   -8.3238 N   0  0  0  0  0  0  0  0  0  0  0  0
   10.2862    6.8720   -7.8423 C   0  0  0  0  0  0  0  0  0  0  0  0
   10.6487    6.9151   -6.5012 C   0  0  0  0  0  0  0  0  0  0  0  0
   11.3505    7.9723   -5.9606 C   0  0  0  0  0  0  0  0  0  0  0  0
   11.6790    9.0003   -6.8323 C   0  0  0  0  0  0  0  0  0  0  0  0
   11.3329    8.9793   -8.1554 C   0  0  0  0  0  0  0  0  0  0  0  0
   10.6346    7.9172   -8.6722 C   0  0  0  0  0  0  0  0  0  0  0  0
   10.2975    7.9108   -9.9907 N   0  0  0  0  0  0  0  0  0  0  0  0
   10.5588    8.7009  -10.6261 H   0  0  0  0  0  0  0  0  0  0  0  0
   11.7225    8.0041   -4.5583 C   0  0  0  0  0  0  0  0  0  0  0  0
   11.7090    6.8512   -3.7962 C   0  0  0  0  0  0  0  0  0  0  0  0
   12.0553    6.8421   -2.4632 C   0  0  0  0  0  0  0  0  0  0  0  0
   12.4350    8.0057   -1.8293 C   0  0  0  0  0  0  0  0  0  0  0  0
   12.4555    9.1662   -2.5695 C   0  0  0  0  0  0  0  0  0  0  0  0
   12.1038    9.1721   -3.9214 C   0  0  0  0  0  0  0  0  0  0  0  0
  1  2  1  0
  2  3  1  0
  3  4  2  0
  4  5  1  0
  5  6  2  0
  6  7  1  0
  7  8  2  0
  8  9  1  0
  9 10  2  0
 10 11  1  0
 11 12  2  0
  6 13  1  0
 13 14  2  0
 13 15  1  0
 15 16  2  0
 16 17  1  0
 17 18  2  0
 18 27  1  0
 27 28  2  0
 28 29  1  0
 29 30  2  0
 30 31  1  0
 31 32  2  0
 32 33  1  0
 33 39  1  0
 39 40  2  0
 40 41  1  0
 41 42  2  0
 42 43  1  0
 43 44  2  0
 33 34  2  0
 34 35  1  0
 35 36  2  0
 36 37  1  0
 37 38  1  0
 18 19  1  0
 19 20  2  0
 20 21  1  0
 21 22  1  1
 22 23  1  0
 23 24  1  0
 24 25  1  0
 25 26  1  0
 12  3  1  0
 20 15  1  0
 26 21  1  0
 21  5  1  0
 12  7  1  0
 37 28  1  0
 36 31  1  0
 44 39  1  0
M  END
>  <minimizedAffinity>  (314) 
-17.12006

$$$$
Mol: 167_12 - SminaDock
     RDKit          3D

 39 45  0  0  0  0  0  0  0  0999 V2000
    2.1869   -1.4553  -13.4082 H   0  0  0  0  0  0  0  0  0  0  0  0
    2.3507   -0.9757  -14.3030 O   0  0  0  0  0  0  0  0  0  0  0  0
    3.6405   -0.5469  -14.6088 C   0  0  0  0  0  0  0  0  0  0  0  0
    4.1727    0.5752  -14.0736 N   0  0  0  0  0  0  0  0  0  0  0  0
    5.4184    0.9757  -14.3784 C   0  0  0  0  0  0  0  0  0  0  0  0
    5.9839    2.1372  -13.8305 C   0  0  0  0  0  0  0  0  0  0  0  0
    7.2491    2.5709  -14.1214 C   0  0  0  0  0  0  0  0  0  0  0  0
    8.0148    1.8412  -14.9960 C   0  0  0  0  0  0  0  0  0  0  0  0
    7.4778    0.6660  -15.5651 C   0  0  0  0  0  0  0  0  0  0  0  0
    6.2015    0.2524  -15.2530 C   0  0  0  0  0  0  0  0  0  0  0  0
    5.6591   -0.8921  -15.7992 C   0  0  0  0  0  0  0  0  0  0  0  0
    6.3246   -1.5929  -16.6022 O   0  0  0  0  0  0  0  0  0  0  0  0
    4.4090   -1.2607  -15.4697 N   0  0  0  0  0  0  0  0  0  0  0  0
    9.3558    2.2909  -15.3979 C   0  0  0  0  0  0  0  0  0  0  0  0
   10.0264    3.2918  -14.5525 C   0  0  0  0  0  0  0  0  0  0  0  0
    9.1138    4.1212  -13.7291 C   0  0  0  0  0  0  0  0  0  0  0  0
    9.6164    5.2964  -13.1457 C   0  0  0  0  0  0  0  0  0  0  0  0
    8.8280    6.0609  -12.3328 C   0  0  0  0  0  0  0  0  0  0  0  0
    7.5488    5.6543  -12.1050 C   0  0  0  0  0  0  0  0  0  0  0  0
    7.0067    4.5034  -12.6581 C   0  0  0  0  0  0  0  0  0  0  0  0
    7.8131    3.7440  -13.4761 C   0  0  0  0  0  0  0  0  0  0  0  0
    9.3666    7.2526  -11.7522 N   0  0  0  0  0  0  0  0  0  0  0  0
    9.7026    7.2014  -10.5078 C   0  0  0  0  0  0  0  0  0  0  0  0
   10.2228    8.2822   -9.8690 N   0  0  0  0  0  0  0  0  0  0  0  0
   10.5813    8.2541   -8.5710 C   0  0  0  0  0  0  0  0  0  0  0  0
   11.1072    9.3605   -7.9395 C   0  0  0  0  0  0  0  0  0  0  0  0
   11.4705    9.3120   -6.6013 C   0  0  0  0  0  0  0  0  0  0  0  0
   11.3226    8.1647   -5.8506 C   0  0  0  0  0  0  0  0  0  0  0  0
   10.7951    7.0607   -6.4914 C   0  0  0  0  0  0  0  0  0  0  0  0
   10.4303    7.1021   -7.8267 C   0  0  0  0  0  0  0  0  0  0  0  0
    9.9020    6.0060   -8.4770 C   0  0  0  0  0  0  0  0  0  0  0  0
    9.5588    6.0830   -9.7756 N   0  0  0  0  0  0  0  0  0  0  0  0
    9.1617    5.2027  -10.2040 H   0  0  0  0  0  0  0  0  0  0  0  0
   11.7120    8.1310   -4.4358 C   0  0  0  0  0  0  0  0  0  0  0  0
   11.7934    6.9138   -3.7976 C   0  0  0  0  0  0  0  0  0  0  0  0
   12.1499    6.7840   -2.4743 C   0  0  0  0  0  0  0  0  0  0  0  0
   12.4409    7.9208   -1.7463 C   0  0  0  0  0  0  0  0  0  0  0  0
   12.3601    9.1450   -2.3843 C   0  0  0  0  0  0  0  0  0  0  0  0
   12.0005    9.2503   -3.7117 C   0  0  0  0  0  0  0  0  0  0  0  0
  1  2  1  0
  2  3  1  0
  3  4  2  0
  4  5  1  0
  5  6  2  0
  6  7  1  0
  7  8  2  0
  8  9  1  0
  9 10  2  0
 10 11  1  0
 11 12  2  0
 11 13  1  0
  8 14  1  0
 14 15  1  0
 15 16  1  0
 16 17  2  0
 17 18  1  0
 18 22  1  0
 22 23  2  0
 23 24  1  0
 24 25  2  0
 25 26  1  0
 26 27  2  0
 27 28  1  0
 28 34  1  0
 34 35  2  0
 35 36  1  0
 36 37  2  0
 37 38  1  0
 38 39  2  0
 28 29  2  0
 29 30  1  0
 30 31  2  0
 31 32  1  0
 32 33  1  0
 18 19  2  0
 19 20  1  0
 20 21  2  0
 13  3  1  0
 21 16  1  0
 10  5  1  0
 32 23  1  0
 21  7  1  0
 30 25  1  0
 39 34  1  0
M  CHG  1  13  -1
M  END
>  <minimizedAffinity>  (315) 
-17.10781

$$$$
Mol: 168_19 - SminaDock
     RDKit          3D

 41 47  0  0  0  0  0  0  0  0999 V2000
    4.6527   -3.4164  -16.4333 H   0  0  0  0  0  0  0  0  0  0  0  0
    4.6567   -2.5086  -16.8734 O   0  0  0  0  0  0  0  0  0  0  0  0
    5.3537   -1.4294  -16.3639 C   0  0  0  0  0  0  0  0  0  0  0  0
    6.6045   -1.2088  -16.7464 N   0  0  0  0  0  0  0  0  0  0  0  0
    7.2872   -0.1426  -16.2405 C   0  0  0  0  0  0  0  0  0  0  0  0
    8.4485   -0.0161  -16.6547 O   0  0  0  0  0  0  0  0  0  0  0  0
    6.7099    0.7026  -15.3487 C   0  0  0  0  0  0  0  0  0  0  0  0
    7.4027    1.7925  -14.8292 C   0  0  0  0  0  0  0  0  0  0  0  0
    6.7196    2.5947  -13.9229 C   0  0  0  0  0  0  0  0  0  0  0  0
    5.4291    2.3304  -13.5561 C   0  0  0  0  0  0  0  0  0  0  0  0
    4.7723    1.2471  -14.0864 C   0  0  0  0  0  0  0  0  0  0  0  0
    5.4016    0.4190  -14.9885 C   0  0  0  0  0  0  0  0  0  0  0  0
    4.7323   -0.6270  -15.4849 N   0  0  0  0  0  0  0  0  0  0  0  0
    3.3631   -0.8543  -15.0565 C   0  0  0  0  0  0  0  0  0  0  0  0
    7.4000    3.7639  -13.3385 C   0  0  0  0  0  0  0  0  0  0  0  0
    6.7673    4.5985  -12.4292 C   0  0  0  0  0  0  0  0  0  0  0  0
    7.4310    5.6812  -11.9022 C   0  0  0  0  0  0  0  0  0  0  0  0
    8.7105    5.9505  -12.2610 C   0  0  0  0  0  0  0  0  0  0  0  0
    9.3322    5.1237  -13.1595 C   0  0  0  0  0  0  0  0  0  0  0  0
    8.6916    4.0136  -13.7173 C   0  0  0  0  0  0  0  0  0  0  0  0
    9.3842    3.1878  -14.6465 C   0  0  0  0  0  0  0  0  0  0  0  0
   10.5884    3.4803  -14.9564 O   0  0  0  0  0  0  0  0  0  0  0  0
    8.7752    2.0055  -15.2714 C   0  0  0  0  0  0  0  0  0  0  0  0
    9.4397    7.0689  -11.7355 N   0  0  0  0  0  0  0  0  0  0  0  0
    9.7385    7.0523  -10.4893 C   0  0  0  0  0  0  0  0  0  0  0  0
   10.4293    8.0728   -9.9075 N   0  0  0  0  0  0  0  0  0  0  0  0
   10.7379    8.0450   -8.5998 C   0  0  0  0  0  0  0  0  0  0  0  0
   11.4423    9.0779   -7.9926 C   0  0  0  0  0  0  0  0  0  0  0  0
   11.7667    9.0635   -6.6529 C   0  0  0  0  0  0  0  0  0  0  0  0
   11.3949    7.9972   -5.8461 C   0  0  0  0  0  0  0  0  0  0  0  0
   10.6966    6.9746   -6.4509 C   0  0  0  0  0  0  0  0  0  0  0  0
   10.3714    6.9886   -7.7928 C   0  0  0  0  0  0  0  0  0  0  0  0
    9.6694    5.9525   -8.3857 C   0  0  0  0  0  0  0  0  0  0  0  0
    9.3865    6.0283   -9.6937 N   0  0  0  0  0  0  0  0  0  0  0  0
    8.8481    5.2257  -10.1298 H   0  0  0  0  0  0  0  0  0  0  0  0
   11.7534    8.0105   -4.4341 C   0  0  0  0  0  0  0  0  0  0  0  0
   12.0477    9.1839   -3.7596 C   0  0  0  0  0  0  0  0  0  0  0  0
   12.3878    9.2042   -2.4231 C   0  0  0  0  0  0  0  0  0  0  0  0
   12.4459    8.0301   -1.7029 C   0  0  0  0  0  0  0  0  0  0  0  0
   12.1564    6.8505   -2.3559 C   0  0  0  0  0  0  0  0  0  0  0  0
   11.8122    6.8388   -3.7129 C   0  0  0  0  0  0  0  0  0  0  0  0
  1  2  1  0
  2  3  1  0
  3  4  2  0
  4  5  1  0
  5  6  2  0
  5  7  1  0
  7  8  2  0
  8  9  1  0
  9 10  2  0
 10 11  1  0
 11 12  2  0
 12 13  1  0
 13 14  1  0
  9 15  1  0
 15 16  2  0
 16 17  1  0
 17 18  2  0
 18 24  1  0
 24 25  2  0
 25 26  1  0
 26 27  2  0
 27 28  1  0
 28 29  2  0
 29 30  1  0
 30 36  1  0
 36 37  2  0
 37 38  1  0
 38 39  2  0
 39 40  1  0
 40 41  2  0
 30 31  2  0
 31 32  1  0
 32 33  2  0
 33 34  1  0
 34 35  1  0
 18 19  1  0
 19 20  2  0
 20 21  1  0
 21 22  2  0
 21 23  1  0
 13  3  1  0
 20 15  1  0
 12  7  1  0
 34 25  1  0
 23  8  1  0
 32 27  1  0
 41 36  1  0
M  END
>  <minimizedAffinity>  (316) 
-17.09171

$$$$
Mol: 168_14 - SminaDock
     RDKit          3D

 39 45  0  0  0  0  0  0  0  0999 V2000
    8.7393    5.8233  -12.3046 C   0  0  0  0  0  0  0  0  0  0  0  0
    7.4356    5.5186  -11.9919 C   0  0  0  0  0  0  0  0  0  0  0  0
    6.8904    4.3497  -12.5494 C   0  0  0  0  0  0  0  0  0  0  0  0
    7.6012    3.5179  -13.3793 C   0  0  0  0  0  0  0  0  0  0  0  0
    8.9057    3.8867  -13.6499 C   0  0  0  0  0  0  0  0  0  0  0  0
    9.4939    5.0236  -13.1306 C   0  0  0  0  0  0  0  0  0  0  0  0
    9.6991    3.0480  -14.5167 C   0  0  0  0  0  0  0  0  0  0  0  0
   10.9060    3.3867  -14.7664 O   0  0  0  0  0  0  0  0  0  0  0  0
    9.1724    1.8189  -15.1237 C   0  0  0  0  0  0  0  0  0  0  0  0
    7.7752    1.5235  -14.7667 C   0  0  0  0  0  0  0  0  0  0  0  0
    6.9926    2.3183  -13.9324 C   0  0  0  0  0  0  0  0  0  0  0  0
    5.6909    1.9497  -13.6624 C   0  0  0  0  0  0  0  0  0  0  0  0
    5.1078    0.8111  -14.1850 C   0  0  0  0  0  0  0  0  0  0  0  0
    3.8150    0.4186  -13.9347 C   0  0  0  0  0  0  0  0  0  0  0  0
    3.2588   -0.7250  -14.4717 C   0  0  0  0  0  0  0  0  0  0  0  0
    4.0305   -1.4765  -15.2730 N   0  0  0  0  0  0  0  0  0  0  0  0
    3.6214   -2.3405  -15.6831 H   0  0  0  0  0  0  0  0  0  0  0  0
    5.3100   -1.1235  -15.5441 C   0  0  0  0  0  0  0  0  0  0  0  0
    6.0449   -1.8208  -16.2951 O   0  0  0  0  0  0  0  0  0  0  0  0
    5.8793    0.0164  -15.0148 C   0  0  0  0  0  0  0  0  0  0  0  0
    7.1771    0.3823  -15.2850 C   0  0  0  0  0  0  0  0  0  0  0  0
   11.3080    8.0500   -5.9092 C   0  0  0  0  0  0  0  0  0  0  0  0
   11.4949    9.1458   -6.7247 C   0  0  0  0  0  0  0  0  0  0  0  0
   11.1318    9.1414   -8.0554 C   0  0  0  0  0  0  0  0  0  0  0  0
   10.5597    8.0248   -8.6304 C   0  0  0  0  0  0  0  0  0  0  0  0
   10.2175    8.0551   -9.9302 N   0  0  0  0  0  0  0  0  0  0  0  0
    9.6554    6.9649  -10.5021 C   0  0  0  0  0  0  0  0  0  0  0  0
    9.3176    6.9815  -11.7667 N   0  0  0  0  0  0  0  0  0  0  0  0
    9.4617    5.8826   -9.7300 N   0  0  0  0  0  0  0  0  0  0  0  0
    9.0248    5.0478  -10.1920 H   0  0  0  0  0  0  0  0  0  0  0  0
    9.7895    5.8155   -8.4328 C   0  0  0  0  0  0  0  0  0  0  0  0
   10.3625    6.9180   -7.8376 C   0  0  0  0  0  0  0  0  0  0  0  0
   10.7319    6.9357   -6.5019 C   0  0  0  0  0  0  0  0  0  0  0  0
   12.4274    8.0623   -1.8043 C   0  0  0  0  0  0  0  0  0  0  0  0
   12.3683    9.2540   -2.5343 C   0  0  0  0  0  0  0  0  0  0  0  0
   12.0027    9.2210   -3.8623 C   0  0  0  0  0  0  0  0  0  0  0  0
   11.6860    8.0558   -4.5236 C   0  0  0  0  0  0  0  0  0  0  0  0
   11.7498    6.8868   -3.7860 C   0  0  0  0  0  0  0  0  0  0  0  0
   12.1134    6.8726   -2.4451 C   0  0  0  0  0  0  0  0  0  0  0  0
 34 35  2  0
 35 36  1  0
 36 37  2  0
 37 22  1  0
 22 23  1  0
 23 24  2  0
 24 25  1  0
 25 26  2  0
 26 27  1  0
 27 28  2  0
 28  1  1  0
  1  2  2  0
  2  3  1  0
  3  4  2  0
  4  5  1  0
  5  6  2  0
  5  7  1  0
  7  8  2  0
  7  9  1  0
  9 10  1  0
 10 11  2  0
 11 12  1  0
 12 13  2  0
 13 14  1  0
 14 15  2  0
 15 16  1  0
 16 17  1  0
 16 18  1  0
 18 19  2  0
 18 20  1  0
 20 21  2  0
 27 29  1  0
 29 30  1  0
 29 31  1  0
 31 32  2  0
 32 33  1  0
 37 38  1  0
 38 39  2  0
 39 34  1  0
 33 22  2  0
 32 25  1  0
  6  1  1  0
 21 10  1  0
 11  4  1  0
 20 13  1  0
M  END
>  <minimizedAffinity>  (317) 
-17.14896

$$$$
Mol: 82_3 - SminaDock
     RDKit          3D

 43 50  0  0  0  0  0  0  0  0999 V2000
    8.7899    5.2832  -10.0136 N   0  0  0  0  0  0  0  0  0  0  0  0
    8.9963    5.1297  -11.2320 C   0  0  0  0  0  0  0  0  0  0  0  0
    8.1348    4.1512  -11.8388 O   0  0  0  0  0  0  0  0  0  0  0  0
    7.5912    3.5186  -11.2714 H   0  0  0  0  0  0  0  0  0  0  0  0
   14.1002    8.7769   -8.7835 H   0  0  0  0  0  0  0  0  0  0  0  0
   13.1613    8.4692   -9.0398 O   0  0  0  0  0  0  0  0  0  0  0  0
   12.2082    8.2734   -8.0222 C   0  0  0  0  0  0  0  0  0  0  0  0
   12.3026    8.7932   -6.8791 N   0  0  0  0  0  0  0  0  0  0  0  0
   11.1963    8.4239   -6.0510 C   0  0  1  0  0  0  0  0  0  0  0  0
   10.3706    7.5778   -6.8515 C   0  0  0  0  0  0  0  0  0  0  0  0
    9.1711    6.8765   -6.7024 C   0  0  0  0  0  0  0  0  0  0  0  0
    8.6333    6.1265   -7.7182 C   0  0  0  0  0  0  0  0  0  0  0  0
    9.2664    6.0274   -8.9639 C   0  0  0  0  0  0  0  0  0  0  0  0
   10.4491    6.7191   -9.1104 C   0  0  0  0  0  0  0  0  0  0  0  0
   10.9897    7.4788   -8.0750 C   0  0  0  0  0  0  0  0  0  0  0  0
   11.5771    7.9803   -4.7187 C   0  0  0  0  0  0  0  0  0  0  0  0
   11.6875    6.7372   -4.1076 C   0  0  0  0  0  0  0  0  0  0  0  0
   12.1063    6.6857   -2.7944 C   0  0  0  0  0  0  0  0  0  0  0  0
   12.4164    7.8225   -2.0757 C   0  0  0  0  0  0  0  0  0  0  0  0
   12.3106    9.0734   -2.6734 C   0  0  0  0  0  0  0  0  0  0  0  0
   11.8883    9.1025   -3.9913 C   0  0  0  0  0  0  0  0  0  0  0  0
   11.6753   10.3298   -4.8512 C   0  0  0  0  0  0  0  0  0  0  0  0
   10.5241    9.7808   -5.7261 C   0  0  0  0  0  0  0  0  0  0  0  0
    9.9707    5.7928  -12.1046 C   0  0  0  0  0  0  0  0  0  0  0  0
   10.3633    7.0751  -11.8355 C   0  0  0  0  0  0  0  0  0  0  0  0
   11.2926    7.6570  -12.6986 C   0  0  0  0  0  0  0  0  0  0  0  0
   11.7895    6.9669  -13.7728 C   0  0  0  0  0  0  0  0  0  0  0  0
   12.7177    7.5613  -14.6069 C   0  0  0  0  0  0  0  0  0  0  0  0
   13.2093    6.8460  -15.6714 C   0  0  0  0  0  0  0  0  0  0  0  0
   12.8025    5.5623  -15.9255 C   0  0  0  0  0  0  0  0  0  0  0  0
   11.8637    4.9290  -15.1026 C   0  0  0  0  0  0  0  0  0  0  0  0
   11.3797    5.6551  -14.0388 C   0  0  0  0  0  0  0  0  0  0  0  0
   10.4651    5.0712  -13.1947 C   0  0  0  0  0  0  0  0  0  0  0  0
   11.4261    3.5677  -15.4324 C   0  0  0  0  0  0  0  0  0  0  0  0
   10.6634    2.8036  -14.5817 C   0  0  0  0  0  0  0  0  0  0  0  0
   10.2855    1.5236  -14.9316 C   0  0  0  0  0  0  0  0  0  0  0  0
   10.6490    0.9457  -16.1440 C   0  0  0  0  0  0  0  0  0  0  0  0
   10.2555   -0.3397  -16.4676 C   0  0  0  0  0  0  0  0  0  0  0  0
   10.6304   -0.8838  -17.6743 C   0  0  0  0  0  0  0  0  0  0  0  0
   11.3959   -0.1307  -18.5409 C   0  0  0  0  0  0  0  0  0  0  0  0
   11.7784    1.1527  -18.1971 C   0  0  0  0  0  0  0  0  0  0  0  0
   11.4147    1.7203  -16.9928 C   0  0  0  0  0  0  0  0  0  0  0  0
   11.7841    3.0022  -16.6242 C   0  0  0  0  0  0  0  0  0  0  0  0
  5  6  1  0
  6  7  1  0
  7  8  2  0
  8  9  1  0
  9 10  1  0
 10 11  2  0
 11 12  1  0
 12 13  2  0
 13  1  1  0
  1  2  2  0
  2  3  1  0
  3  4  1  0
  2 24  1  0
 24 25  2  0
 25 26  1  0
 26 27  2  0
 27 28  1  0
 28 29  2  0
 29 30  1  0
 30 31  2  0
 31 34  1  0
 34 35  2  0
 35 36  1  0
 36 37  2  0
 37 38  1  0
 38 39  2  0
 39 40  1  0
 40 41  2  0
 41 42  1  0
 42 43  2  0
 31 32  1  0
 32 33  2  0
 13 14  1  0
 14 15  2  0
  9 16  1  0
 16 17  2  0
 17 18  1  0
 18 19  2  0
 19 20  1  0
 20 21  2  0
 21 22  1  0
 22 23  1  0
 15  7  1  0
 21 16  1  0
  9 23  1  1
 15 10  1  0
 33 24  1  0
 32 27  1  0
 43 34  1  0
 42 37  1  0
M  END
>  <minimizedAffinity>  (318) 
-17.12563

$$$$
Mol: 192_59 - SminaDock
     RDKit          3D

 44 51  0  0  0  0  0  0  0  0999 V2000
   13.3669    4.3111  -14.7638 H   0  0  0  0  0  0  0  0  0  0  0  0
   12.3865    4.3905  -14.6250 O   0  0  0  0  0  0  0  0  0  0  0  0
   11.7194    3.9385  -15.7354 C   0  0  1  0  0  0  0  0  0  0  0  0
   11.2314    2.5032  -15.4700 C   0  0  0  0  0  0  0  0  0  0  0  0
   10.2143    2.5629  -14.3775 C   0  0  0  0  0  0  0  0  0  0  0  0
    8.9283    3.1652  -14.8683 C   0  0  2  0  0  0  0  0  0  0  0  0
    8.3024    4.0101  -13.8014 C   0  0  0  0  0  0  0  0  0  0  0  0
    9.0673    5.0414  -13.2460 C   0  0  0  0  0  0  0  0  0  0  0  0
    8.6081    5.8991  -12.2818 C   0  0  0  0  0  0  0  0  0  0  0  0
    7.3280    5.7641  -11.8136 C   0  0  0  0  0  0  0  0  0  0  0  0
    6.5473    4.7738  -12.3244 C   0  0  0  0  0  0  0  0  0  0  0  0
    7.0367    3.9042  -13.3111 C   0  0  0  0  0  0  0  0  0  0  0  0
    6.1813    2.8309  -13.7962 C   0  0  0  0  0  0  0  0  0  0  0  0
    5.0105    2.7057  -13.3665 O   0  0  0  0  0  0  0  0  0  0  0  0
    6.7548    1.9371  -14.7832 C   0  0  0  0  0  0  0  0  0  0  0  0
    8.0225    2.0543  -15.2687 C   0  0  0  0  0  0  0  0  0  0  0  0
    8.2373    1.0257  -16.1575 N   0  0  0  0  0  0  0  0  0  0  0  0
    9.1174    0.8661  -16.6792 H   0  0  0  0  0  0  0  0  0  0  0  0
    7.1372    0.2593  -16.2492 C   0  0  0  0  0  0  0  0  0  0  0  0
    6.7802   -0.8669  -16.9569 C   0  0  0  0  0  0  0  0  0  0  0  0
    5.5338   -1.4398  -16.8357 C   0  0  0  0  0  0  0  0  0  0  0  0
    4.6494   -0.8787  -16.0021 N   0  0  0  0  0  0  0  0  0  0  0  0
    4.9679    0.2213  -15.2975 C   0  0  0  0  0  0  0  0  0  0  0  0
    6.2064    0.8022  -15.4100 C   0  0  0  0  0  0  0  0  0  0  0  0
    9.2179    4.0193  -16.0836 C   0  0  0  0  0  0  0  0  0  0  0  0
   10.5177    4.7008  -16.1610 C   0  0  0  0  0  0  0  0  0  0  0  0
    9.4725    6.9432  -11.7660 N   0  0  0  0  0  0  0  0  0  0  0  0
    9.7821    6.9906  -10.5066 C   0  0  0  0  0  0  0  0  0  0  0  0
   10.5819    7.9531  -10.0123 N   0  0  0  0  0  0  0  0  0  0  0  0
   10.8907    7.9799   -8.6976 C   0  0  0  0  0  0  0  0  0  0  0  0
   11.7016    8.9451   -8.1507 C   0  0  0  0  0  0  0  0  0  0  0  0
   11.9662    8.9035   -6.8015 C   0  0  0  0  0  0  0  0  0  0  0  0
   11.4511    7.9260   -5.9538 C   0  0  0  0  0  0  0  0  0  0  0  0
   10.6405    6.9671   -6.5225 C   0  0  0  0  0  0  0  0  0  0  0  0
   10.3719    7.0002   -7.8603 C   0  0  0  0  0  0  0  0  0  0  0  0
    9.5464    6.0063   -8.3690 C   0  0  0  0  0  0  0  0  0  0  0  0
    9.2811    6.0411   -9.6851 N   0  0  0  0  0  0  0  0  0  0  0  0
    8.6537    5.3044  -10.1284 H   0  0  0  0  0  0  0  0  0  0  0  0
   11.7643    7.9374   -4.5322 C   0  0  0  0  0  0  0  0  0  0  0  0
   12.0945    9.1213   -3.9129 C   0  0  0  0  0  0  0  0  0  0  0  0
   12.4017    9.1953   -2.5770 C   0  0  0  0  0  0  0  0  0  0  0  0
   12.3884    8.0687   -1.8028 C   0  0  0  0  0  0  0  0  0  0  0  0
   12.0562    6.8614   -2.4145 C   0  0  0  0  0  0  0  0  0  0  0  0
   11.7513    6.8082   -3.7558 C   0  0  0  0  0  0  0  0  0  0  0  0
  1  2  1  0
  3  2  1  1
  3  4  1  0
  4  5  1  0
  6  5  1  1
  6  7  1  0
  7  8  2  0
  8  9  1  0
  9 27  1  0
 27 28  2  0
 28 29  1  0
 29 30  2  0
 30 31  1  0
 31 32  2  0
 32 33  1  0
 33 39  1  0
 39 40  2  0
 40 41  1  0
 41 42  2  0
 42 43  1  0
 43 44  2  0
 33 34  2  0
 34 35  1  0
 35 36  2  0
 36 37  1  0
 37 38  1  0
  9 10  2  0
 10 11  1  0
 11 12  2  0
 12 13  1  0
 13 14  2  0
 13 15  1  0
 15 16  2  0
 16 17  1  0
 17 18  1  0
 17 19  1  0
 19 20  2  0
 20 21  1  0
 21 22  2  0
 22 23  1  0
 23 24  2  0
  6 25  1  0
 25 26  1  0
 26  3  1  0
 16  6  1  0
 24 19  1  0
 12  7  1  0
 24 15  1  0
 37 28  1  0
 35 30  1  0
 44 39  1  0
M  END
>  <minimizedAffinity>  (319) 
-17.11158

$$$$
Mol: 174_57 - SminaDock
     RDKit          3D

 39 45  0  0  0  0  0  0  0  0999 V2000
    8.6828    5.6920  -12.4983 C   0  0  0  0  0  0  0  0  0  0  0  0
    9.2731    5.0801  -13.5829 C   0  0  0  0  0  0  0  0  0  0  0  0
    8.6737    3.9778  -14.1833 C   0  0  0  0  0  0  0  0  0  0  0  0
    7.4849    3.4645  -13.7224 C   0  0  0  0  0  0  0  0  0  0  0  0
    6.9125    4.0933  -12.6361 C   0  0  0  0  0  0  0  0  0  0  0  0
    7.4882    5.1854  -12.0266 C   0  0  0  0  0  0  0  0  0  0  0  0
    5.6690    3.3392  -12.3668 C   0  0  0  0  0  0  0  0  0  0  0  0
    4.8502    3.5798  -11.4628 O   0  0  0  0  0  0  0  0  0  0  0  0
    5.5411    2.2592  -13.3278 C   0  0  0  0  0  0  0  0  0  0  0  0
    4.5742    1.2956  -13.4891 C   0  0  0  0  0  0  0  0  0  0  0  0
    4.7337    0.3855  -14.5151 C   0  0  0  0  0  0  0  0  0  0  0  0
    5.8356    0.4568  -15.3424 C   0  0  0  0  0  0  0  0  0  0  0  0
    6.7999    1.4306  -15.1689 C   0  0  0  0  0  0  0  0  0  0  0  0
    6.6506    2.3429  -14.1490 C   0  0  0  0  0  0  0  0  0  0  0  0
    5.9298   -0.5416  -16.4017 C   0  0  0  0  0  0  0  0  0  0  0  0
    7.0718   -0.8666  -16.8165 O   0  0  0  0  0  0  0  0  0  0  0  0
    4.7120   -1.1316  -16.9473 C   0  0  0  0  0  0  0  0  0  0  0  0
    3.5351   -0.9137  -16.1829 N   0  0  1  0  0  0  0  0  0  0  0  0
    2.9455   -0.1005  -16.5264 H   0  0  0  0  0  0  0  0  0  0  0  0
    2.8955   -1.7510  -16.2590 H   0  0  0  0  0  0  0  0  0  0  0  0
    3.7588   -0.6959  -14.7817 C   0  0  0  0  0  0  0  0  0  0  0  0
   11.2820    8.0340   -6.0866 C   0  0  0  0  0  0  0  0  0  0  0  0
   11.5002    9.0985   -6.9355 C   0  0  0  0  0  0  0  0  0  0  0  0
   11.1488    9.0728   -8.2665 C   0  0  0  0  0  0  0  0  0  0  0  0
   10.5472    7.9294   -8.7881 C   0  0  0  0  0  0  0  0  0  0  0  0
   10.3175    6.8501   -7.9606 C   0  0  0  0  0  0  0  0  0  0  0  0
    9.7210    5.7398   -8.5165 C   0  0  0  0  0  0  0  0  0  0  0  0
    9.3844    5.7400   -9.8321 N   0  0  0  0  0  0  0  0  0  0  0  0
    9.6054    6.7799  -10.6306 C   0  0  0  0  0  0  0  0  0  0  0  0
    9.3035    6.8236  -11.8812 N   0  0  0  0  0  0  0  0  0  0  0  0
   10.1922    7.8702  -10.0806 N   0  0  0  0  0  0  0  0  0  0  0  0
   10.3731    8.6933  -10.6891 H   0  0  0  0  0  0  0  0  0  0  0  0
   10.6824    6.9075   -6.6277 C   0  0  0  0  0  0  0  0  0  0  0  0
   12.3356    7.9616   -1.9363 C   0  0  0  0  0  0  0  0  0  0  0  0
   11.9615    6.8185   -2.6093 C   0  0  0  0  0  0  0  0  0  0  0  0
   11.6231    6.8506   -3.9481 C   0  0  0  0  0  0  0  0  0  0  0  0
   11.6446    8.0356   -4.6752 C   0  0  0  0  0  0  0  0  0  0  0  0
   12.0198    9.1736   -3.9938 C   0  0  0  0  0  0  0  0  0  0  0  0
   12.3601    9.1419   -2.6481 C   0  0  0  0  0  0  0  0  0  0  0  0
 34 35  2  0
 35 36  1  0
 36 37  2  0
 37 22  1  0
 22 23  2  0
 23 24  1  0
 24 25  2  0
 25 26  1  0
 26 27  1  0
 27 28  2  0
 28 29  1  0
 29 30  2  0
 30  1  1  0
  1  2  2  0
  2  3  1  0
  3  4  2  0
  4  5  1  0
  5  6  2  0
  5  7  1  0
  7  8  2  0
  7  9  1  0
  9 10  2  0
 10 11  1  0
 11 12  2  0
 12 13  1  0
 13 14  2  0
 12 15  1  0
 15 16  2  0
 15 17  1  0
 17 18  1  0
 18 19  1  6
 18 20  1  0
 18 21  1  0
 29 31  1  0
 31 32  1  0
 26 33  2  0
 37 38  1  0
 38 39  2  0
 39 34  1  0
 33 22  1  0
 31 25  1  0
  6  1  1  0
 14  9  1  0
 14  4  1  0
 21 11  1  0
M  CHG  1  18   1
M  END
>  <minimizedAffinity>  (320) 
-17.06460

$$$$
Mol: 189_50 - SminaDock
     RDKit          3D

 36 42  0  0  0  0  0  0  0  0999 V2000
   11.3038    8.1471   -5.9431 C   0  0  0  0  0  0  0  0  0  0  0  0
   11.4127    9.2918   -6.6747 C   0  0  0  0  0  0  0  0  0  0  0  0
   11.0305    9.3339   -7.9987 C   0  0  0  0  0  0  0  0  0  0  0  0
   10.5234    8.2191   -8.6341 C   0  0  0  0  0  0  0  0  0  0  0  0
   10.4028    7.0462   -7.9147 C   0  0  0  0  0  0  0  0  0  0  0  0
    9.9178    5.9205   -8.4657 N   0  0  0  0  0  0  0  0  0  0  0  0
    9.5425    5.9676   -9.7723 C   0  0  0  0  0  0  0  0  0  0  0  0
    9.6599    7.1308  -10.4926 C   0  0  0  0  0  0  0  0  0  0  0  0
    9.3020    7.1557  -11.7199 N   0  0  0  0  0  0  0  0  0  0  0  0
   10.1466    8.2326   -9.9132 N   0  0  0  0  0  0  0  0  0  0  0  0
   10.2549    9.1485  -10.4264 H   0  0  0  0  0  0  0  0  0  0  0  0
   10.7903    7.0212   -6.5890 C   0  0  0  0  0  0  0  0  0  0  0  0
    8.7881    5.9865  -12.3266 C   0  0  0  0  0  0  0  0  0  0  0  0
    9.4660    5.3339  -13.3306 C   0  0  0  0  0  0  0  0  0  0  0  0
    8.9274    4.1800  -13.9071 C   0  0  0  0  0  0  0  0  0  0  0  0
    7.7106    3.6765  -13.4809 C   0  0  0  0  0  0  0  0  0  0  0  0
    7.0473    4.3395  -12.4783 C   0  0  0  0  0  0  0  0  0  0  0  0
    7.5768    5.4983  -11.8916 C   0  0  0  0  0  0  0  0  0  0  0  0
    5.7795    3.6465  -12.1727 C   0  0  0  0  0  0  0  0  0  0  0  0
    5.7403    2.4912  -13.0942 C   0  0  0  0  0  0  0  0  0  0  0  0
    4.7826    1.4825  -13.2612 C   0  0  0  0  0  0  0  0  0  0  0  0
    4.9716    0.4943  -14.2031 C   0  0  0  0  0  0  0  0  0  0  0  0
    6.1237    0.5425  -14.9591 C   0  0  0  0  0  0  0  0  0  0  0  0
    7.0695    1.5324  -14.7992 C   0  0  0  0  0  0  0  0  0  0  0  0
    6.8848    2.5339  -13.8494 C   0  0  0  0  0  0  0  0  0  0  0  0
    6.0495   -0.6129  -15.8570 C   0  0  0  0  0  0  0  0  0  0  0  0
    6.9624   -0.8710  -16.6991 O   0  0  0  0  0  0  0  0  0  0  0  0
    4.8712   -1.3051  -15.6120 O   0  0  0  0  0  0  0  0  0  0  0  0
    4.1640   -0.6722  -14.6037 C   0  0  0  0  0  0  0  0  0  0  0  0
    3.0529   -0.9898  -14.0977 O   0  0  0  0  0  0  0  0  0  0  0  0
   12.4202    7.8403   -1.8948 C   0  0  0  0  0  0  0  0  0  0  0  0
   12.0584    6.6926   -2.5685 C   0  0  0  0  0  0  0  0  0  0  0  0
   11.6990    6.8330   -3.8935 C   0  0  0  0  0  0  0  0  0  0  0  0
   11.6900    8.0423   -4.5442 C   0  0  0  0  0  0  0  0  0  0  0  0
   12.0597    9.1622   -3.8286 C   0  0  0  0  0  0  0  0  0  0  0  0
   12.4276    9.0789   -2.5032 C   0  0  0  0  0  0  0  0  0  0  0  0
 31 32  2  0
 32 33  1  0
 33 34  2  0
 34  1  1  0
  1  2  2  0
  2  3  1  0
  3  4  2  0
  4  5  1  0
  5  6  1  0
  6  7  2  0
  7  8  1  0
  8  9  2  0
  9 13  1  0
 13 14  2  0
 14 15  1  0
 15 16  2  0
 16 17  1  0
 17 18  2  0
 17 19  1  0
 19 20  1  0
 20 21  2  0
 21 22  1  0
 22 23  2  0
 23 24  1  0
 24 25  2  0
 23 26  1  0
 26 27  2  0
 26 28  1  0
 28 29  1  0
 29 30  2  0
  8 10  1  0
 10 11  1  0
  5 12  2  0
 34 35  1  0
 35 36  2  0
 36 31  1  0
 12  1  1  0
 10  4  1  0
 18 13  1  0
 25 20  1  0
 25 16  1  0
 29 22  1  0
M  END
>  <minimizedAffinity>  (321) 
-17.05725

$$$$
Mol: 193_1 - SminaDock
     RDKit          3D

 43 50  0  0  0  0  0  0  0  0999 V2000
    9.7660    4.0984  -18.1389 H   0  0  0  0  0  0  0  0  0  0  0  0
   10.2296    3.3907  -17.5300 N   0  0  0  0  0  0  0  0  0  0  0  0
    9.6280    2.7340  -16.6069 C   0  0  0  0  0  0  0  0  0  0  0  0
   10.2381    1.7923  -15.7944 O   0  0  0  0  0  0  0  0  0  0  0  0
    9.3461    1.4040  -14.7548 C   0  0  0  0  0  0  0  0  0  0  0  0
    8.0818    2.1918  -15.0053 C   0  0  2  0  0  0  0  0  0  0  0  0
    7.9078    3.2624  -13.9977 C   0  0  0  0  0  0  0  0  0  0  0  0
    8.6866    4.3296  -13.5772 C   0  0  0  0  0  0  0  0  0  0  0  0
    8.2881    5.2045  -12.5898 C   0  0  0  0  0  0  0  0  0  0  0  0
    7.0608    5.0408  -11.9677 C   0  0  0  0  0  0  0  0  0  0  0  0
    6.2992    3.9786  -12.3946 C   0  0  0  0  0  0  0  0  0  0  0  0
    6.6942    3.0916  -13.3902 C   0  0  0  0  0  0  0  0  0  0  0  0
    6.0338    1.9208  -13.9772 C   0  0  0  0  0  0  0  0  0  0  0  0
    4.7931    1.3544  -13.6948 C   0  0  0  0  0  0  0  0  0  0  0  0
    4.3626    0.2544  -14.3697 C   0  0  0  0  0  0  0  0  0  0  0  0
    5.1925   -0.2717  -15.3332 C   0  0  0  0  0  0  0  0  0  0  0  0
    4.8224   -1.3961  -16.0676 C   0  0  0  0  0  0  0  0  0  0  0  0
    5.6600   -1.9002  -17.0181 C   0  0  0  0  0  0  0  0  0  0  0  0
    6.8498   -1.3332  -17.2687 N   0  0  0  0  0  0  0  0  0  0  0  0
    7.2708   -0.2342  -16.5872 C   0  0  0  0  0  0  0  0  0  0  0  0
    6.4268    0.2780  -15.6257 C   0  0  0  0  0  0  0  0  0  0  0  0
    6.8660    1.4026  -14.9348 C   0  0  0  0  0  0  0  0  0  0  0  0
    8.2585    2.8701  -16.2798 N   0  0  1  0  0  0  0  0  0  0  0  0
    8.0592    3.9077  -16.2192 H   0  0  0  0  0  0  0  0  0  0  0  0
    7.6005    2.5136  -16.9851 H   0  0  0  0  0  0  0  0  0  0  0  0
    9.0998    6.2917  -12.1714 N   0  0  0  0  0  0  0  0  0  0  0  0
    9.4455    6.4070  -10.9454 C   0  0  0  0  0  0  0  0  0  0  0  0
    9.0345    5.4815  -10.0258 C   0  0  0  0  0  0  0  0  0  0  0  0
    9.3731    5.5458   -8.6890 C   0  0  0  0  0  0  0  0  0  0  0  0
   10.1609    6.5897   -8.2615 C   0  0  0  0  0  0  0  0  0  0  0  0
   10.5402    6.7201   -6.9425 C   0  0  0  0  0  0  0  0  0  0  0  0
   11.3290    7.7616   -6.5062 C   0  0  0  0  0  0  0  0  0  0  0  0
   11.7301    8.6812   -7.4521 C   0  0  0  0  0  0  0  0  0  0  0  0
   11.3613    8.5705   -8.7825 C   0  0  0  0  0  0  0  0  0  0  0  0
   10.5642    7.5129   -9.2078 C   0  0  0  0  0  0  0  0  0  0  0  0
   10.2164    7.4190  -10.4971 N   0  0  0  0  0  0  0  0  0  0  0  0
   10.5186    8.1174  -11.2261 H   0  0  0  0  0  0  0  0  0  0  0  0
   11.7078    7.8618   -5.1012 C   0  0  0  0  0  0  0  0  0  0  0  0
   12.3552    8.9677   -4.5959 C   0  0  0  0  0  0  0  0  0  0  0  0
   12.7157    9.0629   -3.2558 C   0  0  0  0  0  0  0  0  0  0  0  0
   12.4133    8.0083   -2.3979 C   0  0  0  0  0  0  0  0  0  0  0  0
   11.7720    6.9041   -2.8798 C   0  0  0  0  0  0  0  0  0  0  0  0
   11.4283    6.8432   -4.2182 C   0  0  0  0  0  0  0  0  0  0  0  0
  1  2  1  0
  2  3  2  0
  3  4  1  0
  4  5  1  0
  6  5  1  1
  6  7  1  0
  7  8  2  0
  8  9  1  0
  9 26  1  0
 26 27  2  0
 27 28  1  0
 28 29  2  0
 29 30  1  0
 30 31  2  0
 31 32  1  0
 32 38  1  0
 38 39  2  0
 39 40  1  0
 40 41  2  0
 41 42  1  0
 42 43  2  0
 32 33  2  0
 33 34  1  0
 34 35  2  0
 35 36  1  0
 36 37  1  0
  9 10  2  0
 10 11  1  0
 11 12  2  0
 12 13  1  0
 13 14  2  0
 14 15  1  0
 15 16  2  0
 16 17  1  0
 17 18  2  0
 18 19  1  0
 19 20  2  0
 20 21  1  0
 21 22  2  0
  6 23  1  0
 23 24  1  1
 23 25  1  0
 23  3  1  0
 22  6  1  0
 12  7  1  0
 22 13  1  0
 36 27  1  0
 21 16  1  0
 35 30  1  0
 43 38  1  0
M  CHG  1  23   1
M  END
>  <minimizedAffinity>  (322) 
-17.09681

$$$$
Mol: 141_43 - SminaDock
     RDKit          3D

 39 45  0  0  0  0  0  0  0  0999 V2000
    4.0793   -2.6587  -17.1028 H   0  0  0  0  0  0  0  0  0  0  0  0
    4.9686   -2.6773  -16.6188 O   0  0  0  0  0  0  0  0  0  0  0  0
    5.3135   -1.4911  -15.9365 C   0  0  0  0  0  0  0  0  0  0  0  0
    4.4651   -0.9073  -15.0891 N   0  0  0  0  0  0  0  0  0  0  0  0
    4.7803    0.2298  -14.4271 C   0  0  0  0  0  0  0  0  0  0  0  0
    3.9795    0.7577  -13.6441 O   0  0  0  0  0  0  0  0  0  0  0  0
    6.0236    0.7886  -14.6487 C   0  0  0  0  0  0  0  0  0  0  0  0
    6.4450    1.9676  -14.0096 C   0  0  0  0  0  0  0  0  0  0  0  0
    7.6988    2.4498  -14.2916 C   0  0  0  0  0  0  0  0  0  0  0  0
    8.5408    1.8233  -15.1667 C   0  0  0  0  0  0  0  0  0  0  0  0
    8.1088    0.7051  -15.7565 N   0  0  0  0  0  0  0  0  0  0  0  0
    6.9080    0.1909  -15.5244 C   0  0  0  0  0  0  0  0  0  0  0  0
    6.5203   -0.9597  -16.1596 N   0  0  0  0  0  0  0  0  0  0  0  0
    8.1135    3.6983  -13.6030 C   0  0  0  0  0  0  0  0  0  0  0  0
    9.3461    4.2255  -13.8357 C   0  0  0  0  0  0  0  0  0  0  0  0
    9.7073    5.4047  -13.1640 C   0  0  0  0  0  0  0  0  0  0  0  0
    8.8655    6.0422  -12.2847 C   0  0  0  0  0  0  0  0  0  0  0  0
    7.6297    5.4884  -12.0698 C   0  0  0  0  0  0  0  0  0  0  0  0
    7.2506    4.3139  -12.7294 C   0  0  0  0  0  0  0  0  0  0  0  0
    5.9080    3.8397  -12.4089 C   0  0  0  0  0  0  0  0  0  0  0  0
    5.4711    2.5767  -13.0754 C   0  0  0  0  0  0  0  0  0  0  0  0
    9.2921    7.2408  -11.6297 N   0  0  0  0  0  0  0  0  0  0  0  0
    9.6466    7.1511  -10.4011 C   0  0  0  0  0  0  0  0  0  0  0  0
    9.6429    6.0092   -9.6940 N   0  0  0  0  0  0  0  0  0  0  0  0
   10.0171    5.9261   -8.4054 C   0  0  0  0  0  0  0  0  0  0  0  0
   10.4273    7.0889   -7.7829 C   0  0  0  0  0  0  0  0  0  0  0  0
   10.8311    7.1100   -6.4638 C   0  0  0  0  0  0  0  0  0  0  0  0
   11.2428    8.2575   -5.8282 C   0  0  0  0  0  0  0  0  0  0  0  0
   11.2513    9.4335   -6.5411 C   0  0  0  0  0  0  0  0  0  0  0  0
   10.8471    9.4273   -7.8708 C   0  0  0  0  0  0  0  0  0  0  0  0
   10.4324    8.2595   -8.5036 C   0  0  0  0  0  0  0  0  0  0  0  0
   10.0492    8.2997   -9.7947 N   0  0  0  0  0  0  0  0  0  0  0  0
   10.0663    9.2038  -10.3082 H   0  0  0  0  0  0  0  0  0  0  0  0
   11.6484    8.1564   -4.4327 C   0  0  0  0  0  0  0  0  0  0  0  0
   12.0086    9.2646   -3.6723 C   0  0  0  0  0  0  0  0  0  0  0  0
   12.3905    9.1463   -2.3538 C   0  0  0  0  0  0  0  0  0  0  0  0
   12.4271    7.9110   -1.7421 C   0  0  0  0  0  0  0  0  0  0  0  0
   12.0754    6.7946   -2.4707 C   0  0  0  0  0  0  0  0  0  0  0  0
   11.6955    6.9296   -3.7896 C   0  0  0  0  0  0  0  0  0  0  0  0
  1  2  1  0
  2  3  1  0
  3  4  2  0
  4  5  1  0
  5  6  2  0
  5  7  1  0
  7  8  2  0
  8  9  1  0
  9 10  2  0
 10 11  1  0
 11 12  2  0
 12 13  1  0
  9 14  1  0
 14 15  2  0
 15 16  1  0
 16 17  2  0
 17 22  1  0
 22 23  2  0
 23 24  1  0
 24 25  2  0
 25 26  1  0
 26 27  2  0
 27 28  1  0
 28 34  1  0
 34 35  2  0
 35 36  1  0
 36 37  2  0
 37 38  1  0
 38 39  2  0
 28 29  2  0
 29 30  1  0
 30 31  2  0
 31 32  1  0
 32 33  1  0
 17 18  1  0
 18 19  2  0
 19 20  1  0
 20 21  1  0
 13  3  1  0
 19 14  1  0
 12  7  1  0
 32 23  1  0
 21  8  1  0
 31 26  1  0
 39 34  1  0
M  CHG  1  13  -1
M  END
>  <minimizedAffinity>  (323) 
-17.10980

$$$$
Mol: 140_56 - SminaDock
     RDKit          3D

 38 44  0  0  0  0  0  0  0  0999 V2000
    2.2245   -1.9812  -15.1371 H   0  0  0  0  0  0  0  0  0  0  0  0
    2.7178   -1.2275  -14.6872 O   0  0  0  0  0  0  0  0  0  0  0  0
    3.9310   -0.7170  -15.1064 C   0  0  0  0  0  0  0  0  0  0  0  0
    4.5994   -1.1311  -16.1055 N   0  0  0  0  0  0  0  0  0  0  0  0
    5.8285   -0.3938  -16.2868 C   0  0  0  0  0  0  0  0  0  0  0  0
    5.8437    0.6058  -15.1953 C   0  0  0  0  0  0  0  0  0  0  0  0
    4.6566    0.3829  -14.4793 C   0  0  0  0  0  0  0  0  0  0  0  0
    4.3779    1.1761  -13.3765 C   0  0  0  0  0  0  0  0  0  0  0  0
    5.2355    2.1974  -12.9442 C   0  0  0  0  0  0  0  0  0  0  0  0
    6.3645    2.3625  -13.6809 C   0  0  0  0  0  0  0  0  0  0  0  0
    6.6922    1.5933  -14.7931 C   0  0  0  0  0  0  0  0  0  0  0  0
    7.9208    1.6547  -15.6434 C   0  0  0  0  0  0  0  0  0  0  0  0
    9.1662    1.5569  -14.7924 C   0  0  0  0  0  0  0  0  0  0  0  0
    9.4142    2.5913  -13.9139 O   0  0  0  0  0  0  0  0  0  0  0  0
    8.5918    3.5134  -13.3144 C   0  0  0  0  0  0  0  0  0  0  0  0
    9.2285    4.6079  -12.7841 C   0  0  0  0  0  0  0  0  0  0  0  0
    8.5077    5.6015  -12.1616 C   0  0  0  0  0  0  0  0  0  0  0  0
    7.1347    5.5114  -12.0629 C   0  0  0  0  0  0  0  0  0  0  0  0
    6.4447    4.4147  -12.5891 C   0  0  0  0  0  0  0  0  0  0  0  0
    7.1915    3.4463  -13.1978 C   0  0  0  0  0  0  0  0  0  0  0  0
    9.2390    6.7112  -11.6323 N   0  0  0  0  0  0  0  0  0  0  0  0
    9.5876    6.7842  -10.3917 C   0  0  0  0  0  0  0  0  0  0  0  0
    9.2399    5.7704   -9.5884 N   0  0  0  0  0  0  0  0  0  0  0  0
    9.5815    5.8096   -8.3027 C   0  0  0  0  0  0  0  0  0  0  0  0
   10.2854    6.9015   -7.8449 C   0  0  0  0  0  0  0  0  0  0  0  0
   10.6428    6.9394   -6.4924 C   0  0  0  0  0  0  0  0  0  0  0  0
   11.3415    8.0082   -6.0056 C   0  0  0  0  0  0  0  0  0  0  0  0
   11.6895    9.0372   -6.8401 C   0  0  0  0  0  0  0  0  0  0  0  0
   11.3432    9.0221   -8.1975 C   0  0  0  0  0  0  0  0  0  0  0  0
   10.6349    7.9365   -8.6862 C   0  0  0  0  0  0  0  0  0  0  0  0
   10.2647    7.8451   -9.9745 N   0  0  0  0  0  0  0  0  0  0  0  0
   10.5412    8.6434  -10.5955 H   0  0  0  0  0  0  0  0  0  0  0  0
   11.7102    8.0442   -4.6024 C   0  0  0  0  0  0  0  0  0  0  0  0
   11.6825    6.8740   -3.8722 C   0  0  0  0  0  0  0  0  0  0  0  0
   12.0286    6.8846   -2.5397 C   0  0  0  0  0  0  0  0  0  0  0  0
   12.4050    8.0586   -1.9217 C   0  0  0  0  0  0  0  0  0  0  0  0
   12.4349    9.2318   -2.6447 C   0  0  0  0  0  0  0  0  0  0  0  0
   12.0906    9.2272   -3.9751 C   0  0  0  0  0  0  0  0  0  0  0  0
  1  2  1  0
  2  3  1  0
  3  4  2  0
  4  5  1  0
  5  6  1  0
  6  7  2  0
  7  8  1  0
  8  9  2  0
  9 10  1  0
 10 11  2  0
 11 12  1  0
 12 13  1  0
 13 14  1  0
 14 15  1  0
 15 16  2  0
 16 17  1  0
 17 21  1  0
 21 22  2  0
 22 23  1  0
 23 24  2  0
 24 25  1  0
 25 26  2  0
 26 27  1  0
 27 33  1  0
 33 34  2  0
 34 35  1  0
 35 36  2  0
 36 37  1  0
 37 38  2  0
 27 28  2  0
 28 29  1  0
 29 30  2  0
 30 31  1  0
 31 32  1  0
 17 18  2  0
 18 19  1  0
 19 20  2  0
  7  3  1  0
 20 10  1  0
 11  6  1  0
 20 15  1  0
 31 22  1  0
 30 25  1  0
 38 33  1  0
M  END
>  <minimizedAffinity>  (324) 
-17.09425

$$$$
Mol: 191_22 - SminaDock
     RDKit          3D

 42 48  0  0  0  0  0  0  0  0999 V2000
    8.7034    5.8248  -12.2496 C   0  0  0  0  0  0  0  0  0  0  0  0
    7.5128    5.2997  -11.8091 C   0  0  0  0  0  0  0  0  0  0  0  0
    6.9438    4.1465  -12.3520 C   0  0  0  0  0  0  0  0  0  0  0  0
    7.6446    3.5475  -13.3702 C   0  0  0  0  0  0  0  0  0  0  0  0
    8.8506    4.0601  -13.8312 C   0  0  0  0  0  0  0  0  0  0  0  0
    9.6098    3.5291  -14.8139 N   0  0  0  0  0  0  0  0  0  0  0  0
    9.7706    2.2058  -15.1290 C   0  0  0  0  0  0  0  0  0  0  0  0
   10.8516    1.9053  -15.6797 O   0  0  0  0  0  0  0  0  0  0  0  0
    8.8508    1.1966  -14.8911 C   0  0  0  0  0  0  0  0  0  0  0  0
    9.2369    0.0335  -15.0420 O   0  0  0  0  0  0  0  0  0  0  0  0
    7.5610    1.3695  -14.5068 C   0  0  0  0  0  0  0  0  0  0  0  0
    6.5280    0.4711  -14.7577 C   0  0  0  0  0  0  0  0  0  0  0  0
    6.5417   -0.7328  -15.3972 C   0  0  0  0  0  0  0  0  0  0  0  0
    5.3599   -1.4712  -15.5311 C   0  0  0  0  0  0  0  0  0  0  0  0
    5.3683   -2.7282  -16.1972 N   0  0  0  0  0  0  0  0  0  0  0  0
    6.2383   -3.1851  -16.4671 H   0  0  0  0  0  0  0  0  0  0  0  0
    4.4587   -3.1787  -16.4069 H   0  0  0  0  0  0  0  0  0  0  0  0
    4.2221   -0.9238  -14.9948 C   0  0  0  0  0  0  0  0  0  0  0  0
    4.1656    0.2808  -14.3458 C   0  0  0  0  0  0  0  0  0  0  0  0
    5.3537    0.9816  -14.2330 C   0  0  0  0  0  0  0  0  0  0  0  0
    5.6569    2.1767  -13.6669 N   0  0  0  0  0  0  0  0  0  0  0  0
    4.9541    2.7728  -13.2083 H   0  0  0  0  0  0  0  0  0  0  0  0
    6.9617    2.4266  -13.8170 C   0  0  0  0  0  0  0  0  0  0  0  0
    9.3910    5.1996  -13.2787 C   0  0  0  0  0  0  0  0  0  0  0  0
   11.2892    8.0380   -5.8152 C   0  0  0  0  0  0  0  0  0  0  0  0
   11.4037    9.1828   -6.5827 C   0  0  0  0  0  0  0  0  0  0  0  0
   11.0085    9.1789   -7.9011 C   0  0  0  0  0  0  0  0  0  0  0  0
   10.4864    8.0481   -8.5117 C   0  0  0  0  0  0  0  0  0  0  0  0
   10.3778    6.9166   -7.7376 C   0  0  0  0  0  0  0  0  0  0  0  0
   10.7709    6.9105   -6.4163 C   0  0  0  0  0  0  0  0  0  0  0  0
    9.8537    5.7815   -8.3511 C   0  0  0  0  0  0  0  0  0  0  0  0
    9.4626    5.7977   -9.6766 C   0  0  0  0  0  0  0  0  0  0  0  0
    9.5916    6.9587  -10.4116 C   0  0  0  0  0  0  0  0  0  0  0  0
    9.2335    7.0039  -11.6576 N   0  0  0  0  0  0  0  0  0  0  0  0
   10.1016    8.0476   -9.7989 N   0  0  0  0  0  0  0  0  0  0  0  0
   10.2032    8.9187  -10.3348 H   0  0  0  0  0  0  0  0  0  0  0  0
   12.5139    8.0051   -1.7348 C   0  0  0  0  0  0  0  0  0  0  0  0
   12.4544    9.1971   -2.4262 C   0  0  0  0  0  0  0  0  0  0  0  0
   12.0587    9.2176   -3.7486 C   0  0  0  0  0  0  0  0  0  0  0  0
   11.7124    8.0564   -4.4171 C   0  0  0  0  0  0  0  0  0  0  0  0
   11.7692    6.8690   -3.7366 C   0  0  0  0  0  0  0  0  0  0  0  0
   12.1691    6.8521   -2.4020 C   0  0  0  0  0  0  0  0  0  0  0  0
 37 38  2  0
 38 39  1  0
 39 40  2  0
 40 25  1  0
 25 26  2  0
 26 27  1  0
 27 28  2  0
 28 29  1  0
 29 30  2  0
 29 31  1  0
 31 32  2  0
 32 33  1  0
 33 34  2  0
 34  1  1  0
  1  2  2  0
  2  3  1  0
  3  4  2  0
  4  5  1  0
  5  6  1  0
  6  7  1  0
  7  8  2  0
  7  9  1  0
  9 10  2  0
  9 11  1  0
 11 12  1  0
 12 13  2  0
 13 14  1  0
 14 15  1  0
 15 16  1  0
 15 17  1  0
 14 18  2  0
 18 19  1  0
 19 20  2  0
 20 21  1  0
 21 22  1  0
 21 23  1  0
  5 24  2  0
 33 35  1  0
 35 36  1  0
 40 41  1  0
 41 42  2  0
 42 37  1  0
 30 25  1  0
 24  1  1  0
 35 28  1  0
 23  4  1  0
 23 11  2  0
 20 12  1  0
M  CHG  1   6  -1
M  END
>  <minimizedAffinity>  (325) 
-17.09824

$$$$
Mol: 191_27 - SminaDock
     RDKit          3D

 39 45  0  0  0  0  0  0  0  0999 V2000
    8.0287   -1.5699  -18.7369 H   0  0  0  0  0  0  0  0  0  0  0  0
    7.1912   -1.9316  -18.2630 O   0  0  0  0  0  0  0  0  0  0  0  0
    6.6338   -1.1808  -17.2340 C   0  0  0  0  0  0  0  0  0  0  0  0
    7.2384   -0.1048  -16.7014 N   0  0  0  0  0  0  0  0  0  0  0  0
    6.6842    0.6084  -15.7074 N   0  0  0  0  0  0  0  0  0  0  0  0
    7.3426    1.6877  -15.2080 C   0  0  0  0  0  0  0  0  0  0  0  0
    8.4296    1.9448  -15.7132 O   0  0  0  0  0  0  0  0  0  0  0  0
    6.7729    2.4036  -14.2012 C   0  0  0  0  0  0  0  0  0  0  0  0
    5.5347    2.0529  -13.6760 C   0  0  0  0  0  0  0  0  0  0  0  0
    4.8806    0.9480  -14.2007 C   0  0  0  0  0  0  0  0  0  0  0  0
    5.4904    0.2516  -15.2172 C   0  0  0  0  0  0  0  0  0  0  0  0
    4.8795   -0.8292  -15.7499 N   0  0  0  0  0  0  0  0  0  0  0  0
    5.4043   -1.5648  -16.7437 C   0  0  0  0  0  0  0  0  0  0  0  0
    4.8311    2.7520  -12.5928 C   0  0  0  0  0  0  0  0  0  0  0  0
    5.5258    3.9264  -12.0401 C   0  0  0  0  0  0  0  0  0  0  0  0
    6.8342    4.2578  -12.6282 C   0  0  0  0  0  0  0  0  0  0  0  0
    7.4541    5.3800  -12.0668 C   0  0  0  0  0  0  0  0  0  0  0  0
    8.6615    5.7925  -12.5175 C   0  0  0  0  0  0  0  0  0  0  0  0
    9.2643    5.0956  -13.5283 C   0  0  0  0  0  0  0  0  0  0  0  0
    8.6876    3.9669  -14.1241 C   0  0  0  0  0  0  0  0  0  0  0  0
    7.4567    3.5708  -13.6436 C   0  0  0  0  0  0  0  0  0  0  0  0
    9.2835    6.9355  -11.9404 N   0  0  0  0  0  0  0  0  0  0  0  0
    9.5975    6.9047  -10.7025 C   0  0  0  0  0  0  0  0  0  0  0  0
    9.3357    5.7843   -9.9499 C   0  0  0  0  0  0  0  0  0  0  0  0
    9.6929    5.7968   -8.6147 C   0  0  0  0  0  0  0  0  0  0  0  0
   10.3007    6.8962   -8.0222 C   0  0  0  0  0  0  0  0  0  0  0  0
   10.6553    6.9017   -6.6853 C   0  0  0  0  0  0  0  0  0  0  0  0
   11.2601    8.0018   -6.1054 C   0  0  0  0  0  0  0  0  0  0  0  0
   11.4892    9.0870   -6.9275 C   0  0  0  0  0  0  0  0  0  0  0  0
   11.1361    9.0836   -8.2612 C   0  0  0  0  0  0  0  0  0  0  0  0
   10.5298    7.9813   -8.8434 C   0  0  0  0  0  0  0  0  0  0  0  0
   10.1857    7.9782  -10.1437 N   0  0  0  0  0  0  0  0  0  0  0  0
   10.3618    8.8038  -10.7617 H   0  0  0  0  0  0  0  0  0  0  0  0
   11.6376    8.0125   -4.6905 C   0  0  0  0  0  0  0  0  0  0  0  0
   11.6330    6.8221   -3.9957 C   0  0  0  0  0  0  0  0  0  0  0  0
   11.9858    6.7899   -2.6465 C   0  0  0  0  0  0  0  0  0  0  0  0
   12.3466    7.9349   -1.9702 C   0  0  0  0  0  0  0  0  0  0  0  0
   12.3497    9.1273   -2.6713 C   0  0  0  0  0  0  0  0  0  0  0  0
   11.9999    9.1497   -4.0044 C   0  0  0  0  0  0  0  0  0  0  0  0
  1  2  1  0
  2  3  1  0
  3  4  2  0
  4  5  1  0
  5  6  1  0
  6  7  2  0
  6  8  1  0
  8  9  2  0
  9 10  1  0
 10 11  2  0
 11 12  1  0
 12 13  2  0
  9 14  1  0
 14 15  1  0
 15 16  1  0
 16 17  2  0
 17 18  1  0
 18 22  1  0
 22 23  2  0
 23 24  1  0
 24 25  2  0
 25 26  1  0
 26 27  2  0
 27 28  1  0
 28 34  1  0
 34 35  2  0
 35 36  1  0
 36 37  2  0
 37 38  1  0
 38 39  2  0
 28 29  2  0
 29 30  1  0
 30 31  2  0
 31 32  1  0
 32 33  1  0
 18 19  2  0
 19 20  1  0
 20 21  2  0
 13  3  1  0
 21 16  1  0
 11  5  1  0
 32 23  1  0
 21  8  1  0
 31 26  1  0
 39 34  1  0
M  END
>  <minimizedAffinity>  (326) 
-17.05577

$$$$
Mol: 140_27 - SminaDock
     RDKit          3D

 40 46  0  0  0  0  0  0  0  0999 V2000
    8.7415    5.8512  -12.4846 C   0  0  0  0  0  0  0  0  0  0  0  0
    9.3619    5.2292  -13.5346 C   0  0  0  0  0  0  0  0  0  0  0  0
    8.8035    4.1115  -14.1665 C   0  0  0  0  0  0  0  0  0  0  0  0
    9.6804    3.4156  -15.4783 Cl  0  0  0  0  0  0  0  0  0  0  0  0
    7.6043    3.6409  -13.7096 C   0  0  0  0  0  0  0  0  0  0  0  0
    6.9469    4.2473  -12.6466 C   0  0  0  0  0  0  0  0  0  0  0  0
    7.5398    5.3593  -12.0459 C   0  0  0  0  0  0  0  0  0  0  0  0
    5.6703    3.8488  -12.0631 C   0  0  0  0  0  0  0  0  0  0  0  0
    5.0154    2.6909  -12.6651 C   0  0  0  0  0  0  0  0  0  0  0  0
    5.7120    2.0534  -13.7834 C   0  0  0  0  0  0  0  0  0  0  0  0
    5.1181    0.9338  -14.3884 C   0  0  0  0  0  0  0  0  0  0  0  0
    5.6778    0.2590  -15.4400 C   0  0  0  0  0  0  0  0  0  0  0  0
    6.8764    0.7047  -15.9197 C   0  0  0  0  0  0  0  0  0  0  0  0
    7.5119    1.8206  -15.3494 C   0  0  0  0  0  0  0  0  0  0  0  0
    6.9271    2.4731  -14.2998 C   0  0  0  0  0  0  0  0  0  0  0  0
    7.5356    0.0425  -17.0348 C   0  0  0  0  0  0  0  0  0  0  0  0
    8.6447    0.4696  -17.4649 O   0  0  0  0  0  0  0  0  0  0  0  0
    6.9417   -1.0968  -17.6589 N   0  0  0  0  0  0  0  0  0  0  0  0
    7.3646   -1.6132  -18.4599 H   0  0  0  0  0  0  0  0  0  0  0  0
    5.6950   -1.5337  -17.1349 C   0  0  0  0  0  0  0  0  0  0  0  0
    5.1370   -2.5522  -17.6748 O   0  0  0  0  0  0  0  0  0  0  0  0
    4.9708   -0.9236  -16.0180 C   0  0  0  0  0  0  0  0  0  0  0  0
   11.2578    7.9792   -6.0086 C   0  0  0  0  0  0  0  0  0  0  0  0
   11.4641    9.0930   -6.7985 C   0  0  0  0  0  0  0  0  0  0  0  0
   11.1088    9.0909   -8.1330 C   0  0  0  0  0  0  0  0  0  0  0  0
   10.5382    7.9918   -8.7352 C   0  0  0  0  0  0  0  0  0  0  0  0
   10.1886    7.9887  -10.0457 N   0  0  0  0  0  0  0  0  0  0  0  0
    9.6316    6.9104  -10.6255 C   0  0  0  0  0  0  0  0  0  0  0  0
    9.3276    6.9787  -11.8646 N   0  0  0  0  0  0  0  0  0  0  0  0
    9.4322    5.8280   -9.8540 N   0  0  0  0  0  0  0  0  0  0  0  0
    8.9967    4.9653  -10.2810 H   0  0  0  0  0  0  0  0  0  0  0  0
    9.7580    5.7732   -8.5511 C   0  0  0  0  0  0  0  0  0  0  0  0
   10.3253    6.8713   -7.9610 C   0  0  0  0  0  0  0  0  0  0  0  0
   10.6865    6.8769   -6.6087 C   0  0  0  0  0  0  0  0  0  0  0  0
   12.3978    8.0875   -1.8837 C   0  0  0  0  0  0  0  0  0  0  0  0
   12.0777    6.9043   -2.5151 C   0  0  0  0  0  0  0  0  0  0  0  0
   11.7073    6.8663   -3.8529 C   0  0  0  0  0  0  0  0  0  0  0  0
   11.6457    8.0196   -4.6045 C   0  0  0  0  0  0  0  0  0  0  0  0
   11.9693    9.2038   -3.9609 C   0  0  0  0  0  0  0  0  0  0  0  0
   12.3365    9.2422   -2.6345 C   0  0  0  0  0  0  0  0  0  0  0  0
 35 36  2  0
 36 37  1  0
 37 38  2  0
 38 23  1  0
 23 24  1  0
 24 25  2  0
 25 26  1  0
 26 27  2  0
 27 28  1  0
 28 29  2  0
 29  1  1  0
  1  2  2  0
  2  3  1  0
  3  4  1  0
  3  5  2  0
  5  6  1  0
  6  7  2  0
  6  8  1  0
  8  9  1  0
  9 10  1  0
 10 11  2  0
 11 12  1  0
 12 13  2  0
 13 14  1  0
 14 15  2  0
 13 16  1  0
 16 17  2  0
 16 18  1  0
 18 19  1  0
 18 20  1  0
 20 21  2  0
 20 22  1  0
 28 30  1  0
 30 31  1  0
 30 32  1  0
 32 33  2  0
 33 34  1  0
 38 39  1  0
 39 40  2  0
 40 35  1  0
 34 23  2  0
 33 26  1  0
  7  1  1  0
 15 10  1  0
 15  5  1  0
 22 12  1  0
M  END
>  <minimizedAffinity>  (327) 
-17.07007

$$$$
Mol: 146_42 - SminaDock
     RDKit          3D

 39 45  0  0  0  0  0  0  0  0999 V2000
    2.5152    1.1546  -14.4322 H   0  0  0  0  0  0  0  0  0  0  0  0
    3.0643    0.5045  -13.8880 O   0  0  0  0  0  0  0  0  0  0  0  0
    4.1933   -0.0358  -14.4814 C   0  0  0  0  0  0  0  0  0  0  0  0
    5.4272    0.4830  -14.4906 C   0  0  0  0  0  0  0  0  0  0  0  0
    5.8794    1.6937  -13.9057 C   0  0  0  0  0  0  0  0  0  0  0  0
    7.1847    2.0310  -14.0356 C   0  0  0  0  0  0  0  0  0  0  0  0
    8.0733    1.1948  -14.7404 C   0  0  0  0  0  0  0  0  0  0  0  0
    7.5840    0.0255  -15.2925 C   0  0  0  0  0  0  0  0  0  0  0  0
    6.2627   -0.3348  -15.1701 C   0  0  0  0  0  0  0  0  0  0  0  0
    5.5001   -1.5224  -15.6632 C   0  0  0  0  0  0  0  0  0  0  0  0
    4.1693   -1.2631  -15.1827 N   0  0  0  0  0  0  0  0  0  0  0  0
    3.3396   -1.8877  -15.3361 H   0  0  0  0  0  0  0  0  0  0  0  0
    9.3437    1.5001  -14.8944 C   0  0  0  0  0  0  0  0  0  0  0  0
    9.9690    2.7018  -14.3800 C   0  0  0  0  0  0  0  0  0  0  0  0
    9.0641    3.5912  -13.6341 C   0  0  0  0  0  0  0  0  0  0  0  0
    9.6047    4.7469  -13.1083 C   0  0  0  0  0  0  0  0  0  0  0  0
    8.8073    5.5913  -12.4102 C   0  0  0  0  0  0  0  0  0  0  0  0
    7.4890    5.2840  -12.2397 C   0  0  0  0  0  0  0  0  0  0  0  0
    6.8777    4.1144  -12.7538 C   0  0  0  0  0  0  0  0  0  0  0  0
    5.4679    3.8805  -12.4724 C   0  0  0  0  0  0  0  0  0  0  0  0
    7.7059    3.2788  -13.4572 C   0  0  0  0  0  0  0  0  0  0  0  0
    9.3709    6.7758  -11.8750 N   0  0  0  0  0  0  0  0  0  0  0  0
    9.6929    6.7929  -10.6073 C   0  0  0  0  0  0  0  0  0  0  0  0
   10.2299    7.8963  -10.0601 N   0  0  0  0  0  0  0  0  0  0  0  0
   10.5777    7.9661   -8.7653 C   0  0  0  0  0  0  0  0  0  0  0  0
   11.1286    9.0819   -8.1782 C   0  0  0  0  0  0  0  0  0  0  0  0
   11.4591    9.0726   -6.8360 C   0  0  0  0  0  0  0  0  0  0  0  0
   11.2543    7.9630   -6.0406 C   0  0  0  0  0  0  0  0  0  0  0  0
   10.7091    6.8578   -6.6205 C   0  0  0  0  0  0  0  0  0  0  0  0
   10.3730    6.8557   -7.9684 C   0  0  0  0  0  0  0  0  0  0  0  0
    9.8238    5.7238   -8.5228 C   0  0  0  0  0  0  0  0  0  0  0  0
    9.5038    5.7275   -9.8132 N   0  0  0  0  0  0  0  0  0  0  0  0
    9.0823    4.8753  -10.2632 H   0  0  0  0  0  0  0  0  0  0  0  0
   11.6182    7.9998   -4.6286 C   0  0  0  0  0  0  0  0  0  0  0  0
   11.5935    6.8698   -3.8605 C   0  0  0  0  0  0  0  0  0  0  0  0
   11.9310    6.8784   -2.5294 C   0  0  0  0  0  0  0  0  0  0  0  0
   12.3048    8.0576   -1.9521 C   0  0  0  0  0  0  0  0  0  0  0  0
   12.3393    9.2134   -2.7015 C   0  0  0  0  0  0  0  0  0  0  0  0
   11.9956    9.1777   -4.0365 C   0  0  0  0  0  0  0  0  0  0  0  0
  1  2  1  0
  2  3  1  0
  3  4  2  0
  4  5  1  0
  5  6  2  0
  6  7  1  0
  7  8  1  0
  8  9  2  0
  9 10  1  0
 10 11  1  0
 11 12  1  0
  7 13  2  0
 13 14  1  0
 14 15  1  0
 15 16  2  0
 16 17  1  0
 17 22  1  0
 22 23  2  0
 23 24  1  0
 24 25  2  0
 25 26  1  0
 26 27  2  0
 27 28  1  0
 28 34  1  0
 34 35  2  0
 35 36  1  0
 36 37  2  0
 37 38  1  0
 38 39  2  0
 28 29  2  0
 29 30  1  0
 30 31  2  0
 31 32  1  0
 32 33  1  0
 17 18  2  0
 18 19  1  0
 19 20  1  0
 19 21  2  0
 11  3  1  0
 21 15  1  0
  9  4  1  0
 32 23  1  0
 21  6  1  0
 30 25  1  0
 39 34  1  0
M  END
>  <minimizedAffinity>  (328) 
-17.08761

$$$$
Mol: 145_49 - SminaDock
     RDKit          3D

 38 44  0  0  0  0  0  0  0  0999 V2000
    8.7270    5.7490  -12.3462 C   0  0  0  0  0  0  0  0  0  0  0  0
    9.2801    5.1996  -13.4663 C   0  0  0  0  0  0  0  0  0  0  0  0
    8.7011    4.1220  -14.1706 C   0  0  0  0  0  0  0  0  0  0  0  0
    7.5231    3.5893  -13.7186 C   0  0  0  0  0  0  0  0  0  0  0  0
    6.9476    4.1386  -12.5790 C   0  0  0  0  0  0  0  0  0  0  0  0
    7.5464    5.1989  -11.9117 C   0  0  0  0  0  0  0  0  0  0  0  0
    5.6890    3.6385  -12.0331 C   0  0  0  0  0  0  0  0  0  0  0  0
    5.0837    2.4770  -12.7046 C   0  0  0  0  0  0  0  0  0  0  0  0
    5.7276    1.9694  -13.9101 C   0  0  0  0  0  0  0  0  0  0  0  0
    6.9144    2.4653  -14.4314 C   0  0  0  0  0  0  0  0  0  0  0  0
    7.4639    1.9206  -15.5687 C   0  0  0  0  0  0  0  0  0  0  0  0
    8.5095    2.3274  -16.0623 O   0  0  0  0  0  0  0  0  0  0  0  0
    6.8361    0.9021  -16.1685 N   0  0  0  0  0  0  0  0  0  0  0  0
    7.4030    0.3137  -17.3720 C   0  0  0  0  0  0  0  0  0  0  0  0
    5.6875    0.3797  -15.7142 C   0  0  0  0  0  0  0  0  0  0  0  0
    5.0562   -0.6804  -16.3614 C   0  0  0  0  0  0  0  0  0  0  0  0
    3.8769   -1.2309  -15.9132 C   0  0  0  0  0  0  0  0  0  0  0  0
    3.3301   -0.6841  -14.7761 C   0  0  0  0  0  0  0  0  0  0  0  0
    3.9325    0.3674  -14.1122 C   0  0  0  0  0  0  0  0  0  0  0  0
    5.1306    0.9102  -14.5862 C   0  0  0  0  0  0  0  0  0  0  0  0
   11.2935    8.0099   -5.8925 C   0  0  0  0  0  0  0  0  0  0  0  0
   11.5427    9.0982   -6.7091 C   0  0  0  0  0  0  0  0  0  0  0  0
   11.1955    9.0692   -8.0420 C   0  0  0  0  0  0  0  0  0  0  0  0
   10.5931    7.9638   -8.6021 C   0  0  0  0  0  0  0  0  0  0  0  0
   10.2519    7.9441   -9.9268 N   0  0  0  0  0  0  0  0  0  0  0  0
    9.6678    6.8588  -10.4484 C   0  0  0  0  0  0  0  0  0  0  0  0
    9.3529    6.8403  -11.6680 N   0  0  0  0  0  0  0  0  0  0  0  0
    9.4172    5.7936   -9.6759 N   0  0  0  0  0  0  0  0  0  0  0  0
    8.9623    4.9137  -10.0218 H   0  0  0  0  0  0  0  0  0  0  0  0
    9.7419    5.7763   -8.3553 C   0  0  0  0  0  0  0  0  0  0  0  0
   10.3478    6.8832   -7.7825 C   0  0  0  0  0  0  0  0  0  0  0  0
   10.6918    6.9022   -6.4459 C   0  0  0  0  0  0  0  0  0  0  0  0
   12.3753    8.1846   -1.8873 C   0  0  0  0  0  0  0  0  0  0  0  0
   12.2750    9.3592   -2.6159 C   0  0  0  0  0  0  0  0  0  0  0  0
   11.9183    9.2932   -3.9348 C   0  0  0  0  0  0  0  0  0  0  0  0
   11.6727    8.0742   -4.4909 C   0  0  0  0  0  0  0  0  0  0  0  0
   11.7611    6.8884   -3.8044 C   0  0  0  0  0  0  0  0  0  0  0  0
   12.1194    6.9523   -2.4782 C   0  0  0  0  0  0  0  0  0  0  0  0
 33 34  2  0
 34 35  1  0
 35 36  2  0
 36 21  1  0
 21 22  1  0
 22 23  2  0
 23 24  1  0
 24 25  2  0
 25 26  1  0
 26 27  2  0
 27  1  1  0
  1  2  2  0
  2  3  1  0
  3  4  2  0
  4  5  1  0
  5  6  2  0
  5  7  1  0
  7  8  1  0
  8  9  1  0
  9 10  2  0
 10 11  1  0
 11 12  2  0
 11 13  1  0
 13 14  1  0
 13 15  1  0
 15 16  2  0
 16 17  1  0
 17 18  2  0
 18 19  1  0
 19 20  2  0
 26 28  1  0
 28 29  1  0
 28 30  1  0
 30 31  2  0
 31 32  1  0
 36 37  1  0
 37 38  2  0
 38 33  1  0
 32 21  2  0
 31 24  1  0
  6  1  1  0
 20  9  1  0
 10  4  1  0
 20 15  1  0
M  END
>  <minimizedAffinity>  (329) 
-17.09990

$$$$
Mol: 102_35 - SminaDock
     RDKit          3D

 52 60  0  0  0  0  0  0  0  0999 V2000
    6.1527    0.0475  -14.9286 C   0  0  0  0  0  0  0  0  0  0  0  0
    7.4197    0.2784  -15.4205 C   0  0  0  0  0  0  0  0  0  0  0  0
    8.1379    1.4230  -15.1568 C   0  0  0  0  0  0  0  0  0  0  0  0
    7.5612    2.3848  -14.3612 C   0  0  0  0  0  0  0  0  0  0  0  0
    8.1945    3.5576  -14.0320 C   0  0  0  0  0  0  0  0  0  0  0  0
    7.6430    4.5469  -13.2261 C   0  0  0  0  0  0  0  0  0  0  0  0
    6.3587    4.3212  -12.7231 C   0  0  0  0  0  0  0  0  0  0  0  0
    5.6905    3.1657  -13.0247 C   0  0  0  0  0  0  0  0  0  0  0  0
    6.2746    2.2035  -13.8325 C   0  0  0  0  0  0  0  0  0  0  0  0
    5.5914    1.0390  -14.1242 C   0  0  0  0  0  0  0  0  0  0  0  0
    8.3025    5.7403  -12.8975 N   0  0  0  0  0  0  0  0  0  0  0  0
    8.8008    5.9485  -11.7475 C   0  0  0  0  0  0  0  0  0  0  0  0
    8.7035    4.9865  -10.7758 C   0  0  0  0  0  0  0  0  0  0  0  0
    9.2093    5.2009   -9.4916 C   0  0  0  0  0  0  0  0  0  0  0  0
    9.8075    6.4359   -9.2688 C   0  0  0  0  0  0  0  0  0  0  0  0
   10.3242    6.7399   -8.0056 C   0  0  0  0  0  0  0  0  0  0  0  0
   10.9128    7.9422   -7.7127 C   0  0  0  0  0  0  0  0  0  0  0  0
   10.9902    8.8854   -8.7310 C   0  0  0  0  0  0  0  0  0  0  0  0
   10.4925    8.6190   -9.9848 C   0  0  0  0  0  0  0  0  0  0  0  0
    9.8988    7.3938  -10.2579 C   0  0  0  0  0  0  0  0  0  0  0  0
    9.3901    7.1213  -11.4767 N   0  0  0  0  0  0  0  0  0  0  0  0
    9.4915    7.8896  -12.1884 H   0  0  0  0  0  0  0  0  0  0  0  0
   11.4269    8.2558   -6.3870 C   0  0  0  0  0  0  0  0  0  0  0  0
   12.0754    9.4197   -6.1571 C   0  0  0  0  0  0  0  0  0  0  0  0
   12.5637    9.6903   -4.8983 C   0  0  0  0  0  0  0  0  0  0  0  0
   12.4071    8.8002   -3.8638 C   0  0  0  0  0  0  0  0  0  0  0  0
   12.8766    9.0144   -2.5752 C   0  0  0  0  0  0  0  0  0  0  0  0
   12.6992    8.0975   -1.5768 C   0  0  0  0  0  0  0  0  0  0  0  0
   12.0294    6.9137   -1.8501 C   0  0  0  0  0  0  0  0  0  0  0  0
   11.5568    6.6788   -3.1089 C   0  0  0  0  0  0  0  0  0  0  0  0
   11.7452    7.6222   -4.1176 C   0  0  0  0  0  0  0  0  0  0  0  0
   11.2473    7.3254   -5.3639 C   0  0  0  0  0  0  0  0  0  0  0  0
    9.4711    1.6256  -15.7148 C   0  0  1  0  0  0  0  0  0  0  0  0
   10.2668    0.3706  -15.5004 C   0  0  0  0  0  0  0  0  0  0  0  0
    9.8204   -0.7029  -16.3666 N   0  0  0  0  0  0  0  0  0  0  0  0
    9.5831   -1.6606  -16.0543 H   0  0  0  0  0  0  0  0  0  0  0  0
    9.7138   -0.3741  -17.7440 C   0  0  0  0  0  0  0  0  0  0  0  0
    9.5903   -1.2754  -18.6084 O   0  0  0  0  0  0  0  0  0  0  0  0
    9.7469    1.0197  -18.1648 C   0  0  0  0  0  0  0  0  0  0  0  0
    9.4011    2.0500  -17.1785 C   0  0  0  0  0  0  0  0  0  0  0  0
    5.4436   -1.1487  -15.1795 N   0  0  0  0  0  0  0  0  0  0  0  0
    5.1736   -1.7617  -14.3824 H   0  0  0  0  0  0  0  0  0  0  0  0
    5.9604   -4.2374  -20.3208 C   0  0  0  0  0  0  0  0  0  0  0  0
    4.8902   -3.6865  -21.0218 C   0  0  0  0  0  0  0  0  0  0  0  0
    4.1566   -2.7233  -20.3894 C   0  0  0  0  0  0  0  0  0  0  0  0
    4.4786   -2.3220  -19.1012 C   0  0  0  0  0  0  0  0  0  0  0  0
    3.7384   -1.3530  -18.4645 C   0  0  0  0  0  0  0  0  0  0  0  0
    4.0539   -0.9552  -17.1873 C   0  0  0  0  0  0  0  0  0  0  0  0
    5.1077   -1.5056  -16.5065 C   0  0  0  0  0  0  0  0  0  0  0  0
    5.8272   -2.4667  -17.1626 N   0  0  0  0  0  0  0  0  0  0  0  0
    5.5371   -2.8641  -18.3995 C   0  0  0  0  0  0  0  0  0  0  0  0
    6.2737   -3.8318  -19.0365 C   0  0  0  0  0  0  0  0  0  0  0  0
 43 44  2  0
 44 45  1  0
 45 46  2  0
 46 47  1  0
 47 48  2  0
 48 49  1  0
 49 41  1  0
 41 42  1  0
 41  1  1  0
  1  2  2  0
  2  3  1  0
 33  3  1  6
 33 34  1  0
 34 35  1  0
 35 36  1  0
 35 37  1  0
 37 38  2  0
 37 39  1  0
 39 40  1  0
  3  4  2  0
  4  5  1  0
  5  6  2  0
  6 11  1  0
 11 12  2  0
 12 13  1  0
 13 14  2  0
 14 15  1  0
 15 16  2  0
 16 17  1  0
 17 23  1  0
 23 24  2  0
 24 25  1  0
 25 26  2  0
 26 27  1  0
 27 28  2  0
 28 29  1  0
 29 30  2  0
 30 31  1  0
 31 32  2  0
 17 18  2  0
 18 19  1  0
 19 20  2  0
 20 21  1  0
 21 22  1  0
  6  7  1  0
  7  8  2  0
  8  9  1  0
  9 10  2  0
 49 50  2  0
 50 51  1  0
 51 52  2  0
 52 43  1  0
 51 46  1  0
 10  1  1  0
 40 33  1  0
  9  4  1  0
 21 12  1  0
 20 15  1  0
 32 23  1  0
 31 26  1  0
M  END
>  <minimizedAffinity>  (330) 
-17.07692

$$$$
Mol: 193_47 - SminaDock
     RDKit          3D

 43 50  0  0  0  0  0  0  0  0999 V2000
   10.0372    3.6322  -19.0944 H   0  0  0  0  0  0  0  0  0  0  0  0
   10.6068    3.2600  -18.3266 O   0  0  0  0  0  0  0  0  0  0  0  0
    9.9509    2.6953  -17.2125 C   0  0  0  0  0  0  0  0  0  0  0  0
    8.7211    2.8745  -16.8823 N   0  0  0  0  0  0  0  0  0  0  0  0
    8.4263    2.1299  -15.6845 C   0  0  1  0  0  0  0  0  0  0  0  0
    9.7010    1.4491  -15.3229 C   0  0  0  0  0  0  0  0  0  0  0  0
    9.8249    0.7082  -14.3287 O   0  0  0  0  0  0  0  0  0  0  0  0
   10.6347    1.8370  -16.3181 N   0  0  0  0  0  0  0  0  0  0  0  0
   11.6221    1.5053  -16.3165 H   0  0  0  0  0  0  0  0  0  0  0  0
    8.0118    2.9645  -14.5624 C   0  0  0  0  0  0  0  0  0  0  0  0
    8.5850    4.0662  -13.9170 C   0  0  0  0  0  0  0  0  0  0  0  0
    8.0052    4.7116  -12.8554 C   0  0  0  0  0  0  0  0  0  0  0  0
    6.7921    4.2435  -12.4059 C   0  0  0  0  0  0  0  0  0  0  0  0
    6.1984    3.1588  -13.0194 C   0  0  0  0  0  0  0  0  0  0  0  0
    6.8003    2.5100  -14.1007 C   0  0  0  0  0  0  0  0  0  0  0  0
    6.3910    1.3549  -14.9193 C   0  0  0  0  0  0  0  0  0  0  0  0
    7.3681    1.1410  -15.8565 C   0  0  0  0  0  0  0  0  0  0  0  0
    7.1929    0.0774  -16.7600 C   0  0  0  0  0  0  0  0  0  0  0  0
    6.0765   -0.7116  -16.6945 C   0  0  0  0  0  0  0  0  0  0  0  0
    5.0871   -0.4961  -15.7465 C   0  0  0  0  0  0  0  0  0  0  0  0
    5.2492    0.5441  -14.8559 C   0  0  0  0  0  0  0  0  0  0  0  0
    4.1253    0.4972  -14.0624 C   0  0  0  0  0  0  0  0  0  0  0  0
    3.2999   -0.5441  -14.4590 C   0  0  0  0  0  0  0  0  0  0  0  0
    3.9119   -1.1372  -15.4929 N   0  0  0  0  0  0  0  0  0  0  0  0
    3.5412   -1.9481  -16.0051 H   0  0  0  0  0  0  0  0  0  0  0  0
    8.6050    5.8061  -12.2357 N   0  0  0  0  0  0  0  0  0  0  0  0
    9.0270    5.9069  -11.0466 C   0  0  0  0  0  0  0  0  0  0  0  0
    8.9491    4.8814  -10.1325 C   0  0  0  0  0  0  0  0  0  0  0  0
    9.4304    5.0380   -8.8265 C   0  0  0  0  0  0  0  0  0  0  0  0
    9.9848    6.2230   -8.4524 C   0  0  0  0  0  0  0  0  0  0  0  0
   10.4861    6.4679   -7.1856 C   0  0  0  0  0  0  0  0  0  0  0  0
   11.0457    7.6763   -6.8240 C   0  0  0  0  0  0  0  0  0  0  0  0
   11.1082    8.6887   -7.7706 C   0  0  0  0  0  0  0  0  0  0  0  0
   10.6094    8.4502   -9.0364 C   0  0  0  0  0  0  0  0  0  0  0  0
   10.0510    7.2418   -9.3952 C   0  0  0  0  0  0  0  0  0  0  0  0
    9.5797    7.0606  -10.6424 N   0  0  0  0  0  0  0  0  0  0  0  0
    9.6624    7.8710  -11.2994 H   0  0  0  0  0  0  0  0  0  0  0  0
   11.5631    7.8946   -5.4811 C   0  0  0  0  0  0  0  0  0  0  0  0
   11.3849    6.9317   -4.4986 C   0  0  0  0  0  0  0  0  0  0  0  0
   11.8601    7.0996   -3.2173 C   0  0  0  0  0  0  0  0  0  0  0  0
   12.5330    8.2584   -2.9007 C   0  0  0  0  0  0  0  0  0  0  0  0
   12.7327    9.2424   -3.8472 C   0  0  0  0  0  0  0  0  0  0  0  0
   12.2425    9.0448   -5.1291 C   0  0  0  0  0  0  0  0  0  0  0  0
  1  2  1  0
  2  3  1  0
  3  4  2  0
  5  4  1  6
  5  6  1  0
  6  7  2  0
  6  8  1  0
  8  9  1  0
  5 10  1  0
 10 11  2  0
 11 12  1  0
 12 26  1  0
 26 27  2  0
 27 28  1  0
 28 29  2  0
 29 30  1  0
 30 31  2  0
 31 32  1  0
 32 38  1  0
 38 39  2  0
 39 40  1  0
 40 41  2  0
 41 42  1  0
 42 43  2  0
 32 33  2  0
 33 34  1  0
 34 35  2  0
 35 36  1  0
 36 37  1  0
 12 13  2  0
 13 14  1  0
 14 15  2  0
 15 16  1  0
 16 17  2  0
 17 18  1  0
 18 19  2  0
 19 20  1  0
 20 21  2  0
 21 22  1  0
 22 23  2  0
 23 24  1  0
 24 25  1  0
  8  3  1  0
 15 10  1  0
 21 16  1  0
 17  5  1  0
 24 20  1  0
 36 27  1  0
 35 30  1  0
 43 38  1  0
M  END
>  <minimizedAffinity>  (331) 
-17.11961

$$$$
Mol: 140_33 - SminaDock
     RDKit          3D

 45 51  0  0  0  0  0  0  0  0999 V2000
   10.8168    1.3569  -16.4303 N   0  0  0  0  0  0  0  0  0  0  0  0
   10.8324    2.7992  -16.3394 C   0  0  0  0  0  0  0  0  0  0  0  0
    9.4027    3.2373  -16.2254 C   0  0  0  0  0  0  0  0  0  0  0  0
    8.6266    2.5033  -15.1385 C   0  0  1  0  0  0  0  0  0  0  0  0
    8.0858    3.4308  -14.1441 C   0  0  0  0  0  0  0  0  0  0  0  0
    8.7779    4.5573  -13.7174 C   0  0  0  0  0  0  0  0  0  0  0  0
    8.3330    5.3959  -12.7239 C   0  0  0  0  0  0  0  0  0  0  0  0
    7.1262    5.1183  -12.0996 C   0  0  0  0  0  0  0  0  0  0  0  0
    6.4184    4.0114  -12.5016 C   0  0  0  0  0  0  0  0  0  0  0  0
    6.9018    3.1806  -13.5181 C   0  0  0  0  0  0  0  0  0  0  0  0
    6.0170    2.0762  -13.9397 C   0  0  0  0  0  0  0  0  0  0  0  0
    4.9003    1.7929  -13.2350 N   0  0  0  0  0  0  0  0  0  0  0  0
    4.1924    0.7261  -13.6042 N   0  0  0  0  0  0  0  0  0  0  0  0
    3.3133    0.4616  -13.0875 H   0  0  0  0  0  0  0  0  0  0  0  0
    4.5463   -0.0571  -14.6303 C   0  0  0  0  0  0  0  0  0  0  0  0
    3.8175   -1.0660  -14.9256 O   0  0  0  0  0  0  0  0  0  0  0  0
    5.6741    0.2317  -15.3423 C   0  0  0  0  0  0  0  0  0  0  0  0
    6.4436    1.3321  -14.9983 C   0  0  0  0  0  0  0  0  0  0  0  0
    7.5957    1.6978  -15.8173 C   0  0  0  0  0  0  0  0  0  0  0  0
    9.5425    1.5229  -14.4134 C   0  0  0  0  0  0  0  0  0  0  0  0
   10.3377    0.6265  -15.2821 C   0  0  0  0  0  0  0  0  0  0  0  0
    9.0529    6.5420  -12.2997 N   0  0  0  0  0  0  0  0  0  0  0  0
    9.4179    6.6283  -11.0757 C   0  0  0  0  0  0  0  0  0  0  0  0
   10.1066    7.6870  -10.5931 N   0  0  0  0  0  0  0  0  0  0  0  0
   10.4758    7.7489   -9.3049 C   0  0  0  0  0  0  0  0  0  0  0  0
   11.1794    8.8171   -8.7843 C   0  0  0  0  0  0  0  0  0  0  0  0
   11.5534    8.8702   -7.4601 C   0  0  0  0  0  0  0  0  0  0  0  0
   11.2389    7.8497   -6.5874 C   0  0  0  0  0  0  0  0  0  0  0  0
   10.5354    6.7809   -7.1068 C   0  0  0  0  0  0  0  0  0  0  0  0
   10.1620    6.7257   -8.4241 C   0  0  0  0  0  0  0  0  0  0  0  0
    9.4618    5.6677   -8.9529 C   0  0  0  0  0  0  0  0  0  0  0  0
    9.1104    5.6349  -10.2317 N   0  0  0  0  0  0  0  0  0  0  0  0
    8.5759    4.8022  -10.5838 H   0  0  0  0  0  0  0  0  0  0  0  0
   11.6264    7.8973   -5.2003 C   0  0  0  0  0  0  0  0  0  0  0  0
   11.3588    6.8581   -4.3281 C   0  0  0  0  0  0  0  0  0  0  0  0
   11.7434    6.9328   -3.0033 C   0  0  0  0  0  0  0  0  0  0  0  0
   12.4016    8.0568   -2.5458 C   0  0  0  0  0  0  0  0  0  0  0  0
   12.6761    9.1029   -3.4039 C   0  0  0  0  0  0  0  0  0  0  0  0
   12.2887    9.0199   -4.7247 C   0  0  0  0  0  0  0  0  0  0  0  0
    9.3818   -1.9036  -17.3433 H   0  0  0  0  0  0  0  0  0  0  0  0
   10.1909   -1.3706  -17.0110 O   0  0  0  0  0  0  0  0  0  0  0  0
   10.9434   -0.5890  -17.8184 N   0  0  0  0  0  0  0  0  0  0  0  0
   11.2433    0.6565  -17.5771 C   0  0  0  0  0  0  0  0  0  0  0  0
   12.0388    1.2587  -18.5657 O   0  0  0  0  0  0  0  0  0  0  0  0
   11.8753    1.0909  -19.5555 H   0  0  0  0  0  0  0  0  0  0  0  0
 40 41  1  0
 41 42  1  0
 42 43  2  0
 43 44  1  0
 44 45  1  0
 43  1  1  0
  1  2  1  0
  2  3  1  0
  4  3  1  6
  4  5  1  0
  5  6  2  0
  6  7  1  0
  7 22  1  0
 22 23  2  0
 23 24  1  0
 24 25  2  0
 25 26  1  0
 26 27  2  0
 27 28  1  0
 28 34  1  0
 34 35  2  0
 35 36  1  0
 36 37  2  0
 37 38  1  0
 38 39  2  0
 28 29  2  0
 29 30  1  0
 30 31  2  0
 31 32  1  0
 32 33  1  0
  7  8  2  0
  8  9  1  0
  9 10  2  0
 10 11  1  0
 11 12  2  0
 12 13  1  0
 13 14  1  0
 13 15  1  0
 15 16  2  0
 15 17  1  0
 17 18  2  0
 18 19  1  0
  4 20  1  0
 20 21  1  0
 21  1  1  0
 19  4  1  0
 10  5  1  0
 18 11  1  0
 32 23  1  0
 30 25  1  0
 39 34  1  0
M  END
>  <minimizedAffinity>  (332) 
-17.08978

$$$$
Mol: 140_35 - SminaDock
     RDKit          3D

 41 48  0  0  0  0  0  0  0  0999 V2000
    9.0395    6.3614  -12.3177 C   0  0  0  0  0  0  0  0  0  0  0  0
    9.8392    5.7862  -13.2913 C   0  0  0  0  0  0  0  0  0  0  0  0
    9.4245    4.6583  -13.9870 C   0  0  0  0  0  0  0  0  0  0  0  0
    8.1967    4.1057  -13.7009 C   0  0  0  0  0  0  0  0  0  0  0  0
    7.3666    4.6501  -12.7374 C   0  0  0  0  0  0  0  0  0  0  0  0
    7.8144    5.7873  -12.0526 C   0  0  0  0  0  0  0  0  0  0  0  0
    6.0222    4.1558  -12.4111 C   0  0  0  0  0  0  0  0  0  0  0  0
    5.7064    2.8094  -12.8996 C   0  0  0  0  0  0  0  0  0  0  0  0
    6.5283    2.3295  -14.0077 C   0  0  0  0  0  0  0  0  0  0  0  0
    6.0866    1.1889  -14.7218 C   0  0  0  0  0  0  0  0  0  0  0  0
    6.8796    0.6926  -15.7277 C   0  0  0  0  0  0  0  0  0  0  0  0
    8.0812    1.2385  -16.0847 C   0  0  0  0  0  0  0  0  0  0  0  0
    8.5104    2.3696  -15.3724 C   0  0  0  0  0  0  0  0  0  0  0  0
    7.7279    2.8812  -14.3615 C   0  0  0  0  0  0  0  0  0  0  0  0
    8.6505    0.4627  -17.1815 C   0  0  2  0  0  0  0  0  0  0  0  0
    7.7547   -0.5440  -17.4569 O   0  0  0  0  0  0  0  0  0  0  0  0
    6.6715   -0.4613  -16.6182 C   0  0  0  0  0  0  0  0  0  0  0  0
    5.6502   -1.2212  -16.5809 O   0  0  0  0  0  0  0  0  0  0  0  0
    9.9259   -0.2088  -16.6428 C   0  0  0  0  0  0  0  0  0  0  0  0
   10.4402   -1.0834  -17.7641 C   0  0  0  0  0  0  0  0  0  0  0  0
   10.7320   -0.3284  -18.8769 O   0  0  0  0  0  0  0  0  0  0  0  0
   10.4699    1.0261  -18.7008 C   0  0  0  0  0  0  0  0  0  0  0  0
    9.0247    1.3008  -18.3807 C   0  0  0  0  0  0  0  0  0  0  0  0
   11.3511    8.2587   -5.6640 C   0  0  0  0  0  0  0  0  0  0  0  0
   11.3370    9.4697   -6.3241 C   0  0  0  0  0  0  0  0  0  0  0  0
   10.9505    9.5754   -7.6512 C   0  0  0  0  0  0  0  0  0  0  0  0
   10.5643    8.4553   -8.3560 C   0  0  0  0  0  0  0  0  0  0  0  0
   10.5718    7.2322   -7.7118 C   0  0  0  0  0  0  0  0  0  0  0  0
   10.1847    6.1329   -8.4297 C   0  0  0  0  0  0  0  0  0  0  0  0
    9.8205    6.2881   -9.7081 N   0  0  0  0  0  0  0  0  0  0  0  0
    9.8050    7.4607  -10.3533 C   0  0  0  0  0  0  0  0  0  0  0  0
    9.4376    7.5134  -11.5902 N   0  0  0  0  0  0  0  0  0  0  0  0
   10.1822    8.5458   -9.6604 N   0  0  0  0  0  0  0  0  0  0  0  0
   10.1865    9.4781  -10.1185 H   0  0  0  0  0  0  0  0  0  0  0  0
   10.9633    7.1446   -6.3769 C   0  0  0  0  0  0  0  0  0  0  0  0
   12.5204    7.8460   -1.6035 C   0  0  0  0  0  0  0  0  0  0  0  0
   12.4919    9.0878   -2.1880 C   0  0  0  0  0  0  0  0  0  0  0  0
   12.1061    9.2070   -3.5205 C   0  0  0  0  0  0  0  0  0  0  0  0
   11.7531    8.1237   -4.2703 C   0  0  0  0  0  0  0  0  0  0  0  0
   11.7805    6.8661   -3.6831 C   0  0  0  0  0  0  0  0  0  0  0  0
   12.1622    6.7554   -2.3673 C   0  0  0  0  0  0  0  0  0  0  0  0
 36 37  2  0
 37 38  1  0
 38 39  2  0
 39 24  1  0
 24 25  2  0
 25 26  1  0
 26 27  2  0
 27 28  1  0
 28 29  1  0
 29 30  2  0
 30 31  1  0
 31 32  2  0
 32  1  1  0
  1  2  2  0
  2  3  1  0
  3  4  2  0
  4  5  1  0
  5  6  2  0
  5  7  1  0
  7  8  1  0
  8  9  1  0
  9 10  2  0
 10 11  1  0
 11 12  2  0
 12 13  1  0
 13 14  2  0
 12 15  1  0
 15 16  1  0
 16 17  1  0
 17 18  2  0
 15 19  1  1
 19 20  1  0
 20 21  1  0
 21 22  1  0
 22 23  1  0
 31 33  1  0
 33 34  1  0
 28 35  2  0
 39 40  1  0
 40 41  2  0
 41 36  1  0
 35 24  1  0
 33 27  1  0
  6  1  1  0
 14  9  1  0
 23 15  1  0
 14  4  1  0
 17 11  1  0
M  END
>  <minimizedAffinity>  (333) 
-17.08120

$$$$
Mol: 177_47 - SminaDock
     RDKit          3D

 46 52  0  0  0  0  0  0  0  0999 V2000
    6.1871    0.0586  -16.5807 C   0  0  2  0  0  0  0  0  0  0  0  0
    5.4946    0.6411  -17.7089 N   0  0  0  0  0  0  0  0  0  0  0  0
    6.1980    0.9147  -18.4194 H   0  0  0  0  0  0  0  0  0  0  0  0
    4.8766    1.3907  -17.3905 H   0  0  0  0  0  0  0  0  0  0  0  0
    5.5431   -1.2265  -16.2862 C   0  0  0  0  0  0  0  0  0  0  0  0
    6.0672   -2.2883  -16.6823 O   0  0  0  0  0  0  0  0  0  0  0  0
    4.3700   -1.2675  -15.5790 O   0  0  0  0  0  0  0  0  0  0  0  0
    3.8901   -0.1957  -14.7894 C   0  0  0  0  0  0  0  0  0  0  0  0
    4.9471    0.8456  -14.6061 C   0  0  0  0  0  0  0  0  0  0  0  0
    4.8317    1.7164  -13.5497 C   0  0  0  0  0  0  0  0  0  0  0  0
    5.7589    2.7176  -13.2917 C   0  0  0  0  0  0  0  0  0  0  0  0
    6.8532    2.8661  -14.1170 C   0  0  0  0  0  0  0  0  0  0  0  0
    6.9665    1.9827  -15.1855 C   0  0  0  0  0  0  0  0  0  0  0  0
    6.0352    0.9908  -15.4296 C   0  0  0  0  0  0  0  0  0  0  0  0
    7.6866    3.9735  -13.6559 C   0  0  0  0  0  0  0  0  0  0  0  0
    8.8717    4.5080  -14.1403 C   0  0  0  0  0  0  0  0  0  0  0  0
    9.4418    5.5767  -13.4834 C   0  0  0  0  0  0  0  0  0  0  0  0
    8.8798    6.1441  -12.3530 C   0  0  0  0  0  0  0  0  0  0  0  0
    7.7020    5.6009  -11.8844 C   0  0  0  0  0  0  0  0  0  0  0  0
    7.1163    4.5312  -12.5286 C   0  0  0  0  0  0  0  0  0  0  0  0
    5.8870    3.7513  -12.2738 C   0  0  0  0  0  0  0  0  0  0  0  0
    5.0981    3.9561  -11.3368 O   0  0  0  0  0  0  0  0  0  0  0  0
    9.5155    7.2482  -11.7117 N   0  0  0  0  0  0  0  0  0  0  0  0
    9.8284    7.2031  -10.4465 C   0  0  0  0  0  0  0  0  0  0  0  0
   10.4283    8.2402   -9.8355 N   0  0  0  0  0  0  0  0  0  0  0  0
   10.7556    8.1996   -8.5230 C   0  0  0  0  0  0  0  0  0  0  0  0
   11.3711    9.2590   -7.8899 C   0  0  0  0  0  0  0  0  0  0  0  0
   11.7067    9.2216   -6.5515 C   0  0  0  0  0  0  0  0  0  0  0  0
   11.4374    8.1089   -5.7807 C   0  0  0  0  0  0  0  0  0  0  0  0
   10.8203    7.0472   -6.4167 C   0  0  0  0  0  0  0  0  0  0  0  0
   10.4845    7.0850   -7.7561 C   0  0  0  0  0  0  0  0  0  0  0  0
    9.8689    6.0280   -8.3948 C   0  0  0  0  0  0  0  0  0  0  0  0
    9.5545    6.1068   -9.7194 N   0  0  0  0  0  0  0  0  0  0  0  0
    9.0939    5.2966  -10.1636 H   0  0  0  0  0  0  0  0  0  0  0  0
   11.7924    8.0721   -4.3679 C   0  0  0  0  0  0  0  0  0  0  0  0
   12.1456    9.1818   -3.6334 C   0  0  0  0  0  0  0  0  0  0  0  0
   12.4766    9.1150   -2.2990 C   0  0  0  0  0  0  0  0  0  0  0  0
   12.4603    7.8901   -1.6486 C   0  0  0  0  0  0  0  0  0  0  0  0
   12.1149    6.7805   -2.3538 C   0  0  0  0  0  0  0  0  0  0  0  0
   11.7838    6.8669   -3.6990 C   0  0  0  0  0  0  0  0  0  0  0  0
    9.9721   -1.1424  -17.0954 H   0  0  0  0  0  0  0  0  0  0  0  0
    9.9040   -0.5984  -16.2577 O   0  0  0  0  0  0  0  0  0  0  0  0
    8.5919   -0.4572  -15.9587 N   0  0  0  0  0  0  0  0  0  0  0  0
    8.2152   -0.6131  -14.9778 H   0  0  0  0  0  0  0  0  0  0  0  0
    7.6162   -0.0897  -16.9293 C   0  0  0  0  0  0  0  0  0  0  0  0
    7.9829    0.1118  -18.1066 O   0  0  0  0  0  0  0  0  0  0  0  0
 41 42  1  0
 42 43  1  0
 43 44  1  0
 43 45  1  0
 45 46  2  0
 45  1  1  0
  1  2  1  6
  2  3  1  0
  2  4  1  0
  1  5  1  0
  5  6  2  0
  5  7  1  0
  7  8  1  0
  8  9  1  0
  9 10  2  0
 10 11  1  0
 11 12  2  0
 12 13  1  0
 13 14  2  0
 12 15  1  0
 15 16  2  0
 16 17  1  0
 17 18  2  0
 18 23  1  0
 23 24  2  0
 24 25  1  0
 25 26  2  0
 26 27  1  0
 27 28  2  0
 28 29  1  0
 29 35  1  0
 35 36  2  0
 36 37  1  0
 37 38  2  0
 38 39  1  0
 39 40  2  0
 29 30  2  0
 30 31  1  0
 31 32  2  0
 32 33  1  0
 33 34  1  0
 18 19  1  0
 19 20  2  0
 20 21  1  0
 21 22  2  0
 14  1  1  0
 20 15  1  0
 14  9  1  0
 33 24  1  0
 21 11  1  0
 31 26  1  0
 40 35  1  0
M  END
>  <minimizedAffinity>  (334) 
-17.08113

$$$$
Mol: 140_1 - SminaDock
     RDKit          3D

 38 44  0  0  0  0  0  0  0  0999 V2000
    4.3386   -2.5763  -15.5874 H   0  0  0  0  0  0  0  0  0  0  0  0
    4.2535   -1.6410  -15.9771 O   0  0  0  0  0  0  0  0  0  0  0  0
    5.3919   -0.8812  -16.0725 C   0  0  0  0  0  0  0  0  0  0  0  0
    6.4217   -1.0641  -16.9300 N   0  0  0  0  0  0  0  0  0  0  0  0
    7.3529   -0.1428  -16.7423 N   0  0  0  0  0  0  0  0  0  0  0  0
    8.5884   -0.0481  -17.4926 C   0  0  0  0  0  0  0  0  0  0  0  0
    6.9366    0.6583  -15.7513 C   0  0  0  0  0  0  0  0  0  0  0  0
    7.5428    1.7651  -15.1817 C   0  0  0  0  0  0  0  0  0  0  0  0
    6.9235    2.4360  -14.1697 C   0  0  0  0  0  0  0  0  0  0  0  0
    5.6957    1.9928  -13.7289 C   0  0  0  0  0  0  0  0  0  0  0  0
    5.0583    0.8847  -14.2808 C   0  0  0  0  0  0  0  0  0  0  0  0
    5.7097    0.2252  -15.3065 C   0  0  0  0  0  0  0  0  0  0  0  0
    5.0246    2.6463  -12.5917 C   0  0  0  0  0  0  0  0  0  0  0  0
    5.4399    4.0042  -12.2358 C   0  0  0  0  0  0  0  0  0  0  0  0
    6.8205    4.3482  -12.6177 C   0  0  0  0  0  0  0  0  0  0  0  0
    7.4230    5.4736  -12.0099 C   0  0  0  0  0  0  0  0  0  0  0  0
    8.6728    5.8638  -12.3866 C   0  0  0  0  0  0  0  0  0  0  0  0
    9.3250    5.1470  -13.3583 C   0  0  0  0  0  0  0  0  0  0  0  0
    8.7653    4.0464  -13.9676 C   0  0  0  0  0  0  0  0  0  0  0  0
    7.4931    3.6385  -13.5911 C   0  0  0  0  0  0  0  0  0  0  0  0
    9.3033    7.0016  -11.7838 N   0  0  0  0  0  0  0  0  0  0  0  0
    9.6418    6.9844  -10.5253 C   0  0  0  0  0  0  0  0  0  0  0  0
   10.2333    8.0416   -9.9441 N   0  0  0  0  0  0  0  0  0  0  0  0
   10.6004    8.0700   -8.6483 C   0  0  0  0  0  0  0  0  0  0  0  0
   11.2054    9.1712   -8.0850 C   0  0  0  0  0  0  0  0  0  0  0  0
   11.5669    9.1610   -6.7541 C   0  0  0  0  0  0  0  0  0  0  0  0
   11.3366    8.0604   -5.9540 C   0  0  0  0  0  0  0  0  0  0  0  0
   10.7308    6.9617   -6.5236 C   0  0  0  0  0  0  0  0  0  0  0  0
   10.3604    6.9617   -7.8721 C   0  0  0  0  0  0  0  0  0  0  0  0
    9.7570    5.8755   -8.4538 C   0  0  0  0  0  0  0  0  0  0  0  0
    9.4086    5.9015   -9.7624 N   0  0  0  0  0  0  0  0  0  0  0  0
    8.9434    5.0787  -10.2326 H   0  0  0  0  0  0  0  0  0  0  0  0
   11.7253    8.0461   -4.5200 C   0  0  0  0  0  0  0  0  0  0  0  0
   12.0578    9.2146   -3.8794 C   0  0  0  0  0  0  0  0  0  0  0  0
   12.4159    9.1922   -2.5536 C   0  0  0  0  0  0  0  0  0  0  0  0
   12.4461    7.9887   -1.8459 C   0  0  0  0  0  0  0  0  0  0  0  0
   12.1106    6.8234   -2.4987 C   0  0  0  0  0  0  0  0  0  0  0  0
   11.7571    6.8687   -3.8192 C   0  0  0  0  0  0  0  0  0  0  0  0
  1  2  1  0
  2  3  1  0
  3  4  2  0
  4  5  1  0
  5  6  1  0
  5  7  1  0
  7  8  2  0
  8  9  1  0
  9 10  2  0
 10 11  1  0
 11 12  2  0
 10 13  1  0
 13 14  1  0
 14 15  1  0
 15 16  2  0
 16 17  1  0
 17 21  1  0
 21 22  2  0
 22 23  1  0
 23 24  2  0
 24 25  1  0
 25 26  2  0
 26 27  1  0
 27 33  1  0
 33 34  2  0
 34 35  1  0
 35 36  2  0
 36 37  1  0
 37 38  2  0
 27 28  2  0
 28 29  1  0
 29 30  2  0
 30 31  1  0
 31 32  1  0
 17 18  2  0
 18 19  1  0
 19 20  2  0
 12  3  1  0
 20 15  1  0
 12  7  1  0
 31 22  1  0
 20  9  1  0
 29 24  1  0
 38 33  1  0
M  END
>  <minimizedAffinity>  (335) 
-17.07475

$$$$
Mol: 45_18 - SminaDock
     RDKit          3D

 43 49  0  0  0  0  0  0  0  0999 V2000
    8.9044    5.2351  -12.7318 C   0  0  0  0  0  0  0  0  0  0  0  0
    9.0858    6.0029  -11.6004 C   0  0  0  0  0  0  0  0  0  0  0  0
   10.2150    6.7361  -11.4524 C   0  0  0  0  0  0  0  0  0  0  0  0
   10.3925    7.5110  -10.3034 C   0  0  0  0  0  0  0  0  0  0  0  0
   11.5189    8.2721  -10.1038 C   0  0  0  0  0  0  0  0  0  0  0  0
   12.4752    8.2433  -11.0862 C   0  0  0  0  0  0  0  0  0  0  0  0
   12.3340    7.4821  -12.2475 C   0  0  0  0  0  0  0  0  0  0  0  0
   11.2045    6.7312  -12.4265 C   0  0  0  0  0  0  0  0  0  0  0  0
   11.0285    5.9604  -13.5709 C   0  0  0  0  0  0  0  0  0  0  0  0
   11.9709    5.9287  -14.5699 C   0  0  0  0  0  0  0  0  0  0  0  0
   11.7512    5.1599  -15.6945 C   0  0  0  0  0  0  0  0  0  0  0  0
   10.6186    4.4136  -15.8669 C   0  0  0  0  0  0  0  0  0  0  0  0
    9.6654    4.4477  -14.8525 C   0  0  0  0  0  0  0  0  0  0  0  0
    9.8523    5.2061  -13.7096 C   0  0  0  0  0  0  0  0  0  0  0  0
    3.6481   -1.0104  -15.4859 H   0  0  0  0  0  0  0  0  0  0  0  0
    4.5813   -1.4375  -15.4283 O   0  0  0  0  0  0  0  0  0  0  0  0
    5.7042   -0.6766  -15.2805 C   0  0  0  0  0  0  0  0  0  0  0  0
    6.8309   -0.8766  -16.1255 N   0  0  0  0  0  0  0  0  0  0  0  0
    7.2659   -0.1162  -16.6931 H   0  0  0  0  0  0  0  0  0  0  0  0
    7.2175   -1.8522  -16.1541 H   0  0  0  0  0  0  0  0  0  0  0  0
    5.7256    0.2430  -14.3440 N   0  0  0  0  0  0  0  0  0  0  0  0
    6.8819    1.0544  -14.1644 C   0  0  0  0  0  0  0  0  0  0  0  0
    8.0243    0.6066  -14.5202 O   0  0  0  0  0  0  0  0  0  0  0  0
    6.7230    2.3733  -13.5788 C   0  0  0  0  0  0  0  0  0  0  0  0
    7.8454    3.1649  -13.4081 C   0  0  0  0  0  0  0  0  0  0  0  0
    7.6999    4.4083  -12.8616 C   0  0  0  0  0  0  0  0  0  0  0  0
    6.4550    4.8464  -12.4955 C   0  0  0  0  0  0  0  0  0  0  0  0
    5.3323    4.0427  -12.6710 C   0  0  0  0  0  0  0  0  0  0  0  0
    5.4663    2.7935  -13.2179 C   0  0  0  0  0  0  0  0  0  0  0  0
    4.2598    1.9537  -13.3913 C   0  0  0  0  0  0  0  0  0  0  0  0
    4.6282    0.4837  -13.4639 C   0  0  0  0  0  0  0  0  0  0  0  0
   11.6526    9.0434   -8.9181 N   0  0  0  0  0  0  0  0  0  0  0  0
   11.6234    8.4844   -7.7375 C   0  0  0  0  0  0  0  0  0  0  0  0
   11.4613    7.1203   -7.5873 C   0  0  0  0  0  0  0  0  0  0  0  0
   11.4346    6.5611   -6.3291 C   0  0  0  0  0  0  0  0  0  0  0  0
   11.5679    7.3440   -5.2027 C   0  0  0  0  0  0  0  0  0  0  0  0
   11.5439    6.8037   -3.9315 C   0  0  0  0  0  0  0  0  0  0  0  0
   11.6813    7.6247   -2.8196 C   0  0  0  0  0  0  0  0  0  0  0  0
   11.8432    8.9862   -2.9675 C   0  0  0  0  0  0  0  0  0  0  0  0
   11.8626    9.4914   -4.2488 C   0  0  0  0  0  0  0  0  0  0  0  0
   11.7301    8.7170   -5.3797 C   0  0  0  0  0  0  0  0  0  0  0  0
   11.7506    9.2205   -6.6206 N   0  0  0  0  0  0  0  0  0  0  0  0
   11.8739   10.2514   -6.7098 H   0  0  0  0  0  0  0  0  0  0  0  0
 15 16  1  0
 16 17  1  0
 17 18  1  0
 18 19  1  0
 18 20  1  0
 17 21  2  0
 21 22  1  0
 22 23  2  0
 22 24  1  0
 24 25  2  0
 25 26  1  0
 26  1  1  0
  1  2  2  0
  2  3  1  0
  3  4  2  0
  4  5  1  0
  5 32  1  0
 32 33  2  0
 33 34  1  0
 34 35  2  0
 35 36  1  0
 36 37  2  0
 37 38  1  0
 38 39  2  0
 39 40  1  0
 40 41  2  0
 41 42  1  0
 42 43  1  0
  5  6  2  0
  6  7  1  0
  7  8  2  0
  8  9  1  0
  9 10  2  0
 10 11  1  0
 11 12  2  0
 12 13  1  0
 13 14  2  0
 26 27  2  0
 27 28  1  0
 28 29  2  0
 29 30  1  0
 30 31  1  0
 31 21  1  0
 29 24  1  0
 14  1  1  0
  8  3  1  0
 14  9  1  0
 42 33  1  0
 41 36  1  0
M  CHG  1  21   1
M  END
>  <minimizedAffinity>  (336) 
-17.11530

$$$$
Mol: 138_59 - SminaDock
     RDKit          3D

 37 43  0  0  0  0  0  0  0  0999 V2000
    8.9828    5.8289  -12.2844 C   0  0  0  0  0  0  0  0  0  0  0  0
    9.7726    5.0669  -13.0889 C   0  0  0  0  0  0  0  0  0  0  0  0
    9.2263    3.9149  -13.6436 C   0  0  0  0  0  0  0  0  0  0  0  0
    7.9233    3.5385  -13.3975 C   0  0  0  0  0  0  0  0  0  0  0  0
    7.1519    4.3372  -12.5758 C   0  0  0  0  0  0  0  0  0  0  0  0
    7.6913    5.4764  -12.0269 C   0  0  0  0  0  0  0  0  0  0  0  0
    5.7567    3.9857  -12.2789 C   0  0  0  0  0  0  0  0  0  0  0  0
    5.1259    4.7749  -11.5218 O   0  0  0  0  0  0  0  0  0  0  0  0
    5.1224    2.7752  -12.8343 C   0  0  0  0  0  0  0  0  0  0  0  0
    6.0147    1.9931  -13.6927 C   0  0  0  0  0  0  0  0  0  0  0  0
    7.3179    2.3310  -13.9655 C   0  0  0  0  0  0  0  0  0  0  0  0
    8.1037    1.5405  -14.7883 C   0  0  0  0  0  0  0  0  0  0  0  0
    7.5987    0.3701  -15.3707 C   0  0  0  0  0  0  0  0  0  0  0  0
    6.2978    0.0316  -15.0992 C   0  0  0  0  0  0  0  0  0  0  0  0
    5.7239   -1.1155  -15.6401 C   0  0  0  0  0  0  0  0  0  0  0  0
    4.4211   -1.4825  -15.3869 C   0  0  0  0  0  0  0  0  0  0  0  0
    3.6518   -0.6914  -14.5700 C   0  0  0  0  0  0  0  0  0  0  0  0
    4.2036    0.4426  -14.0294 C   0  0  0  0  0  0  0  0  0  0  0  0
    5.5152    0.8150  -14.2825 C   0  0  0  0  0  0  0  0  0  0  0  0
   11.3454    8.1429   -5.8882 C   0  0  0  0  0  0  0  0  0  0  0  0
   11.4999    9.3200   -6.6246 C   0  0  0  0  0  0  0  0  0  0  0  0
   11.1508    9.3230   -7.9583 C   0  0  0  0  0  0  0  0  0  0  0  0
   10.6540    8.1747   -8.5586 C   0  0  0  0  0  0  0  0  0  0  0  0
   10.5106    7.0255   -7.8111 C   0  0  0  0  0  0  0  0  0  0  0  0
   10.0103    5.8877   -8.4361 C   0  0  0  0  0  0  0  0  0  0  0  0
    9.6744    5.9003   -9.7307 N   0  0  0  0  0  0  0  0  0  0  0  0
    9.8143    7.0207  -10.4589 C   0  0  0  0  0  0  0  0  0  0  0  0
    9.4903    7.0183  -11.6902 N   0  0  0  0  0  0  0  0  0  0  0  0
   10.3047    8.1409   -9.8515 N   0  0  0  0  0  0  0  0  0  0  0  0
   10.4162    9.0062  -10.4014 H   0  0  0  0  0  0  0  0  0  0  0  0
   10.8544    7.0094   -6.4829 C   0  0  0  0  0  0  0  0  0  0  0  0
   12.3763    7.9303   -1.7675 C   0  0  0  0  0  0  0  0  0  0  0  0
   12.4097    9.1475   -2.4146 C   0  0  0  0  0  0  0  0  0  0  0  0
   12.0717    9.2255   -3.7709 C   0  0  0  0  0  0  0  0  0  0  0  0
   11.7034    8.1023   -4.4782 C   0  0  0  0  0  0  0  0  0  0  0  0
   11.6748    6.8949   -3.8188 C   0  0  0  0  0  0  0  0  0  0  0  0
   12.0095    6.7984   -2.4637 C   0  0  0  0  0  0  0  0  0  0  0  0
 32 33  2  0
 33 34  1  0
 34 35  2  0
 35 20  1  0
 20 21  2  0
 21 22  1  0
 22 23  2  0
 23 24  1  0
 24 25  1  0
 25 26  2  0
 26 27  1  0
 27 28  2  0
 28  1  1  0
  1  2  2  0
  2  3  1  0
  3  4  2  0
  4  5  1  0
  5  6  2  0
  5  7  1  0
  7  8  2  0
  7  9  1  0
  9 10  1  0
 10 11  2  0
 11 12  1  0
 12 13  2  0
 13 14  1  0
 14 15  2  0
 15 16  1  0
 16 17  2  0
 17 18  1  0
 18 19  2  0
 27 29  1  0
 29 30  1  0
 24 31  2  0
 35 36  1  0
 36 37  2  0
 37 32  1  0
 31 20  1  0
 29 23  1  0
  6  1  1  0
 19 10  1  0
 11  4  1  0
 19 14  1  0
M  END
>  <minimizedAffinity>  (337) 
-17.05745

$$$$
Mol: 138_34 - SminaDock
     RDKit          3D

 41 47  0  0  0  0  0  0  0  0999 V2000
    2.1532   -1.5789  -14.9737 H   0  0  0  0  0  0  0  0  0  0  0  0
    2.6867   -0.8647  -14.4818 O   0  0  0  0  0  0  0  0  0  0  0  0
    3.9890   -0.5143  -14.8229 C   0  0  0  0  0  0  0  0  0  0  0  0
    4.7245   -1.1761  -15.6549 N   0  0  0  0  0  0  0  0  0  0  0  0
    6.0127   -0.5433  -15.7797 C   0  0  0  0  0  0  0  0  0  0  0  0
    6.9714   -0.9592  -16.5320 N   0  0  0  0  0  0  0  0  0  0  0  0
    6.8761   -1.8110  -17.1211 H   0  0  0  0  0  0  0  0  0  0  0  0
    8.1462   -0.2773  -16.5678 O   0  0  0  0  0  0  0  0  0  0  0  0
    9.0517   -0.6741  -16.3623 H   0  0  0  0  0  0  0  0  0  0  0  0
    5.9994    0.6194  -14.9091 C   0  0  0  0  0  0  0  0  0  0  0  0
    6.9654    1.5998  -14.6295 C   0  0  0  0  0  0  0  0  0  0  0  0
    6.6776    2.6069  -13.7490 C   0  0  0  0  0  0  0  0  0  0  0  0
    5.4439    2.6381  -13.1487 C   0  0  0  0  0  0  0  0  0  0  0  0
    4.4709    1.6512  -13.4334 C   0  0  0  0  0  0  0  0  0  0  0  0
    4.7580    0.6426  -14.3183 C   0  0  0  0  0  0  0  0  0  0  0  0
    5.1506    3.6381  -12.1060 C   0  0  0  0  0  0  0  0  0  0  0  0
    5.8254    4.9192  -12.3173 C   0  0  0  0  0  0  0  0  0  0  0  0
    7.2325    4.7892  -12.7351 C   0  0  0  0  0  0  0  0  0  0  0  0
    8.1700    5.7599  -12.4447 C   0  0  0  0  0  0  0  0  0  0  0  0
    9.4538    5.6852  -12.9248 C   0  0  0  0  0  0  0  0  0  0  0  0
    9.8008    4.6130  -13.7122 C   0  0  0  0  0  0  0  0  0  0  0  0
    8.8897    3.6044  -14.0327 C   0  0  0  0  0  0  0  0  0  0  0  0
    7.6147    3.7139  -13.5314 C   0  0  0  0  0  0  0  0  0  0  0  0
   10.4268    6.6915  -12.6249 N   0  0  0  0  0  0  0  0  0  0  0  0
   10.6862    7.0031  -11.3991 C   0  0  0  0  0  0  0  0  0  0  0  0
   11.6078    7.9545  -11.1573 N   0  0  0  0  0  0  0  0  0  0  0  0
   11.9427    8.3444   -9.9085 C   0  0  0  0  0  0  0  0  0  0  0  0
   11.3223    7.7512   -8.8210 C   0  0  0  0  0  0  0  0  0  0  0  0
   11.6498    8.1349   -7.5354 C   0  0  0  0  0  0  0  0  0  0  0  0
   11.0238    7.5360   -6.4541 C   0  0  0  0  0  0  0  0  0  0  0  0
   10.0900    6.5724   -6.6844 C   0  0  0  0  0  0  0  0  0  0  0  0
    9.7667    6.1922   -7.9872 C   0  0  0  0  0  0  0  0  0  0  0  0
   10.3788    6.7766   -9.0779 C   0  0  0  0  0  0  0  0  0  0  0  0
   10.0714    6.4138  -10.3573 N   0  0  0  0  0  0  0  0  0  0  0  0
    9.3533    5.6730  -10.5289 H   0  0  0  0  0  0  0  0  0  0  0  0
   11.3705    7.9421   -5.1048 C   0  0  0  0  0  0  0  0  0  0  0  0
   11.4552    9.2516   -4.7072 C   0  0  0  0  0  0  0  0  0  0  0  0
   11.7869    9.5839   -3.4208 C   0  0  0  0  0  0  0  0  0  0  0  0
   12.0455    8.6280   -2.4864 C   0  0  0  0  0  0  0  0  0  0  0  0
   11.9698    7.2961   -2.8501 C   0  0  0  0  0  0  0  0  0  0  0  0
   11.6372    6.9796   -4.1394 C   0  0  0  0  0  0  0  0  0  0  0  0
  1  2  1  0
  2  3  1  0
  3  4  2  0
  4  5  1  0
  5  6  2  0
  6  7  1  0
  6  8  1  0
  8  9  1  0
  5 10  1  0
 10 11  2  0
 11 12  1  0
 12 13  2  0
 13 14  1  0
 14 15  2  0
 13 16  1  0
 16 17  1  0
 17 18  1  0
 18 19  2  0
 19 20  1  0
 20 24  1  0
 24 25  2  0
 25 26  1  0
 26 27  2  0
 27 28  1  0
 28 29  2  0
 29 30  1  0
 30 36  1  0
 36 37  2  0
 37 38  1  0
 38 39  2  0
 39 40  1  0
 40 41  2  0
 30 31  2  0
 31 32  1  0
 32 33  2  0
 33 34  1  0
 34 35  1  0
 20 21  2  0
 21 22  1  0
 22 23  2  0
 15  3  1  0
 23 18  1  0
 15 10  1  0
 34 25  1  0
 23 12  1  0
 33 28  1  0
 41 36  1  0
M  CHG  1   6   1
M  END
>  <minimizedAffinity>  (338) 
-17.12319

$$$$
Mol: 139_0 - SminaDock
     RDKit          3D

 41 47  0  0  0  0  0  0  0  0999 V2000
    7.3351   -2.0868  -16.4569 H   0  0  0  0  0  0  0  0  0  0  0  0
    6.8128   -1.2688  -16.7662 O   0  0  0  0  0  0  0  0  0  0  0  0
    5.8414   -0.8048  -15.8811 C   0  0  0  0  0  0  0  0  0  0  0  0
    6.2032    0.3152  -15.2497 C   0  0  0  0  0  0  0  0  0  0  0  0
    7.4557    0.7477  -15.6247 C   0  0  0  0  0  0  0  0  0  0  0  0
    7.9387    1.9016  -15.0356 C   0  0  0  0  0  0  0  0  0  0  0  0
    7.1851    2.5986  -14.1009 C   0  0  0  0  0  0  0  0  0  0  0  0
    5.9448    2.1648  -13.7325 C   0  0  0  0  0  0  0  0  0  0  0  0
    5.4507    0.9960  -14.3253 C   0  0  0  0  0  0  0  0  0  0  0  0
    4.2669    0.7535  -13.8464 N   0  0  0  0  0  0  0  0  0  0  0  0
    3.3940   -0.3140  -14.1530 C   0  0  0  0  0  0  0  0  0  0  0  0
    3.5119   -1.3185  -14.9655 N   0  0  0  0  0  0  0  0  0  0  0  0
    2.7106   -1.9881  -15.0163 H   0  0  0  0  0  0  0  0  0  0  0  0
    4.6395   -1.5410  -15.7601 N   0  0  0  0  0  0  0  0  0  0  0  0
    4.5928   -2.4024  -16.3765 H   0  0  0  0  0  0  0  0  0  0  0  0
    7.6982    3.8557  -13.5291 C   0  0  0  0  0  0  0  0  0  0  0  0
    6.9880    4.5313  -12.5431 C   0  0  0  0  0  0  0  0  0  0  0  0
    7.5401    5.6707  -11.9987 C   0  0  0  0  0  0  0  0  0  0  0  0
    8.7578    6.1903  -12.3677 C   0  0  0  0  0  0  0  0  0  0  0  0
    9.4453    5.5195  -13.3368 C   0  0  0  0  0  0  0  0  0  0  0  0
    8.9149    4.3508  -13.9197 C   0  0  0  0  0  0  0  0  0  0  0  0
    9.6763    3.7025  -15.0029 C   0  0  0  0  0  0  0  0  0  0  0  0
    9.2953    2.3350  -15.3967 C   0  0  0  0  0  0  0  0  0  0  0  0
    9.2882    7.3816  -11.7671 N   0  0  0  0  0  0  0  0  0  0  0  0
    9.6462    7.3096  -10.5161 C   0  0  0  0  0  0  0  0  0  0  0  0
    9.5235    6.1694   -9.8206 N   0  0  0  0  0  0  0  0  0  0  0  0
    9.8760    6.0574   -8.5491 C   0  0  0  0  0  0  0  0  0  0  0  0
   10.3965    7.1324   -7.8691 C   0  0  0  0  0  0  0  0  0  0  0  0
   10.7758    7.0578   -6.5457 C   0  0  0  0  0  0  0  0  0  0  0  0
   11.2976    8.1618   -5.8894 C   0  0  0  0  0  0  0  0  0  0  0  0
   11.4293    9.3367   -6.5889 C   0  0  0  0  0  0  0  0  0  0  0  0
   11.0474    9.4001   -7.9100 C   0  0  0  0  0  0  0  0  0  0  0  0
   10.5252    8.3143   -8.5853 C   0  0  0  0  0  0  0  0  0  0  0  0
   10.1533    8.3771   -9.8732 N   0  0  0  0  0  0  0  0  0  0  0  0
   10.2767    9.3052  -10.3617 H   0  0  0  0  0  0  0  0  0  0  0  0
   11.6989    8.0941   -4.4996 C   0  0  0  0  0  0  0  0  0  0  0  0
   11.7181    6.8743   -3.8576 C   0  0  0  0  0  0  0  0  0  0  0  0
   12.0892    6.7539   -2.5448 C   0  0  0  0  0  0  0  0  0  0  0  0
   12.4527    7.8752   -1.8450 C   0  0  0  0  0  0  0  0  0  0  0  0
   12.4379    9.0961   -2.4724 C   0  0  0  0  0  0  0  0  0  0  0  0
   12.0673    9.2079   -3.7798 C   0  0  0  0  0  0  0  0  0  0  0  0
  1  2  1  0
  2  3  1  0
  3  4  2  0
  4  5  1  0
  5  6  2  0
  6  7  1  0
  7  8  2  0
  8  9  1  0
  9 10  2  0
 10 11  1  0
 11 12  2  0
 12 13  1  0
 12 14  1  0
 14 15  1  0
  7 16  1  0
 16 17  2  0
 17 18  1  0
 18 19  2  0
 19 24  1  0
 24 25  2  0
 25 26  1  0
 26 27  2  0
 27 28  1  0
 28 29  2  0
 29 30  1  0
 30 36  1  0
 36 37  2  0
 37 38  1  0
 38 39  2  0
 39 40  1  0
 40 41  2  0
 30 31  2  0
 31 32  1  0
 32 33  2  0
 33 34  1  0
 34 35  1  0
 19 20  1  0
 20 21  2  0
 21 22  1  0
 22 23  1  0
 14  3  1  0
 21 16  1  0
  9  4  1  0
 34 25  1  0
 23  6  1  0
 33 28  1  0
 41 36  1  0
M  CHG  1  12   1
M  END
>  <minimizedAffinity>  (339) 
-17.08865

$$$$
Mol: 138_6 - SminaDock
     RDKit          3D

 38 44  0  0  0  0  0  0  0  0999 V2000
    8.6829    5.8523  -12.4335 C   0  0  0  0  0  0  0  0  0  0  0  0
    9.3806    5.1351  -13.3739 C   0  0  0  0  0  0  0  0  0  0  0  0
    8.8035    4.0162  -13.9670 C   0  0  0  0  0  0  0  0  0  0  0  0
    7.5202    3.6438  -13.5918 C   0  0  0  0  0  0  0  0  0  0  0  0
    6.8400    4.3799  -12.6491 C   0  0  0  0  0  0  0  0  0  0  0  0
    7.4123    5.5106  -12.0420 C   0  0  0  0  0  0  0  0  0  0  0  0
    5.4588    4.0675  -12.2834 C   0  0  0  0  0  0  0  0  0  0  0  0
    5.0536    2.6854  -12.6132 C   0  0  0  0  0  0  0  0  0  0  0  0
    5.7241    2.0226  -13.7186 C   0  0  0  0  0  0  0  0  0  0  0  0
    6.9569    2.4188  -14.1664 C   0  0  0  0  0  0  0  0  0  0  0  0
    7.5926    1.7082  -15.1799 C   0  0  0  0  0  0  0  0  0  0  0  0
    7.0297    0.5972  -15.7744 C   0  0  0  0  0  0  0  0  0  0  0  0
    7.5911   -0.1129  -16.7407 N   0  0  0  0  0  0  0  0  0  0  0  0
    7.0112   -1.1862  -17.2933 N   0  0  0  0  0  0  0  0  0  0  0  0
    7.4774   -1.7303  -18.0566 H   0  0  0  0  0  0  0  0  0  0  0  0
    5.7951   -1.6113  -16.8849 C   0  0  0  0  0  0  0  0  0  0  0  0
    5.2436   -2.6324  -17.4105 O   0  0  0  0  0  0  0  0  0  0  0  0
    5.1775   -0.8911  -15.8739 C   0  0  0  0  0  0  0  0  0  0  0  0
    5.7805    0.2141  -15.3087 C   0  0  0  0  0  0  0  0  0  0  0  0
    5.1364    0.9003  -14.3094 C   0  0  0  0  0  0  0  0  0  0  0  0
   11.2860    8.0474   -5.9883 C   0  0  0  0  0  0  0  0  0  0  0  0
   11.5176    9.1522   -6.7958 C   0  0  0  0  0  0  0  0  0  0  0  0
   11.1530    9.1264   -8.1255 C   0  0  0  0  0  0  0  0  0  0  0  0
   10.5538    8.0311   -8.7120 C   0  0  0  0  0  0  0  0  0  0  0  0
   10.1975    8.0047  -10.0110 N   0  0  0  0  0  0  0  0  0  0  0  0
    9.6103    6.9349  -10.5926 C   0  0  0  0  0  0  0  0  0  0  0  0
    9.2994    6.9896  -11.8453 N   0  0  0  0  0  0  0  0  0  0  0  0
    9.3813    5.8586   -9.8186 N   0  0  0  0  0  0  0  0  0  0  0  0
    8.9308    5.0120  -10.2270 H   0  0  0  0  0  0  0  0  0  0  0  0
    9.7232    5.8400   -8.5048 C   0  0  0  0  0  0  0  0  0  0  0  0
   10.3227    6.9312   -7.9097 C   0  0  0  0  0  0  0  0  0  0  0  0
   10.6871    6.9560   -6.5794 C   0  0  0  0  0  0  0  0  0  0  0  0
   12.3741    7.9795   -1.9223 C   0  0  0  0  0  0  0  0  0  0  0  0
   12.3811    9.1906   -2.5909 C   0  0  0  0  0  0  0  0  0  0  0  0
   12.0234    9.2055   -3.9215 C   0  0  0  0  0  0  0  0  0  0  0  0
   11.6709    8.0601   -4.5679 C   0  0  0  0  0  0  0  0  0  0  0  0
   11.6682    6.8628   -3.8913 C   0  0  0  0  0  0  0  0  0  0  0  0
   12.0203    6.8209   -2.5661 C   0  0  0  0  0  0  0  0  0  0  0  0
 33 34  2  0
 34 35  1  0
 35 36  2  0
 36 21  1  0
 21 22  1  0
 22 23  2  0
 23 24  1  0
 24 25  2  0
 25 26  1  0
 26 27  2  0
 27  1  1  0
  1  2  2  0
  2  3  1  0
  3  4  2  0
  4  5  1  0
  5  6  2  0
  5  7  1  0
  7  8  1  0
  8  9  1  0
  9 10  1  0
 10 11  2  0
 11 12  1  0
 12 13  2  0
 13 14  1  0
 14 15  1  0
 14 16  1  0
 16 17  2  0
 16 18  1  0
 18 19  2  0
 19 20  1  0
 26 28  1  0
 28 29  1  0
 28 30  1  0
 30 31  2  0
 31 32  1  0
 36 37  1  0
 37 38  2  0
 38 33  1  0
 32 21  2  0
 31 24  1  0
  6  1  1  0
 20  9  2  0
 10  4  1  0
 19 12  1  0
M  END
>  <minimizedAffinity>  (340) 
-17.12825

$$$$
Mol: 138_31 - SminaDock
     RDKit          3D

 46 53  0  0  0  0  0  0  0  0999 V2000
    4.3446    0.8634  -12.8806 H   0  0  0  0  0  0  0  0  0  0  0  0
    4.1966    0.0845  -13.5081 N   0  0  0  0  0  0  0  0  0  0  0  0
    4.9111   -0.1394  -14.5381 C   0  0  0  0  0  0  0  0  0  0  0  0
    4.5454   -1.2737  -15.2837 C   0  0  0  0  0  0  0  0  0  0  0  0
    5.2902   -1.5543  -16.4052 C   0  0  0  0  0  0  0  0  0  0  0  0
    6.3206   -0.7757  -16.7683 N   0  0  0  0  0  0  0  0  0  0  0  0
    6.8825   -0.9917  -17.6189 H   0  0  0  0  0  0  0  0  0  0  0  0
    6.6842    0.3280  -16.0516 C   0  0  0  0  0  0  0  0  0  0  0  0
    7.7428    1.1106  -16.4447 C   0  0  0  0  0  0  0  0  0  0  0  0
    8.1521    2.2552  -15.7381 C   0  0  0  0  0  0  0  0  0  0  0  0
    7.4262    2.5567  -14.6079 C   0  0  0  0  0  0  0  0  0  0  0  0
    6.3645    1.7683  -14.2213 C   0  0  0  0  0  0  0  0  0  0  0  0
    5.9672    0.6481  -14.9208 C   0  0  0  0  0  0  0  0  0  0  0  0
    7.9313    3.6910  -13.8203 C   0  0  0  0  0  0  0  0  0  0  0  0
    7.1447    4.1166  -12.7528 C   0  0  0  0  0  0  0  0  0  0  0  0
    7.5546    5.2658  -12.0892 C   0  0  0  0  0  0  0  0  0  0  0  0
    8.6782    5.9800  -12.4377 C   0  0  0  0  0  0  0  0  0  0  0  0
    9.4327    5.5250  -13.4999 C   0  0  0  0  0  0  0  0  0  0  0  0
    9.0613    4.3770  -14.1924 C   0  0  0  0  0  0  0  0  0  0  0  0
    9.9527    3.8519  -15.2374 C   0  0  2  0  0  0  0  0  0  0  0  0
   10.9463    2.9256  -14.5552 C   0  0  0  0  0  0  0  0  0  0  0  0
   10.7357    1.7236  -14.3030 O   0  0  0  0  0  0  0  0  0  0  0  0
   12.0844    3.7166  -14.2994 N   0  0  0  0  0  0  0  0  0  0  0  0
   12.0028    4.9141  -15.0538 C   0  0  0  0  0  0  0  0  0  0  0  0
   12.8551    5.8701  -15.0763 O   0  0  0  0  0  0  0  0  0  0  0  0
   10.8047    4.8890  -15.7966 N   0  0  0  0  0  0  0  0  0  0  0  0
   10.5734    5.5119  -16.6096 H   0  0  0  0  0  0  0  0  0  0  0  0
    9.2370    3.0955  -16.2821 C   0  0  0  0  0  0  0  0  0  0  0  0
    9.0538    7.1502  -11.7277 N   0  0  0  0  0  0  0  0  0  0  0  0
    9.4621    7.1083  -10.5056 C   0  0  0  0  0  0  0  0  0  0  0  0
    9.5287    5.9046   -9.8957 N   0  0  0  0  0  0  0  0  0  0  0  0
    9.9487    5.8514   -8.6322 C   0  0  0  0  0  0  0  0  0  0  0  0
   10.3144    6.9927   -7.9398 C   0  0  0  0  0  0  0  0  0  0  0  0
   10.7504    6.9374   -6.6285 C   0  0  0  0  0  0  0  0  0  0  0  0
   11.1181    8.0668   -5.9257 C   0  0  0  0  0  0  0  0  0  0  0  0
   11.0378    9.2764   -6.5785 C   0  0  0  0  0  0  0  0  0  0  0  0
   10.5989    9.3344   -7.8993 C   0  0  0  0  0  0  0  0  0  0  0  0
   10.2311    8.2069   -8.6030 C   0  0  0  0  0  0  0  0  0  0  0  0
    9.8056    8.2450   -9.8772 N   0  0  0  0  0  0  0  0  0  0  0  0
    9.7456    9.1671  -10.3708 H   0  0  0  0  0  0  0  0  0  0  0  0
   11.5775    8.0041   -4.5419 C   0  0  0  0  0  0  0  0  0  0  0  0
   11.7219    6.8382   -3.8337 C   0  0  0  0  0  0  0  0  0  0  0  0
   12.1601    6.8232   -2.5250 C   0  0  0  0  0  0  0  0  0  0  0  0
   12.4692    7.9924   -1.8835 C   0  0  0  0  0  0  0  0  0  0  0  0
   12.3319    9.1779   -2.5755 C   0  0  0  0  0  0  0  0  0  0  0  0
   11.8958    9.1864   -3.8764 C   0  0  0  0  0  0  0  0  0  0  0  0
  1  2  1  0
  2  3  2  0
  3  4  1  0
  4  5  2  0
  5  6  1  0
  6  7  1  0
  6  8  1  0
  8  9  2  0
  9 10  1  0
 10 11  2  0
 11 12  1  0
 12 13  2  0
 11 14  1  0
 14 15  2  0
 15 16  1  0
 16 17  2  0
 17 29  1  0
 29 30  2  0
 30 31  1  0
 31 32  2  0
 32 33  1  0
 33 34  2  0
 34 35  1  0
 35 41  1  0
 41 42  2  0
 42 43  1  0
 43 44  2  0
 44 45  1  0
 45 46  2  0
 35 36  2  0
 36 37  1  0
 37 38  2  0
 38 39  1  0
 39 40  1  0
 17 18  1  0
 18 19  2  0
 19 20  1  0
 20 21  1  0
 21 22  2  0
 21 23  1  0
 23 24  1  0
 24 25  2  0
 24 26  1  0
 26 27  1  0
 20 28  1  6
 13  3  1  0
 19 14  1  0
 20 26  1  0
 13  8  1  0
 39 30  1  0
 28 10  1  0
 38 33  1  0
 46 41  1  0
M  CHG  1  23  -1
M  END
>  <minimizedAffinity>  (341) 
-17.08177

$$$$
Mol: 191_18 - SminaDock
     RDKit          3D

 43 50  0  0  0  0  0  0  0  0999 V2000
    7.9303    4.8332  -12.6717 C   0  0  0  0  0  0  0  0  0  0  0  0
    6.6798    4.7433  -12.0789 C   0  0  0  0  0  0  0  0  0  0  0  0
    5.8703    3.6983  -12.4552 C   0  0  0  0  0  0  0  0  0  0  0  0
    6.2430    2.7433  -13.3878 C   0  0  0  0  0  0  0  0  0  0  0  0
    7.4846    2.8287  -13.9795 C   0  0  0  0  0  0  0  0  0  0  0  0
    8.3136    3.8938  -13.5981 C   0  0  0  0  0  0  0  0  0  0  0  0
    7.6808    1.7359  -14.9249 C   0  0  1  0  0  0  0  0  0  0  0  0
    6.4360    0.9506  -14.8695 C   0  0  0  0  0  0  0  0  0  0  0  0
    5.6076    1.5643  -13.9587 C   0  0  0  0  0  0  0  0  0  0  0  0
    4.3654    1.0065  -13.7301 C   0  0  0  0  0  0  0  0  0  0  0  0
    3.9526   -0.1366  -14.3910 C   0  0  0  0  0  0  0  0  0  0  0  0
    4.7824   -0.7517  -15.3036 C   0  0  0  0  0  0  0  0  0  0  0  0
    6.0238   -0.2096  -15.5439 C   0  0  0  0  0  0  0  0  0  0  0  0
    6.6093   -0.9945  -16.4577 N   0  0  0  0  0  0  0  0  0  0  0  0
    5.7519   -1.9987  -16.7763 C   0  0  0  0  0  0  0  0  0  0  0  0
    4.6148   -1.8620  -16.0690 N   0  0  0  0  0  0  0  0  0  0  0  0
    3.7719   -2.4887  -16.1048 H   0  0  0  0  0  0  0  0  0  0  0  0
    7.9889    2.1893  -16.2661 N   0  0  0  0  0  0  0  0  0  0  0  0
    7.4807    2.9049  -16.7978 H   0  0  0  0  0  0  0  0  0  0  0  0
    9.1244    1.4661  -16.7207 C   0  0  0  0  0  0  0  0  0  0  0  0
    9.7861    1.7278  -17.7846 N   0  0  0  0  0  0  0  0  0  0  0  0
    9.5794    2.4910  -18.4406 H   0  0  0  0  0  0  0  0  0  0  0  0
   10.6045    1.1211  -18.0122 H   0  0  0  0  0  0  0  0  0  0  0  0
    9.3512    0.4559  -15.7989 O   0  0  0  0  0  0  0  0  0  0  0  0
    8.8309    0.8258  -14.5526 C   0  0  0  0  0  0  0  0  0  0  0  0
   11.2031    7.5948   -6.7539 C   0  0  0  0  0  0  0  0  0  0  0  0
   11.5962    8.4798   -7.7599 C   0  0  0  0  0  0  0  0  0  0  0  0
   11.1693    8.2886   -9.0568 C   0  0  0  0  0  0  0  0  0  0  0  0
   10.3521    7.2376   -9.4149 C   0  0  0  0  0  0  0  0  0  0  0  0
    9.9697    6.3694   -8.4137 C   0  0  0  0  0  0  0  0  0  0  0  0
   10.3897    6.5515   -7.1190 C   0  0  0  0  0  0  0  0  0  0  0  0
    9.1453    5.3127   -8.7850 C   0  0  0  0  0  0  0  0  0  0  0  0
    8.7263    5.1343  -10.0862 C   0  0  0  0  0  0  0  0  0  0  0  0
    9.1450    6.0394  -11.0411 C   0  0  0  0  0  0  0  0  0  0  0  0
    8.7763    5.9154  -12.2860 N   0  0  0  0  0  0  0  0  0  0  0  0
    9.9409    7.0636  -10.6951 N   0  0  0  0  0  0  0  0  0  0  0  0
   10.2765    7.7693  -11.3987 H   0  0  0  0  0  0  0  0  0  0  0  0
   12.5078    8.1640   -2.7316 C   0  0  0  0  0  0  0  0  0  0  0  0
   11.8040    7.0306   -3.0777 C   0  0  0  0  0  0  0  0  0  0  0  0
   11.3862    6.8599   -4.3918 C   0  0  0  0  0  0  0  0  0  0  0  0
   11.6523    7.7906   -5.3699 C   0  0  0  0  0  0  0  0  0  0  0  0
   12.3573    8.9198   -5.0098 C   0  0  0  0  0  0  0  0  0  0  0  0
   12.7839    9.1120   -3.7075 C   0  0  0  0  0  0  0  0  0  0  0  0
 38 39  2  0
 39 40  1  0
 40 41  2  0
 41 26  1  0
 26 27  2  0
 27 28  1  0
 28 29  2  0
 29 30  1  0
 30 31  2  0
 30 32  1  0
 32 33  2  0
 33 34  1  0
 34 35  2  0
 35  1  1  0
  1  2  2  0
  2  3  1  0
  3  4  2  0
  4  5  1  0
  5  6  2  0
  5  7  1  0
  7  8  1  0
  8  9  2  0
  9 10  1  0
 10 11  2  0
 11 12  1  0
 12 13  2  0
 13 14  1  0
 14 15  2  0
 15 16  1  0
 16 17  1  0
  7 18  1  0
 18 19  1  0
 18 20  1  0
 20 21  2  0
 21 22  1  0
 21 23  1  0
 20 24  1  0
 24 25  1  0
 34 36  1  0
 36 37  1  0
 41 42  1  0
 42 43  2  0
 43 38  1  0
 31 26  1  0
  6  1  1  0
  7 25  1  1
 36 29  1  0
  9  4  1  0
 16 12  1  0
 13  8  1  0
M  CHG  1  21   1
M  END
>  <minimizedAffinity>  (342) 
-17.05333

$$$$
Mol: 111_48 - SminaDock
     RDKit          3D

 45 51  0  0  0  0  0  0  0  0999 V2000
    8.5750    5.6111  -12.3196 C   0  0  0  0  0  0  0  0  0  0  0  0
    7.3639    5.4217  -11.6805 C   0  0  0  0  0  0  0  0  0  0  0  0
    6.5114    4.4529  -12.1436 C   0  0  0  0  0  0  0  0  0  0  0  0
    6.8654    3.6862  -13.2288 C   0  0  0  0  0  0  0  0  0  0  0  0
    8.0737    3.8291  -13.9192 C   0  0  0  0  0  0  0  0  0  0  0  0
    8.9054    4.8111  -13.4251 C   0  0  0  0  0  0  0  0  0  0  0  0
    8.6423    3.1371  -15.0728 C   0  0  2  0  0  0  0  0  0  0  0  0
    7.6542    2.5490  -16.0476 C   0  0  0  0  0  0  0  0  0  0  0  0
    6.7697    1.5022  -15.5198 C   0  0  0  0  0  0  0  0  0  0  0  0
    6.7571    0.3253  -16.2450 C   0  0  0  0  0  0  0  0  0  0  0  0
    5.9688   -0.7251  -15.8831 C   0  0  0  0  0  0  0  0  0  0  0  0
    5.1458   -0.6374  -14.7595 C   0  0  0  0  0  0  0  0  0  0  0  0
    5.1315    0.5048  -14.0203 C   0  0  0  0  0  0  0  0  0  0  0  0
    5.9455    1.5458  -14.4207 C   0  0  0  0  0  0  0  0  0  0  0  0
    5.8336    2.7009  -13.5193 C   0  0  0  0  0  0  0  0  0  0  0  0
    4.7047    2.8245  -12.9462 O   0  0  0  0  0  0  0  0  0  0  0  0
    9.4484    1.9606  -14.5535 C   0  0  0  0  0  0  0  0  0  0  0  0
   10.3188    1.3319  -15.6272 C   0  0  0  0  0  0  0  0  0  0  0  0
   11.2051    2.3347  -16.2430 C   0  0  0  0  0  0  0  0  0  0  0  0
   12.1157    2.0524  -16.9774 O   0  0  0  0  0  0  0  0  0  0  0  0
   10.9431    3.7627  -15.9272 C   0  0  0  0  0  0  0  0  0  0  0  0
    9.4912    4.0897  -15.8777 C   0  0  0  0  0  0  0  0  0  0  0  0
   11.4126    7.8143   -6.0485 C   0  0  0  0  0  0  0  0  0  0  0  0
   12.0035    8.7100   -6.9143 C   0  0  0  0  0  0  0  0  0  0  0  0
   11.7137    8.6310   -8.2566 C   0  0  0  0  0  0  0  0  0  0  0  0
   10.8445    7.6748   -8.7557 C   0  0  0  0  0  0  0  0  0  0  0  0
   10.5673    7.6018  -10.0789 N   0  0  0  0  0  0  0  0  0  0  0  0
    9.7217    6.6674  -10.5719 C   0  0  0  0  0  0  0  0  0  0  0  0
    9.4689    6.6094  -11.8439 N   0  0  0  0  0  0  0  0  0  0  0  0
    9.1760    5.8222   -9.6803 N   0  0  0  0  0  0  0  0  0  0  0  0
    8.5160    5.0884  -10.0203 H   0  0  0  0  0  0  0  0  0  0  0  0
    9.4133    5.8480   -8.3648 C   0  0  0  0  0  0  0  0  0  0  0  0
   10.2768    6.8010   -7.8594 C   0  0  0  0  0  0  0  0  0  0  0  0
   10.5467    6.8549   -6.5117 C   0  0  0  0  0  0  0  0  0  0  0  0
   12.3485    8.0746   -1.8752 C   0  0  0  0  0  0  0  0  0  0  0  0
   12.4038    9.1837   -2.6954 C   0  0  0  0  0  0  0  0  0  0  0  0
   12.1022    9.1014   -4.0403 C   0  0  0  0  0  0  0  0  0  0  0  0
   11.7328    7.9038   -4.6177 C   0  0  0  0  0  0  0  0  0  0  0  0
   11.6721    6.7886   -3.8163 C   0  0  0  0  0  0  0  0  0  0  0  0
   11.9784    6.8802   -2.4584 C   0  0  0  0  0  0  0  0  0  0  0  0
    5.9590   -1.9731  -16.6570 C   0  0  0  0  0  0  0  0  0  0  0  0
    6.4596   -1.9864  -17.7906 O   0  0  0  0  0  0  0  0  0  0  0  0
    5.3872   -3.1539  -16.1245 N   0  0  0  0  0  0  0  0  0  0  0  0
    4.3732   -3.1768  -15.8832 H   0  0  0  0  0  0  0  0  0  0  0  0
    5.9690   -4.0084  -15.9685 H   0  0  0  0  0  0  0  0  0  0  0  0
 35 36  2  0
 36 37  1  0
 37 38  2  0
 38 23  1  0
 23 24  1  0
 24 25  2  0
 25 26  1  0
 26 27  2  0
 27 28  1  0
 28 29  2  0
 29  1  1  0
  1  2  2  0
  2  3  1  0
  3  4  2  0
  4  5  1  0
  5  6  2  0
  5  7  1  0
  7  8  1  6
  8  9  1  0
  9 10  2  0
 10 11  1  0
 11 41  1  0
 41 42  2  0
 41 43  1  0
 43 44  1  0
 43 45  1  0
 11 12  2  0
 12 13  1  0
 13 14  2  0
 14 15  1  0
 15 16  2  0
  7 17  1  0
 17 18  1  0
 18 19  1  0
 19 20  2  0
 19 21  1  0
 21 22  1  0
 28 30  1  0
 30 31  1  0
 30 32  1  0
 32 33  2  0
 33 34  1  0
 38 39  1  0
 39 40  2  0
 40 35  1  0
 34 23  2  0
 33 26  1  0
  6  1  1  0
 22  7  1  0
 15  4  1  0
 14  9  1  0
M  END
>  <minimizedAffinity>  (343) 
-17.11633

$$$$
Mol: 153_45 - SminaDock
     RDKit          3D

 41 47  0  0  0  0  0  0  0  0999 V2000
    6.5273   -1.1035  -17.8103 H   0  0  0  0  0  0  0  0  0  0  0  0
    5.8289   -1.0982  -17.1419 N   0  0  0  0  0  0  0  0  0  0  0  0
    5.2882   -0.6794  -16.1123 C   0  0  0  0  0  0  0  0  0  0  0  0
    5.6558    0.3328  -15.2103 C   0  0  0  0  0  0  0  0  0  0  0  0
    6.7466    1.2025  -15.1033 C   0  0  0  0  0  0  0  0  0  0  0  0
    6.6482    2.0787  -14.0028 C   0  0  0  0  0  0  0  0  0  0  0  0
    5.6488    2.1390  -13.0844 C   0  0  0  0  0  0  0  0  0  0  0  0
    4.6131    1.2483  -13.2570 C   0  0  0  0  0  0  0  0  0  0  0  0
    4.6008    0.3498  -14.3049 C   0  0  0  0  0  0  0  0  0  0  0  0
    3.7063   -0.5542  -14.6279 O   0  0  0  0  0  0  0  0  0  0  0  0
    4.0713   -1.1836  -15.6863 N   0  0  0  0  0  0  0  0  0  0  0  0
    3.5954   -1.9489  -16.1963 H   0  0  0  0  0  0  0  0  0  0  0  0
    7.5227    3.1761  -13.5808 C   0  0  0  0  0  0  0  0  0  0  0  0
    6.6864    4.1345  -13.0756 C   0  0  0  0  0  0  0  0  0  0  0  0
    7.2909    5.2666  -12.5660 C   0  0  0  0  0  0  0  0  0  0  0  0
    8.6611    5.4155  -12.5738 C   0  0  0  0  0  0  0  0  0  0  0  0
    9.5028    4.4348  -13.0960 C   0  0  0  0  0  0  0  0  0  0  0  0
    8.9359    3.3358  -13.5912 C   0  0  0  0  0  0  0  0  0  0  0  0
   10.0269    2.4444  -14.2048 C   0  0  0  0  0  0  0  0  0  0  0  0
    9.2312    1.7338  -15.1717 C   0  0  0  0  0  0  0  0  0  0  0  0
    9.0259    1.0261  -16.2304 N   0  0  0  0  0  0  0  0  0  0  0  0
    9.8320   -0.1555  -16.4056 C   0  0  0  0  0  0  0  0  0  0  0  0
    7.5741    0.7226  -16.1799 C   0  0  0  0  0  0  0  0  0  0  0  0
    9.2816    6.5803  -12.0464 N   0  0  0  0  0  0  0  0  0  0  0  0
    9.6050    6.6514  -10.8046 C   0  0  0  0  0  0  0  0  0  0  0  0
   10.1916    7.7313  -10.2666 N   0  0  0  0  0  0  0  0  0  0  0  0
   10.5341    7.8151   -8.9669 C   0  0  0  0  0  0  0  0  0  0  0  0
   11.1376    8.9315   -8.4194 C   0  0  0  0  0  0  0  0  0  0  0  0
   11.4881    9.0149   -7.0819 C   0  0  0  0  0  0  0  0  0  0  0  0
   11.2323    7.9464   -6.2397 C   0  0  0  0  0  0  0  0  0  0  0  0
   10.6288    6.8302   -6.7879 C   0  0  0  0  0  0  0  0  0  0  0  0
   10.2814    6.7520   -8.1214 C   0  0  0  0  0  0  0  0  0  0  0  0
    9.6774    5.6450   -8.6847 C   0  0  0  0  0  0  0  0  0  0  0  0
    9.3471    5.6038  -10.0089 N   0  0  0  0  0  0  0  0  0  0  0  0
    8.8917    4.7488  -10.3972 H   0  0  0  0  0  0  0  0  0  0  0  0
   11.5858    7.9981   -4.8264 C   0  0  0  0  0  0  0  0  0  0  0  0
   11.9741    9.1827   -4.2253 C   0  0  0  0  0  0  0  0  0  0  0  0
   12.3084    9.2218   -2.8834 C   0  0  0  0  0  0  0  0  0  0  0  0
   12.2692    8.0973   -2.1001 C   0  0  0  0  0  0  0  0  0  0  0  0
   11.8868    6.9101   -2.6753 C   0  0  0  0  0  0  0  0  0  0  0  0
   11.5555    6.8822   -4.0141 C   0  0  0  0  0  0  0  0  0  0  0  0
  1  2  1  0
  2  3  2  0
  3  4  1  0
  4  5  2  0
  5  6  1  0
  6  7  2  0
  7  8  1  0
  8  9  2  0
  9 10  1  0
 10 11  1  0
 11 12  1  0
  6 13  1  0
 13 14  2  0
 14 15  1  0
 15 16  2  0
 16 24  1  0
 24 25  2  0
 25 26  1  0
 26 27  2  0
 27 28  1  0
 28 29  2  0
 29 30  1  0
 30 36  1  0
 36 37  2  0
 37 38  1  0
 38 39  2  0
 39 40  1  0
 40 41  2  0
 30 31  2  0
 31 32  1  0
 32 33  2  0
 33 34  1  0
 34 35  1  0
 16 17  1  0
 17 18  2  0
 18 19  1  0
 19 20  1  0
 20 21  1  0
 21 22  1  0
 21 23  1  0
 11  3  1  0
 18 13  1  0
  9  4  1  0
 34 25  1  0
 23  5  1  0
 32 27  1  0
 41 36  1  0
M  END
>  <minimizedAffinity>  (344) 
-17.12916

$$$$
Mol: 47_47 - SminaDock
     RDKit          3D

 49 56  0  0  0  0  0  0  0  0999 V2000
    8.8509    7.5352  -11.8592 C   0  0  0  0  0  0  0  0  0  0  0  0
    7.9800    8.6366  -11.9536 C   0  0  0  0  0  0  0  0  0  0  0  0
    6.7031    8.4856  -12.4607 C   0  0  0  0  0  0  0  0  0  0  0  0
    6.3099    7.2354  -12.8681 C   0  0  0  0  0  0  0  0  0  0  0  0
    7.1464    6.1436  -12.7835 C   0  0  0  0  0  0  0  0  0  0  0  0
    6.7348    4.8809  -13.1899 C   0  0  0  0  0  0  0  0  0  0  0  0
    7.5184    3.7535  -13.1217 C   0  0  0  0  0  0  0  0  0  0  0  0
    8.7878    3.9126  -12.6141 C   0  0  0  0  0  0  0  0  0  0  0  0
    9.2384    5.1735  -12.1935 C   0  0  0  0  0  0  0  0  0  0  0  0
    8.4423    6.2916  -12.2697 C   0  0  0  0  0  0  0  0  0  0  0  0
    7.0192    2.4478  -13.5676 C   0  0  0  0  0  0  0  0  0  0  0  0
    7.9657    1.5694  -14.0871 C   0  0  0  0  0  0  0  0  0  0  0  0
    7.7451    0.3583  -14.7245 C   0  0  0  0  0  0  0  0  0  0  0  0
    6.6351   -0.4561  -14.6551 C   0  0  0  0  0  0  0  0  0  0  0  0
    5.3890   -0.1457  -14.1400 C   0  0  0  0  0  0  0  0  0  0  0  0
    4.5795   -1.0978  -13.9751 O   0  0  0  0  0  0  0  0  0  0  0  0
    4.9523    1.0831  -13.7950 N   0  0  0  0  0  0  0  0  0  0  0  0
    5.6721    2.1831  -13.4463 C   0  0  0  0  0  0  0  0  0  0  0  0
    5.0262    3.1377  -12.9217 O   0  0  0  0  0  0  0  0  0  0  0  0
    8.7899   -0.1169  -15.5610 N   0  0  0  0  0  0  0  0  0  0  0  0
    8.8469   -1.1243  -15.8655 H   0  0  0  0  0  0  0  0  0  0  0  0
    9.8026    0.7706  -16.0159 C   0  0  0  0  0  0  0  0  0  0  0  0
   10.1914    1.8492  -15.3119 N   0  0  0  0  0  0  0  0  0  0  0  0
   11.1604    2.6715  -15.7787 C   0  0  0  0  0  0  0  0  0  0  0  0
   11.5318    3.7694  -15.0257 C   0  0  0  0  0  0  0  0  0  0  0  0
   12.5106    4.6026  -15.4937 C   0  0  0  0  0  0  0  0  0  0  0  0
   13.1706    4.4146  -16.7024 C   0  0  0  0  0  0  0  0  0  0  0  0
   12.7913    3.3152  -17.4450 C   0  0  0  0  0  0  0  0  0  0  0  0
   11.8006    2.4630  -16.9817 C   0  0  0  0  0  0  0  0  0  0  0  0
   11.4153    1.3605  -17.7196 C   0  0  0  0  0  0  0  0  0  0  0  0
   10.4327    0.5442  -17.2254 C   0  0  0  0  0  0  0  0  0  0  0  0
   12.6205    7.4980  -11.5323 C   0  0  0  0  0  0  0  0  0  0  0  0
   12.8064    8.1694  -10.3426 C   0  0  0  0  0  0  0  0  0  0  0  0
   11.6848    8.6133   -9.6674 C   0  0  0  0  0  0  0  0  0  0  0  0
   10.4146    8.4025  -10.1489 C   0  0  0  0  0  0  0  0  0  0  0  0
   10.2040    7.7221  -11.3555 C   0  0  0  0  0  0  0  0  0  0  0  0
   11.3306    7.2882  -12.0135 C   0  0  0  0  0  0  0  0  0  0  0  0
   11.8284    9.3140   -8.4246 N   0  0  0  0  0  0  0  0  0  0  0  0
   11.7700    8.6751   -7.3075 C   0  0  0  0  0  0  0  0  0  0  0  0
   11.9087    9.3497   -6.1033 C   0  0  0  0  0  0  0  0  0  0  0  0
   11.8529    8.7159   -4.8803 C   0  0  0  0  0  0  0  0  0  0  0  0
   11.9909    9.3890   -3.6843 C   0  0  0  0  0  0  0  0  0  0  0  0
   11.9292    8.7214   -2.4723 C   0  0  0  0  0  0  0  0  0  0  0  0
   11.7266    7.3508   -2.4177 C   0  0  0  0  0  0  0  0  0  0  0  0
   11.5883    6.6747   -3.6124 C   0  0  0  0  0  0  0  0  0  0  0  0
   11.6505    7.3469   -4.8235 C   0  0  0  0  0  0  0  0  0  0  0  0
   11.5150    6.6949   -6.0303 C   0  0  0  0  0  0  0  0  0  0  0  0
   11.5749    7.3485   -7.2185 N   0  0  0  0  0  0  0  0  0  0  0  0
   11.4645    6.7984   -8.1072 H   0  0  0  0  0  0  0  0  0  0  0  0
 32 33  2  0
 33 34  1  0
 34 38  1  0
 38 39  2  0
 39 40  1  0
 40 41  2  0
 41 42  1  0
 42 43  2  0
 43 44  1  0
 44 45  2  0
 45 46  1  0
 46 47  2  0
 47 48  1  0
 48 49  1  0
 34 35  2  0
 35 36  1  0
 36  1  1  0
  1  2  2  0
  2  3  1  0
  3  4  2  0
  4  5  1  0
  5  6  2  0
  6  7  1  0
  7 11  1  0
 11 12  2  0
 12 13  1  0
 13 20  1  0
 20 21  1  0
 20 22  1  0
 22 23  2  0
 23 24  1  0
 24 25  2  0
 25 26  1  0
 26 27  2  0
 27 28  1  0
 28 29  2  0
 29 30  1  0
 30 31  2  0
 13 14  2  0
 14 15  1  0
 15 16  2  0
 15 17  1  0
 17 18  1  0
 18 19  2  0
  7  8  2  0
  8  9  1  0
  9 10  2  0
 36 37  2  0
 37 32  1  0
 48 39  1  0
 10  1  1  0
 46 41  1  0
 10  5  1  0
 18 11  1  0
 31 22  1  0
 29 24  1  0
M  CHG  1  17  -1
M  END
>  <minimizedAffinity>  (345) 
-17.10612

$$$$
Mol: 154_61 - SminaDock
     RDKit          3D

 44 51  0  0  0  0  0  0  0  0999 V2000
    8.3727    5.1719  -12.4223 C   0  0  0  0  0  0  0  0  0  0  0  0
    7.1113    5.0062  -11.9007 C   0  0  0  0  0  0  0  0  0  0  0  0
    6.2973    3.9657  -12.3738 C   0  0  0  0  0  0  0  0  0  0  0  0
    6.7725    3.1223  -13.3558 C   0  0  0  0  0  0  0  0  0  0  0  0
    8.0327    3.2869  -13.8781 C   0  0  0  0  0  0  0  0  0  0  0  0
    8.8200    4.3140  -13.4024 C   0  0  0  0  0  0  0  0  0  0  0  0
    8.5412    2.4053  -14.9168 C   0  0  1  0  0  0  0  0  0  0  0  0
    7.6410    1.4050  -15.2876 O   0  0  0  0  0  0  0  0  0  0  0  0
    6.3788    1.2051  -14.7957 C   0  0  0  0  0  0  0  0  0  0  0  0
    5.8826    2.0457  -13.8127 C   0  0  0  0  0  0  0  0  0  0  0  0
    4.6189    1.8318  -13.3320 C   0  0  0  0  0  0  0  0  0  0  0  0
    3.8300    0.8028  -13.8013 C   0  0  0  0  0  0  0  0  0  0  0  0
    4.2885   -0.0540  -14.7785 C   0  0  0  0  0  0  0  0  0  0  0  0
    5.5604    0.1788  -15.2471 C   0  0  0  0  0  0  0  0  0  0  0  0
    6.0709   -0.7260  -16.2897 C   0  0  0  0  0  0  0  0  0  0  0  0
    5.0379   -1.2392  -17.2324 C   0  0  0  0  0  0  0  0  0  0  0  0
    3.6907   -1.2102  -16.7738 N   0  0  2  0  0  0  0  0  0  0  0  0
    3.2007   -2.0883  -17.1153 H   0  0  0  0  0  0  0  0  0  0  0  0
    3.1379   -0.4260  -17.1870 H   0  0  0  0  0  0  0  0  0  0  0  0
    3.5174   -1.1847  -15.3470 C   0  0  0  0  0  0  0  0  0  0  0  0
    8.8518    3.2961  -16.1341 C   0  0  0  0  0  0  0  0  0  0  0  0
    9.7042    2.5790  -17.1262 C   0  0  0  0  0  0  0  0  0  0  0  0
    9.8304    1.1704  -16.9342 N   0  0  0  0  0  0  0  0  0  0  0  0
    9.0997    0.6214  -17.3946 H   0  0  0  0  0  0  0  0  0  0  0  0
   10.1962    0.7658  -15.6152 C   0  0  0  0  0  0  0  0  0  0  0  0
    9.8726    1.7719  -14.5565 C   0  0  0  0  0  0  0  0  0  0  0  0
   11.2069    7.7711   -6.2419 C   0  0  0  0  0  0  0  0  0  0  0  0
   11.6106    8.7022   -7.1783 C   0  0  0  0  0  0  0  0  0  0  0  0
   11.2782    8.5870   -8.5183 C   0  0  0  0  0  0  0  0  0  0  0  0
   10.5296    7.5212   -8.9238 C   0  0  0  0  0  0  0  0  0  0  0  0
   10.1178    6.5784   -7.9911 C   0  0  0  0  0  0  0  0  0  0  0  0
    9.3624    5.5132   -8.4317 C   0  0  0  0  0  0  0  0  0  0  0  0
    9.0652    5.4403   -9.7267 N   0  0  0  0  0  0  0  0  0  0  0  0
    9.4501    6.3377  -10.6503 C   0  0  0  0  0  0  0  0  0  0  0  0
    9.1484    6.2444  -11.9010 N   0  0  0  0  0  0  0  0  0  0  0  0
   10.1872    7.3813  -10.2341 N   0  0  0  0  0  0  0  0  0  0  0  0
   10.5149    8.1071  -10.8967 H   0  0  0  0  0  0  0  0  0  0  0  0
   10.4557    6.7012   -6.6476 C   0  0  0  0  0  0  0  0  0  0  0  0
   12.3112    8.2546   -2.1473 C   0  0  0  0  0  0  0  0  0  0  0  0
   11.9519    7.0284   -2.6610 C   0  0  0  0  0  0  0  0  0  0  0  0
   11.5954    6.8559   -3.9704 C   0  0  0  0  0  0  0  0  0  0  0  0
   11.5839    7.9402   -4.8478 C   0  0  0  0  0  0  0  0  0  0  0  0
   11.9414    9.1747   -4.3484 C   0  0  0  0  0  0  0  0  0  0  0  0
   12.2986    9.3313   -3.0231 C   0  0  0  0  0  0  0  0  0  0  0  0
 39 40  2  0
 40 41  1  0
 41 42  2  0
 42 27  1  0
 27 28  2  0
 28 29  1  0
 29 30  2  0
 30 31  1  0
 31 32  1  0
 32 33  2  0
 33 34  1  0
 34 35  2  0
 35  1  1  0
  1  2  2  0
  2  3  1  0
  3  4  2  0
  4  5  1  0
  5  6  2  0
  5  7  1  0
  7  8  1  0
  8  9  1  0
  9 10  2  0
 10 11  1  0
 11 12  2  0
 12 13  1  0
 13 14  2  0
 14 15  1  0
 15 16  1  0
 16 17  1  0
 17 18  1  6
 17 19  1  0
 17 20  1  0
  7 21  1  6
 21 22  1  0
 22 23  1  0
 23 24  1  0
 23 25  1  0
 25 26  1  0
 34 36  1  0
 36 37  1  0
 31 38  2  0
 42 43  1  0
 43 44  2  0
 44 39  1  0
 38 27  1  0
 36 30  1  0
  6  1  1  0
 26  7  1  0
 10  4  1  0
 20 13  1  0
 14  9  1  0
M  CHG  1  17   1
M  END
>  <minimizedAffinity>  (346) 
-17.10200

$$$$
Mol: 113_11 - SminaDock
     RDKit          3D

 37 43  0  0  0  0  0  0  0  0999 V2000
    7.6105    4.6864  -12.6156 C   0  0  0  0  0  0  0  0  0  0  0  0
    6.3447    4.6063  -12.0790 C   0  0  0  0  0  0  0  0  0  0  0  0
    5.5139    3.5161  -12.3593 C   0  0  0  0  0  0  0  0  0  0  0  0
    5.9637    2.5219  -13.1733 C   0  0  0  0  0  0  0  0  0  0  0  0
    7.2391    2.6198  -13.7034 C   0  0  0  0  0  0  0  0  0  0  0  0
    8.0683    3.6814  -13.4399 C   0  0  0  0  0  0  0  0  0  0  0  0
    7.8407    1.6145  -14.5952 C   0  0  2  0  0  0  0  0  0  0  0  0
    8.0017    0.2559  -14.0086 C   0  0  0  0  0  0  0  0  0  0  0  0
    7.4078   -0.5534  -13.2609 O   0  0  0  0  0  0  0  0  0  0  0  0
    9.2422    0.1426  -14.6682 O   0  0  0  0  0  0  0  0  0  0  0  0
    9.3232    1.5779  -14.7197 C   0  0  0  0  0  0  0  0  0  0  0  0
    7.0579    1.6292  -15.8852 C   0  0  0  0  0  0  0  0  0  0  0  0
    5.8477    0.8122  -15.7138 C   0  0  0  0  0  0  0  0  0  0  0  0
    5.6238    0.0175  -16.8162 C   0  0  0  0  0  0  0  0  0  0  0  0
    4.5423   -0.8443  -16.8956 C   0  0  0  0  0  0  0  0  0  0  0  0
    3.6911   -0.8811  -15.8275 C   0  0  0  0  0  0  0  0  0  0  0  0
    3.9133   -0.0896  -14.7287 C   0  0  0  0  0  0  0  0  0  0  0  0
    4.9926    0.7784  -14.6353 C   0  0  0  0  0  0  0  0  0  0  0  0
    4.9311    1.4651  -13.3431 C   0  0  0  0  0  0  0  0  0  0  0  0
   11.1168    7.5904   -6.9938 C   0  0  0  0  0  0  0  0  0  0  0  0
   11.4686    8.4127   -8.0420 C   0  0  0  0  0  0  0  0  0  0  0  0
   11.0385    8.2548   -9.3343 C   0  0  0  0  0  0  0  0  0  0  0  0
   10.1825    7.1766   -9.5852 C   0  0  0  0  0  0  0  0  0  0  0  0
    9.8054    6.3292   -8.5650 C   0  0  0  0  0  0  0  0  0  0  0  0
    8.9607    5.2840   -8.8692 C   0  0  0  0  0  0  0  0  0  0  0  0
    8.5435    5.1341  -10.1320 N   0  0  0  0  0  0  0  0  0  0  0  0
    8.9012    5.9505  -11.1388 C   0  0  0  0  0  0  0  0  0  0  0  0
    8.4786    5.7770  -12.3523 N   0  0  0  0  0  0  0  0  0  0  0  0
    9.7256    6.9674  -10.8319 N   0  0  0  0  0  0  0  0  0  0  0  0
   10.0247    7.6226  -11.5898 H   0  0  0  0  0  0  0  0  0  0  0  0
   10.2720    6.5344   -7.2660 C   0  0  0  0  0  0  0  0  0  0  0  0
   12.5633    8.2428   -3.0233 C   0  0  0  0  0  0  0  0  0  0  0  0
   11.8426    7.0872   -3.3386 C   0  0  0  0  0  0  0  0  0  0  0  0
   11.3926    6.9089   -4.6234 C   0  0  0  0  0  0  0  0  0  0  0  0
   11.6116    7.8157   -5.6397 C   0  0  0  0  0  0  0  0  0  0  0  0
   12.3285    8.9531   -5.3019 C   0  0  0  0  0  0  0  0  0  0  0  0
   12.7968    9.1667   -4.0212 C   0  0  0  0  0  0  0  0  0  0  0  0
 32 33  2  0
 33 34  1  0
 34 35  2  0
 35 20  1  0
 20 21  2  0
 21 22  1  0
 22 23  2  0
 23 24  1  0
 24 25  1  0
 25 26  2  0
 26 27  1  0
 27 28  2  0
 28  1  1  0
  1  2  2  0
  2  3  1  0
  3  4  2  0
  4  5  1  0
  5  6  2  0
  5  7  1  0
  7  8  1  0
  8  9  2  0
  8 10  1  0
 10 11  1  0
  7 12  1  6
 12 13  1  0
 13 14  2  0
 14 15  1  0
 15 16  2  0
 16 17  1  0
 17 18  2  0
 18 19  1  0
 27 29  1  0
 29 30  1  0
 24 31  2  0
 35 36  1  0
 36 37  2  0
 37 32  1  0
 31 20  1  0
 29 23  1  0
  6  1  1  0
 11  7  1  0
 18 13  1  0
 19  4  1  0
M  END
>  <minimizedAffinity>  (347) 
-17.07946

$$$$
Mol: 137_46 - SminaDock
     RDKit          3D

 44 51  0  0  0  0  0  0  0  0999 V2000
   10.0871    2.4251  -18.0179 O   0  0  0  0  0  0  0  0  0  0  0  0
   10.0868    2.6562  -16.7744 C   0  0  0  0  0  0  0  0  0  0  0  0
   10.9525    2.0503  -15.7883 N   0  0  0  0  0  0  0  0  0  0  0  0
   10.5880    2.6146  -14.5376 C   0  0  0  0  0  0  0  0  0  0  0  0
   11.3463    2.7534  -13.5695 O   0  0  0  0  0  0  0  0  0  0  0  0
    9.1275    2.9717  -14.7035 C   0  0  1  0  0  0  0  0  0  0  0  0
    8.2873    1.7835  -14.8127 C   0  0  0  0  0  0  0  0  0  0  0  0
    6.9489    1.8901  -14.2241 C   0  0  0  0  0  0  0  0  0  0  0  0
    6.5545    2.9361  -13.4241 C   0  0  0  0  0  0  0  0  0  0  0  0
    5.2723    2.9210  -12.8980 C   0  0  0  0  0  0  0  0  0  0  0  0
    4.3701    1.9056  -13.1390 C   0  0  0  0  0  0  0  0  0  0  0  0
    4.7495    0.8695  -13.9274 C   0  0  0  0  0  0  0  0  0  0  0  0
    3.8481   -0.1741  -14.1796 C   0  0  0  0  0  0  0  0  0  0  0  0
    4.2436   -1.2147  -14.9702 C   0  0  0  0  0  0  0  0  0  0  0  0
    5.5048   -1.2242  -15.5007 C   0  0  0  0  0  0  0  0  0  0  0  0
    6.3993   -0.1807  -15.2458 C   0  0  0  0  0  0  0  0  0  0  0  0
    6.0174    0.8721  -14.4544 C   0  0  0  0  0  0  0  0  0  0  0  0
    7.4924    4.0298  -13.1852 C   0  0  0  0  0  0  0  0  0  0  0  0
    7.0970    5.0449  -12.3232 C   0  0  0  0  0  0  0  0  0  0  0  0
    8.0145    6.0494  -12.0540 C   0  0  0  0  0  0  0  0  0  0  0  0
    9.2739    6.0622  -12.6072 C   0  0  0  0  0  0  0  0  0  0  0  0
    9.6089    5.0473  -13.4435 C   0  0  0  0  0  0  0  0  0  0  0  0
    8.7311    4.0005  -13.7602 C   0  0  0  0  0  0  0  0  0  0  0  0
    9.2405    3.5581  -16.0745 N   0  0  0  0  0  0  0  0  0  0  0  0
   11.6914    1.3370  -16.0051 H   0  0  0  0  0  0  0  0  0  0  0  0
    8.8068    4.4165  -16.4330 H   0  0  0  0  0  0  0  0  0  0  0  0
   10.1849    7.1193  -12.2989 N   0  0  0  0  0  0  0  0  0  0  0  0
   10.4994    7.7216  -13.0789 H   0  0  0  0  0  0  0  0  0  0  0  0
   10.6368    7.3323  -10.9845 C   0  0  0  0  0  0  0  0  0  0  0  0
   11.8389    7.9166  -10.7288 N   0  0  0  0  0  0  0  0  0  0  0  0
   12.2911    8.1320   -9.4831 C   0  0  0  0  0  0  0  0  0  0  0  0
   11.5171    7.7510   -8.3933 C   0  0  0  0  0  0  0  0  0  0  0  0
   11.9557    7.9601   -7.0943 C   0  0  0  0  0  0  0  0  0  0  0  0
   11.1986    7.5881   -6.0144 C   0  0  0  0  0  0  0  0  0  0  0  0
    9.9746    6.9932   -6.2698 C   0  0  0  0  0  0  0  0  0  0  0  0
    9.5270    6.7795   -7.5570 C   0  0  0  0  0  0  0  0  0  0  0  0
   10.2988    7.1587   -8.6442 C   0  0  0  0  0  0  0  0  0  0  0  0
    9.9030    6.9709   -9.9182 N   0  0  0  0  0  0  0  0  0  0  0  0
   11.6348    7.7953   -4.6386 C   0  0  0  0  0  0  0  0  0  0  0  0
   11.9828    9.0455   -4.1488 C   0  0  0  0  0  0  0  0  0  0  0  0
   12.3912    9.2397   -2.8588 C   0  0  0  0  0  0  0  0  0  0  0  0
   12.4651    8.1532   -1.9950 C   0  0  0  0  0  0  0  0  0  0  0  0
   12.1289    6.9037   -2.4444 C   0  0  0  0  0  0  0  0  0  0  0  0
   11.7172    6.7360   -3.7607 C   0  0  0  0  0  0  0  0  0  0  0  0
  1  2  2  0
  2  3  1  0
  3  4  1  0
  4  5  2  0
  4  6  1  0
  6  7  1  6
  7  8  1  0
  8  9  2  0
  9 10  1  0
 10 11  2  0
 11 12  1  0
 12 13  2  0
 13 14  1  0
 14 15  2  0
 15 16  1  0
 16 17  2  0
  9 18  1  0
 18 19  2  0
 19 20  1  0
 20 21  2  0
 21 27  1  0
 27 29  1  0
 29 30  2  0
 30 31  1  0
 31 32  2  0
 32 33  1  0
 33 34  2  0
 34 39  1  0
 39 40  2  0
 40 41  1  0
 41 42  2  0
 42 43  1  0
 43 44  2  0
 34 35  1  0
 35 36  2  0
 36 37  1  0
 37 38  2  0
 21 22  1  0
 22 23  2  0
  6 24  1  0
 24  2  1  0
 23  6  1  0
 17  8  1  0
 23 18  1  0
 17 12  1  0
 38 29  1  0
 37 32  1  0
 44 39  1  0
  3 25  1  0
 27 28  1  0
 24 26  1  0
M  END
>  <minimizedAffinity>  (348) 
-17.10528

$$$$
Mol: 143_24 - SminaDock
     RDKit          3D

 38 44  0  0  0  0  0  0  0  0999 V2000
    3.3552   -1.4263  -16.3731 H   0  0  0  0  0  0  0  0  0  0  0  0
    4.2078   -1.5317  -15.8552 O   0  0  0  0  0  0  0  0  0  0  0  0
    5.4396   -1.0269  -16.2828 C   0  0  0  0  0  0  0  0  0  0  0  0
    6.0684   -1.6280  -17.3064 N   0  0  0  0  0  0  0  0  0  0  0  0
    7.2301   -1.1467  -17.7049 N   0  0  0  0  0  0  0  0  0  0  0  0
    7.7720   -0.0734  -17.0949 C   0  0  0  0  0  0  0  0  0  0  0  0
    7.1615    0.5694  -16.0455 C   0  0  0  0  0  0  0  0  0  0  0  0
    7.6789    1.6686  -15.3956 C   0  0  0  0  0  0  0  0  0  0  0  0
    7.0246    2.2966  -14.3297 C   0  0  0  0  0  0  0  0  0  0  0  0
    5.8164    1.7871  -13.9217 C   0  0  0  0  0  0  0  0  0  0  0  0
    5.2698    0.6657  -14.5720 C   0  0  0  0  0  0  0  0  0  0  0  0
    5.9466    0.0775  -15.6179 C   0  0  0  0  0  0  0  0  0  0  0  0
    5.0759    2.3714  -12.7894 C   0  0  0  0  0  0  0  0  0  0  0  0
    5.5681    3.6234  -12.2138 C   0  0  0  0  0  0  0  0  0  0  0  0
    6.8881    4.1050  -12.6358 C   0  0  0  0  0  0  0  0  0  0  0  0
    7.4097    5.2126  -11.9857 C   0  0  0  0  0  0  0  0  0  0  0  0
    8.6364    5.6826  -12.3966 C   0  0  0  0  0  0  0  0  0  0  0  0
    9.3361    5.0855  -13.4171 C   0  0  0  0  0  0  0  0  0  0  0  0
    8.7815    3.9671  -14.0538 C   0  0  0  0  0  0  0  0  0  0  0  0
    7.5571    3.4764  -13.6626 C   0  0  0  0  0  0  0  0  0  0  0  0
    9.2309    6.8194  -11.7750 N   0  0  0  0  0  0  0  0  0  0  0  0
    9.5784    6.8438  -10.5345 C   0  0  0  0  0  0  0  0  0  0  0  0
   10.1406    7.9470   -9.9818 N   0  0  0  0  0  0  0  0  0  0  0  0
   10.5167    8.0017   -8.6908 C   0  0  0  0  0  0  0  0  0  0  0  0
   11.0872    9.1384   -8.1456 C   0  0  0  0  0  0  0  0  0  0  0  0
   11.4678    9.1857   -6.8214 C   0  0  0  0  0  0  0  0  0  0  0  0
   11.2829    8.0871   -6.0120 C   0  0  0  0  0  0  0  0  0  0  0  0
   10.7177    6.9424   -6.5274 C   0  0  0  0  0  0  0  0  0  0  0  0
   10.3396    6.9135   -7.8668 C   0  0  0  0  0  0  0  0  0  0  0  0
    9.7702    5.7882   -8.4164 C   0  0  0  0  0  0  0  0  0  0  0  0
    9.4068    5.7855   -9.7311 N   0  0  0  0  0  0  0  0  0  0  0  0
    8.9758    4.9094  -10.1183 H   0  0  0  0  0  0  0  0  0  0  0  0
   11.6700    8.1022   -4.6096 C   0  0  0  0  0  0  0  0  0  0  0  0
   11.6746    6.9214   -3.8698 C   0  0  0  0  0  0  0  0  0  0  0  0
   12.0260    6.8650   -2.5456 C   0  0  0  0  0  0  0  0  0  0  0  0
   12.3982    8.0352   -1.8978 C   0  0  0  0  0  0  0  0  0  0  0  0
   12.3995    9.2119   -2.6135 C   0  0  0  0  0  0  0  0  0  0  0  0
   12.0423    9.2612   -3.9542 C   0  0  0  0  0  0  0  0  0  0  0  0
  1  2  1  0
  2  3  1  0
  3  4  2  0
  4  5  1  0
  5  6  2  0
  6  7  1  0
  7  8  2  0
  8  9  1  0
  9 10  2  0
 10 11  1  0
 11 12  2  0
 10 13  1  0
 13 14  1  0
 14 15  1  0
 15 16  2  0
 16 17  1  0
 17 21  1  0
 21 22  2  0
 22 23  1  0
 23 24  2  0
 24 25  1  0
 25 26  2  0
 26 27  1  0
 27 33  1  0
 33 34  2  0
 34 35  1  0
 35 36  2  0
 36 37  1  0
 37 38  2  0
 27 28  2  0
 28 29  1  0
 29 30  2  0
 30 31  1  0
 31 32  1  0
 17 18  2  0
 18 19  1  0
 19 20  2  0
 12  3  1  0
 20 15  1  0
 12  7  1  0
 31 22  1  0
 20  9  1  0
 29 24  1  0
 38 33  1  0
M  END
>  <minimizedAffinity>  (349) 
-17.06231

$$$$
Mol: 165_62 - SminaDock
     RDKit          3D

 39 45  0  0  0  0  0  0  0  0999 V2000
    1.9519   -0.5801  -13.6847 H   0  0  0  0  0  0  0  0  0  0  0  0
    2.6972   -1.1861  -14.0015 O   0  0  0  0  0  0  0  0  0  0  0  0
    3.8993   -0.6376  -14.4572 C   0  0  0  0  0  0  0  0  0  0  0  0
    4.4425    0.4596  -13.9028 N   0  0  0  0  0  0  0  0  0  0  0  0
    5.5956    1.0131  -14.3157 C   0  0  0  0  0  0  0  0  0  0  0  0
    6.1290    2.1472  -13.7203 C   0  0  0  0  0  0  0  0  0  0  0  0
    7.3145    2.7273  -14.1345 C   0  0  0  0  0  0  0  0  0  0  0  0
    8.0137    2.1747  -15.1797 C   0  0  0  0  0  0  0  0  0  0  0  0
    7.4929    1.0472  -15.7792 C   0  0  0  0  0  0  0  0  0  0  0  0
    6.3082    0.4694  -15.3636 C   0  0  0  0  0  0  0  0  0  0  0  0
    5.7825   -0.6582  -15.9591 C   0  0  0  0  0  0  0  0  0  0  0  0
    6.4154   -1.1643  -16.9108 O   0  0  0  0  0  0  0  0  0  0  0  0
    4.5865   -1.2129  -15.5135 C   0  0  0  0  0  0  0  0  0  0  0  0
    9.2882    2.7096  -15.6985 C   0  0  0  0  0  0  0  0  0  0  0  0
    9.8015    3.9201  -15.0567 C   0  0  0  0  0  0  0  0  0  0  0  0
    9.0574    4.4996  -13.9343 C   0  0  0  0  0  0  0  0  0  0  0  0
    9.5868    5.6489  -13.3209 C   0  0  0  0  0  0  0  0  0  0  0  0
    8.9035    6.2016  -12.2795 C   0  0  0  0  0  0  0  0  0  0  0  0
    7.7328    5.6448  -11.8492 C   0  0  0  0  0  0  0  0  0  0  0  0
    7.2092    4.5061  -12.4575 C   0  0  0  0  0  0  0  0  0  0  0  0
    7.8787    3.9276  -13.5110 C   0  0  0  0  0  0  0  0  0  0  0  0
    9.3873    7.3681  -11.6147 N   0  0  0  0  0  0  0  0  0  0  0  0
    9.7292    7.2595  -10.3823 C   0  0  0  0  0  0  0  0  0  0  0  0
    9.6435    6.0930   -9.7150 N   0  0  0  0  0  0  0  0  0  0  0  0
    9.9960    5.9642   -8.4289 C   0  0  0  0  0  0  0  0  0  0  0  0
   10.4633    7.0731   -7.7704 C   0  0  0  0  0  0  0  0  0  0  0  0
   10.8390    6.9766   -6.4336 C   0  0  0  0  0  0  0  0  0  0  0  0
   11.3097    8.0803   -5.7604 C   0  0  0  0  0  0  0  0  0  0  0  0
   11.3956    9.2815   -6.4549 C   0  0  0  0  0  0  0  0  0  0  0  0
   11.0259    9.3783   -7.7718 C   0  0  0  0  0  0  0  0  0  0  0  0
   10.5498    8.2762   -8.4649 C   0  0  0  0  0  0  0  0  0  0  0  0
   10.1842    8.3569   -9.7559 N   0  0  0  0  0  0  0  0  0  0  0  0
   10.2607    9.2745  -10.2519 H   0  0  0  0  0  0  0  0  0  0  0  0
   11.7222    8.0606   -4.3626 C   0  0  0  0  0  0  0  0  0  0  0  0
   12.0927    9.2000   -3.6799 C   0  0  0  0  0  0  0  0  0  0  0  0
   12.4859    9.2022   -2.3577 C   0  0  0  0  0  0  0  0  0  0  0  0
   12.5183    8.0064   -1.6569 C   0  0  0  0  0  0  0  0  0  0  0  0
   12.1529    6.8491   -2.3135 C   0  0  0  0  0  0  0  0  0  0  0  0
   11.7578    6.8630   -3.6502 C   0  0  0  0  0  0  0  0  0  0  0  0
  1  2  1  0
  2  3  1  0
  3  4  1  0
  4  5  1  0
  5  6  2  0
  6  7  1  0
  7  8  2  0
  8  9  1  0
  9 10  2  0
 10 11  1  0
 11 12  2  0
 11 13  1  0
  8 14  1  0
 14 15  1  0
 15 16  1  0
 16 17  2  0
 17 18  1  0
 18 22  1  0
 22 23  2  0
 23 24  1  0
 24 25  2  0
 25 26  1  0
 26 27  2  0
 27 28  1  0
 28 34  1  0
 34 35  2  0
 35 36  1  0
 36 37  2  0
 37 38  1  0
 38 39  2  0
 28 29  2  0
 29 30  1  0
 30 31  2  0
 31 32  1  0
 32 33  1  0
 18 19  2  0
 19 20  1  0
 20 21  2  0
 13  3  2  0
 21 16  1  0
 10  5  1  0
 32 23  1  0
 21  7  1  0
 31 26  1  0
 39 34  1  0
M  CHG  1   4  -1
M  END
>  <minimizedAffinity>  (350) 
-17.11741

$$$$
Mol: 151_40 - SminaDock
     RDKit          3D

 40 46  0  0  0  0  0  0  0  0999 V2000
    5.9887   -2.9962  -17.0869 H   0  0  0  0  0  0  0  0  0  0  0  0
    5.2868   -2.5765  -16.4725 N   0  0  0  0  0  0  0  0  0  0  0  0
    5.5921   -1.4558  -15.8615 C   0  0  0  0  0  0  0  0  0  0  0  0
    6.7847   -0.8812  -16.0378 N   0  0  0  0  0  0  0  0  0  0  0  0
    7.1169    0.2858  -15.4086 C   0  0  0  0  0  0  0  0  0  0  0  0
    8.3711    0.8152  -15.6441 C   0  0  0  0  0  0  0  0  0  0  0  0
    8.7157    2.0059  -15.0046 C   0  0  0  0  0  0  0  0  0  0  0  0
    7.8221    2.6226  -14.1671 C   0  0  0  0  0  0  0  0  0  0  0  0
    6.5775    2.0978  -13.9330 C   0  0  0  0  0  0  0  0  0  0  0  0
    6.2132    0.8994  -14.5683 C   0  0  0  0  0  0  0  0  0  0  0  0
    4.9999    0.2997  -14.3993 C   0  0  0  0  0  0  0  0  0  0  0  0
    4.0543    0.8754  -13.5648 O   0  0  0  0  0  0  0  0  0  0  0  0
    3.1282    1.1111  -13.9027 H   0  0  0  0  0  0  0  0  0  0  0  0
    4.7288   -0.8488  -15.0450 N   0  0  0  0  0  0  0  0  0  0  0  0
    5.5840    2.7203  -13.0481 C   0  0  0  0  0  0  0  0  0  0  0  0
    6.0404    3.9645  -12.4094 C   0  0  0  0  0  0  0  0  0  0  0  0
    7.3692    4.4950  -12.6843 C   0  0  0  0  0  0  0  0  0  0  0  0
    7.7093    5.7062  -12.0271 C   0  0  0  0  0  0  0  0  0  0  0  0
    8.9364    6.2565  -12.2379 C   0  0  0  0  0  0  0  0  0  0  0  0
    9.8193    5.6318  -13.0794 C   0  0  0  0  0  0  0  0  0  0  0  0
    9.4969    4.4443  -13.7289 C   0  0  0  0  0  0  0  0  0  0  0  0
    8.2581    3.8816  -13.5210 C   0  0  0  0  0  0  0  0  0  0  0  0
    9.3020    7.4555  -11.6010 N   0  0  0  0  0  0  0  0  0  0  0  0
    9.6929    7.3799  -10.3504 C   0  0  0  0  0  0  0  0  0  0  0  0
    9.7384    6.1979   -9.7129 N   0  0  0  0  0  0  0  0  0  0  0  0
   10.1348    6.0944   -8.4354 C   0  0  0  0  0  0  0  0  0  0  0  0
   10.5191    7.2289   -7.7145 C   0  0  0  0  0  0  0  0  0  0  0  0
   10.9252    7.1215   -6.4057 C   0  0  0  0  0  0  0  0  0  0  0  0
   11.2973    8.2542   -5.7230 C   0  0  0  0  0  0  0  0  0  0  0  0
   11.2484    9.4588   -6.3805 C   0  0  0  0  0  0  0  0  0  0  0  0
   10.8404    9.5431   -7.6859 C   0  0  0  0  0  0  0  0  0  0  0  0
   10.4558    8.4143   -8.4088 C   0  0  0  0  0  0  0  0  0  0  0  0
   10.0569    8.5018   -9.6876 N   0  0  0  0  0  0  0  0  0  0  0  0
   10.0266    9.4259  -10.1700 H   0  0  0  0  0  0  0  0  0  0  0  0
   11.7375    8.1728   -4.3189 C   0  0  0  0  0  0  0  0  0  0  0  0
   12.0826    9.2840   -3.5812 C   0  0  0  0  0  0  0  0  0  0  0  0
   12.4921    9.1383   -2.2537 C   0  0  0  0  0  0  0  0  0  0  0  0
   12.5648    7.8989   -1.6435 C   0  0  0  0  0  0  0  0  0  0  0  0
   12.2158    6.7919   -2.3946 C   0  0  0  0  0  0  0  0  0  0  0  0
   11.8107    6.9388   -3.7081 C   0  0  0  0  0  0  0  0  0  0  0  0
  1  2  1  0
  2  3  2  0
  3  4  1  0
  4  5  2  0
  5  6  1  0
  6  7  2  0
  7  8  1  0
  8  9  2  0
  9 10  1  0
 10 11  2  0
 11 12  1  0
 12 13  1  0
 11 14  1  0
  9 15  1  0
 15 16  1  0
 16 17  1  0
 17 18  2  0
 18 19  1  0
 19 23  1  0
 23 24  2  0
 24 25  1  0
 25 26  2  0
 26 27  1  0
 27 28  2  0
 28 29  1  0
 29 35  1  0
 35 36  2  0
 36 37  1  0
 37 38  2  0
 38 39  1  0
 39 40  2  0
 29 30  2  0
 30 31  1  0
 31 32  2  0
 32 33  1  0
 33 34  1  0
 19 20  2  0
 20 21  1  0
 21 22  2  0
 14  3  1  0
 22 17  1  0
 10  5  1  0
 33 24  1  0
 22  8  1  0
 32 27  1  0
 40 35  1  0
M  CHG  1  14  -1
M  END
>  <minimizedAffinity>  (351) 
-17.13222

$$$$
Mol: 142_55 - SminaDock
     RDKit          3D

 38 44  0  0  0  0  0  0  0  0999 V2000
    2.8456   -1.3997  -14.3691 H   0  0  0  0  0  0  0  0  0  0  0  0
    3.3037   -1.3071  -15.2659 O   0  0  0  0  0  0  0  0  0  0  0  0
    4.6270   -0.8949  -15.3829 C   0  0  0  0  0  0  0  0  0  0  0  0
    5.1625    0.1978  -14.8095 C   0  0  0  0  0  0  0  0  0  0  0  0
    4.6049    1.1628  -13.9969 C   0  0  0  0  0  0  0  0  0  0  0  0
    5.3129    2.2407  -13.4850 C   0  0  0  0  0  0  0  0  0  0  0  0
    6.6469    2.3359  -13.8181 C   0  0  0  0  0  0  0  0  0  0  0  0
    7.2089    1.3710  -14.6316 C   0  0  0  0  0  0  0  0  0  0  0  0
    6.4951    0.2983  -15.1382 C   0  0  0  0  0  0  0  0  0  0  0  0
    6.8353   -0.6850  -15.8985 N   0  0  0  0  0  0  0  0  0  0  0  0
    5.7069   -1.5117  -16.1172 C   0  0  0  0  0  0  0  0  0  0  0  0
    5.6213   -2.5654  -16.7982 O   0  0  0  0  0  0  0  0  0  0  0  0
    7.4008    3.4715  -13.2946 C   0  0  0  0  0  0  0  0  0  0  0  0
    8.7366    3.6087  -13.5878 C   0  0  0  0  0  0  0  0  0  0  0  0
    9.4428    4.6725  -13.0861 C   0  0  0  0  0  0  0  0  0  0  0  0
    8.8415    5.6114  -12.2911 C   0  0  0  0  0  0  0  0  0  0  0  0
    7.5150    5.4486  -12.0176 C   0  0  0  0  0  0  0  0  0  0  0  0
    6.7579    4.3910  -12.5009 C   0  0  0  0  0  0  0  0  0  0  0  0
    5.3320    4.3447  -12.1324 C   0  0  0  0  0  0  0  0  0  0  0  0
    4.5735    3.1781  -12.6271 C   0  0  0  0  0  0  0  0  0  0  0  0
    9.6362    6.6864  -11.8079 N   0  0  0  0  0  0  0  0  0  0  0  0
    9.8751    6.7089  -10.5239 C   0  0  0  0  0  0  0  0  0  0  0  0
    9.4057    5.7780   -9.6880 N   0  0  0  0  0  0  0  0  0  0  0  0
    9.6740    5.8397   -8.3770 C   0  0  0  0  0  0  0  0  0  0  0  0
   10.4392    6.8549   -7.8296 C   0  0  0  0  0  0  0  0  0  0  0  0
   10.7199    6.9277   -6.4832 C   0  0  0  0  0  0  0  0  0  0  0  0
   11.4857    7.9584   -5.9853 C   0  0  0  0  0  0  0  0  0  0  0  0
   11.9552    8.9013   -6.8661 C   0  0  0  0  0  0  0  0  0  0  0  0
   11.6737    8.8257   -8.2071 C   0  0  0  0  0  0  0  0  0  0  0  0
   10.9035    7.7964   -8.7357 C   0  0  0  0  0  0  0  0  0  0  0  0
   10.6185    7.7047  -10.0293 N   0  0  0  0  0  0  0  0  0  0  0  0
   10.9879    8.4332  -10.6716 H   0  0  0  0  0  0  0  0  0  0  0  0
   11.7740    8.0208   -4.5483 C   0  0  0  0  0  0  0  0  0  0  0  0
   12.1244    9.1971   -3.9195 C   0  0  0  0  0  0  0  0  0  0  0  0
   12.3912    9.2209   -2.5565 C   0  0  0  0  0  0  0  0  0  0  0  0
   12.3189    8.0838   -1.7800 C   0  0  0  0  0  0  0  0  0  0  0  0
   11.9684    6.9077   -2.4090 C   0  0  0  0  0  0  0  0  0  0  0  0
   11.7021    6.8846   -3.7699 C   0  0  0  0  0  0  0  0  0  0  0  0
  1  2  1  0
  2  3  1  0
  3  4  2  0
  4  5  1  0
  5  6  2  0
  6  7  1  0
  7  8  2  0
  8  9  1  0
  9 10  2  0
 10 11  1  0
 11 12  2  0
  7 13  1  0
 13 14  2  0
 14 15  1  0
 15 16  2  0
 16 21  1  0
 21 22  2  0
 22 23  1  0
 23 24  2  0
 24 25  1  0
 25 26  2  0
 26 27  1  0
 27 33  1  0
 33 34  2  0
 34 35  1  0
 35 36  2  0
 36 37  1  0
 37 38  2  0
 27 28  2  0
 28 29  1  0
 29 30  2  0
 30 31  1  0
 31 32  1  0
 16 17  1  0
 17 18  2  0
 18 19  1  0
 19 20  1  0
 11  3  1  0
 18 13  1  0
  9  4  1  0
 31 22  1  0
 20  6  1  0
 30 25  1  0
 38 33  1  0
M  END
>  <minimizedAffinity>  (352) 
-17.05616

$$$$
Mol: 137_27 - SminaDock
     RDKit          3D

 44 51  0  0  0  0  0  0  0  0999 V2000
   10.4860    6.0063  -17.7273 H   0  0  0  0  0  0  0  0  0  0  0  0
   11.1042    5.4924  -17.1038 O   0  0  0  0  0  0  0  0  0  0  0  0
   10.4933    4.5290  -16.2719 C   0  0  0  0  0  0  0  0  0  0  0  0
    9.2377    4.3301  -16.1168 N   0  0  0  0  0  0  0  0  0  0  0  0
    9.0245    3.2320  -15.1617 C   0  0  1  0  0  0  0  0  0  0  0  0
   10.4064    2.8196  -14.7811 C   0  0  0  0  0  0  0  0  0  0  0  0
   10.6346    1.8907  -13.9669 O   0  0  0  0  0  0  0  0  0  0  0  0
   11.2906    3.6529  -15.4955 N   0  0  0  0  0  0  0  0  0  0  0  0
    8.3767    3.8196  -13.9866 C   0  0  0  0  0  0  0  0  0  0  0  0
    9.0572    4.8848  -13.3964 C   0  0  0  0  0  0  0  0  0  0  0  0
    8.5134    5.4879  -12.2904 C   0  0  0  0  0  0  0  0  0  0  0  0
    7.3253    5.0329  -11.7971 C   0  0  0  0  0  0  0  0  0  0  0  0
    6.6352    3.9547  -12.3936 C   0  0  0  0  0  0  0  0  0  0  0  0
    5.4825    3.5659  -11.8581 F   0  0  0  0  0  0  0  0  0  0  0  0
    7.1709    3.3492  -13.4952 C   0  0  0  0  0  0  0  0  0  0  0  0
    6.4762    2.2286  -14.1340 C   0  0  0  0  0  0  0  0  0  0  0  0
    5.2719    1.7471  -13.6506 C   0  0  0  0  0  0  0  0  0  0  0  0
    4.6885    0.7161  -14.2796 N   0  0  0  0  0  0  0  0  0  0  0  0
    5.2192    0.1255  -15.3613 C   0  0  0  0  0  0  0  0  0  0  0  0
    4.6126   -0.9346  -16.0014 C   0  0  0  0  0  0  0  0  0  0  0  0
    5.1545   -1.5450  -17.1128 C   0  0  0  0  0  0  0  0  0  0  0  0
    6.3540   -1.0402  -17.5670 C   0  0  0  0  0  0  0  0  0  0  0  0
    7.0051    0.0147  -16.9696 C   0  0  0  0  0  0  0  0  0  0  0  0
    6.4157    0.5957  -15.8504 C   0  0  0  0  0  0  0  0  0  0  0  0
    7.0671    1.6607  -15.2415 C   0  0  0  0  0  0  0  0  0  0  0  0
    8.3237    2.1081  -15.8104 C   0  0  0  0  0  0  0  0  0  0  0  0
    9.2196    6.5837  -11.6892 N   0  0  0  0  0  0  0  0  0  0  0  0
    9.5286    6.6011  -10.4502 C   0  0  0  0  0  0  0  0  0  0  0  0
    9.2012    5.5844   -9.6547 N   0  0  0  0  0  0  0  0  0  0  0  0
    9.5197    5.5803   -8.3281 C   0  0  0  0  0  0  0  0  0  0  0  0
   10.1971    6.6754   -7.8403 C   0  0  0  0  0  0  0  0  0  0  0  0
   10.5782    6.7943   -6.5146 C   0  0  0  0  0  0  0  0  0  0  0  0
   11.2601    7.9048   -6.0413 C   0  0  0  0  0  0  0  0  0  0  0  0
   11.5890    8.9459   -6.8817 C   0  0  0  0  0  0  0  0  0  0  0  0
   11.2136    8.8432   -8.2183 C   0  0  0  0  0  0  0  0  0  0  0  0
   10.5395    7.7371   -8.6693 C   0  0  0  0  0  0  0  0  0  0  0  0
   10.1895    7.6646   -9.9644 N   0  0  0  0  0  0  0  0  0  0  0  0
   10.4503    8.4651  -10.5779 H   0  0  0  0  0  0  0  0  0  0  0  0
   11.6511    8.0102   -4.6434 C   0  0  0  0  0  0  0  0  0  0  0  0
   11.6500    6.8601   -3.8845 C   0  0  0  0  0  0  0  0  0  0  0  0
   12.0092    6.8665   -2.5377 C   0  0  0  0  0  0  0  0  0  0  0  0
   12.3677    8.0852   -1.9982 C   0  0  0  0  0  0  0  0  0  0  0  0
   12.3714    9.2499   -2.7570 C   0  0  0  0  0  0  0  0  0  0  0  0
   12.0130    9.2120   -4.0799 C   0  0  0  0  0  0  0  0  0  0  0  0
  1  2  1  0
  2  3  1  0
  3  4  2  0
  4  5  1  0
  5  6  1  0
  6  7  2  0
  6  8  1  0
  5  9  1  0
  9 10  2  0
 10 11  1  0
 11 27  1  0
 27 28  2  0
 28 29  1  0
 29 30  2  0
 30 31  1  0
 31 32  2  0
 32 33  1  0
 33 39  1  0
 39 40  2  0
 40 41  1  0
 41 42  2  0
 42 43  1  0
 43 44  2  0
 33 34  2  0
 34 35  1  0
 35 36  2  0
 36 37  1  0
 37 38  1  0
 11 12  2  0
 12 13  1  0
 13 14  1  0
 13 15  2  0
 15 16  1  0
 16 17  2  0
 17 18  1  0
 18 19  2  0
 19 20  1  0
 20 21  2  0
 21 22  1  0
 22 23  2  0
 23 24  1  0
 24 25  2  0
 25 26  1  0
  8  3  1  0
 15  9  1  0
 25 16  1  0
  5 26  1  6
 37 28  1  0
 24 19  1  0
 36 31  1  0
 44 39  1  0
M  CHG  1   8  -1
M  END
>  <minimizedAffinity>  (353) 
-17.14267

$$$$
Mol: 137_2 - SminaDock
     RDKit          3D

 38 44  0  0  0  0  0  0  0  0999 V2000
    8.6992    5.6564  -12.5936 C   0  0  0  0  0  0  0  0  0  0  0  0
    9.2594    4.8821  -13.5822 C   0  0  0  0  0  0  0  0  0  0  0  0
    8.6114    3.7839  -14.0967 C   0  0  0  0  0  0  0  0  0  0  0  0
    7.3681    3.4439  -13.6146 C   0  0  0  0  0  0  0  0  0  0  0  0
    6.8013    4.2132  -12.6307 C   0  0  0  0  0  0  0  0  0  0  0  0
    7.4660    5.3438  -12.0972 C   0  0  0  0  0  0  0  0  0  0  0  0
    5.4448    3.9682  -12.1372 C   0  0  0  0  0  0  0  0  0  0  0  0
    4.9460    2.5976  -12.3010 C   0  0  0  0  0  0  0  0  0  0  0  0
    5.4741    1.8861  -13.4777 C   0  0  0  0  0  0  0  0  0  0  0  0
    6.6700    2.2328  -14.0609 C   0  0  0  0  0  0  0  0  0  0  0  0
    7.1552    1.5030  -15.0896 C   0  0  0  0  0  0  0  0  0  0  0  0
    6.4780    0.4016  -15.5874 C   0  0  0  0  0  0  0  0  0  0  0  0
    6.9481   -0.3322  -16.6094 N   0  0  0  0  0  0  0  0  0  0  0  0
    6.2255   -1.4020  -17.0455 C   0  0  0  0  0  0  0  0  0  0  0  0
    6.6956   -2.0663  -18.0042 O   0  0  0  0  0  0  0  0  0  0  0  0
    5.0632   -1.7403  -16.4845 N   0  0  0  0  0  0  0  0  0  0  0  0
    4.5218   -2.5549  -16.8233 H   0  0  0  0  0  0  0  0  0  0  0  0
    4.6032   -1.0186  -15.4808 N   0  0  0  0  0  0  0  0  0  0  0  0
    5.2885    0.0625  -15.0066 C   0  0  0  0  0  0  0  0  0  0  0  0
    4.7638    0.7730  -13.9638 C   0  0  0  0  0  0  0  0  0  0  0  0
   11.2589    7.9048   -6.1887 C   0  0  0  0  0  0  0  0  0  0  0  0
   11.5994    8.9858   -7.0067 C   0  0  0  0  0  0  0  0  0  0  0  0
   11.2742    8.9463   -8.3449 C   0  0  0  0  0  0  0  0  0  0  0  0
   10.6217    7.8826   -8.9281 C   0  0  0  0  0  0  0  0  0  0  0  0
   10.3024    7.8329  -10.2205 N   0  0  0  0  0  0  0  0  0  0  0  0
    9.6566    6.7808  -10.8015 C   0  0  0  0  0  0  0  0  0  0  0  0
    9.3811    6.8035  -12.0570 N   0  0  0  0  0  0  0  0  0  0  0  0
    9.3315    5.7429  -10.0079 N   0  0  0  0  0  0  0  0  0  0  0  0
    8.8291    4.9118  -10.4329 H   0  0  0  0  0  0  0  0  0  0  0  0
    9.6301    5.7417   -8.6976 C   0  0  0  0  0  0  0  0  0  0  0  0
   10.2846    6.8107   -8.1150 C   0  0  0  0  0  0  0  0  0  0  0  0
   10.6078    6.8422   -6.7686 C   0  0  0  0  0  0  0  0  0  0  0  0
   12.2938    8.0563   -2.0403 C   0  0  0  0  0  0  0  0  0  0  0  0
   11.9503    6.8741   -2.6599 C   0  0  0  0  0  0  0  0  0  0  0  0
   11.6212    6.8342   -3.9844 C   0  0  0  0  0  0  0  0  0  0  0  0
   11.6130    7.9665   -4.7748 C   0  0  0  0  0  0  0  0  0  0  0  0
   11.9572    9.1613   -4.1603 C   0  0  0  0  0  0  0  0  0  0  0  0
   12.2896    9.1928   -2.8169 C   0  0  0  0  0  0  0  0  0  0  0  0
 33 34  2  0
 34 35  1  0
 35 36  2  0
 36 21  1  0
 21 22  1  0
 22 23  2  0
 23 24  1  0
 24 25  2  0
 25 26  1  0
 26 27  2  0
 27  1  1  0
  1  2  2  0
  2  3  1  0
  3  4  2  0
  4  5  1  0
  5  6  2  0
  5  7  1  0
  7  8  1  0
  8  9  1  0
  9 10  1  0
 10 11  2  0
 11 12  1  0
 12 13  2  0
 13 14  1  0
 14 15  2  0
 14 16  1  0
 16 17  1  0
 16 18  1  0
 18 19  2  0
 19 20  1  0
 26 28  1  0
 28 29  1  0
 28 30  1  0
 30 31  2  0
 31 32  1  0
 36 37  1  0
 37 38  2  0
 38 33  1  0
 32 21  2  0
 31 24  1  0
  6  1  1  0
 20  9  2  0
 10  4  1  0
 19 12  1  0
M  END
>  <minimizedAffinity>  (354) 
-17.06086

$$$$
Mol: 164_23 - SminaDock
     RDKit          3D

 42 48  0  0  0  0  0  0  0  0999 V2000
    6.5509   -1.0177  -17.8783 H   0  0  0  0  0  0  0  0  0  0  0  0
    6.6757   -1.2677  -16.9009 O   0  0  0  0  0  0  0  0  0  0  0  0
    5.9125   -0.6565  -15.9147 C   0  0  0  0  0  0  0  0  0  0  0  0
    4.6984   -1.1096  -15.4886 C   0  0  0  0  0  0  0  0  0  0  0  0
    3.9689   -0.4791  -14.5090 C   0  0  0  0  0  0  0  0  0  0  0  0
    2.6988   -0.9875  -14.0909 N   0  0  0  0  0  0  0  0  0  0  0  0
    1.9737   -0.3656  -13.6823 H   0  0  0  0  0  0  0  0  0  0  0  0
    2.4549   -2.0001  -14.1809 H   0  0  0  0  0  0  0  0  0  0  0  0
    4.4983    0.6270  -13.9666 N   0  0  0  0  0  0  0  0  0  0  0  0
    5.6949    1.1497  -14.3255 C   0  0  0  0  0  0  0  0  0  0  0  0
    6.1728    2.2971  -13.7161 C   0  0  0  0  0  0  0  0  0  0  0  0
    7.3967    2.8286  -14.0855 C   0  0  0  0  0  0  0  0  0  0  0  0
    8.1138    2.1705  -15.0793 C   0  0  0  0  0  0  0  0  0  0  0  0
    7.6258    1.0074  -15.6946 C   0  0  0  0  0  0  0  0  0  0  0  0
    6.4123    0.5115  -15.3034 C   0  0  0  0  0  0  0  0  0  0  0  0
    9.4162    2.6940  -15.5078 C   0  0  0  0  0  0  0  0  0  0  0  0
    9.8165    3.8691  -14.8193 N   0  0  0  0  0  0  0  0  0  0  0  0
   11.1215    4.4558  -15.1887 C   0  0  0  0  0  0  0  0  0  0  0  0
    9.1060    4.5430  -13.8176 C   0  0  0  0  0  0  0  0  0  0  0  0
    9.6333    5.6883  -13.2399 C   0  0  0  0  0  0  0  0  0  0  0  0
    8.9040    6.3226  -12.2580 C   0  0  0  0  0  0  0  0  0  0  0  0
    7.6832    5.8099  -11.8779 C   0  0  0  0  0  0  0  0  0  0  0  0
    7.1526    4.6513  -12.4638 C   0  0  0  0  0  0  0  0  0  0  0  0
    7.8764    4.0315  -13.4306 C   0  0  0  0  0  0  0  0  0  0  0  0
    9.4187    7.5071  -11.6408 N   0  0  0  0  0  0  0  0  0  0  0  0
    9.7639    7.4312  -10.4034 C   0  0  0  0  0  0  0  0  0  0  0  0
   10.2604    8.5101   -9.7475 N   0  0  0  0  0  0  0  0  0  0  0  0
   10.6220    8.4212   -8.4412 C   0  0  0  0  0  0  0  0  0  0  0  0
   11.1308    9.5307   -7.7719 C   0  0  0  0  0  0  0  0  0  0  0  0
   11.4994    9.4462   -6.4456 C   0  0  0  0  0  0  0  0  0  0  0  0
   11.3768    8.2708   -5.7459 C   0  0  0  0  0  0  0  0  0  0  0  0
   10.8726    7.1832   -6.4203 C   0  0  0  0  0  0  0  0  0  0  0  0
   10.4989    7.2440   -7.7416 C   0  0  0  0  0  0  0  0  0  0  0  0
    9.9923    6.1535   -8.4207 C   0  0  0  0  0  0  0  0  0  0  0  0
    9.6522    6.2923   -9.7018 N   0  0  0  0  0  0  0  0  0  0  0  0
    9.2664    5.4412  -10.1996 H   0  0  0  0  0  0  0  0  0  0  0  0
   11.7563    8.1421   -4.3399 C   0  0  0  0  0  0  0  0  0  0  0  0
   11.7633    6.9011   -3.7497 C   0  0  0  0  0  0  0  0  0  0  0  0
   12.1132    6.7148   -2.4245 C   0  0  0  0  0  0  0  0  0  0  0  0
   12.4670    7.8128   -1.6699 C   0  0  0  0  0  0  0  0  0  0  0  0
   12.4654    9.0656   -2.2468 C   0  0  0  0  0  0  0  0  0  0  0  0
   12.1109    9.2348   -3.5809 C   0  0  0  0  0  0  0  0  0  0  0  0
  1  2  1  0
  2  3  1  0
  3  4  2  0
  4  5  1  0
  5  6  1  0
  6  7  1  0
  6  8  1  0
  5  9  2  0
  9 10  1  0
 10 11  2  0
 11 12  1  0
 12 13  2  0
 13 14  1  0
 14 15  2  0
 13 16  1  0
 16 17  1  0
 17 18  1  0
 17 19  1  0
 19 20  2  0
 20 21  1  0
 21 25  1  0
 25 26  2  0
 26 27  1  0
 27 28  2  0
 28 29  1  0
 29 30  2  0
 30 31  1  0
 31 37  1  0
 37 38  2  0
 38 39  1  0
 39 40  2  0
 40 41  1  0
 41 42  2  0
 31 32  2  0
 32 33  1  0
 33 34  2  0
 34 35  1  0
 35 36  1  0
 21 22  2  0
 22 23  1  0
 23 24  2  0
 15  3  1  0
 24 19  1  0
 15 10  1  0
 35 26  1  0
 24 12  1  0
 33 28  1  0
 42 37  1  0
M  END
>  <minimizedAffinity>  (355) 
-17.07522

$$$$
Mol: 153_13 - SminaDock
     RDKit          3D

 40 46  0  0  0  0  0  0  0  0999 V2000
    8.9530    6.3258  -12.2343 C   0  0  0  0  0  0  0  0  0  0  0  0
    9.6990    5.6250  -13.1544 C   0  0  0  0  0  0  0  0  0  0  0  0
    9.1828    4.4927  -13.7673 C   0  0  0  0  0  0  0  0  0  0  0  0
    7.9143    4.0961  -13.4299 C   0  0  0  0  0  0  0  0  0  0  0  0
    7.1563    4.7931  -12.5086 C   0  0  0  0  0  0  0  0  0  0  0  0
    7.6779    5.9282  -11.8952 C   0  0  0  0  0  0  0  0  0  0  0  0
    5.8346    4.3679  -12.2270 N   0  0  0  0  0  0  0  0  0  0  0  0
    5.1981    5.0728  -11.7006 H   0  0  0  0  0  0  0  0  0  0  0  0
    5.3467    3.0925  -12.6052 C   0  0  0  0  0  0  0  0  0  0  0  0
    6.1063    2.4314  -13.6578 C   0  0  0  0  0  0  0  0  0  0  0  0
    7.3528    2.8626  -14.0287 C   0  0  0  0  0  0  0  0  0  0  0  0
    8.0768    2.1875  -14.9970 C   0  0  0  0  0  0  0  0  0  0  0  0
    7.5068    1.0611  -15.5858 C   0  0  0  0  0  0  0  0  0  0  0  0
    6.2562    0.6109  -15.2307 C   0  0  0  0  0  0  0  0  0  0  0  0
    5.5416    1.2751  -14.2757 C   0  0  0  0  0  0  0  0  0  0  0  0
    4.2003    0.8961  -13.8119 C   0  0  0  0  0  0  0  0  0  0  0  0
    3.7745   -0.4385  -14.3734 C   0  0  0  0  0  0  0  0  0  0  0  0
    4.1558   -0.3896  -15.8603 C   0  0  2  0  0  0  0  0  0  0  0  0
    3.4479   -1.3821  -16.6146 N   0  0  0  0  0  0  0  0  0  0  0  0
    2.8133   -0.8827  -17.3069 H   0  0  0  0  0  0  0  0  0  0  0  0
    2.8204   -1.9053  -15.9500 H   0  0  0  0  0  0  0  0  0  0  0  0
    5.6543   -0.6070  -15.8754 C   0  0  0  0  0  0  0  0  0  0  0  0
   11.4198    8.2388   -5.7313 C   0  0  0  0  0  0  0  0  0  0  0  0
   11.5964    9.3991   -6.4602 C   0  0  0  0  0  0  0  0  0  0  0  0
   11.2491    9.4756   -7.7794 C   0  0  0  0  0  0  0  0  0  0  0  0
   10.7063    8.3928   -8.4379 C   0  0  0  0  0  0  0  0  0  0  0  0
   10.3589    8.4394   -9.7226 N   0  0  0  0  0  0  0  0  0  0  0  0
    9.8313    7.3911  -10.3674 C   0  0  0  0  0  0  0  0  0  0  0  0
    9.5060    7.4796  -11.6228 N   0  0  0  0  0  0  0  0  0  0  0  0
    9.6561    6.2609   -9.6684 N   0  0  0  0  0  0  0  0  0  0  0  0
    9.2369    5.4410  -10.1954 H   0  0  0  0  0  0  0  0  0  0  0  0
    9.9814    6.1407   -8.3764 C   0  0  0  0  0  0  0  0  0  0  0  0
   10.5168    7.2065   -7.7247 C   0  0  0  0  0  0  0  0  0  0  0  0
   10.8786    7.1563   -6.3843 C   0  0  0  0  0  0  0  0  0  0  0  0
   12.4553    7.8613   -1.6378 C   0  0  0  0  0  0  0  0  0  0  0  0
   12.4596    9.0833   -2.2498 C   0  0  0  0  0  0  0  0  0  0  0  0
   12.1248    9.2131   -3.5767 C   0  0  0  0  0  0  0  0  0  0  0  0
   11.7763    8.1171   -4.3263 C   0  0  0  0  0  0  0  0  0  0  0  0
   11.7763    6.8884   -3.6947 C   0  0  0  0  0  0  0  0  0  0  0  0
   12.1096    6.7547   -2.3707 C   0  0  0  0  0  0  0  0  0  0  0  0
 35 36  2  0
 36 37  1  0
 37 38  2  0
 38 23  1  0
 23 24  1  0
 24 25  2  0
 25 26  1  0
 26 27  2  0
 27 28  1  0
 28 29  2  0
 29  1  1  0
  1  2  2  0
  2  3  1  0
  3  4  2  0
  4  5  1  0
  5  6  2  0
  5  7  1  0
  7  8  1  0
  7  9  1  0
  9 10  1  0
 10 11  2  0
 11 12  1  0
 12 13  2  0
 13 14  1  0
 14 15  2  0
 15 16  1  0
 16 17  1  0
 17 18  1  0
 18 19  1  6
 19 20  1  0
 19 21  1  0
 18 22  1  0
 28 30  1  0
 30 31  1  0
 30 32  1  0
 32 33  2  0
 33 34  1  0
 38 39  1  0
 39 40  2  0
 40 35  1  0
 34 23  2  0
 33 26  1  0
  6  1  1  0
 15 10  1  0
 11  4  1  0
 22 14  1  0
M  END
>  <minimizedAffinity>  (356) 
-17.12922

$$$$
Mol: 167_3 - SminaDock
     RDKit          3D

 42 48  0  0  0  0  0  0  0  0999 V2000
    3.7390   -2.7817  -18.7187 H   0  0  0  0  0  0  0  0  0  0  0  0
    3.6251   -1.9994  -18.0837 O   0  0  0  0  0  0  0  0  0  0  0  0
    4.7767   -1.3958  -17.6096 C   0  0  0  0  0  0  0  0  0  0  0  0
    5.8569   -1.4370  -18.3265 N   0  0  0  0  0  0  0  0  0  0  0  0
    5.6349   -2.1602  -19.5782 C   0  0  0  0  0  0  0  0  0  0  0  0
    7.1875   -0.9427  -18.1603 C   0  0  0  0  0  0  0  0  0  0  0  0
    7.3342    0.3095  -17.4315 C   0  0  0  0  0  0  0  0  0  0  0  0
    8.1845    1.1161  -17.8752 O   0  0  0  0  0  0  0  0  0  0  0  0
    6.6339    0.7803  -16.2443 C   0  0  0  0  0  0  0  0  0  0  0  0
    7.2863    1.8084  -15.5894 C   0  0  0  0  0  0  0  0  0  0  0  0
    6.7423    2.3559  -14.4486 C   0  0  0  0  0  0  0  0  0  0  0  0
    5.5497    1.9065  -13.9299 C   0  0  0  0  0  0  0  0  0  0  0  0
    4.8961    0.8655  -14.5987 C   0  0  0  0  0  0  0  0  0  0  0  0
    5.4389    0.3217  -15.7335 C   0  0  0  0  0  0  0  0  0  0  0  0
    4.6128   -0.7613  -16.3002 C   0  0  0  0  0  0  0  0  0  0  0  0
    3.6871   -1.1464  -15.5482 O   0  0  0  0  0  0  0  0  0  0  0  0
    4.9085    2.4553  -12.7317 C   0  0  0  0  0  0  0  0  0  0  0  0
    5.6513    3.4678  -12.0013 C   0  0  0  0  0  0  0  0  0  0  0  0
    6.8880    3.9492  -12.6008 C   0  0  0  0  0  0  0  0  0  0  0  0
    7.5744    5.0085  -11.9490 C   0  0  0  0  0  0  0  0  0  0  0  0
    8.7433    5.4691  -12.4744 C   0  0  0  0  0  0  0  0  0  0  0  0
    9.2870    4.9280  -13.6381 C   0  0  0  0  0  0  0  0  0  0  0  0
    8.6225    3.9019  -14.2706 C   0  0  0  0  0  0  0  0  0  0  0  0
    7.4424    3.4403  -13.7368 C   0  0  0  0  0  0  0  0  0  0  0  0
    9.4282    6.5141  -11.8398 N   0  0  0  0  0  0  0  0  0  0  0  0
    9.7083    6.5609  -10.5737 C   0  0  0  0  0  0  0  0  0  0  0  0
   10.3731    7.6205  -10.0762 N   0  0  0  0  0  0  0  0  0  0  0  0
   10.6961    7.7340   -8.7732 C   0  0  0  0  0  0  0  0  0  0  0  0
   11.3773    8.8233   -8.2706 C   0  0  0  0  0  0  0  0  0  0  0  0
   11.7066    8.9371   -6.9352 C   0  0  0  0  0  0  0  0  0  0  0  0
   11.3595    7.9471   -6.0392 C   0  0  0  0  0  0  0  0  0  0  0  0
   10.6772    6.8560   -6.5422 C   0  0  0  0  0  0  0  0  0  0  0  0
   10.3474    6.7422   -7.8794 C   0  0  0  0  0  0  0  0  0  0  0  0
    9.6659    5.6541   -8.3847 C   0  0  0  0  0  0  0  0  0  0  0  0
    9.3658    5.5905   -9.7073 N   0  0  0  0  0  0  0  0  0  0  0  0
    8.8509    4.7580  -10.0634 H   0  0  0  0  0  0  0  0  0  0  0  0
   11.7097    8.0697   -4.6200 C   0  0  0  0  0  0  0  0  0  0  0  0
   11.7450    6.9136   -3.8692 C   0  0  0  0  0  0  0  0  0  0  0  0
   12.0641    6.9352   -2.5309 C   0  0  0  0  0  0  0  0  0  0  0  0
   12.3538    8.1397   -1.9327 C   0  0  0  0  0  0  0  0  0  0  0  0
   12.3183    9.3016   -2.6869 C   0  0  0  0  0  0  0  0  0  0  0  0
   11.9996    9.2718   -4.0195 C   0  0  0  0  0  0  0  0  0  0  0  0
  1  2  1  0
  2  3  1  0
  3  4  2  0
  4  5  1  0
  4  6  1  0
  6  7  1  0
  7  8  2  0
  7  9  1  0
  9 10  2  0
 10 11  1  0
 11 12  2  0
 12 13  1  0
 13 14  2  0
 14 15  1  0
 15 16  2  0
 12 17  1  0
 17 18  1  0
 18 19  1  0
 19 20  2  0
 20 21  1  0
 21 25  1  0
 25 26  2  0
 26 27  1  0
 27 28  2  0
 28 29  1  0
 29 30  2  0
 30 31  1  0
 31 37  1  0
 37 38  2  0
 38 39  1  0
 39 40  2  0
 40 41  1  0
 41 42  2  0
 31 32  2  0
 32 33  1  0
 33 34  2  0
 34 35  1  0
 35 36  1  0
 21 22  2  0
 22 23  1  0
 23 24  2  0
 15  3  1  0
 24 19  1  0
 14  9  1  0
 35 26  1  0
 24 11  1  0
 33 28  1  0
 42 37  1  0
M  CHG  1   4   1
M  END
>  <minimizedAffinity>  (357) 
-17.12512

$$$$
Mol: 152_51 - SminaDock
     RDKit          3D

 38 44  0  0  0  0  0  0  0  0999 V2000
    8.8708   -0.6154  -16.3320 H   0  0  0  0  0  0  0  0  0  0  0  0
    7.9666   -0.1985  -16.5172 O   0  0  0  0  0  0  0  0  0  0  0  0
    7.2469    0.5368  -15.6007 C   0  0  0  0  0  0  0  0  0  0  0  0
    7.7649    1.6276  -15.0203 N   0  0  0  0  0  0  0  0  0  0  0  0
    7.0425    2.3542  -14.1091 C   0  0  0  0  0  0  0  0  0  0  0  0
    5.7695    1.9243  -13.8128 C   0  0  0  0  0  0  0  0  0  0  0  0
    5.2084    0.7972  -14.3996 C   0  0  0  0  0  0  0  0  0  0  0  0
    5.9622    0.0969  -15.3061 C   0  0  0  0  0  0  0  0  0  0  0  0
    5.3628   -1.1073  -15.9328 C   0  0  0  0  0  0  0  0  0  0  0  0
    4.5588   -1.7160  -14.9623 O   0  0  0  0  0  0  0  0  0  0  0  0
    3.4605   -0.9404  -14.6343 C   0  0  0  0  0  0  0  0  0  0  0  0
    3.8165    0.3819  -14.0334 C   0  0  0  0  0  0  0  0  0  0  0  0
    4.9450    2.6554  -12.8504 C   0  0  0  0  0  0  0  0  0  0  0  0
    5.5119    3.8503  -12.2048 C   0  0  0  0  0  0  0  0  0  0  0  0
    6.8765    4.2280  -12.5893 C   0  0  0  0  0  0  0  0  0  0  0  0
    7.4246    5.3591  -11.9922 C   0  0  0  0  0  0  0  0  0  0  0  0
    8.6895    5.8003  -12.2774 C   0  0  0  0  0  0  0  0  0  0  0  0
    9.4549    5.0923  -13.1976 C   0  0  0  0  0  0  0  0  0  0  0  0
    8.9015    3.9605  -13.7925 C   0  0  0  0  0  0  0  0  0  0  0  0
    7.6344    3.5339  -13.4951 C   0  0  0  0  0  0  0  0  0  0  0  0
    9.2409    6.9507  -11.6665 N   0  0  0  0  0  0  0  0  0  0  0  0
    9.5929    6.9076  -10.4149 C   0  0  0  0  0  0  0  0  0  0  0  0
    9.4439    5.7654   -9.6581 C   0  0  0  0  0  0  0  0  0  0  0  0
    9.8406    5.7820   -8.3209 C   0  0  0  0  0  0  0  0  0  0  0  0
   10.3774    6.9242   -7.7522 C   0  0  0  0  0  0  0  0  0  0  0  0
   10.7774    6.9602   -6.4253 C   0  0  0  0  0  0  0  0  0  0  0  0
   11.3133    8.0932   -5.8495 C   0  0  0  0  0  0  0  0  0  0  0  0
   11.4365    9.2032   -6.6588 C   0  0  0  0  0  0  0  0  0  0  0  0
   11.0456    9.1958   -7.9861 C   0  0  0  0  0  0  0  0  0  0  0  0
   10.5074    8.0396   -8.5438 C   0  0  0  0  0  0  0  0  0  0  0  0
   10.1211    8.0089   -9.8301 N   0  0  0  0  0  0  0  0  0  0  0  0
   10.2291    8.8805  -10.4267 H   0  0  0  0  0  0  0  0  0  0  0  0
   11.7222    8.0898   -4.4499 C   0  0  0  0  0  0  0  0  0  0  0  0
   11.7790    6.9124   -3.7057 C   0  0  0  0  0  0  0  0  0  0  0  0
   12.1579    6.8773   -2.3934 C   0  0  0  0  0  0  0  0  0  0  0  0
   12.5065    8.0662   -1.7562 C   0  0  0  0  0  0  0  0  0  0  0  0
   12.4569    9.2429   -2.4758 C   0  0  0  0  0  0  0  0  0  0  0  0
   12.0669    9.2505   -3.8131 C   0  0  0  0  0  0  0  0  0  0  0  0
  1  2  1  0
  2  3  1  0
  3  4  2  0
  4  5  1  0
  5  6  2  0
  6  7  1  0
  7  8  2  0
  8  9  1  0
  9 10  1  0
 10 11  1  0
 11 12  1  0
  6 13  1  0
 13 14  1  0
 14 15  1  0
 15 16  2  0
 16 17  1  0
 17 21  1  0
 21 22  2  0
 22 23  1  0
 23 24  2  0
 24 25  1  0
 25 26  2  0
 26 27  1  0
 27 33  1  0
 33 34  2  0
 34 35  1  0
 35 36  2  0
 36 37  1  0
 37 38  2  0
 27 28  2  0
 28 29  1  0
 29 30  2  0
 30 31  1  0
 31 32  1  0
 17 18  2  0
 18 19  1  0
 19 20  2  0
  8  3  1  0
 20 15  1  0
 20  5  1  0
 12  7  1  0
 31 22  1  0
 30 25  1  0
 38 33  1  0
M  END
>  <minimizedAffinity>  (358) 
-17.14037

$$$$
Mol: 152_19 - SminaDock
     RDKit          3D

 40 46  0  0  0  0  0  0  0  0999 V2000
    8.5355   -1.0309  -19.1577 H   0  0  0  0  0  0  0  0  0  0  0  0
    7.9298   -1.5952  -18.5572 O   0  0  0  0  0  0  0  0  0  0  0  0
    7.2743   -0.9608  -17.4821 C   0  0  0  0  0  0  0  0  0  0  0  0
    7.8011    0.0978  -16.9241 N   0  0  0  0  0  0  0  0  0  0  0  0
    9.0241    0.5346  -17.4605 C   0  0  0  0  0  0  0  0  0  0  0  0
    7.0743    0.6728  -15.8481 C   0  0  0  0  0  0  0  0  0  0  0  0
    7.6007    1.7904  -15.2401 C   0  0  0  0  0  0  0  0  0  0  0  0
    6.9566    2.4074  -14.1920 C   0  0  0  0  0  0  0  0  0  0  0  0
    5.7689    1.9250  -13.7180 C   0  0  0  0  0  0  0  0  0  0  0  0
    5.2150    0.7823  -14.3302 C   0  0  0  0  0  0  0  0  0  0  0  0
    5.8741    0.1796  -15.3788 C   0  0  0  0  0  0  0  0  0  0  0  0
    5.2799   -1.0124  -16.0028 C   0  0  0  0  0  0  0  0  0  0  0  0
    6.0589   -1.5298  -17.0707 N   0  0  0  0  0  0  0  0  0  0  0  0
    5.6631   -2.3942  -17.5556 H   0  0  0  0  0  0  0  0  0  0  0  0
    5.1065    2.5116  -12.5523 C   0  0  0  0  0  0  0  0  0  0  0  0
    5.4399    3.9114  -12.2578 C   0  0  0  0  0  0  0  0  0  0  0  0
    6.8014    4.2995  -12.6521 C   0  0  0  0  0  0  0  0  0  0  0  0
    7.3859    5.4292  -12.0653 C   0  0  0  0  0  0  0  0  0  0  0  0
    8.6151    5.8720  -12.4545 C   0  0  0  0  0  0  0  0  0  0  0  0
    9.2845    5.1889  -13.4422 C   0  0  0  0  0  0  0  0  0  0  0  0
    8.7484    4.0671  -14.0500 C   0  0  0  0  0  0  0  0  0  0  0  0
    7.5033    3.6445  -13.6321 C   0  0  0  0  0  0  0  0  0  0  0  0
    9.2485    7.0208  -11.8838 N   0  0  0  0  0  0  0  0  0  0  0  0
    9.5723    6.9691  -10.6197 C   0  0  0  0  0  0  0  0  0  0  0  0
    9.3272    5.8834   -9.8643 N   0  0  0  0  0  0  0  0  0  0  0  0
    9.6906    5.8895   -8.5506 C   0  0  0  0  0  0  0  0  0  0  0  0
   10.3048    6.9709   -7.9558 C   0  0  0  0  0  0  0  0  0  0  0  0
   10.6740    6.9799   -6.6255 C   0  0  0  0  0  0  0  0  0  0  0  0
   11.2892    8.0600   -6.0254 C   0  0  0  0  0  0  0  0  0  0  0  0
   11.5255    9.1621   -6.8381 C   0  0  0  0  0  0  0  0  0  0  0  0
   11.1593    9.1600   -8.1681 C   0  0  0  0  0  0  0  0  0  0  0  0
   10.5447    8.0717   -8.7529 C   0  0  0  0  0  0  0  0  0  0  0  0
   10.1767    8.0332  -10.0341 N   0  0  0  0  0  0  0  0  0  0  0  0
   10.3762    8.8963  -10.6185 H   0  0  0  0  0  0  0  0  0  0  0  0
   11.6744    8.0599   -4.6209 C   0  0  0  0  0  0  0  0  0  0  0  0
   11.6476    6.8643   -3.9362 C   0  0  0  0  0  0  0  0  0  0  0  0
   11.9932    6.7653   -2.6099 C   0  0  0  0  0  0  0  0  0  0  0  0
   12.3849    7.8796   -1.9093 C   0  0  0  0  0  0  0  0  0  0  0  0
   12.4204    9.0914   -2.5728 C   0  0  0  0  0  0  0  0  0  0  0  0
   12.0675    9.1809   -3.9198 C   0  0  0  0  0  0  0  0  0  0  0  0
  1  2  1  0
  2  3  1  0
  3  4  2  0
  4  5  1  0
  4  6  1  0
  6  7  2  0
  7  8  1  0
  8  9  2  0
  9 10  1  0
 10 11  2  0
 11 12  1  0
 12 13  1  0
 13 14  1  0
  9 15  1  0
 15 16  1  0
 16 17  1  0
 17 18  2  0
 18 19  1  0
 19 23  1  0
 23 24  2  0
 24 25  1  0
 25 26  2  0
 26 27  1  0
 27 28  2  0
 28 29  1  0
 29 35  1  0
 35 36  2  0
 36 37  1  0
 37 38  2  0
 38 39  1  0
 39 40  2  0
 29 30  2  0
 30 31  1  0
 31 32  2  0
 32 33  1  0
 33 34  1  0
 19 20  2  0
 20 21  1  0
 21 22  2  0
 13  3  1  0
 22 17  1  0
 11  6  1  0
 33 24  1  0
 22  8  1  0
 32 27  1  0
 40 35  1  0
M  CHG  1   4   1
M  END
>  <minimizedAffinity>  (359) 
-17.06297

$$$$
Mol: 158_1 - SminaDock
     RDKit          3D

 38 44  0  0  0  0  0  0  0  0999 V2000
    8.6979    5.7767  -12.3063 C   0  0  0  0  0  0  0  0  0  0  0  0
    7.4001    5.4484  -12.0321 C   0  0  0  0  0  0  0  0  0  0  0  0
    6.8416    4.2873  -12.5712 C   0  0  0  0  0  0  0  0  0  0  0  0
    7.5888    3.4630  -13.3818 C   0  0  0  0  0  0  0  0  0  0  0  0
    8.8916    3.7963  -13.6546 C   0  0  0  0  0  0  0  0  0  0  0  0
    9.4328    4.9563  -13.1099 C   0  0  0  0  0  0  0  0  0  0  0  0
    9.7306    2.9603  -14.5051 C   0  0  0  0  0  0  0  0  0  0  0  0
    9.1342    1.7386  -15.0774 C   0  0  0  0  0  0  0  0  0  0  0  0
    7.7352    1.4671  -14.7256 C   0  0  0  0  0  0  0  0  0  0  0  0
    6.9662    2.2621  -13.9241 C   0  0  0  0  0  0  0  0  0  0  0  0
    5.6621    1.8992  -13.6687 C   0  0  0  0  0  0  0  0  0  0  0  0
    5.1368    0.7481  -14.2143 C   0  0  0  0  0  0  0  0  0  0  0  0
    3.8308    0.4267  -13.9319 C   0  0  0  0  0  0  0  0  0  0  0  0
    3.2656   -0.7262  -14.4639 C   0  0  0  0  0  0  0  0  0  0  0  0
    4.0254   -1.4933  -15.2440 N   0  0  0  0  0  0  0  0  0  0  0  0
    3.5784   -2.3675  -15.6405 H   0  0  0  0  0  0  0  0  0  0  0  0
    5.3189   -1.2137  -15.5488 C   0  0  0  0  0  0  0  0  0  0  0  0
    5.9985   -1.9554  -16.2822 O   0  0  0  0  0  0  0  0  0  0  0  0
    5.8818   -0.0595  -15.0150 C   0  0  0  0  0  0  0  0  0  0  0  0
    7.1821    0.3091  -15.2651 C   0  0  0  0  0  0  0  0  0  0  0  0
   11.2611    7.9664   -5.9028 C   0  0  0  0  0  0  0  0  0  0  0  0
   11.4429    9.0866   -6.6860 C   0  0  0  0  0  0  0  0  0  0  0  0
   11.0773    9.0977   -8.0104 C   0  0  0  0  0  0  0  0  0  0  0  0
   10.5104    7.9885   -8.6223 C   0  0  0  0  0  0  0  0  0  0  0  0
   10.3290    6.8681   -7.8380 C   0  0  0  0  0  0  0  0  0  0  0  0
    9.7661    5.7704   -8.4524 C   0  0  0  0  0  0  0  0  0  0  0  0
    9.4212    5.8168   -9.7503 N   0  0  0  0  0  0  0  0  0  0  0  0
    9.6060    6.9194  -10.4996 C   0  0  0  0  0  0  0  0  0  0  0  0
    9.2628    6.9424  -11.7661 N   0  0  0  0  0  0  0  0  0  0  0  0
   10.1526    7.9944   -9.9147 N   0  0  0  0  0  0  0  0  0  0  0  0
   10.3073    8.8524  -10.4586 H   0  0  0  0  0  0  0  0  0  0  0  0
   10.6996    6.8681   -6.5096 C   0  0  0  0  0  0  0  0  0  0  0  0
   12.4448    8.0375   -1.7936 C   0  0  0  0  0  0  0  0  0  0  0  0
   12.1276    6.8595   -2.4220 C   0  0  0  0  0  0  0  0  0  0  0  0
   11.7531    6.8613   -3.7316 C   0  0  0  0  0  0  0  0  0  0  0  0
   11.6658    8.0035   -4.5026 C   0  0  0  0  0  0  0  0  0  0  0  0
   11.9914    9.1926   -3.8497 C   0  0  0  0  0  0  0  0  0  0  0  0
   12.3721    9.2050   -2.5242 C   0  0  0  0  0  0  0  0  0  0  0  0
 33 34  2  0
 34 35  1  0
 35 36  2  0
 36 21  1  0
 21 22  2  0
 22 23  1  0
 23 24  2  0
 24 25  1  0
 25 26  1  0
 26 27  2  0
 27 28  1  0
 28 29  2  0
 29  1  1  0
  1  2  2  0
  2  3  1  0
  3  4  2  0
  4  5  1  0
  5  6  2  0
  5  7  1  0
  7  8  1  0
  8  9  1  0
  9 10  2  0
 10 11  1  0
 11 12  2  0
 12 13  1  0
 13 14  2  0
 14 15  1  0
 15 16  1  0
 15 17  1  0
 17 18  2  0
 17 19  1  0
 19 20  2  0
 28 30  1  0
 30 31  1  0
 25 32  2  0
 36 37  1  0
 37 38  2  0
 38 33  1  0
 32 21  1  0
 30 24  1  0
  6  1  1  0
 20  9  1  0
 10  4  1  0
 19 12  1  0
M  END
>  <minimizedAffinity>  (360) 
-17.07518

$$$$
Mol: 157_42 - SminaDock
     RDKit          3D

 40 46  0  0  0  0  0  0  0  0999 V2000
    2.9697   -0.9408  -15.7757 H   0  0  0  0  0  0  0  0  0  0  0  0
    3.8640   -1.2644  -15.3854 O   0  0  0  0  0  0  0  0  0  0  0  0
    5.0944   -0.8895  -15.8667 C   0  0  0  0  0  0  0  0  0  0  0  0
    5.6968    0.1764  -15.3372 C   0  0  0  0  0  0  0  0  0  0  0  0
    5.0855    0.8766  -14.3293 C   0  0  0  0  0  0  0  0  0  0  0  0
    5.6754    1.9976  -13.7435 C   0  0  0  0  0  0  0  0  0  0  0  0
    6.9116    2.3998  -14.2049 C   0  0  0  0  0  0  0  0  0  0  0  0
    7.5297    1.7053  -15.2123 C   0  0  0  0  0  0  0  0  0  0  0  0
    6.9271    0.5963  -15.7792 C   0  0  0  0  0  0  0  0  0  0  0  0
    7.5066   -0.0690  -16.7359 N   0  0  0  0  0  0  0  0  0  0  0  0
    8.8059    0.4032  -17.1779 C   0  0  0  0  0  0  0  0  0  0  0  0
    6.9582   -1.1873  -17.3463 N   0  0  0  0  0  0  0  0  0  0  0  0
    7.4997   -1.6548  -18.1064 H   0  0  0  0  0  0  0  0  0  0  0  0
    5.7106   -1.6300  -16.9126 N   0  0  0  0  0  0  0  0  0  0  0  0
    7.5346    3.5742  -13.5947 C   0  0  0  0  0  0  0  0  0  0  0  0
    8.7633    4.0088  -14.0208 C   0  0  0  0  0  0  0  0  0  0  0  0
    9.2987    5.1043  -13.4195 N   0  0  0  0  0  0  0  0  0  0  0  0
    8.6765    5.7561  -12.4464 C   0  0  0  0  0  0  0  0  0  0  0  0
    7.4391    5.3248  -12.0119 C   0  0  0  0  0  0  0  0  0  0  0  0
    6.8413    4.2138  -12.5859 C   0  0  0  0  0  0  0  0  0  0  0  0
    5.5207    3.8315  -12.0554 C   0  0  0  0  0  0  0  0  0  0  0  0
    4.9025    2.6413  -12.6777 C   0  0  0  0  0  0  0  0  0  0  0  0
    9.2598    6.9006  -11.8334 N   0  0  0  0  0  0  0  0  0  0  0  0
    9.5923    6.8752  -10.5877 C   0  0  0  0  0  0  0  0  0  0  0  0
    9.4142    5.7875   -9.7991 N   0  0  0  0  0  0  0  0  0  0  0  0
    9.7693    5.7869   -8.5043 C   0  0  0  0  0  0  0  0  0  0  0  0
   10.3287    6.8892   -7.9231 C   0  0  0  0  0  0  0  0  0  0  0  0
   10.7081    6.9224   -6.5854 C   0  0  0  0  0  0  0  0  0  0  0  0
   11.2732    8.0383   -6.0020 C   0  0  0  0  0  0  0  0  0  0  0  0
   11.4524    9.1427   -6.8091 C   0  0  0  0  0  0  0  0  0  0  0  0
   11.0776    9.1181   -8.1412 C   0  0  0  0  0  0  0  0  0  0  0  0
   10.5142    8.0015   -8.7174 C   0  0  0  0  0  0  0  0  0  0  0  0
   10.1434    7.9609  -10.0148 N   0  0  0  0  0  0  0  0  0  0  0  0
   10.2911    8.8118  -10.6015 H   0  0  0  0  0  0  0  0  0  0  0  0
   11.6687    8.0653   -4.5983 C   0  0  0  0  0  0  0  0  0  0  0  0
   12.0277    9.2200   -3.9341 C   0  0  0  0  0  0  0  0  0  0  0  0
   12.4009    9.2017   -2.5877 C   0  0  0  0  0  0  0  0  0  0  0  0
   12.4173    8.0135   -1.8891 C   0  0  0  0  0  0  0  0  0  0  0  0
   12.0590    6.8529   -2.5477 C   0  0  0  0  0  0  0  0  0  0  0  0
   11.6922    6.8883   -3.8805 C   0  0  0  0  0  0  0  0  0  0  0  0
  1  2  1  0
  2  3  1  0
  3  4  2  0
  4  5  1  0
  5  6  2  0
  6  7  1  0
  7  8  2  0
  8  9  1  0
  9 10  2  0
 10 11  1  0
 10 12  1  0
 12 13  1  0
 12 14  1  0
  7 15  1  0
 15 16  2  0
 16 17  1  0
 17 18  2  0
 18 23  1  0
 23 24  2  0
 24 25  1  0
 25 26  2  0
 26 27  1  0
 27 28  2  0
 28 29  1  0
 29 35  1  0
 35 36  2  0
 36 37  1  0
 37 38  2  0
 38 39  1  0
 39 40  2  0
 29 30  2  0
 30 31  1  0
 31 32  2  0
 32 33  1  0
 33 34  1  0
 18 19  1  0
 19 20  2  0
 20 21  1  0
 21 22  1  0
 14  3  1  0
 20 15  1  0
  9  4  1  0
 33 24  1  0
 22  6  1  0
 32 27  1  0
 40 35  1  0
M  CHG  2  10   1  14  -1
M  END
>  <minimizedAffinity>  (361) 
-17.08578

$$$$
Mol: 89_54 - SminaDock
     RDKit          3D

 43 49  0  0  0  0  0  0  0  0999 V2000
   13.4001    1.3894  -19.2491 O   0  0  0  0  0  0  0  0  0  0  0  0
   12.3286    1.4062  -18.5970 C   0  0  0  0  0  0  0  0  0  0  0  0
   11.6196    2.6321  -18.3111 N   0  0  0  0  0  0  0  0  0  0  0  0
   10.4150    2.6245  -17.5744 C   0  0  0  0  0  0  0  0  0  0  0  0
    9.6207    3.5717  -17.6763 O   0  0  0  0  0  0  0  0  0  0  0  0
   10.1069    1.4880  -16.6856 C   0  0  1  0  0  0  0  0  0  0  0  0
   10.8914    1.7115  -15.4109 C   0  0  0  0  0  0  0  0  0  0  0  0
   10.6494    3.0161  -14.7915 C   0  0  0  0  0  0  0  0  0  0  0  0
   11.8606    3.6977  -14.8600 C   0  0  0  0  0  0  0  0  0  0  0  0
   12.0244    4.9774  -14.3697 C   0  0  0  0  0  0  0  0  0  0  0  0
   10.9746    5.6527  -13.7776 C   0  0  0  0  0  0  0  0  0  0  0  0
    9.7710    4.9838  -13.7060 C   0  0  0  0  0  0  0  0  0  0  0  0
    9.6000    3.6850  -14.2023 C   0  0  0  0  0  0  0  0  0  0  0  0
    8.1767    3.4163  -13.8996 C   0  0  0  0  0  0  0  0  0  0  0  0
    7.8666    1.9592  -13.9568 C   0  0  0  0  0  0  0  0  0  0  0  0
    7.7850    1.5802  -15.4068 C   0  0  0  0  0  0  0  0  0  0  0  0
    6.4159    1.3861  -15.6303 C   0  0  0  0  0  0  0  0  0  0  0  0
    5.9138    1.0241  -16.8596 C   0  0  0  0  0  0  0  0  0  0  0  0
    6.8047    0.8499  -17.8984 C   0  0  0  0  0  0  0  0  0  0  0  0
    8.1554    1.0356  -17.7003 C   0  0  0  0  0  0  0  0  0  0  0  0
    8.6390    1.3998  -16.4554 C   0  0  0  0  0  0  0  0  0  0  0  0
   10.5212    0.2232  -17.3522 C   0  0  0  0  0  0  0  0  0  0  0  0
    9.7987   -0.8279  -17.2540 O   0  0  0  0  0  0  0  0  0  0  0  0
   11.7303    0.2255  -18.0902 N   0  0  0  0  0  0  0  0  0  0  0  0
   11.1552    7.0303  -13.2519 C   0  0  0  0  0  0  0  0  0  0  0  0
   11.0028    7.1138  -11.7811 C   0  0  0  0  0  0  0  0  0  0  0  0
   12.0174    7.6825  -11.0400 C   0  0  0  0  0  0  0  0  0  0  0  0
   12.1458    7.8009   -9.6514 C   0  0  0  0  0  0  0  0  0  0  0  0
   11.2803    7.4049   -8.6509 C   0  0  0  0  0  0  0  0  0  0  0  0
   11.6814    7.7610   -7.3985 C   0  0  0  0  0  0  0  0  0  0  0  0
   10.9569    7.4609   -6.2502 C   0  0  0  0  0  0  0  0  0  0  0  0
    9.7798    6.7662   -6.4422 C   0  0  0  0  0  0  0  0  0  0  0  0
    9.3465    6.3913   -7.6964 C   0  0  0  0  0  0  0  0  0  0  0  0
   10.1007    6.7104   -8.8271 C   0  0  0  0  0  0  0  0  0  0  0  0
    9.5108    6.2550   -9.9866 C   0  0  0  0  0  0  0  0  0  0  0  0
    8.5774    5.4317   -9.8235 O   0  0  0  0  0  0  0  0  0  0  0  0
    9.8179    6.5912  -11.3078 C   0  0  0  0  0  0  0  0  0  0  0  0
   11.4239    7.8619   -4.9242 C   0  0  0  0  0  0  0  0  0  0  0  0
   11.6267    9.1712   -4.5641 C   0  0  0  0  0  0  0  0  0  0  0  0
   12.0691    9.4777   -3.2942 C   0  0  0  0  0  0  0  0  0  0  0  0
   12.3178    8.4888   -2.3595 C   0  0  0  0  0  0  0  0  0  0  0  0
   12.1177    7.1649   -2.7088 C   0  0  0  0  0  0  0  0  0  0  0  0
   11.6800    6.8942   -3.9714 C   0  0  0  0  0  0  0  0  0  0  0  0
  1  2  2  0
  2  3  1  0
  3  4  1  0
  4  5  2  0
  4  6  1  0
  6  7  1  1
  7  8  1  0
  8  9  2  0
  9 10  1  0
 10 11  2  0
 11 25  1  0
 25 26  1  0
 26 27  1  0
 27 28  2  0
 28 29  1  0
 29 30  2  0
 30 31  1  0
 31 38  1  0
 38 39  2  0
 39 40  1  0
 40 41  2  0
 41 42  1  0
 42 43  2  0
 31 32  2  0
 32 33  1  0
 33 34  2  0
 34 35  1  0
 35 36  2  0
 35 37  1  0
 11 12  1  0
 12 13  2  0
 13 14  1  0
 14 15  1  0
 15 16  1  0
 16 17  2  0
 17 18  1  0
 18 19  2  0
 19 20  1  0
 20 21  2  0
  6 22  1  0
 22 23  2  0
 22 24  1  0
 24  2  1  0
 21  6  1  0
 13  8  1  0
 21 16  1  0
 37 26  2  0
 34 29  1  0
 43 38  1  0
M  CHG  2   3  -1  24  -1
M  END
>  <minimizedAffinity>  (362) 
-17.05000

$$$$
Mol: 158_49 - SminaDock
     RDKit          3D

 41 47  0  0  0  0  0  0  0  0999 V2000
    2.3362   -1.0834  -14.2569 O   0  0  0  0  0  0  0  0  0  0  0  0
    3.6188   -0.6510  -14.5535 C   0  0  0  0  0  0  0  0  0  0  0  0
    4.3856   -1.3408  -15.3988 N   0  0  0  0  0  0  0  0  0  0  0  0
    5.6336   -1.0049  -15.7468 C   0  0  0  0  0  0  0  0  0  0  0  0
    6.3554   -1.6472  -16.5377 O   0  0  0  0  0  0  0  0  0  0  0  0
    6.1755    0.1505  -15.1865 C   0  0  0  0  0  0  0  0  0  0  0  0
    7.4567    0.5803  -15.4814 C   0  0  0  0  0  0  0  0  0  0  0  0
    8.1290   -0.1321  -16.2986 O   0  0  0  0  0  0  0  0  0  0  0  0
    7.9314    1.6714  -14.9323 O   0  0  0  0  0  0  0  0  0  0  0  0
    7.1741    2.3685  -14.0857 C   0  0  0  0  0  0  0  0  0  0  0  0
    5.9007    2.0109  -13.7444 C   0  0  0  0  0  0  0  0  0  0  0  0
    5.3744    0.8425  -14.3237 C   0  0  0  0  0  0  0  0  0  0  0  0
    4.1219    0.4820  -13.9908 N   0  0  0  0  0  0  0  0  0  0  0  0
    5.0540    2.7668  -12.8353 C   0  0  0  0  0  0  0  0  0  0  0  0
    5.6640    3.9546  -12.2248 C   0  0  0  0  0  0  0  0  0  0  0  0
    7.0303    4.3197  -12.6326 C   0  0  0  0  0  0  0  0  0  0  0  0
    7.6585    5.4527  -12.1273 C   0  0  0  0  0  0  0  0  0  0  0  0
    8.9243    5.8378  -12.4507 C   0  0  0  0  0  0  0  0  0  0  0  0
    9.6523    5.0729  -13.3353 C   0  0  0  0  0  0  0  0  0  0  0  0
    9.0595    3.9407  -13.8572 C   0  0  0  0  0  0  0  0  0  0  0  0
    7.7725    3.5757  -13.5089 C   0  0  0  0  0  0  0  0  0  0  0  0
    1.6924   -1.1597  -15.0543 H   0  0  0  0  0  0  0  0  0  0  0  0
    3.5484    1.0469  -13.3230 H   0  0  0  0  0  0  0  0  0  0  0  0
    9.4952    7.0324  -11.8670 N   0  0  0  0  0  0  0  0  0  0  0  0
    9.6705    7.8805  -12.4051 H   0  0  0  0  0  0  0  0  0  0  0  0
    9.8235    7.0126  -10.4764 C   0  0  0  0  0  0  0  0  0  0  0  0
    9.5528    5.9518   -9.6963 N   0  0  0  0  0  0  0  0  0  0  0  0
    9.8572    5.9113   -8.3904 C   0  0  0  0  0  0  0  0  0  0  0  0
   10.4750    6.9807   -7.7779 C   0  0  0  0  0  0  0  0  0  0  0  0
   10.8094    6.9840   -6.4353 C   0  0  0  0  0  0  0  0  0  0  0  0
   11.4305    8.0653   -5.8437 C   0  0  0  0  0  0  0  0  0  0  0  0
   11.7158    9.1620   -6.6341 C   0  0  0  0  0  0  0  0  0  0  0  0
   11.3757    9.1498   -7.9806 C   0  0  0  0  0  0  0  0  0  0  0  0
   10.7552    8.0742   -8.5791 C   0  0  0  0  0  0  0  0  0  0  0  0
   10.4294    8.0663   -9.8848 N   0  0  0  0  0  0  0  0  0  0  0  0
   11.7728    8.0606   -4.4233 C   0  0  0  0  0  0  0  0  0  0  0  0
   11.7377    6.8964   -3.6860 C   0  0  0  0  0  0  0  0  0  0  0  0
   12.0703    6.8874   -2.3364 C   0  0  0  0  0  0  0  0  0  0  0  0
   12.4402    8.0572   -1.7268 C   0  0  0  0  0  0  0  0  0  0  0  0
   12.4761    9.2211   -2.4611 C   0  0  0  0  0  0  0  0  0  0  0  0
   12.1418    9.2111   -3.8016 C   0  0  0  0  0  0  0  0  0  0  0  0
  1  2  1  0
  2  3  2  0
  3  4  1  0
  4  5  2  0
  4  6  1  0
  6  7  1  0
  7  8  2  0
  7  9  1  0
  9 10  1  0
 10 11  2  0
 11 12  1  0
 12 13  1  0
 11 14  1  0
 14 15  1  0
 15 16  1  0
 16 17  2  0
 17 18  1  0
 18 24  1  0
 24 26  1  0
 26 27  2  0
 27 28  1  0
 28 29  2  0
 29 30  1  0
 30 31  2  0
 31 36  1  0
 36 37  2  0
 37 38  1  0
 38 39  2  0
 39 40  1  0
 40 41  2  0
 31 32  1  0
 32 33  2  0
 33 34  1  0
 34 35  2  0
 18 19  2  0
 19 20  1  0
 20 21  2  0
 13  2  1  0
 21 16  1  0
 12  6  2  0
 35 26  1  0
 21 10  1  0
 34 29  1  0
 41 36  1  0
  1 22  1  0
 13 23  1  0
 24 25  1  0
M  END
>  <minimizedAffinity>  (363) 
-17.05231

$$$$
Mol: 198_34 - SminaDock
     RDKit          3D

 42 49  0  0  0  0  0  0  0  0999 V2000
    9.0804    5.7834  -12.7494 C   0  0  0  0  0  0  0  0  0  0  0  0
    7.8623    6.0072  -12.1037 C   0  0  0  0  0  0  0  0  0  0  0  0
    6.8643    5.0781  -12.2847 C   0  0  0  0  0  0  0  0  0  0  0  0
    7.0422    3.9477  -13.0794 C   0  0  0  0  0  0  0  0  0  0  0  0
    8.2420    3.7533  -13.6985 C   0  0  0  0  0  0  0  0  0  0  0  0
    9.2923    4.6847  -13.5379 C   0  0  0  0  0  0  0  0  0  0  0  0
    8.5205    2.6034  -14.5455 C   0  0  2  0  0  0  0  0  0  0  0  0
    7.4025    1.6553  -14.6901 C   0  0  0  0  0  0  0  0  0  0  0  0
    7.3641    0.4914  -15.4177 N   0  0  0  0  0  0  0  0  0  0  0  0
    6.1881   -0.1081  -15.3161 C   0  0  0  0  0  0  0  0  0  0  0  0
    5.5866   -1.2474  -15.7957 C   0  0  0  0  0  0  0  0  0  0  0  0
    4.3016   -1.5730  -15.4742 N   0  0  0  0  0  0  0  0  0  0  0  0
    3.9040   -2.4537  -15.8725 H   0  0  0  0  0  0  0  0  0  0  0  0
    3.5327   -0.8117  -14.6716 C   0  0  0  0  0  0  0  0  0  0  0  0
    4.0890    0.3394  -14.1657 C   0  0  0  0  0  0  0  0  0  0  0  0
    5.3792    0.7355  -14.4443 C   0  0  0  0  0  0  0  0  0  0  0  0
    6.1763    1.8033  -14.0907 C   0  0  0  0  0  0  0  0  0  0  0  0
    5.9625    2.9757  -13.2545 C   0  0  0  0  0  0  0  0  0  0  0  0
    4.8526    3.1176  -12.7060 O   0  0  0  0  0  0  0  0  0  0  0  0
    9.7711    1.8680  -14.0940 C   0  0  0  0  0  0  0  0  0  0  0  0
   10.0527    0.6690  -14.9583 C   0  0  0  0  0  0  0  0  0  0  0  0
    9.8290    0.8872  -16.2925 O   0  0  0  0  0  0  0  0  0  0  0  0
    9.8327    2.2115  -16.6440 C   0  0  0  0  0  0  0  0  0  0  0  0
    8.8335    3.0816  -15.9720 C   0  0  0  0  0  0  0  0  0  0  0  0
   11.0103    7.4874   -6.4093 C   0  0  0  0  0  0  0  0  0  0  0  0
    9.9777    6.5968   -6.6426 C   0  0  0  0  0  0  0  0  0  0  0  0
    9.6193    6.2790   -7.9377 C   0  0  0  0  0  0  0  0  0  0  0  0
   10.2500    6.8146   -9.0432 C   0  0  0  0  0  0  0  0  0  0  0  0
   11.2810    7.7040   -8.8134 C   0  0  0  0  0  0  0  0  0  0  0  0
   11.9058    8.2354   -9.9227 C   0  0  0  0  0  0  0  0  0  0  0  0
   11.5100    7.8866  -11.1650 N   0  0  0  0  0  0  0  0  0  0  0  0
   10.5026    7.0174  -11.3882 C   0  0  0  0  0  0  0  0  0  0  0  0
   10.1527    6.7079  -12.5997 N   0  0  0  0  0  0  0  0  0  0  0  0
    9.8928    6.4989  -10.3064 N   0  0  0  0  0  0  0  0  0  0  0  0
    9.1104    5.8240  -10.4603 H   0  0  0  0  0  0  0  0  0  0  0  0
   11.6400    8.0218   -7.5247 C   0  0  0  0  0  0  0  0  0  0  0  0
   12.2003    8.4876   -2.4546 C   0  0  0  0  0  0  0  0  0  0  0  0
   11.9848    7.1692   -2.7930 C   0  0  0  0  0  0  0  0  0  0  0  0
   11.5956    6.8741   -4.0954 C   0  0  0  0  0  0  0  0  0  0  0  0
   11.4183    7.8478   -5.0549 C   0  0  0  0  0  0  0  0  0  0  0  0
   11.6382    9.1455   -4.6938 C   0  0  0  0  0  0  0  0  0  0  0  0
   12.0210    9.4751   -3.4270 C   0  0  0  0  0  0  0  0  0  0  0  0
 37 38  2  0
 38 39  1  0
 39 40  2  0
 40 25  1  0
 25 26  2  0
 26 27  1  0
 27 28  2  0
 28 29  1  0
 29 30  1  0
 30 31  2  0
 31 32  1  0
 32 33  2  0
 33  1  1  0
  1  2  2  0
  2  3  1  0
  3  4  2  0
  4  5  1  0
  5  6  2  0
  5  7  1  0
  7  8  1  0
  8  9  2  0
  9 10  1  0
 10 11  2  0
 11 12  1  0
 12 13  1  0
 12 14  1  0
 14 15  2  0
 15 16  1  0
 16 17  2  0
 17 18  1  0
 18 19  2  0
  7 20  1  1
 20 21  1  0
 21 22  1  0
 22 23  1  0
 23 24  1  0
 32 34  1  0
 34 35  1  0
 29 36  2  0
 40 41  1  0
 41 42  2  0
 42 37  1  0
 36 25  1  0
 34 28  1  0
  6  1  1  0
 24  7  1  0
 18  4  1  0
 17  8  1  0
 16 10  1  0
M  END
>  <minimizedAffinity>  (364) 
-17.06746

$$$$
Mol: 199_32 - SminaDock
     RDKit          3D

 39 45  0  0  0  0  0  0  0  0999 V2000
    9.0223    6.2316  -12.3651 C   0  0  0  0  0  0  0  0  0  0  0  0
    9.8427    5.3215  -12.9869 C   0  0  0  0  0  0  0  0  0  0  0  0
    9.3758    4.1678  -13.5933 C   0  0  0  0  0  0  0  0  0  0  0  0
   10.2255    3.1829  -14.2537 C   0  0  0  0  0  0  0  0  0  0  0  0
    8.0162    3.9535  -13.5528 C   0  0  0  0  0  0  0  0  0  0  0  0
    7.1616    4.8699  -12.9232 C   0  0  0  0  0  0  0  0  0  0  0  0
    7.6680    6.0047  -12.3321 C   0  0  0  0  0  0  0  0  0  0  0  0
    5.6864    4.7536  -12.8173 C   0  0  0  0  0  0  0  0  0  0  0  0
    5.1955    3.4951  -12.1912 C   0  0  0  0  0  0  0  0  0  0  0  0
    5.3388    2.3108  -13.0772 C   0  0  0  0  0  0  0  0  0  0  0  0
    4.3949    1.3601  -13.1308 N   0  0  0  0  0  0  0  0  0  0  0  0
    4.7290    0.3769  -14.0000 C   0  0  0  0  0  0  0  0  0  0  0  0
    4.1669   -0.8017  -14.4444 C   0  0  0  0  0  0  0  0  0  0  0  0
    4.8118   -1.5496  -15.3487 N   0  0  0  0  0  0  0  0  0  0  0  0
    4.3888   -2.4623  -15.7006 H   0  0  0  0  0  0  0  0  0  0  0  0
    6.0102   -1.1873  -15.8490 C   0  0  0  0  0  0  0  0  0  0  0  0
    6.6499   -0.0176  -15.4588 C   0  0  0  0  0  0  0  0  0  0  0  0
    6.0381    0.7941  -14.5322 C   0  0  0  0  0  0  0  0  0  0  0  0
    6.3748    1.9770  -13.9453 C   0  0  0  0  0  0  0  0  0  0  0  0
    7.6006    2.7226  -14.2047 C   0  0  0  0  0  0  0  0  0  0  0  0
    8.3910    2.2873  -15.0653 O   0  0  0  0  0  0  0  0  0  0  0  0
   11.3512    8.1560   -5.8817 C   0  0  0  0  0  0  0  0  0  0  0  0
   11.5489    9.3244   -6.6066 C   0  0  0  0  0  0  0  0  0  0  0  0
   11.2357    9.4235   -7.9323 C   0  0  0  0  0  0  0  0  0  0  0  0
   10.7007    8.3202   -8.5823 C   0  0  0  0  0  0  0  0  0  0  0  0
   10.3888    8.4223   -9.9070 N   0  0  0  0  0  0  0  0  0  0  0  0
    9.8740    7.3348  -10.5002 C   0  0  0  0  0  0  0  0  0  0  0  0
    9.5764    7.4201  -11.7491 N   0  0  0  0  0  0  0  0  0  0  0  0
    9.6653    6.1822   -9.8376 N   0  0  0  0  0  0  0  0  0  0  0  0
    9.2626    5.3560  -10.3332 H   0  0  0  0  0  0  0  0  0  0  0  0
    9.9560    6.0347   -8.5366 C   0  0  0  0  0  0  0  0  0  0  0  0
   10.4968    7.1570   -7.8878 C   0  0  0  0  0  0  0  0  0  0  0  0
   10.8198    7.0739   -6.5446 C   0  0  0  0  0  0  0  0  0  0  0  0
   12.3262    7.8969   -1.8344 C   0  0  0  0  0  0  0  0  0  0  0  0
   12.3925    9.1105   -2.4573 C   0  0  0  0  0  0  0  0  0  0  0  0
   12.0704    9.2040   -3.7999 C   0  0  0  0  0  0  0  0  0  0  0  0
   11.6925    8.0746   -4.4720 C   0  0  0  0  0  0  0  0  0  0  0  0
   11.6265    6.8559   -3.8445 C   0  0  0  0  0  0  0  0  0  0  0  0
   11.9477    6.7424   -2.4905 C   0  0  0  0  0  0  0  0  0  0  0  0
 34 35  2  0
 35 36  1  0
 36 37  2  0
 37 22  1  0
 22 23  1  0
 23 24  2  0
 24 25  1  0
 25 26  2  0
 26 27  1  0
 27 28  2  0
 28  1  1  0
  1  2  2  0
  2  3  1  0
  3  4  1  0
  3  5  2  0
  5  6  1  0
  6  7  2  0
  6  8  1  0
  8  9  1  0
  9 10  1  0
 10 11  2  0
 11 12  1  0
 12 13  2  0
 13 14  1  0
 14 15  1  0
 14 16  1  0
 16 17  2  0
 17 18  1  0
 18 19  2  0
 19 20  1  0
 20 21  2  0
 27 29  1  0
 29 30  1  0
 29 31  1  0
 31 32  2  0
 32 33  1  0
 37 38  1  0
 38 39  2  0
 39 34  1  0
 33 22  2  0
 32 25  1  0
  7  1  1  0
 19 10  1  0
 20  5  1  0
 18 12  1  0
M  END
>  <minimizedAffinity>  (365) 
-17.12163

$$$$
Mol: 156_44 - SminaDock
     RDKit          3D

 45 52  0  0  0  0  0  0  0  0999 V2000
    2.2823   -1.0823  -17.1011 H   0  0  0  0  0  0  0  0  0  0  0  0
    3.1005   -1.6159  -16.8093 O   0  0  0  0  0  0  0  0  0  0  0  0
    4.3996   -1.2346  -17.0799 C   0  0  0  0  0  0  0  0  0  0  0  0
    4.9810   -0.2225  -16.3991 N   0  0  0  0  0  0  0  0  0  0  0  0
    6.2534    0.1476  -16.6676 C   0  0  0  0  0  0  0  0  0  0  0  0
    7.0353   -0.4455  -17.6175 C   0  0  0  0  0  0  0  0  0  0  0  0
    6.4164   -1.4980  -18.3169 C   0  0  0  0  0  0  0  0  0  0  0  0
    5.1221   -1.8887  -18.0560 C   0  0  0  0  0  0  0  0  0  0  0  0
    8.4042   -0.0162  -17.9593 C   0  0  0  0  0  0  0  0  0  0  0  0
    9.0358    0.8423  -16.9649 C   0  0  1  0  0  0  0  0  0  0  0  0
    8.1603    1.5762  -16.0542 C   0  0  0  0  0  0  0  0  0  0  0  0
    8.6759    2.6499  -15.3079 C   0  0  0  0  0  0  0  0  0  0  0  0
    7.8708    3.2936  -14.4112 C   0  0  0  0  0  0  0  0  0  0  0  0
    6.5571    2.9323  -14.1994 C   0  0  0  0  0  0  0  0  0  0  0  0
    6.0582    1.8596  -14.9552 C   0  0  0  0  0  0  0  0  0  0  0  0
    6.8640    1.2261  -15.8461 C   0  0  0  0  0  0  0  0  0  0  0  0
    5.6698    3.5486  -13.2001 C   0  0  0  0  0  0  0  0  0  0  0  0
    6.1048    4.8707  -12.7125 C   0  0  0  0  0  0  0  0  0  0  0  0
    7.5364    5.1716  -12.8093 C   0  0  0  0  0  0  0  0  0  0  0  0
    8.0337    6.2433  -12.0490 C   0  0  0  0  0  0  0  0  0  0  0  0
    9.3588    6.5840  -12.1725 C   0  0  0  0  0  0  0  0  0  0  0  0
   10.1635    5.8740  -13.0311 C   0  0  0  0  0  0  0  0  0  0  0  0
    9.6924    4.7980  -13.8018 C   0  0  0  0  0  0  0  0  0  0  0  0
    8.3533    4.4743  -13.6578 C   0  0  0  0  0  0  0  0  0  0  0  0
    9.9500    7.6581  -11.4390 N   0  0  0  0  0  0  0  0  0  0  0  0
   10.2011    7.5255  -10.1707 C   0  0  0  0  0  0  0  0  0  0  0  0
   10.7621    8.5835   -9.5374 N   0  0  0  0  0  0  0  0  0  0  0  0
   11.0254    8.4525   -8.2181 C   0  0  0  0  0  0  0  0  0  0  0  0
   11.5919    9.5216   -7.5805 C   0  0  0  0  0  0  0  0  0  0  0  0
   11.8760    9.4181   -6.2200 C   0  0  0  0  0  0  0  0  0  0  0  0
   11.5900    8.2625   -5.5397 C   0  0  0  0  0  0  0  0  0  0  0  0
   11.0143    7.1874   -6.2064 C   0  0  0  0  0  0  0  0  0  0  0  0
   10.7322    7.2813   -7.5431 C   0  0  0  0  0  0  0  0  0  0  0  0
   10.1530    6.2248   -8.2548 C   0  0  0  0  0  0  0  0  0  0  0  0
    9.9040    6.3844   -9.5602 N   0  0  0  0  0  0  0  0  0  0  0  0
    9.4711    5.6036  -10.1076 H   0  0  0  0  0  0  0  0  0  0  0  0
   11.8904    8.1637   -4.1192 C   0  0  0  0  0  0  0  0  0  0  0  0
   12.1738    9.2592   -3.3588 C   0  0  0  0  0  0  0  0  0  0  0  0
   12.4513    9.1028   -2.0163 C   0  0  0  0  0  0  0  0  0  0  0  0
   12.4505    7.8652   -1.4176 C   0  0  0  0  0  0  0  0  0  0  0  0
   12.1625    6.7733   -2.2001 C   0  0  0  0  0  0  0  0  0  0  0  0
   11.8884    6.9247   -3.5248 C   0  0  0  0  0  0  0  0  0  0  0  0
   10.1232    0.0967  -16.1762 C   0  0  0  0  0  0  0  0  0  0  0  0
   10.2017   -1.2181  -16.5753 O   0  0  0  0  0  0  0  0  0  0  0  0
   11.0224   -1.6074  -16.1789 H   0  0  0  0  0  0  0  0  0  0  0  0
  1  2  1  0
  2  3  1  0
  3  4  2  0
  4  5  1  0
  5  6  2  0
  6  7  1  0
  7  8  2  0
  6  9  1  0
  9 10  1  0
 10 43  1  1
 43 44  1  0
 44 45  1  0
 10 11  1  0
 11 12  2  0
 12 13  1  0
 13 14  2  0
 14 15  1  0
 15 16  2  0
 14 17  1  0
 17 18  1  0
 18 19  1  0
 19 20  2  0
 20 21  1  0
 21 25  1  0
 25 26  2  0
 26 27  1  0
 27 28  2  0
 28 29  1  0
 29 30  2  0
 30 31  1  0
 31 37  1  0
 37 38  2  0
 38 39  1  0
 39 40  2  0
 40 41  1  0
 41 42  2  0
 31 32  2  0
 32 33  1  0
 33 34  2  0
 34 35  1  0
 35 36  1  0
 21 22  2  0
 22 23  1  0
 23 24  2  0
  8  3  1  0
 16 11  1  0
 24 19  1  0
 16  5  1  0
 35 26  1  0
 24 13  1  0
 33 28  1  0
 42 37  1  0
M  END
>  <minimizedAffinity>  (366) 
-17.02790

$$$$
Mol: 158_43 - SminaDock
     RDKit          3D

 41 47  0  0  0  0  0  0  0  0999 V2000
    1.8623   -0.7022  -13.5216 H   0  0  0  0  0  0  0  0  0  0  0  0
    2.4817   -1.2408  -14.1553 N   0  0  0  0  0  0  0  0  0  0  0  0
    3.6802   -0.8634  -14.4609 C   0  0  0  0  0  0  0  0  0  0  0  0
    4.1868    0.2893  -13.9466 N   0  0  0  0  0  0  0  0  0  0  0  0
    5.4489    0.6847  -14.2709 C   0  0  0  0  0  0  0  0  0  0  0  0
    6.0076    1.8525  -13.7649 C   0  0  0  0  0  0  0  0  0  0  0  0
    7.3071    2.2415  -14.1067 C   0  0  0  0  0  0  0  0  0  0  0  0
    8.0117    1.4625  -14.9355 N   0  0  0  0  0  0  0  0  0  0  0  0
    8.9676    1.6963  -15.2201 H   0  0  0  0  0  0  0  0  0  0  0  0
    7.4785    0.3277  -15.4305 C   0  0  0  0  0  0  0  0  0  0  0  0
    8.1530   -0.4068  -16.2151 O   0  0  0  0  0  0  0  0  0  0  0  0
    6.2113   -0.0832  -15.1196 C   0  0  0  0  0  0  0  0  0  0  0  0
    5.6889   -1.2473  -15.6344 C   0  0  0  0  0  0  0  0  0  0  0  0
    4.4220   -1.6158  -15.2906 N   0  0  0  0  0  0  0  0  0  0  0  0
    4.0400   -2.4919  -15.6828 H   0  0  0  0  0  0  0  0  0  0  0  0
    7.8132    3.5012  -13.5700 C   0  0  0  0  0  0  0  0  0  0  0  0
    9.1176    3.8665  -13.8226 C   0  0  0  0  0  0  0  0  0  0  0  0
    9.6626    5.0200  -13.2696 C   0  0  0  0  0  0  0  0  0  0  0  0
    8.9123    5.8242  -12.4573 C   0  0  0  0  0  0  0  0  0  0  0  0
    7.6223    5.4771  -12.2011 C   0  0  0  0  0  0  0  0  0  0  0  0
    7.0586    4.3101  -12.7569 C   0  0  0  0  0  0  0  0  0  0  0  0
    5.6442    3.9943  -12.4978 C   0  0  0  0  0  0  0  0  0  0  0  0
    5.1888    2.6192  -12.8255 C   0  0  0  0  0  0  0  0  0  0  0  0
    9.4747    7.0002  -11.8547 N   0  0  0  0  0  0  0  0  0  0  0  0
    9.6887    7.8749  -12.3584 H   0  0  0  0  0  0  0  0  0  0  0  0
    9.7673    6.9772  -10.4429 C   0  0  0  0  0  0  0  0  0  0  0  0
    9.4869    5.9327   -9.6628 N   0  0  0  0  0  0  0  0  0  0  0  0
    9.7804    5.8922   -8.3525 C   0  0  0  0  0  0  0  0  0  0  0  0
   10.4103    7.0036   -7.7865 C   0  0  0  0  0  0  0  0  0  0  0  0
   10.7416    7.0090   -6.4382 C   0  0  0  0  0  0  0  0  0  0  0  0
   11.3697    8.0856   -5.8463 C   0  0  0  0  0  0  0  0  0  0  0  0
   11.6545    9.1630   -6.6582 C   0  0  0  0  0  0  0  0  0  0  0  0
   11.3262    9.1656   -8.0091 C   0  0  0  0  0  0  0  0  0  0  0  0
   10.6991    8.0829   -8.5911 C   0  0  0  0  0  0  0  0  0  0  0  0
   10.3702    8.0476   -9.9087 N   0  0  0  0  0  0  0  0  0  0  0  0
   11.7333    8.0847   -4.4311 C   0  0  0  0  0  0  0  0  0  0  0  0
   12.0981    9.2653   -3.8103 C   0  0  0  0  0  0  0  0  0  0  0  0
   12.4512    9.2823   -2.4592 C   0  0  0  0  0  0  0  0  0  0  0  0
   12.4381    8.1195   -1.7304 C   0  0  0  0  0  0  0  0  0  0  0  0
   12.0762    6.9189   -2.3251 C   0  0  0  0  0  0  0  0  0  0  0  0
   11.7337    6.9414   -3.6639 C   0  0  0  0  0  0  0  0  0  0  0  0
  1  2  1  0
  2  3  2  0
  3  4  1  0
  4  5  2  0
  5  6  1  0
  6  7  2  0
  7  8  1  0
  8  9  1  0
  8 10  1  0
 10 11  2  0
 10 12  1  0
 12 13  2  0
 13 14  1  0
 14 15  1  0
  7 16  1  0
 16 17  2  0
 17 18  1  0
 18 19  2  0
 19 24  1  0
 24 25  1  0
 24 26  1  0
 26 27  2  0
 27 28  1  0
 28 29  2  0
 29 30  1  0
 30 31  2  0
 31 36  1  0
 36 37  2  0
 37 38  1  0
 38 39  2  0
 39 40  1  0
 40 41  2  0
 31 32  1  0
 32 33  2  0
 33 34  1  0
 34 35  2  0
 19 20  1  0
 20 21  2  0
 21 22  1  0
 22 23  1  0
 14  3  1  0
 21 16  1  0
 12  5  1  0
 35 26  1  0
 23  6  1  0
 34 29  1  0
 41 36  1  0
M  END
>  <minimizedAffinity>  (367) 
-17.04853

$$$$
Mol: 198_9 - SminaDock
     RDKit          3D

 46 53  0  0  0  0  0  0  0  0999 V2000
    9.8770    1.3184  -16.6322 C   0  0  0  0  0  0  0  0  0  0  0  0
    8.6752    2.1406  -16.2389 C   0  0  1  0  0  0  0  0  0  0  0  0
    8.3443    3.1953  -17.2922 C   0  0  0  0  0  0  0  0  0  0  0  0
    7.4941    1.5907  -15.6114 C   0  0  0  0  0  0  0  0  0  0  0  0
    6.8536    2.1707  -14.4915 C   0  0  0  0  0  0  0  0  0  0  0  0
    5.7198    1.6585  -13.9059 C   0  0  0  0  0  0  0  0  0  0  0  0
    5.1256    0.5353  -14.3757 C   0  0  0  0  0  0  0  0  0  0  0  0
    5.6878   -0.0817  -15.4669 C   0  0  0  0  0  0  0  0  0  0  0  0
    5.0519   -1.2008  -15.9801 C   0  0  0  0  0  0  0  0  0  0  0  0
    5.5339   -1.8213  -17.0992 C   0  0  0  0  0  0  0  0  0  0  0  0
    6.6137   -1.3219  -17.6724 N   0  0  0  0  0  0  0  0  0  0  0  0
    7.2635   -0.2303  -17.1971 C   0  0  0  0  0  0  0  0  0  0  0  0
    8.2399    0.1715  -17.8038 O   0  0  0  0  0  0  0  0  0  0  0  0
    6.8286    0.4248  -16.0702 C   0  0  0  0  0  0  0  0  0  0  0  0
    7.4164    3.3499  -13.8335 C   0  0  0  0  0  0  0  0  0  0  0  0
    6.6973    4.0396  -12.8676 C   0  0  0  0  0  0  0  0  0  0  0  0
    7.2163    5.2352  -12.4236 C   0  0  0  0  0  0  0  0  0  0  0  0
    8.4103    5.7265  -12.9259 C   0  0  0  0  0  0  0  0  0  0  0  0
    9.1223    5.0566  -13.8760 C   0  0  0  0  0  0  0  0  0  0  0  0
    8.5942    3.8383  -14.3221 C   0  0  0  0  0  0  0  0  0  0  0  0
    9.3886    2.9775  -15.1532 C   0  0  2  0  0  0  0  0  0  0  0  0
   10.5262    3.6795  -15.7336 N   0  0  0  0  0  0  0  0  0  0  0  0
   11.6063    3.5922  -14.8152 C   0  0  0  0  0  0  0  0  0  0  0  0
   12.6145    4.3671  -14.8377 O   0  0  0  0  0  0  0  0  0  0  0  0
   11.3341    2.5289  -13.9322 N   0  0  0  0  0  0  0  0  0  0  0  0
   10.0983    1.9464  -14.2818 C   0  0  0  0  0  0  0  0  0  0  0  0
    9.6787    0.8305  -13.9482 O   0  0  0  0  0  0  0  0  0  0  0  0
   10.5804    4.1764  -16.6632 H   0  0  0  0  0  0  0  0  0  0  0  0
    8.9556    6.9541  -12.3877 N   0  0  0  0  0  0  0  0  0  0  0  0
    9.4275    6.8803  -11.1539 C   0  0  0  0  0  0  0  0  0  0  0  0
    9.4158    5.7186  -10.4238 C   0  0  0  0  0  0  0  0  0  0  0  0
    9.8282    5.6532   -9.1124 C   0  0  0  0  0  0  0  0  0  0  0  0
   10.2673    6.8210   -8.5354 C   0  0  0  0  0  0  0  0  0  0  0  0
   10.6532    6.8513   -7.1941 C   0  0  0  0  0  0  0  0  0  0  0  0
   11.0511    8.0010   -6.5480 C   0  0  0  0  0  0  0  0  0  0  0  0
   11.0509    9.1449   -7.3228 C   0  0  0  0  0  0  0  0  0  0  0  0
   10.6779    9.1656   -8.6607 C   0  0  0  0  0  0  0  0  0  0  0  0
   10.2786    7.9780   -9.2698 C   0  0  0  0  0  0  0  0  0  0  0  0
    9.8590    7.9791  -10.5638 N   0  0  0  0  0  0  0  0  0  0  0  0
    9.8764    8.8765  -11.1230 H   0  0  0  0  0  0  0  0  0  0  0  0
   11.4510    7.9737   -5.1448 C   0  0  0  0  0  0  0  0  0  0  0  0
   12.0877    9.0255   -4.5354 C   0  0  0  0  0  0  0  0  0  0  0  0
   12.5800    8.9916   -3.2334 C   0  0  0  0  0  0  0  0  0  0  0  0
   12.4198    7.8336   -2.5165 C   0  0  0  0  0  0  0  0  0  0  0  0
   11.7917    6.7666   -3.0923 C   0  0  0  0  0  0  0  0  0  0  0  0
   11.3037    6.8236   -4.4000 C   0  0  0  0  0  0  0  0  0  0  0  0
  2  1  1  6
  2  3  1  0
  2  4  1  0
  4  5  2  0
  5  6  1  0
  6  7  2  0
  7  8  1  0
  8  9  1  0
  9 10  2  0
 10 11  1  0
 11 12  1  0
 12 13  2  0
 12 14  1  0
  5 15  1  0
 15 16  2  0
 16 17  1  0
 17 18  2  0
 18 29  1  0
 29 30  2  0
 30 31  1  0
 31 32  2  0
 32 33  1  0
 33 34  2  0
 34 35  1  0
 35 41  1  0
 41 42  2  0
 42 43  1  0
 43 44  2  0
 44 45  1  0
 45 46  2  0
 35 36  2  0
 36 37  1  0
 37 38  2  0
 38 39  1  0
 18 19  1  0
 19 20  2  0
 20 21  1  0
 21 22  1  6
 22 23  1  0
 23 24  2  0
 23 25  1  0
 25 26  1  0
 26 27  2  0
 21  2  1  0
 14  4  1  0
 20 15  1  0
 26 21  1  0
 14  8  2  0
 39 30  1  0
 38 33  1  0
 46 41  1  0
 39 40  1  0
 22 28  1  0
M  CHG  2  11  -1  25  -1
M  END
>  <minimizedAffinity>  (368) 
-17.01145

$$$$
Mol: 197_55 - SminaDock
     RDKit          3D

 36 42  0  0  0  0  0  0  0  0999 V2000
   11.2548    8.0925   -5.8798 C   0  0  0  0  0  0  0  0  0  0  0  0
   11.3292    9.2574   -6.6190 C   0  0  0  0  0  0  0  0  0  0  0  0
   10.9350    9.2655   -7.9404 C   0  0  0  0  0  0  0  0  0  0  0  0
   10.4590    8.1243   -8.5609 C   0  0  0  0  0  0  0  0  0  0  0  0
   10.3944    6.9652   -7.7942 C   0  0  0  0  0  0  0  0  0  0  0  0
   10.7858    6.9570   -6.4819 C   0  0  0  0  0  0  0  0  0  0  0  0
    9.9132    5.8296   -8.4348 C   0  0  0  0  0  0  0  0  0  0  0  0
    9.5129    5.8132   -9.7537 C   0  0  0  0  0  0  0  0  0  0  0  0
    9.6007    6.9930  -10.4609 C   0  0  0  0  0  0  0  0  0  0  0  0
    9.2558    7.0808  -11.6800 N   0  0  0  0  0  0  0  0  0  0  0  0
   10.0715    8.1185   -9.8466 N   0  0  0  0  0  0  0  0  0  0  0  0
   10.1502    9.0296  -10.3565 H   0  0  0  0  0  0  0  0  0  0  0  0
    8.7599    5.9035  -12.3291 C   0  0  0  0  0  0  0  0  0  0  0  0
    9.5143    5.2091  -13.2495 C   0  0  0  0  0  0  0  0  0  0  0  0
    9.0068    4.0674  -13.8673 C   0  0  0  0  0  0  0  0  0  0  0  0
    7.7567    3.6527  -13.5456 C   0  0  0  0  0  0  0  0  0  0  0  0
    7.0009    4.3511  -12.6222 C   0  0  0  0  0  0  0  0  0  0  0  0
    7.4897    5.4983  -11.9901 C   0  0  0  0  0  0  0  0  0  0  0  0
    5.6295    3.9632  -12.2532 C   0  0  0  0  0  0  0  0  0  0  0  0
    5.1548    2.6804  -12.8044 C   0  0  0  0  0  0  0  0  0  0  0  0
    5.9595    2.0070  -13.8200 C   0  0  0  0  0  0  0  0  0  0  0  0
    7.2099    2.4289  -14.1725 C   0  0  0  0  0  0  0  0  0  0  0  0
    7.9690    1.7519  -15.1281 C   0  0  0  0  0  0  0  0  0  0  0  0
    7.4056    0.6236  -15.7166 C   0  0  0  0  0  0  0  0  0  0  0  0
    7.8561   -0.2394  -16.6515 N   0  0  0  0  0  0  0  0  0  0  0  0
    6.9317   -1.1465  -16.8661 O   0  0  0  0  0  0  0  0  0  0  0  0
    5.9005   -0.9435  -16.1379 N   0  0  0  0  0  0  0  0  0  0  0  0
    4.7169   -1.6621  -16.0593 O   0  0  0  0  0  0  0  0  0  0  0  0
    6.1505    0.1720  -15.3869 C   0  0  0  0  0  0  0  0  0  0  0  0
    5.4441    0.8605  -14.4502 C   0  0  0  0  0  0  0  0  0  0  0  0
   12.4436    7.9676   -1.8375 C   0  0  0  0  0  0  0  0  0  0  0  0
   12.3775    9.1745   -2.4953 C   0  0  0  0  0  0  0  0  0  0  0  0
   11.9916    9.2410   -3.8164 C   0  0  0  0  0  0  0  0  0  0  0  0
   11.6674    8.0716   -4.4844 C   0  0  0  0  0  0  0  0  0  0  0  0
   11.7330    6.8706   -3.8310 C   0  0  0  0  0  0  0  0  0  0  0  0
   12.1193    6.8021   -2.5075 C   0  0  0  0  0  0  0  0  0  0  0  0
 31 32  2  0
 32 33  1  0
 33 34  2  0
 34  1  1  0
  1  2  2  0
  2  3  1  0
  3  4  2  0
  4  5  1  0
  5  6  2  0
  5  7  1  0
  7  8  2  0
  8  9  1  0
  9 10  2  0
 10 13  1  0
 13 14  2  0
 14 15  1  0
 15 16  2  0
 16 17  1  0
 17 18  2  0
 17 19  1  0
 19 20  1  0
 20 21  1  0
 21 22  1  0
 22 23  2  0
 23 24  1  0
 24 25  2  0
 25 26  1  0
 26 27  1  0
 27 28  1  0
 27 29  2  0
 29 30  1  0
  9 11  1  0
 11 12  1  0
 34 35  1  0
 35 36  2  0
 36 31  1  0
  6  1  1  0
 18 13  1  0
 30 21  2  0
 11  4  1  0
 22 16  1  0
 29 24  1  0
M  CHG  2  27   1  28  -1
M  END
>  <minimizedAffinity>  (369) 
-16.96133

$$$$
Mol: 124_3 - SminaDock
     RDKit          3D

 38 44  0  0  0  0  0  0  0  0999 V2000
    8.0683    4.7409  -12.7346 C   0  0  0  0  0  0  0  0  0  0  0  0
    6.7250    4.6437  -12.4910 C   0  0  0  0  0  0  0  0  0  0  0  0
    5.9414    3.5383  -12.9091 C   0  0  0  0  0  0  0  0  0  0  0  0
    4.5449    3.4710  -12.4827 C   0  0  0  0  0  0  0  0  0  0  0  0
    6.6045    2.5605  -13.5848 C   0  0  0  0  0  0  0  0  0  0  0  0
    7.9875    2.6589  -13.8395 C   0  0  0  0  0  0  0  0  0  0  0  0
    8.6987    3.7271  -13.4183 C   0  0  0  0  0  0  0  0  0  0  0  0
    8.5992    1.6445  -14.6863 C   0  0  2  0  0  0  0  0  0  0  0  0
    8.2074    0.2737  -14.2214 C   0  0  0  0  0  0  0  0  0  0  0  0
    6.7156    0.1895  -14.3431 C   0  0  0  0  0  0  0  0  0  0  0  0
    6.1042   -0.9388  -14.8035 C   0  0  0  0  0  0  0  0  0  0  0  0
    4.7307   -1.0095  -14.8061 C   0  0  0  0  0  0  0  0  0  0  0  0
    3.9797    0.0380  -14.3556 C   0  0  0  0  0  0  0  0  0  0  0  0
    4.5972    1.2117  -13.8808 C   0  0  0  0  0  0  0  0  0  0  0  0
    5.9556    1.2764  -13.8770 C   0  0  0  0  0  0  0  0  0  0  0  0
   10.0685    1.7380  -14.9027 C   0  0  0  0  0  0  0  0  0  0  0  0
   10.3835    0.9615  -16.1971 C   0  0  0  0  0  0  0  0  0  0  0  0
   10.0210    1.8123  -17.2631 O   0  0  0  0  0  0  0  0  0  0  0  0
    8.8690    2.5308  -16.9534 C   0  0  0  0  0  0  0  0  0  0  0  0
    7.9178    1.7952  -16.0701 C   0  0  0  0  0  0  0  0  0  0  0  0
   11.1030    7.6274   -6.7719 C   0  0  0  0  0  0  0  0  0  0  0  0
   11.4111    8.5791   -7.7234 C   0  0  0  0  0  0  0  0  0  0  0  0
   10.9958    8.3865   -9.0176 C   0  0  0  0  0  0  0  0  0  0  0  0
   10.2712    7.2566   -9.3998 C   0  0  0  0  0  0  0  0  0  0  0  0
    9.9720    6.3185   -8.4426 C   0  0  0  0  0  0  0  0  0  0  0  0
    9.2577    5.2134   -8.8406 C   0  0  0  0  0  0  0  0  0  0  0  0
    8.8954    5.1096  -10.1223 N   0  0  0  0  0  0  0  0  0  0  0  0
    9.1819    6.0181  -11.0628 C   0  0  0  0  0  0  0  0  0  0  0  0
    8.8007    5.8604  -12.2957 N   0  0  0  0  0  0  0  0  0  0  0  0
    9.8786    7.1011  -10.6874 N   0  0  0  0  0  0  0  0  0  0  0  0
   10.1364    7.8497  -11.3708 H   0  0  0  0  0  0  0  0  0  0  0  0
   10.3880    6.5098   -7.1419 C   0  0  0  0  0  0  0  0  0  0  0  0
   12.3981    8.2592   -2.8364 C   0  0  0  0  0  0  0  0  0  0  0  0
   11.7883    7.0706   -3.1702 C   0  0  0  0  0  0  0  0  0  0  0  0
   11.3607    6.8646   -4.4734 C   0  0  0  0  0  0  0  0  0  0  0  0
   11.5554    7.8545   -5.4063 C   0  0  0  0  0  0  0  0  0  0  0  0
   12.1625    9.0478   -5.0907 C   0  0  0  0  0  0  0  0  0  0  0  0
   12.5815    9.2354   -3.7897 C   0  0  0  0  0  0  0  0  0  0  0  0
 33 34  2  0
 34 35  1  0
 35 36  2  0
 36 21  1  0
 21 22  2  0
 22 23  1  0
 23 24  2  0
 24 25  1  0
 25 26  1  0
 26 27  2  0
 27 28  1  0
 28 29  2  0
 29  1  1  0
  1  2  2  0
  2  3  1  0
  3  4  1  0
  3  5  2  0
  5  6  1  0
  6  7  2  0
  6  8  1  0
  8  9  1  1
  9 10  1  0
 10 11  2  0
 11 12  1  0
 12 13  2  0
 13 14  1  0
 14 15  2  0
  8 16  1  0
 16 17  1  0
 17 18  1  0
 18 19  1  0
 19 20  1  0
 28 30  1  0
 30 31  1  0
 25 32  2  0
 36 37  1  0
 37 38  2  0
 38 33  1  0
 32 21  1  0
 30 24  1  0
  7  1  1  0
 20  8  1  0
 15  5  1  0
 15 10  1  0
M  END
>  <minimizedAffinity>  (370) 
-16.99307

$$$$
Mol: 187_48 - SminaDock
     RDKit          3D

 42 49  0  0  0  0  0  0  0  0999 V2000
    6.0778   -2.7209  -18.7563 H   0  0  0  0  0  0  0  0  0  0  0  0
    6.7393   -2.3522  -18.0789 O   0  0  0  0  0  0  0  0  0  0  0  0
    6.2359   -1.4687  -17.1255 C   0  0  0  0  0  0  0  0  0  0  0  0
    7.0618   -0.4939  -16.7062 N   0  0  0  0  0  0  0  0  0  0  0  0
    6.6523    0.3897  -15.7956 C   0  0  0  0  0  0  0  0  0  0  0  0
    7.2309    1.4736  -15.1743 C   0  0  0  0  0  0  0  0  0  0  0  0
    6.3118    1.9985  -14.3237 C   0  0  0  0  0  0  0  0  0  0  0  0
    5.1640    1.2704  -14.3933 N   0  0  0  0  0  0  0  0  0  0  0  0
    5.2968    0.2697  -15.2727 C   0  0  0  0  0  0  0  0  0  0  0  0
    4.4870   -0.7395  -15.7274 C   0  0  0  0  0  0  0  0  0  0  0  0
    4.9460   -1.6211  -16.6591 C   0  0  0  0  0  0  0  0  0  0  0  0
    6.8435    3.1674  -13.6110 C   0  0  0  0  0  0  0  0  0  0  0  0
    6.2785    3.9981  -12.6716 C   0  0  0  0  0  0  0  0  0  0  0  0
    7.0338    5.0330  -12.1701 C   0  0  0  0  0  0  0  0  0  0  0  0
    8.3272    5.2493  -12.5854 C   0  0  0  0  0  0  0  0  0  0  0  0
    8.8534    4.3820  -13.5371 C   0  0  0  0  0  0  0  0  0  0  0  0
    8.1350    3.3324  -14.0678 C   0  0  0  0  0  0  0  0  0  0  0  0
    8.4624    2.2729  -15.0863 C   0  0  2  0  0  0  0  0  0  0  0  0
    8.8274    2.9377  -16.3814 C   0  0  0  0  0  0  0  0  0  0  0  0
    9.9122    2.2646  -17.1530 C   0  0  0  0  0  0  0  0  0  0  0  0
   10.0958    0.8751  -16.8862 N   0  0  0  0  0  0  0  0  0  0  0  0
    9.6402    0.2186  -17.5254 H   0  0  0  0  0  0  0  0  0  0  0  0
   10.1584    0.5024  -15.5115 C   0  0  0  0  0  0  0  0  0  0  0  0
    9.6516    1.5297  -14.5539 C   0  0  0  0  0  0  0  0  0  0  0  0
    9.1109    6.3239  -12.0617 N   0  0  0  0  0  0  0  0  0  0  0  0
    9.4229    6.3918  -10.8072 C   0  0  0  0  0  0  0  0  0  0  0  0
    8.9986    5.4118   -9.9331 C   0  0  0  0  0  0  0  0  0  0  0  0
    9.3561    5.5250   -8.5983 C   0  0  0  0  0  0  0  0  0  0  0  0
   10.1134    6.5764   -8.1289 C   0  0  0  0  0  0  0  0  0  0  0  0
   10.4700    6.6884   -6.7937 C   0  0  0  0  0  0  0  0  0  0  0  0
   11.2280    7.7430   -6.3300 C   0  0  0  0  0  0  0  0  0  0  0  0
   11.6233    8.6943   -7.2549 C   0  0  0  0  0  0  0  0  0  0  0  0
   11.2709    8.5864   -8.5826 C   0  0  0  0  0  0  0  0  0  0  0  0
   10.5107    7.5286   -9.0475 C   0  0  0  0  0  0  0  0  0  0  0  0
   10.1610    7.4101  -10.3316 N   0  0  0  0  0  0  0  0  0  0  0  0
   10.4835    8.1537  -10.9922 H   0  0  0  0  0  0  0  0  0  0  0  0
   11.6183    7.8835   -4.9207 C   0  0  0  0  0  0  0  0  0  0  0  0
   11.6193    6.7837   -4.0759 C   0  0  0  0  0  0  0  0  0  0  0  0
   11.9849    6.9069   -2.7498 C   0  0  0  0  0  0  0  0  0  0  0  0
   12.3575    8.1379   -2.2431 C   0  0  0  0  0  0  0  0  0  0  0  0
   12.3562    9.2237   -3.0778 C   0  0  0  0  0  0  0  0  0  0  0  0
   11.9906    9.1081   -4.4101 C   0  0  0  0  0  0  0  0  0  0  0  0
  1  2  1  0
  2  3  1  0
  3  4  1  0
  4  5  1  0
  5  6  2  0
  6  7  1  0
  7  8  2  0
  8  9  1  0
  9 10  2  0
 10 11  1  0
  7 12  1  0
 12 13  2  0
 13 14  1  0
 14 15  2  0
 15 25  1  0
 25 26  2  0
 26 27  1  0
 27 28  2  0
 28 29  1  0
 29 30  2  0
 30 31  1  0
 31 37  1  0
 37 38  2  0
 38 39  1  0
 39 40  2  0
 40 41  1  0
 41 42  2  0
 31 32  2  0
 32 33  1  0
 33 34  2  0
 34 35  1  0
 35 36  1  0
 15 16  1  0
 16 17  2  0
 17 18  1  0
 18 19  1  6
 19 20  1  0
 20 21  1  0
 21 22  1  0
 21 23  1  0
 23 24  1  0
 11  3  2  0
 17 12  1  0
 24 18  1  0
  9  5  1  0
 35 26  1  0
 18  6  1  0
 34 29  1  0
 42 37  1  0
M  CHG  1   4  -1
M  END
>  <minimizedAffinity>  (371) 
-17.01801

$$$$
Mol: 127_9 - SminaDock
     RDKit          3D

 38 44  0  0  0  0  0  0  0  0999 V2000
    7.9003    4.8247  -12.5730 C   0  0  0  0  0  0  0  0  0  0  0  0
    6.6182    4.7236  -12.0859 C   0  0  0  0  0  0  0  0  0  0  0  0
    5.7883    3.7029  -12.4859 C   0  0  0  0  0  0  0  0  0  0  0  0
    6.2226    2.7319  -13.4026 C   0  0  0  0  0  0  0  0  0  0  0  0
    7.5057    2.8253  -13.8954 C   0  0  0  0  0  0  0  0  0  0  0  0
    8.3067    3.8489  -13.4815 C   0  0  0  0  0  0  0  0  0  0  0  0
    8.1082    1.8989  -14.8516 C   0  0  2  0  0  0  0  0  0  0  0  0
    8.2086    0.5274  -14.2243 C   0  0  0  0  0  0  0  0  0  0  0  0
    7.5868    0.0823  -13.2382 O   0  0  0  0  0  0  0  0  0  0  0  0
    9.1679   -0.1496  -15.0021 O   0  0  0  0  0  0  0  0  0  0  0  0
    9.8916    0.7554  -15.8075 C   0  0  0  0  0  0  0  0  0  0  0  0
    9.5306    2.1247  -15.2058 C   0  0  0  0  0  0  0  0  0  0  0  0
    7.2490    1.7302  -16.0813 C   0  0  0  0  0  0  0  0  0  0  0  0
    6.1972    0.7229  -15.6832 C   0  0  0  0  0  0  0  0  0  0  0  0
    6.1787   -0.3683  -16.5008 C   0  0  0  0  0  0  0  0  0  0  0  0
    5.2888   -1.3995  -16.2903 C   0  0  0  0  0  0  0  0  0  0  0  0
    4.3939   -1.3487  -15.2429 C   0  0  0  0  0  0  0  0  0  0  0  0
    4.4076   -0.2603  -14.4218 C   0  0  0  0  0  0  0  0  0  0  0  0
    5.3108    0.7876  -14.6345 C   0  0  0  0  0  0  0  0  0  0  0  0
    5.0919    1.8061  -13.6010 C   0  0  0  0  0  0  0  0  0  0  0  0
   11.2577    7.6032   -6.7204 C   0  0  0  0  0  0  0  0  0  0  0  0
   11.7665    8.4003   -7.7419 C   0  0  0  0  0  0  0  0  0  0  0  0
   11.3720    8.1969   -9.0476 C   0  0  0  0  0  0  0  0  0  0  0  0
   10.4761    7.2203   -9.4095 C   0  0  0  0  0  0  0  0  0  0  0  0
   10.0856    7.0124  -10.6766 N   0  0  0  0  0  0  0  0  0  0  0  0
    9.1965    6.0345  -10.9951 C   0  0  0  0  0  0  0  0  0  0  0  0
    8.8251    5.8355  -12.2131 N   0  0  0  0  0  0  0  0  0  0  0  0
    8.6900    5.2524  -10.0355 N   0  0  0  0  0  0  0  0  0  0  0  0
    7.9956    4.4926  -10.2965 H   0  0  0  0  0  0  0  0  0  0  0  0
    9.0707    5.4472   -8.7611 C   0  0  0  0  0  0  0  0  0  0  0  0
    9.9636    6.4208   -8.3986 C   0  0  0  0  0  0  0  0  0  0  0  0
   10.3599    6.6250   -7.0870 C   0  0  0  0  0  0  0  0  0  0  0  0
   12.3834    8.1411   -2.6919 C   0  0  0  0  0  0  0  0  0  0  0  0
   11.7279    6.9915   -3.0920 C   0  0  0  0  0  0  0  0  0  0  0  0
   11.3617    6.8195   -4.4115 C   0  0  0  0  0  0  0  0  0  0  0  0
   11.6471    7.7913   -5.3327 C   0  0  0  0  0  0  0  0  0  0  0  0
   12.2979    8.9315   -4.9333 C   0  0  0  0  0  0  0  0  0  0  0  0
   12.6651    9.1097   -3.6252 C   0  0  0  0  0  0  0  0  0  0  0  0
 33 34  2  0
 34 35  1  0
 35 36  2  0
 36 21  1  0
 21 22  1  0
 22 23  2  0
 23 24  1  0
 24 25  2  0
 25 26  1  0
 26 27  2  0
 27  1  1  0
  1  2  2  0
  2  3  1  0
  3  4  2  0
  4  5  1  0
  5  6  2  0
  5  7  1  0
  7  8  1  0
  8  9  2  0
  8 10  1  0
 10 11  1  0
 11 12  1  0
  7 13  1  6
 13 14  1  0
 14 15  2  0
 15 16  1  0
 16 17  2  0
 17 18  1  0
 18 19  2  0
 19 20  1  0
 26 28  1  0
 28 29  1  0
 28 30  1  0
 30 31  2  0
 31 32  1  0
 36 37  1  0
 37 38  2  0
 38 33  1  0
 32 21  2  0
 31 24  1  0
  6  1  1  0
 12  7  1  0
 19 14  1  0
 20  4  1  0
M  END
>  <minimizedAffinity>  (372) 
-17.02900

$$$$
Mol: 198_52 - SminaDock
     RDKit          3D

 38 44  0  0  0  0  0  0  0  0999 V2000
    8.6510    5.8918  -12.3508 C   0  0  0  0  0  0  0  0  0  0  0  0
    7.4790    5.4211  -11.8598 C   0  0  0  0  0  0  0  0  0  0  0  0
    6.8922    4.3122  -12.4835 C   0  0  0  0  0  0  0  0  0  0  0  0
    7.4899    3.7122  -13.5701 C   0  0  0  0  0  0  0  0  0  0  0  0
    6.9026    2.6244  -14.1724 C   0  0  0  0  0  0  0  0  0  0  0  0
    5.7127    2.0747  -13.7460 C   0  0  0  0  0  0  0  0  0  0  0  0
    5.1448    0.9829  -14.3686 C   0  0  0  0  0  0  0  0  0  0  0  0
    3.9572    0.4115  -13.9660 C   0  0  0  0  0  0  0  0  0  0  0  0
    3.3955   -0.6813  -14.5952 C   0  0  0  0  0  0  0  0  0  0  0  0
    4.0525   -1.2281  -15.6775 C   0  0  0  0  0  0  0  0  0  0  0  0
    5.2424   -0.6696  -16.0946 C   0  0  0  0  0  0  0  0  0  0  0  0
    5.8052    0.4301  -15.4596 C   0  0  0  0  0  0  0  0  0  0  0  0
    6.9935    0.9880  -15.8763 C   0  0  0  0  0  0  0  0  0  0  0  0
    7.5730    2.0732  -15.2699 C   0  0  0  0  0  0  0  0  0  0  0  0
    8.7546    2.6289  -15.6840 C   0  0  0  0  0  0  0  0  0  0  0  0
    9.3295    2.1041  -16.6771 O   0  0  0  0  0  0  0  0  0  0  0  0
    9.3152    3.6910  -15.0856 N   0  0  0  0  0  0  0  0  0  0  0  0
   10.5684    4.2527  -15.5520 C   0  0  0  0  0  0  0  0  0  0  0  0
    8.6969    4.2510  -14.0219 C   0  0  0  0  0  0  0  0  0  0  0  0
    9.3003    5.3396  -13.4321 C   0  0  0  0  0  0  0  0  0  0  0  0
   11.2884    8.0325   -5.9156 C   0  0  0  0  0  0  0  0  0  0  0  0
   11.4841    9.1445   -6.7079 C   0  0  0  0  0  0  0  0  0  0  0  0
   11.0977    9.1255   -8.0392 C   0  0  0  0  0  0  0  0  0  0  0  0
   10.5127    8.0227   -8.6250 C   0  0  0  0  0  0  0  0  0  0  0  0
   10.3153    6.8971   -7.8208 C   0  0  0  0  0  0  0  0  0  0  0  0
   10.7035    6.9246   -6.4946 C   0  0  0  0  0  0  0  0  0  0  0  0
    9.7321    5.8094   -8.4229 C   0  0  0  0  0  0  0  0  0  0  0  0
    9.3474    5.7931   -9.7534 C   0  0  0  0  0  0  0  0  0  0  0  0
    9.5736    6.9389  -10.4837 C   0  0  0  0  0  0  0  0  0  0  0  0
    9.2516    7.0152  -11.7256 N   0  0  0  0  0  0  0  0  0  0  0  0
   10.1480    8.0379   -9.9279 N   0  0  0  0  0  0  0  0  0  0  0  0
   10.3231    8.9073  -10.4694 H   0  0  0  0  0  0  0  0  0  0  0  0
   12.4469    8.0318   -1.8745 C   0  0  0  0  0  0  0  0  0  0  0  0
   12.1647    6.8267   -2.4716 C   0  0  0  0  0  0  0  0  0  0  0  0
   11.7853    6.8404   -3.7993 C   0  0  0  0  0  0  0  0  0  0  0  0
   11.6925    8.0386   -4.5076 C   0  0  0  0  0  0  0  0  0  0  0  0
   11.9806    9.2066   -3.8775 C   0  0  0  0  0  0  0  0  0  0  0  0
   12.3622    9.2223   -2.5522 C   0  0  0  0  0  0  0  0  0  0  0  0
 33 34  2  0
 34 35  1  0
 35 36  2  0
 36 21  1  0
 21 22  2  0
 22 23  1  0
 23 24  2  0
 24 25  1  0
 25 26  2  0
 25 27  1  0
 27 28  2  0
 28 29  1  0
 29 30  2  0
 30  1  1  0
  1  2  2  0
  2  3  1  0
  3  4  2  0
  4  5  1  0
  5  6  2  0
  6  7  1  0
  7  8  2  0
  8  9  1  0
  9 10  2  0
 10 11  1  0
 11 12  2  0
 12 13  1  0
 13 14  2  0
 14 15  1  0
 15 16  2  0
 15 17  1  0
 17 18  1  0
 17 19  1  0
 19 20  2  0
 29 31  1  0
 31 32  1  0
 36 37  1  0
 37 38  2  0
 38 33  1  0
 26 21  1  0
 20  1  1  0
 31 24  1  0
 19  4  1  0
 14  5  1  0
 12  7  1  0
M  END
>  <minimizedAffinity>  (373) 
-17.02895

$$$$
Mol: 168_35 - SminaDock
     RDKit          3D

 39 45  0  0  0  0  0  0  0  0999 V2000
    6.5587   -2.5902  -16.3766 H   0  0  0  0  0  0  0  0  0  0  0  0
    6.2321   -1.6791  -16.6798 O   0  0  0  0  0  0  0  0  0  0  0  0
    6.9328   -0.5065  -16.3796 C   0  0  0  0  0  0  0  0  0  0  0  0
    8.0138   -0.1792  -17.0929 N   0  0  0  0  0  0  0  0  0  0  0  0
    8.6890    0.9381  -16.8196 C   0  0  0  0  0  0  0  0  0  0  0  0
    8.2837    1.7880  -15.7817 C   0  0  0  0  0  0  0  0  0  0  0  0
    7.1934    1.4632  -15.0413 C   0  0  0  0  0  0  0  0  0  0  0  0
    6.6730    2.3036  -14.0955 C   0  0  0  0  0  0  0  0  0  0  0  0
    5.4365    1.9796  -13.4829 C   0  0  0  0  0  0  0  0  0  0  0  0
    4.7613    0.8316  -13.8070 C   0  0  0  0  0  0  0  0  0  0  0  0
    5.2801   -0.0167  -14.7285 C   0  0  0  0  0  0  0  0  0  0  0  0
    6.4775    0.2899  -15.3376 C   0  0  0  0  0  0  0  0  0  0  0  0
    4.9009    2.8869  -12.4614 C   0  0  0  0  0  0  0  0  0  0  0  0
    5.2415    4.3176  -12.6176 C   0  0  1  0  0  0  0  0  0  0  0  0
    5.0113    4.9611  -11.4198 F   0  0  0  0  0  0  0  0  0  0  0  0
    6.7238    4.4479  -12.8642 C   0  0  0  0  0  0  0  0  0  0  0  0
    7.4431    5.4429  -12.2762 C   0  0  0  0  0  0  0  0  0  0  0  0
    8.7910    5.6265  -12.5037 C   0  0  0  0  0  0  0  0  0  0  0  0
    9.3826    4.7454  -13.3587 C   0  0  0  0  0  0  0  0  0  0  0  0
    8.6756    3.7086  -13.9775 C   0  0  0  0  0  0  0  0  0  0  0  0
    7.3283    3.5536  -13.7369 C   0  0  0  0  0  0  0  0  0  0  0  0
    9.5368    6.6680  -11.8925 N   0  0  0  0  0  0  0  0  0  0  0  0
    9.8067    6.7452  -10.6520 C   0  0  0  0  0  0  0  0  0  0  0  0
   10.5216    7.7727  -10.1660 N   0  0  0  0  0  0  0  0  0  0  0  0
   10.8180    7.8688   -8.8394 C   0  0  0  0  0  0  0  0  0  0  0  0
   11.5453    8.9049   -8.3136 C   0  0  0  0  0  0  0  0  0  0  0  0
   11.8276    8.9652   -6.9435 C   0  0  0  0  0  0  0  0  0  0  0  0
   11.3808    7.9830   -6.0866 C   0  0  0  0  0  0  0  0  0  0  0  0
   10.6461    6.9392   -6.6276 C   0  0  0  0  0  0  0  0  0  0  0  0
   10.3703    6.8864   -7.9880 C   0  0  0  0  0  0  0  0  0  0  0  0
    9.6366    5.8321   -8.4869 C   0  0  0  0  0  0  0  0  0  0  0  0
    9.3675    5.7844   -9.8257 N   0  0  0  0  0  0  0  0  0  0  0  0
    8.8102    4.9658  -10.1424 H   0  0  0  0  0  0  0  0  0  0  0  0
   11.6885    8.0699   -4.6675 C   0  0  0  0  0  0  0  0  0  0  0  0
   11.9557    9.2423   -4.0080 C   0  0  0  0  0  0  0  0  0  0  0  0
   12.2365    9.2016   -2.6489 C   0  0  0  0  0  0  0  0  0  0  0  0
   12.2597    8.0285   -1.9248 C   0  0  0  0  0  0  0  0  0  0  0  0
   11.9906    6.8617   -2.5967 C   0  0  0  0  0  0  0  0  0  0  0  0
   11.7091    6.8758   -3.9450 C   0  0  0  0  0  0  0  0  0  0  0  0
  1  2  1  0
  2  3  1  0
  3  4  2  0
  4  5  1  0
  5  6  2  0
  6  7  1  0
  7  8  2  0
  8  9  1  0
  9 10  2  0
 10 11  1  0
 11 12  2  0
  9 13  1  0
 13 14  1  0
 14 15  1  1
 14 16  1  0
 16 17  2  0
 17 18  1  0
 18 22  1  0
 22 23  2  0
 23 24  1  0
 24 25  2  0
 25 26  1  0
 26 27  2  0
 27 28  1  0
 28 34  1  0
 34 35  2  0
 35 36  1  0
 36 37  2  0
 37 38  1  0
 38 39  2  0
 28 29  2  0
 29 30  1  0
 30 31  2  0
 31 32  1  0
 32 33  1  0
 18 19  2  0
 19 20  1  0
 20 21  2  0
 12  3  1  0
 21 16  1  0
 12  7  1  0
 32 23  1  0
 21  8  1  0
 30 25  1  0
 39 34  1  0
M  END
>  <minimizedAffinity>  (374) 
-16.98864

$$$$
Mol: 149_24 - SminaDock
     RDKit          3D

 39 45  0  0  0  0  0  0  0  0999 V2000
    8.7699    5.7795  -12.4898 C   0  0  0  0  0  0  0  0  0  0  0  0
    9.3045    5.1751  -13.5940 C   0  0  0  0  0  0  0  0  0  0  0  0
    8.6797    4.1129  -14.2357 C   0  0  0  0  0  0  0  0  0  0  0  0
    7.4781    3.6550  -13.7382 C   0  0  0  0  0  0  0  0  0  0  0  0
    6.9288    4.2557  -12.6304 C   0  0  0  0  0  0  0  0  0  0  0  0
    7.5851    5.3200  -12.0108 C   0  0  0  0  0  0  0  0  0  0  0  0
    5.6173    3.8296  -12.1123 C   0  0  0  0  0  0  0  0  0  0  0  0
    5.1357    2.5234  -12.5833 C   0  0  0  0  0  0  0  0  0  0  0  0
    5.7120    1.9957  -13.8337 C   0  0  0  0  0  0  0  0  0  0  0  0
    5.1022    0.9161  -14.4788 C   0  0  0  0  0  0  0  0  0  0  0  0
    5.6473    0.3788  -15.6130 C   0  0  0  0  0  0  0  0  0  0  0  0
    6.8058    0.8594  -16.1769 C   0  0  0  0  0  0  0  0  0  0  0  0
    7.4066    1.9465  -15.5173 C   0  0  0  0  0  0  0  0  0  0  0  0
    6.8673    2.4928  -14.3789 C   0  0  0  0  0  0  0  0  0  0  0  0
    7.2989    0.2800  -17.3071 O   0  0  0  0  0  0  0  0  0  0  0  0
    6.6769   -0.7444  -18.0560 C   0  0  2  0  0  0  0  0  0  0  0  0
    7.7410   -1.5034  -18.8210 C   0  0  0  0  0  0  0  0  0  0  0  0
    5.7886   -0.0738  -19.0844 C   0  0  0  0  0  0  0  0  0  0  0  0
    5.8417   -1.6380  -17.1982 C   0  0  0  0  0  0  0  0  0  0  0  0
    5.0173   -0.7657  -16.3062 C   0  0  0  0  0  0  0  0  0  0  0  0
    3.7914   -0.9597  -16.1114 O   0  0  0  0  0  0  0  0  0  0  0  0
   11.3434    8.0189   -5.9595 C   0  0  0  0  0  0  0  0  0  0  0  0
   11.6041    9.0917   -6.7874 C   0  0  0  0  0  0  0  0  0  0  0  0
   11.2596    9.0622   -8.1365 C   0  0  0  0  0  0  0  0  0  0  0  0
   10.6459    7.9653   -8.7021 C   0  0  0  0  0  0  0  0  0  0  0  0
   10.3855    6.8925   -7.8721 C   0  0  0  0  0  0  0  0  0  0  0  0
    9.7703    5.7993   -8.4468 C   0  0  0  0  0  0  0  0  0  0  0  0
    9.4507    5.8041   -9.7547 N   0  0  0  0  0  0  0  0  0  0  0  0
    9.7052    6.8501  -10.5642 C   0  0  0  0  0  0  0  0  0  0  0  0
    9.4043    6.8675  -11.8214 N   0  0  0  0  0  0  0  0  0  0  0  0
   10.3060    7.9199  -10.0056 N   0  0  0  0  0  0  0  0  0  0  0  0
   10.5133    8.7519  -10.6327 H   0  0  0  0  0  0  0  0  0  0  0  0
   10.7286    6.9264   -6.5357 C   0  0  0  0  0  0  0  0  0  0  0  0
   12.3713    7.9747   -1.8346 C   0  0  0  0  0  0  0  0  0  0  0  0
   12.0208    6.8113   -2.4806 C   0  0  0  0  0  0  0  0  0  0  0  0
   11.6919    6.8554   -3.8170 C   0  0  0  0  0  0  0  0  0  0  0  0
   11.7014    8.0412   -4.5423 C   0  0  0  0  0  0  0  0  0  0  0  0
   12.0526    9.1786   -3.8762 C   0  0  0  0  0  0  0  0  0  0  0  0
   12.3866    9.1608   -2.5361 C   0  0  0  0  0  0  0  0  0  0  0  0
 34 35  2  0
 35 36  1  0
 36 37  2  0
 37 22  1  0
 22 23  2  0
 23 24  1  0
 24 25  2  0
 25 26  1  0
 26 27  1  0
 27 28  2  0
 28 29  1  0
 29 30  2  0
 30  1  1  0
  1  2  2  0
  2  3  1  0
  3  4  2  0
  4  5  1  0
  5  6  2  0
  5  7  1  0
  7  8  1  0
  8  9  1  0
  9 10  2  0
 10 11  1  0
 11 12  2  0
 12 13  1  0
 13 14  2  0
 12 15  1  0
 15 16  1  0
 16 17  1  6
 16 18  1  0
 16 19  1  0
 19 20  1  0
 20 21  2  0
 29 31  1  0
 31 32  1  0
 26 33  2  0
 37 38  1  0
 38 39  2  0
 39 34  1  0
 33 22  1  0
 31 25  1  0
  6  1  1  0
 14  9  1  0
 14  4  1  0
 20 11  1  0
M  END
>  <minimizedAffinity>  (375) 
-16.98110

$$$$
Mol: 169_40 - SminaDock
     RDKit          3D

 39 45  0  0  0  0  0  0  0  0999 V2000
    8.8805    6.1093  -12.3390 C   0  0  0  0  0  0  0  0  0  0  0  0
    9.5730    5.5100  -13.3565 C   0  0  0  0  0  0  0  0  0  0  0  0
    9.1241    4.3835  -14.0093 C   0  0  0  0  0  0  0  0  0  0  0  0
    7.9096    3.8428  -13.6036 C   0  0  0  0  0  0  0  0  0  0  0  0
    7.1902    4.4172  -12.5839 C   0  0  0  0  0  0  0  0  0  0  0  0
    7.6938    5.5778  -11.9432 C   0  0  0  0  0  0  0  0  0  0  0  0
    5.9525    3.8279  -12.0746 C   0  0  0  0  0  0  0  0  0  0  0  0
    5.2532    2.9276  -13.0005 C   0  0  0  0  0  0  0  0  0  0  0  0
    6.0750    2.2198  -13.9647 C   0  0  0  0  0  0  0  0  0  0  0  0
    5.5905    1.0949  -14.5993 C   0  0  0  0  0  0  0  0  0  0  0  0
    6.3678    0.4620  -15.5791 C   0  0  0  0  0  0  0  0  0  0  0  0
    7.5865    0.9162  -15.9296 C   0  0  0  0  0  0  0  0  0  0  0  0
    8.0578    2.0571  -15.2719 C   0  0  0  0  0  0  0  0  0  0  0  0
    7.3288    2.6982  -14.3125 C   0  0  0  0  0  0  0  0  0  0  0  0
    8.4461    0.3064  -16.9410 C   0  0  1  0  0  0  0  0  0  0  0  0
    9.8394    0.0304  -16.3857 C   0  0  0  0  0  0  0  0  0  0  0  0
    7.8490   -0.8698  -17.5495 C   0  0  0  0  0  0  0  0  0  0  0  0
    8.5430   -1.4681  -18.4501 O   0  0  0  0  0  0  0  0  0  0  0  0
    6.6091   -1.3343  -17.1950 O   0  0  0  0  0  0  0  0  0  0  0  0
    5.8247   -0.7302  -16.2344 C   0  0  0  0  0  0  0  0  0  0  0  0
    4.6851   -1.1540  -15.9059 O   0  0  0  0  0  0  0  0  0  0  0  0
   11.3218    8.1053   -5.7905 C   0  0  0  0  0  0  0  0  0  0  0  0
   11.4417    9.2817   -6.5073 C   0  0  0  0  0  0  0  0  0  0  0  0
   11.0738    9.3386   -7.8384 C   0  0  0  0  0  0  0  0  0  0  0  0
   10.5749    8.2352   -8.5069 C   0  0  0  0  0  0  0  0  0  0  0  0
   10.4549    7.0614   -7.7927 C   0  0  0  0  0  0  0  0  0  0  0  0
    9.9562    5.9680   -8.4700 C   0  0  0  0  0  0  0  0  0  0  0  0
    9.6004    6.0448   -9.7784 N   0  0  0  0  0  0  0  0  0  0  0  0
    9.7215    7.1947  -10.4655 C   0  0  0  0  0  0  0  0  0  0  0  0
    9.3842    7.2643  -11.7034 N   0  0  0  0  0  0  0  0  0  0  0  0
   10.2141    8.2789   -9.8008 N   0  0  0  0  0  0  0  0  0  0  0  0
   10.3037    9.1598  -10.3383 H   0  0  0  0  0  0  0  0  0  0  0  0
   10.8240    7.0092   -6.4620 C   0  0  0  0  0  0  0  0  0  0  0  0
   12.4469    7.9385   -1.7433 C   0  0  0  0  0  0  0  0  0  0  0  0
   12.4512    9.1462   -2.3906 C   0  0  0  0  0  0  0  0  0  0  0  0
   12.0878    9.2139   -3.7055 C   0  0  0  0  0  0  0  0  0  0  0  0
   11.7160    8.0612   -4.3801 C   0  0  0  0  0  0  0  0  0  0  0  0
   11.7099    6.8442   -3.7342 C   0  0  0  0  0  0  0  0  0  0  0  0
   12.0762    6.7737   -2.4078 C   0  0  0  0  0  0  0  0  0  0  0  0
 34 35  2  0
 35 36  1  0
 36 37  2  0
 37 22  1  0
 22 23  2  0
 23 24  1  0
 24 25  2  0
 25 26  1  0
 26 27  1  0
 27 28  2  0
 28 29  1  0
 29 30  2  0
 30  1  1  0
  1  2  2  0
  2  3  1  0
  3  4  2  0
  4  5  1  0
  5  6  2  0
  5  7  1  0
  7  8  1  0
  8  9  1  0
  9 10  2  0
 10 11  1  0
 11 12  2  0
 12 13  1  0
 13 14  2  0
 12 15  1  0
 15 16  1  1
 15 17  1  0
 17 18  2  0
 17 19  1  0
 19 20  1  0
 20 21  2  0
 29 31  1  0
 31 32  1  0
 26 33  2  0
 37 38  1  0
 38 39  2  0
 39 34  1  0
 33 22  1  0
 31 25  1  0
  6  1  1  0
 14  9  1  0
 14  4  1  0
 20 11  1  0
M  END
>  <minimizedAffinity>  (376) 
-16.97135

$$$$
Mol: 83_11 - SminaDock
     RDKit          3D

 45 51  0  0  0  0  0  0  0  0999 V2000
    6.4182   -0.2278  -14.5981 N   0  0  0  0  0  0  0  0  0  0  0  0
    5.4346    0.7329  -14.1537 C   0  0  0  0  0  0  0  0  0  0  0  0
    4.2184    0.4928  -14.4073 O   0  0  0  0  0  0  0  0  0  0  0  0
    5.7076    1.9629  -13.4346 C   0  0  0  0  0  0  0  0  0  0  0  0
    4.8617    2.3537  -12.6244 O   0  0  0  0  0  0  0  0  0  0  0  0
    6.9141    2.7801  -13.5968 C   0  0  0  0  0  0  0  0  0  0  0  0
    6.6510    4.0595  -13.1381 C   0  0  0  0  0  0  0  0  0  0  0  0
    7.5861    5.0434  -13.1758 C   0  0  0  0  0  0  0  0  0  0  0  0
    8.8236    4.7385  -13.6885 C   0  0  0  0  0  0  0  0  0  0  0  0
    9.0926    3.4673  -14.1465 C   0  0  0  0  0  0  0  0  0  0  0  0
   10.3917    3.2963  -14.6414 C   0  0  0  0  0  0  0  0  0  0  0  0
   10.7173    2.0484  -15.1110 C   0  0  0  0  0  0  0  0  0  0  0  0
    9.8068    1.0299  -15.0907 C   0  0  0  0  0  0  0  0  0  0  0  0
    8.4879    1.1705  -14.5978 C   0  0  0  0  0  0  0  0  0  0  0  0
    8.1630    2.4253  -14.1270 C   0  0  0  0  0  0  0  0  0  0  0  0
    7.8064   -0.1358  -14.7240 C   0  0  0  0  0  0  0  0  0  0  0  0
    9.8489    5.7677  -13.7449 N   0  0  0  0  0  0  0  0  0  0  0  0
   10.1880    6.2736  -12.5917 C   0  0  0  0  0  0  0  0  0  0  0  0
   11.1671    7.2721  -12.5325 C   0  0  0  0  0  0  0  0  0  0  0  0
   11.5064    7.7885  -11.3019 C   0  0  0  0  0  0  0  0  0  0  0  0
   10.8965    7.3350  -10.1421 C   0  0  0  0  0  0  0  0  0  0  0  0
   11.2283    7.8450   -8.9000 C   0  0  0  0  0  0  0  0  0  0  0  0
   10.6174    7.3902   -7.7390 C   0  0  0  0  0  0  0  0  0  0  0  0
    9.6545    6.4038   -7.8281 C   0  0  0  0  0  0  0  0  0  0  0  0
    9.3263    5.8977   -9.0683 C   0  0  0  0  0  0  0  0  0  0  0  0
    9.9380    6.3535  -10.2270 C   0  0  0  0  0  0  0  0  0  0  0  0
    9.6277    5.8691  -11.4398 N   0  0  0  0  0  0  0  0  0  0  0  0
    8.8926    5.1237  -11.4576 H   0  0  0  0  0  0  0  0  0  0  0  0
   10.9843    7.9447   -6.4343 C   0  0  0  0  0  0  0  0  0  0  0  0
   10.9675    9.3028   -6.2011 C   0  0  0  0  0  0  0  0  0  0  0  0
   11.3242    9.7318   -4.9557 C   0  0  0  0  0  0  0  0  0  0  0  0
   11.6962    8.8598   -3.9369 C   0  0  0  0  0  0  0  0  0  0  0  0
   12.0523    9.3117   -2.6888 C   0  0  0  0  0  0  0  0  0  0  0  0
   12.4131    8.4134   -1.7116 C   0  0  0  0  0  0  0  0  0  0  0  0
   12.4280    7.0594   -1.9502 C   0  0  0  0  0  0  0  0  0  0  0  0
   12.0646    6.6240   -3.2186 C   0  0  0  0  0  0  0  0  0  0  0  0
   11.7036    7.5144   -4.1981 C   0  0  0  0  0  0  0  0  0  0  0  0
   11.3468    7.0483   -5.4512 C   0  0  0  0  0  0  0  0  0  0  0  0
    7.0116   -2.0805  -17.8152 H   0  0  0  0  0  0  0  0  0  0  0  0
    6.4154   -1.4613  -17.2602 O   0  0  0  0  0  0  0  0  0  0  0  0
    5.8069   -2.0267  -16.1396 C   0  0  0  0  0  0  0  0  0  0  0  0
    5.8229   -1.4667  -14.9615 C   0  0  0  0  0  0  0  0  0  0  0  0
    5.1257   -3.2912  -16.2832 N   0  0  0  0  0  0  0  0  0  0  0  0
    5.6548   -4.1361  -16.5602 H   0  0  0  0  0  0  0  0  0  0  0  0
    4.1069   -3.3056  -16.0989 H   0  0  0  0  0  0  0  0  0  0  0  0
 39 40  1  0
 40 41  1  0
 41 42  2  0
 42  1  1  0
  1  2  1  0
  2  3  2  0
  2  4  1  0
  4  5  2  0
  4  6  1  0
  6  7  2  0
  7  8  1  0
  8  9  2  0
  9 17  1  0
 17 18  2  0
 18 19  1  0
 19 20  2  0
 20 21  1  0
 21 22  2  0
 22 23  1  0
 23 29  1  0
 29 30  2  0
 30 31  1  0
 31 32  2  0
 32 33  1  0
 33 34  2  0
 34 35  1  0
 35 36  2  0
 36 37  1  0
 37 38  2  0
 23 24  2  0
 24 25  1  0
 25 26  2  0
 26 27  1  0
 27 28  1  0
  9 10  1  0
 10 11  2  0
 11 12  1  0
 12 13  2  0
 13 14  1  0
 14 15  2  0
 14 16  1  0
 41 43  1  0
 43 44  1  0
 43 45  1  0
 16  1  1  0
 15  6  1  0
 27 18  1  0
 15 10  1  0
 26 21  1  0
 38 29  1  0
 37 32  1  0
M  END
>  <minimizedAffinity>  (377) 
-16.95160

$$$$
Mol: 188_52 - SminaDock
     RDKit          3D

 38 44  0  0  0  0  0  0  0  0999 V2000
    8.4371    5.5175  -12.3010 C   0  0  0  0  0  0  0  0  0  0  0  0
    7.1216    5.2989  -11.9423 C   0  0  0  0  0  0  0  0  0  0  0  0
    6.4324    4.1996  -12.3969 C   0  0  0  0  0  0  0  0  0  0  0  0
    7.0572    3.2846  -13.2320 C   0  0  0  0  0  0  0  0  0  0  0  0
    8.3653    3.4792  -13.6022 C   0  0  0  0  0  0  0  0  0  0  0  0
    9.0548    4.6148  -13.1246 C   0  0  0  0  0  0  0  0  0  0  0  0
    9.0720    2.5320  -14.4542 C   0  0  0  0  0  0  0  0  0  0  0  0
    8.3212    1.4410  -15.0687 C   0  0  0  0  0  0  0  0  0  0  0  0
    6.9393    1.2216  -14.6100 C   0  0  0  0  0  0  0  0  0  0  0  0
    6.3463    2.1212  -13.7577 C   0  0  0  0  0  0  0  0  0  0  0  0
    5.0456    1.8770  -13.3861 C   0  0  0  0  0  0  0  0  0  0  0  0
    4.3636    0.7411  -13.8707 C   0  0  0  0  0  0  0  0  0  0  0  0
    4.9848   -0.1415  -14.7220 C   0  0  0  0  0  0  0  0  0  0  0  0
    4.5769   -1.2523  -15.3023 O   0  0  0  0  0  0  0  0  0  0  0  0
    5.5322   -1.7627  -16.0406 C   0  0  0  0  0  0  0  0  0  0  0  0
    5.4404   -2.9641  -16.8125 N   0  0  0  0  0  0  0  0  0  0  0  0
    5.0352   -2.9692  -17.7791 H   0  0  0  0  0  0  0  0  0  0  0  0
    5.7717   -3.8604  -16.4375 H   0  0  0  0  0  0  0  0  0  0  0  0
    6.5949   -0.9322  -15.9195 N   0  0  0  0  0  0  0  0  0  0  0  0
    6.2882    0.0907  -15.1035 C   0  0  0  0  0  0  0  0  0  0  0  0
   11.2624    7.9070   -6.0933 C   0  0  0  0  0  0  0  0  0  0  0  0
   11.5516    8.9360   -6.9609 C   0  0  0  0  0  0  0  0  0  0  0  0
   11.1721    8.8687   -8.2841 C   0  0  0  0  0  0  0  0  0  0  0  0
   10.4836    7.7665   -8.8042 C   0  0  0  0  0  0  0  0  0  0  0  0
   10.2026    6.7464   -7.9228 C   0  0  0  0  0  0  0  0  0  0  0  0
   10.5862    6.8168   -6.5898 C   0  0  0  0  0  0  0  0  0  0  0  0
    9.5174    5.6327   -8.4069 C   0  0  0  0  0  0  0  0  0  0  0  0
    9.1661    5.6245   -9.7342 C   0  0  0  0  0  0  0  0  0  0  0  0
    9.4704    6.6689  -10.5734 C   0  0  0  0  0  0  0  0  0  0  0  0
    9.1316    6.6508  -11.8273 N   0  0  0  0  0  0  0  0  0  0  0  0
   10.1283    7.7319  -10.0964 N   0  0  0  0  0  0  0  0  0  0  0  0
   10.3818    8.5533  -10.7022 H   0  0  0  0  0  0  0  0  0  0  0  0
   12.4282    8.0555   -1.9912 C   0  0  0  0  0  0  0  0  0  0  0  0
   12.0615    6.8673   -2.5841 C   0  0  0  0  0  0  0  0  0  0  0  0
   11.6909    6.8473   -3.9057 C   0  0  0  0  0  0  0  0  0  0  0  0
   11.6665    7.9806   -4.6867 C   0  0  0  0  0  0  0  0  0  0  0  0
   12.0358    9.1698   -4.0848 C   0  0  0  0  0  0  0  0  0  0  0  0
   12.4068    9.1957   -2.7657 C   0  0  0  0  0  0  0  0  0  0  0  0
 33 34  2  0
 34 35  1  0
 35 36  2  0
 36 21  1  0
 21 22  2  0
 22 23  1  0
 23 24  2  0
 24 25  1  0
 25 26  2  0
 25 27  1  0
 27 28  2  0
 28 29  1  0
 29 30  2  0
 30  1  1  0
  1  2  2  0
  2  3  1  0
  3  4  2  0
  4  5  1  0
  5  6  2  0
  5  7  1  0
  7  8  1  0
  8  9  1  0
  9 10  2  0
 10 11  1  0
 11 12  2  0
 12 13  1  0
 13 14  1  0
 14 15  1  0
 15 16  1  0
 16 17  1  0
 16 18  1  0
 15 19  2  0
 19 20  1  0
 29 31  1  0
 31 32  1  0
 36 37  1  0
 37 38  2  0
 38 33  1  0
 26 21  1  0
  6  1  1  0
 20  9  1  0
 31 24  1  0
 10  4  1  0
 20 13  2  0
M  END
>  <minimizedAffinity>  (378) 
-17.01764

$$$$
Mol: 117_51 - SminaDock
     RDKit          3D

 45 52  0  0  0  0  0  0  0  0999 V2000
    5.6640   -1.0823  -17.0695 C   0  0  0  0  0  0  0  0  0  0  0  0
    4.7819   -1.2144  -15.9963 C   0  0  0  0  0  0  0  0  0  0  0  0
    4.7790   -0.2665  -14.9654 C   0  0  0  0  0  0  0  0  0  0  0  0
    5.6621    0.7823  -15.0470 C   0  0  0  0  0  0  0  0  0  0  0  0
    6.5490    0.9418  -16.0975 C   0  0  0  0  0  0  0  0  0  0  0  0
    6.5244   -0.0014  -17.0850 C   0  0  0  0  0  0  0  0  0  0  0  0
    7.5517    2.0435  -16.2911 C   0  0  0  0  0  0  0  0  0  0  0  0
    8.4256    2.2402  -15.0672 C   0  0  2  0  0  0  0  0  0  0  0  0
    7.7278    3.0483  -14.0377 C   0  0  0  0  0  0  0  0  0  0  0  0
    8.4442    4.1408  -13.5694 C   0  0  0  0  0  0  0  0  0  0  0  0
    7.9438    4.9950  -12.6078 C   0  0  0  0  0  0  0  0  0  0  0  0
    6.6782    4.7146  -12.1209 C   0  0  0  0  0  0  0  0  0  0  0  0
    5.9484    3.6337  -12.5725 C   0  0  0  0  0  0  0  0  0  0  0  0
    6.4607    2.7909  -13.5317 C   0  0  0  0  0  0  0  0  0  0  0  0
    5.5456    1.6825  -13.9032 C   0  0  0  0  0  0  0  0  0  0  0  0
    4.5865    1.5342  -13.1338 O   0  0  0  0  0  0  0  0  0  0  0  0
    9.7644    2.8360  -15.4532 C   0  0  0  0  0  0  0  0  0  0  0  0
   10.3842    1.9814  -16.5667 C   0  0  0  0  0  0  0  0  0  0  0  0
    9.9732    0.6795  -16.4491 O   0  0  0  0  0  0  0  0  0  0  0  0
    9.9974    0.3019  -15.1261 C   0  0  0  0  0  0  0  0  0  0  0  0
    8.7831    0.8858  -14.4277 C   0  0  0  0  0  0  0  0  0  0  0  0
    8.6941    6.1163  -12.1320 N   0  0  0  0  0  0  0  0  0  0  0  0
    9.0923    6.2137  -10.9096 C   0  0  0  0  0  0  0  0  0  0  0  0
    8.8293    5.2656   -9.9931 N   0  0  0  0  0  0  0  0  0  0  0  0
    9.2529    5.3688   -8.7124 C   0  0  0  0  0  0  0  0  0  0  0  0
    9.9726    6.4681   -8.3258 C   0  0  0  0  0  0  0  0  0  0  0  0
   10.4191    6.5981   -7.0246 C   0  0  0  0  0  0  0  0  0  0  0  0
   11.1440    7.6973   -6.6274 C   0  0  0  0  0  0  0  0  0  0  0  0
   11.4066    8.6662   -7.5854 C   0  0  0  0  0  0  0  0  0  0  0  0
   10.9602    8.5349   -8.8835 C   0  0  0  0  0  0  0  0  0  0  0  0
   10.2287    7.4255   -9.2844 C   0  0  0  0  0  0  0  0  0  0  0  0
    9.7924    7.2918  -10.5501 N   0  0  0  0  0  0  0  0  0  0  0  0
    9.9963    8.0231  -11.2530 H   0  0  0  0  0  0  0  0  0  0  0  0
   11.6300    7.8590   -5.2540 C   0  0  0  0  0  0  0  0  0  0  0  0
   12.3168    8.9757   -4.8322 C   0  0  0  0  0  0  0  0  0  0  0  0
   12.7657    9.1045   -3.5248 C   0  0  0  0  0  0  0  0  0  0  0  0
   12.5270    8.1095   -2.6307 C   0  0  0  0  0  0  0  0  0  0  0  0
   11.8441    6.9768   -3.0123 C   0  0  0  0  0  0  0  0  0  0  0  0
   11.4049    6.8616   -4.3094 C   0  0  0  0  0  0  0  0  0  0  0  0
    5.6899   -3.9557  -20.2278 C   0  0  0  0  0  0  0  0  0  0  0  0
    4.5446   -3.7194  -19.4972 C   0  0  0  0  0  0  0  0  0  0  0  0
    4.5436   -2.7749  -18.4626 C   0  0  0  0  0  0  0  0  0  0  0  0
    5.6803   -2.0625  -18.1507 C   0  0  0  0  0  0  0  0  0  0  0  0
    6.8218   -2.2938  -18.8744 C   0  0  0  0  0  0  0  0  0  0  0  0
    6.8233   -3.2388  -19.9099 C   0  0  0  0  0  0  0  0  0  0  0  0
 40 41  2  0
 41 42  1  0
 42 43  2  0
 43  1  1  0
  1  2  2  0
  2  3  1  0
  3  4  2  0
  4  5  1  0
  5  6  2  0
  5  7  1  0
  8  7  1  6
  8  9  1  0
  9 10  2  0
 10 11  1  0
 11 22  1  0
 22 23  2  0
 23 24  1  0
 24 25  2  0
 25 26  1  0
 26 27  2  0
 27 28  1  0
 28 34  1  0
 34 35  2  0
 35 36  1  0
 36 37  2  0
 37 38  1  0
 38 39  2  0
 28 29  2  0
 29 30  1  0
 30 31  2  0
 31 32  1  0
 32 33  1  0
 11 12  2  0
 12 13  1  0
 13 14  2  0
 14 15  1  0
 15 16  2  0
  8 17  1  0
 17 18  1  0
 18 19  1  0
 19 20  1  0
 20 21  1  0
 43 44  1  0
 44 45  2  0
 45 40  1  0
  6  1  1  0
 21  8  1  0
 15  4  1  0
 14  9  1  0
 32 23  1  0
 31 26  1  0
 39 34  1  0
M  END
>  <minimizedAffinity>  (379) 
-17.03002

$$$$
Mol: 151_44 - SminaDock
     RDKit          3D

 44 50  0  0  0  0  0  0  0  0999 V2000
    9.7068    0.1458  -16.8029 H   0  0  0  0  0  0  0  0  0  0  0  0
    8.8777    0.4985  -17.2494 O   0  0  0  0  0  0  0  0  0  0  0  0
    7.6236    0.0807  -16.7992 C   0  0  0  0  0  0  0  0  0  0  0  0
    6.9612    0.6951  -15.8339 C   0  0  0  0  0  0  0  0  0  0  0  0
    7.5574    1.8181  -15.2424 C   0  0  0  0  0  0  0  0  0  0  0  0
    6.9231    2.5020  -14.2342 C   0  0  0  0  0  0  0  0  0  0  0  0
    5.6777    2.0571  -13.8129 C   0  0  0  0  0  0  0  0  0  0  0  0
    5.0679    0.9473  -14.3839 C   0  0  0  0  0  0  0  0  0  0  0  0
    5.7236    0.2776  -15.3936 C   0  0  0  0  0  0  0  0  0  0  0  0
    5.0489   -0.9182  -15.9970 C   0  0  1  0  0  0  0  0  0  0  0  0
    5.5581   -1.1094  -17.3962 C   0  0  0  0  0  0  0  0  0  0  0  0
    7.0019   -1.0605  -17.3902 N   0  0  0  0  0  0  0  0  0  0  0  0
    7.6015   -1.8344  -17.8049 H   0  0  0  0  0  0  0  0  0  0  0  0
    5.0454    2.6820  -12.8576 C   0  0  0  0  0  0  0  0  0  0  0  0
    5.5582    3.8567  -12.1674 C   0  0  0  0  0  0  0  0  0  0  0  0
    6.8816    4.3222  -12.6203 C   0  0  0  0  0  0  0  0  0  0  0  0
    7.4447    5.4540  -11.9989 C   0  0  0  0  0  0  0  0  0  0  0  0
    8.6671    5.9003  -12.4034 C   0  0  0  0  0  0  0  0  0  0  0  0
    9.3273    5.2350  -13.4122 C   0  0  0  0  0  0  0  0  0  0  0  0
    8.7934    4.1259  -14.0331 C   0  0  0  0  0  0  0  0  0  0  0  0
    7.5465    3.6696  -13.6213 C   0  0  0  0  0  0  0  0  0  0  0  0
    9.2706    7.0373  -11.8033 N   0  0  0  0  0  0  0  0  0  0  0  0
    9.5942    6.9813  -10.5571 C   0  0  0  0  0  0  0  0  0  0  0  0
   10.1657    8.0674  -10.0021 N   0  0  0  0  0  0  0  0  0  0  0  0
   10.5211    8.0598   -8.7084 C   0  0  0  0  0  0  0  0  0  0  0  0
   11.1081    9.1744   -8.1365 C   0  0  0  0  0  0  0  0  0  0  0  0
   11.4681    9.1532   -6.8068 C   0  0  0  0  0  0  0  0  0  0  0  0
   11.2497    8.0335   -6.0403 C   0  0  0  0  0  0  0  0  0  0  0  0
   10.6638    6.9309   -6.6248 C   0  0  0  0  0  0  0  0  0  0  0  0
   10.3002    6.9348   -7.9432 C   0  0  0  0  0  0  0  0  0  0  0  0
    9.7106    5.8455   -8.5591 C   0  0  0  0  0  0  0  0  0  0  0  0
    9.3681    5.8749   -9.8369 N   0  0  0  0  0  0  0  0  0  0  0  0
    8.9292    5.0610  -10.2912 H   0  0  0  0  0  0  0  0  0  0  0  0
   11.6430    8.0364   -4.6232 C   0  0  0  0  0  0  0  0  0  0  0  0
   11.6610    6.8284   -3.9566 C   0  0  0  0  0  0  0  0  0  0  0  0
   12.0226    6.7817   -2.6290 C   0  0  0  0  0  0  0  0  0  0  0  0
   12.3573    7.9610   -2.0082 C   0  0  0  0  0  0  0  0  0  0  0  0
   12.3405    9.1717   -2.6714 C   0  0  0  0  0  0  0  0  0  0  0  0
   11.9781    9.2280   -4.0070 C   0  0  0  0  0  0  0  0  0  0  0  0
    5.4032   -2.0582  -15.1722 N   0  0  1  0  0  0  0  0  0  0  0  0
    6.3389   -1.9401  -14.7234 H   0  0  0  0  0  0  0  0  0  0  0  0
    4.7296   -2.2105  -14.3889 H   0  0  0  0  0  0  0  0  0  0  0  0
    5.4164   -3.1560  -15.9398 O   0  0  0  0  0  0  0  0  0  0  0  0
    4.5339   -3.4570  -16.2115 H   0  0  0  0  0  0  0  0  0  0  0  0
  1  2  1  0
  2  3  1  0
  3  4  2  0
  4  5  1  0
  5  6  2  0
  6  7  1  0
  7  8  1  0
  8  9  2  0
  9 10  1  0
 10 40  1  0
 40 41  1  1
 40 42  1  0
 40 43  1  0
 43 44  1  0
 10 11  1  6
 11 12  1  0
 12 13  1  0
  7 14  2  0
 14 15  1  0
 15 16  1  0
 16 17  2  0
 17 18  1  0
 18 22  1  0
 22 23  2  0
 23 24  1  0
 24 25  2  0
 25 26  1  0
 26 27  2  0
 27 28  1  0
 28 34  1  0
 34 35  2  0
 35 36  1  0
 36 37  2  0
 37 38  1  0
 38 39  2  0
 28 29  2  0
 29 30  1  0
 30 31  2  0
 31 32  1  0
 32 33  1  0
 18 19  2  0
 19 20  1  0
 20 21  2  0
 12  3  1  0
 21 16  1  0
  9  4  1  0
 32 23  1  0
 21  6  1  0
 30 25  1  0
 39 34  1  0
M  CHG  1  40   1
M  END
>  <minimizedAffinity>  (380) 
-16.98264

$$$$
Mol: 137_17 - SminaDock
     RDKit          3D

 45 52  0  0  0  0  0  0  0  0999 V2000
    5.4994    1.0826  -17.5965 O   0  0  0  0  0  0  0  0  0  0  0  0
    6.3222    0.9748  -16.4858 C   0  0  0  0  0  0  0  0  0  0  0  0
    5.9059    0.3951  -15.2594 N   0  0  0  0  0  0  0  0  0  0  0  0
    7.0169    0.4697  -14.3809 C   0  0  0  0  0  0  0  0  0  0  0  0
    7.0536    0.0611  -13.1916 O   0  0  0  0  0  0  0  0  0  0  0  0
    8.1131    1.1171  -15.1339 C   0  0  2  0  0  0  0  0  0  0  0  0
    9.2744    0.1670  -15.2305 C   0  0  0  0  0  0  0  0  0  0  0  0
   10.3199    0.6979  -16.1560 C   0  0  0  0  0  0  0  0  0  0  0  0
   10.5724   -0.1275  -17.2200 C   0  0  0  0  0  0  0  0  0  0  0  0
   11.5117    0.2494  -18.1515 C   0  0  0  0  0  0  0  0  0  0  0  0
   11.7927   -0.5640  -19.2374 C   0  0  0  0  0  0  0  0  0  0  0  0
   12.7285   -0.2227  -20.1901 C   0  0  0  0  0  0  0  0  0  0  0  0
   13.4249    0.9687  -20.0808 C   0  0  0  0  0  0  0  0  0  0  0  0
   13.1543    1.7857  -19.0062 C   0  0  0  0  0  0  0  0  0  0  0  0
   12.2053    1.4348  -18.0442 C   0  0  0  0  0  0  0  0  0  0  0  0
   11.9389    2.2189  -16.9979 N   0  0  0  0  0  0  0  0  0  0  0  0
   11.0140    1.8803  -16.0507 C   0  0  0  0  0  0  0  0  0  0  0  0
   10.9090    2.8817  -14.9816 C   0  0  0  0  0  0  0  0  0  0  0  0
    9.5820    3.1495  -14.4326 C   0  0  0  0  0  0  0  0  0  0  0  0
    9.5624    4.3632  -13.7282 C   0  0  0  0  0  0  0  0  0  0  0  0
    8.4462    4.8518  -13.0930 C   0  0  0  0  0  0  0  0  0  0  0  0
    7.3033    4.0890  -13.1700 C   0  0  0  0  0  0  0  0  0  0  0  0
    7.3199    2.8827  -13.8697 C   0  0  0  0  0  0  0  0  0  0  0  0
    8.4433    2.3971  -14.5048 C   0  0  0  0  0  0  0  0  0  0  0  0
    7.5393    1.3810  -16.4392 N   0  0  0  0  0  0  0  0  0  0  0  0
    5.6197    1.7708  -18.3263 H   0  0  0  0  0  0  0  0  0  0  0  0
    4.9440   -0.0149  -15.0440 H   0  0  0  0  0  0  0  0  0  0  0  0
    8.5295    6.1030  -12.4095 N   0  0  0  0  0  0  0  0  0  0  0  0
    8.1492    6.9591  -12.9223 H   0  0  0  0  0  0  0  0  0  0  0  0
    9.0580    6.3198  -11.1319 C   0  0  0  0  0  0  0  0  0  0  0  0
    8.7351    5.4540  -10.1257 N   0  0  0  0  0  0  0  0  0  0  0  0
    9.1408    5.5401   -8.8777 C   0  0  0  0  0  0  0  0  0  0  0  0
    9.9655    6.5816   -8.5137 C   0  0  0  0  0  0  0  0  0  0  0  0
   10.4207    6.7201   -7.2165 C   0  0  0  0  0  0  0  0  0  0  0  0
   11.2477    7.7661   -6.8568 C   0  0  0  0  0  0  0  0  0  0  0  0
   11.5938    8.6537   -7.8361 C   0  0  0  0  0  0  0  0  0  0  0  0
   11.1397    8.5192   -9.1376 C   0  0  0  0  0  0  0  0  0  0  0  0
   10.3112    7.4766   -9.5122 C   0  0  0  0  0  0  0  0  0  0  0  0
    9.8610    7.3294  -10.7679 N   0  0  0  0  0  0  0  0  0  0  0  0
   11.6759    7.8337   -5.4710 C   0  0  0  0  0  0  0  0  0  0  0  0
   12.4232    8.8870   -4.9900 C   0  0  0  0  0  0  0  0  0  0  0  0
   12.8322    8.9783   -3.6862 C   0  0  0  0  0  0  0  0  0  0  0  0
   12.4975    7.9935   -2.8015 C   0  0  0  0  0  0  0  0  0  0  0  0
   11.7435    6.9131   -3.2511 C   0  0  0  0  0  0  0  0  0  0  0  0
   11.3421    6.8469   -4.5809 C   0  0  0  0  0  0  0  0  0  0  0  0
  1  2  1  0
  2  3  1  0
  3  4  1  0
  4  5  2  0
  4  6  1  0
  6  7  1  6
  7  8  1  0
  8  9  2  0
  9 10  1  0
 10 11  2  0
 11 12  1  0
 12 13  2  0
 13 14  1  0
 14 15  2  0
 15 16  1  0
 16 17  2  0
 17 18  1  0
 18 19  1  0
 19 20  2  0
 20 21  1  0
 21 28  1  0
 28 30  1  0
 30 31  2  0
 31 32  1  0
 32 33  2  0
 33 34  1  0
 34 35  2  0
 35 40  1  0
 40 41  2  0
 41 42  1  0
 42 43  2  0
 43 44  1  0
 44 45  2  0
 35 36  1  0
 36 37  2  0
 37 38  1  0
 38 39  2  0
 21 22  2  0
 22 23  1  0
 23 24  2  0
  6 25  1  0
 25  2  2  0
 24  6  1  0
 17  8  1  0
 24 19  1  0
 15 10  1  0
 39 30  1  0
 38 33  1  0
 45 40  1  0
  1 26  1  0
  3 27  1  0
 28 29  1  0
M  END
>  <minimizedAffinity>  (381) 
-17.02059

$$$$
Mol: 136_43 - SminaDock
     RDKit          3D

 42 48  0  0  0  0  0  0  0  0999 V2000
    4.7432   -2.5043  -15.2833 H   0  0  0  0  0  0  0  0  0  0  0  0
    4.1823   -1.6628  -15.2182 O   0  0  0  0  0  0  0  0  0  0  0  0
    4.8435   -0.5125  -14.7629 C   0  0  0  0  0  0  0  0  0  0  0  0
    4.1273    0.4051  -14.0148 C   0  0  0  0  0  0  0  0  0  0  0  0
    4.7862    1.5318  -13.5742 C   0  0  0  0  0  0  0  0  0  0  0  0
    6.1289    1.7384  -13.8730 C   0  0  0  0  0  0  0  0  0  0  0  0
    6.8311    0.8222  -14.6121 C   0  0  0  0  0  0  0  0  0  0  0  0
    6.1652   -0.3339  -15.0694 C   0  0  0  0  0  0  0  0  0  0  0  0
    8.2621    0.9468  -14.8746 C   0  0  0  0  0  0  0  0  0  0  0  0
    8.7997    2.3114  -14.8344 C   0  0  1  0  0  0  0  0  0  0  0  0
   10.2873    2.3229  -14.5914 C   0  0  0  0  0  0  0  0  0  0  0  0
   10.9188    2.4822  -13.5261 O   0  0  0  0  0  0  0  0  0  0  0  0
   10.8723    2.1072  -15.8641 N   0  0  0  0  0  0  0  0  0  0  0  0
    9.8674    2.2833  -16.7997 N   0  0  0  0  0  0  0  0  0  0  0  0
    9.5503    1.4273  -17.2824 H   0  0  0  0  0  0  0  0  0  0  0  0
    8.7979    2.9216  -16.1860 N   0  0  2  0  0  0  0  0  0  0  0  0
    8.9799    3.9314  -16.0390 H   0  0  0  0  0  0  0  0  0  0  0  0
    7.9175    2.7090  -16.6878 H   0  0  0  0  0  0  0  0  0  0  0  0
    8.1179    3.1913  -13.8890 C   0  0  0  0  0  0  0  0  0  0  0  0
    8.8163    4.3328  -13.4552 C   0  0  0  0  0  0  0  0  0  0  0  0
    8.1829    5.2280  -12.6344 C   0  0  0  0  0  0  0  0  0  0  0  0
    6.8888    4.9880  -12.2589 C   0  0  0  0  0  0  0  0  0  0  0  0
    6.1767    3.8670  -12.6726 C   0  0  0  0  0  0  0  0  0  0  0  0
    6.8227    2.9739  -13.4954 C   0  0  0  0  0  0  0  0  0  0  0  0
    8.8514    6.3850  -12.1790 N   0  0  0  0  0  0  0  0  0  0  0  0
    9.2406    6.4464  -10.9681 C   0  0  0  0  0  0  0  0  0  0  0  0
    9.0279    5.4309  -10.1128 N   0  0  0  0  0  0  0  0  0  0  0  0
    9.4419    5.5010   -8.8324 C   0  0  0  0  0  0  0  0  0  0  0  0
   10.0994    6.6086   -8.3378 C   0  0  0  0  0  0  0  0  0  0  0  0
   10.5368    6.7139   -7.0335 C   0  0  0  0  0  0  0  0  0  0  0  0
   11.1924    7.8217   -6.5463 C   0  0  0  0  0  0  0  0  0  0  0  0
   11.4031    8.8634   -7.4489 C   0  0  0  0  0  0  0  0  0  0  0  0
   10.9672    8.7612   -8.7531 C   0  0  0  0  0  0  0  0  0  0  0  0
   10.3139    7.6472   -9.2230 C   0  0  0  0  0  0  0  0  0  0  0  0
    9.8846    7.5408  -10.4986 N   0  0  0  0  0  0  0  0  0  0  0  0
   10.0776    8.3609  -11.1183 H   0  0  0  0  0  0  0  0  0  0  0  0
   11.6472    7.9158   -5.1666 C   0  0  0  0  0  0  0  0  0  0  0  0
   11.4125    6.8626   -4.2850 C   0  0  0  0  0  0  0  0  0  0  0  0
   11.8253    6.9090   -2.9697 C   0  0  0  0  0  0  0  0  0  0  0  0
   12.4901    8.0170   -2.4915 C   0  0  0  0  0  0  0  0  0  0  0  0
   12.7274    9.0647   -3.3561 C   0  0  0  0  0  0  0  0  0  0  0  0
   12.3118    9.0092   -4.6660 C   0  0  0  0  0  0  0  0  0  0  0  0
  1  2  1  0
  2  3  1  0
  3  4  2  0
  4  5  1  0
  5  6  2  0
  6  7  1  0
  7  8  2  0
  7  9  1  0
 10  9  1  6
 10 11  1  0
 11 12  2  0
 11 13  1  0
 13 14  1  0
 14 15  1  0
 14 16  1  0
 16 17  1  1
 16 18  1  0
 10 19  1  0
 19 20  2  0
 20 21  1  0
 21 25  1  0
 25 26  2  0
 26 27  1  0
 27 28  2  0
 28 29  1  0
 29 30  2  0
 30 31  1  0
 31 37  1  0
 37 38  2  0
 38 39  1  0
 39 40  2  0
 40 41  1  0
 41 42  2  0
 31 32  2  0
 32 33  1  0
 33 34  2  0
 34 35  1  0
 35 36  1  0
 21 22  2  0
 22 23  1  0
 23 24  2  0
  8  3  1  0
 16 10  1  0
 24 19  1  0
 24  6  1  0
 35 26  1  0
 34 29  1  0
 42 37  1  0
M  CHG  2  13  -1  16   1
M  END
>  <minimizedAffinity>  (382) 
-16.96406

$$$$
Mol: 143_60 - SminaDock
     RDKit          3D

 44 51  0  0  0  0  0  0  0  0999 V2000
    9.9216    3.6002  -17.9109 O   0  0  0  0  0  0  0  0  0  0  0  0
    9.8104    3.3037  -16.6678 C   0  0  0  0  0  0  0  0  0  0  0  0
   10.8593    2.9788  -15.7972 N   0  0  0  0  0  0  0  0  0  0  0  0
   10.4386    2.7283  -14.6162 C   0  0  0  0  0  0  0  0  0  0  0  0
   11.2607    2.3792  -13.5566 O   0  0  0  0  0  0  0  0  0  0  0  0
    8.9502    2.8686  -14.5666 C   0  0  1  0  0  0  0  0  0  0  0  0
    8.2909    1.5844  -14.2251 C   0  0  0  0  0  0  0  0  0  0  0  0
    6.8905    1.6878  -13.9534 C   0  0  0  0  0  0  0  0  0  0  0  0
    6.4029    2.8131  -13.2827 C   0  0  0  0  0  0  0  0  0  0  0  0
    5.0916    2.9026  -12.8874 C   0  0  0  0  0  0  0  0  0  0  0  0
    4.2412    1.8422  -13.1719 C   0  0  0  0  0  0  0  0  0  0  0  0
    4.6903    0.7259  -13.8327 C   0  0  0  0  0  0  0  0  0  0  0  0
    6.0139    0.6553  -14.2208 C   0  0  0  0  0  0  0  0  0  0  0  0
    6.4186   -0.5346  -14.9165 C   0  0  0  0  0  0  0  0  0  0  0  0
    5.4392   -0.8161  -16.0745 C   0  0  0  0  0  0  0  0  0  0  0  0
    4.0154   -0.6291  -15.6808 C   0  0  0  0  0  0  0  0  0  0  0  0
    3.8442   -0.4467  -14.1717 C   0  0  0  0  0  0  0  0  0  0  0  0
    7.2987    3.9741  -13.1117 C   0  0  0  0  0  0  0  0  0  0  0  0
    6.9030    5.0589  -12.3138 C   0  0  0  0  0  0  0  0  0  0  0  0
    7.7960    6.0743  -12.0489 C   0  0  0  0  0  0  0  0  0  0  0  0
    9.0800    6.0790  -12.5360 C   0  0  0  0  0  0  0  0  0  0  0  0
    9.4268    4.9800  -13.3275 C   0  0  0  0  0  0  0  0  0  0  0  0
    8.5689    3.9418  -13.6224 C   0  0  0  0  0  0  0  0  0  0  0  0
    8.6139    3.2445  -15.9326 N   0  0  0  0  0  0  0  0  0  0  0  0
   12.2164    2.7399  -13.5455 H   0  0  0  0  0  0  0  0  0  0  0  0
    7.6772    3.4462  -16.3561 H   0  0  0  0  0  0  0  0  0  0  0  0
   10.0226    7.0974  -12.2628 N   0  0  0  0  0  0  0  0  0  0  0  0
   10.3455    7.7036  -13.0397 H   0  0  0  0  0  0  0  0  0  0  0  0
   10.5217    7.2937  -10.9656 C   0  0  0  0  0  0  0  0  0  0  0  0
   11.6890    7.9433  -10.7421 N   0  0  0  0  0  0  0  0  0  0  0  0
   12.1259    8.1516   -9.4872 C   0  0  0  0  0  0  0  0  0  0  0  0
   11.4187    7.7216   -8.3841 C   0  0  0  0  0  0  0  0  0  0  0  0
   11.8507    7.9402   -7.0966 C   0  0  0  0  0  0  0  0  0  0  0  0
   11.1468    7.5271   -5.9879 C   0  0  0  0  0  0  0  0  0  0  0  0
    9.9449    6.8584   -6.2271 C   0  0  0  0  0  0  0  0  0  0  0  0
    9.5095    6.6373   -7.5197 C   0  0  0  0  0  0  0  0  0  0  0  0
   10.2306    7.0609   -8.6170 C   0  0  0  0  0  0  0  0  0  0  0  0
    9.8106    6.8618   -9.8995 N   0  0  0  0  0  0  0  0  0  0  0  0
   11.5850    7.7630   -4.6244 C   0  0  0  0  0  0  0  0  0  0  0  0
   11.8517    9.0400   -4.1132 C   0  0  0  0  0  0  0  0  0  0  0  0
   12.2642    9.2797   -2.8442 C   0  0  0  0  0  0  0  0  0  0  0  0
   12.4353    8.1895   -1.9886 C   0  0  0  0  0  0  0  0  0  0  0  0
   12.1853    6.9152   -2.4431 C   0  0  0  0  0  0  0  0  0  0  0  0
   11.7624    6.7140   -3.7575 C   0  0  0  0  0  0  0  0  0  0  0  0
  1  2  2  0
  2  3  1  0
  3  4  2  0
  4  5  1  0
  4  6  1  0
  6  7  1  1
  7  8  1  0
  8  9  2  0
  9 10  1  0
 10 11  2  0
 11 12  1  0
 12 13  2  0
 13 14  1  0
 14 15  1  0
 15 16  1  0
 16 17  1  0
  9 18  1  0
 18 19  2  0
 19 20  1  0
 20 21  2  0
 21 27  1  0
 27 29  1  0
 29 30  2  0
 30 31  1  0
 31 32  2  0
 32 33  1  0
 33 34  2  0
 34 39  1  0
 39 40  2  0
 40 41  1  0
 41 42  2  0
 42 43  1  0
 43 44  2  0
 34 35  1  0
 35 36  2  0
 36 37  1  0
 37 38  2  0
 21 22  1  0
 22 23  2  0
  6 24  1  0
 24  2  1  0
 23  6  1  0
 13  8  1  0
 23 18  1  0
 17 12  1  0
 38 29  1  0
 37 32  1  0
 44 39  1  0
  5 25  1  0
 27 28  1  0
 24 26  1  0
M  END
>  <minimizedAffinity>  (383) 
-16.95012

$$$$
Mol: 173_62 - SminaDock
     RDKit          3D

 42 48  0  0  0  0  0  0  0  0999 V2000
    3.8579   -0.4738  -13.2959 H   0  0  0  0  0  0  0  0  0  0  0  0
    4.6416   -0.4799  -13.9427 O   0  0  0  0  0  0  0  0  0  0  0  0
    5.6925    0.4088  -13.8385 C   0  0  0  0  0  0  0  0  0  0  0  0
    5.3819    1.6494  -13.4256 C   0  0  0  0  0  0  0  0  0  0  0  0
    6.2714    2.7654  -13.1892 C   0  0  0  0  0  0  0  0  0  0  0  0
    5.7525    3.7177  -12.3451 C   0  0  0  0  0  0  0  0  0  0  0  0
    6.5151    4.8052  -11.9759 C   0  0  0  0  0  0  0  0  0  0  0  0
    7.7905    4.9162  -12.4619 C   0  0  0  0  0  0  0  0  0  0  0  0
    8.3563    3.9686  -13.3236 C   0  0  0  0  0  0  0  0  0  0  0  0
    7.5793    2.9048  -13.6762 C   0  0  0  0  0  0  0  0  0  0  0  0
    8.2912    2.0246  -14.6068 C   0  0  0  0  0  0  0  0  0  0  0  0
    8.0354    0.6641  -14.7682 C   0  0  0  0  0  0  0  0  0  0  0  0
    8.8033   -0.0586  -15.6329 C   0  0  0  0  0  0  0  0  0  0  0  0
    9.8154    0.5438  -16.3409 C   0  0  0  0  0  0  0  0  0  0  0  0
   10.5782   -0.2056  -17.2079 C   0  0  0  0  0  0  0  0  0  0  0  0
   11.5930    0.3576  -17.9289 N   0  0  0  0  0  0  0  0  0  0  0  0
   12.1802   -0.1850  -18.5860 H   0  0  0  0  0  0  0  0  0  0  0  0
   11.8289    1.6677  -17.7703 C   0  0  0  0  0  0  0  0  0  0  0  0
   12.7568    2.1914  -18.4278 O   0  0  0  0  0  0  0  0  0  0  0  0
   11.0819    2.4503  -16.9081 C   0  0  0  0  0  0  0  0  0  0  0  0
   10.0465    1.9093  -16.1626 C   0  0  0  0  0  0  0  0  0  0  0  0
    9.2832    2.6592  -15.2934 C   0  0  0  0  0  0  0  0  0  0  0  0
    6.9857   -0.0997  -14.1856 N   0  0  0  0  0  0  0  0  0  0  0  0
    7.1675   -1.0928  -14.0177 H   0  0  0  0  0  0  0  0  0  0  0  0
    8.6179    6.0045  -12.1197 N   0  0  0  0  0  0  0  0  0  0  0  0
    9.0191    6.1271  -10.9028 C   0  0  0  0  0  0  0  0  0  0  0  0
    8.6949    5.2731   -9.9253 N   0  0  0  0  0  0  0  0  0  0  0  0
    9.1190    5.4080   -8.6560 C   0  0  0  0  0  0  0  0  0  0  0  0
    9.9281    6.5018   -8.4057 C   0  0  0  0  0  0  0  0  0  0  0  0
   10.3740    6.6545   -7.1120 C   0  0  0  0  0  0  0  0  0  0  0  0
   11.1908    7.7207   -6.7768 C   0  0  0  0  0  0  0  0  0  0  0  0
   11.5389    8.6134   -7.7650 C   0  0  0  0  0  0  0  0  0  0  0  0
   11.0843    8.4562   -9.0782 C   0  0  0  0  0  0  0  0  0  0  0  0
   10.2681    7.3934   -9.4226 C   0  0  0  0  0  0  0  0  0  0  0  0
    9.8129    7.2020  -10.6629 N   0  0  0  0  0  0  0  0  0  0  0  0
   10.0883    7.8884  -11.3893 H   0  0  0  0  0  0  0  0  0  0  0  0
   11.6483    7.8617   -5.3982 C   0  0  0  0  0  0  0  0  0  0  0  0
   11.3519    6.8867   -4.4853 C   0  0  0  0  0  0  0  0  0  0  0  0
   11.7917    7.0062   -3.1623 C   0  0  0  0  0  0  0  0  0  0  0  0
   12.5182    8.1036   -2.7907 C   0  0  0  0  0  0  0  0  0  0  0  0
   12.8001    9.0603   -3.7166 C   0  0  0  0  0  0  0  0  0  0  0  0
   12.3780    8.9677   -5.0314 C   0  0  0  0  0  0  0  0  0  0  0  0
  1  2  1  0
  2  3  1  0
  3  4  2  0
  4  5  1  0
  5  6  2  0
  6  7  1  0
  7  8  2  0
  8 25  1  0
 25 26  2  0
 26 27  1  0
 27 28  2  0
 28 29  1  0
 29 30  2  0
 30 31  1  0
 31 37  1  0
 37 38  2  0
 38 39  1  0
 39 40  2  0
 40 41  1  0
 41 42  2  0
 31 32  2  0
 32 33  1  0
 33 34  2  0
 34 35  1  0
 35 36  1  0
  8  9  1  0
  9 10  2  0
 10 11  1  0
 11 12  1  0
 12 13  2  0
 13 14  1  0
 14 15  2  0
 15 16  1  0
 16 17  1  0
 16 18  1  0
 18 19  2  0
 18 20  1  0
 20 21  2  0
 21 22  1  0
 12 23  1  0
 23 24  1  0
 23  3  1  0
 10  5  1  0
 22 11  2  0
 35 26  1  0
 21 14  1  0
 34 29  1  0
 42 37  1  0
M  END
>  <minimizedAffinity>  (384) 
-16.97516

$$$$
Mol: 174_23 - SminaDock
     RDKit          3D

 40 46  0  0  0  0  0  0  0  0999 V2000
    7.8978    5.0944  -12.5930 C   0  0  0  0  0  0  0  0  0  0  0  0
    6.7299    4.7935  -11.9199 C   0  0  0  0  0  0  0  0  0  0  0  0
    5.9489    3.7127  -12.2550 C   0  0  0  0  0  0  0  0  0  0  0  0
    6.3635    2.9130  -13.3032 C   0  0  0  0  0  0  0  0  0  0  0  0
    7.5199    3.1688  -14.0073 C   0  0  0  0  0  0  0  0  0  0  0  0
    8.2746    4.2619  -13.6400 C   0  0  0  0  0  0  0  0  0  0  0  0
    7.6992    2.1624  -15.0503 C   0  0  0  0  0  0  0  0  0  0  0  0
    8.6675    2.1913  -15.8053 O   0  0  0  0  0  0  0  0  0  0  0  0
    6.5751    1.2517  -14.9569 C   0  0  0  0  0  0  0  0  0  0  0  0
    5.7843    1.7160  -13.9049 C   0  0  0  0  0  0  0  0  0  0  0  0
    4.6403    1.0036  -13.6185 C   0  0  0  0  0  0  0  0  0  0  0  0
    4.3011   -0.1126  -14.3415 C   0  0  0  0  0  0  0  0  0  0  0  0
    5.0718   -0.5805  -15.3806 C   0  0  0  0  0  0  0  0  0  0  0  0
    6.2398    0.1370  -15.6816 C   0  0  0  0  0  0  0  0  0  0  0  0
    7.0152   -0.3139  -16.7095 C   0  0  0  0  0  0  0  0  0  0  0  0
    8.0428    0.2369  -17.0462 O   0  0  0  0  0  0  0  0  0  0  0  0
    6.6086   -1.4242  -17.3729 N   0  0  0  0  0  0  0  0  0  0  0  0
    7.1989   -1.7620  -18.1504 H   0  0  0  0  0  0  0  0  0  0  0  0
    5.4955   -2.1087  -17.0865 C   0  0  0  0  0  0  0  0  0  0  0  0
    5.1774   -3.1415  -17.7522 O   0  0  0  0  0  0  0  0  0  0  0  0
    4.7154   -1.6836  -16.0780 N   0  0  0  0  0  0  0  0  0  0  0  0
    3.8302   -2.1967  -15.8224 H   0  0  0  0  0  0  0  0  0  0  0  0
   11.1747    7.7493   -6.6831 C   0  0  0  0  0  0  0  0  0  0  0  0
   11.4689    8.7188   -7.5995 C   0  0  0  0  0  0  0  0  0  0  0  0
   11.0138    8.5975   -8.9100 C   0  0  0  0  0  0  0  0  0  0  0  0
   10.2644    7.5120   -9.3151 C   0  0  0  0  0  0  0  0  0  0  0  0
    9.9664    6.5322   -8.3912 C   0  0  0  0  0  0  0  0  0  0  0  0
    9.2136    5.4483   -8.8108 C   0  0  0  0  0  0  0  0  0  0  0  0
    8.8013    5.3877  -10.0952 N   0  0  0  0  0  0  0  0  0  0  0  0
    9.0909    6.3387  -10.9909 C   0  0  0  0  0  0  0  0  0  0  0  0
    8.6678    6.2243  -12.2055 N   0  0  0  0  0  0  0  0  0  0  0  0
    9.8190    7.3824  -10.5758 N   0  0  0  0  0  0  0  0  0  0  0  0
   10.0571    8.1411  -11.2668 H   0  0  0  0  0  0  0  0  0  0  0  0
   10.4215    6.6608   -7.0952 C   0  0  0  0  0  0  0  0  0  0  0  0
   12.5304    8.0615   -2.6579 C   0  0  0  0  0  0  0  0  0  0  0  0
   11.8480    6.9292   -3.0626 C   0  0  0  0  0  0  0  0  0  0  0  0
   11.4150    6.8400   -4.3656 C   0  0  0  0  0  0  0  0  0  0  0  0
   11.6254    7.8265   -5.3008 C   0  0  0  0  0  0  0  0  0  0  0  0
   12.3165    8.9501   -4.8528 C   0  0  0  0  0  0  0  0  0  0  0  0
   12.7660    9.0770   -3.5571 C   0  0  0  0  0  0  0  0  0  0  0  0
 35 36  2  0
 36 37  1  0
 37 38  2  0
 38 23  1  0
 23 24  2  0
 24 25  1  0
 25 26  2  0
 26 27  1  0
 27 28  1  0
 28 29  2  0
 29 30  1  0
 30 31  2  0
 31  1  1  0
  1  2  2  0
  2  3  1  0
  3  4  2  0
  4  5  1  0
  5  6  2  0
  5  7  1  0
  7  8  2  0
  7  9  1  0
  9 10  2  0
 10 11  1  0
 11 12  2  0
 12 13  1  0
 13 14  2  0
 14 15  1  0
 15 16  2  0
 15 17  1  0
 17 18  1  0
 17 19  1  0
 19 20  2  0
 19 21  1  0
 21 22  1  0
 30 32  1  0
 32 33  1  0
 27 34  2  0
 38 39  1  0
 39 40  2  0
 40 35  1  0
 34 23  1  0
 32 26  1  0
  6  1  1  0
 14  9  1  0
 10  4  1  0
 21 13  1  0
M  END
>  <minimizedAffinity>  (385) 
-16.98645

$$$$
Mol: 166_0 - SminaDock
     RDKit          3D

 39 45  0  0  0  0  0  0  0  0999 V2000
    2.5787   -0.0521  -14.1221 H   0  0  0  0  0  0  0  0  0  0  0  0
    3.5051    0.2583  -13.8835 O   0  0  0  0  0  0  0  0  0  0  0  0
    4.6488   -0.0985  -14.5878 C   0  0  0  0  0  0  0  0  0  0  0  0
    4.8213   -1.1556  -15.3695 O   0  0  0  0  0  0  0  0  0  0  0  0
    6.0248   -1.1674  -15.8657 N   0  0  0  0  0  0  0  0  0  0  0  0
    6.7252   -0.0952  -15.4281 C   0  0  0  0  0  0  0  0  0  0  0  0
    8.0092    0.3755  -15.6325 C   0  0  0  0  0  0  0  0  0  0  0  0
    8.7713   -0.2805  -16.3833 O   0  0  0  0  0  0  0  0  0  0  0  0
    8.3467    1.5099  -15.0059 N   0  0  0  0  0  0  0  0  0  0  0  0
    7.5063    2.2089  -14.1944 C   0  0  0  0  0  0  0  0  0  0  0  0
    6.2386    1.7598  -13.9822 C   0  0  0  0  0  0  0  0  0  0  0  0
    5.8435    0.5799  -14.6158 C   0  0  0  0  0  0  0  0  0  0  0  0
    5.2837    2.4681  -13.1182 C   0  0  0  0  0  0  0  0  0  0  0  0
    5.8053    3.6981  -12.5008 C   0  0  0  0  0  0  0  0  0  0  0  0
    5.0744    4.4091  -11.7241 O   0  0  0  0  0  0  0  0  0  0  0  0
    7.1605    4.1830  -12.7247 C   0  0  0  0  0  0  0  0  0  0  0  0
    7.5985    5.3562  -12.1126 C   0  0  0  0  0  0  0  0  0  0  0  0
    8.8824    5.8228  -12.3199 C   0  0  0  0  0  0  0  0  0  0  0  0
    9.6905    5.0706  -13.1547 C   0  0  0  0  0  0  0  0  0  0  0  0
    9.2551    3.9035  -13.7636 C   0  0  0  0  0  0  0  0  0  0  0  0
    7.9771    3.4488  -13.5507 C   0  0  0  0  0  0  0  0  0  0  0  0
    9.3514    7.0207  -11.7035 N   0  0  0  0  0  0  0  0  0  0  0  0
    9.6925    6.9939  -10.4838 C   0  0  0  0  0  0  0  0  0  0  0  0
    9.6164    5.8570   -9.7733 N   0  0  0  0  0  0  0  0  0  0  0  0
    9.9826    5.8444   -8.4808 C   0  0  0  0  0  0  0  0  0  0  0  0
   10.4449    6.9665   -7.8273 C   0  0  0  0  0  0  0  0  0  0  0  0
   10.8245    6.9783   -6.5090 C   0  0  0  0  0  0  0  0  0  0  0  0
   11.2856    8.1079   -5.8660 C   0  0  0  0  0  0  0  0  0  0  0  0
   11.3615    9.2725   -6.6006 C   0  0  0  0  0  0  0  0  0  0  0  0
   10.9788    9.2753   -7.9425 C   0  0  0  0  0  0  0  0  0  0  0  0
   10.5180    8.1298   -8.5707 C   0  0  0  0  0  0  0  0  0  0  0  0
   10.1458    8.1042   -9.8516 N   0  0  0  0  0  0  0  0  0  0  0  0
   10.2105    9.0028  -10.3964 H   0  0  0  0  0  0  0  0  0  0  0  0
   11.6877    8.1094   -4.4625 C   0  0  0  0  0  0  0  0  0  0  0  0
   12.0489    9.2581   -3.7904 C   0  0  0  0  0  0  0  0  0  0  0  0
   12.4270    9.2284   -2.4535 C   0  0  0  0  0  0  0  0  0  0  0  0
   12.4550    8.0480   -1.7491 C   0  0  0  0  0  0  0  0  0  0  0  0
   12.0949    6.8895   -2.4123 C   0  0  0  0  0  0  0  0  0  0  0  0
   11.7178    6.9268   -3.7494 C   0  0  0  0  0  0  0  0  0  0  0  0
  1  2  1  0
  2  3  1  0
  3  4  1  0
  4  5  1  0
  5  6  2  0
  6  7  1  0
  7  8  2  0
  7  9  1  0
  9 10  1  0
 10 11  2  0
 11 12  1  0
 11 13  1  0
 13 14  1  0
 14 15  2  0
 14 16  1  0
 16 17  2  0
 17 18  1  0
 18 22  1  0
 22 23  2  0
 23 24  1  0
 24 25  2  0
 25 26  1  0
 26 27  2  0
 27 28  1  0
 28 34  1  0
 34 35  2  0
 35 36  1  0
 36 37  2  0
 37 38  1  0
 38 39  2  0
 28 29  2  0
 29 30  1  0
 30 31  2  0
 31 32  1  0
 32 33  1  0
 18 19  2  0
 19 20  1  0
 20 21  2  0
 12  3  2  0
 21 16  1  0
 12  6  1  0
 32 23  1  0
 21 10  1  0
 31 26  1  0
 39 34  1  0
M  CHG  1   9  -1
M  END
>  <minimizedAffinity>  (386) 
-17.01570

$$$$
Mol: 196_52 - SminaDock
     RDKit          3D

 42 49  0  0  0  0  0  0  0  0999 V2000
    8.4251    5.6039  -12.5907 C   0  0  0  0  0  0  0  0  0  0  0  0
    7.1508    5.2730  -12.1657 C   0  0  0  0  0  0  0  0  0  0  0  0
    6.5374    4.1639  -12.7057 C   0  0  0  0  0  0  0  0  0  0  0  0
    7.1916    3.3841  -13.6684 C   0  0  0  0  0  0  0  0  0  0  0  0
    8.4560    3.7052  -14.0958 C   0  0  0  0  0  0  0  0  0  0  0  0
    9.0640    4.8309  -13.5399 C   0  0  0  0  0  0  0  0  0  0  0  0
    8.8664    2.7158  -15.0925 C   0  0  2  0  0  0  0  0  0  0  0  0
   10.1607    2.0821  -14.7960 C   0  0  0  0  0  0  0  0  0  0  0  0
   10.3356    0.9828  -14.2356 O   0  0  0  0  0  0  0  0  0  0  0  0
   11.1417    2.9852  -15.2814 N   0  0  0  0  0  0  0  0  0  0  0  0
   10.5217    3.8394  -16.2611 C   0  0  0  0  0  0  0  0  0  0  0  0
   11.1028    4.7725  -16.9074 O   0  0  0  0  0  0  0  0  0  0  0  0
    9.1707    3.4170  -16.3348 N   0  0  0  0  0  0  0  0  0  0  0  0
    8.5301    3.5932  -17.1525 H   0  0  0  0  0  0  0  0  0  0  0  0
    7.7633    1.7710  -15.2371 C   0  0  0  0  0  0  0  0  0  0  0  0
    6.7658    2.1815  -14.3807 C   0  0  0  0  0  0  0  0  0  0  0  0
    5.5761    1.4658  -14.3005 C   0  0  0  0  0  0  0  0  0  0  0  0
    5.3541    0.3374  -15.0626 C   0  0  0  0  0  0  0  0  0  0  0  0
    4.3677   -0.5152  -15.1986 O   0  0  0  0  0  0  0  0  0  0  0  0
    4.6261   -1.4393  -16.0590 N   0  0  0  0  0  0  0  0  0  0  0  0
    5.8557   -1.2015  -16.5338 C   0  0  0  0  0  0  0  0  0  0  0  0
    6.5310   -1.9482  -17.4798 O   0  0  0  0  0  0  0  0  0  0  0  0
    6.3378   -0.0729  -15.9113 C   0  0  0  0  0  0  0  0  0  0  0  0
    7.5202    0.6412  -15.9889 C   0  0  0  0  0  0  0  0  0  0  0  0
   11.2802    7.8667   -6.2887 C   0  0  0  0  0  0  0  0  0  0  0  0
   11.5983    8.9018   -7.1432 C   0  0  0  0  0  0  0  0  0  0  0  0
   11.2323    8.8742   -8.4742 C   0  0  0  0  0  0  0  0  0  0  0  0
   10.5326    7.8140   -9.0152 C   0  0  0  0  0  0  0  0  0  0  0  0
   10.2115    6.7755   -8.1650 C   0  0  0  0  0  0  0  0  0  0  0  0
    9.5110    5.7214   -8.7191 C   0  0  0  0  0  0  0  0  0  0  0  0
    9.1689    5.7257  -10.0221 N   0  0  0  0  0  0  0  0  0  0  0  0
    9.4829    6.7392  -10.8494 C   0  0  0  0  0  0  0  0  0  0  0  0
    9.1449    6.7244  -12.0969 N   0  0  0  0  0  0  0  0  0  0  0  0
   10.1682    7.7718  -10.3103 N   0  0  0  0  0  0  0  0  0  0  0  0
   10.4116    8.5572  -10.9515 H   0  0  0  0  0  0  0  0  0  0  0  0
   10.5796    6.8076   -6.8353 C   0  0  0  0  0  0  0  0  0  0  0  0
   12.3593    7.8579   -2.1884 C   0  0  0  0  0  0  0  0  0  0  0  0
   11.6637    6.7926   -2.7249 C   0  0  0  0  0  0  0  0  0  0  0  0
   11.3411    6.8467   -4.0507 C   0  0  0  0  0  0  0  0  0  0  0  0
   11.6754    7.9122   -4.8808 C   0  0  0  0  0  0  0  0  0  0  0  0
   12.3638    8.9532   -4.3241 C   0  0  0  0  0  0  0  0  0  0  0  0
   12.7092    8.9335   -2.9791 C   0  0  0  0  0  0  0  0  0  0  0  0
 37 38  2  0
 38 39  1  0
 39 40  2  0
 40 25  1  0
 25 26  2  0
 26 27  1  0
 27 28  2  0
 28 29  1  0
 29 30  1  0
 30 31  2  0
 31 32  1  0
 32 33  2  0
 33  1  1  0
  1  2  2  0
  2  3  1  0
  3  4  2  0
  4  5  1  0
  5  6  2  0
  5  7  1  0
  7  8  1  0
  8  9  2  0
  8 10  1  0
 10 11  1  0
 11 12  2  0
 11 13  1  0
 13 14  1  0
  7 15  1  0
 15 16  2  0
 16 17  1  0
 17 18  2  0
 18 19  1  0
 19 20  1  0
 20 21  2  0
 21 22  1  0
 21 23  1  0
 23 24  2  0
 32 34  1  0
 34 35  1  0
 29 36  2  0
 40 41  1  0
 41 42  2  0
 42 37  1  0
 36 25  1  0
 34 28  1  0
  6  1  1  0
  7 13  1  6
 24 15  1  0
 16  4  1  0
 23 18  1  0
M  CHG  2  10  -1  22  -1
M  END
>  <minimizedAffinity>  (387) 
-17.01471

$$$$
Mol: 196_63 - SminaDock
     RDKit          3D

 41 48  0  0  0  0  0  0  0  0999 V2000
    7.7661    4.6685  -12.9916 C   0  0  0  0  0  0  0  0  0  0  0  0
    6.5260    4.2699  -12.5655 C   0  0  0  0  0  0  0  0  0  0  0  0
    5.8647    3.1518  -13.0882 C   0  0  0  0  0  0  0  0  0  0  0  0
    6.4684    2.4043  -14.0716 C   0  0  0  0  0  0  0  0  0  0  0  0
    7.7465    2.7956  -14.5324 C   0  0  0  0  0  0  0  0  0  0  0  0
    8.3491    3.9094  -13.9776 C   0  0  0  0  0  0  0  0  0  0  0  0
    8.4963    2.1419  -15.5908 C   0  0  2  0  0  0  0  0  0  0  0  0
    7.6065    1.8471  -16.7608 C   0  0  0  0  0  0  0  0  0  0  0  0
    7.8472    2.4500  -17.8587 O   0  0  0  0  0  0  0  0  0  0  0  0
    6.4725    0.9283  -16.7920 C   0  0  0  0  0  0  0  0  0  0  0  0
    6.0933    0.1137  -17.7858 N   0  0  0  0  0  0  0  0  0  0  0  0
    5.0414   -0.6150  -17.3508 N   0  0  0  0  0  0  0  0  0  0  0  0
    4.7327   -0.2823  -16.0877 C   0  0  0  0  0  0  0  0  0  0  0  0
    3.8316   -0.6508  -15.1112 C   0  0  0  0  0  0  0  0  0  0  0  0
    3.8389   -0.0573  -13.8337 C   0  0  0  0  0  0  0  0  0  0  0  0
    4.7390    0.9267  -13.4769 C   0  0  0  0  0  0  0  0  0  0  0  0
    5.6219    1.2837  -14.4544 C   0  0  0  0  0  0  0  0  0  0  0  0
    5.6285    0.6973  -15.7217 C   0  0  0  0  0  0  0  0  0  0  0  0
    8.9334    0.7911  -15.0401 C   0  0  0  0  0  0  0  0  0  0  0  0
   10.0834    0.2744  -15.8698 C   0  0  0  0  0  0  0  0  0  0  0  0
   11.2590    0.9506  -15.5636 O   0  0  0  0  0  0  0  0  0  0  0  0
   10.9244    2.2729  -15.1832 C   0  0  0  0  0  0  0  0  0  0  0  0
    9.7711    2.7731  -16.0235 C   0  0  0  0  0  0  0  0  0  0  0  0
   10.9804    7.6129   -7.0527 C   0  0  0  0  0  0  0  0  0  0  0  0
   11.1010    8.6148   -8.0179 C   0  0  0  0  0  0  0  0  0  0  0  0
   10.5984    8.4074   -9.2855 C   0  0  0  0  0  0  0  0  0  0  0  0
    9.9704    7.2420   -9.6609 C   0  0  0  0  0  0  0  0  0  0  0  0
    9.8504    6.2493   -8.7061 C   0  0  0  0  0  0  0  0  0  0  0  0
   10.3512    6.4421   -7.4248 C   0  0  0  0  0  0  0  0  0  0  0  0
    9.2256    5.0775   -9.0618 C   0  0  0  0  0  0  0  0  0  0  0  0
    8.7334    4.9240  -10.3677 C   0  0  0  0  0  0  0  0  0  0  0  0
    8.8713    5.9321  -11.2874 C   0  0  0  0  0  0  0  0  0  0  0  0
    8.4369    5.8082  -12.4539 N   0  0  0  0  0  0  0  0  0  0  0  0
    9.4847    7.0579  -10.9059 N   0  0  0  0  0  0  0  0  0  0  0  0
    9.6171    7.8592  -11.5676 H   0  0  0  0  0  0  0  0  0  0  0  0
   12.5229    8.2211   -3.1120 C   0  0  0  0  0  0  0  0  0  0  0  0
   12.6909    9.1820   -4.0943 C   0  0  0  0  0  0  0  0  0  0  0  0
   12.1882    8.9836   -5.3775 C   0  0  0  0  0  0  0  0  0  0  0  0
   11.5103    7.8332   -5.7150 C   0  0  0  0  0  0  0  0  0  0  0  0
   11.3505    6.8794   -4.7183 C   0  0  0  0  0  0  0  0  0  0  0  0
   11.8438    7.0650   -3.4447 C   0  0  0  0  0  0  0  0  0  0  0  0
 36 37  2  0
 37 38  1  0
 38 39  2  0
 39 24  1  0
 24 25  2  0
 25 26  1  0
 26 27  2  0
 27 28  1  0
 28 29  2  0
 28 30  1  0
 30 31  2  0
 31 32  1  0
 32 33  2  0
 33  1  1  0
  1  2  2  0
  2  3  1  0
  3  4  2  0
  4  5  1  0
  5  6  2  0
  5  7  1  0
  7  8  1  0
  8  9  2  0
  8 10  1  0
 10 11  1  0
 11 12  1  0
 12 13  2  0
 13 14  1  0
 14 15  2  0
 15 16  1  0
 16 17  2  0
 17 18  1  0
  7 19  1  1
 19 20  1  0
 20 21  1  0
 21 22  1  0
 22 23  1  0
 32 34  1  0
 34 35  1  0
 39 40  1  0
 40 41  2  0
 41 36  1  0
 29 24  1  0
  6  1  1  0
 23  7  1  0
 34 27  1  0
 17  4  1  0
 18 10  2  0
 18 13  1  0
M  CHG  1  11  -1
M  END
>  <minimizedAffinity>  (388) 
-17.03407

$$$$
Mol: 196_20 - SminaDock
     RDKit          3D

 43 50  0  0  0  0  0  0  0  0999 V2000
    8.8295    6.0435  -12.1526 C   0  0  0  0  0  0  0  0  0  0  0  0
    7.5668    5.7509  -11.6831 C   0  0  0  0  0  0  0  0  0  0  0  0
    6.8443    4.6930  -12.1968 C   0  0  0  0  0  0  0  0  0  0  0  0
    7.4379    3.9296  -13.2088 C   0  0  0  0  0  0  0  0  0  0  0  0
    8.6845    4.2081  -13.6817 C   0  0  0  0  0  0  0  0  0  0  0  0
    9.3973    5.2925  -13.1389 C   0  0  0  0  0  0  0  0  0  0  0  0
    9.0298    3.2355  -14.7427 C   0  0  1  0  0  0  0  0  0  0  0  0
    7.8603    2.3460  -14.8275 C   0  0  0  0  0  0  0  0  0  0  0  0
    6.9130    2.7548  -13.9290 C   0  0  0  0  0  0  0  0  0  0  0  0
    5.6805    2.1093  -13.7731 C   0  0  0  0  0  0  0  0  0  0  0  0
    5.3943    1.0122  -14.5513 C   0  0  0  0  0  0  0  0  0  0  0  0
    6.3577    0.6011  -15.4604 C   0  0  0  0  0  0  0  0  0  0  0  0
    7.5554    1.2377  -15.6041 C   0  0  0  0  0  0  0  0  0  0  0  0
    6.0321   -0.5194  -16.2359 C   0  0  0  0  0  0  0  0  0  0  0  0
    6.8931   -0.9017  -17.0612 O   0  0  0  0  0  0  0  0  0  0  0  0
    4.8415   -1.1097  -16.0565 N   0  0  0  0  0  0  0  0  0  0  0  0
    3.9339   -0.6774  -15.1614 C   0  0  0  0  0  0  0  0  0  0  0  0
    2.8101   -1.2486  -15.0041 O   0  0  0  0  0  0  0  0  0  0  0  0
    4.2035    0.3951  -14.3948 N   0  0  0  0  0  0  0  0  0  0  0  0
    3.5276    0.7664  -13.6858 H   0  0  0  0  0  0  0  0  0  0  0  0
    9.2403    4.0431  -15.9995 C   0  0  0  0  0  0  0  0  0  0  0  0
    9.7329    3.2692  -17.1678 C   0  0  0  0  0  0  0  0  0  0  0  0
   10.8065    2.2747  -16.8314 C   0  0  0  0  0  0  0  0  0  0  0  0
   11.3353    2.4420  -15.4311 C   0  0  0  0  0  0  0  0  0  0  0  0
   10.2946    2.5180  -14.3821 C   0  0  0  0  0  0  0  0  0  0  0  0
   11.4604    8.0845   -5.7071 C   0  0  0  0  0  0  0  0  0  0  0  0
   11.7933    9.1571   -6.5124 C   0  0  0  0  0  0  0  0  0  0  0  0
   11.4922    9.2278   -7.8555 C   0  0  0  0  0  0  0  0  0  0  0  0
   10.8118    8.1544   -8.4361 C   0  0  0  0  0  0  0  0  0  0  0  0
   10.4857    8.1541   -9.7381 N   0  0  0  0  0  0  0  0  0  0  0  0
    9.8324    7.1372  -10.3235 C   0  0  0  0  0  0  0  0  0  0  0  0
    9.5223    7.1464  -11.5814 N   0  0  0  0  0  0  0  0  0  0  0  0
    9.5058    6.0892   -9.5422 N   0  0  0  0  0  0  0  0  0  0  0  0
    8.9923    5.2751   -9.9727 H   0  0  0  0  0  0  0  0  0  0  0  0
    9.7941    6.0119   -8.2367 C   0  0  0  0  0  0  0  0  0  0  0  0
   10.4710    7.0743   -7.6474 C   0  0  0  0  0  0  0  0  0  0  0  0
   10.7904    7.0410   -6.3059 C   0  0  0  0  0  0  0  0  0  0  0  0
   12.5005    8.1496   -1.5947 C   0  0  0  0  0  0  0  0  0  0  0  0
   12.4859    9.2469   -2.3507 N   0  0  0  0  0  0  0  0  0  0  0  0
   12.1592    9.2583   -3.6631 C   0  0  0  0  0  0  0  0  0  0  0  0
   11.8174    8.0849   -4.2821 C   0  0  0  0  0  0  0  0  0  0  0  0
   11.8141    6.9039   -3.5436 C   0  0  0  0  0  0  0  0  0  0  0  0
   12.1551    6.9555   -2.2143 C   0  0  0  0  0  0  0  0  0  0  0  0
 38 39  2  0
 39 40  1  0
 40 41  2  0
 41 26  1  0
 26 27  1  0
 27 28  2  0
 28 29  1  0
 29 30  2  0
 30 31  1  0
 31 32  2  0
 32  1  1  0
  1  2  2  0
  2  3  1  0
  3  4  2  0
  4  5  1  0
  5  6  2  0
  5  7  1  0
  7  8  1  0
  8  9  2  0
  9 10  1  0
 10 11  2  0
 11 12  1  0
 12 13  2  0
 12 14  1  0
 14 15  2  0
 14 16  1  0
 16 17  1  0
 17 18  2  0
 17 19  1  0
 19 20  1  0
  7 21  1  6
 21 22  1  0
 22 23  1  0
 23 24  1  0
 24 25  1  0
 31 33  1  0
 33 34  1  0
 33 35  1  0
 35 36  2  0
 36 37  1  0
 41 42  1  0
 42 43  2  0
 43 38  1  0
 37 26  2  0
 36 29  1  0
  6  1  1  0
 25  7  1  0
  9  4  1  0
 19 11  1  0
 13  8  1  0
M  CHG  1  16  -1
M  END
>  <minimizedAffinity>  (389) 
-16.99620

$$$$
Mol: 163_51 - SminaDock
     RDKit          3D

 39 45  0  0  0  0  0  0  0  0999 V2000
    2.4536    0.2113  -14.0957 H   0  0  0  0  0  0  0  0  0  0  0  0
    3.3917    0.1286  -13.7217 O   0  0  0  0  0  0  0  0  0  0  0  0
    4.4858   -0.1189  -14.5446 C   0  0  0  0  0  0  0  0  0  0  0  0
    5.5380    0.7542  -14.4927 C   0  0  0  0  0  0  0  0  0  0  0  0
    5.7944    1.9263  -13.7512 C   0  0  0  0  0  0  0  0  0  0  0  0
    7.0290    2.3112  -14.1778 C   0  0  0  0  0  0  0  0  0  0  0  0
    7.5440    1.4847  -15.1035 N   0  0  0  0  0  0  0  0  0  0  0  0
    6.6771    0.4854  -15.3578 C   0  0  0  0  0  0  0  0  0  0  0  0
    6.6757   -0.6146  -16.1919 C   0  0  0  0  0  0  0  0  0  0  0  0
    7.6615   -0.8555  -16.9468 O   0  0  0  0  0  0  0  0  0  0  0  0
    5.5938   -1.4132  -16.1701 N   0  0  0  0  0  0  0  0  0  0  0  0
    4.5411   -1.1813  -15.3831 N   0  0  0  0  0  0  0  0  0  0  0  0
    3.7361   -1.8300  -15.4081 H   0  0  0  0  0  0  0  0  0  0  0  0
    7.5573    3.5550  -13.5921 C   0  0  0  0  0  0  0  0  0  0  0  0
    8.8418    3.9783  -13.9435 C   0  0  0  0  0  0  0  0  0  0  0  0
    9.3929    5.0949  -13.3928 C   0  0  0  0  0  0  0  0  0  0  0  0
    8.6343    5.7844  -12.4800 C   0  0  0  0  0  0  0  0  0  0  0  0
    7.3776    5.4238  -12.0969 C   0  0  0  0  0  0  0  0  0  0  0  0
    6.8180    4.2559  -12.6832 C   0  0  0  0  0  0  0  0  0  0  0  0
    5.4401    3.8972  -12.3060 C   0  0  0  0  0  0  0  0  0  0  0  0
    4.9706    2.5835  -12.7264 C   0  0  0  0  0  0  0  0  0  0  0  0
    9.1834    6.9633  -11.8794 N   0  0  0  0  0  0  0  0  0  0  0  0
    9.5338    6.9349  -10.6498 C   0  0  0  0  0  0  0  0  0  0  0  0
    9.3894    5.7907   -9.9039 C   0  0  0  0  0  0  0  0  0  0  0  0
    9.7682    5.7763   -8.5900 N   0  0  0  0  0  0  0  0  0  0  0  0
   10.2887    6.8844   -8.0077 C   0  0  0  0  0  0  0  0  0  0  0  0
   10.6812    6.9033   -6.6801 C   0  0  0  0  0  0  0  0  0  0  0  0
   11.2092    8.0219   -6.0802 C   0  0  0  0  0  0  0  0  0  0  0  0
   11.3425    9.1560   -6.8529 C   0  0  0  0  0  0  0  0  0  0  0  0
   10.9495    9.1411   -8.1868 C   0  0  0  0  0  0  0  0  0  0  0  0
   10.4204    8.0162   -8.7835 C   0  0  0  0  0  0  0  0  0  0  0  0
   10.0462    8.0412  -10.0933 N   0  0  0  0  0  0  0  0  0  0  0  0
   10.1622    8.9227  -10.6507 H   0  0  0  0  0  0  0  0  0  0  0  0
   11.6145    8.0106   -4.6737 C   0  0  0  0  0  0  0  0  0  0  0  0
   11.6328    6.8362   -3.9477 C   0  0  0  0  0  0  0  0  0  0  0  0
   12.0139    6.8078   -2.6135 C   0  0  0  0  0  0  0  0  0  0  0  0
   12.3899    7.9598   -1.9623 C   0  0  0  0  0  0  0  0  0  0  0  0
   12.3760    9.1422   -2.6782 C   0  0  0  0  0  0  0  0  0  0  0  0
   11.9935    9.1594   -4.0113 C   0  0  0  0  0  0  0  0  0  0  0  0
  1  2  1  0
  2  3  1  0
  3  4  2  0
  4  5  1  0
  5  6  2  0
  6  7  1  0
  7  8  2  0
  8  9  1  0
  9 10  2  0
  9 11  1  0
 11 12  1  0
 12 13  1  0
  6 14  1  0
 14 15  2  0
 15 16  1  0
 16 17  2  0
 17 22  1  0
 22 23  2  0
 23 24  1  0
 24 25  2  0
 25 26  1  0
 26 27  2  0
 27 28  1  0
 28 34  1  0
 34 35  2  0
 35 36  1  0
 36 37  2  0
 37 38  1  0
 38 39  2  0
 28 29  2  0
 29 30  1  0
 30 31  2  0
 31 32  1  0
 32 33  1  0
 17 18  1  0
 18 19  2  0
 19 20  1  0
 20 21  1  0
 12  3  1  0
 19 14  1  0
  8  4  1  0
 32 23  1  0
 21  5  1  0
 31 26  1  0
 39 34  1  0
M  CHG  1  11  -1
M  END
>  <minimizedAffinity>  (390) 
-16.99593

$$$$
Mol: 164_62 - SminaDock
     RDKit          3D

 38 44  0  0  0  0  0  0  0  0999 V2000
    8.8973    6.2144  -12.2472 C   0  0  0  0  0  0  0  0  0  0  0  0
    7.7259    5.6348  -11.8205 C   0  0  0  0  0  0  0  0  0  0  0  0
    7.2154    4.4992  -12.4107 C   0  0  0  0  0  0  0  0  0  0  0  0
    7.9080    3.9316  -13.4632 C   0  0  0  0  0  0  0  0  0  0  0  0
    9.0770    4.4802  -13.9169 C   0  0  0  0  0  0  0  0  0  0  0  0
    9.5643    5.6461  -13.2806 C   0  0  0  0  0  0  0  0  0  0  0  0
    9.8361    3.9461  -15.0427 C   0  0  0  0  0  0  0  0  0  0  0  0
    9.4317    2.6493  -15.5983 C   0  0  0  0  0  0  0  0  0  0  0  0
    8.1400    2.1223  -15.1344 C   0  0  0  0  0  0  0  0  0  0  0  0
    7.6420    0.9748  -15.7486 C   0  0  0  0  0  0  0  0  0  0  0  0
    6.4402    0.4332  -15.3183 C   0  0  0  0  0  0  0  0  0  0  0  0
    5.7138    0.9915  -14.2975 C   0  0  0  0  0  0  0  0  0  0  0  0
    6.2371    2.1575  -13.6875 C   0  0  0  0  0  0  0  0  0  0  0  0
    7.4156    2.6908  -14.1086 C   0  0  0  0  0  0  0  0  0  0  0  0
    4.4314    0.4780  -13.7669 C   0  0  0  0  0  0  0  0  0  0  0  0
    3.9567   -0.7102  -14.4852 C   0  0  0  0  0  0  0  0  0  0  0  0
    2.8293   -1.2451  -14.1535 O   0  0  0  0  0  0  0  0  0  0  0  0
    4.7028   -1.2551  -15.5060 O   0  0  0  0  0  0  0  0  0  0  0  0
    5.9030   -0.7752  -15.9721 C   0  0  0  0  0  0  0  0  0  0  0  0
    6.5594   -1.2864  -16.8984 O   0  0  0  0  0  0  0  0  0  0  0  0
   11.3780    8.1701   -5.7722 C   0  0  0  0  0  0  0  0  0  0  0  0
   11.5396    9.3306   -6.4977 C   0  0  0  0  0  0  0  0  0  0  0  0
   11.1904    9.4292   -7.8255 C   0  0  0  0  0  0  0  0  0  0  0  0
   10.6443    8.3314   -8.5104 C   0  0  0  0  0  0  0  0  0  0  0  0
   10.3079    8.4424   -9.8051 N   0  0  0  0  0  0  0  0  0  0  0  0
    9.7861    7.3639  -10.4255 C   0  0  0  0  0  0  0  0  0  0  0  0
    9.4389    7.3802  -11.6560 N   0  0  0  0  0  0  0  0  0  0  0  0
    9.6250    6.2278   -9.7250 N   0  0  0  0  0  0  0  0  0  0  0  0
    9.2156    5.3886  -10.2189 H   0  0  0  0  0  0  0  0  0  0  0  0
    9.9500    6.0868   -8.4357 C   0  0  0  0  0  0  0  0  0  0  0  0
   10.4871    7.1759   -7.7741 C   0  0  0  0  0  0  0  0  0  0  0  0
   10.8451    7.0863   -6.4260 C   0  0  0  0  0  0  0  0  0  0  0  0
   12.4820    7.9568   -1.6705 C   0  0  0  0  0  0  0  0  0  0  0  0
   12.1497    6.7996   -2.3715 C   0  0  0  0  0  0  0  0  0  0  0  0
   11.7941    6.8828   -3.6993 C   0  0  0  0  0  0  0  0  0  0  0  0
   11.7549    8.0867   -4.3673 C   0  0  0  0  0  0  0  0  0  0  0  0
   12.0883    9.2163   -3.6500 C   0  0  0  0  0  0  0  0  0  0  0  0
   12.4434    9.1672   -2.3393 C   0  0  0  0  0  0  0  0  0  0  0  0
 33 34  2  0
 34 35  1  0
 35 36  2  0
 36 21  1  0
 21 22  1  0
 22 23  2  0
 23 24  1  0
 24 25  2  0
 25 26  1  0
 26 27  2  0
 27  1  1  0
  1  2  2  0
  2  3  1  0
  3  4  2  0
  4  5  1  0
  5  6  2  0
  5  7  1  0
  7  8  1  0
  8  9  1  0
  9 10  2  0
 10 11  1  0
 11 12  2  0
 12 13  1  0
 13 14  2  0
 12 15  1  0
 15 16  1  0
 16 17  2  0
 16 18  1  0
 18 19  1  0
 19 20  2  0
 26 28  1  0
 28 29  1  0
 28 30  1  0
 30 31  2  0
 31 32  1  0
 36 37  1  0
 37 38  2  0
 38 33  1  0
 32 21  2  0
 31 24  1  0
  6  1  1  0
 14  9  1  0
 14  4  1  0
 19 11  1  0
M  END
>  <minimizedAffinity>  (391) 
-16.99775

$$$$
Mol: 165_4 - SminaDock
     RDKit          3D

 39 45  0  0  0  0  0  0  0  0999 V2000
    8.9231    5.5291  -12.3190 C   0  0  0  0  0  0  0  0  0  0  0  0
    9.6503    4.7713  -13.2065 C   0  0  0  0  0  0  0  0  0  0  0  0
    9.0336    3.6741  -13.7791 C   0  0  0  0  0  0  0  0  0  0  0  0
    7.7335    3.3161  -13.4971 C   0  0  0  0  0  0  0  0  0  0  0  0
    7.0209    4.0899  -12.6037 C   0  0  0  0  0  0  0  0  0  0  0  0
    7.6246    5.1950  -12.0193 C   0  0  0  0  0  0  0  0  0  0  0  0
    5.6474    3.6961  -12.3162 C   0  0  0  0  0  0  0  0  0  0  0  0
    4.9855    4.4054  -11.4895 O   0  0  0  0  0  0  0  0  0  0  0  0
    4.9551    2.5448  -12.9006 C   0  0  0  0  0  0  0  0  0  0  0  0
    5.8163    1.7866  -13.8443 C   0  0  0  0  0  0  0  0  0  0  0  0
    7.1271    2.1485  -14.1277 C   0  0  0  0  0  0  0  0  0  0  0  0
    7.8649    1.4152  -15.0000 N   0  0  0  0  0  0  0  0  0  0  0  0
    7.3848    0.3255  -15.6244 C   0  0  0  0  0  0  0  0  0  0  0  0
    8.0912   -0.3440  -16.4347 O   0  0  0  0  0  0  0  0  0  0  0  0
    6.0947   -0.1206  -15.4139 C   0  0  0  0  0  0  0  0  0  0  0  0
    5.5855   -1.2368  -16.0454 C   0  0  0  0  0  0  0  0  0  0  0  0
    4.3163   -1.5987  -15.7794 N   0  0  0  0  0  0  0  0  0  0  0  0
    3.9233   -2.4539  -16.2620 H   0  0  0  0  0  0  0  0  0  0  0  0
    3.5635   -0.8943  -14.9227 C   0  0  0  0  0  0  0  0  0  0  0  0
    4.0011    0.2293  -14.2549 C   0  0  0  0  0  0  0  0  0  0  0  0
    5.2916    0.6738  -14.4673 C   0  0  0  0  0  0  0  0  0  0  0  0
   11.3739    8.0432   -5.9732 C   0  0  0  0  0  0  0  0  0  0  0  0
   11.6190    9.1179   -6.8166 C   0  0  0  0  0  0  0  0  0  0  0  0
   11.2989    9.0735   -8.1550 C   0  0  0  0  0  0  0  0  0  0  0  0
   10.7187    7.9398   -8.6901 C   0  0  0  0  0  0  0  0  0  0  0  0
   10.3857    7.8339   -9.9757 N   0  0  0  0  0  0  0  0  0  0  0  0
    9.8222    6.7191  -10.4714 C   0  0  0  0  0  0  0  0  0  0  0  0
    9.5206    6.6641  -11.7089 N   0  0  0  0  0  0  0  0  0  0  0  0
    9.5859    5.6813   -9.6557 N   0  0  0  0  0  0  0  0  0  0  0  0
    9.1479    4.8242  -10.0578 H   0  0  0  0  0  0  0  0  0  0  0  0
    9.8924    5.7067   -8.3434 C   0  0  0  0  0  0  0  0  0  0  0  0
   10.4690    6.8583   -7.8555 C   0  0  0  0  0  0  0  0  0  0  0  0
   10.7956    6.9134   -6.5072 C   0  0  0  0  0  0  0  0  0  0  0  0
   12.3472    8.0949   -1.8246 C   0  0  0  0  0  0  0  0  0  0  0  0
   12.3436    9.2685   -2.5467 C   0  0  0  0  0  0  0  0  0  0  0  0
   12.0271    9.2457   -3.8933 C   0  0  0  0  0  0  0  0  0  0  0  0
   11.7097    8.0813   -4.5549 C   0  0  0  0  0  0  0  0  0  0  0  0
   11.7241    6.9208   -3.7936 C   0  0  0  0  0  0  0  0  0  0  0  0
   12.0325    6.9024   -2.4577 C   0  0  0  0  0  0  0  0  0  0  0  0
 34 35  2  0
 35 36  1  0
 36 37  2  0
 37 22  1  0
 22 23  1  0
 23 24  2  0
 24 25  1  0
 25 26  2  0
 26 27  1  0
 27 28  2  0
 28  1  1  0
  1  2  2  0
  2  3  1  0
  3  4  2  0
  4  5  1  0
  5  6  2  0
  5  7  1  0
  7  8  2  0
  7  9  1  0
  9 10  1  0
 10 11  1  0
 11 12  2  0
 12 13  1  0
 13 14  2  0
 13 15  1  0
 15 16  2  0
 16 17  1  0
 17 18  1  0
 17 19  1  0
 19 20  2  0
 20 21  1  0
 27 29  1  0
 29 30  1  0
 29 31  1  0
 31 32  2  0
 32 33  1  0
 37 38  1  0
 38 39  2  0
 39 34  1  0
 33 22  2  0
 32 25  1  0
  6  1  1  0
 21 10  2  0
 11  4  1  0
 21 15  1  0
M  END
>  <minimizedAffinity>  (392) 
-16.97201

$$$$
Mol: 155_10 - SminaDock
     RDKit          3D

 37 43  0  0  0  0  0  0  0  0999 V2000
    8.7637    5.8266  -12.2572 C   0  0  0  0  0  0  0  0  0  0  0  0
    9.5520    5.0397  -13.0552 C   0  0  0  0  0  0  0  0  0  0  0  0
    9.0396    3.8877  -13.6036 C   0  0  0  0  0  0  0  0  0  0  0  0
    7.7153    3.4931  -13.3643 C   0  0  0  0  0  0  0  0  0  0  0  0
    6.9489    4.3055  -12.5576 C   0  0  0  0  0  0  0  0  0  0  0  0
    7.4619    5.4923  -11.9872 C   0  0  0  0  0  0  0  0  0  0  0  0
    5.5446    3.9433  -12.2593 C   0  0  0  0  0  0  0  0  0  0  0  0
    5.0313    2.7246  -12.8797 C   0  0  0  0  0  0  0  0  0  0  0  0
    5.9140    1.9587  -13.6979 N   0  0  0  0  0  0  0  0  0  0  0  0
    7.1851    2.2789  -13.9556 C   0  0  0  0  0  0  0  0  0  0  0  0
    7.9914    1.5046  -14.7515 C   0  0  0  0  0  0  0  0  0  0  0  0
    7.4530    0.3306  -15.3143 C   0  0  0  0  0  0  0  0  0  0  0  0
    8.1631   -0.4020  -16.0480 O   0  0  0  0  0  0  0  0  0  0  0  0
    6.1415    0.0033  -15.0466 C   0  0  0  0  0  0  0  0  0  0  0  0
    5.6245   -1.1477  -15.6038 C   0  0  0  0  0  0  0  0  0  0  0  0
    4.3158   -1.5154  -15.3648 C   0  0  0  0  0  0  0  0  0  0  0  0
    3.5679   -0.6920  -14.5586 C   0  0  0  0  0  0  0  0  0  0  0  0
    4.0862    0.4514  -14.0066 C   0  0  0  0  0  0  0  0  0  0  0  0
    5.3896    0.8227  -14.2414 C   0  0  0  0  0  0  0  0  0  0  0  0
   11.2903    8.0985   -5.9270 C   0  0  0  0  0  0  0  0  0  0  0  0
   11.4276    9.2374   -6.6925 C   0  0  0  0  0  0  0  0  0  0  0  0
   11.0649    9.2895   -8.0201 C   0  0  0  0  0  0  0  0  0  0  0  0
   10.5380    8.1378   -8.6051 C   0  0  0  0  0  0  0  0  0  0  0  0
   10.3844    6.9806   -7.8768 C   0  0  0  0  0  0  0  0  0  0  0  0
    9.8598    5.8306   -8.4512 C   0  0  0  0  0  0  0  0  0  0  0  0
    9.5056    5.8804   -9.7426 N   0  0  0  0  0  0  0  0  0  0  0  0
    9.6519    7.0021  -10.4576 C   0  0  0  0  0  0  0  0  0  0  0  0
    9.3082    7.0356  -11.6870 N   0  0  0  0  0  0  0  0  0  0  0  0
   10.1589    8.1157   -9.9045 N   0  0  0  0  0  0  0  0  0  0  0  0
   10.2760    8.9937  -10.4554 H   0  0  0  0  0  0  0  0  0  0  0  0
   10.7654    6.9863   -6.5483 C   0  0  0  0  0  0  0  0  0  0  0  0
   12.4278    7.9378   -1.8094 C   0  0  0  0  0  0  0  0  0  0  0  0
   12.0709    6.7893   -2.4979 C   0  0  0  0  0  0  0  0  0  0  0  0
   11.7062    6.8743   -3.8347 C   0  0  0  0  0  0  0  0  0  0  0  0
   11.6843    8.0691   -4.5142 C   0  0  0  0  0  0  0  0  0  0  0  0
   12.0377    9.2163   -3.8379 C   0  0  0  0  0  0  0  0  0  0  0  0
   12.4016    9.1222   -2.4988 C   0  0  0  0  0  0  0  0  0  0  0  0
 32 33  2  0
 33 34  1  0
 34 35  2  0
 35 20  1  0
 20 21  2  0
 21 22  1  0
 22 23  2  0
 23 24  1  0
 24 25  1  0
 25 26  2  0
 26 27  1  0
 27 28  2  0
 28  1  1  0
  1  2  2  0
  2  3  1  0
  3  4  2  0
  4  5  1  0
  5  6  2  0
  5  7  1  0
  7  8  1  0
  8  9  1  0
  9 10  1  0
 10 11  2  0
 11 12  1  0
 12 13  2  0
 12 14  1  0
 14 15  2  0
 15 16  1  0
 16 17  2  0
 17 18  1  0
 18 19  2  0
 27 29  1  0
 29 30  1  0
 24 31  2  0
 35 36  1  0
 36 37  2  0
 37 32  1  0
 31 20  1  0
 29 23  1  0
  6  1  1  0
 19  9  1  0
 10  4  1  0
 19 14  1  0
M  END
>  <minimizedAffinity>  (393) 
-17.04165

$$$$
Mol: 154_32 - SminaDock
     RDKit          3D

 39 45  0  0  0  0  0  0  0  0999 V2000
    8.8992   -0.6048  -16.3739 H   0  0  0  0  0  0  0  0  0  0  0  0
    8.0344   -0.1510  -16.6624 O   0  0  0  0  0  0  0  0  0  0  0  0
    7.2253    0.4883  -15.7127 C   0  0  0  0  0  0  0  0  0  0  0  0
    7.7320    1.5430  -15.0907 N   0  0  0  0  0  0  0  0  0  0  0  0
    6.9898    2.1948  -14.1646 C   0  0  0  0  0  0  0  0  0  0  0  0
    5.7180    1.7669  -13.8675 C   0  0  0  0  0  0  0  0  0  0  0  0
    5.1717    0.6591  -14.5146 C   0  0  0  0  0  0  0  0  0  0  0  0
    5.9700    0.0356  -15.4468 C   0  0  0  0  0  0  0  0  0  0  0  0
    5.4116   -1.1649  -16.1629 C   0  0  0  0  0  0  0  0  0  0  0  0
    4.0541   -0.9122  -16.3492 O   0  0  0  0  0  0  0  0  0  0  0  0
    3.4584   -1.0365  -15.0722 C   0  0  0  0  0  0  0  0  0  0  0  0
    3.7992    0.1712  -14.2173 C   0  0  0  0  0  0  0  0  0  0  0  0
    4.9375    2.4524  -12.8326 C   0  0  0  0  0  0  0  0  0  0  0  0
    5.4689    3.7373  -12.3635 C   0  0  0  0  0  0  0  0  0  0  0  0
    6.8583    4.0795  -12.6587 C   0  0  0  0  0  0  0  0  0  0  0  0
    7.4763    5.1717  -12.0579 C   0  0  0  0  0  0  0  0  0  0  0  0
    8.7459    5.5505  -12.3245 C   0  0  0  0  0  0  0  0  0  0  0  0
    9.4820    4.8312  -13.2346 C   0  0  0  0  0  0  0  0  0  0  0  0
    8.9296    3.7311  -13.8701 C   0  0  0  0  0  0  0  0  0  0  0  0
    9.7226    2.9593  -14.8479 C   0  0  0  0  0  0  0  0  0  0  0  0
    7.6109    3.3734  -13.5634 C   0  0  0  0  0  0  0  0  0  0  0  0
    9.3953    6.6616  -11.7158 N   0  0  0  0  0  0  0  0  0  0  0  0
    9.7015    6.6709  -10.4621 C   0  0  0  0  0  0  0  0  0  0  0  0
   10.3190    7.7488   -9.9228 N   0  0  0  0  0  0  0  0  0  0  0  0
   10.6700    7.8422   -8.6307 C   0  0  0  0  0  0  0  0  0  0  0  0
   11.2968    8.9506   -8.1044 C   0  0  0  0  0  0  0  0  0  0  0  0
   11.6363    8.9982   -6.7692 C   0  0  0  0  0  0  0  0  0  0  0  0
   11.3682    7.9481   -5.8992 C   0  0  0  0  0  0  0  0  0  0  0  0
   10.7407    6.8406   -6.4299 C   0  0  0  0  0  0  0  0  0  0  0  0
   10.3982    6.7921   -7.7766 C   0  0  0  0  0  0  0  0  0  0  0  0
    9.7687    5.6883   -8.3173 C   0  0  0  0  0  0  0  0  0  0  0  0
    9.4393    5.6485   -9.6205 N   0  0  0  0  0  0  0  0  0  0  0  0
    8.9713    4.7965   -9.9681 H   0  0  0  0  0  0  0  0  0  0  0  0
   11.7461    8.0429   -4.4854 C   0  0  0  0  0  0  0  0  0  0  0  0
   12.0992    9.2472   -3.9244 C   0  0  0  0  0  0  0  0  0  0  0  0
   12.4487    9.3306   -2.6110 C   0  0  0  0  0  0  0  0  0  0  0  0
   12.4548    8.2150   -1.8250 C   0  0  0  0  0  0  0  0  0  0  0  0
   12.1051    6.9996   -2.3658 C   0  0  0  0  0  0  0  0  0  0  0  0
   11.7519    6.9176   -3.6942 C   0  0  0  0  0  0  0  0  0  0  0  0
  1  2  1  0
  2  3  1  0
  3  4  2  0
  4  5  1  0
  5  6  2  0
  6  7  1  0
  7  8  2  0
  8  9  1  0
  9 10  1  0
 10 11  1  0
 11 12  1  0
  6 13  1  0
 13 14  1  0
 14 15  1  0
 15 16  2  0
 16 17  1  0
 17 22  1  0
 22 23  2  0
 23 24  1  0
 24 25  2  0
 25 26  1  0
 26 27  2  0
 27 28  1  0
 28 34  1  0
 34 35  2  0
 35 36  1  0
 36 37  2  0
 37 38  1  0
 38 39  2  0
 28 29  2  0
 29 30  1  0
 30 31  2  0
 31 32  1  0
 32 33  1  0
 17 18  2  0
 18 19  1  0
 19 20  1  0
 19 21  2  0
  8  3  1  0
 21 15  1  0
 21  5  1  0
 12  7  1  0
 32 23  1  0
 30 25  1  0
 39 34  1  0
M  END
>  <minimizedAffinity>  (394) 
-16.99152

$$$$
Mol: 180_7 - SminaDock
     RDKit          3D

 41 48  0  0  0  0  0  0  0  0999 V2000
    4.2977    1.2725  -13.5691 C   0  0  0  0  0  0  0  0  0  0  0  0
    3.8910    0.1467  -14.1695 N   0  0  0  0  0  0  0  0  0  0  0  0
    4.6691   -0.5631  -15.0070 C   0  0  0  0  0  0  0  0  0  0  0  0
    4.5181   -1.6640  -15.7024 O   0  0  0  0  0  0  0  0  0  0  0  0
    5.6045   -1.9400  -16.3752 C   0  0  0  0  0  0  0  0  0  0  0  0
    5.7464   -2.9475  -17.1355 O   0  0  0  0  0  0  0  0  0  0  0  0
    6.4943   -0.9737  -16.1008 N   0  0  0  0  0  0  0  0  0  0  0  0
    5.9510   -0.0934  -15.2505 C   0  0  0  0  0  0  0  0  0  0  0  0
    6.4289    1.0579  -14.6643 C   0  0  0  0  0  0  0  0  0  0  0  0
    5.5896    1.7496  -13.8116 C   0  0  0  0  0  0  0  0  0  0  0  0
    6.3326    2.9019  -13.3292 C   0  0  0  0  0  0  0  0  0  0  0  0
    5.9819    3.9157  -12.4583 C   0  0  0  0  0  0  0  0  0  0  0  0
    6.8595    4.9304  -12.1251 C   0  0  0  0  0  0  0  0  0  0  0  0
    8.1308    4.9644  -12.6583 C   0  0  0  0  0  0  0  0  0  0  0  0
    8.4752    3.9438  -13.5312 C   0  0  0  0  0  0  0  0  0  0  0  0
    7.5960    2.9338  -13.8606 C   0  0  0  0  0  0  0  0  0  0  0  0
    7.7314    1.7356  -14.7764 C   0  0  1  0  0  0  0  0  0  0  0  0
    8.8783    0.8713  -14.3468 C   0  0  0  0  0  0  0  0  0  0  0  0
    9.9376    0.6625  -15.3737 C   0  0  0  0  0  0  0  0  0  0  0  0
    9.4366    0.3998  -16.6853 N   0  0  0  0  0  0  0  0  0  0  0  0
    9.1497   -0.5783  -16.8758 H   0  0  0  0  0  0  0  0  0  0  0  0
    8.5066    1.3752  -17.1630 C   0  0  0  0  0  0  0  0  0  0  0  0
    8.0195    2.3171  -16.1273 C   0  0  0  0  0  0  0  0  0  0  0  0
    9.0395    6.0085  -12.3186 N   0  0  0  0  0  0  0  0  0  0  0  0
    9.3541    6.1396  -11.0568 C   0  0  0  0  0  0  0  0  0  0  0  0
    8.8501    5.3312  -10.1072 N   0  0  0  0  0  0  0  0  0  0  0  0
    9.1674    5.4577   -8.8077 C   0  0  0  0  0  0  0  0  0  0  0  0
   10.0451    6.4586   -8.4425 C   0  0  0  0  0  0  0  0  0  0  0  0
   10.4219    6.6532   -7.1185 C   0  0  0  0  0  0  0  0  0  0  0  0
   11.2885    7.6354   -6.7265 C   0  0  0  0  0  0  0  0  0  0  0  0
   11.8056    8.4675   -7.7141 C   0  0  0  0  0  0  0  0  0  0  0  0
   11.4572    8.3078   -9.0403 C   0  0  0  0  0  0  0  0  0  0  0  0
   10.5750    7.2998   -9.3982 C   0  0  0  0  0  0  0  0  0  0  0  0
   10.2062    7.1070  -10.6817 N   0  0  0  0  0  0  0  0  0  0  0  0
   10.5929    7.7287  -11.4196 H   0  0  0  0  0  0  0  0  0  0  0  0
   11.6605    7.8069   -5.3202 C   0  0  0  0  0  0  0  0  0  0  0  0
   11.3264    6.8437   -4.4048 C   0  0  0  0  0  0  0  0  0  0  0  0
   11.6699    6.9881   -3.0691 C   0  0  0  0  0  0  0  0  0  0  0  0
   12.3552    8.0941   -2.6052 C   0  0  0  0  0  0  0  0  0  0  0  0
   12.6852    9.0575   -3.5408 C   0  0  0  0  0  0  0  0  0  0  0  0
   12.3457    8.9191   -4.8732 C   0  0  0  0  0  0  0  0  0  0  0  0
  1  2  2  0
  2  3  1  0
  3  4  1  0
  4  5  1  0
  5  6  2  0
  5  7  1  0
  7  8  1  0
  8  9  1  0
  9 10  2  0
 10 11  1  0
 11 12  2  0
 12 13  1  0
 13 14  2  0
 14 24  1  0
 24 25  2  0
 25 26  1  0
 26 27  2  0
 27 28  1  0
 28 29  2  0
 29 30  1  0
 30 36  1  0
 36 37  2  0
 37 38  1  0
 38 39  2  0
 39 40  1  0
 40 41  2  0
 30 31  2  0
 31 32  1  0
 32 33  2  0
 33 34  1  0
 34 35  1  0
 14 15  1  0
 15 16  2  0
 16 17  1  0
 17 18  1  1
 18 19  1  0
 19 20  1  0
 20 21  1  0
 20 22  1  0
 22 23  1  0
 10  1  1  0
 16 11  1  0
 23 17  1  0
  8  3  2  0
 17  9  1  0
 34 25  1  0
 33 28  1  0
 41 36  1  0
M  CHG  1   7  -1
M  END
>  <minimizedAffinity>  (395) 
-17.00521

$$$$
Mol: 135_36 - SminaDock
     RDKit          3D

 39 45  0  0  0  0  0  0  0  0999 V2000
    4.1634   -1.8999  -14.5094 H   0  0  0  0  0  0  0  0  0  0  0  0
    4.1952   -1.2041  -15.2410 O   0  0  0  0  0  0  0  0  0  0  0  0
    5.3459   -0.7058  -15.8143 C   0  0  0  0  0  0  0  0  0  0  0  0
    5.8958    0.3864  -15.2569 C   0  0  0  0  0  0  0  0  0  0  0  0
    5.3140    0.9648  -14.1596 C   0  0  0  0  0  0  0  0  0  0  0  0
    5.8954    2.0939  -13.5949 C   0  0  0  0  0  0  0  0  0  0  0  0
    7.0482    2.6117  -14.1536 C   0  0  0  0  0  0  0  0  0  0  0  0
    7.6501    2.0501  -15.2501 C   0  0  0  0  0  0  0  0  0  0  0  0
    7.0463    0.9114  -15.8007 C   0  0  0  0  0  0  0  0  0  0  0  0
    7.5666    0.3454  -16.8266 N   0  0  0  0  0  0  0  0  0  0  0  0
    7.0931   -0.8099  -17.5136 C   0  0  0  0  0  0  0  0  0  0  0  0
    5.8832   -1.3586  -16.9452 N   0  0  0  0  0  0  0  0  0  0  0  0
    5.2614   -2.5263  -17.5227 C   0  0  0  0  0  0  0  0  0  0  0  0
    7.6014    3.8408  -13.6048 C   0  0  0  0  0  0  0  0  0  0  0  0
    8.7893    4.3152  -14.1098 C   0  0  0  0  0  0  0  0  0  0  0  0
    9.3454    5.4420  -13.5418 C   0  0  0  0  0  0  0  0  0  0  0  0
    8.7353    6.0898  -12.4903 C   0  0  0  0  0  0  0  0  0  0  0  0
    7.5552    5.6115  -11.9964 C   0  0  0  0  0  0  0  0  0  0  0  0
    6.9678    4.4692  -12.5554 C   0  0  0  0  0  0  0  0  0  0  0  0
    5.6581    4.0124  -12.0543 C   0  0  0  0  0  0  0  0  0  0  0  0
    5.2576    2.6340  -12.3743 C   0  0  0  0  0  0  0  0  0  0  0  0
    9.2646    7.2696  -11.8703 N   0  0  0  0  0  0  0  0  0  0  0  0
    9.6015    7.1437  -10.6333 C   0  0  0  0  0  0  0  0  0  0  0  0
    9.4775    5.9971   -9.9432 N   0  0  0  0  0  0  0  0  0  0  0  0
    9.8314    5.8914   -8.6564 C   0  0  0  0  0  0  0  0  0  0  0  0
   10.3432    6.9795   -7.9908 C   0  0  0  0  0  0  0  0  0  0  0  0
   10.7224    6.9258   -6.6595 C   0  0  0  0  0  0  0  0  0  0  0  0
   11.2333    8.0218   -5.9955 C   0  0  0  0  0  0  0  0  0  0  0  0
   11.3501    9.1878   -6.7287 C   0  0  0  0  0  0  0  0  0  0  0  0
   10.9825    9.2773   -8.0551 C   0  0  0  0  0  0  0  0  0  0  0  0
   10.4692    8.1531   -8.7003 C   0  0  0  0  0  0  0  0  0  0  0  0
   10.0982    8.2033   -9.9919 N   0  0  0  0  0  0  0  0  0  0  0  0
   10.2151    9.1228  -10.4851 H   0  0  0  0  0  0  0  0  0  0  0  0
   11.6382    8.0073   -4.6064 C   0  0  0  0  0  0  0  0  0  0  0  0
   12.0088    9.1474   -3.9326 C   0  0  0  0  0  0  0  0  0  0  0  0
   12.3944    9.1102   -2.6020 C   0  0  0  0  0  0  0  0  0  0  0  0
   12.4086    7.9038   -1.9329 C   0  0  0  0  0  0  0  0  0  0  0  0
   12.0416    6.7502   -2.5865 C   0  0  0  0  0  0  0  0  0  0  0  0
   11.6615    6.8235   -3.9174 C   0  0  0  0  0  0  0  0  0  0  0  0
  1  2  1  0
  2  3  1  0
  3  4  2  0
  4  5  1  0
  5  6  2  0
  6  7  1  0
  7  8  2  0
  8  9  1  0
  9 10  2  0
 10 11  1  0
 11 12  1  0
 12 13  1  0
  7 14  1  0
 14 15  2  0
 15 16  1  0
 16 17  2  0
 17 22  1  0
 22 23  2  0
 23 24  1  0
 24 25  2  0
 25 26  1  0
 26 27  2  0
 27 28  1  0
 28 34  1  0
 34 35  2  0
 35 36  1  0
 36 37  2  0
 37 38  1  0
 38 39  2  0
 28 29  2  0
 29 30  1  0
 30 31  2  0
 31 32  1  0
 32 33  1  0
 17 18  1  0
 18 19  2  0
 19 20  1  0
 20 21  1  0
 12  3  1  0
 19 14  1  0
  9  4  1  0
 32 23  1  0
 21  6  1  0
 31 26  1  0
 39 34  1  0
M  END
>  <minimizedAffinity>  (396) 
-17.04449

$$$$
Mol: 194_25 - SminaDock
     RDKit          3D

 38 44  0  0  0  0  0  0  0  0999 V2000
    2.3073   -0.3825  -13.9466 H   0  0  0  0  0  0  0  0  0  0  0  0
    3.2323    0.1128  -13.9547 N   0  0  0  0  0  0  0  0  0  0  0  0
    4.2512   -0.3110  -14.5988 C   0  0  0  0  0  0  0  0  0  0  0  0
    5.4764    0.3019  -14.6377 C   0  0  0  0  0  0  0  0  0  0  0  0
    5.8860    1.4841  -14.0098 C   0  0  0  0  0  0  0  0  0  0  0  0
    7.1805    1.8871  -14.2119 C   0  0  0  0  0  0  0  0  0  0  0  0
    8.0380    1.1541  -15.0014 C   0  0  0  0  0  0  0  0  0  0  0  0
    7.5780   -0.0149  -15.6025 C   0  0  0  0  0  0  0  0  0  0  0  0
    6.2846   -0.4442  -15.4182 C   0  0  0  0  0  0  0  0  0  0  0  0
    5.5753   -1.4685  -15.8349 O   0  0  0  0  0  0  0  0  0  0  0  0
    4.3654   -1.4224  -15.3690 N   0  0  0  0  0  0  0  0  0  0  0  0
    3.5645   -2.0938  -15.5211 H   0  0  0  0  0  0  0  0  0  0  0  0
    7.6969    3.1237  -13.5918 C   0  0  0  0  0  0  0  0  0  0  0  0
    9.0017    3.5481  -13.7858 C   0  0  0  0  0  0  0  0  0  0  0  0
    9.4843    4.7177  -13.1997 C   0  0  0  0  0  0  0  0  0  0  0  0
    8.6048    5.4308  -12.4199 C   0  0  0  0  0  0  0  0  0  0  0  0
    7.3179    5.0111  -12.2292 C   0  0  0  0  0  0  0  0  0  0  0  0
    6.8267    3.8387  -12.8139 C   0  0  0  0  0  0  0  0  0  0  0  0
    5.4261    3.4484  -12.5627 C   0  0  0  0  0  0  0  0  0  0  0  0
    4.9568    2.2305  -13.1828 C   0  0  0  0  0  0  0  0  0  0  0  0
    9.0383    6.6530  -11.7853 N   0  0  0  0  0  0  0  0  0  0  0  0
    9.4158    6.6449  -10.5738 C   0  0  0  0  0  0  0  0  0  0  0  0
    9.4126    5.4661   -9.8599 C   0  0  0  0  0  0  0  0  0  0  0  0
    9.8397    5.5327   -8.5387 C   0  0  0  0  0  0  0  0  0  0  0  0
   10.2533    6.7333   -7.9568 C   0  0  0  0  0  0  0  0  0  0  0  0
   10.6734    6.7783   -6.6448 C   0  0  0  0  0  0  0  0  0  0  0  0
   11.0867    7.9461   -6.0443 C   0  0  0  0  0  0  0  0  0  0  0  0
   11.0628    9.0949   -6.8260 C   0  0  0  0  0  0  0  0  0  0  0  0
   10.6431    9.0518   -8.1379 C   0  0  0  0  0  0  0  0  0  0  0  0
   10.2313    7.8813   -8.7323 C   0  0  0  0  0  0  0  0  0  0  0  0
    9.8185    7.8096  -10.0048 N   0  0  0  0  0  0  0  0  0  0  0  0
    9.8126    8.6977  -10.5691 H   0  0  0  0  0  0  0  0  0  0  0  0
   11.5275    7.9749   -4.6551 C   0  0  0  0  0  0  0  0  0  0  0  0
   11.7475    9.2099   -4.0643 C   0  0  0  0  0  0  0  0  0  0  0  0
   12.1679    9.2376   -2.7412 C   0  0  0  0  0  0  0  0  0  0  0  0
   12.3590    8.0527   -2.0402 C   0  0  0  0  0  0  0  0  0  0  0  0
   12.1376    6.8208   -2.6356 C   0  0  0  0  0  0  0  0  0  0  0  0
   11.7200    6.8230   -3.9524 C   0  0  0  0  0  0  0  0  0  0  0  0
  1  2  1  0
  2  3  2  0
  3  4  1  0
  4  5  2  0
  5  6  1  0
  6  7  2  0
  7  8  1  0
  8  9  2  0
  9 10  1  0
 10 11  1  0
 11 12  1  0
  6 13  1  0
 13 14  2  0
 14 15  1  0
 15 16  2  0
 16 21  1  0
 21 22  2  0
 22 23  1  0
 23 24  2  0
 24 25  1  0
 25 26  2  0
 26 27  1  0
 27 33  1  0
 33 34  2  0
 34 35  1  0
 35 36  2  0
 36 37  1  0
 37 38  2  0
 27 28  2  0
 28 29  1  0
 29 30  2  0
 30 31  1  0
 31 32  1  0
 16 17  1  0
 17 18  2  0
 18 19  1  0
 19 20  1  0
 11  3  1  0
 18 13  1  0
  9  4  1  0
 31 22  1  0
 20  5  1  0
 30 25  1  0
 38 33  1  0
M  END
>  <minimizedAffinity>  (397) 
-16.97628

$$$$
Mol: 193_52 - SminaDock
     RDKit          3D

 40 46  0  0  0  0  0  0  0  0999 V2000
    8.8298    5.6148  -12.6261 C   0  0  0  0  0  0  0  0  0  0  0  0
    9.5213    5.1580  -13.7239 C   0  0  0  0  0  0  0  0  0  0  0  0
    9.1080    4.0821  -14.5055 C   0  0  0  0  0  0  0  0  0  0  0  0
    7.9267    3.4267  -14.1608 C   0  0  0  0  0  0  0  0  0  0  0  0
    7.2070    3.8541  -13.0698 C   0  0  0  0  0  0  0  0  0  0  0  0
    7.6765    4.9417  -12.3251 C   0  0  0  0  0  0  0  0  0  0  0  0
    5.9695    3.2079  -12.6655 C   0  0  0  0  0  0  0  0  0  0  0  0
    5.3537    3.6438  -11.6572 O   0  0  0  0  0  0  0  0  0  0  0  0
    5.4781    2.0650  -13.4496 C   0  0  0  0  0  0  0  0  0  0  0  0
    4.4356    1.5770  -13.0489 O   0  0  0  0  0  0  0  0  0  0  0  0
    6.2407    1.6316  -14.5846 C   0  0  0  0  0  0  0  0  0  0  0  0
    7.4377    2.2871  -14.9431 C   0  0  0  0  0  0  0  0  0  0  0  0
    8.1642    1.8732  -16.0242 C   0  0  0  0  0  0  0  0  0  0  0  0
    7.7291    0.8102  -16.7710 C   0  0  0  0  0  0  0  0  0  0  0  0
    6.5728    0.1641  -16.4384 C   0  0  0  0  0  0  0  0  0  0  0  0
    6.1528   -0.9093  -17.2080 C   0  0  0  0  0  0  0  0  0  0  0  0
    4.9952   -1.5487  -16.8659 C   0  0  0  0  0  0  0  0  0  0  0  0
    4.2629   -1.1649  -15.8121 N   0  0  0  0  0  0  0  0  0  0  0  0
    3.3958   -1.6655  -15.5788 H   0  0  0  0  0  0  0  0  0  0  0  0
    4.6519   -0.1071  -15.0316 C   0  0  0  0  0  0  0  0  0  0  0  0
    3.9126    0.1514  -14.1047 O   0  0  0  0  0  0  0  0  0  0  0  0
    5.7986    0.5483  -15.3469 C   0  0  0  0  0  0  0  0  0  0  0  0
   11.2008    7.9811   -6.0693 C   0  0  0  0  0  0  0  0  0  0  0  0
   11.3119    9.0967   -6.8831 C   0  0  0  0  0  0  0  0  0  0  0  0
   10.9495    9.0277   -8.2114 C   0  0  0  0  0  0  0  0  0  0  0  0
   10.4681    7.8731   -8.7905 C   0  0  0  0  0  0  0  0  0  0  0  0
   10.3535    6.7567   -7.9897 C   0  0  0  0  0  0  0  0  0  0  0  0
   10.7198    6.8255   -6.6461 C   0  0  0  0  0  0  0  0  0  0  0  0
    9.8750    5.5994   -8.5537 C   0  0  0  0  0  0  0  0  0  0  0  0
    9.5201    5.5809   -9.9090 C   0  0  0  0  0  0  0  0  0  0  0  0
    9.6487    6.7157  -10.6764 C   0  0  0  0  0  0  0  0  0  0  0  0
    9.3301    6.7065  -11.9037 N   0  0  0  0  0  0  0  0  0  0  0  0
   10.1177    7.8393  -10.1109 N   0  0  0  0  0  0  0  0  0  0  0  0
   10.2234    8.7121  -10.6748 H   0  0  0  0  0  0  0  0  0  0  0  0
   12.2878    8.0445   -1.9615 C   0  0  0  0  0  0  0  0  0  0  0  0
   12.0280    6.8365   -2.5990 C   0  0  0  0  0  0  0  0  0  0  0  0
   11.6816    6.8708   -3.9265 C   0  0  0  0  0  0  0  0  0  0  0  0
   11.5782    8.0317   -4.6570 C   0  0  0  0  0  0  0  0  0  0  0  0
   11.8353    9.2214   -4.0249 C   0  0  0  0  0  0  0  0  0  0  0  0
   12.1910    9.2273   -2.6736 C   0  0  0  0  0  0  0  0  0  0  0  0
 35 36  2  0
 36 37  1  0
 37 38  2  0
 38 23  1  0
 23 24  2  0
 24 25  1  0
 25 26  2  0
 26 27  1  0
 27 28  2  0
 27 29  1  0
 29 30  2  0
 30 31  1  0
 31 32  2  0
 32  1  1  0
  1  2  2  0
  2  3  1  0
  3  4  2  0
  4  5  1  0
  5  6  2  0
  5  7  1  0
  7  8  2  0
  7  9  1  0
  9 10  2  0
  9 11  1  0
 11 12  2  0
 12 13  1  0
 13 14  2  0
 14 15  1  0
 15 16  1  0
 16 17  2  0
 17 18  1  0
 18 19  1  0
 18 20  1  0
 20 21  2  0
 20 22  1  0
 31 33  1  0
 33 34  1  0
 38 39  1  0
 39 40  2  0
 40 35  1  0
 28 23  1  0
  6  1  1  0
 22 11  1  0
 33 26  1  0
 12  4  1  0
 22 15  2  0
M  END
>  <minimizedAffinity>  (398) 
-16.95195

$$$$
Mol: 170_38 - SminaDock
     RDKit          3D

 39 45  0  0  0  0  0  0  0  0999 V2000
    8.7622    5.9957  -12.5031 C   0  0  0  0  0  0  0  0  0  0  0  0
    9.3854    5.3752  -13.5569 C   0  0  0  0  0  0  0  0  0  0  0  0
    8.8680    4.2411  -14.1378 C   0  0  0  0  0  0  0  0  0  0  0  0
    7.6802    3.6796  -13.6689 C   0  0  0  0  0  0  0  0  0  0  0  0
    7.0729    4.3204  -12.6101 C   0  0  0  0  0  0  0  0  0  0  0  0
    7.5927    5.4546  -12.0310 C   0  0  0  0  0  0  0  0  0  0  0  0
    5.8605    3.5192  -12.3320 C   0  0  0  0  0  0  0  0  0  0  0  0
    5.0229    3.7725  -11.4282 O   0  0  0  0  0  0  0  0  0  0  0  0
    5.8293    2.4118  -13.2840 C   0  0  0  0  0  0  0  0  0  0  0  0
    4.9468    1.3571  -13.4970 C   0  0  0  0  0  0  0  0  0  0  0  0
    5.1855    0.4378  -14.5017 C   0  0  0  0  0  0  0  0  0  0  0  0
    6.2930    0.5231  -15.3263 C   0  0  0  0  0  0  0  0  0  0  0  0
    7.1615    1.5714  -15.1072 C   0  0  0  0  0  0  0  0  0  0  0  0
    6.9346    2.5053  -14.0994 C   0  0  0  0  0  0  0  0  0  0  0  0
    6.5491   -0.4269  -16.3713 N   0  0  0  0  0  0  0  0  0  0  0  0
    7.8578   -0.4210  -17.0231 C   0  0  0  0  0  0  0  0  0  0  0  0
    5.5601   -1.3682  -16.7829 C   0  0  0  0  0  0  0  0  0  0  0  0
    4.5474   -1.5917  -15.7712 N   0  0  0  0  0  0  0  0  0  0  0  0
    4.0102   -2.4808  -15.8271 H   0  0  0  0  0  0  0  0  0  0  0  0
    4.2631   -0.6823  -14.7392 C   0  0  0  0  0  0  0  0  0  0  0  0
    3.2472   -0.7700  -13.9914 O   0  0  0  0  0  0  0  0  0  0  0  0
   11.2525    8.0430   -6.0339 C   0  0  0  0  0  0  0  0  0  0  0  0
   11.4215    9.1992   -6.7950 C   0  0  0  0  0  0  0  0  0  0  0  0
   11.0736    9.2649   -8.1134 C   0  0  0  0  0  0  0  0  0  0  0  0
   10.5380    8.1613   -8.7223 C   0  0  0  0  0  0  0  0  0  0  0  0
   10.3442    6.9704   -8.0079 C   0  0  0  0  0  0  0  0  0  0  0  0
    9.8051    5.8854   -8.6515 C   0  0  0  0  0  0  0  0  0  0  0  0
    9.4704    5.9700   -9.9459 N   0  0  0  0  0  0  0  0  0  0  0  0
    9.6444    7.1034  -10.6627 C   0  0  0  0  0  0  0  0  0  0  0  0
    9.3242    7.1886  -11.9058 N   0  0  0  0  0  0  0  0  0  0  0  0
   10.1729    8.1568  -10.0200 N   0  0  0  0  0  0  0  0  0  0  0  0
   10.3085    9.0408  -10.5792 H   0  0  0  0  0  0  0  0  0  0  0  0
   10.7113    6.9559   -6.6818 C   0  0  0  0  0  0  0  0  0  0  0  0
   12.3677    7.9281   -1.9242 C   0  0  0  0  0  0  0  0  0  0  0  0
   11.9971    6.7724   -2.5776 C   0  0  0  0  0  0  0  0  0  0  0  0
   11.6363    6.8259   -3.9173 C   0  0  0  0  0  0  0  0  0  0  0  0
   11.6339    8.0020   -4.6275 C   0  0  0  0  0  0  0  0  0  0  0  0
   12.0076    9.1475   -3.9567 C   0  0  0  0  0  0  0  0  0  0  0  0
   12.3697    9.1152   -2.6251 C   0  0  0  0  0  0  0  0  0  0  0  0
 34 35  2  0
 35 36  1  0
 36 37  2  0
 37 22  1  0
 22 23  2  0
 23 24  1  0
 24 25  2  0
 25 26  1  0
 26 27  1  0
 27 28  2  0
 28 29  1  0
 29 30  2  0
 30  1  1  0
  1  2  2  0
  2  3  1  0
  3  4  2  0
  4  5  1  0
  5  6  2  0
  5  7  1  0
  7  8  2  0
  7  9  1  0
  9 10  2  0
 10 11  1  0
 11 12  2  0
 12 13  1  0
 13 14  2  0
 12 15  1  0
 15 16  1  0
 15 17  1  0
 17 18  1  0
 18 19  1  0
 18 20  1  0
 20 21  2  0
 29 31  1  0
 31 32  1  0
 26 33  2  0
 37 38  1  0
 38 39  2  0
 39 34  1  0
 33 22  1  0
 31 25  1  0
  6  1  1  0
 14  9  1  0
 14  4  1  0
 20 11  1  0
M  END
>  <minimizedAffinity>  (399) 
-17.00848

$$$$
Mol: 191_16 - SminaDock
     RDKit          3D

 37 43  0  0  0  0  0  0  0  0999 V2000
    4.9293   -2.1934  -16.3208 O   0  0  0  0  0  0  0  0  0  0  0  0
    5.2832   -1.1643  -15.7307 C   0  0  0  0  0  0  0  0  0  0  0  0
    4.5789   -0.5316  -14.7293 C   0  0  0  0  0  0  0  0  0  0  0  0
    3.4607   -0.9027  -14.2560 O   0  0  0  0  0  0  0  0  0  0  0  0
    5.2741    0.5885  -14.3019 C   0  0  0  0  0  0  0  0  0  0  0  0
    5.0265    1.5538  -13.3469 C   0  0  0  0  0  0  0  0  0  0  0  0
    5.9339    2.5816  -13.1412 C   0  0  0  0  0  0  0  0  0  0  0  0
    7.0976    2.6487  -13.8927 C   0  0  0  0  0  0  0  0  0  0  0  0
    7.3021    1.6629  -14.8345 C   0  0  0  0  0  0  0  0  0  0  0  0
    6.4277    0.6309  -15.0665 C   0  0  0  0  0  0  0  0  0  0  0  0
    6.4235   -0.4571  -15.9467 C   0  0  0  0  0  0  0  0  0  0  0  0
    7.3630   -0.6826  -16.7805 O   0  0  0  0  0  0  0  0  0  0  0  0
    7.8411    3.8233  -13.4546 C   0  0  0  0  0  0  0  0  0  0  0  0
    9.0418    4.3843  -13.8311 C   0  0  0  0  0  0  0  0  0  0  0  0
    9.5338    5.5351  -13.2380 C   0  0  0  0  0  0  0  0  0  0  0  0
    8.8309    6.1732  -12.2336 C   0  0  0  0  0  0  0  0  0  0  0  0
    7.6276    5.6181  -11.8505 C   0  0  0  0  0  0  0  0  0  0  0  0
    7.1490    4.4687  -12.4514 C   0  0  0  0  0  0  0  0  0  0  0  0
    5.8970    3.7244  -12.1882 C   0  0  0  0  0  0  0  0  0  0  0  0
    9.3347    7.3569  -11.6230 N   0  0  0  0  0  0  0  0  0  0  0  0
    9.6949    7.3151  -10.3870 C   0  0  0  0  0  0  0  0  0  0  0  0
    9.5872    6.1627   -9.7079 N   0  0  0  0  0  0  0  0  0  0  0  0
    9.9389    6.0440   -8.4300 C   0  0  0  0  0  0  0  0  0  0  0  0
   10.4401    7.1842   -7.7876 C   0  0  0  0  0  0  0  0  0  0  0  0
   10.8232    7.1454   -6.4772 C   0  0  0  0  0  0  0  0  0  0  0  0
   11.3217    8.2267   -5.7910 C   0  0  0  0  0  0  0  0  0  0  0  0
   11.4363    9.4116   -6.4765 C   0  0  0  0  0  0  0  0  0  0  0  0
   11.0542    9.4849   -7.8142 C   0  0  0  0  0  0  0  0  0  0  0  0
   10.5549    8.3720   -8.4748 C   0  0  0  0  0  0  0  0  0  0  0  0
   10.1824    8.4294   -9.7667 N   0  0  0  0  0  0  0  0  0  0  0  0
    9.2098    5.3045  -10.1918 H   0  0  0  0  0  0  0  0  0  0  0  0
   11.7180    8.1462   -4.3979 C   0  0  0  0  0  0  0  0  0  0  0  0
   12.0838    9.2434   -3.6461 C   0  0  0  0  0  0  0  0  0  0  0  0
   12.4524    9.1062   -2.3207 C   0  0  0  0  0  0  0  0  0  0  0  0
   12.4734    7.8807   -1.6897 C   0  0  0  0  0  0  0  0  0  0  0  0
   12.1091    6.7783   -2.4340 C   0  0  0  0  0  0  0  0  0  0  0  0
   11.7432    6.9113   -3.7481 C   0  0  0  0  0  0  0  0  0  0  0  0
  1  2  2  0
  2  3  1  0
  3  4  2  0
  3  5  1  0
  5  6  2  0
  6  7  1  0
  7  8  2  0
  8  9  1  0
  9 10  2  0
 10 11  1  0
 11 12  2  0
  8 13  1  0
 13 14  2  0
 14 15  1  0
 15 16  2  0
 16 20  1  0
 20 21  2  0
 21 22  1  0
 22 23  1  0
 23 24  2  0
 24 25  1  0
 25 26  2  0
 26 32  1  0
 32 33  2  0
 33 34  1  0
 34 35  2  0
 35 36  1  0
 36 37  2  0
 26 27  1  0
 27 28  2  0
 28 29  1  0
 29 30  2  0
 16 17  1  0
 17 18  2  0
 18 19  1  0
 11  2  1  0
 18 13  1  0
 10  5  1  0
 30 21  1  0
 19  7  1  0
 29 24  1  0
 37 32  1  0
 22 31  1  0
M  END
>  <minimizedAffinity>  (400) 
-17.01016

$$$$
Mol: 191_4 - SminaDock
     RDKit          3D

 43 50  0  0  0  0  0  0  0  0999 V2000
    7.3539   -0.9703  -20.8520 C   0  0  0  0  0  0  0  0  0  0  0  0
    8.0325   -0.1708  -20.0454 C   0  0  0  0  0  0  0  0  0  0  0  0
    9.3138    0.5112  -19.9923 C   0  0  0  0  0  0  0  0  0  0  0  0
   10.2867    0.5641  -20.7770 O   0  0  0  0  0  0  0  0  0  0  0  0
    8.9802    1.0732  -18.6941 C   0  0  0  0  0  0  0  0  0  0  0  0
    9.3372    1.8676  -17.6080 C   0  0  0  0  0  0  0  0  0  0  0  0
    8.4883    2.0404  -16.5357 C   0  0  0  0  0  0  0  0  0  0  0  0
    7.2627    1.3914  -16.5795 C   0  0  0  0  0  0  0  0  0  0  0  0
    6.9094    0.6064  -17.6527 C   0  0  0  0  0  0  0  0  0  0  0  0
    7.7597    0.4358  -18.7228 C   0  0  0  0  0  0  0  0  0  0  0  0
    6.3147    1.4771  -15.5708 O   0  0  0  0  0  0  0  0  0  0  0  0
    6.4109    1.6629  -14.1783 C   0  0  1  0  0  0  0  0  0  0  0  0
    7.1091    2.8648  -13.7380 C   0  0  0  0  0  0  0  0  0  0  0  0
    6.5485    3.4851  -12.6455 C   0  0  0  0  0  0  0  0  0  0  0  0
    7.1136    4.6193  -12.1291 C   0  0  0  0  0  0  0  0  0  0  0  0
    8.2507    5.1420  -12.7079 C   0  0  0  0  0  0  0  0  0  0  0  0
    8.8238    4.5338  -13.8013 C   0  0  0  0  0  0  0  0  0  0  0  0
    8.2624    3.3907  -14.3297 C   0  0  0  0  0  0  0  0  0  0  0  0
    9.0050    2.9059  -15.4811 C   0  0  0  0  0  0  0  0  0  0  0  0
   10.2077    3.2533  -15.6003 O   0  0  0  0  0  0  0  0  0  0  0  0
    4.9874    1.5618  -13.6524 C   0  0  0  0  0  0  0  0  0  0  0  0
    4.4185    0.3418  -14.4034 C   0  0  0  0  0  0  0  0  0  0  0  0
    5.0099   -0.7680  -13.8032 O   0  0  0  0  0  0  0  0  0  0  0  0
    6.3676   -0.8317  -13.9765 C   0  0  0  0  0  0  0  0  0  0  0  0
    7.1140    0.4263  -13.5898 C   0  0  0  0  0  0  0  0  0  0  0  0
    8.8261    6.3241  -12.1579 N   0  0  0  0  0  0  0  0  0  0  0  0
    9.2194    6.3456  -10.9349 C   0  0  0  0  0  0  0  0  0  0  0  0
    9.1152    5.2590  -10.0959 C   0  0  0  0  0  0  0  0  0  0  0  0
    9.5491    5.3407   -8.8027 C   0  0  0  0  0  0  0  0  0  0  0  0
   10.0955    6.5277   -8.3419 C   0  0  0  0  0  0  0  0  0  0  0  0
   10.5494    6.6710   -7.0503 C   0  0  0  0  0  0  0  0  0  0  0  0
   11.0950    7.8541   -6.5872 C   0  0  0  0  0  0  0  0  0  0  0  0
   11.1896    8.9294   -7.4446 C   0  0  0  0  0  0  0  0  0  0  0  0
   10.7342    8.7843   -8.7389 C   0  0  0  0  0  0  0  0  0  0  0  0
   10.1842    7.5948   -9.2095 C   0  0  0  0  0  0  0  0  0  0  0  0
    9.7523    7.4889  -10.4704 N   0  0  0  0  0  0  0  0  0  0  0  0
    9.8521    8.3426  -11.0730 H   0  0  0  0  0  0  0  0  0  0  0  0
   11.5684    7.9847   -5.2198 C   0  0  0  0  0  0  0  0  0  0  0  0
   11.4426    6.8807   -4.3752 C   0  0  0  0  0  0  0  0  0  0  0  0
   11.8618    6.9068   -3.0626 C   0  0  0  0  0  0  0  0  0  0  0  0
   12.4294    8.0665   -2.5555 C   0  0  0  0  0  0  0  0  0  0  0  0
   12.5514    9.1522   -3.3917 C   0  0  0  0  0  0  0  0  0  0  0  0
   12.1331    9.1339   -4.7103 C   0  0  0  0  0  0  0  0  0  0  0  0
  1  2  2  0
  2  3  1  0
  3  4  2  0
  3  5  1  0
  5  6  2  0
  6  7  1  0
  7  8  2  0
  8  9  1  0
  9 10  2  0
  8 11  1  0
 11 12  1  0
 12 13  1  0
 13 14  2  0
 14 15  1  0
 15 16  2  0
 16 26  1  0
 26 27  2  0
 27 28  1  0
 28 29  2  0
 29 30  1  0
 30 31  2  0
 31 32  1  0
 32 38  1  0
 38 39  2  0
 39 40  1  0
 40 41  2  0
 41 42  1  0
 42 43  2  0
 32 33  2  0
 33 34  1  0
 34 35  2  0
 35 36  1  0
 36 37  1  0
 16 17  1  0
 17 18  2  0
 18 19  1  0
 19 20  2  0
 12 21  1  1
 21 22  1  0
 22 23  1  0
 23 24  1  0
 24 25  1  0
 10  2  1  0
 25 12  1  0
 10  5  1  0
 18 13  1  0
 19  7  1  0
 36 27  1  0
 35 30  1  0
 43 38  1  0
M  END
>  <minimizedAffinity>  (401) 
-16.98999

$$$$
Mol: 113_15 - SminaDock
     RDKit          3D

 42 48  0  0  0  0  0  0  0  0999 V2000
    7.8848    4.4932  -13.0420 C   0  0  0  0  0  0  0  0  0  0  0  0
    6.5984    4.2732  -12.6108 C   0  0  0  0  0  0  0  0  0  0  0  0
    5.8558    3.1797  -12.9944 C   0  0  0  0  0  0  0  0  0  0  0  0
    6.4234    2.2622  -13.8490 C   0  0  0  0  0  0  0  0  0  0  0  0
    7.7027    2.4361  -14.3124 C   0  0  0  0  0  0  0  0  0  0  0  0
    8.4250    3.5658  -13.8932 C   0  0  0  0  0  0  0  0  0  0  0  0
    8.2957    1.5274  -15.3123 C   0  0  2  0  0  0  0  0  0  0  0  0
    9.7789    1.4933  -15.1074 C   0  0  0  0  0  0  0  0  0  0  0  0
   10.2628    0.6890  -14.2527 O   0  0  0  0  0  0  0  0  0  0  0  0
   10.6955    2.3095  -15.8124 N   0  0  0  0  0  0  0  0  0  0  0  0
   11.6952    2.3882  -15.4800 H   0  0  0  0  0  0  0  0  0  0  0  0
   10.2704    3.0102  -16.9506 C   0  0  0  0  0  0  0  0  0  0  0  0
   11.0391    3.7434  -17.6079 O   0  0  0  0  0  0  0  0  0  0  0  0
    8.9243    2.8906  -17.3799 N   0  0  0  0  0  0  0  0  0  0  0  0
    8.5904    3.4193  -18.2441 H   0  0  0  0  0  0  0  0  0  0  0  0
    8.0019    2.0772  -16.6817 C   0  0  0  0  0  0  0  0  0  0  0  0
    6.9087    1.8117  -17.2287 O   0  0  0  0  0  0  0  0  0  0  0  0
    7.7531    0.1562  -15.2374 C   0  0  0  0  0  0  0  0  0  0  0  0
    6.3121    0.0630  -14.9291 C   0  0  0  0  0  0  0  0  0  0  0  0
    5.5830   -1.0606  -15.3281 C   0  0  0  0  0  0  0  0  0  0  0  0
    4.2708   -1.1551  -14.9456 C   0  0  0  0  0  0  0  0  0  0  0  0
    3.6416   -0.2004  -14.1914 C   0  0  0  0  0  0  0  0  0  0  0  0
    4.3716    0.9286  -13.7920 C   0  0  0  0  0  0  0  0  0  0  0  0
    5.6826    1.0295  -14.1722 C   0  0  0  0  0  0  0  0  0  0  0  0
   10.9900    7.5591   -7.1385 C   0  0  0  0  0  0  0  0  0  0  0  0
   11.2587    8.4703   -8.1598 C   0  0  0  0  0  0  0  0  0  0  0  0
   10.8326    8.2516   -9.4494 C   0  0  0  0  0  0  0  0  0  0  0  0
   10.1243    7.1294   -9.7926 C   0  0  0  0  0  0  0  0  0  0  0  0
    9.7093    6.9192  -11.0552 N   0  0  0  0  0  0  0  0  0  0  0  0
    9.0143    5.8214  -11.4005 C   0  0  0  0  0  0  0  0  0  0  0  0
    8.6184    5.6290  -12.6251 N   0  0  0  0  0  0  0  0  0  0  0  0
    8.7388    4.9235  -10.4399 N   0  0  0  0  0  0  0  0  0  0  0  0
    8.2057    4.0654  -10.6708 H   0  0  0  0  0  0  0  0  0  0  0  0
    9.1375    5.0920   -9.1472 C   0  0  0  0  0  0  0  0  0  0  0  0
    9.8507    6.2161   -8.7874 C   0  0  0  0  0  0  0  0  0  0  0  0
   10.2775    6.4318   -7.4873 C   0  0  0  0  0  0  0  0  0  0  0  0
   12.3529    8.3487   -3.2263 C   0  0  0  0  0  0  0  0  0  0  0  0
   11.7337    7.1469   -3.5214 C   0  0  0  0  0  0  0  0  0  0  0  0
   11.2989    6.9091   -4.7926 C   0  0  0  0  0  0  0  0  0  0  0  0
   11.4502    7.8160   -5.7974 C   0  0  0  0  0  0  0  0  0  0  0  0
   12.0759    9.0313   -5.5005 C   0  0  0  0  0  0  0  0  0  0  0  0
   12.5134    9.2698   -4.2195 C   0  0  0  0  0  0  0  0  0  0  0  0
 37 38  2  0
 38 39  1  0
 39 40  2  0
 40 25  1  0
 25 26  1  0
 26 27  2  0
 27 28  1  0
 28 29  2  0
 29 30  1  0
 30 31  2  0
 31  1  1  0
  1  2  2  0
  2  3  1  0
  3  4  2  0
  4  5  1  0
  5  6  2  0
  5  7  1  0
  7  8  1  0
  8  9  2  0
  8 10  1  0
 10 11  1  0
 10 12  1  0
 12 13  2  0
 12 14  1  0
 14 15  1  0
 14 16  1  0
 16 17  2  0
  7 18  1  6
 18 19  1  0
 19 20  2  0
 20 21  1  0
 21 22  2  0
 22 23  1  0
 23 24  2  0
 30 32  1  0
 32 33  1  0
 32 34  1  0
 34 35  2  0
 35 36  1  0
 40 41  1  0
 41 42  2  0
 42 37  1  0
 36 25  2  0
 35 28  1  0
  6  1  1  0
 16  7  1  0
 24 19  1  0
 24  4  1  0
M  END
>  <minimizedAffinity>  (402) 
-17.03314

$$$$
Mol: 112_41 - SminaDock
     RDKit          3D

 49 55  0  0  0  0  0  0  0  0999 V2000
    6.8927    5.8639  -10.2447 H   0  0  0  0  0  0  0  0  0  0  0  0
    6.6002    5.7561  -11.2145 O   0  0  0  0  0  0  0  0  0  0  0  0
    7.6411    5.2999  -12.0745 C   0  0  0  0  0  0  0  0  0  0  0  0
    7.3874    4.2537  -12.7998 C   0  0  0  0  0  0  0  0  0  0  0  0
    8.3070    3.7167  -13.6685 C   0  0  0  0  0  0  0  0  0  0  0  0
    8.1716    2.8412  -14.7565 C   0  0  0  0  0  0  0  0  0  0  0  0
    7.1246    1.9628  -14.9331 C   0  0  0  0  0  0  0  0  0  0  0  0
    6.0066    1.7546  -14.1080 C   0  0  0  0  0  0  0  0  0  0  0  0
    5.5854    2.4949  -13.0186 C   0  0  0  0  0  0  0  0  0  0  0  0
    6.1068    3.7063  -12.6275 C   0  0  0  0  0  0  0  0  0  0  0  0
    5.3124    4.4554  -12.0149 O   0  0  0  0  0  0  0  0  0  0  0  0
    6.7531    1.0510  -15.8306 C   0  0  0  0  0  0  0  0  0  0  0  0
    7.2019    0.4657  -17.0977 C   0  0  0  0  0  0  0  0  0  0  0  0
    8.6493    0.5990  -17.3531 C   0  0  0  0  0  0  0  0  0  0  0  0
    9.1253   -0.6394  -17.7184 C   0  0  0  0  0  0  0  0  0  0  0  0
   10.4505   -0.8544  -18.0289 C   0  0  0  0  0  0  0  0  0  0  0  0
   11.3242    0.2155  -17.9687 C   0  0  0  0  0  0  0  0  0  0  0  0
   10.8927    1.4764  -17.6070 C   0  0  0  0  0  0  0  0  0  0  0  0
    9.5609    1.6499  -17.3040 C   0  0  0  0  0  0  0  0  0  0  0  0
    9.3600    3.0716  -16.9525 C   0  0  0  0  0  0  0  0  0  0  0  0
    9.4173    3.2423  -15.4272 C   0  0  1  0  0  0  0  0  0  0  0  0
    9.6330    4.6897  -15.2270 C   0  0  0  0  0  0  0  0  0  0  0  0
    8.6479    5.4498  -15.1950 O   0  0  0  0  0  0  0  0  0  0  0  0
   10.9317    5.2034  -15.0768 N   0  0  0  0  0  0  0  0  0  0  0  0
   11.1626    6.2356  -15.1021 H   0  0  0  0  0  0  0  0  0  0  0  0
   12.0750    4.3572  -14.8736 C   0  0  0  0  0  0  0  0  0  0  0  0
   13.2371    4.8183  -14.7403 O   0  0  0  0  0  0  0  0  0  0  0  0
   11.8483    2.9611  -14.8268 N   0  0  0  0  0  0  0  0  0  0  0  0
   12.6481    2.2884  -14.6809 H   0  0  0  0  0  0  0  0  0  0  0  0
   10.5644    2.4177  -14.9718 C   0  0  0  0  0  0  0  0  0  0  0  0
   10.3911    1.1993  -14.7052 O   0  0  0  0  0  0  0  0  0  0  0  0
    8.8194    6.0640  -12.0105 N   0  0  0  0  0  0  0  0  0  0  0  0
    9.2926    6.3828  -12.8575 H   0  0  0  0  0  0  0  0  0  0  0  0
    9.4173    6.4259  -10.7501 C   0  0  0  0  0  0  0  0  0  0  0  0
    9.2856    5.6728   -9.6094 C   0  0  0  0  0  0  0  0  0  0  0  0
    9.8427    6.0755   -8.4173 C   0  0  0  0  0  0  0  0  0  0  0  0
   10.5634    7.2626   -8.3131 C   0  0  0  0  0  0  0  0  0  0  0  0
   10.6992    8.0197   -9.4552 C   0  0  0  0  0  0  0  0  0  0  0  0
   10.1292    7.6037  -10.6670 C   0  0  0  0  0  0  0  0  0  0  0  0
   11.1261    7.6858   -7.0366 C   0  0  0  0  0  0  0  0  0  0  0  0
   11.7479    8.9306   -6.9892 C   0  0  0  0  0  0  0  0  0  0  0  0
   12.2805    9.4082   -5.8043 C   0  0  0  0  0  0  0  0  0  0  0  0
   12.2245    8.6864   -4.6274 C   0  0  0  0  0  0  0  0  0  0  0  0
   12.7461    9.1689   -3.4464 C   0  0  0  0  0  0  0  0  0  0  0  0
   12.6758    8.4389   -2.2643 C   0  0  0  0  0  0  0  0  0  0  0  0
   12.0608    7.1971   -2.3026 C   0  0  0  0  0  0  0  0  0  0  0  0
   11.5403    6.7291   -3.5066 C   0  0  0  0  0  0  0  0  0  0  0  0
   11.6051    7.4454   -4.6789 C   0  0  0  0  0  0  0  0  0  0  0  0
   11.0682    6.9644   -5.8716 C   0  0  0  0  0  0  0  0  0  0  0  0
  1  2  1  0
  2  3  1  0
  3  4  2  0
  4  5  1  0
  5  6  2  0
  6  7  1  0
  7  8  1  0
  8  9  2  0
  9 10  1  0
 10 11  2  0
  7 12  2  0
 12 13  1  0
 13 14  1  0
 14 15  2  0
 15 16  1  0
 16 17  2  0
 17 18  1  0
 18 19  2  0
 19 20  1  0
 21 20  1  6
 21 22  1  0
 22 23  2  0
 22 24  1  0
 24 25  1  0
 24 26  1  0
 26 27  2  0
 26 28  1  0
 28 29  1  0
 28 30  1  0
 30 31  2  0
  3 32  1  0
 32 33  1  0
 32 34  1  0
 34 35  2  0
 35 36  1  0
 36 37  2  0
 37 40  1  0
 40 41  2  0
 41 42  1  0
 42 43  2  0
 43 44  1  0
 44 45  2  0
 45 46  1  0
 46 47  2  0
 47 48  1  0
 48 49  2  0
 37 38  1  0
 38 39  2  0
 10  4  1  0
 19 14  1  0
 30 21  1  0
 39 34  1  0
 21  6  1  0
 49 40  1  0
 48 43  1  0
M  END
>  <minimizedAffinity>  (403) 
-17.00817

$$$$
Mol: 146_51 - SminaDock
     RDKit          3D

 36 42  0  0  0  0  0  0  0  0999 V2000
    4.5102   -1.4163  -15.2869 C   0  0  0  0  0  0  0  0  0  0  0  0
    5.7614   -1.0420  -15.5629 N   0  0  0  0  0  0  0  0  0  0  0  0
    6.2965    0.1028  -15.0401 C   0  0  0  0  0  0  0  0  0  0  0  0
    7.5876    0.4600  -15.3414 C   0  0  0  0  0  0  0  0  0  0  0  0
    8.0822    1.6406  -14.7765 C   0  0  0  0  0  0  0  0  0  0  0  0
    7.3051    2.4238  -13.9450 C   0  0  0  0  0  0  0  0  0  0  0  0
    6.0175    2.0241  -13.6720 C   0  0  0  0  0  0  0  0  0  0  0  0
    5.4803    0.8415  -14.2206 C   0  0  0  0  0  0  0  0  0  0  0  0
    4.1875    0.4641  -13.9291 C   0  0  0  0  0  0  0  0  0  0  0  0
    3.6789   -0.7040  -14.4779 C   0  0  0  0  0  0  0  0  0  0  0  0
    5.1411    2.7665  -12.7890 C   0  0  0  0  0  0  0  0  0  0  0  0
    5.5747    4.0665  -12.3198 C   0  0  0  0  0  0  0  0  0  0  0  0
    6.9816    4.4094  -12.5910 C   0  0  0  0  0  0  0  0  0  0  0  0
    7.5262    5.5841  -12.0393 C   0  0  0  0  0  0  0  0  0  0  0  0
    8.8157    5.9899  -12.2636 C   0  0  0  0  0  0  0  0  0  0  0  0
    9.6106    5.2092  -13.0658 C   0  0  0  0  0  0  0  0  0  0  0  0
    9.1259    4.0282  -13.6434 C   0  0  0  0  0  0  0  0  0  0  0  0
    7.8298    3.6739  -13.3829 C   0  0  0  0  0  0  0  0  0  0  0  0
    9.2737    7.1939  -11.6606 N   0  0  0  0  0  0  0  0  0  0  0  0
    9.6343    7.1283  -10.4231 C   0  0  0  0  0  0  0  0  0  0  0  0
    9.5901    5.9884   -9.7117 N   0  0  0  0  0  0  0  0  0  0  0  0
    9.9641    5.9036   -8.4203 C   0  0  0  0  0  0  0  0  0  0  0  0
   10.4243    7.0272   -7.7541 C   0  0  0  0  0  0  0  0  0  0  0  0
   10.8205    6.9960   -6.4327 C   0  0  0  0  0  0  0  0  0  0  0  0
   11.2804    8.1164   -5.7685 C   0  0  0  0  0  0  0  0  0  0  0  0
   11.3268    9.2885   -6.4974 C   0  0  0  0  0  0  0  0  0  0  0  0
   10.9319    9.3273   -7.8194 C   0  0  0  0  0  0  0  0  0  0  0  0
   10.4725    8.1998   -8.4770 C   0  0  0  0  0  0  0  0  0  0  0  0
   10.0865    8.2269   -9.7645 N   0  0  0  0  0  0  0  0  0  0  0  0
   10.1292    9.1334  -10.3058 H   0  0  0  0  0  0  0  0  0  0  0  0
   11.7012    8.0842   -4.3689 C   0  0  0  0  0  0  0  0  0  0  0  0
   12.0574    9.2298   -3.6839 C   0  0  0  0  0  0  0  0  0  0  0  0
   12.4578    9.2279   -2.3635 C   0  0  0  0  0  0  0  0  0  0  0  0
   12.5129    8.0346   -1.6728 C   0  0  0  0  0  0  0  0  0  0  0  0
   12.1609    6.8686   -2.3359 C   0  0  0  0  0  0  0  0  0  0  0  0
   11.7577    6.8934   -3.6752 C   0  0  0  0  0  0  0  0  0  0  0  0
  1  2  2  0
  2  3  1  0
  3  4  2  0
  4  5  1  0
  5  6  2  0
  6  7  1  0
  7  8  2  0
  8  9  1  0
  9 10  2  0
  7 11  1  0
 11 12  1  0
 12 13  1  0
 13 14  2  0
 14 15  1  0
 15 19  1  0
 19 20  2  0
 20 21  1  0
 21 22  2  0
 22 23  1  0
 23 24  2  0
 24 25  1  0
 25 31  1  0
 31 32  2  0
 32 33  1  0
 33 34  2  0
 34 35  1  0
 35 36  2  0
 25 26  2  0
 26 27  1  0
 27 28  2  0
 28 29  1  0
 29 30  1  0
 15 16  2  0
 16 17  1  0
 17 18  2  0
 10  1  1  0
 18 13  1  0
  8  3  1  0
 29 20  1  0
 18  6  1  0
 28 23  1  0
 36 31  1  0
M  END
>  <minimizedAffinity>  (404) 
-16.99672

$$$$
Mol: 172_4 - SminaDock
     RDKit          3D

 39 45  0  0  0  0  0  0  0  0999 V2000
    8.8211    6.1028  -12.3189 C   0  0  0  0  0  0  0  0  0  0  0  0
    9.4460    5.4477  -13.3495 C   0  0  0  0  0  0  0  0  0  0  0  0
    8.8761    4.3473  -14.0088 C   0  0  0  0  0  0  0  0  0  0  0  0
    7.6367    3.9016  -13.6091 C   0  0  0  0  0  0  0  0  0  0  0  0
    7.0054    4.5566  -12.5773 C   0  0  0  0  0  0  0  0  0  0  0  0
    7.5899    5.6568  -11.9261 C   0  0  0  0  0  0  0  0  0  0  0  0
    5.6508    4.1371  -12.1661 C   0  0  0  0  0  0  0  0  0  0  0  0
    5.1841    2.8466  -12.6481 C   0  0  0  0  0  0  0  0  0  0  0  0
    5.8477    2.2528  -13.8129 C   0  0  0  0  0  0  0  0  0  0  0  0
    5.2823    1.1607  -14.4693 C   0  0  0  0  0  0  0  0  0  0  0  0
    5.9196    0.5676  -15.5327 C   0  0  0  0  0  0  0  0  0  0  0  0
    7.1351    1.0174  -15.9975 C   0  0  0  0  0  0  0  0  0  0  0  0
    7.6830    2.0980  -15.3415 C   0  0  0  0  0  0  0  0  0  0  0  0
    7.0578    2.7238  -14.2560 C   0  0  0  0  0  0  0  0  0  0  0  0
    7.7600    0.3685  -17.0928 N   0  0  0  0  0  0  0  0  0  0  0  0
    9.0560    0.8254  -17.5606 C   0  0  0  0  0  0  0  0  0  0  0  0
    7.1504   -0.7387  -17.7612 C   0  0  0  0  0  0  0  0  0  0  0  0
    5.8927   -1.1353  -17.2107 N   0  0  0  0  0  0  0  0  0  0  0  0
    5.2186   -2.2722  -17.8338 C   0  0  0  0  0  0  0  0  0  0  0  0
    5.2942   -0.5846  -16.2117 C   0  0  0  0  0  0  0  0  0  0  0  0
    3.9767   -1.0861  -15.7243 C   0  0  0  0  0  0  0  0  0  0  0  0
   11.3792    8.0561   -5.8738 C   0  0  0  0  0  0  0  0  0  0  0  0
   11.6933    9.1593   -6.6401 C   0  0  0  0  0  0  0  0  0  0  0  0
   11.3852    9.2435   -7.9764 C   0  0  0  0  0  0  0  0  0  0  0  0
   10.7288    8.1568   -8.5582 C   0  0  0  0  0  0  0  0  0  0  0  0
   10.4205    8.2118   -9.8620 N   0  0  0  0  0  0  0  0  0  0  0  0
    9.7829    7.1654  -10.4618 C   0  0  0  0  0  0  0  0  0  0  0  0
    9.4822    7.2012  -11.7121 N   0  0  0  0  0  0  0  0  0  0  0  0
    9.4702    6.0864   -9.7297 N   0  0  0  0  0  0  0  0  0  0  0  0
    8.9764    5.2459  -10.1216 H   0  0  0  0  0  0  0  0  0  0  0  0
    9.7690    6.0027   -8.4109 C   0  0  0  0  0  0  0  0  0  0  0  0
   10.4138    7.0542   -7.7960 C   0  0  0  0  0  0  0  0  0  0  0  0
   10.7401    6.9961   -6.4354 C   0  0  0  0  0  0  0  0  0  0  0  0
   12.4414    7.9988   -1.7877 C   0  0  0  0  0  0  0  0  0  0  0  0
   12.1083    6.8162   -2.4036 C   0  0  0  0  0  0  0  0  0  0  0  0
   11.7628    6.8520   -3.7357 C   0  0  0  0  0  0  0  0  0  0  0  0
   11.7412    8.0328   -4.4673 C   0  0  0  0  0  0  0  0  0  0  0  0
   12.0821    9.2280   -3.8276 C   0  0  0  0  0  0  0  0  0  0  0  0
   12.4244    9.1944   -2.5089 C   0  0  0  0  0  0  0  0  0  0  0  0
 34 35  2  0
 35 36  1  0
 36 37  2  0
 37 22  1  0
 22 23  1  0
 23 24  2  0
 24 25  1  0
 25 26  2  0
 26 27  1  0
 27 28  2  0
 28  1  1  0
  1  2  2  0
  2  3  1  0
  3  4  2  0
  4  5  1  0
  5  6  2  0
  5  7  1  0
  7  8  1  0
  8  9  1  0
  9 10  2  0
 10 11  1  0
 11 12  2  0
 12 13  1  0
 13 14  2  0
 12 15  1  0
 15 16  1  0
 15 17  1  0
 17 18  1  0
 18 19  1  0
 18 20  2  0
 20 21  1  0
 27 29  1  0
 29 30  1  0
 29 31  1  0
 31 32  2  0
 32 33  1  0
 37 38  1  0
 38 39  2  0
 39 34  1  0
 33 22  2  0
 32 25  1  0
  6  1  1  0
 14  9  1  0
 14  4  1  0
 20 11  1  0
M  CHG  1  18   1
M  END
>  <minimizedAffinity>  (405) 
-16.99921

$$$$
Mol: 145_5 - SminaDock
     RDKit          3D

 39 45  0  0  0  0  0  0  0  0999 V2000
    8.8272    5.8202  -12.4455 C   0  0  0  0  0  0  0  0  0  0  0  0
    9.3962    5.0264  -13.4133 C   0  0  0  0  0  0  0  0  0  0  0  0
    8.7396    3.9294  -13.9789 C   0  0  0  0  0  0  0  0  0  0  0  0
    7.4629    3.6304  -13.5461 C   0  0  0  0  0  0  0  0  0  0  0  0
    6.8815    4.4138  -12.5843 C   0  0  0  0  0  0  0  0  0  0  0  0
    7.5579    5.5178  -12.0213 C   0  0  0  0  0  0  0  0  0  0  0  0
    5.4938    4.1812  -12.1572 C   0  0  0  0  0  0  0  0  0  0  0  0
    4.9671    2.8224  -12.3953 C   0  0  0  0  0  0  0  0  0  0  0  0
    5.5228    2.0986  -13.5377 C   0  0  0  0  0  0  0  0  0  0  0  0
    4.8236    1.0203  -14.0634 C   0  0  0  0  0  0  0  0  0  0  0  0
    5.3784    0.2904  -15.0945 C   0  0  0  0  0  0  0  0  0  0  0  0
    6.6167    0.6405  -15.5879 C   0  0  0  0  0  0  0  0  0  0  0  0
    7.3282    1.7232  -15.0681 C   0  0  0  0  0  0  0  0  0  0  0  0
    6.7570    2.4332  -14.0464 C   0  0  0  0  0  0  0  0  0  0  0  0
    7.2123   -0.0837  -16.6394 N   0  0  0  0  0  0  0  0  0  0  0  0
    8.1675    0.1958  -17.0113 H   0  0  0  0  0  0  0  0  0  0  0  0
    6.5674   -1.2003  -17.2346 C   0  0  0  0  0  0  0  0  0  0  0  0
    6.9960   -1.6412  -18.3440 O   0  0  0  0  0  0  0  0  0  0  0  0
    5.3929   -1.8414  -16.5476 C   0  0  0  0  0  0  0  0  0  0  0  0
    4.7057   -0.8518  -15.6950 C   0  0  0  0  0  0  0  0  0  0  0  0
    3.4711   -1.0148  -15.4829 O   0  0  0  0  0  0  0  0  0  0  0  0
   11.3822    7.9383   -5.9934 C   0  0  0  0  0  0  0  0  0  0  0  0
   11.7254    8.9979   -6.8051 C   0  0  0  0  0  0  0  0  0  0  0  0
   11.4373    9.0447   -8.1524 C   0  0  0  0  0  0  0  0  0  0  0  0
   10.7737    7.9948   -8.7469 C   0  0  0  0  0  0  0  0  0  0  0  0
   10.4197    6.9229   -7.9558 C   0  0  0  0  0  0  0  0  0  0  0  0
    9.7498    5.8564   -8.5401 C   0  0  0  0  0  0  0  0  0  0  0  0
    9.4665    5.8979   -9.8539 N   0  0  0  0  0  0  0  0  0  0  0  0
    9.8154    6.9489  -10.6220 C   0  0  0  0  0  0  0  0  0  0  0  0
    9.5199    6.9400  -11.8784 N   0  0  0  0  0  0  0  0  0  0  0  0
   10.4568    7.9680  -10.0578 N   0  0  0  0  0  0  0  0  0  0  0  0
   10.7293    8.7827  -10.6446 H   0  0  0  0  0  0  0  0  0  0  0  0
   10.7179    6.8890   -6.5925 C   0  0  0  0  0  0  0  0  0  0  0  0
   12.4008    8.0596   -1.8408 C   0  0  0  0  0  0  0  0  0  0  0  0
   12.0373    6.8747   -2.4468 C   0  0  0  0  0  0  0  0  0  0  0  0
   11.7100    6.8439   -3.7870 C   0  0  0  0  0  0  0  0  0  0  0  0
   11.7290    7.9786   -4.5781 C   0  0  0  0  0  0  0  0  0  0  0  0
   12.0926    9.1632   -3.9719 C   0  0  0  0  0  0  0  0  0  0  0  0
   12.4216    9.1943   -2.6249 C   0  0  0  0  0  0  0  0  0  0  0  0
 34 35  2  0
 35 36  1  0
 36 37  2  0
 37 22  1  0
 22 23  2  0
 23 24  1  0
 24 25  2  0
 25 26  1  0
 26 27  1  0
 27 28  2  0
 28 29  1  0
 29 30  2  0
 30  1  1  0
  1  2  2  0
  2  3  1  0
  3  4  2  0
  4  5  1  0
  5  6  2  0
  5  7  1  0
  7  8  1  0
  8  9  1  0
  9 10  2  0
 10 11  1  0
 11 12  2  0
 12 13  1  0
 13 14  2  0
 12 15  1  0
 15 16  1  0
 15 17  1  0
 17 18  2  0
 17 19  1  0
 19 20  1  0
 20 21  2  0
 29 31  1  0
 31 32  1  0
 26 33  2  0
 37 38  1  0
 38 39  2  0
 39 34  1  0
 33 22  1  0
 31 25  1  0
  6  1  1  0
 14  9  1  0
 14  4  1  0
 20 11  1  0
M  END
>  <minimizedAffinity>  (406) 
-16.98825

$$$$
Mol: 102_45 - SminaDock
     RDKit          3D

 39 45  0  0  0  0  0  0  0  0999 V2000
    8.4088    5.2574  -12.3323 C   0  0  0  0  0  0  0  0  0  0  0  0
    7.1204    5.1775  -11.8530 C   0  0  0  0  0  0  0  0  0  0  0  0
    6.2388    4.2475  -12.3398 C   0  0  0  0  0  0  0  0  0  0  0  0
    6.6681    3.3894  -13.3236 C   0  0  0  0  0  0  0  0  0  0  0  0
    7.9585    3.4023  -13.8692 C   0  0  0  0  0  0  0  0  0  0  0  0
    8.7942    4.3621  -13.3326 C   0  0  0  0  0  0  0  0  0  0  0  0
    8.6196    2.6015  -14.9129 C   0  0  1  0  0  0  0  0  0  0  0  0
    7.7478    1.9109  -15.8897 C   0  0  0  0  0  0  0  0  0  0  0  0
    6.7327    0.9750  -15.3811 C   0  0  0  0  0  0  0  0  0  0  0  0
    6.7412   -0.2835  -15.9623 C   0  0  0  0  0  0  0  0  0  0  0  0
    5.8044   -1.2419  -15.5714 C   0  0  0  0  0  0  0  0  0  0  0  0
    4.8457   -0.9733  -14.6021 C   0  0  0  0  0  0  0  0  0  0  0  0
    4.8296    0.2602  -14.0252 C   0  0  0  0  0  0  0  0  0  0  0  0
    5.7722    1.1972  -14.4300 C   0  0  0  0  0  0  0  0  0  0  0  0
    5.5998    2.4386  -13.6855 C   0  0  0  0  0  0  0  0  0  0  0  0
    4.4232    2.7336  -13.3090 O   0  0  0  0  0  0  0  0  0  0  0  0
    9.4590    3.5745  -15.7693 C   0  0  0  0  0  0  0  0  0  0  0  0
    9.9997    2.8482  -16.9916 C   0  0  0  0  0  0  0  0  0  0  0  0
   10.7618    1.6276  -16.6573 C   0  0  0  0  0  0  0  0  0  0  0  0
   10.2719    0.8559  -15.4799 C   0  0  0  0  0  0  0  0  0  0  0  0
    9.6570    1.6345  -14.3735 C   0  0  0  0  0  0  0  0  0  0  0  0
   11.4581    7.8268   -6.2240 C   0  0  0  0  0  0  0  0  0  0  0  0
   11.9993    8.6848   -7.1644 C   0  0  0  0  0  0  0  0  0  0  0  0
   11.6518    8.5067   -8.4856 C   0  0  0  0  0  0  0  0  0  0  0  0
   10.7751    7.4852   -8.8635 C   0  0  0  0  0  0  0  0  0  0  0  0
   10.2285    6.6230   -7.9368 C   0  0  0  0  0  0  0  0  0  0  0  0
   10.5953    6.8231   -6.6058 C   0  0  0  0  0  0  0  0  0  0  0  0
    9.3622    5.6158   -8.2978 C   0  0  0  0  0  0  0  0  0  0  0  0
    9.0402    5.4773   -9.6285 C   0  0  0  0  0  0  0  0  0  0  0  0
    9.5905    6.3432  -10.5450 C   0  0  0  0  0  0  0  0  0  0  0  0
    9.2858    6.2281  -11.8082 N   0  0  0  0  0  0  0  0  0  0  0  0
   10.4358    7.3179  -10.1546 N   0  0  0  0  0  0  0  0  0  0  0  0
   10.8536    7.9782  -10.8666 H   0  0  0  0  0  0  0  0  0  0  0  0
   12.3279    8.1271   -2.0500 C   0  0  0  0  0  0  0  0  0  0  0  0
   11.9664    6.9284   -2.6226 C   0  0  0  0  0  0  0  0  0  0  0  0
   11.6841    6.8339   -3.9884 C   0  0  0  0  0  0  0  0  0  0  0  0
   11.7601    7.9409   -4.8034 C   0  0  0  0  0  0  0  0  0  0  0  0
   12.1228    9.1428   -4.2301 C   0  0  0  0  0  0  0  0  0  0  0  0
   12.4039    9.2343   -2.8663 C   0  0  0  0  0  0  0  0  0  0  0  0
 34 35  2  0
 35 36  1  0
 36 37  2  0
 37 22  1  0
 22 23  2  0
 23 24  1  0
 24 25  2  0
 25 26  1  0
 26 27  2  0
 26 28  1  0
 28 29  2  0
 29 30  1  0
 30 31  2  0
 31  1  1  0
  1  2  2  0
  2  3  1  0
  3  4  2  0
  4  5  1  0
  5  6  2  0
  5  7  1  0
  7  8  1  6
  8  9  1  0
  9 10  2  0
 10 11  1  0
 11 12  2  0
 12 13  1  0
 13 14  2  0
 14 15  1  0
 15 16  2  0
  7 17  1  0
 17 18  1  0
 18 19  1  0
 19 20  1  0
 20 21  1  0
 30 32  1  0
 32 33  1  0
 37 38  1  0
 38 39  2  0
 39 34  1  0
 27 22  1  0
  6  1  1  0
 21  7  1  0
 32 25  1  0
 15  4  1  0
 14  9  1  0
M  END
>  <minimizedAffinity>  (407) 
-17.03561

$$$$
Mol: 141_61 - SminaDock
     RDKit          3D

 38 44  0  0  0  0  0  0  0  0999 V2000
    9.1972    5.3193  -13.8003 N   0  0  0  0  0  0  0  0  0  0  0  0
    9.5585    5.8234  -12.6800 C   0  0  0  0  0  0  0  0  0  0  0  0
    9.0840    5.3403  -11.5142 N   0  0  0  0  0  0  0  0  0  0  0  0
    9.4464    5.8500  -10.3235 C   0  0  0  0  0  0  0  0  0  0  0  0
    8.9762    5.3744   -9.1178 C   0  0  0  0  0  0  0  0  0  0  0  0
    9.3948    5.9502   -7.9291 C   0  0  0  0  0  0  0  0  0  0  0  0
   10.2816    7.0024   -7.9011 C   0  0  0  0  0  0  0  0  0  0  0  0
   10.7478    7.4732   -9.1107 C   0  0  0  0  0  0  0  0  0  0  0  0
   10.3345    6.9031  -10.3048 C   0  0  0  0  0  0  0  0  0  0  0  0
   10.8251    7.4036  -11.4970 C   0  0  0  0  0  0  0  0  0  0  0  0
   10.4347    6.8623  -12.6632 N   0  0  0  0  0  0  0  0  0  0  0  0
   10.7890    7.2202  -13.5752 H   0  0  0  0  0  0  0  0  0  0  0  0
    5.9620   -2.2532  -16.8463 H   0  0  0  0  0  0  0  0  0  0  0  0
    5.5657   -2.3676  -15.9076 O   0  0  0  0  0  0  0  0  0  0  0  0
    5.2135   -1.2707  -15.1351 C   0  0  0  0  0  0  0  0  0  0  0  0
    4.0610   -1.2101  -14.4567 N   0  0  0  0  0  0  0  0  0  0  0  0
    3.7119   -0.1766  -13.7189 N   0  0  0  0  0  0  0  0  0  0  0  0
    4.4986    0.9215  -13.5828 C   0  0  0  0  0  0  0  0  0  0  0  0
    5.6971    0.9362  -14.2458 C   0  0  0  0  0  0  0  0  0  0  0  0
    6.0562   -0.1472  -15.0189 C   0  0  0  0  0  0  0  0  0  0  0  0
    7.2868   -0.1474  -15.8185 C   0  0  0  0  0  0  0  0  0  0  0  0
    8.3128    0.7838  -15.3183 C   0  0  0  0  0  0  0  0  0  0  0  0
    7.8376    2.0009  -14.6539 C   0  0  0  0  0  0  0  0  0  0  0  0
    8.6856    3.1147  -14.5516 C   0  0  0  0  0  0  0  0  0  0  0  0
    8.2831    4.2320  -13.8601 C   0  0  0  0  0  0  0  0  0  0  0  0
    7.0451    4.3032  -13.2464 C   0  0  0  0  0  0  0  0  0  0  0  0
    6.2150    3.2093  -13.3503 C   0  0  0  0  0  0  0  0  0  0  0  0
    6.6058    2.0666  -14.0495 C   0  0  0  0  0  0  0  0  0  0  0  0
   10.7312    7.6184   -6.6580 C   0  0  0  0  0  0  0  0  0  0  0  0
   10.7675    8.9944   -6.5388 C   0  0  0  0  0  0  0  0  0  0  0  0
   11.1887    9.6103   -5.3749 C   0  0  0  0  0  0  0  0  0  0  0  0
   11.5895    8.8532   -4.2859 C   0  0  0  0  0  0  0  0  0  0  0  0
   12.0039    9.5031   -3.1397 C   0  0  0  0  0  0  0  0  0  0  0  0
   12.3986    8.7447   -2.0670 C   0  0  0  0  0  0  0  0  0  0  0  0
   12.3766    7.3758   -2.1466 C   0  0  0  0  0  0  0  0  0  0  0  0
   11.9573    6.7207   -3.3064 C   0  0  0  0  0  0  0  0  0  0  0  0
   11.5589    7.4817   -4.3889 C   0  0  0  0  0  0  0  0  0  0  0  0
   11.1360    6.8893   -5.5572 C   0  0  0  0  0  0  0  0  0  0  0  0
 13 14  1  0
 14 15  1  0
 15 16  2  0
 16 17  1  0
 17 18  2  0
 18 19  1  0
 19 20  2  0
 20 21  1  0
 21 22  1  0
 22 23  1  0
 23 24  2  0
 24 25  1  0
 25  1  1  0
  1  2  2  0
  2  3  1  0
  3  4  2  0
  4  5  1  0
  5  6  2  0
  6  7  1  0
  7 29  1  0
 29 30  2  0
 30 31  1  0
 31 32  2  0
 32 33  1  0
 33 34  2  0
 34 35  1  0
 35 36  2  0
 36 37  1  0
 37 38  2  0
  7  8  2  0
  8  9  1  0
  9 10  2  0
 10 11  1  0
 11 12  1  0
 25 26  2  0
 26 27  1  0
 27 28  2  0
 20 15  1  0
 28 23  1  0
 28 19  1  0
 11  2  1  0
  9  4  1  0
 38 29  1  0
 37 32  1  0
M  END
>  <minimizedAffinity>  (408) 
-16.96664

$$$$
Mol: 175_61 - SminaDock
     RDKit          3D

 43 50  0  0  0  0  0  0  0  0999 V2000
    8.9272    5.8427  -12.5620 C   0  0  0  0  0  0  0  0  0  0  0  0
    9.3991    5.1587  -13.6856 C   0  0  0  0  0  0  0  0  0  0  0  0
    8.7171    4.0947  -14.2364 C   0  0  0  0  0  0  0  0  0  0  0  0
    7.5275    3.6763  -13.6737 C   0  0  0  0  0  0  0  0  0  0  0  0
    7.0324    4.3249  -12.5678 C   0  0  0  0  0  0  0  0  0  0  0  0
    7.7365    5.3939  -12.0306 C   0  0  0  0  0  0  0  0  0  0  0  0
    5.7849    3.6396  -12.2393 C   0  0  0  0  0  0  0  0  0  0  0  0
    5.0211    3.9301  -11.2860 O   0  0  0  0  0  0  0  0  0  0  0  0
    5.5503    2.5503  -13.1953 C   0  0  0  0  0  0  0  0  0  0  0  0
    4.5548    1.6087  -13.3502 C   0  0  0  0  0  0  0  0  0  0  0  0
    4.6453    0.6952  -14.3931 C   0  0  0  0  0  0  0  0  0  0  0  0
    5.7091    0.7009  -15.2861 C   0  0  0  0  0  0  0  0  0  0  0  0
    6.6721    1.6591  -15.0862 C   0  0  0  0  0  0  0  0  0  0  0  0
    6.6208    2.5855  -14.0629 C   0  0  0  0  0  0  0  0  0  0  0  0
    5.7048   -0.3091  -16.3484 C   0  0  1  0  0  0  0  0  0  0  0  0
    5.2914   -1.6179  -15.7545 C   0  0  0  0  0  0  0  0  0  0  0  0
    5.8231   -2.7120  -16.0651 O   0  0  0  0  0  0  0  0  0  0  0  0
    4.2669   -1.5646  -14.8209 O   0  0  0  0  0  0  0  0  0  0  0  0
    3.5736   -0.3323  -14.5749 C   0  0  0  0  0  0  0  0  0  0  0  0
    4.7978   -0.0244  -17.4334 N   0  0  0  0  0  0  0  0  0  0  0  0
    4.0282    0.6773  -17.5142 H   0  0  0  0  0  0  0  0  0  0  0  0
    5.1637   -0.9487  -18.4731 C   0  0  0  0  0  0  0  0  0  0  0  0
    4.4238   -1.3921  -19.3940 O   0  0  0  0  0  0  0  0  0  0  0  0
    6.5973   -1.3108  -18.2855 C   0  0  0  0  0  0  0  0  0  0  0  0
    7.0047   -0.5085  -17.0479 C   0  0  0  0  0  0  0  0  0  0  0  0
   11.3759    8.0557   -6.0899 C   0  0  0  0  0  0  0  0  0  0  0  0
   11.7901    9.0683   -6.9276 C   0  0  0  0  0  0  0  0  0  0  0  0
   11.5339    9.0612   -8.2813 C   0  0  0  0  0  0  0  0  0  0  0  0
   10.8386    8.0178   -8.8592 C   0  0  0  0  0  0  0  0  0  0  0  0
   10.5671    7.9698  -10.1748 N   0  0  0  0  0  0  0  0  0  0  0  0
    9.8855    6.9424  -10.7300 C   0  0  0  0  0  0  0  0  0  0  0  0
    9.6461    6.9377  -12.0103 N   0  0  0  0  0  0  0  0  0  0  0  0
    9.4884    5.9630   -9.8999 N   0  0  0  0  0  0  0  0  0  0  0  0
    8.9640    5.1637  -10.2964 H   0  0  0  0  0  0  0  0  0  0  0  0
    9.7239    5.9484   -8.5880 C   0  0  0  0  0  0  0  0  0  0  0  0
   10.4191    6.9997   -8.0324 C   0  0  0  0  0  0  0  0  0  0  0  0
   10.6751    7.0055   -6.6758 C   0  0  0  0  0  0  0  0  0  0  0  0
   12.1273    8.0456   -1.9910 C   0  0  0  0  0  0  0  0  0  0  0  0
   12.0749    9.2174   -2.6550 N   0  0  0  0  0  0  0  0  0  0  0  0
   11.8305    9.2305   -3.9900 C   0  0  0  0  0  0  0  0  0  0  0  0
   11.6371    8.0463   -4.6601 C   0  0  0  0  0  0  0  0  0  0  0  0
   11.6902    6.8494   -3.9841 C   0  0  0  0  0  0  0  0  0  0  0  0
   11.9395    6.8354   -2.6221 C   0  0  0  0  0  0  0  0  0  0  0  0
 38 39  2  0
 39 40  1  0
 40 41  2  0
 41 26  1  0
 26 27  1  0
 27 28  2  0
 28 29  1  0
 29 30  2  0
 30 31  1  0
 31 32  2  0
 32  1  1  0
  1  2  2  0
  2  3  1  0
  3  4  2  0
  4  5  1  0
  5  6  2  0
  5  7  1  0
  7  8  2  0
  7  9  1  0
  9 10  2  0
 10 11  1  0
 11 12  2  0
 12 13  1  0
 13 14  2  0
 12 15  1  0
 15 16  1  0
 16 17  2  0
 16 18  1  0
 18 19  1  0
 15 20  1  0
 20 21  1  0
 20 22  1  0
 22 23  2  0
 22 24  1  0
 24 25  1  0
 31 33  1  0
 33 34  1  0
 33 35  1  0
 35 36  2  0
 36 37  1  0
 41 42  1  0
 42 43  2  0
 43 38  1  0
 37 26  2  0
 36 29  1  0
  6  1  1  0
 14  9  1  0
 15 25  1  6
 14  4  1  0
 19 11  1  0
M  END
>  <minimizedAffinity>  (409) 
-16.99450

$$$$
Mol: 176_26 - SminaDock
     RDKit          3D

 38 44  0  0  0  0  0  0  0  0999 V2000
    3.1136   -1.5758  -15.7173 H   0  0  0  0  0  0  0  0  0  0  0  0
    2.9592   -1.1745  -14.7799 O   0  0  0  0  0  0  0  0  0  0  0  0
    3.6534   -0.0502  -14.4084 N   0  0  0  0  0  0  0  0  0  0  0  0
    4.9370   -0.0254  -14.4943 C   0  0  0  0  0  0  0  0  0  0  0  0
    5.7372   -1.0518  -14.9400 C   0  0  0  0  0  0  0  0  0  0  0  0
    5.3442   -2.3027  -15.3813 O   0  0  0  0  0  0  0  0  0  0  0  0
    4.8387   -2.9687  -14.7990 H   0  0  0  0  0  0  0  0  0  0  0  0
    7.0164   -0.6475  -14.8831 N   0  0  0  0  0  0  0  0  0  0  0  0
    7.1025    0.6087  -14.4170 C   0  0  0  0  0  0  0  0  0  0  0  0
    8.1187    1.5027  -14.1563 C   0  0  0  0  0  0  0  0  0  0  0  0
    7.7934    2.7470  -13.6640 C   0  0  0  0  0  0  0  0  0  0  0  0
    8.2323    3.9900  -13.2291 C   0  0  0  0  0  0  0  0  0  0  0  0
    9.2465    4.9004  -12.9622 C   0  0  0  0  0  0  0  0  0  0  0  0
    9.0019    6.1645  -12.4684 C   0  0  0  0  0  0  0  0  0  0  0  0
    7.6963    6.5451  -12.2279 C   0  0  0  0  0  0  0  0  0  0  0  0
    6.6661    5.6667  -12.4816 C   0  0  0  0  0  0  0  0  0  0  0  0
    6.9387    4.4081  -12.9754 C   0  0  0  0  0  0  0  0  0  0  0  0
    6.5116    3.1496  -13.4171 C   0  0  0  0  0  0  0  0  0  0  0  0
    5.5002    2.2728  -13.6716 C   0  0  0  0  0  0  0  0  0  0  0  0
    5.7921    1.0047  -14.1705 C   0  0  0  0  0  0  0  0  0  0  0  0
   10.1055    7.0225  -12.2280 N   0  0  0  0  0  0  0  0  0  0  0  0
   10.4644    7.2524  -11.0254 C   0  0  0  0  0  0  0  0  0  0  0  0
   11.5471    8.0967  -10.8552 C   0  0  0  0  0  0  0  0  0  0  0  0
   11.9401    8.3535   -9.5997 N   0  0  0  0  0  0  0  0  0  0  0  0
   11.2896    7.7980   -8.5465 C   0  0  0  0  0  0  0  0  0  0  0  0
   11.7193    8.0828   -7.2492 C   0  0  0  0  0  0  0  0  0  0  0  0
   11.1067    7.5555   -6.1315 C   0  0  0  0  0  0  0  0  0  0  0  0
   10.0331    6.7215   -6.3811 C   0  0  0  0  0  0  0  0  0  0  0  0
    9.5860    6.4218   -7.6463 C   0  0  0  0  0  0  0  0  0  0  0  0
   10.2119    6.9593   -8.7555 C   0  0  0  0  0  0  0  0  0  0  0  0
    9.8121    6.6969  -10.0029 N   0  0  0  0  0  0  0  0  0  0  0  0
    9.0134    6.0752  -10.1572 H   0  0  0  0  0  0  0  0  0  0  0  0
   11.5392    7.8407   -4.7838 C   0  0  0  0  0  0  0  0  0  0  0  0
   11.6735    6.8132   -3.8831 C   0  0  0  0  0  0  0  0  0  0  0  0
   12.0853    7.0343   -2.5782 C   0  0  0  0  0  0  0  0  0  0  0  0
   12.3638    8.3011   -2.1781 C   0  0  0  0  0  0  0  0  0  0  0  0
   12.2415    9.3513   -3.0483 C   0  0  0  0  0  0  0  0  0  0  0  0
   11.8243    9.1153   -4.3650 C   0  0  0  0  0  0  0  0  0  0  0  0
  1  2  1  0
  2  3  1  0
  3  4  2  0
  4  5  1  0
  5  6  1  0
  6  7  1  0
  5  8  2  0
  8  9  1  0
  9 10  2  0
 10 11  1  0
 11 12  2  0
 12 13  1  0
 13 14  2  0
 14 21  1  0
 21 22  2  0
 22 23  1  0
 23 24  2  0
 24 25  1  0
 25 26  2  0
 26 27  1  0
 27 33  1  0
 33 34  2  0
 34 35  1  0
 35 36  2  0
 36 37  1  0
 37 38  2  0
 27 28  2  0
 28 29  1  0
 29 30  2  0
 30 31  1  0
 31 32  1  0
 14 15  1  0
 15 16  2  0
 16 17  1  0
 17 18  2  0
 18 19  1  0
 19 20  2  0
 20  4  1  0
 20  9  1  0
 18 11  1  0
 17 12  1  0
 31 22  1  0
 30 25  1  0
 38 33  1  0
M  END
>  <minimizedAffinity>  (410) 
-16.98784

$$$$
Mol: 193_29 - SminaDock
     RDKit          3D

 43 50  0  0  0  0  0  0  0  0999 V2000
    8.7391    5.7905  -12.4099 C   0  0  0  0  0  0  0  0  0  0  0  0
    7.4846    5.3452  -11.9967 C   0  0  0  0  0  0  0  0  0  0  0  0
    6.8703    4.2752  -12.5999 C   0  0  0  0  0  0  0  0  0  0  0  0
    7.5117    3.6343  -13.6323 C   0  0  0  0  0  0  0  0  0  0  0  0
    8.7503    4.0441  -14.0684 C   0  0  0  0  0  0  0  0  0  0  0  0
    9.3636    5.1342  -13.4456 C   0  0  0  0  0  0  0  0  0  0  0  0
    9.2111    3.2038  -15.1694 C   0  0  2  0  0  0  0  0  0  0  0  0
   10.5063    2.5531  -14.8267 C   0  0  0  0  0  0  0  0  0  0  0  0
   10.5809    1.5238  -14.1025 O   0  0  0  0  0  0  0  0  0  0  0  0
   11.5453    3.2986  -15.4522 N   0  0  0  0  0  0  0  0  0  0  0  0
   12.5646    3.1837  -15.2191 H   0  0  0  0  0  0  0  0  0  0  0  0
   10.9348    4.1710  -16.3959 C   0  0  0  0  0  0  0  0  0  0  0  0
   11.5791    4.9758  -17.1261 O   0  0  0  0  0  0  0  0  0  0  0  0
    9.5123    3.9735  -16.3632 N   0  0  0  0  0  0  0  0  0  0  0  0
    8.8461    4.3250  -17.0717 H   0  0  0  0  0  0  0  0  0  0  0  0
    8.1371    2.2211  -15.3856 C   0  0  0  0  0  0  0  0  0  0  0  0
    7.1439    2.4876  -14.4727 C   0  0  0  0  0  0  0  0  0  0  0  0
    6.0354    1.7014  -14.4799 N   0  0  0  0  0  0  0  0  0  0  0  0
    5.8878    0.6846  -15.3442 C   0  0  0  0  0  0  0  0  0  0  0  0
    4.7548   -0.1029  -15.3364 C   0  0  0  0  0  0  0  0  0  0  0  0
    4.5735   -1.1529  -16.2103 C   0  0  0  0  0  0  0  0  0  0  0  0
    5.5497   -1.4558  -17.1465 C   0  0  0  0  0  0  0  0  0  0  0  0
    6.6801   -0.6708  -17.1547 C   0  0  0  0  0  0  0  0  0  0  0  0
    6.8646    0.3945  -16.2686 C   0  0  0  0  0  0  0  0  0  0  0  0
    8.0025    1.1639  -16.2969 C   0  0  0  0  0  0  0  0  0  0  0  0
   11.2771    8.0055   -5.9151 C   0  0  0  0  0  0  0  0  0  0  0  0
   11.4421    9.1214   -6.7268 C   0  0  0  0  0  0  0  0  0  0  0  0
   11.0773    9.1167   -8.0568 C   0  0  0  0  0  0  0  0  0  0  0  0
   10.5280    7.9897   -8.6381 C   0  0  0  0  0  0  0  0  0  0  0  0
   10.3560    6.8742   -7.8523 C   0  0  0  0  0  0  0  0  0  0  0  0
   10.7246    6.8894   -6.5220 C   0  0  0  0  0  0  0  0  0  0  0  0
    9.8036    5.7460   -8.4451 C   0  0  0  0  0  0  0  0  0  0  0  0
    9.4276    5.7058   -9.7724 C   0  0  0  0  0  0  0  0  0  0  0  0
    9.6227    6.8522  -10.5130 C   0  0  0  0  0  0  0  0  0  0  0  0
    9.3029    6.8943  -11.7414 N   0  0  0  0  0  0  0  0  0  0  0  0
   10.1645    7.9684   -9.9437 N   0  0  0  0  0  0  0  0  0  0  0  0
   10.2949    8.8158  -10.5427 H   0  0  0  0  0  0  0  0  0  0  0  0
   12.3812    8.0143   -1.8815 C   0  0  0  0  0  0  0  0  0  0  0  0
   12.3649    9.2053   -2.5463 C   0  0  0  0  0  0  0  0  0  0  0  0
   11.9929    9.1825   -3.8948 C   0  0  0  0  0  0  0  0  0  0  0  0
   11.6587    8.0082   -4.5209 C   0  0  0  0  0  0  0  0  0  0  0  0
   11.6890    6.8326   -3.8134 C   0  0  0  0  0  0  0  0  0  0  0  0
   12.0551    6.8123   -2.4636 C   0  0  0  0  0  0  0  0  0  0  0  0
 38 39  2  0
 39 40  1  0
 40 41  2  0
 41 26  1  0
 26 27  2  0
 27 28  1  0
 28 29  2  0
 29 30  1  0
 30 31  2  0
 30 32  1  0
 32 33  2  0
 33 34  1  0
 34 35  2  0
 35  1  1  0
  1  2  2  0
  2  3  1  0
  3  4  2  0
  4  5  1  0
  5  6  2  0
  5  7  1  0
  7  8  1  0
  8  9  2  0
  8 10  1  0
 10 11  1  0
 10 12  1  0
 12 13  2  0
 12 14  1  0
 14 15  1  0
  7 16  1  0
 16 17  2  0
 17 18  1  0
 18 19  2  0
 19 20  1  0
 20 21  2  0
 21 22  1  0
 22 23  2  0
 23 24  1  0
 24 25  2  0
 34 36  1  0
 36 37  1  0
 41 42  1  0
 42 43  2  0
 43 38  1  0
 31 26  1  0
  6  1  1  0
  7 14  1  6
 25 16  1  0
 36 29  1  0
 17  4  1  0
 24 19  1  0
M  END
>  <minimizedAffinity>  (411) 
-16.97918

$$$$
Mol: 144_57 - SminaDock
     RDKit          3D

 41 47  0  0  0  0  0  0  0  0999 V2000
    4.3998   -0.8191  -17.0722 C   0  0  1  0  0  0  0  0  0  0  0  0
    4.2539   -0.8774  -15.5462 C   0  0  0  0  0  0  0  0  0  0  0  0
    5.0359    0.2443  -15.0166 C   0  0  0  0  0  0  0  0  0  0  0  0
    4.5705    0.9782  -13.9579 C   0  0  0  0  0  0  0  0  0  0  0  0
    5.3498    2.0450  -13.4811 C   0  0  0  0  0  0  0  0  0  0  0  0
    6.5626    2.3748  -14.0452 C   0  0  0  0  0  0  0  0  0  0  0  0
    7.0052    1.6297  -15.0970 C   0  0  0  0  0  0  0  0  0  0  0  0
    6.2350    0.5547  -15.5871 C   0  0  0  0  0  0  0  0  0  0  0  0
    6.7772   -0.2099  -16.7299 C   0  0  0  0  0  0  0  0  0  0  0  0
    5.8223   -1.1504  -17.3713 C   0  0  0  0  0  0  0  0  0  0  0  0
    7.3337    3.5236  -13.5575 C   0  0  0  0  0  0  0  0  0  0  0  0
    8.5794    3.8254  -14.0808 C   0  0  0  0  0  0  0  0  0  0  0  0
    9.2762    4.8983  -13.5301 C   0  0  0  0  0  0  0  0  0  0  0  0
    8.7689    5.6447  -12.5058 C   0  0  0  0  0  0  0  0  0  0  0  0
    7.5426    5.3486  -11.9910 C   0  0  0  0  0  0  0  0  0  0  0  0
    6.8157    4.2674  -12.5317 C   0  0  0  0  0  0  0  0  0  0  0  0
    5.4864    4.0332  -11.9766 C   0  0  0  0  0  0  0  0  0  0  0  0
    4.8394    2.7714  -12.3192 C   0  0  0  0  0  0  0  0  0  0  0  0
    9.5117    6.7416  -11.9607 N   0  0  0  0  0  0  0  0  0  0  0  0
    9.7761    6.7565  -10.6766 C   0  0  0  0  0  0  0  0  0  0  0  0
   10.4708    7.7695  -10.1309 N   0  0  0  0  0  0  0  0  0  0  0  0
   10.7775    7.8535   -8.8345 C   0  0  0  0  0  0  0  0  0  0  0  0
   11.4972    8.9132   -8.2973 C   0  0  0  0  0  0  0  0  0  0  0  0
   11.8110    8.9946   -6.9581 C   0  0  0  0  0  0  0  0  0  0  0  0
   11.3838    7.9657   -6.1162 C   0  0  0  0  0  0  0  0  0  0  0  0
   10.6636    6.9093   -6.6650 C   0  0  0  0  0  0  0  0  0  0  0  0
   10.3560    6.8392   -8.0065 C   0  0  0  0  0  0  0  0  0  0  0  0
    9.6449    5.8044   -8.5722 C   0  0  0  0  0  0  0  0  0  0  0  0
    9.3556    5.7582   -9.8895 N   0  0  0  0  0  0  0  0  0  0  0  0
    8.8162    4.9706  -10.3104 H   0  0  0  0  0  0  0  0  0  0  0  0
   11.6999    8.0223   -4.6945 C   0  0  0  0  0  0  0  0  0  0  0  0
   11.9818    9.2055   -4.0444 C   0  0  0  0  0  0  0  0  0  0  0  0
   12.2776    9.2133   -2.6889 C   0  0  0  0  0  0  0  0  0  0  0  0
   12.2940    8.0379   -1.9715 C   0  0  0  0  0  0  0  0  0  0  0  0
   12.0148    6.8455   -2.6043 C   0  0  0  0  0  0  0  0  0  0  0  0
   11.7221    6.8585   -3.9575 C   0  0  0  0  0  0  0  0  0  0  0  0
    2.3849   -1.0384  -19.2243 H   0  0  0  0  0  0  0  0  0  0  0  0
    3.3251   -1.2849  -18.9926 O   0  0  0  0  0  0  0  0  0  0  0  0
    3.4669   -1.6906  -17.7220 N   0  0  1  0  0  0  0  0  0  0  0  0
    3.7218   -2.6999  -17.6529 H   0  0  0  0  0  0  0  0  0  0  0  0
    2.5329   -1.5756  -17.2506 H   0  0  0  0  0  0  0  0  0  0  0  0
 37 38  1  0
 38 39  1  0
 39 40  1  6
 39 41  1  0
 39  1  1  0
  1  2  1  1
  2  3  1  0
  3  4  2  0
  4  5  1  0
  5  6  2  0
  6  7  1  0
  7  8  2  0
  8  9  1  0
  9 10  1  0
  6 11  1  0
 11 12  2  0
 12 13  1  0
 13 14  2  0
 14 19  1  0
 19 20  2  0
 20 21  1  0
 21 22  2  0
 22 23  1  0
 23 24  2  0
 24 25  1  0
 25 31  1  0
 31 32  2  0
 32 33  1  0
 33 34  2  0
 34 35  1  0
 35 36  2  0
 25 26  2  0
 26 27  1  0
 27 28  2  0
 28 29  1  0
 29 30  1  0
 14 15  1  0
 15 16  2  0
 16 17  1  0
 17 18  1  0
 10  1  1  0
 16 11  1  0
  8  3  1  0
 29 20  1  0
 18  5  1  0
 27 22  1  0
 36 31  1  0
M  CHG  1  39   1
M  END
>  <minimizedAffinity>  (412) 
-17.04164

$$$$
Mol: 144_0 - SminaDock
     RDKit          3D

 40 46  0  0  0  0  0  0  0  0999 V2000
    8.7764    5.8792  -12.3594 C   0  0  0  0  0  0  0  0  0  0  0  0
    9.4870    5.2524  -13.3616 C   0  0  0  0  0  0  0  0  0  0  0  0
    9.0093    4.1315  -14.0011 C   0  0  0  0  0  0  0  0  0  0  0  0
    7.7652    3.6213  -13.6153 C   0  0  0  0  0  0  0  0  0  0  0  0
    7.0392    4.2312  -12.6175 C   0  0  0  0  0  0  0  0  0  0  0  0
    7.5581    5.3767  -11.9842 C   0  0  0  0  0  0  0  0  0  0  0  0
    5.7373    3.7406  -12.1762 C   0  0  0  0  0  0  0  0  0  0  0  0
    5.1851    2.5508  -12.8308 C   0  0  0  0  0  0  0  0  0  0  0  0
    5.9830    1.9220  -13.8867 C   0  0  0  0  0  0  0  0  0  0  0  0
    5.4453    0.7748  -14.5044 C   0  0  0  0  0  0  0  0  0  0  0  0
    6.1556    0.1472  -15.5026 C   0  0  0  0  0  0  0  0  0  0  0  0
    7.3762    0.6594  -15.8712 C   0  0  0  0  0  0  0  0  0  0  0  0
    7.9129    1.8031  -15.2559 C   0  0  0  0  0  0  0  0  0  0  0  0
    7.2038    2.4389  -14.2515 C   0  0  0  0  0  0  0  0  0  0  0  0
    8.3302    0.1815  -16.8962 C   0  0  0  0  0  0  0  0  0  0  0  0
    7.7018   -0.3667  -18.1086 C   0  0  0  0  0  0  0  0  0  0  0  0
    8.2128    0.0383  -19.1837 O   0  0  0  0  0  0  0  0  0  0  0  0
    6.6196   -1.2733  -18.2703 N   0  0  0  0  0  0  0  0  0  0  0  0
    6.5213   -1.8512  -19.5953 C   0  0  0  0  0  0  0  0  0  0  0  0
    5.6462   -1.6765  -17.3206 N   0  0  0  0  0  0  0  0  0  0  0  0
    5.4746   -1.0244  -16.0473 C   0  0  0  0  0  0  0  0  0  0  0  0
    4.6227   -1.5030  -15.2598 O   0  0  0  0  0  0  0  0  0  0  0  0
   11.2531    8.0336   -5.8360 C   0  0  0  0  0  0  0  0  0  0  0  0
   11.3391    9.1873   -6.5825 C   0  0  0  0  0  0  0  0  0  0  0  0
   10.9629    9.2366   -7.9115 C   0  0  0  0  0  0  0  0  0  0  0  0
   10.4760    8.0959   -8.5462 C   0  0  0  0  0  0  0  0  0  0  0  0
   10.3969    6.9524   -7.7855 C   0  0  0  0  0  0  0  0  0  0  0  0
    9.9135    5.8135   -8.4097 C   0  0  0  0  0  0  0  0  0  0  0  0
    9.5555    5.8920   -9.7034 N   0  0  0  0  0  0  0  0  0  0  0  0
    9.6324    7.0085  -10.4477 C   0  0  0  0  0  0  0  0  0  0  0  0
    9.2783    7.0458  -11.6936 N   0  0  0  0  0  0  0  0  0  0  0  0
   10.1032    8.1208   -9.8425 N   0  0  0  0  0  0  0  0  0  0  0  0
   10.1663    8.9876  -10.4082 H   0  0  0  0  0  0  0  0  0  0  0  0
   10.7719    6.9012   -6.4587 C   0  0  0  0  0  0  0  0  0  0  0  0
   12.4754    8.0999   -1.7391 C   0  0  0  0  0  0  0  0  0  0  0  0
   12.3294    9.2731   -2.4480 C   0  0  0  0  0  0  0  0  0  0  0  0
   11.9322    9.2382   -3.7759 C   0  0  0  0  0  0  0  0  0  0  0  0
   11.6686    8.0653   -4.4436 C   0  0  0  0  0  0  0  0  0  0  0  0
   11.8184    6.8814   -3.7202 C   0  0  0  0  0  0  0  0  0  0  0  0
   12.2129    6.9085   -2.3995 C   0  0  0  0  0  0  0  0  0  0  0  0
 35 36  2  0
 36 37  1  0
 37 38  2  0
 38 23  1  0
 23 24  2  0
 24 25  1  0
 25 26  2  0
 26 27  1  0
 27 28  1  0
 28 29  2  0
 29 30  1  0
 30 31  2  0
 31  1  1  0
  1  2  2  0
  2  3  1  0
  3  4  2  0
  4  5  1  0
  5  6  2  0
  5  7  1  0
  7  8  1  0
  8  9  1  0
  9 10  2  0
 10 11  1  0
 11 12  2  0
 12 13  1  0
 13 14  2  0
 12 15  1  0
 15 16  1  0
 16 17  2  0
 16 18  1  0
 18 19  1  0
 18 20  1  0
 20 21  1  0
 21 22  2  0
 30 32  1  0
 32 33  1  0
 27 34  2  0
 38 39  1  0
 39 40  2  0
 40 35  1  0
 34 23  1  0
 32 26  1  0
  6  1  1  0
 14  9  1  0
 14  4  1  0
 21 11  1  0
M  CHG  1  20  -1
M  END
>  <minimizedAffinity>  (413) 
-17.04067

$$$$
Mol: 174_40 - SminaDock
     RDKit          3D

 41 48  0  0  0  0  0  0  0  0999 V2000
    3.7721   -0.1305  -14.2404 C   0  0  0  0  0  0  0  0  0  0  0  0
    4.7201   -0.4841  -15.0881 O   0  0  0  0  0  0  0  0  0  0  0  0
    5.7108    0.3766  -14.9879 C   0  0  0  0  0  0  0  0  0  0  0  0
    6.9436    0.5060  -15.6173 C   0  0  0  0  0  0  0  0  0  0  0  0
    7.8508    1.5014  -15.3575 C   0  0  0  0  0  0  0  0  0  0  0  0
    7.4843    2.4518  -14.3863 C   0  0  0  0  0  0  0  0  0  0  0  0
    6.2679    2.3352  -13.7537 C   0  0  0  0  0  0  0  0  0  0  0  0
    5.3961    1.3133  -14.0508 C   0  0  0  0  0  0  0  0  0  0  0  0
    4.1497    1.0143  -13.5484 C   0  0  0  0  0  0  0  0  0  0  0  0
    6.1263    3.4335  -12.8126 C   0  0  0  0  0  0  0  0  0  0  0  0
    5.1542    3.6689  -12.0488 O   0  0  0  0  0  0  0  0  0  0  0  0
    7.3223    4.2292  -12.9059 C   0  0  0  0  0  0  0  0  0  0  0  0
    7.6771    5.3948  -12.2226 C   0  0  0  0  0  0  0  0  0  0  0  0
    8.8898    5.9754  -12.5120 C   0  0  0  0  0  0  0  0  0  0  0  0
    9.7030    5.3954  -13.4539 C   0  0  0  0  0  0  0  0  0  0  0  0
    9.3468    4.2315  -14.1341 C   0  0  0  0  0  0  0  0  0  0  0  0
    8.1518    3.6456  -13.8570 C   0  0  0  0  0  0  0  0  0  0  0  0
    9.1840    1.5609  -15.9894 C   0  0  0  0  0  0  0  0  0  0  0  0
    9.5456    0.2549  -16.6570 C   0  0  0  0  0  0  0  0  0  0  0  0
    8.4406   -0.3236  -17.3576 N   0  0  0  0  0  0  0  0  0  0  0  0
    8.5100   -0.6308  -18.3712 H   0  0  0  0  0  0  0  0  0  0  0  0
    7.2193   -0.4901  -16.6753 C   0  0  0  0  0  0  0  0  0  0  0  0
    6.4034   -1.4158  -16.9316 O   0  0  0  0  0  0  0  0  0  0  0  0
    9.3562    7.1646  -11.8777 N   0  0  0  0  0  0  0  0  0  0  0  0
    9.7002    7.1386  -10.6084 C   0  0  0  0  0  0  0  0  0  0  0  0
    9.6183    6.0033   -9.8989 N   0  0  0  0  0  0  0  0  0  0  0  0
    9.9697    5.9680   -8.6025 C   0  0  0  0  0  0  0  0  0  0  0  0
   10.4291    7.0787   -7.9325 C   0  0  0  0  0  0  0  0  0  0  0  0
   10.8013    7.0907   -6.6086 C   0  0  0  0  0  0  0  0  0  0  0  0
   11.2598    8.2122   -5.9564 C   0  0  0  0  0  0  0  0  0  0  0  0
   11.3402    9.3918   -6.7055 C   0  0  0  0  0  0  0  0  0  0  0  0
   10.9649    9.3715   -8.0320 C   0  0  0  0  0  0  0  0  0  0  0  0
   10.5067    8.2458   -8.6839 C   0  0  0  0  0  0  0  0  0  0  0  0
   10.1433    8.2401   -9.9869 N   0  0  0  0  0  0  0  0  0  0  0  0
   10.2121    9.1333  -10.5242 H   0  0  0  0  0  0  0  0  0  0  0  0
   11.6340    8.1285   -4.5712 C   0  0  0  0  0  0  0  0  0  0  0  0
   12.0141    9.2444   -3.8355 C   0  0  0  0  0  0  0  0  0  0  0  0
   12.3718    9.0785   -2.4961 C   0  0  0  0  0  0  0  0  0  0  0  0
   12.3708    7.8684   -1.8579 C   0  0  0  0  0  0  0  0  0  0  0  0
   11.9886    6.7484   -2.5994 C   0  0  0  0  0  0  0  0  0  0  0  0
   11.6349    6.9142   -3.9233 C   0  0  0  0  0  0  0  0  0  0  0  0
  1  2  1  0
  2  3  1  0
  3  4  2  0
  4  5  1  0
  5  6  2  0
  6  7  1  0
  7  8  2  0
  8  9  1  0
  7 10  1  0
 10 11  2  0
 10 12  1  0
 12 13  2  0
 13 14  1  0
 14 24  1  0
 24 25  2  0
 25 26  1  0
 26 27  2  0
 27 28  1  0
 28 29  2  0
 29 30  1  0
 30 36  1  0
 36 37  2  0
 37 38  1  0
 38 39  2  0
 39 40  1  0
 40 41  2  0
 30 31  2  0
 31 32  1  0
 32 33  2  0
 33 34  1  0
 34 35  1  0
 14 15  2  0
 15 16  1  0
 16 17  2  0
  5 18  1  0
 18 19  1  0
 19 20  1  0
 20 21  1  0
 20 22  1  0
 22 23  2  0
  9  1  2  0
 17 12  1  0
  8  3  1  0
 34 25  1  0
 22  4  1  0
 17  6  1  0
 33 28  1  0
 41 36  1  0
M  END
>  <minimizedAffinity>  (414) 
-17.01056

$$$$
Mol: 114_39 - SminaDock
     RDKit          3D

 35 40  0  0  0  0  0  0  0  0999 V2000
   10.1081    6.8683  -12.3533 N   0  0  0  0  0  0  0  0  0  0  0  0
   10.4872    7.1239  -11.1529 C   0  0  0  0  0  0  0  0  0  0  0  0
   11.6059    7.8541  -10.9556 N   0  0  0  0  0  0  0  0  0  0  0  0
   12.0293    8.1399   -9.7067 C   0  0  0  0  0  0  0  0  0  0  0  0
   11.3358    7.6972   -8.5928 C   0  0  0  0  0  0  0  0  0  0  0  0
   11.7233    7.9606   -7.2993 C   0  0  0  0  0  0  0  0  0  0  0  0
   11.0306    7.5190   -6.1937 C   0  0  0  0  0  0  0  0  0  0  0  0
    9.8828    6.7695   -6.4258 C   0  0  0  0  0  0  0  0  0  0  0  0
    9.4870    6.5006   -7.7189 C   0  0  0  0  0  0  0  0  0  0  0  0
   10.2001    6.9555   -8.8258 C   0  0  0  0  0  0  0  0  0  0  0  0
    9.8023    6.6863  -10.0833 N   0  0  0  0  0  0  0  0  0  0  0  0
    8.9301    6.1171  -10.1693 H   0  0  0  0  0  0  0  0  0  0  0  0
    7.7410    0.5787  -14.7034 C   0  0  0  0  0  0  0  0  0  0  0  0
    6.9592   -0.4626  -15.0448 N   0  0  0  0  0  0  0  0  0  0  0  0
    5.6862   -0.5466  -14.6234 C   0  0  0  0  0  0  0  0  0  0  0  0
    4.9681   -1.5573  -14.9701 O   0  0  0  0  0  0  0  0  0  0  0  0
    5.1643    0.4416  -13.8303 C   0  0  0  0  0  0  0  0  0  0  0  0
    5.9496    1.5170  -13.4694 C   0  0  0  0  0  0  0  0  0  0  0  0
    7.2548    1.5937  -13.9074 C   0  0  0  0  0  0  0  0  0  0  0  0
    8.2153    2.6546  -13.6260 C   0  0  0  0  0  0  0  0  0  0  0  0
    9.4185    2.3519  -13.8074 O   0  0  0  0  0  0  0  0  0  0  0  0
    7.9249    4.0159  -13.1610 C   0  0  0  0  0  0  0  0  0  0  0  0
    9.0515    4.7761  -12.9768 C   0  0  0  0  0  0  0  0  0  0  0  0
    8.9306    6.0998  -12.5366 C   0  0  0  0  0  0  0  0  0  0  0  0
    7.6844    6.6127  -12.2972 C   0  0  0  0  0  0  0  0  0  0  0  0
    6.5647    5.8223  -12.4915 C   0  0  0  0  0  0  0  0  0  0  0  0
    6.6461    4.5198  -12.9224 C   0  0  0  0  0  0  0  0  0  0  0  0
    5.3235    3.9096  -13.0446 C   0  0  0  0  0  0  0  0  0  0  0  0
    5.2393    2.4943  -12.6034 C   0  0  0  0  0  0  0  0  0  0  0  0
   11.4705    7.8175   -4.8249 C   0  0  0  0  0  0  0  0  0  0  0  0
   11.6871    9.1044   -4.3877 C   0  0  0  0  0  0  0  0  0  0  0  0
   12.1022    9.3547   -3.0901 C   0  0  0  0  0  0  0  0  0  0  0  0
   12.2950    8.2948   -2.2431 C   0  0  0  0  0  0  0  0  0  0  0  0
   12.0852    6.9923   -2.6548 C   0  0  0  0  0  0  0  0  0  0  0  0
   11.6701    6.7746   -3.9592 C   0  0  0  0  0  0  0  0  0  0  0  0
 13 14  1  0
 14 15  1  0
 15 16  2  0
 15 17  1  0
 17 18  2  0
 18 19  1  0
 19 20  1  0
 20 21  2  0
 20 22  1  0
 22 23  2  0
 23 24  1  0
 24  1  1  0
  1  2  2  0
  2  3  1  0
  3  4  2  0
  4  5  1  0
  5  6  2  0
  6  7  1  0
  7 30  1  0
 30 31  2  0
 31 32  1  0
 32 33  2  0
 33 34  1  0
 34 35  2  0
  7  8  2  0
  8  9  1  0
  9 10  2  0
 10 11  1  0
 11 12  1  0
 24 25  2  0
 25 26  1  0
 26 27  2  0
 27 28  1  0
 28 29  1  0
 19 13  2  0
 27 22  1  0
 29 18  1  0
 11  2  1  0
 10  5  1  0
 35 30  1  0
M  CHG  1  14  -1
M  END
>  <minimizedAffinity>  (415) 
-16.95599

$$$$
Mol: 114_56 - SminaDock
     RDKit          3D

 40 46  0  0  0  0  0  0  0  0999 V2000
    8.1334    5.0910  -12.4522 C   0  0  0  0  0  0  0  0  0  0  0  0
    8.7902    6.0930  -13.0572 N   0  0  0  0  0  0  0  0  0  0  0  0
    9.6309    6.9186  -12.3767 C   0  0  0  0  0  0  0  0  0  0  0  0
    9.8403    6.7495  -11.0131 C   0  0  0  0  0  0  0  0  0  0  0  0
   10.7205    7.6750  -10.4920 C   0  0  0  0  0  0  0  0  0  0  0  0
   11.0754    7.8711   -9.1664 C   0  0  0  0  0  0  0  0  0  0  0  0
   10.5874    7.2521   -8.0068 C   0  0  0  0  0  0  0  0  0  0  0  0
    9.8008    6.1441   -8.0082 C   0  0  0  0  0  0  0  0  0  0  0  0
    9.2504    5.3961   -9.0291 C   0  0  0  0  0  0  0  0  0  0  0  0
    8.7481    4.2831   -8.7736 O   0  0  0  0  0  0  0  0  0  0  0  0
    9.1687    5.7221  -10.3858 C   0  0  0  0  0  0  0  0  0  0  0  0
    8.3221    4.8995  -11.0997 C   0  0  0  0  0  0  0  0  0  0  0  0
   10.9737    7.8685   -6.7654 C   0  0  0  0  0  0  0  0  0  0  0  0
   11.0866    9.2275   -6.6158 C   0  0  0  0  0  0  0  0  0  0  0  0
   11.4631    9.7423   -5.3904 C   0  0  0  0  0  0  0  0  0  0  0  0
   11.7317    8.9358   -4.3042 C   0  0  0  0  0  0  0  0  0  0  0  0
   12.1088    9.4581   -3.0777 C   0  0  0  0  0  0  0  0  0  0  0  0
   12.3759    8.6359   -1.9931 C   0  0  0  0  0  0  0  0  0  0  0  0
   12.2660    7.2657   -2.1297 C   0  0  0  0  0  0  0  0  0  0  0  0
   11.8911    6.7711   -3.3538 C   0  0  0  0  0  0  0  0  0  0  0  0
   11.6213    7.5741   -4.4444 C   0  0  0  0  0  0  0  0  0  0  0  0
   11.2448    7.0646   -5.6706 C   0  0  0  0  0  0  0  0  0  0  0  0
    7.2282    4.2193  -13.2362 C   0  0  0  0  0  0  0  0  0  0  0  0
    7.4469    2.9266  -13.2146 C   0  0  0  0  0  0  0  0  0  0  0  0
    6.6178    2.0128  -13.9490 C   0  0  0  0  0  0  0  0  0  0  0  0
    5.4774    1.5096  -13.3102 C   0  0  0  0  0  0  0  0  0  0  0  0
    4.6097    0.6305  -13.9060 C   0  0  0  0  0  0  0  0  0  0  0  0
    4.8808    0.2282  -15.1955 C   0  0  0  0  0  0  0  0  0  0  0  0
    5.9964    0.7056  -15.8523 C   0  0  0  0  0  0  0  0  0  0  0  0
    6.8765    1.6063  -15.2287 C   0  0  0  0  0  0  0  0  0  0  0  0
    6.5197    0.4447  -17.2160 C   0  0  0  0  0  0  0  0  0  0  0  0
    5.5308   -0.1943  -18.1377 C   0  0  2  0  0  0  0  0  0  0  0  0
    5.6316    0.1370  -19.5853 C   0  0  0  0  0  0  0  0  0  0  0  0
    6.1922    0.1017  -20.6556 O   0  0  0  0  0  0  0  0  0  0  0  0
    4.4522    0.5973  -18.7688 C   0  0  0  0  0  0  0  0  0  0  0  0
    5.1851   -1.6143  -17.7567 C   0  0  0  0  0  0  0  0  0  0  0  0
    3.9906   -1.5308  -16.9133 N   0  0  0  0  0  0  0  0  0  0  0  0
    3.1595   -2.1023  -17.1779 H   0  0  0  0  0  0  0  0  0  0  0  0
    3.9034   -0.7097  -15.7495 C   0  0  0  0  0  0  0  0  0  0  0  0
    2.8389   -0.7897  -15.0908 O   0  0  0  0  0  0  0  0  0  0  0  0
 23 24  2  0
 24 25  1  0
 25 26  2  0
 26 27  1  0
 27 28  2  0
 28 29  1  0
 29 30  2  0
 29 31  1  0
 32 31  1  1
 32 33  1  0
 33 34  2  0
 33 35  1  0
 32 36  1  0
 36 37  1  0
 37 38  1  0
 37 39  1  0
 39 40  2  0
 23  1  1  0
  1  2  2  0
  2  3  1  0
  3  4  2  0
  4  5  1  0
  5  6  2  0
  6  7  1  0
  7 13  1  0
 13 14  2  0
 14 15  1  0
 15 16  2  0
 16 17  1  0
 17 18  2  0
 18 19  1  0
 19 20  2  0
 20 21  1  0
 21 22  2  0
  7  8  2  0
  8  9  1  0
  9 10  2  0
  9 11  1  0
 11 12  2  0
 30 25  1  0
 35 32  1  0
 12  1  1  0
 39 28  1  0
 11  4  1  0
 22 13  1  0
 21 16  1  0
M  END
>  <minimizedAffinity>  (416) 
-16.99203

$$$$
Mol: 190_0 - SminaDock
     RDKit          3D

 40 46  0  0  0  0  0  0  0  0999 V2000
    8.4464    5.6709  -12.3061 C   0  0  0  0  0  0  0  0  0  0  0  0
    7.2092    5.4250  -11.7918 C   0  0  0  0  0  0  0  0  0  0  0  0
    6.4605    4.3396  -12.2698 C   0  0  0  0  0  0  0  0  0  0  0  0
    6.9400    3.5111  -13.2475 C   0  0  0  0  0  0  0  0  0  0  0  0
    6.1735    2.4407  -13.7024 C   0  0  0  0  0  0  0  0  0  0  0  0
    4.9334    2.2082  -13.1750 C   0  0  0  0  0  0  0  0  0  0  0  0
    4.2141    1.1419  -13.6537 C   0  0  0  0  0  0  0  0  0  0  0  0
    4.7057    0.3324  -14.6226 C   0  0  0  0  0  0  0  0  0  0  0  0
    3.9868   -0.7473  -15.1128 C   0  0  0  0  0  0  0  0  0  0  0  0
    2.8407   -0.9544  -14.6189 O   0  0  0  0  0  0  0  0  0  0  0  0
    4.4560   -1.5583  -16.0695 N   0  0  0  0  0  0  0  0  0  0  0  0
    3.8375   -2.3408  -16.3681 H   0  0  0  0  0  0  0  0  0  0  0  0
    5.6572   -1.3259  -16.5744 C   0  0  0  0  0  0  0  0  0  0  0  0
    6.4651   -0.2557  -16.1440 C   0  0  0  0  0  0  0  0  0  0  0  0
    5.9777    0.5684  -15.1657 C   0  0  0  0  0  0  0  0  0  0  0  0
    6.7309    1.6386  -14.7033 C   0  0  0  0  0  0  0  0  0  0  0  0
    7.9731    1.9095  -15.1995 C   0  0  0  0  0  0  0  0  0  0  0  0
    8.5118    1.2460  -16.0728 O   0  0  0  0  0  0  0  0  0  0  0  0
    8.6557    2.9584  -14.7137 N   0  0  0  0  0  0  0  0  0  0  0  0
    9.6236    3.1831  -15.0889 H   0  0  0  0  0  0  0  0  0  0  0  0
    8.1958    3.7650  -13.7659 C   0  0  0  0  0  0  0  0  0  0  0  0
    8.9165    4.8355  -13.2841 C   0  0  0  0  0  0  0  0  0  0  0  0
   11.3182    8.0186   -6.0624 C   0  0  0  0  0  0  0  0  0  0  0  0
   11.6474    9.0208   -6.9492 C   0  0  0  0  0  0  0  0  0  0  0  0
   11.2932    8.9894   -8.2828 C   0  0  0  0  0  0  0  0  0  0  0  0
   10.5769    7.9199   -8.7831 C   0  0  0  0  0  0  0  0  0  0  0  0
   10.2343    6.8988   -7.9087 C   0  0  0  0  0  0  0  0  0  0  0  0
    9.5204    5.8342   -8.4097 C   0  0  0  0  0  0  0  0  0  0  0  0
    9.1854    5.8201   -9.7055 N   0  0  0  0  0  0  0  0  0  0  0  0
    9.5237    6.8142  -10.5384 C   0  0  0  0  0  0  0  0  0  0  0  0
    9.1799    6.7714  -11.8064 N   0  0  0  0  0  0  0  0  0  0  0  0
   10.2176    7.8601  -10.0758 N   0  0  0  0  0  0  0  0  0  0  0  0
   10.4732    8.6294  -10.7452 H   0  0  0  0  0  0  0  0  0  0  0  0
   10.5940    6.9450   -6.5851 C   0  0  0  0  0  0  0  0  0  0  0  0
   12.3657    7.9797   -1.9230 C   0  0  0  0  0  0  0  0  0  0  0  0
   12.4047    9.1632   -2.6438 C   0  0  0  0  0  0  0  0  0  0  0  0
   12.0648    9.1673   -3.9808 C   0  0  0  0  0  0  0  0  0  0  0  0
   11.6790    8.0269   -4.6524 C   0  0  0  0  0  0  0  0  0  0  0  0
   11.6449    6.8528   -3.9194 C   0  0  0  0  0  0  0  0  0  0  0  0
   11.9837    6.8207   -2.5664 C   0  0  0  0  0  0  0  0  0  0  0  0
 35 36  2  0
 36 37  1  0
 37 38  2  0
 38 23  1  0
 23 24  2  0
 24 25  1  0
 25 26  2  0
 26 27  1  0
 27 28  1  0
 28 29  2  0
 29 30  1  0
 30 31  2  0
 31  1  1  0
  1  2  2  0
  2  3  1  0
  3  4  2  0
  4  5  1  0
  5  6  2  0
  6  7  1  0
  7  8  2  0
  8  9  1  0
  9 10  2  0
  9 11  1  0
 11 12  1  0
 11 13  1  0
 13 14  2  0
 14 15  1  0
 15 16  2  0
 16 17  1  0
 17 18  2  0
 17 19  1  0
 19 20  1  0
 19 21  1  0
 21 22  2  0
 30 32  1  0
 32 33  1  0
 27 34  2  0
 38 39  1  0
 39 40  2  0
 40 35  1  0
 34 23  1  0
 32 26  1  0
 22  1  1  0
 21  4  1  0
 16  5  1  0
 15  8  1  0
M  END
>  <minimizedAffinity>  (417) 
-16.95592

$$$$
Mol: 135_5 - SminaDock
     RDKit          3D

 47 54  0  0  0  0  0  0  0  0999 V2000
    9.1175    5.6566  -12.8388 C   0  0  0  0  0  0  0  0  0  0  0  0
    9.5065    4.6696  -13.7065 C   0  0  0  0  0  0  0  0  0  0  0  0
    8.6818    3.6220  -14.0977 C   0  0  0  0  0  0  0  0  0  0  0  0
    7.4192    3.5990  -13.5728 C   0  0  0  0  0  0  0  0  0  0  0  0
    6.9592    4.5508  -12.7003 C   0  0  0  0  0  0  0  0  0  0  0  0
    7.8335    5.5844  -12.3404 C   0  0  0  0  0  0  0  0  0  0  0  0
    7.3681    6.6466  -11.3872 C   0  0  0  0  0  0  0  0  0  0  0  0
    6.5230    2.5007  -13.9394 C   0  0  0  0  0  0  0  0  0  0  0  0
    5.2438    2.4677  -13.4337 C   0  0  0  0  0  0  0  0  0  0  0  0
    4.3777    1.4519  -13.7736 C   0  0  0  0  0  0  0  0  0  0  0  0
    4.8153    0.4704  -14.6281 C   0  0  0  0  0  0  0  0  0  0  0  0
    6.1110    0.4787  -15.1572 C   0  0  0  0  0  0  0  0  0  0  0  0
    6.9863    1.5175  -14.8052 C   0  0  0  0  0  0  0  0  0  0  0  0
    8.3359    1.4680  -15.3791 C   0  0  0  0  0  0  0  0  0  0  0  0
    9.1701    2.6469  -15.0237 C   0  0  2  0  0  0  0  0  0  0  0  0
   10.5598    2.1242  -14.7135 C   0  0  0  0  0  0  0  0  0  0  0  0
   11.0169    1.6503  -16.0957 C   0  0  0  0  0  0  0  0  0  0  0  0
   10.3340    2.4794  -17.0446 N   0  0  1  0  0  0  0  0  0  0  0  0
   11.0099    3.0738  -17.6144 H   0  0  0  0  0  0  0  0  0  0  0  0
    9.8241    1.9226  -17.7872 H   0  0  0  0  0  0  0  0  0  0  0  0
    9.4935    3.3970  -16.3413 C   0  0  0  0  0  0  0  0  0  0  0  0
    6.5606   -0.5600  -16.0529 C   0  0  0  0  0  0  0  0  0  0  0  0
    7.7251   -0.5830  -16.5485 O   0  0  0  0  0  0  0  0  0  0  0  0
    5.6330   -1.6535  -16.4181 C   0  0  0  0  0  0  0  0  0  0  0  0
    6.0556   -2.5384  -17.1977 O   0  0  0  0  0  0  0  0  0  0  0  0
    4.3304   -1.6425  -15.8734 N   0  0  0  0  0  0  0  0  0  0  0  0
    3.6525   -2.4021  -16.1132 H   0  0  0  0  0  0  0  0  0  0  0  0
    3.8980   -0.6210  -14.9963 C   0  0  0  0  0  0  0  0  0  0  0  0
    2.7469   -0.5805  -14.4938 O   0  0  0  0  0  0  0  0  0  0  0  0
   11.0376    7.4982   -6.4093 C   0  0  0  0  0  0  0  0  0  0  0  0
   10.1375    6.4679   -6.6404 C   0  0  0  0  0  0  0  0  0  0  0  0
    9.7482    6.0925   -7.9020 C   0  0  0  0  0  0  0  0  0  0  0  0
   10.2549    6.7472   -9.0078 C   0  0  0  0  0  0  0  0  0  0  0  0
    9.8929    6.4029  -10.2610 N   0  0  0  0  0  0  0  0  0  0  0  0
   10.3816    7.0340  -11.3285 C   0  0  0  0  0  0  0  0  0  0  0  0
   10.0295    6.6947  -12.4910 N   0  0  0  0  0  0  0  0  0  0  0  0
   11.2511    8.0321  -11.1531 N   0  0  0  0  0  0  0  0  0  0  0  0
   11.6707    8.5664  -11.9515 H   0  0  0  0  0  0  0  0  0  0  0  0
   11.6497    8.4208   -9.9282 C   0  0  0  0  0  0  0  0  0  0  0  0
   11.1510    7.7750   -8.8121 C   0  0  0  0  0  0  0  0  0  0  0  0
   11.5283    8.1352   -7.5298 C   0  0  0  0  0  0  0  0  0  0  0  0
   12.1734    8.4686   -2.4505 C   0  0  0  0  0  0  0  0  0  0  0  0
   11.9755    7.1586   -2.8121 C   0  0  0  0  0  0  0  0  0  0  0  0
   11.6050    6.8754   -4.1130 C   0  0  0  0  0  0  0  0  0  0  0  0
   11.4290    7.8713   -5.0559 C   0  0  0  0  0  0  0  0  0  0  0  0
   11.6355    9.1697   -4.6584 C   0  0  0  0  0  0  0  0  0  0  0  0
   12.0074    9.4748   -3.3586 C   0  0  0  0  0  0  0  0  0  0  0  0
 42 43  2  0
 43 44  1  0
 44 45  2  0
 45 30  1  0
 30 31  1  0
 31 32  2  0
 32 33  1  0
 33 34  2  0
 34 35  1  0
 35 36  2  0
 36  1  1  0
  1  2  2  0
  2  3  1  0
  3  4  2  0
  4  5  1  0
  5  6  2  0
  6  7  1  0
  4  8  1  0
  8  9  2  0
  9 10  1  0
 10 11  2  0
 11 12  1  0
 12 13  2  0
 13 14  1  0
 15 14  1  6
 15 16  1  0
 16 17  1  0
 17 18  1  0
 18 19  1  6
 18 20  1  0
 18 21  1  0
 12 22  1  0
 22 23  2  0
 22 24  1  0
 24 25  2  0
 24 26  1  0
 26 27  1  0
 26 28  1  0
 28 29  2  0
 35 37  1  0
 37 38  1  0
 37 39  1  0
 39 40  2  0
 40 41  1  0
 45 46  1  0
 46 47  2  0
 47 42  1  0
 41 30  2  0
 40 33  1  0
  6  1  1  0
 13  8  1  0
 21 15  1  0
 15  3  1  0
 28 11  1  0
M  CHG  1  18   1
M  END
>  <minimizedAffinity>  (418) 
-16.98190

$$$$
Mol: 135_7 - SminaDock
     RDKit          3D

 53 62  0  0  0  0  0  0  0  0999 V2000
    3.3130   -1.9109  -15.8867 H   0  0  0  0  0  0  0  0  0  0  0  0
    4.0251   -1.6857  -16.5912 O   0  0  0  0  0  0  0  0  0  0  0  0
    4.9711   -0.6861  -16.3556 C   0  0  0  0  0  0  0  0  0  0  0  0
    4.8999    0.1253  -15.2833 N   0  0  0  0  0  0  0  0  0  0  0  0
    5.8026    1.0926  -15.0415 C   0  0  0  0  0  0  0  0  0  0  0  0
    5.9543    2.0071  -14.0748 N   0  0  0  0  0  0  0  0  0  0  0  0
    7.0784    2.7501  -14.3395 C   0  0  0  0  0  0  0  0  0  0  0  0
    7.6075    2.2891  -15.4642 N   0  0  0  0  0  0  0  0  0  0  0  0
    6.8339    1.2455  -15.9363 C   0  0  0  0  0  0  0  0  0  0  0  0
    6.9382    0.4318  -17.0460 C   0  0  0  0  0  0  0  0  0  0  0  0
    6.0003   -0.5508  -17.2696 C   0  0  0  0  0  0  0  0  0  0  0  0
    8.7731    2.8351  -16.0548 C   0  0  0  0  0  0  0  0  0  0  0  0
    9.5333    3.8751  -15.3100 C   0  0  2  0  0  0  0  0  0  0  0  0
    8.8738    4.4063  -14.0932 C   0  0  0  0  0  0  0  0  0  0  0  0
    9.4822    5.4679  -13.4412 C   0  0  0  0  0  0  0  0  0  0  0  0
    8.9162    5.9696  -12.2928 C   0  0  0  0  0  0  0  0  0  0  0  0
    7.7459    5.4120  -11.7978 C   0  0  0  0  0  0  0  0  0  0  0  0
    7.1652    4.3567  -12.4710 C   0  0  0  0  0  0  0  0  0  0  0  0
    7.7184    3.8361  -13.6303 C   0  0  0  0  0  0  0  0  0  0  0  0
    9.8891    4.9821  -16.2657 C   0  0  0  0  0  0  0  0  0  0  0  0
   11.3089    5.3239  -16.4273 C   0  0  0  0  0  0  0  0  0  0  0  0
   12.2739    4.3190  -16.1833 N   0  0  0  0  0  0  0  0  0  0  0  0
   11.7996    3.0111  -15.8930 C   0  0  0  0  0  0  0  0  0  0  0  0
   10.7829    3.1735  -14.7728 C   0  0  0  0  0  0  0  0  0  0  0  0
    9.5300    7.0728  -11.5962 N   0  0  0  0  0  0  0  0  0  0  0  0
    9.8210    7.0217  -10.3426 C   0  0  0  0  0  0  0  0  0  0  0  0
   10.3912    8.0835   -9.7568 N   0  0  0  0  0  0  0  0  0  0  0  0
   10.7321    8.1163   -8.4436 C   0  0  0  0  0  0  0  0  0  0  0  0
   11.3182    9.2379   -7.8901 C   0  0  0  0  0  0  0  0  0  0  0  0
   11.6425    9.2162   -6.5569 C   0  0  0  0  0  0  0  0  0  0  0  0
   11.3848    8.0842   -5.7792 C   0  0  0  0  0  0  0  0  0  0  0  0
   10.7999    6.9590   -6.3218 C   0  0  0  0  0  0  0  0  0  0  0  0
   10.4804    7.0024   -7.6708 C   0  0  0  0  0  0  0  0  0  0  0  0
    9.8926    5.8970   -8.2567 C   0  0  0  0  0  0  0  0  0  0  0  0
    9.5820    5.9475   -9.5814 N   0  0  0  0  0  0  0  0  0  0  0  0
    9.1431    5.1000   -9.9780 H   0  0  0  0  0  0  0  0  0  0  0  0
   11.7466    8.1071   -4.3706 C   0  0  0  0  0  0  0  0  0  0  0  0
   12.0909    9.2832   -3.7392 C   0  0  0  0  0  0  0  0  0  0  0  0
   12.4308    9.2869   -2.4041 C   0  0  0  0  0  0  0  0  0  0  0  0
   12.4176    8.0923   -1.7215 C   0  0  0  0  0  0  0  0  0  0  0  0
   12.0772    6.9151   -2.3367 C   0  0  0  0  0  0  0  0  0  0  0  0
   11.7379    6.9202   -3.6752 C   0  0  0  0  0  0  0  0  0  0  0  0
   13.3967    4.4179  -17.0524 C   0  0  0  0  0  0  0  0  0  0  0  0
   13.4283    5.5919  -17.9244 C   0  0  0  0  0  0  0  0  0  0  0  0
   12.6843    5.5925  -19.0715 C   0  0  0  0  0  0  0  0  0  0  0  0
   12.7337    6.7166  -19.8727 C   0  0  0  0  0  0  0  0  0  0  0  0
   13.4912    7.8173  -19.5654 C   0  0  0  0  0  0  0  0  0  0  0  0
   13.5002    8.9226  -20.4138 C   0  0  0  0  0  0  0  0  0  0  0  0
   14.2717   10.0146  -20.0773 C   0  0  0  0  0  0  0  0  0  0  0  0
   15.0274   10.0280  -18.9239 C   0  0  0  0  0  0  0  0  0  0  0  0
   14.9902    8.8991  -18.1005 C   0  0  0  0  0  0  0  0  0  0  0  0
   14.2347    7.8033  -18.4092 C   0  0  0  0  0  0  0  0  0  0  0  0
   14.2039    6.6780  -17.5783 C   0  0  0  0  0  0  0  0  0  0  0  0
  1  2  1  0
  2  3  1  0
  3  4  2  0
  4  5  1  0
  5  6  1  0
  6  7  2  0
  7  8  1  0
  8  9  1  0
  9 10  1  0
 10 11  2  0
  8 12  1  0
 13 12  1  6
 13 14  1  0
 14 15  2  0
 15 16  1  0
 16 25  1  0
 25 26  2  0
 26 27  1  0
 27 28  2  0
 28 29  1  0
 29 30  2  0
 30 31  1  0
 31 37  1  0
 37 38  2  0
 38 39  1  0
 39 40  2  0
 40 41  1  0
 41 42  2  0
 31 32  2  0
 32 33  1  0
 33 34  2  0
 34 35  1  0
 35 36  1  0
 16 17  2  0
 17 18  1  0
 18 19  2  0
 13 20  1  0
 20 21  1  0
 21 22  1  0
 22 43  1  0
 43 44  1  0
 44 45  2  0
 45 46  1  0
 46 47  2  0
 47 48  1  0
 48 49  2  0
 49 50  1  0
 50 51  2  0
 51 52  1  0
 52 53  2  0
 22 23  1  0
 23 24  1  0
 11  3  1  0
 24 13  1  0
  9  5  2  0
 19 14  1  0
 53 44  1  0
 19  7  1  0
 52 47  1  0
 35 26  1  0
 33 28  1  0
 42 37  1  0
M  END
>  <minimizedAffinity>  (419) 
-16.98385

$$$$
Mol: 135_12 - SminaDock
     RDKit          3D

 42 48  0  0  0  0  0  0  0  0999 V2000
   11.7110    3.1213  -16.6940 H   0  0  0  0  0  0  0  0  0  0  0  0
   11.6064    2.5023  -15.8778 O   0  0  0  0  0  0  0  0  0  0  0  0
   10.3297    2.1507  -15.4015 C   0  0  0  0  0  0  0  0  0  0  0  0
    9.2579    2.8070  -15.5806 N   0  0  0  0  0  0  0  0  0  0  0  0
    8.1239    2.1688  -14.9592 C   0  0  1  0  0  0  0  0  0  0  0  0
    8.7073    0.9333  -14.3272 C   0  0  0  0  0  0  0  0  0  0  0  0
    8.0996    0.0561  -13.6686 O   0  0  0  0  0  0  0  0  0  0  0  0
   10.0923    0.9748  -14.6371 N   0  0  0  0  0  0  0  0  0  0  0  0
   10.7798    0.2448  -14.3341 H   0  0  0  0  0  0  0  0  0  0  0  0
    7.5026    3.0373  -13.9457 C   0  0  0  0  0  0  0  0  0  0  0  0
    8.3469    4.0669  -13.6027 C   0  0  0  0  0  0  0  0  0  0  0  0
    7.9802    5.0238  -12.6581 C   0  0  0  0  0  0  0  0  0  0  0  0
    6.7541    4.9199  -12.0729 C   0  0  0  0  0  0  0  0  0  0  0  0
    5.9043    3.8735  -12.4261 C   0  0  0  0  0  0  0  0  0  0  0  0
    6.2660    2.9337  -13.3546 C   0  0  0  0  0  0  0  0  0  0  0  0
    5.2356    1.9494  -13.5618 N   0  0  0  0  0  0  0  0  0  0  0  0
    4.3850    2.0052  -12.9966 H   0  0  0  0  0  0  0  0  0  0  0  0
    5.2635    0.8688  -14.4943 C   0  0  0  0  0  0  0  0  0  0  0  0
    4.3481   -0.1305  -14.2479 C   0  0  0  0  0  0  0  0  0  0  0  0
    4.2458   -1.2486  -15.0548 C   0  0  0  0  0  0  0  0  0  0  0  0
    5.1071   -1.3202  -16.1253 C   0  0  0  0  0  0  0  0  0  0  0  0
    6.0340   -0.3367  -16.3981 C   0  0  0  0  0  0  0  0  0  0  0  0
    6.1322    0.7861  -15.5827 C   0  0  0  0  0  0  0  0  0  0  0  0
    7.1852    1.7361  -16.0363 C   0  0  0  0  0  0  0  0  0  0  0  0
    8.8306    6.0877  -12.2919 N   0  0  0  0  0  0  0  0  0  0  0  0
    9.1729    6.2049  -11.0607 C   0  0  0  0  0  0  0  0  0  0  0  0
    8.7525    5.3538  -10.1080 N   0  0  0  0  0  0  0  0  0  0  0  0
    9.1225    5.5007   -8.8474 N   0  0  0  0  0  0  0  0  0  0  0  0
    9.9330    6.4942   -8.4282 C   0  0  0  0  0  0  0  0  0  0  0  0
   10.3126    6.6345   -7.0990 C   0  0  0  0  0  0  0  0  0  0  0  0
   11.1428    7.6604   -6.6985 C   0  0  0  0  0  0  0  0  0  0  0  0
   11.5798    8.5392   -7.6674 C   0  0  0  0  0  0  0  0  0  0  0  0
   11.2022    8.3991   -8.9876 C   0  0  0  0  0  0  0  0  0  0  0  0
   10.3714    7.3758   -9.4006 C   0  0  0  0  0  0  0  0  0  0  0  0
    9.9831    7.2083  -10.6762 N   0  0  0  0  0  0  0  0  0  0  0  0
   10.3281    7.8912  -11.4038 H   0  0  0  0  0  0  0  0  0  0  0  0
   11.5427    7.8065   -5.2930 C   0  0  0  0  0  0  0  0  0  0  0  0
   11.3692    6.8012   -4.3750 C   0  0  0  0  0  0  0  0  0  0  0  0
   11.7481    6.9440   -3.0507 C   0  0  0  0  0  0  0  0  0  0  0  0
   12.3203    8.1282   -2.6210 C   0  0  0  0  0  0  0  0  0  0  0  0
   12.5013    9.1469   -3.5292 C   0  0  0  0  0  0  0  0  0  0  0  0
   12.1147    8.9797   -4.8461 C   0  0  0  0  0  0  0  0  0  0  0  0
  1  2  1  0
  2  3  1  0
  3  4  2  0
  4  5  1  0
  5  6  1  0
  6  7  2  0
  6  8  1  0
  8  9  1  0
  5 10  1  0
 10 11  2  0
 11 12  1  0
 12 25  1  0
 25 26  2  0
 26 27  1  0
 27 28  2  0
 28 29  1  0
 29 30  2  0
 30 31  1  0
 31 37  1  0
 37 38  2  0
 38 39  1  0
 39 40  2  0
 40 41  1  0
 41 42  2  0
 31 32  2  0
 32 33  1  0
 33 34  2  0
 34 35  1  0
 35 36  1  0
 12 13  2  0
 13 14  1  0
 14 15  2  0
 15 16  1  0
 16 17  1  0
 16 18  1  0
 18 19  2  0
 19 20  1  0
 20 21  2  0
 21 22  1  0
 22 23  2  0
 23 24  1  0
  8  3  1  0
 15 10  1  0
 23 18  1  0
  5 24  1  6
 35 26  1  0
 34 29  1  0
 42 37  1  0
M  END
>  <minimizedAffinity>  (420) 
-16.97910

$$$$
Mol: 134_52 - SminaDock
     RDKit          3D

 38 44  0  0  0  0  0  0  0  0999 V2000
    3.0787   -2.0548  -15.2650 H   0  0  0  0  0  0  0  0  0  0  0  0
    3.4965   -1.1551  -14.9802 O   0  0  0  0  0  0  0  0  0  0  0  0
    4.7033   -0.8321  -15.6313 C   0  0  0  0  0  0  0  0  0  0  0  0
    5.1525   -1.4970  -16.5993 N   0  0  0  0  0  0  0  0  0  0  0  0
    6.3638   -1.2079  -17.2849 C   0  0  0  0  0  0  0  0  0  0  0  0
    7.1542   -0.0377  -16.8357 C   0  0  0  0  0  0  0  0  0  0  0  0
    6.5730    0.6927  -15.6950 C   0  0  0  0  0  0  0  0  0  0  0  0
    7.2387    1.8167  -15.1768 C   0  0  0  0  0  0  0  0  0  0  0  0
    6.7078    2.5029  -14.1210 C   0  0  0  0  0  0  0  0  0  0  0  0
    5.5345    2.1687  -13.5046 C   0  0  0  0  0  0  0  0  0  0  0  0
    4.8698    1.0449  -14.0238 C   0  0  0  0  0  0  0  0  0  0  0  0
    5.3940    0.3530  -15.0799 C   0  0  0  0  0  0  0  0  0  0  0  0
    4.9436    2.8766  -12.3561 C   0  0  0  0  0  0  0  0  0  0  0  0
    5.6149    4.0803  -11.9011 C   0  0  0  0  0  0  0  0  0  0  0  0
    6.8853    4.3769  -12.5775 C   0  0  0  0  0  0  0  0  0  0  0  0
    7.6106    5.4974  -12.1116 C   0  0  0  0  0  0  0  0  0  0  0  0
    8.7960    5.9021  -12.6482 C   0  0  0  0  0  0  0  0  0  0  0  0
    9.3221    5.1994  -13.6891 C   0  0  0  0  0  0  0  0  0  0  0  0
    8.6282    4.0852  -14.1728 C   0  0  0  0  0  0  0  0  0  0  0  0
    7.4355    3.6904  -13.6212 C   0  0  0  0  0  0  0  0  0  0  0  0
    9.4456    7.0591  -12.0916 N   0  0  0  0  0  0  0  0  0  0  0  0
    9.7357    7.0227  -10.8109 C   0  0  0  0  0  0  0  0  0  0  0  0
   10.3414    8.0625  -10.2189 N   0  0  0  0  0  0  0  0  0  0  0  0
   10.6412    8.0345   -8.9141 C   0  0  0  0  0  0  0  0  0  0  0  0
   11.2711    9.1118   -8.2902 C   0  0  0  0  0  0  0  0  0  0  0  0
   11.5969    9.1245   -6.9524 C   0  0  0  0  0  0  0  0  0  0  0  0
   11.2742    8.0028   -6.2086 C   0  0  0  0  0  0  0  0  0  0  0  0
   10.6523    6.9217   -6.7910 C   0  0  0  0  0  0  0  0  0  0  0  0
   10.3407    6.9415   -8.1305 C   0  0  0  0  0  0  0  0  0  0  0  0
    9.7163    5.8924   -8.7836 C   0  0  0  0  0  0  0  0  0  0  0  0
    9.4302    5.9491  -10.0848 N   0  0  0  0  0  0  0  0  0  0  0  0
    8.9633    5.1448  -10.5360 H   0  0  0  0  0  0  0  0  0  0  0  0
   11.6167    8.0113   -4.7927 C   0  0  0  0  0  0  0  0  0  0  0  0
   11.6404    6.8336   -4.0407 C   0  0  0  0  0  0  0  0  0  0  0  0
   11.9637    6.8368   -2.7016 C   0  0  0  0  0  0  0  0  0  0  0  0
   12.2697    8.0643   -2.1136 C   0  0  0  0  0  0  0  0  0  0  0  0
   12.2477    9.2348   -2.8547 C   0  0  0  0  0  0  0  0  0  0  0  0
   11.9223    9.2075   -4.1894 C   0  0  0  0  0  0  0  0  0  0  0  0
  1  2  1  0
  2  3  1  0
  3  4  2  0
  4  5  1  0
  5  6  1  0
  6  7  1  0
  7  8  2  0
  8  9  1  0
  9 10  2  0
 10 11  1  0
 11 12  2  0
 10 13  1  0
 13 14  1  0
 14 15  1  0
 15 16  2  0
 16 17  1  0
 17 21  1  0
 21 22  2  0
 22 23  1  0
 23 24  2  0
 24 25  1  0
 25 26  2  0
 26 27  1  0
 27 33  1  0
 33 34  2  0
 34 35  1  0
 35 36  2  0
 36 37  1  0
 37 38  2  0
 27 28  2  0
 28 29  1  0
 29 30  2  0
 30 31  1  0
 31 32  1  0
 17 18  2  0
 18 19  1  0
 19 20  2  0
 12  3  1  0
 20 15  1  0
 12  7  1  0
 31 22  1  0
 20  9  1  0
 29 24  1  0
 38 33  1  0
M  END
>  <minimizedAffinity>  (421) 
-16.95928

$$$$
Mol: 181_14 - SminaDock
     RDKit          3D

 38 44  0  0  0  0  0  0  0  0999 V2000
    5.7045   -2.4611  -17.0618 O   0  0  0  0  0  0  0  0  0  0  0  0
    5.4927   -1.5228  -16.2243 C   0  0  0  0  0  0  0  0  0  0  0  0
    4.3206   -1.4288  -15.5086 O   0  0  0  0  0  0  0  0  0  0  0  0
    3.9680   -0.4635  -14.5757 C   0  0  0  0  0  0  0  0  0  0  0  0
    5.0031    0.5396  -14.3708 C   0  0  0  0  0  0  0  0  0  0  0  0
    4.7334    1.5488  -13.4462 C   0  0  0  0  0  0  0  0  0  0  0  0
    5.6856    2.5237  -13.2187 C   0  0  0  0  0  0  0  0  0  0  0  0
    6.8921    2.5359  -13.8716 C   0  0  0  0  0  0  0  0  0  0  0  0
    7.1285    1.5314  -14.7742 C   0  0  0  0  0  0  0  0  0  0  0  0
    6.1929    0.5314  -15.0302 C   0  0  0  0  0  0  0  0  0  0  0  0
    6.5142   -0.5096  -16.0066 C   0  0  0  0  0  0  0  0  0  0  0  0
    7.6146   -0.4734  -16.5828 O   0  0  0  0  0  0  0  0  0  0  0  0
    7.7251    3.6714  -13.4551 C   0  0  0  0  0  0  0  0  0  0  0  0
    9.0048    4.0878  -13.8370 C   0  0  0  0  0  0  0  0  0  0  0  0
    9.5589    5.2146  -13.2740 C   0  0  0  0  0  0  0  0  0  0  0  0
    8.8379    5.9206  -12.3350 C   0  0  0  0  0  0  0  0  0  0  0  0
    7.5776    5.4953  -11.9707 C   0  0  0  0  0  0  0  0  0  0  0  0
    6.9850    4.3584  -12.5203 C   0  0  0  0  0  0  0  0  0  0  0  0
    5.7030    3.6989  -12.3242 C   0  0  0  0  0  0  0  0  0  0  0  0
    4.7823    4.0334  -11.5613 O   0  0  0  0  0  0  0  0  0  0  0  0
    9.4466    7.0739  -11.7812 N   0  0  0  0  0  0  0  0  0  0  0  0
    9.7669    7.0728  -10.5426 C   0  0  0  0  0  0  0  0  0  0  0  0
    9.5255    5.9903   -9.7896 N   0  0  0  0  0  0  0  0  0  0  0  0
    9.8551    5.9723   -8.4906 C   0  0  0  0  0  0  0  0  0  0  0  0
   10.4511    7.0411   -7.8551 C   0  0  0  0  0  0  0  0  0  0  0  0
   10.7913    7.0215   -6.5128 C   0  0  0  0  0  0  0  0  0  0  0  0
   11.3870    8.1159   -5.9185 C   0  0  0  0  0  0  0  0  0  0  0  0
   11.6344    9.2262   -6.6916 C   0  0  0  0  0  0  0  0  0  0  0  0
   11.2913    9.2332   -8.0255 C   0  0  0  0  0  0  0  0  0  0  0  0
   10.6938    8.1480   -8.6412 C   0  0  0  0  0  0  0  0  0  0  0  0
   10.3508    8.1312   -9.9376 N   0  0  0  0  0  0  0  0  0  0  0  0
    9.0706    5.1468  -10.2311 H   0  0  0  0  0  0  0  0  0  0  0  0
   11.7403    8.0730   -4.4902 C   0  0  0  0  0  0  0  0  0  0  0  0
   12.1119    9.2209   -3.8134 C   0  0  0  0  0  0  0  0  0  0  0  0
   12.4395    9.1631   -2.4773 C   0  0  0  0  0  0  0  0  0  0  0  0
   12.4162    7.9900   -1.7588 C   0  0  0  0  0  0  0  0  0  0  0  0
   12.0417    6.8492   -2.4527 C   0  0  0  0  0  0  0  0  0  0  0  0
   11.7123    6.8946   -3.7867 C   0  0  0  0  0  0  0  0  0  0  0  0
  1  2  2  0
  2  3  1  0
  3  4  1  0
  4  5  1  0
  5  6  2  0
  6  7  1  0
  7  8  2  0
  8  9  1  0
  9 10  2  0
 10 11  1  0
 11 12  2  0
  8 13  1  0
 13 14  2  0
 14 15  1  0
 15 16  2  0
 16 21  1  0
 21 22  2  0
 22 23  1  0
 23 24  1  0
 24 25  2  0
 25 26  1  0
 26 27  2  0
 27 33  1  0
 33 34  2  0
 34 35  1  0
 35 36  2  0
 36 37  1  0
 37 38  2  0
 27 28  1  0
 28 29  2  0
 29 30  1  0
 30 31  2  0
 16 17  1  0
 17 18  2  0
 18 19  1  0
 19 20  2  0
 11  2  1  0
 18 13  1  0
 10  5  1  0
 31 22  1  0
 19  7  1  0
 30 25  1  0
 38 33  1  0
 23 32  1  0
M  END
>  <minimizedAffinity>  (422) 
-17.02767

$$$$
Mol: 134_18 - SminaDock
     RDKit          3D

 43 50  0  0  0  0  0  0  0  0999 V2000
   12.8843    3.0086  -17.8329 H   0  0  0  0  0  0  0  0  0  0  0  0
   12.5149    2.9366  -16.9140 O   0  0  0  0  0  0  0  0  0  0  0  0
   11.3478    3.5826  -16.4826 C   0  0  0  0  0  0  0  0  0  0  0  0
   10.5144    4.1946  -17.2701 N   0  0  0  0  0  0  0  0  0  0  0  0
    9.4208    4.7494  -16.4963 C   0  0  0  0  0  0  0  0  0  0  0  0
    9.4089    3.7767  -15.2919 C   0  0  1  0  0  0  0  0  0  0  0  0
    8.8048    4.3937  -14.1308 C   0  0  0  0  0  0  0  0  0  0  0  0
    9.3738    5.5077  -13.5788 C   0  0  0  0  0  0  0  0  0  0  0  0
    8.7730    6.1299  -12.4783 C   0  0  0  0  0  0  0  0  0  0  0  0
    7.6063    5.6212  -11.9482 C   0  0  0  0  0  0  0  0  0  0  0  0
    7.0275    4.4810  -12.5152 C   0  0  0  0  0  0  0  0  0  0  0  0
    7.6463    3.8988  -13.5928 C   0  0  0  0  0  0  0  0  0  0  0  0
    7.0689    2.6724  -14.1757 C   0  0  0  0  0  0  0  0  0  0  0  0
    5.9018    2.1759  -13.7027 N   0  0  0  0  0  0  0  0  0  0  0  0
    5.3204    1.0831  -14.2287 C   0  0  0  0  0  0  0  0  0  0  0  0
    4.1312    0.6129  -13.7147 C   0  0  0  0  0  0  0  0  0  0  0  0
    3.5225   -0.5111  -14.2475 C   0  0  0  0  0  0  0  0  0  0  0  0
    4.0902   -1.1917  -15.3086 C   0  0  0  0  0  0  0  0  0  0  0  0
    5.2789   -0.7320  -15.8316 C   0  0  0  0  0  0  0  0  0  0  0  0
    5.8888    0.4060  -15.2871 C   0  0  0  0  0  0  0  0  0  0  0  0
    7.0710    0.8812  -15.7901 C   0  0  0  0  0  0  0  0  0  0  0  0
    7.6627    2.0315  -15.2191 C   0  0  0  0  0  0  0  0  0  0  0  0
    8.9534    2.4739  -15.7684 C   0  0  0  0  0  0  0  0  0  0  0  0
   10.8837    3.6782  -15.1400 N   0  0  0  0  0  0  0  0  0  0  0  0
   11.6785    3.6758  -13.9563 C   0  0  0  0  0  0  0  0  0  0  0  0
    9.3259    7.2813  -11.8779 N   0  0  0  0  0  0  0  0  0  0  0  0
    9.6683    7.2502  -10.6437 C   0  0  0  0  0  0  0  0  0  0  0  0
    9.4932    6.1191   -9.9457 N   0  0  0  0  0  0  0  0  0  0  0  0
    9.8276    6.0055   -8.6450 C   0  0  0  0  0  0  0  0  0  0  0  0
   10.3687    7.0746   -7.9917 C   0  0  0  0  0  0  0  0  0  0  0  0
   10.7309    7.0135   -6.6553 C   0  0  0  0  0  0  0  0  0  0  0  0
   11.2816    8.1005   -5.9895 C   0  0  0  0  0  0  0  0  0  0  0  0
   11.4631    9.2649   -6.7032 C   0  0  0  0  0  0  0  0  0  0  0  0
   11.0993    9.3164   -8.0339 C   0  0  0  0  0  0  0  0  0  0  0  0
   10.5547    8.2450   -8.6967 C   0  0  0  0  0  0  0  0  0  0  0  0
   10.2012    8.3089  -10.0068 N   0  0  0  0  0  0  0  0  0  0  0  0
   10.3448    9.1917  -10.5268 H   0  0  0  0  0  0  0  0  0  0  0  0
   11.6560    8.0119   -4.5798 C   0  0  0  0  0  0  0  0  0  0  0  0
   12.0207    9.1568   -3.9290 C   0  0  0  0  0  0  0  0  0  0  0  0
   12.3844    9.1089   -2.5827 C   0  0  0  0  0  0  0  0  0  0  0  0
   12.3712    7.9042   -1.9250 C   0  0  0  0  0  0  0  0  0  0  0  0
   12.0052    6.7459   -2.5727 C   0  0  0  0  0  0  0  0  0  0  0  0
   11.6486    6.8092   -3.9021 C   0  0  0  0  0  0  0  0  0  0  0  0
  1  2  1  0
  2  3  1  0
  3  4  2  0
  4  5  1  0
  6  5  1  6
  6  7  1  0
  7  8  2  0
  8  9  1  0
  9 26  1  0
 26 27  2  0
 27 28  1  0
 28 29  2  0
 29 30  1  0
 30 31  2  0
 31 32  1  0
 32 38  1  0
 38 39  2  0
 39 40  1  0
 40 41  2  0
 41 42  1  0
 42 43  2  0
 32 33  2  0
 33 34  1  0
 34 35  2  0
 35 36  1  0
 36 37  1  0
  9 10  2  0
 10 11  1  0
 11 12  2  0
 12 13  1  0
 13 14  2  0
 14 15  1  0
 15 16  2  0
 16 17  1  0
 17 18  2  0
 18 19  1  0
 19 20  2  0
 20 21  1  0
 21 22  2  0
 22 23  1  0
  6 24  1  0
 24 25  1  0
 24  3  1  0
 23  6  1  0
 12  7  1  0
 22 13  1  0
 36 27  1  0
 20 15  1  0
 35 30  1  0
 43 38  1  0
M  END
>  <minimizedAffinity>  (423) 
-16.98353

$$$$
Mol: 180_59 - SminaDock
     RDKit          3D

 38 44  0  0  0  0  0  0  0  0999 V2000
    8.6569    5.6328  -12.2986 C   0  0  0  0  0  0  0  0  0  0  0  0
    9.2840    5.0196  -13.3436 C   0  0  0  0  0  0  0  0  0  0  0  0
    8.6666    3.9709  -13.9899 C   0  0  0  0  0  0  0  0  0  0  0  0
    7.3915    3.5183  -13.5900 C   0  0  0  0  0  0  0  0  0  0  0  0
    6.7418    4.1237  -12.5465 C   0  0  0  0  0  0  0  0  0  0  0  0
    5.3715    3.8268  -12.1375 C   0  0  0  0  0  0  0  0  0  0  0  0
    7.4210    5.1962  -11.9115 C   0  0  0  0  0  0  0  0  0  0  0  0
    6.7430    2.4486  -14.3762 C   0  0  0  0  0  0  0  0  0  0  0  0
    7.3832    1.9246  -15.5178 C   0  0  0  0  0  0  0  0  0  0  0  0
    6.8394    0.8658  -16.1725 C   0  0  0  0  0  0  0  0  0  0  0  0
    5.6685    0.2980  -15.7348 C   0  0  0  0  0  0  0  0  0  0  0  0
    5.1178   -0.7853  -16.4179 C   0  0  0  0  0  0  0  0  0  0  0  0
    3.9466   -1.3375  -15.9667 C   0  0  0  0  0  0  0  0  0  0  0  0
    3.3029   -0.8455  -14.8541 C   0  0  0  0  0  0  0  0  0  0  0  0
    3.8677    0.2395  -14.1819 C   0  0  0  0  0  0  0  0  0  0  0  0
    5.0378    0.7904  -14.6336 C   0  0  0  0  0  0  0  0  0  0  0  0
    5.5853    1.8888  -13.9347 C   0  0  0  0  0  0  0  0  0  0  0  0
    8.6319    2.4934  -16.0850 C   0  0  0  0  0  0  0  0  0  0  0  0
    9.3455    3.2914  -15.0825 C   0  0  0  0  0  0  0  0  0  0  0  0
   10.6223    3.4069  -15.1556 O   0  0  0  0  0  0  0  0  0  0  0  0
   11.3152    8.0586   -5.9789 C   0  0  0  0  0  0  0  0  0  0  0  0
   11.5410    9.1511   -6.8047 C   0  0  0  0  0  0  0  0  0  0  0  0
   11.1570    9.0559   -8.1096 C   0  0  0  0  0  0  0  0  0  0  0  0
   10.5578    7.9157   -8.6217 C   0  0  0  0  0  0  0  0  0  0  0  0
   10.3298    6.8188   -7.7974 C   0  0  0  0  0  0  0  0  0  0  0  0
    9.7342    5.6825   -8.3022 C   0  0  0  0  0  0  0  0  0  0  0  0
    9.3744    5.6355   -9.5899 N   0  0  0  0  0  0  0  0  0  0  0  0
    9.5966    6.6909  -10.3719 C   0  0  0  0  0  0  0  0  0  0  0  0
    9.2705    6.7023  -11.6228 N   0  0  0  0  0  0  0  0  0  0  0  0
   10.1738    7.7965   -9.8899 N   0  0  0  0  0  0  0  0  0  0  0  0
   10.3479    8.6352  -10.5207 H   0  0  0  0  0  0  0  0  0  0  0  0
   10.7171    6.9186   -6.4872 C   0  0  0  0  0  0  0  0  0  0  0  0
   12.4012    8.0411   -1.8861 C   0  0  0  0  0  0  0  0  0  0  0  0
   12.0855    6.8598   -2.5202 C   0  0  0  0  0  0  0  0  0  0  0  0
   11.7338    6.8996   -3.8612 C   0  0  0  0  0  0  0  0  0  0  0  0
   11.6853    8.0652   -4.5898 C   0  0  0  0  0  0  0  0  0  0  0  0
   12.0009    9.2429   -3.9553 C   0  0  0  0  0  0  0  0  0  0  0  0
   12.3529    9.2214   -2.6211 C   0  0  0  0  0  0  0  0  0  0  0  0
 33 34  2  0
 34 35  1  0
 35 36  2  0
 36 21  1  0
 21 22  2  0
 22 23  1  0
 23 24  2  0
 24 25  1  0
 25 26  1  0
 26 27  2  0
 27 28  1  0
 28 29  2  0
 29  1  1  0
  1  2  2  0
  2  3  1  0
  3  4  2  0
  4  5  1  0
  5  6  1  0
  5  7  2  0
  4  8  1  0
  8  9  2  0
  9 10  1  0
 10 11  2  0
 11 12  1  0
 12 13  2  0
 13 14  1  0
 14 15  2  0
 15 16  1  0
 16 17  2  0
  9 18  1  0
 18 19  1  0
 19 20  2  0
 28 30  1  0
 30 31  1  0
 25 32  2  0
 36 37  1  0
 37 38  2  0
 38 33  1  0
 32 21  1  0
 30 24  1  0
  7  1  1  0
 17  8  1  0
 19  3  1  0
 16 11  1  0
M  END
>  <minimizedAffinity>  (424) 
-16.97887

$$$$
Mol: 182_23 - SminaDock
     RDKit          3D

 44 51  0  0  0  0  0  0  0  0999 V2000
   14.3545    6.3541  -18.9754 H   0  0  0  0  0  0  0  0  0  0  0  0
   13.5507    5.7909  -19.2831 N   0  0  0  0  0  0  0  0  0  0  0  0
   12.5783    5.4617  -18.4664 C   0  0  0  0  0  0  0  0  0  0  0  0
   11.5488    4.7205  -18.9263 N   0  0  0  0  0  0  0  0  0  0  0  0
   11.5351    4.4135  -19.9350 H   0  0  0  0  0  0  0  0  0  0  0  0
   10.5084    4.3394  -18.1525 C   0  0  0  0  0  0  0  0  0  0  0  0
    9.5545    3.6402  -18.6205 O   0  0  0  0  0  0  0  0  0  0  0  0
   10.5238    4.7399  -16.8338 C   0  0  0  0  0  0  0  0  0  0  0  0
    9.4551    4.3469  -16.0418 C   0  0  0  0  0  0  0  0  0  0  0  0
    9.4805    4.7472  -14.7382 C   0  0  0  0  0  0  0  0  0  0  0  0
   10.5294    5.5236  -14.2134 C   0  0  0  0  0  0  0  0  0  0  0  0
   11.5703    5.8922  -15.0298 C   0  0  0  0  0  0  0  0  0  0  0  0
   11.5872    5.5078  -16.3505 C   0  0  0  0  0  0  0  0  0  0  0  0
   12.5816    5.8434  -17.1870 N   0  0  0  0  0  0  0  0  0  0  0  0
   13.3643    6.4109  -16.8219 H   0  0  0  0  0  0  0  0  0  0  0  0
   10.6436    6.0632  -12.8574 C   0  0  0  0  0  0  0  0  0  0  0  0
   11.7866    6.3368  -12.4671 O   0  0  0  0  0  0  0  0  0  0  0  0
    9.5561    6.2885  -11.9850 N   0  0  0  0  0  0  0  0  0  0  0  0
    8.1276    6.1921  -12.2343 C   0  0  0  0  0  0  0  0  0  0  0  0
    7.7388    4.9112  -12.8917 C   0  0  0  0  0  0  0  0  0  0  0  0
    8.3416    4.2605  -13.9779 C   0  0  0  0  0  0  0  0  0  0  0  0
    7.9018    3.0605  -14.4640 C   0  0  0  0  0  0  0  0  0  0  0  0
    6.8080    2.4686  -13.8533 C   0  0  0  0  0  0  0  0  0  0  0  0
    6.2138    1.3384  -14.1392 O   0  0  0  0  0  0  0  0  0  0  0  0
    5.2021    1.1623  -13.2910 C   0  0  0  0  0  0  0  0  0  0  0  0
    5.1406    2.2325  -12.4137 C   0  0  0  0  0  0  0  0  0  0  0  0
    6.1818    3.0693  -12.7860 C   0  0  0  0  0  0  0  0  0  0  0  0
    6.6580    4.2804  -12.3229 C   0  0  0  0  0  0  0  0  0  0  0  0
    9.8788    6.6750  -10.6590 C   0  0  0  0  0  0  0  0  0  0  0  0
   10.5298    7.8868  -10.5149 C   0  0  0  0  0  0  0  0  0  0  0  0
   10.8668    8.3139   -9.2471 C   0  0  0  0  0  0  0  0  0  0  0  0
   10.5466    7.5209   -8.1461 C   0  0  0  0  0  0  0  0  0  0  0  0
    9.9047    6.3307   -8.3166 C   0  0  0  0  0  0  0  0  0  0  0  0
    9.5558    5.8804   -9.5810 C   0  0  0  0  0  0  0  0  0  0  0  0
   10.9166    8.0037   -6.8272 C   0  0  0  0  0  0  0  0  0  0  0  0
   10.9653    9.3673   -6.5628 C   0  0  0  0  0  0  0  0  0  0  0  0
   11.3080    9.8415   -5.3263 C   0  0  0  0  0  0  0  0  0  0  0  0
   11.6104    8.9452   -4.3248 C   0  0  0  0  0  0  0  0  0  0  0  0
   11.9511    9.4258   -3.0926 C   0  0  0  0  0  0  0  0  0  0  0  0
   12.2548    8.5674   -2.0817 C   0  0  0  0  0  0  0  0  0  0  0  0
   12.2172    7.2099   -2.3073 C   0  0  0  0  0  0  0  0  0  0  0  0
   11.8736    6.7239   -3.5505 C   0  0  0  0  0  0  0  0  0  0  0  0
   11.5620    7.5875   -4.5885 C   0  0  0  0  0  0  0  0  0  0  0  0
   11.2201    7.1095   -5.8228 C   0  0  0  0  0  0  0  0  0  0  0  0
  1  2  1  0
  2  3  2  0
  3  4  1  0
  4  5  1  0
  4  6  1  0
  6  7  2  0
  6  8  1  0
  8  9  2  0
  9 10  1  0
 10 11  2  0
 11 12  1  0
 12 13  2  0
 13 14  1  0
 14 15  1  0
 11 16  1  0
 16 17  2  0
 16 18  1  0
 18 29  1  0
 29 30  2  0
 30 31  1  0
 31 32  2  0
 32 35  1  0
 35 36  2  0
 36 37  1  0
 37 38  2  0
 38 39  1  0
 39 40  2  0
 40 41  1  0
 41 42  2  0
 42 43  1  0
 43 44  2  0
 32 33  1  0
 33 34  2  0
 18 19  1  0
 19 20  1  0
 20 21  2  0
 21 22  1  0
 22 23  2  0
 23 24  1  0
 24 25  1  0
 25 26  2  0
 26 27  1  0
 27 28  2  0
 14  3  1  0
 34 29  1  0
 28 20  1  0
 13  8  1  0
 44 35  1  0
 27 23  1  0
 21 10  1  0
 43 38  1  0
M  END
>  <minimizedAffinity>  (425) 
-16.98817

$$$$
Mol: 133_39 - SminaDock
     RDKit          3D

 40 46  0  0  0  0  0  0  0  0999 V2000
    2.4351   -1.7266  -17.2148 H   0  0  0  0  0  0  0  0  0  0  0  0
    3.4425   -1.6344  -17.4227 N   0  0  0  0  0  0  0  0  0  0  0  0
    4.3556   -1.2661  -16.5990 C   0  0  0  0  0  0  0  0  0  0  0  0
    5.6587   -1.1954  -17.0399 O   0  0  0  0  0  0  0  0  0  0  0  0
    6.5555   -0.2624  -16.5197 C   0  0  0  0  0  0  0  0  0  0  0  0
    6.0162    0.4968  -15.3785 C   0  0  0  0  0  0  0  0  0  0  0  0
    6.7479    1.5884  -14.8699 C   0  0  0  0  0  0  0  0  0  0  0  0
    6.2873    2.3331  -13.8026 C   0  0  0  0  0  0  0  0  0  0  0  0
    5.0657    1.9777  -13.2292 C   0  0  0  0  0  0  0  0  0  0  0  0
    4.3685    0.8988  -13.7510 C   0  0  0  0  0  0  0  0  0  0  0  0
    4.8210    0.1569  -14.8100 C   0  0  0  0  0  0  0  0  0  0  0  0
    4.0309   -0.9444  -15.2831 N   0  0  2  0  0  0  0  0  0  0  0  0
    4.1803   -1.7527  -14.6150 H   0  0  0  0  0  0  0  0  0  0  0  0
    3.0088   -0.7338  -15.2189 H   0  0  0  0  0  0  0  0  0  0  0  0
    7.0382    3.4632  -13.2808 C   0  0  0  0  0  0  0  0  0  0  0  0
    6.5517    4.1724  -12.2199 C   0  0  0  0  0  0  0  0  0  0  0  0
    7.3159    5.2527  -11.7492 C   0  0  0  0  0  0  0  0  0  0  0  0
    8.5182    5.6127  -12.3134 C   0  0  0  0  0  0  0  0  0  0  0  0
    8.9661    4.8627  -13.3850 C   0  0  0  0  0  0  0  0  0  0  0  0
    8.2369    3.7903  -13.8747 C   0  0  0  0  0  0  0  0  0  0  0  0
    8.7941    3.0594  -15.0193 C   0  0  0  0  0  0  0  0  0  0  0  0
    8.0304    1.9082  -15.5128 C   0  0  0  0  0  0  0  0  0  0  0  0
    9.2835    6.7211  -11.8170 N   0  0  0  0  0  0  0  0  0  0  0  0
    9.6131    6.7771  -10.5748 C   0  0  0  0  0  0  0  0  0  0  0  0
    9.2406    5.7984   -9.7446 N   0  0  0  0  0  0  0  0  0  0  0  0
    9.5721    5.8361   -8.4491 C   0  0  0  0  0  0  0  0  0  0  0  0
   10.3022    6.8899   -7.9664 C   0  0  0  0  0  0  0  0  0  0  0  0
   10.6600    6.9619   -6.6437 C   0  0  0  0  0  0  0  0  0  0  0  0
   11.3926    8.0161   -6.1506 C   0  0  0  0  0  0  0  0  0  0  0  0
   11.7748    9.0242   -7.0126 C   0  0  0  0  0  0  0  0  0  0  0  0
   11.4238    8.9677   -8.3442 C   0  0  0  0  0  0  0  0  0  0  0  0
   10.6835    7.9014   -8.8400 C   0  0  0  0  0  0  0  0  0  0  0  0
   10.3284    7.8205  -10.1293 N   0  0  0  0  0  0  0  0  0  0  0  0
   10.6282    8.5989  -10.7751 H   0  0  0  0  0  0  0  0  0  0  0  0
   11.7324    8.0195   -4.7386 C   0  0  0  0  0  0  0  0  0  0  0  0
   12.0984    9.1781   -4.0636 C   0  0  0  0  0  0  0  0  0  0  0  0
   12.4156    9.1485   -2.7222 C   0  0  0  0  0  0  0  0  0  0  0  0
   12.3759    7.9645   -2.0222 C   0  0  0  0  0  0  0  0  0  0  0  0
   12.0120    6.7827   -2.6719 C   0  0  0  0  0  0  0  0  0  0  0  0
   11.6960    6.8432   -4.0307 C   0  0  0  0  0  0  0  0  0  0  0  0
  1  2  1  0
  2  3  2  0
  3  4  1  0
  4  5  1  0
  5  6  1  0
  6  7  2  0
  7  8  1  0
  8  9  2  0
  9 10  1  0
 10 11  2  0
 11 12  1  0
 12 13  1  1
 12 14  1  0
  8 15  1  0
 15 16  2  0
 16 17  1  0
 17 18  2  0
 18 23  1  0
 23 24  2  0
 24 25  1  0
 25 26  2  0
 26 27  1  0
 27 28  2  0
 28 29  1  0
 29 35  1  0
 35 36  2  0
 36 37  1  0
 37 38  2  0
 38 39  1  0
 39 40  2  0
 29 30  2  0
 30 31  1  0
 31 32  2  0
 32 33  1  0
 33 34  1  0
 18 19  1  0
 19 20  2  0
 20 21  1  0
 21 22  1  0
 12  3  1  0
 20 15  1  0
 11  6  1  0
 33 24  1  0
 22  7  1  0
 32 27  1  0
 40 35  1  0
M  CHG  1  12   1
M  END
>  <minimizedAffinity>  (426) 
-16.97108

$$$$
Mol: 133_17 - SminaDock
     RDKit          3D

 44 51  0  0  0  0  0  0  0  0999 V2000
   12.6006    5.3852  -16.5924 H   0  0  0  0  0  0  0  0  0  0  0  0
   12.5717    4.3549  -16.5380 O   0  0  0  0  0  0  0  0  0  0  0  0
   11.4168    3.7226  -16.0366 C   0  0  0  0  0  0  0  0  0  0  0  0
   10.2212    4.1537  -16.1331 N   0  0  0  0  0  0  0  0  0  0  0  0
    9.2737    3.2519  -15.5045 C   0  0  1  0  0  0  0  0  0  0  0  0
   10.1673    2.1483  -14.9892 C   0  0  0  0  0  0  0  0  0  0  0  0
    9.8125    1.1185  -14.3610 O   0  0  0  0  0  0  0  0  0  0  0  0
   11.4781    2.4958  -15.3485 N   0  0  0  0  0  0  0  0  0  0  0  0
   12.3092    1.8969  -15.1117 H   0  0  0  0  0  0  0  0  0  0  0  0
    8.6233    3.8801  -14.3441 C   0  0  0  0  0  0  0  0  0  0  0  0
    9.2639    4.9485  -13.6789 C   0  0  0  0  0  0  0  0  0  0  0  0
    8.7227    5.4702  -12.5331 C   0  0  0  0  0  0  0  0  0  0  0  0
    7.5506    4.9308  -12.0529 C   0  0  0  0  0  0  0  0  0  0  0  0
    6.9052    3.8905  -12.6833 C   0  0  0  0  0  0  0  0  0  0  0  0
    7.4604    3.3631  -13.8534 C   0  0  0  0  0  0  0  0  0  0  0  0
    6.7010    2.3298  -14.5911 C   0  0  0  0  0  0  0  0  0  0  0  0
    5.6456    1.8151  -13.9808 N   0  0  0  0  0  0  0  0  0  0  0  0
    5.0047    0.7916  -14.5991 C   0  0  0  0  0  0  0  0  0  0  0  0
    3.9009    0.1836  -14.0562 C   0  0  0  0  0  0  0  0  0  0  0  0
    3.2285   -0.8656  -14.6683 C   0  0  0  0  0  0  0  0  0  0  0  0
    3.7005   -1.3112  -15.8807 C   0  0  0  0  0  0  0  0  0  0  0  0
    4.8055   -0.7192  -16.4473 C   0  0  0  0  0  0  0  0  0  0  0  0
    5.4725    0.3370  -15.8185 C   0  0  0  0  0  0  0  0  0  0  0  0
    6.5674    0.8790  -16.4439 C   0  0  0  0  0  0  0  0  0  0  0  0
    7.2197    1.9344  -15.7999 C   0  0  0  0  0  0  0  0  0  0  0  0
    8.3418    2.6375  -16.4510 C   0  0  0  0  0  0  0  0  0  0  0  0
    9.3707    6.5487  -11.8627 N   0  0  0  0  0  0  0  0  0  0  0  0
    9.6518    6.5544  -10.6281 C   0  0  0  0  0  0  0  0  0  0  0  0
   10.2655    7.6304  -10.1052 N   0  0  0  0  0  0  0  0  0  0  0  0
   10.5995    7.7232   -8.8121 C   0  0  0  0  0  0  0  0  0  0  0  0
   11.2275    8.8427   -8.3162 C   0  0  0  0  0  0  0  0  0  0  0  0
   11.5682    8.9207   -6.9643 C   0  0  0  0  0  0  0  0  0  0  0  0
   11.2821    7.8808   -6.1067 C   0  0  0  0  0  0  0  0  0  0  0  0
   10.6523    6.7738   -6.6368 C   0  0  0  0  0  0  0  0  0  0  0  0
   10.3035    6.6674   -7.9661 C   0  0  0  0  0  0  0  0  0  0  0  0
    9.6773    5.5660   -8.4925 C   0  0  0  0  0  0  0  0  0  0  0  0
    9.3678    5.5275   -9.7881 N   0  0  0  0  0  0  0  0  0  0  0  0
    8.8920    4.6909  -10.1879 H   0  0  0  0  0  0  0  0  0  0  0  0
   11.6495    7.9870   -4.6967 C   0  0  0  0  0  0  0  0  0  0  0  0
   11.6609    6.8790   -3.8728 C   0  0  0  0  0  0  0  0  0  0  0  0
   12.0055    6.9595   -2.5388 C   0  0  0  0  0  0  0  0  0  0  0  0
   12.3564    8.1662   -1.9698 C   0  0  0  0  0  0  0  0  0  0  0  0
   12.3471    9.2771   -2.7871 C   0  0  0  0  0  0  0  0  0  0  0  0
   12.0025    9.1958   -4.1205 C   0  0  0  0  0  0  0  0  0  0  0  0
  1  2  1  0
  2  3  1  0
  3  4  2  0
  4  5  1  0
  5  6  1  0
  6  7  2  0
  6  8  1  0
  8  9  1  0
  5 10  1  0
 10 11  2  0
 11 12  1  0
 12 27  1  0
 27 28  2  0
 28 29  1  0
 29 30  2  0
 30 31  1  0
 31 32  2  0
 32 33  1  0
 33 39  1  0
 39 40  2  0
 40 41  1  0
 41 42  2  0
 42 43  1  0
 43 44  2  0
 33 34  2  0
 34 35  1  0
 35 36  2  0
 36 37  1  0
 37 38  1  0
 12 13  2  0
 13 14  1  0
 14 15  2  0
 15 16  1  0
 16 17  2  0
 17 18  1  0
 18 19  2  0
 19 20  1  0
 20 21  2  0
 21 22  1  0
 22 23  2  0
 23 24  1  0
 24 25  2  0
 25 26  1  0
  8  3  1  0
 15 10  1  0
 25 16  1  0
  5 26  1  6
 37 28  1  0
 23 18  1  0
 35 30  1  0
 44 39  1  0
M  END
>  <minimizedAffinity>  (427) 
-17.04412

$$$$
Mol: 117_45 - SminaDock
     RDKit          3D

 44 52  0  0  0  0  0  0  0  0999 V2000
   11.6902    6.1053  -14.8301 C   0  0  0  0  0  0  0  0  0  0  0  0
   12.2494    6.8719  -13.8279 C   0  0  0  0  0  0  0  0  0  0  0  0
   11.6786    6.9746  -12.5748 C   0  0  0  0  0  0  0  0  0  0  0  0
   10.5108    6.3156  -12.2436 C   0  0  0  0  0  0  0  0  0  0  0  0
    9.9465    6.4316  -10.9971 C   0  0  0  0  0  0  0  0  0  0  0  0
    8.7646    5.7448  -10.7554 C   0  0  0  0  0  0  0  0  0  0  0  0
    8.2246    4.9884  -11.7691 C   0  0  0  0  0  0  0  0  0  0  0  0
    8.7925    4.8883  -12.9768 N   0  0  0  0  0  0  0  0  0  0  0  0
    9.9430    5.5445  -13.2453 C   0  0  0  0  0  0  0  0  0  0  0  0
   10.5230    5.4434  -14.5104 C   0  0  0  0  0  0  0  0  0  0  0  0
   10.5685    7.2202   -9.9076 C   0  0  0  0  0  0  0  0  0  0  0  0
   11.5283    8.1677  -10.1823 C   0  0  0  0  0  0  0  0  0  0  0  0
   12.0782    8.8894   -9.1499 C   0  0  0  0  0  0  0  0  0  0  0  0
   11.6920    8.6900   -7.8279 C   0  0  0  0  0  0  0  0  0  0  0  0
   10.7277    7.7364   -7.5607 C   0  0  0  0  0  0  0  0  0  0  0  0
   10.1894    7.0254   -8.6025 C   0  0  0  0  0  0  0  0  0  0  0  0
   10.4801    7.7031   -6.0816 C   0  0  1  0  0  0  0  0  0  0  0  0
   11.2664    6.6233   -5.4032 C   0  0  0  0  0  0  0  0  0  0  0  0
   11.6848    7.2903   -4.1352 C   0  0  0  0  0  0  0  0  0  0  0  0
   12.1351    6.7100   -2.9676 C   0  0  0  0  0  0  0  0  0  0  0  0
   12.4745    7.5089   -1.8999 C   0  0  0  0  0  0  0  0  0  0  0  0
   12.3491    8.8711   -2.0428 C   0  0  0  0  0  0  0  0  0  0  0  0
   11.9027    9.4586   -3.1981 C   0  0  0  0  0  0  0  0  0  0  0  0
   11.5634    8.6572   -4.2659 C   0  0  0  0  0  0  0  0  0  0  0  0
   11.0641    8.9938   -5.6075 C   0  0  2  0  0  0  0  0  0  0  0  0
   10.1448   10.0250   -5.5871 F   0  0  0  0  0  0  0  0  0  0  0  0
   12.1436    9.3432   -6.5774 C   0  0  0  0  0  0  0  0  0  0  0  0
   12.4377    8.3664  -16.3905 F   0  0  0  0  0  0  0  0  0  0  0  0
   12.6405    7.1087  -16.8732 C   0  0  0  0  0  0  0  0  0  0  0  0
   13.2161    6.9843  -18.1337 C   0  0  0  0  0  0  0  0  0  0  0  0
   13.4269    5.7288  -18.6339 C   0  0  0  0  0  0  0  0  0  0  0  0
   13.0973    4.6016  -17.9504 C   0  0  0  0  0  0  0  0  0  0  0  0
   12.5196    4.7589  -16.6842 C   0  0  0  0  0  0  0  0  0  0  0  0
   12.2926    5.9981  -16.1493 C   0  0  0  0  0  0  0  0  0  0  0  0
   13.3373    3.2602  -18.5168 C   0  0  0  0  0  0  0  0  0  0  0  0
   14.4675    3.0641  -19.0988 N   0  0  0  0  0  0  0  0  0  0  0  0
   14.8125    1.8221  -19.6793 C   0  0  0  0  0  0  0  0  0  0  0  0
   15.9926    1.6107  -20.2888 N   0  0  0  0  0  0  0  0  0  0  0  0
   16.3423    0.4404  -20.8465 C   0  0  0  0  0  0  0  0  0  0  0  0
   15.4259   -0.5862  -20.7786 C   0  0  0  0  0  0  0  0  0  0  0  0
   14.2176   -0.4199  -20.1716 C   0  0  0  0  0  0  0  0  0  0  0  0
   13.8989    0.8108  -19.6074 C   0  0  0  0  0  0  0  0  0  0  0  0
   12.5860    0.9396  -18.9657 C   0  0  0  0  0  0  0  0  0  0  0  0
   12.2736    2.2623  -18.3719 C   0  0  0  0  0  0  0  0  0  0  0  0
 28 29  1  0
 29 30  2  0
 30 31  1  0
 31 32  2  0
 32 35  1  0
 35 36  2  0
 36 37  1  0
 37 38  2  0
 38 39  1  0
 39 40  2  0
 40 41  1  0
 41 42  2  0
 42 43  1  0
 43 44  1  0
 32 33  1  0
 33 34  2  0
 34  1  1  0
  1  2  2  0
  2  3  1  0
  3  4  2  0
  4  5  1  0
  5 11  1  0
 11 12  2  0
 12 13  1  0
 13 14  2  0
 14 15  1  0
 15 16  2  0
 15 17  1  0
 17 18  1  1
 18 19  1  0
 19 20  2  0
 20 21  1  0
 21 22  2  0
 22 23  1  0
 23 24  2  0
 24 25  1  0
 25 26  1  1
 25 27  1  0
  5  6  2  0
  6  7  1  0
  7  8  2  0
  8  9  1  0
  9 10  2  0
 34 29  1  0
 10  1  1  0
 44 35  1  0
  9  4  1  0
 42 37  1  0
 16 11  1  0
 25 17  1  0
 27 14  1  0
 24 19  1  0
M  END
>  <minimizedAffinity>  (428) 
-16.99222

$$$$
Mol: 189_58 - SminaDock
     RDKit          3D

 43 50  0  0  0  0  0  0  0  0999 V2000
   10.2278    4.5905  -17.7842 O   0  0  0  0  0  0  0  0  0  0  0  0
   10.0390    3.9222  -16.5563 C   0  0  0  0  0  0  0  0  0  0  0  0
   11.0697    3.5182  -15.6791 N   0  0  0  0  0  0  0  0  0  0  0  0
   10.4430    2.8934  -14.5839 C   0  0  0  0  0  0  0  0  0  0  0  0
   11.0359    2.3992  -13.5886 O   0  0  0  0  0  0  0  0  0  0  0  0
    8.9711    2.9336  -14.8331 C   0  0  1  0  0  0  0  0  0  0  0  0
    8.4258    1.5698  -15.0024 C   0  0  0  0  0  0  0  0  0  0  0  0
    7.0221    1.4127  -14.6141 C   0  0  0  0  0  0  0  0  0  0  0  0
    6.3943    2.2899  -13.7590 C   0  0  0  0  0  0  0  0  0  0  0  0
    5.0942    2.0269  -13.3876 C   0  0  0  0  0  0  0  0  0  0  0  0
    4.4189    0.9054  -13.8606 C   0  0  0  0  0  0  0  0  0  0  0  0
    5.0529    0.0362  -14.7158 C   0  0  0  0  0  0  0  0  0  0  0  0
    4.6694   -1.1178  -15.3350 N   0  0  0  0  0  0  0  0  0  0  0  0
    5.6870   -1.5975  -16.0881 C   0  0  0  0  0  0  0  0  0  0  0  0
    5.6791   -2.6509  -16.7972 O   0  0  0  0  0  0  0  0  0  0  0  0
    6.6948   -0.7217  -15.9205 N   0  0  0  0  0  0  0  0  0  0  0  0
    6.3406    0.2761  -15.0964 C   0  0  0  0  0  0  0  0  0  0  0  0
    7.0586    3.5090  -13.3143 C   0  0  0  0  0  0  0  0  0  0  0  0
    6.4463    4.3123  -12.4122 C   0  0  0  0  0  0  0  0  0  0  0  0
    7.1767    5.4244  -11.9754 C   0  0  0  0  0  0  0  0  0  0  0  0
    8.4526    5.6998  -12.4311 C   0  0  0  0  0  0  0  0  0  0  0  0
    9.0524    4.8658  -13.3508 C   0  0  0  0  0  0  0  0  0  0  0  0
    8.3227    3.7700  -13.7776 C   0  0  0  0  0  0  0  0  0  0  0  0
    8.8860    3.6150  -16.1174 N   0  0  0  0  0  0  0  0  0  0  0  0
    9.4307    4.9931  -18.2728 H   0  0  0  0  0  0  0  0  0  0  0  0
    9.1474    6.8428  -11.9567 N   0  0  0  0  0  0  0  0  0  0  0  0
    9.3485    7.6211  -12.6158 H   0  0  0  0  0  0  0  0  0  0  0  0
    9.5454    6.8886  -10.6013 C   0  0  0  0  0  0  0  0  0  0  0  0
    9.3198    5.7887   -9.8085 C   0  0  0  0  0  0  0  0  0  0  0  0
    9.6908    5.7845   -8.4814 C   0  0  0  0  0  0  0  0  0  0  0  0
   10.2974    6.9054   -7.9481 C   0  0  0  0  0  0  0  0  0  0  0  0
   10.6716    6.8958   -6.6021 C   0  0  0  0  0  0  0  0  0  0  0  0
   11.2707    7.9799   -6.0428 C   0  0  0  0  0  0  0  0  0  0  0  0
   11.4967    9.0878   -6.8461 C   0  0  0  0  0  0  0  0  0  0  0  0
   11.1234    9.0922   -8.1815 C   0  0  0  0  0  0  0  0  0  0  0  0
   10.5165    8.0006   -8.7577 C   0  0  0  0  0  0  0  0  0  0  0  0
   10.1376    7.9587  -10.0460 N   0  0  0  0  0  0  0  0  0  0  0  0
   11.6605    7.9763   -4.6471 C   0  0  0  0  0  0  0  0  0  0  0  0
   11.6652    6.8159   -3.9018 C   0  0  0  0  0  0  0  0  0  0  0  0
   12.0318    6.7893   -2.5783 C   0  0  0  0  0  0  0  0  0  0  0  0
   12.4193    7.9407   -1.9205 C   0  0  0  0  0  0  0  0  0  0  0  0
   12.4198    9.1111   -2.6537 C   0  0  0  0  0  0  0  0  0  0  0  0
   12.0507    9.1274   -3.9791 C   0  0  0  0  0  0  0  0  0  0  0  0
  1  2  1  0
  2  3  1  0
  3  4  1  0
  4  5  2  0
  4  6  1  0
  6  7  1  6
  7  8  1  0
  8  9  2  0
  9 10  1  0
 10 11  2  0
 11 12  1  0
 12 13  1  0
 13 14  1  0
 14 15  2  0
 14 16  1  0
 16 17  1  0
  9 18  1  0
 18 19  2  0
 19 20  1  0
 20 21  2  0
 21 26  1  0
 26 28  1  0
 28 29  2  0
 29 30  1  0
 30 31  2  0
 31 32  1  0
 32 33  2  0
 33 38  1  0
 38 39  2  0
 39 40  1  0
 40 41  2  0
 41 42  1  0
 42 43  2  0
 33 34  1  0
 34 35  2  0
 35 36  1  0
 36 37  2  0
 21 22  1  0
 22 23  2  0
  6 24  1  0
 24  2  2  0
 23  6  1  0
 17  8  1  0
 23 18  1  0
 17 12  2  0
 37 28  1  0
 36 31  1  0
 43 38  1  0
  1 25  1  0
 26 27  1  0
M  CHG  3   3  -1  13  -1  16  -1
M  END
>  <minimizedAffinity>  (429) 
-16.98701

$$$$
Mol: 189_43 - SminaDock
     RDKit          3D

 47 54  0  0  0  0  0  0  0  0999 V2000
    8.6589    5.9707  -12.2566 C   0  0  0  0  0  0  0  0  0  0  0  0
    7.3936    5.8481  -11.7526 C   0  0  0  0  0  0  0  0  0  0  0  0
    6.6085    4.8476  -12.2482 C   0  0  0  0  0  0  0  0  0  0  0  0
    7.0591    3.9678  -13.2356 C   0  0  0  0  0  0  0  0  0  0  0  0
    8.3221    4.1080  -13.7259 C   0  0  0  0  0  0  0  0  0  0  0  0
    9.1568    5.1367  -13.2275 C   0  0  0  0  0  0  0  0  0  0  0  0
    8.9038    3.2667  -14.7824 C   0  0  2  0  0  0  0  0  0  0  0  0
    8.0259    2.1519  -15.1715 C   0  0  0  0  0  0  0  0  0  0  0  0
    6.7696    1.9750  -14.7103 C   0  0  0  0  0  0  0  0  0  0  0  0
    6.1802    0.8412  -15.2952 C   0  0  0  0  0  0  0  0  0  0  0  0
    4.9474    0.2623  -15.1533 C   0  0  0  0  0  0  0  0  0  0  0  0
    4.6497   -0.8724  -15.8765 C   0  0  0  0  0  0  0  0  0  0  0  0
    5.5984   -1.4220  -16.7433 C   0  0  0  0  0  0  0  0  0  0  0  0
    6.8235   -0.7945  -16.8445 C   0  0  0  0  0  0  0  0  0  0  0  0
    7.1529    0.3442  -16.1333 C   0  0  0  0  0  0  0  0  0  0  0  0
    8.2408    1.1192  -16.0585 N   0  0  0  0  0  0  0  0  0  0  0  0
    9.1263    1.0069  -16.5622 H   0  0  0  0  0  0  0  0  0  0  0  0
    6.2106    2.8862  -13.7064 C   0  0  0  0  0  0  0  0  0  0  0  0
    5.0536    2.7074  -13.2988 O   0  0  0  0  0  0  0  0  0  0  0  0
   10.2623    2.7493  -14.3395 C   0  0  0  0  0  0  0  0  0  0  0  0
   11.2958    2.9117  -15.3957 C   0  0  0  0  0  0  0  0  0  0  0  0
   11.5080    4.2519  -15.7300 O   0  0  0  0  0  0  0  0  0  0  0  0
   10.3430    4.8523  -16.1784 C   0  0  0  0  0  0  0  0  0  0  0  0
    9.1087    4.0639  -16.0633 C   0  0  0  0  0  0  0  0  0  0  0  0
   11.5136    7.9873   -5.8944 C   0  0  0  0  0  0  0  0  0  0  0  0
   12.0477    8.9349   -6.7345 C   0  0  0  0  0  0  0  0  0  0  0  0
   11.7439    8.9062   -8.0784 C   0  0  0  0  0  0  0  0  0  0  0  0
   10.9172    7.9626   -8.6447 C   0  0  0  0  0  0  0  0  0  0  0  0
   10.6224    7.9402   -9.9631 N   0  0  0  0  0  0  0  0  0  0  0  0
    9.8157    7.0156  -10.4960 C   0  0  0  0  0  0  0  0  0  0  0  0
    9.5363    7.0037  -11.7750 N   0  0  0  0  0  0  0  0  0  0  0  0
    9.2938    6.0897   -9.6739 N   0  0  0  0  0  0  0  0  0  0  0  0
    8.6591    5.3566  -10.0738 H   0  0  0  0  0  0  0  0  0  0  0  0
    9.5565    6.0699   -8.3583 C   0  0  0  0  0  0  0  0  0  0  0  0
   10.3865    7.0165   -7.7929 C   0  0  0  0  0  0  0  0  0  0  0  0
   10.6831    7.0348   -6.4471 C   0  0  0  0  0  0  0  0  0  0  0  0
   12.3840    8.0129   -1.7298 C   0  0  0  0  0  0  0  0  0  0  0  0
   12.4211    9.1687   -2.4747 C   0  0  0  0  0  0  0  0  0  0  0  0
   12.1352    9.1572   -3.8409 C   0  0  0  0  0  0  0  0  0  0  0  0
   11.8145    7.9855   -4.4480 C   0  0  0  0  0  0  0  0  0  0  0  0
   11.7774    6.8260   -3.7001 C   0  0  0  0  0  0  0  0  0  0  0  0
   12.0601    6.8335   -2.3461 C   0  0  0  0  0  0  0  0  0  0  0  0
    5.2967   -2.6245  -17.5171 C   0  0  0  0  0  0  0  0  0  0  0  0
    6.0859   -3.5926  -17.4899 O   0  0  0  0  0  0  0  0  0  0  0  0
    4.1202   -2.6956  -18.2929 N   0  0  0  0  0  0  0  0  0  0  0  0
    3.3068   -3.2299  -17.9518 H   0  0  0  0  0  0  0  0  0  0  0  0
    4.0639   -2.2142  -19.2061 H   0  0  0  0  0  0  0  0  0  0  0  0
 37 38  2  0
 38 39  1  0
 39 40  2  0
 40 25  1  0
 25 26  1  0
 26 27  2  0
 27 28  1  0
 28 29  2  0
 29 30  1  0
 30 31  2  0
 31  1  1  0
  1  2  2  0
  2  3  1  0
  3  4  2  0
  4  5  1  0
  5  6  2  0
  5  7  1  0
  7  8  1  0
  8  9  2  0
  9 10  1  0
 10 11  2  0
 11 12  1  0
 12 13  2  0
 13 43  1  0
 43 44  2  0
 43 45  1  0
 45 46  1  0
 45 47  1  0
 13 14  1  0
 14 15  2  0
 15 16  1  0
 16 17  1  0
  9 18  1  0
 18 19  2  0
  7 20  1  1
 20 21  1  0
 21 22  1  0
 22 23  1  0
 23 24  1  0
 30 32  1  0
 32 33  1  0
 32 34  1  0
 34 35  2  0
 35 36  1  0
 40 41  1  0
 41 42  2  0
 42 37  1  0
 36 25  2  0
 35 28  1  0
  6  1  1  0
 24  7  1  0
 18  4  1  0
 16  8  1  0
 15 10  1  0
M  END
>  <minimizedAffinity>  (430) 
-16.97997

$$$$
Mol: 189_45 - SminaDock
     RDKit          3D

 37 43  0  0  0  0  0  0  0  0999 V2000
    8.1891    5.2796  -12.5794 C   0  0  0  0  0  0  0  0  0  0  0  0
    6.9330    4.9497  -12.1273 C   0  0  0  0  0  0  0  0  0  0  0  0
    6.2869    3.7995  -12.5968 C   0  0  0  0  0  0  0  0  0  0  0  0
    6.8873    2.9844  -13.5091 C   0  0  0  0  0  0  0  0  0  0  0  0
    8.1583    3.2922  -13.9834 C   0  0  0  0  0  0  0  0  0  0  0  0
    8.7803    4.4534  -13.4938 C   0  0  0  0  0  0  0  0  0  0  0  0
    8.9002    2.4504  -14.9471 C   0  0  0  0  0  0  0  0  0  0  0  0
    8.1385    1.3414  -15.5694 C   0  0  0  0  0  0  0  0  0  0  0  0
    6.8417    1.0122  -14.9993 C   0  0  0  0  0  0  0  0  0  0  0  0
    6.2121    1.8099  -14.0300 C   0  0  0  0  0  0  0  0  0  0  0  0
    4.9761    1.4687  -13.5475 C   0  0  0  0  0  0  0  0  0  0  0  0
    4.3563    0.3222  -14.0303 C   0  0  0  0  0  0  0  0  0  0  0  0
    4.9531   -0.4782  -14.9805 C   0  0  0  0  0  0  0  0  0  0  0  0
    6.1804   -0.1302  -15.4538 C   0  0  0  0  0  0  0  0  0  0  0  0
    6.5589   -1.0619  -16.3713 N   0  0  0  0  0  0  0  0  0  0  0  0
    5.5616   -1.9661  -16.4481 C   0  0  0  0  0  0  0  0  0  0  0  0
    5.5501   -2.9910  -17.2023 O   0  0  0  0  0  0  0  0  0  0  0  0
    4.5709   -1.6265  -15.6055 N   0  0  0  0  0  0  0  0  0  0  0  0
    3.6698   -2.1323  -15.4436 H   0  0  0  0  0  0  0  0  0  0  0  0
   11.1891    7.8423   -6.4780 C   0  0  0  0  0  0  0  0  0  0  0  0
   11.3765    8.9059   -7.3307 C   0  0  0  0  0  0  0  0  0  0  0  0
   10.9324    8.8191   -8.6332 C   0  0  0  0  0  0  0  0  0  0  0  0
   10.3019    7.6961   -9.1173 C   0  0  0  0  0  0  0  0  0  0  0  0
   10.1205    6.6351   -8.2488 C   0  0  0  0  0  0  0  0  0  0  0  0
   10.5615    6.7006   -6.9269 C   0  0  0  0  0  0  0  0  0  0  0  0
    9.4881    5.5110   -8.7368 C   0  0  0  0  0  0  0  0  0  0  0  0
    9.0458    5.4412  -10.0567 C   0  0  0  0  0  0  0  0  0  0  0  0
    9.2448    6.5181  -10.8913 C   0  0  0  0  0  0  0  0  0  0  0  0
    8.8464    6.4642  -12.0933 N   0  0  0  0  0  0  0  0  0  0  0  0
    9.8630    7.5968  -10.3863 N   0  0  0  0  0  0  0  0  0  0  0  0
   10.0172    8.4164  -11.0125 H   0  0  0  0  0  0  0  0  0  0  0  0
   12.5227    8.0465   -2.4865 C   0  0  0  0  0  0  0  0  0  0  0  0
   12.7662    9.1186   -3.3357 C   0  0  0  0  0  0  0  0  0  0  0  0
   12.3276    9.0394   -4.6290 C   0  0  0  0  0  0  0  0  0  0  0  0
   11.6551    7.9259   -5.1002 C   0  0  0  0  0  0  0  0  0  0  0  0
   11.4133    6.8618   -4.2575 C   0  0  0  0  0  0  0  0  0  0  0  0
   11.8471    6.9143   -2.9383 C   0  0  0  0  0  0  0  0  0  0  0  0
 32 33  2  0
 33 34  1  0
 34 35  2  0
 35 20  1  0
 20 21  2  0
 21 22  1  0
 22 23  2  0
 23 24  1  0
 24 25  2  0
 24 26  1  0
 26 27  2  0
 27 28  1  0
 28 29  2  0
 29  1  1  0
  1  2  2  0
  2  3  1  0
  3  4  2  0
  4  5  1  0
  5  6  2  0
  5  7  1  0
  7  8  1  0
  8  9  1  0
  9 10  2  0
 10 11  1  0
 11 12  2  0
 12 13  1  0
 13 14  2  0
 14 15  1  0
 15 16  1  0
 16 17  2  0
 16 18  1  0
 18 19  1  0
 28 30  1  0
 30 31  1  0
 35 36  1  0
 36 37  2  0
 37 32  1  0
 25 20  1  0
  6  1  1  0
 14  9  1  0
 30 23  1  0
 10  4  1  0
 18 13  1  0
M  CHG  1  15  -1
M  END
>  <minimizedAffinity>  (431) 
-17.01430

$$$$
Mol: 199_25 - SminaDock
     RDKit          3D

 42 49  0  0  0  0  0  0  0  0999 V2000
    3.2877    1.1089  -14.0048 H   0  0  0  0  0  0  0  0  0  0  0  0
    3.5646    0.1498  -14.2194 O   0  0  0  0  0  0  0  0  0  0  0  0
    4.5856   -0.1279  -15.1194 C   0  0  0  0  0  0  0  0  0  0  0  0
    4.3938   -1.1692  -15.9479 N   0  0  0  0  0  0  0  0  0  0  0  0
    5.3695   -1.4560  -16.8273 C   0  0  0  0  0  0  0  0  0  0  0  0
    6.5249   -0.6981  -16.8676 C   0  0  0  0  0  0  0  0  0  0  0  0
    6.7346    0.3732  -16.0231 C   0  0  0  0  0  0  0  0  0  0  0  0
    7.8725    1.1505  -16.0348 C   0  0  0  0  0  0  0  0  0  0  0  0
    8.0658    2.2225  -15.1796 C   0  0  0  0  0  0  0  0  0  0  0  0
    7.0506    2.5027  -14.2812 C   0  0  0  0  0  0  0  0  0  0  0  0
    5.9068    1.7245  -14.2665 C   0  0  0  0  0  0  0  0  0  0  0  0
    5.7221    0.6541  -15.1257 C   0  0  0  0  0  0  0  0  0  0  0  0
    7.4636    3.6585  -13.4898 C   0  0  0  0  0  0  0  0  0  0  0  0
    6.8566    4.3612  -12.4662 C   0  0  0  0  0  0  0  0  0  0  0  0
    7.4437    5.4417  -11.8549 C   0  0  0  0  0  0  0  0  0  0  0  0
    8.7004    5.8597  -12.2706 C   0  0  0  0  0  0  0  0  0  0  0  0
    9.3108    5.1630  -13.2906 C   0  0  0  0  0  0  0  0  0  0  0  0
    8.7133    4.0766  -13.9005 C   0  0  0  0  0  0  0  0  0  0  0  0
    9.1910    3.1972  -15.0027 C   0  0  2  0  0  0  0  0  0  0  0  0
    9.2862    4.0339  -16.2516 C   0  0  0  0  0  0  0  0  0  0  0  0
   10.5502    4.8156  -16.3592 C   0  0  0  0  0  0  0  0  0  0  0  0
   11.6199    4.2688  -15.6942 O   0  0  0  0  0  0  0  0  0  0  0  0
   11.5214    2.8860  -15.6814 C   0  0  0  0  0  0  0  0  0  0  0  0
   10.4739    2.5326  -14.6318 C   0  0  0  0  0  0  0  0  0  0  0  0
    9.3314    6.9873  -11.6473 N   0  0  0  0  0  0  0  0  0  0  0  0
    9.6681    6.9908  -10.4040 C   0  0  0  0  0  0  0  0  0  0  0  0
    9.4124    5.8922   -9.6804 N   0  0  0  0  0  0  0  0  0  0  0  0
    9.7460    5.8504   -8.3773 C   0  0  0  0  0  0  0  0  0  0  0  0
   10.3541    6.9614   -7.8102 C   0  0  0  0  0  0  0  0  0  0  0  0
   10.7168    6.9686   -6.4725 C   0  0  0  0  0  0  0  0  0  0  0  0
   11.3261    8.0890   -5.9141 C   0  0  0  0  0  0  0  0  0  0  0  0
   11.5496    9.1726   -6.7348 C   0  0  0  0  0  0  0  0  0  0  0  0
   11.2067    9.2106   -8.0682 C   0  0  0  0  0  0  0  0  0  0  0  0
   10.6024    8.0768   -8.5876 C   0  0  0  0  0  0  0  0  0  0  0  0
   10.2548    8.0855   -9.8922 N   0  0  0  0  0  0  0  0  0  0  0  0
   10.4125    8.8908  -10.5324 H   0  0  0  0  0  0  0  0  0  0  0  0
   11.6951    8.0636   -4.5048 C   0  0  0  0  0  0  0  0  0  0  0  0
   12.0402    9.1876   -3.7855 C   0  0  0  0  0  0  0  0  0  0  0  0
   12.3854    9.1221   -2.4448 C   0  0  0  0  0  0  0  0  0  0  0  0
   12.3946    7.9129   -1.7790 C   0  0  0  0  0  0  0  0  0  0  0  0
   12.0491    6.7797   -2.4954 C   0  0  0  0  0  0  0  0  0  0  0  0
   11.7068    6.8536   -3.8291 C   0  0  0  0  0  0  0  0  0  0  0  0
  1  2  1  0
  2  3  1  0
  3  4  2  0
  4  5  1  0
  5  6  2  0
  6  7  1  0
  7  8  2  0
  8  9  1  0
  9 10  2  0
 10 11  1  0
 11 12  2  0
 10 13  1  0
 13 14  2  0
 14 15  1  0
 15 16  2  0
 16 25  1  0
 25 26  2  0
 26 27  1  0
 27 28  2  0
 28 29  1  0
 29 30  2  0
 30 31  1  0
 31 37  1  0
 37 38  2  0
 38 39  1  0
 39 40  2  0
 40 41  1  0
 41 42  2  0
 31 32  2  0
 32 33  1  0
 33 34  2  0
 34 35  1  0
 35 36  1  0
 16 17  1  0
 17 18  2  0
 18 19  1  0
 19 20  1  6
 20 21  1  0
 21 22  1  0
 22 23  1  0
 23 24  1  0
 12  3  1  0
 18 13  1  0
 24 19  1  0
 12  7  1  0
 35 26  1  0
 19  9  1  0
 34 29  1  0
 42 37  1  0
M  END
>  <minimizedAffinity>  (432) 
-17.04796

$$$$
Mol: 200_8 - SminaDock
     RDKit          3D

 44 51  0  0  0  0  0  0  0  0999 V2000
    8.3519    5.3818  -12.8583 C   0  0  0  0  0  0  0  0  0  0  0  0
    7.0665    4.9868  -12.5615 C   0  0  0  0  0  0  0  0  0  0  0  0
    6.5623    3.8912  -13.2187 C   0  0  0  0  0  0  0  0  0  0  0  0
    7.3186    3.1924  -14.1592 C   0  0  0  0  0  0  0  0  0  0  0  0
    8.6045    3.5767  -14.4652 C   0  0  0  0  0  0  0  0  0  0  0  0
    9.0943    4.6875  -13.7886 C   0  0  0  0  0  0  0  0  0  0  0  0
    9.1898    2.6823  -15.4842 C   0  0  1  0  0  0  0  0  0  0  0  0
    9.5064    3.4161  -16.7354 C   0  0  0  0  0  0  0  0  0  0  0  0
    8.6294    3.4487  -17.6333 O   0  0  0  0  0  0  0  0  0  0  0  0
   10.7740    4.0488  -16.8733 N   0  0  0  0  0  0  0  0  0  0  0  0
   11.8928    3.6812  -16.0787 C   0  0  0  0  0  0  0  0  0  0  0  0
   13.0217    4.2528  -16.2095 O   0  0  0  0  0  0  0  0  0  0  0  0
   11.6853    2.6385  -15.1272 N   0  0  0  0  0  0  0  0  0  0  0  0
   10.4194    2.0066  -14.9902 C   0  0  0  0  0  0  0  0  0  0  0  0
   10.3248    0.8663  -14.4480 O   0  0  0  0  0  0  0  0  0  0  0  0
    8.1170    1.6874  -15.7824 C   0  0  0  0  0  0  0  0  0  0  0  0
    7.0483    2.0255  -14.9874 C   0  0  0  0  0  0  0  0  0  0  0  0
    5.9049    1.2295  -15.0878 C   0  0  0  0  0  0  0  0  0  0  0  0
    5.8391    0.1491  -15.9431 C   0  0  0  0  0  0  0  0  0  0  0  0
    6.9288   -0.1680  -16.7308 C   0  0  0  0  0  0  0  0  0  0  0  0
    6.5836   -1.2664  -17.4657 N   0  0  0  0  0  0  0  0  0  0  0  0
    5.3220   -1.6365  -17.1588 C   0  0  0  0  0  0  0  0  0  0  0  0
    4.6948   -2.6213  -17.6636 O   0  0  0  0  0  0  0  0  0  0  0  0
    4.8988   -0.7627  -16.2365 N   0  0  0  0  0  0  0  0  0  0  0  0
    3.9567   -0.7802  -15.7949 H   0  0  0  0  0  0  0  0  0  0  0  0
    8.0597    0.6002  -16.6474 C   0  0  0  0  0  0  0  0  0  0  0  0
   11.0354    7.9125   -6.5897 C   0  0  0  0  0  0  0  0  0  0  0  0
   11.0665    9.0644   -7.3758 C   0  0  0  0  0  0  0  0  0  0  0  0
   10.6223    8.9758   -8.6629 C   0  0  0  0  0  0  0  0  0  0  0  0
   10.1520    7.7941   -9.1943 C   0  0  0  0  0  0  0  0  0  0  0  0
   10.1326    6.6621   -8.3884 C   0  0  0  0  0  0  0  0  0  0  0  0
   10.5715    6.7259   -7.0978 C   0  0  0  0  0  0  0  0  0  0  0  0
    9.6692    5.4361   -8.8675 C   0  0  0  0  0  0  0  0  0  0  0  0
    9.2338    5.4118  -10.1804 C   0  0  0  0  0  0  0  0  0  0  0  0
    9.2589    6.5433  -10.9685 C   0  0  0  0  0  0  0  0  0  0  0  0
    8.8595    6.5159  -12.1707 N   0  0  0  0  0  0  0  0  0  0  0  0
    9.7126    7.7088  -10.4726 N   0  0  0  0  0  0  0  0  0  0  0  0
    9.7426    8.5875  -11.0517 H   0  0  0  0  0  0  0  0  0  0  0  0
   12.3789    8.0178   -2.5982 C   0  0  0  0  0  0  0  0  0  0  0  0
   12.5184    9.1190   -3.4105 C   0  0  0  0  0  0  0  0  0  0  0  0
   12.0720    9.0665   -4.7186 C   0  0  0  0  0  0  0  0  0  0  0  0
   11.4904    7.9234   -5.2124 C   0  0  0  0  0  0  0  0  0  0  0  0
   11.3584    6.8303   -4.3861 C   0  0  0  0  0  0  0  0  0  0  0  0
   11.8023    6.8630   -3.0638 C   0  0  0  0  0  0  0  0  0  0  0  0
 39 40  2  0
 40 41  1  0
 41 42  2  0
 42 27  1  0
 27 28  2  0
 28 29  1  0
 29 30  2  0
 30 31  1  0
 31 32  2  0
 31 33  1  0
 33 34  2  0
 34 35  1  0
 35 36  2  0
 36  1  1  0
  1  2  2  0
  2  3  1  0
  3  4  2  0
  4  5  1  0
  5  6  2  0
  5  7  1  0
  7  8  1  6
  8  9  2  0
  8 10  1  0
 10 11  1  0
 11 12  2  0
 11 13  1  0
 13 14  1  0
 14 15  2  0
  7 16  1  0
 16 17  2  0
 17 18  1  0
 18 19  2  0
 19 20  1  0
 20 21  1  0
 21 22  1  0
 22 23  2  0
 22 24  1  0
 24 25  1  0
 20 26  2  0
 35 37  1  0
 37 38  1  0
 42 43  1  0
 43 44  2  0
 44 39  1  0
 32 27  1  0
  6  1  1  0
 14  7  1  0
 26 16  1  0
 37 30  1  0
 17  4  1  0
 24 19  1  0
M  CHG  3  10  -1  13  -1  21  -1
M  END
>  <minimizedAffinity>  (433) 
-16.96092

$$$$
Mol: 107_4 - SminaDock
     RDKit          3D

 42 49  0  0  0  0  0  0  0  0999 V2000
    8.7889    5.3806  -13.5651 N   0  0  0  0  0  0  0  0  0  0  0  0
    9.3277    5.9044  -12.5210 C   0  0  0  0  0  0  0  0  0  0  0  0
    8.9176    5.5074  -11.3089 N   0  0  0  0  0  0  0  0  0  0  0  0
    9.4264    6.0025  -10.1631 C   0  0  0  0  0  0  0  0  0  0  0  0
    8.9892    5.5791   -8.9376 C   0  0  0  0  0  0  0  0  0  0  0  0
    9.5361    6.1107   -7.8034 C   0  0  0  0  0  0  0  0  0  0  0  0
   10.5340    7.0793   -7.8306 C   0  0  0  0  0  0  0  0  0  0  0  0
   10.9396    7.4721   -9.0889 C   0  0  0  0  0  0  0  0  0  0  0  0
   10.4067    6.9540  -10.2413 C   0  0  0  0  0  0  0  0  0  0  0  0
   10.8419    7.3752  -11.4762 C   0  0  0  0  0  0  0  0  0  0  0  0
   10.2876    6.8361  -12.5908 N   0  0  0  0  0  0  0  0  0  0  0  0
   10.5860    7.1248  -13.5563 H   0  0  0  0  0  0  0  0  0  0  0  0
    6.8748    1.0622  -14.7352 C   0  0  0  0  0  0  0  0  0  0  0  0
    5.8575    0.1244  -14.6068 C   0  0  0  0  0  0  0  0  0  0  0  0
    4.7622    0.3504  -13.8050 C   0  0  0  0  0  0  0  0  0  0  0  0
    4.7178    1.5513  -13.1325 C   0  0  0  0  0  0  0  0  0  0  0  0
    5.7280    2.4882  -13.2561 C   0  0  0  0  0  0  0  0  0  0  0  0
    5.6583    3.6760  -12.5634 C   0  0  0  0  0  0  0  0  0  0  0  0
    6.6823    4.6210  -12.6791 C   0  0  0  0  0  0  0  0  0  0  0  0
    7.7746    4.3962  -13.4765 C   0  0  0  0  0  0  0  0  0  0  0  0
    7.8495    3.2029  -14.1755 C   0  0  0  0  0  0  0  0  0  0  0  0
    6.8355    2.2605  -14.0659 C   0  0  0  0  0  0  0  0  0  0  0  0
    9.1507    0.2831  -15.0559 C   0  0  0  0  0  0  0  0  0  0  0  0
    7.9775    0.7456  -15.6401 C   0  0  0  0  0  0  0  0  0  0  0  0
    7.9107    0.8547  -17.0065 C   0  0  0  0  0  0  0  0  0  0  0  0
    8.9638    0.5234  -17.8217 C   0  0  0  0  0  0  0  0  0  0  0  0
    9.1632    0.5361  -19.1799 C   0  0  0  0  0  0  0  0  0  0  0  0
   10.4209    0.0918  -19.3754 N   0  0  0  0  0  0  0  0  0  0  0  0
   10.8990   -0.0239  -20.2954 H   0  0  0  0  0  0  0  0  0  0  0  0
   11.0003   -0.1906  -18.2215 N   0  0  0  0  0  0  0  0  0  0  0  0
   10.1312    0.0646  -17.2583 C   0  0  0  0  0  0  0  0  0  0  0  0
   10.1973   -0.0450  -15.8882 C   0  0  0  0  0  0  0  0  0  0  0  0
   11.1173    7.6455   -6.6224 C   0  0  0  0  0  0  0  0  0  0  0  0
   11.7247    8.8824   -6.5858 C   0  0  0  0  0  0  0  0  0  0  0  0
   12.2784    9.4217   -5.4446 C   0  0  0  0  0  0  0  0  0  0  0  0
   12.2222    8.6878   -4.2814 C   0  0  0  0  0  0  0  0  0  0  0  0
   12.7651    9.1939   -3.1195 C   0  0  0  0  0  0  0  0  0  0  0  0
   12.6927    8.4375   -1.9765 C   0  0  0  0  0  0  0  0  0  0  0  0
   12.0971    7.1890   -1.9456 C   0  0  0  0  0  0  0  0  0  0  0  0
   11.5623    6.7054   -3.1183 C   0  0  0  0  0  0  0  0  0  0  0  0
   11.6307    7.4606   -4.2741 C   0  0  0  0  0  0  0  0  0  0  0  0
   11.0798    6.9388   -5.4377 C   0  0  0  0  0  0  0  0  0  0  0  0
 23 24  1  0
 24 13  1  0
 13 14  2  0
 14 15  1  0
 15 16  2  0
 16 17  1  0
 17 18  2  0
 18 19  1  0
 19 20  2  0
 20  1  1  0
  1  2  2  0
  2  3  1  0
  3  4  2  0
  4  5  1  0
  5  6  2  0
  6  7  1  0
  7 33  1  0
 33 34  2  0
 34 35  1  0
 35 36  2  0
 36 37  1  0
 37 38  2  0
 38 39  1  0
 39 40  2  0
 40 41  1  0
 41 42  2  0
  7  8  2  0
  8  9  1  0
  9 10  2  0
 10 11  1  0
 11 12  1  0
 20 21  1  0
 21 22  2  0
 24 25  2  0
 25 26  1  0
 26 27  2  0
 27 28  1  0
 28 29  1  0
 28 30  1  0
 30 31  2  0
 31 32  1  0
 32 23  2  0
 22 13  1  0
 31 26  1  0
 22 17  1  0
 11  2  1  0
  9  4  1  0
 42 33  1  0
 41 36  1  0
M  END
>  <minimizedAffinity>  (434) 
-16.97702

$$$$
Mol: 108_5 - SminaDock
     RDKit          3D

 42 48  0  0  0  0  0  0  0  0999 V2000
    6.4301    1.0311  -16.0224 C   0  0  2  0  0  0  0  0  0  0  0  0
    7.8821    1.1095  -15.6708 C   0  0  0  0  0  0  0  0  0  0  0  0
    8.6748    0.2559  -16.3875 C   0  0  0  0  0  0  0  0  0  0  0  0
   10.0372    0.2211  -16.1182 C   0  0  0  0  0  0  0  0  0  0  0  0
   10.5781    1.0335  -15.1441 C   0  0  0  0  0  0  0  0  0  0  0  0
    9.7965    1.9035  -14.4074 C   0  0  0  0  0  0  0  0  0  0  0  0
    8.4655    1.9191  -14.6931 C   0  0  0  0  0  0  0  0  0  0  0  0
    7.7481    2.8715  -13.8838 C   0  0  0  0  0  0  0  0  0  0  0  0
    8.5258    3.9435  -13.5507 C   0  0  0  0  0  0  0  0  0  0  0  0
    7.9508    4.9266  -12.7525 C   0  0  0  0  0  0  0  0  0  0  0  0
    6.6431    4.8276  -12.3128 C   0  0  0  0  0  0  0  0  0  0  0  0
    5.8832    3.7332  -12.6688 C   0  0  0  0  0  0  0  0  0  0  0  0
    6.4075    2.7328  -13.4573 C   0  0  0  0  0  0  0  0  0  0  0  0
    5.4813    1.6498  -13.7795 C   0  0  0  0  0  0  0  0  0  0  0  0
    4.4652    1.6623  -13.0339 O   0  0  0  0  0  0  0  0  0  0  0  0
    5.6103    0.6252  -14.8109 C   0  0  0  0  0  0  0  0  0  0  0  0
    8.6881    6.0806  -12.3527 N   0  0  0  0  0  0  0  0  0  0  0  0
    9.1048    6.1944  -11.1183 C   0  0  0  0  0  0  0  0  0  0  0  0
    8.8152    5.1803  -10.2247 C   0  0  0  0  0  0  0  0  0  0  0  0
    9.2778    5.3461   -8.9242 C   0  0  0  0  0  0  0  0  0  0  0  0
    9.9889    6.4499   -8.5179 C   0  0  0  0  0  0  0  0  0  0  0  0
   10.4446    6.6000   -7.2108 C   0  0  0  0  0  0  0  0  0  0  0  0
   11.1595    7.7106   -6.8027 C   0  0  0  0  0  0  0  0  0  0  0  0
   11.4080    8.6788   -7.7533 C   0  0  0  0  0  0  0  0  0  0  0  0
   10.9588    8.5365   -9.0525 C   0  0  0  0  0  0  0  0  0  0  0  0
   10.2465    7.4280   -9.4554 C   0  0  0  0  0  0  0  0  0  0  0  0
    9.8022    7.2786  -10.7232 N   0  0  0  0  0  0  0  0  0  0  0  0
    9.9916    8.0130  -11.4406 H   0  0  0  0  0  0  0  0  0  0  0  0
   11.6389    7.8709   -5.4320 C   0  0  0  0  0  0  0  0  0  0  0  0
   12.3520    8.9731   -5.0076 C   0  0  0  0  0  0  0  0  0  0  0  0
   12.7951    9.0929   -3.6878 C   0  0  0  0  0  0  0  0  0  0  0  0
   12.5294    8.1055   -2.7672 C   0  0  0  0  0  0  0  0  0  0  0  0
   11.8180    7.0025   -3.1842 C   0  0  0  0  0  0  0  0  0  0  0  0
   11.3824    6.8905   -4.4925 C   0  0  0  0  0  0  0  0  0  0  0  0
    4.8231   -4.0937  -17.5324 H   0  0  0  0  0  0  0  0  0  0  0  0
    5.5341   -3.4992  -17.1339 O   0  0  0  0  0  0  0  0  0  0  0  0
    5.7992   -2.2151  -17.5880 C   0  0  0  0  0  0  0  0  0  0  0  0
    5.9834   -1.2457  -16.6995 N   0  0  0  0  0  0  0  0  0  0  0  0
    6.2436    0.0197  -17.0654 C   0  0  0  0  0  0  0  0  0  0  0  0
    6.3249    0.3371  -18.4013 C   0  0  0  0  0  0  0  0  0  0  0  0
    6.1352   -0.6620  -19.3300 C   0  0  0  0  0  0  0  0  0  0  0  0
    5.8709   -1.9456  -18.9286 C   0  0  0  0  0  0  0  0  0  0  0  0
 35 36  1  0
 36 37  1  0
 37 38  2  0
 38 39  1  0
  1 39  1  6
  1  2  1  0
  2  3  2  0
  3  4  1  0
  4  5  2  0
  5  6  1  0
  6  7  2  0
  7  8  1  0
  8  9  2  0
  9 10  1  0
 10 17  1  0
 17 18  2  0
 18 19  1  0
 19 20  2  0
 20 21  1  0
 21 22  2  0
 22 23  1  0
 23 29  1  0
 29 30  2  0
 30 31  1  0
 31 32  2  0
 32 33  1  0
 33 34  2  0
 23 24  2  0
 24 25  1  0
 25 26  2  0
 26 27  1  0
 27 28  1  0
 10 11  2  0
 11 12  1  0
 12 13  2  0
 13 14  1  0
 14 15  2  0
 14 16  1  0
 39 40  2  0
 40 41  1  0
 41 42  2  0
 42 37  1  0
 16  1  1  0
  7  2  1  0
 13  8  1  0
 27 18  1  0
 26 21  1  0
 34 29  1  0
M  END
>  <minimizedAffinity>  (435) 
-16.96348

$$$$
Mol: 192_58 - SminaDock
     RDKit          3D

 36 42  0  0  0  0  0  0  0  0999 V2000
   11.2640    8.1475   -6.0978 C   0  0  0  0  0  0  0  0  0  0  0  0
   11.4712    9.2628   -6.9009 C   0  0  0  0  0  0  0  0  0  0  0  0
   11.1137    9.2896   -8.2320 C   0  0  0  0  0  0  0  0  0  0  0  0
   10.5283    8.1898   -8.8195 C   0  0  0  0  0  0  0  0  0  0  0  0
   10.3195    7.0745   -8.0214 C   0  0  0  0  0  0  0  0  0  0  0  0
    9.7337    5.9771   -8.6156 C   0  0  0  0  0  0  0  0  0  0  0  0
    9.3805    5.9963   -9.9233 N   0  0  0  0  0  0  0  0  0  0  0  0
    9.5889    7.0857  -10.6863 C   0  0  0  0  0  0  0  0  0  0  0  0
    9.2292    7.0415  -11.9342 N   0  0  0  0  0  0  0  0  0  0  0  0
   10.1523    8.1423  -10.1161 N   0  0  0  0  0  0  0  0  0  0  0  0
   10.3287    9.0110  -10.6862 H   0  0  0  0  0  0  0  0  0  0  0  0
   10.6736    7.0408   -6.6926 C   0  0  0  0  0  0  0  0  0  0  0  0
    8.6369    5.8643  -12.4473 C   0  0  0  0  0  0  0  0  0  0  0  0
    9.2949    5.1041  -13.3823 C   0  0  0  0  0  0  0  0  0  0  0  0
    8.7465    3.9469  -13.8905 C   0  0  0  0  0  0  0  0  0  0  0  0
    7.4855    3.5566  -13.4268 C   0  0  0  0  0  0  0  0  0  0  0  0
    6.8012    4.2949  -12.4929 C   0  0  0  0  0  0  0  0  0  0  0  0
    7.4038    5.4618  -12.0098 C   0  0  0  0  0  0  0  0  0  0  0  0
    5.4971    3.6537  -12.1849 C   0  0  0  0  0  0  0  0  0  0  0  0
    5.4799    2.4516  -13.0170 C   0  0  0  0  0  0  0  0  0  0  0  0
    4.5675    1.4086  -13.2043 C   0  0  0  0  0  0  0  0  0  0  0  0
    4.8555    0.3969  -14.0863 C   0  0  0  0  0  0  0  0  0  0  0  0
    6.0202    0.3451  -14.8183 C   0  0  0  0  0  0  0  0  0  0  0  0
    6.9340    1.3769  -14.6398 C   0  0  0  0  0  0  0  0  0  0  0  0
    6.6448    2.4110  -13.7409 C   0  0  0  0  0  0  0  0  0  0  0  0
    6.0499   -0.8699  -15.6891 C   0  0  0  0  0  0  0  0  0  0  0  0
    4.8043   -1.5127  -15.3897 N   0  0  0  0  0  0  0  0  0  0  0  0
    4.4886   -2.4073  -15.8232 H   0  0  0  0  0  0  0  0  0  0  0  0
    4.0510   -0.7863  -14.4325 C   0  0  0  0  0  0  0  0  0  0  0  0
    2.9255   -1.0483  -13.9434 O   0  0  0  0  0  0  0  0  0  0  0  0
   12.3129    7.8578   -2.0240 C   0  0  0  0  0  0  0  0  0  0  0  0
   12.3785    9.0846   -2.6541 C   0  0  0  0  0  0  0  0  0  0  0  0
   12.0434    9.2062   -3.9771 C   0  0  0  0  0  0  0  0  0  0  0  0
   11.6415    8.1119   -4.6832 C   0  0  0  0  0  0  0  0  0  0  0  0
   11.5780    6.8759   -4.0395 C   0  0  0  0  0  0  0  0  0  0  0  0
   11.9124    6.7375   -2.7070 C   0  0  0  0  0  0  0  0  0  0  0  0
 31 32  2  0
 32 33  1  0
 33 34  2  0
 34  1  1  0
  1  2  2  0
  2  3  1  0
  3  4  2  0
  4  5  1  0
  5  6  1  0
  6  7  2  0
  7  8  1  0
  8  9  2  0
  9 13  1  0
 13 14  2  0
 14 15  1  0
 15 16  2  0
 16 17  1  0
 17 18  2  0
 17 19  1  0
 19 20  1  0
 20 21  2  0
 21 22  1  0
 22 23  2  0
 23 24  1  0
 24 25  2  0
 23 26  1  0
 26 27  1  0
 27 28  1  0
 27 29  1  0
 29 30  2  0
  8 10  1  0
 10 11  1  0
  5 12  2  0
 34 35  1  0
 35 36  2  0
 36 31  1  0
 12  1  1  0
 10  4  1  0
 18 13  1  0
 25 20  1  0
 25 16  1  0
 29 22  1  0
M  END
>  <minimizedAffinity>  (436) 
-17.02658

$$$$
Mol: 105_39 - SminaDock
     RDKit          3D

 44 50  0  0  0  0  0  0  0  0999 V2000
    8.0670   -1.0524  -13.2074 H   0  0  0  0  0  0  0  0  0  0  0  0
    7.7125   -0.3126  -13.7841 O   0  0  0  0  0  0  0  0  0  0  0  0
    8.6263    0.6281  -14.3143 C   0  0  0  0  0  0  0  0  0  0  0  0
    9.8712    0.6332  -14.4097 N   0  0  0  0  0  0  0  0  0  0  0  0
    9.9326    1.8731  -15.0223 C   0  0  0  0  0  0  0  0  0  0  0  0
    8.4979    1.9385  -14.9484 C   0  0  2  0  0  0  0  0  0  0  0  0
    7.7877    2.8537  -14.0347 C   0  0  0  0  0  0  0  0  0  0  0  0
    8.4546    3.9428  -13.5863 C   0  0  0  0  0  0  0  0  0  0  0  0
    7.8837    4.8566  -12.7199 C   0  0  0  0  0  0  0  0  0  0  0  0
    6.5987    4.6870  -12.2780 C   0  0  0  0  0  0  0  0  0  0  0  0
    5.8882    3.5917  -12.7127 C   0  0  0  0  0  0  0  0  0  0  0  0
    6.4800    2.6864  -13.5827 C   0  0  0  0  0  0  0  0  0  0  0  0
    5.5425    1.6033  -13.9319 C   0  0  0  0  0  0  0  0  0  0  0  0
    4.6034    1.3813  -13.1083 O   0  0  0  0  0  0  0  0  0  0  0  0
    5.6204    0.7870  -15.1368 C   0  0  0  0  0  0  0  0  0  0  0  0
    4.6163   -0.1310  -15.1981 C   0  0  0  0  0  0  0  0  0  0  0  0
    4.5352   -1.0053  -16.2862 C   0  0  0  0  0  0  0  0  0  0  0  0
    5.4683   -0.9433  -17.3000 C   0  0  0  0  0  0  0  0  0  0  0  0
    6.4803   -0.0001  -17.2140 C   0  0  0  0  0  0  0  0  0  0  0  0
    6.5772    0.8699  -16.1504 C   0  0  0  0  0  0  0  0  0  0  0  0
    7.7283    1.7952  -16.2606 C   0  0  0  0  0  0  0  0  0  0  0  0
    8.6953    5.9621  -12.3220 N   0  0  0  0  0  0  0  0  0  0  0  0
    9.0895    6.0793  -11.0767 C   0  0  0  0  0  0  0  0  0  0  0  0
    8.7403    5.1527  -10.1176 C   0  0  0  0  0  0  0  0  0  0  0  0
    9.1724    5.3001   -8.7998 C   0  0  0  0  0  0  0  0  0  0  0  0
    9.9583    6.3764   -8.4294 C   0  0  0  0  0  0  0  0  0  0  0  0
   10.4028    6.5465   -7.1204 C   0  0  0  0  0  0  0  0  0  0  0  0
   11.1893    7.6334   -6.7739 C   0  0  0  0  0  0  0  0  0  0  0  0
   11.5208    8.5455   -7.7659 C   0  0  0  0  0  0  0  0  0  0  0  0
   11.0692    8.3537   -9.0477 C   0  0  0  0  0  0  0  0  0  0  0  0
   10.2844    7.2796   -9.4197 C   0  0  0  0  0  0  0  0  0  0  0  0
    9.8529    7.1142  -10.6902 N   0  0  0  0  0  0  0  0  0  0  0  0
   10.1328    7.8322  -11.3966 H   0  0  0  0  0  0  0  0  0  0  0  0
   11.6733    7.8413   -5.4069 C   0  0  0  0  0  0  0  0  0  0  0  0
   12.4105    8.9459   -5.0344 C   0  0  0  0  0  0  0  0  0  0  0  0
   12.8650    9.1412   -3.7503 C   0  0  0  0  0  0  0  0  0  0  0  0
   12.5900    8.2127   -2.7687 C   0  0  0  0  0  0  0  0  0  0  0  0
   11.8548    7.1038   -3.1246 C   0  0  0  0  0  0  0  0  0  0  0  0
   11.3993    6.9083   -4.4118 C   0  0  0  0  0  0  0  0  0  0  0  0
    5.3626   -1.8655  -18.4243 C   0  0  0  0  0  0  0  0  0  0  0  0
    5.9345   -1.6558  -19.5057 O   0  0  0  0  0  0  0  0  0  0  0  0
    4.5711   -3.0349  -18.2459 N   0  0  0  0  0  0  0  0  0  0  0  0
    4.5035   -3.5578  -17.3541 H   0  0  0  0  0  0  0  0  0  0  0  0
    4.0018   -3.4243  -19.0536 H   0  0  0  0  0  0  0  0  0  0  0  0
  1  2  1  0
  2  3  1  0
  3  4  2  0
  4  5  1  0
  6  5  1  6
  6  7  1  0
  7  8  2  0
  8  9  1  0
  9 22  1  0
 22 23  2  0
 23 24  1  0
 24 25  2  0
 25 26  1  0
 26 27  2  0
 27 28  1  0
 28 34  1  0
 34 35  2  0
 35 36  1  0
 36 37  2  0
 37 38  1  0
 38 39  2  0
 28 29  2  0
 29 30  1  0
 30 31  2  0
 31 32  1  0
 32 33  1  0
  9 10  2  0
 10 11  1  0
 11 12  2  0
 12 13  1  0
 13 14  2  0
 13 15  1  0
 15 16  2  0
 16 17  1  0
 17 18  2  0
 18 40  1  0
 40 41  2  0
 40 42  1  0
 42 43  1  0
 42 44  1  0
 18 19  1  0
 19 20  2  0
 20 21  1  0
  6  3  1  0
 12  7  1  0
 20 15  1  0
 21  6  1  0
 32 23  1  0
 31 26  1  0
 39 34  1  0
M  END
>  <minimizedAffinity>  (437) 
-16.97187

$$$$
Mol: 167_14 - SminaDock
     RDKit          3D

 39 45  0  0  0  0  0  0  0  0999 V2000
    5.5349   -0.9110  -15.2977 C   0  0  0  0  0  0  0  0  0  0  0  0
    6.4606   -1.1229  -16.2452 N   0  0  0  0  0  0  0  0  0  0  0  0
    7.4555   -0.2639  -16.5073 C   0  0  0  0  0  0  0  0  0  0  0  0
    8.2967   -0.5403  -17.4267 O   0  0  0  0  0  0  0  0  0  0  0  0
    7.6104    0.9441  -15.8006 C   0  0  0  0  0  0  0  0  0  0  0  0
    6.6822    1.1915  -14.8260 C   0  0  0  0  0  0  0  0  0  0  0  0
    6.7239    2.3600  -14.0489 C   0  0  0  0  0  0  0  0  0  0  0  0
    5.7865    2.6034  -13.0688 C   0  0  0  0  0  0  0  0  0  0  0  0
    4.7965    1.6735  -12.8605 N   0  0  0  0  0  0  0  0  0  0  0  0
    4.1153    1.9298  -12.0934 H   0  0  0  0  0  0  0  0  0  0  0  0
    4.6900    0.5393  -13.5580 C   0  0  0  0  0  0  0  0  0  0  0  0
    5.6008    0.2489  -14.5474 C   0  0  0  0  0  0  0  0  0  0  0  0
    5.6176    3.7366  -12.1222 C   0  0  0  0  0  0  0  0  0  0  0  0
    5.8810    5.0750  -12.8223 C   0  0  0  0  0  0  0  0  0  0  0  0
    7.3844    5.1997  -12.9805 C   0  0  0  0  0  0  0  0  0  0  0  0
    7.8478    6.2900  -12.2931 C   0  0  0  0  0  0  0  0  0  0  0  0
    9.1952    6.5756  -12.2795 C   0  0  0  0  0  0  0  0  0  0  0  0
   10.0367    5.7149  -12.9861 C   0  0  0  0  0  0  0  0  0  0  0  0
    9.5410    4.6257  -13.6688 C   0  0  0  0  0  0  0  0  0  0  0  0
    8.1758    4.3376  -13.6823 C   0  0  0  0  0  0  0  0  0  0  0  0
    7.8575    3.1721  -14.4755 C   0  0  0  0  0  0  0  0  0  0  0  0
    9.7313    7.6989  -11.5797 N   0  0  0  0  0  0  0  0  0  0  0  0
   10.0464    7.6411  -10.3227 C   0  0  0  0  0  0  0  0  0  0  0  0
   10.5507    8.7052   -9.6734 N   0  0  0  0  0  0  0  0  0  0  0  0
   10.8481    8.5535   -8.3718 C   0  0  0  0  0  0  0  0  0  0  0  0
   11.3752    9.6213   -7.6413 C   0  0  0  0  0  0  0  0  0  0  0  0
   11.6782    9.4645   -6.3128 C   0  0  0  0  0  0  0  0  0  0  0  0
   11.4734    8.2678   -5.6746 C   0  0  0  0  0  0  0  0  0  0  0  0
   10.9571    7.2042   -6.3701 C   0  0  0  0  0  0  0  0  0  0  0  0
   10.6554    7.3655   -7.6990 C   0  0  0  0  0  0  0  0  0  0  0  0
   10.1330    6.2891   -8.4023 C   0  0  0  0  0  0  0  0  0  0  0  0
    9.8420    6.4601   -9.7024 N   0  0  0  0  0  0  0  0  0  0  0  0
    9.4422    5.6496  -10.2553 H   0  0  0  0  0  0  0  0  0  0  0  0
   11.8029    8.1228   -4.2588 C   0  0  0  0  0  0  0  0  0  0  0  0
   11.7641    6.8670   -3.7134 C   0  0  0  0  0  0  0  0  0  0  0  0
   12.0737    6.7206   -2.3766 C   0  0  0  0  0  0  0  0  0  0  0  0
   12.4121    7.8275   -1.6231 C   0  0  0  0  0  0  0  0  0  0  0  0
   12.4458    9.0829   -2.1890 C   0  0  0  0  0  0  0  0  0  0  0  0
   12.1369    9.2251   -3.5212 C   0  0  0  0  0  0  0  0  0  0  0  0
  1  2  2  0
  2  3  1  0
  3  4  2  0
  3  5  1  0
  5  6  2  0
  6  7  1  0
  7  8  2  0
  8  9  1  0
  9 10  1  0
  9 11  1  0
 11 12  2  0
  8 13  1  0
 13 14  1  0
 14 15  1  0
 15 16  2  0
 16 17  1  0
 17 22  1  0
 22 23  2  0
 23 24  1  0
 24 25  2  0
 25 26  1  0
 26 27  2  0
 27 28  1  0
 28 34  1  0
 34 35  2  0
 35 36  1  0
 36 37  2  0
 37 38  1  0
 38 39  2  0
 28 29  2  0
 29 30  1  0
 30 31  2  0
 31 32  1  0
 32 33  1  0
 17 18  2  0
 18 19  1  0
 19 20  2  0
 20 21  1  0
 12  1  1  0
 20 15  1  0
 12  6  1  0
 32 23  1  0
 21  7  1  0
 30 25  1  0
 39 34  1  0
M  END
>  <minimizedAffinity>  (438) 
-16.96954

$$$$
Mol: 150_42 - SminaDock
     RDKit          3D

 43 50  0  0  0  0  0  0  0  0999 V2000
    9.5215    2.4065  -15.3310 H   0  0  0  0  0  0  0  0  0  0  0  0
    8.7400    3.0484  -15.4961 O   0  0  0  0  0  0  0  0  0  0  0  0
    7.9241    3.3684  -14.4155 C   0  0  0  0  0  0  0  0  0  0  0  0
    6.8552    2.5733  -14.2582 C   0  0  0  0  0  0  0  0  0  0  0  0
    6.8392    1.5924  -15.2613 C   0  0  0  0  0  0  0  0  0  0  0  0
    5.8125    0.6890  -15.2559 C   0  0  0  0  0  0  0  0  0  0  0  0
    4.8183    0.7436  -14.2866 C   0  0  0  0  0  0  0  0  0  0  0  0
    4.8673    1.7198  -13.3184 C   0  0  0  0  0  0  0  0  0  0  0  0
    5.8902    2.6570  -13.2851 C   0  0  0  0  0  0  0  0  0  0  0  0
    5.6722    3.5650  -12.1342 C   0  0  0  0  0  0  0  0  0  0  0  0
    6.2831    4.8182  -12.2491 O   0  0  0  0  0  0  0  0  0  0  0  0
    7.5754    5.1717  -12.6064 C   0  0  0  0  0  0  0  0  0  0  0  0
    8.0998    6.2424  -11.9183 C   0  0  0  0  0  0  0  0  0  0  0  0
    9.3781    6.6698  -12.2014 C   0  0  0  0  0  0  0  0  0  0  0  0
   10.0964    6.0107  -13.1681 C   0  0  0  0  0  0  0  0  0  0  0  0
    9.5627    4.9342  -13.8565 C   0  0  0  0  0  0  0  0  0  0  0  0
    8.2974    4.4997  -13.5867 C   0  0  0  0  0  0  0  0  0  0  0  0
    3.8121   -0.1389  -14.2785 C   0  0  0  0  0  0  0  0  0  0  0  0
    3.6675   -1.2082  -15.2557 C   0  0  0  0  0  0  0  0  0  0  0  0
    4.7203   -1.2597  -16.2751 C   0  0  0  0  0  0  0  0  0  0  0  0
    4.6576   -2.2644  -17.2598 C   0  0  0  0  0  0  0  0  0  0  0  0
    5.6319   -2.3320  -18.2241 C   0  0  0  0  0  0  0  0  0  0  0  0
    6.6546   -1.4176  -18.2143 C   0  0  0  0  0  0  0  0  0  0  0  0
    6.7423   -0.4204  -17.2604 C   0  0  0  0  0  0  0  0  0  0  0  0
    5.7625   -0.3559  -16.2943 C   0  0  0  0  0  0  0  0  0  0  0  0
    9.9007    7.7749  -11.4813 N   0  0  0  0  0  0  0  0  0  0  0  0
   10.1832    7.6564  -10.2390 C   0  0  0  0  0  0  0  0  0  0  0  0
    9.9760    6.4579   -9.6187 N   0  0  0  0  0  0  0  0  0  0  0  0
   10.2601    6.2964   -8.3214 C   0  0  0  0  0  0  0  0  0  0  0  0
   10.7682    7.3215   -7.5648 C   0  0  0  0  0  0  0  0  0  0  0  0
   11.0707    7.1814   -6.2225 C   0  0  0  0  0  0  0  0  0  0  0  0
   11.5816    8.2187   -5.4708 C   0  0  0  0  0  0  0  0  0  0  0  0
   11.7824    9.4202   -6.1197 C   0  0  0  0  0  0  0  0  0  0  0  0
   11.4842    9.5727   -7.4600 C   0  0  0  0  0  0  0  0  0  0  0  0
   10.9740    8.5412   -8.2162 C   0  0  0  0  0  0  0  0  0  0  0  0
   10.6796    8.6772   -9.5233 N   0  0  0  0  0  0  0  0  0  0  0  0
   10.8458    9.6077   -9.9843 H   0  0  0  0  0  0  0  0  0  0  0  0
   11.9043    8.0815   -4.0559 C   0  0  0  0  0  0  0  0  0  0  0  0
   11.9347    6.8708   -3.3951 C   0  0  0  0  0  0  0  0  0  0  0  0
   12.2464    6.7753   -2.0432 C   0  0  0  0  0  0  0  0  0  0  0  0
   12.5405    7.9201   -1.3120 C   0  0  0  0  0  0  0  0  0  0  0  0
   12.5100    9.1301   -1.9729 C   0  0  0  0  0  0  0  0  0  0  0  0
   12.1991    9.2089   -3.3140 C   0  0  0  0  0  0  0  0  0  0  0  0
  1  2  1  0
  2  3  1  0
  3  4  2  0
  4  5  1  0
  5  6  2  0
  6  7  1  0
  7  8  1  0
  8  9  2  0
  9 10  1  0
 10 11  1  0
 11 12  1  0
 12 13  2  0
 13 14  1  0
 14 26  1  0
 26 27  2  0
 27 28  1  0
 28 29  2  0
 29 30  1  0
 30 31  2  0
 31 32  1  0
 32 38  1  0
 38 39  2  0
 39 40  1  0
 40 41  2  0
 41 42  1  0
 42 43  2  0
 32 33  2  0
 33 34  1  0
 34 35  2  0
 35 36  1  0
 36 37  1  0
 14 15  2  0
 15 16  1  0
 16 17  2  0
  7 18  2  0
 18 19  1  0
 19 20  1  0
 20 21  2  0
 21 22  1  0
 22 23  2  0
 23 24  1  0
 24 25  2  0
 17  3  1  0
 25 20  1  0
  9  4  1  0
 17 12  1  0
 25  6  1  0
 36 27  1  0
 35 30  1  0
 43 38  1  0
M  END
>  <minimizedAffinity>  (439) 
-16.97337

$$$$
Mol: 194_28 - SminaDock
     RDKit          3D

 40 47  0  0  0  0  0  0  0  0999 V2000
    8.8066    5.6039  -12.6482 C   0  0  0  0  0  0  0  0  0  0  0  0
    9.2051    5.1395  -13.8914 C   0  0  0  0  0  0  0  0  0  0  0  0
    8.5050    4.1179  -14.4581 C   0  0  0  0  0  0  0  0  0  0  0  0
    7.4140    3.5508  -13.8070 C   0  0  0  0  0  0  0  0  0  0  0  0
    7.0120    4.0055  -12.5736 C   0  0  0  0  0  0  0  0  0  0  0  0
    7.7344    5.0592  -11.9895 C   0  0  0  0  0  0  0  0  0  0  0  0
    5.8411    3.2432  -12.1049 C   0  0  0  0  0  0  0  0  0  0  0  0
    5.5710    2.2763  -13.1809 C   0  0  0  0  0  0  0  0  0  0  0  0
    4.5934    1.2871  -13.3177 C   0  0  0  0  0  0  0  0  0  0  0  0
    4.5796    0.5196  -14.4478 C   0  0  0  0  0  0  0  0  0  0  0  0
    5.5217    0.7300  -15.4282 C   0  0  0  0  0  0  0  0  0  0  0  0
    6.4953    1.6934  -15.3245 C   0  0  0  0  0  0  0  0  0  0  0  0
    6.5032    2.4716  -14.1704 C   0  0  0  0  0  0  0  0  0  0  0  0
    5.2845   -0.2295  -16.5385 C   0  0  2  0  0  0  0  0  0  0  0  0
    4.1744   -0.9919  -16.1537 O   0  0  0  0  0  0  0  0  0  0  0  0
    3.7360   -0.5731  -14.9240 C   0  0  0  0  0  0  0  0  0  0  0  0
    2.7633   -1.0246  -14.2624 O   0  0  0  0  0  0  0  0  0  0  0  0
    6.5313   -1.1011  -16.6863 C   0  0  0  0  0  0  0  0  0  0  0  0
    6.1912   -2.2086  -17.6436 C   0  0  0  0  0  0  0  0  0  0  0  0
    5.3721   -1.7941  -18.6825 O   0  0  0  0  0  0  0  0  0  0  0  0
    5.5522   -0.4471  -18.9910 C   0  0  0  0  0  0  0  0  0  0  0  0
    5.0771    0.4555  -17.8627 C   0  0  0  0  0  0  0  0  0  0  0  0
   11.2880    7.8473   -6.1591 C   0  0  0  0  0  0  0  0  0  0  0  0
   11.6877    8.8672   -7.0185 C   0  0  0  0  0  0  0  0  0  0  0  0
   11.3958    8.8042   -8.3635 C   0  0  0  0  0  0  0  0  0  0  0  0
   10.7022    7.7411   -8.9156 C   0  0  0  0  0  0  0  0  0  0  0  0
   10.3039    6.7347   -8.0868 C   0  0  0  0  0  0  0  0  0  0  0  0
   10.5996    6.8032   -6.7385 C   0  0  0  0  0  0  0  0  0  0  0  0
    9.6119    5.6629   -8.6051 C   0  0  0  0  0  0  0  0  0  0  0  0
    9.3290    5.6175   -9.9537 C   0  0  0  0  0  0  0  0  0  0  0  0
    9.7532    6.6561  -10.7409 C   0  0  0  0  0  0  0  0  0  0  0  0
    9.5131    6.6668  -12.0283 N   0  0  0  0  0  0  0  0  0  0  0  0
   10.4331    7.7093  -10.2311 N   0  0  0  0  0  0  0  0  0  0  0  0
   10.7419    8.4853  -10.8618 H   0  0  0  0  0  0  0  0  0  0  0  0
   12.1385    9.2287   -2.8855 C   0  0  0  0  0  0  0  0  0  0  0  0
   11.8464    9.1155   -4.1906 N   0  0  0  0  0  0  0  0  0  0  0  0
   11.5959    7.9203   -4.7590 C   0  0  0  0  0  0  0  0  0  0  0  0
   11.6455    6.8013   -3.9662 C   0  0  0  0  0  0  0  0  0  0  0  0
   11.9448    6.8696   -2.6039 C   0  0  0  0  0  0  0  0  0  0  0  0
   12.1915    8.1144   -2.0781 C   0  0  0  0  0  0  0  0  0  0  0  0
 35 36  2  0
 36 37  1  0
 37 23  1  0
 23 24  2  0
 24 25  1  0
 25 26  2  0
 26 27  1  0
 27 28  2  0
 27 29  1  0
 29 30  2  0
 30 31  1  0
 31 32  2  0
 32  1  1  0
  1  2  2  0
  2  3  1  0
  3  4  2  0
  4  5  1  0
  5  6  2  0
  5  7  1  0
  7  8  1  0
  8  9  2  0
  9 10  1  0
 10 11  2  0
 11 12  1  0
 12 13  2  0
 11 14  1  0
 14 15  1  0
 15 16  1  0
 16 17  2  0
 14 18  1  6
 18 19  1  0
 19 20  1  0
 20 21  1  0
 21 22  1  0
 31 33  1  0
 33 34  1  0
 37 38  2  0
 38 39  1  0
 39 40  2  0
 40 35  1  0
 28 23  1  0
  6  1  1  0
 13  8  1  0
 22 14  1  0
 33 26  1  0
 13  4  1  0
 16 10  1  0
M  END
>  <minimizedAffinity>  (440) 
-16.99799

$$$$
Mol: 96_47 - SminaDock
     RDKit          3D

 40 46  0  0  0  0  0  0  0  0999 V2000
    8.0537    4.7668  -12.7691 C   0  0  0  0  0  0  0  0  0  0  0  0
    6.6926    4.6672  -12.5828 C   0  0  0  0  0  0  0  0  0  0  0  0
    6.0665    3.5275  -13.0054 C   0  0  0  0  0  0  0  0  0  0  0  0
    6.7259    2.4404  -13.6242 C   0  0  0  0  0  0  0  0  0  0  0  0
    8.0810    2.5516  -13.8013 C   0  0  0  0  0  0  0  0  0  0  0  0
    8.7187    3.7222  -13.3669 C   0  0  0  0  0  0  0  0  0  0  0  0
    8.9497    1.4820  -14.3908 C   0  0  0  0  0  0  0  0  0  0  0  0
    9.4203    1.9546  -15.7588 C   0  0  0  0  0  0  0  0  0  0  0  0
    8.5899    1.1665  -16.6820 N   0  0  0  0  0  0  0  0  0  0  0  0
    9.0571   -0.0575  -17.1630 C   0  0  0  0  0  0  0  0  0  0  0  0
    8.4308   -0.8242  -17.9308 O   0  0  0  0  0  0  0  0  0  0  0  0
   10.4268   -0.5793  -16.7736 C   0  0  0  0  0  0  0  0  0  0  0  0
    7.2796    1.7556  -17.0030 C   0  0  2  0  0  0  0  0  0  0  0  0
    6.1991    0.9885  -16.4836 C   0  0  0  0  0  0  0  0  0  0  0  0
    5.6680    0.7108  -15.2993 C   0  0  0  0  0  0  0  0  0  0  0  0
    4.6680   -0.3065  -15.3232 C   0  0  0  0  0  0  0  0  0  0  0  0
    4.3055   -0.9267  -16.4994 C   0  0  0  0  0  0  0  0  0  0  0  0
    4.9091   -0.5665  -17.6787 C   0  0  0  0  0  0  0  0  0  0  0  0
    5.8935    0.4318  -17.6739 C   0  0  0  0  0  0  0  0  0  0  0  0
    6.8225    1.3318  -18.3686 C   0  0  0  0  0  0  0  0  0  0  0  0
    5.8776    1.3252  -14.0045 C   0  0  0  0  0  0  0  0  0  0  0  0
    5.2203    0.8418  -12.9775 O   0  0  0  0  0  0  0  0  0  0  0  0
   11.1217    7.7398   -6.8227 C   0  0  0  0  0  0  0  0  0  0  0  0
   11.2800    8.7375   -7.7636 C   0  0  0  0  0  0  0  0  0  0  0  0
   10.8200    8.5557   -9.0467 C   0  0  0  0  0  0  0  0  0  0  0  0
   10.1920    7.4045   -9.4635 C   0  0  0  0  0  0  0  0  0  0  0  0
   10.0311    6.3952   -8.5147 C   0  0  0  0  0  0  0  0  0  0  0  0
   10.4934    6.5837   -7.2336 C   0  0  0  0  0  0  0  0  0  0  0  0
    9.4023    5.2431   -8.9319 C   0  0  0  0  0  0  0  0  0  0  0  0
    8.9399    5.0593  -10.2188 C   0  0  0  0  0  0  0  0  0  0  0  0
    9.1285    6.0940  -11.1119 C   0  0  0  0  0  0  0  0  0  0  0  0
    8.7023    5.9492  -12.3321 N   0  0  0  0  0  0  0  0  0  0  0  0
    9.7404    7.2256  -10.7215 N   0  0  0  0  0  0  0  0  0  0  0  0
    9.8957    8.0312  -11.3882 H   0  0  0  0  0  0  0  0  0  0  0  0
   12.4550    8.1160   -2.8435 C   0  0  0  0  0  0  0  0  0  0  0  0
   11.7732    6.9850   -3.2543 C   0  0  0  0  0  0  0  0  0  0  0  0
   11.3517    6.8943   -4.5613 C   0  0  0  0  0  0  0  0  0  0  0  0
   11.6100    7.9261   -5.4503 C   0  0  0  0  0  0  0  0  0  0  0  0
   12.2828    9.0328   -5.0286 C   0  0  0  0  0  0  0  0  0  0  0  0
   12.7102    9.1391   -3.7281 C   0  0  0  0  0  0  0  0  0  0  0  0
 35 36  2  0
 36 37  1  0
 37 38  2  0
 38 23  1  0
 23 24  2  0
 24 25  1  0
 25 26  2  0
 26 27  1  0
 27 28  2  0
 27 29  1  0
 29 30  2  0
 30 31  1  0
 31 32  2  0
 32  1  1  0
  1  2  2  0
  2  3  1  0
  3  4  2  0
  4  5  1  0
  5  6  2  0
  5  7  1  0
  7  8  1  0
  8  9  1  0
  9 10  1  0
 10 11  2  0
 10 12  1  0
  9 13  1  0
 13 14  1  0
 14 15  2  0
 15 16  1  0
 16 17  2  0
 17 18  1  0
 18 19  2  0
 19 20  1  0
 15 21  1  0
 21 22  2  0
 31 33  1  0
 33 34  1  0
 38 39  1  0
 39 40  2  0
 40 35  1  0
 28 23  1  0
  6  1  1  0
 13 20  1  6
 33 26  1  0
 21  4  1  0
 19 14  1  0
M  END
>  <minimizedAffinity>  (441) 
-16.99274

$$$$
Mol: 127_29 - SminaDock
     RDKit          3D

 39 45  0  0  0  0  0  0  0  0999 V2000
    8.0210    4.5872  -13.1411 C   0  0  0  0  0  0  0  0  0  0  0  0
    6.8559    4.3080  -12.4820 C   0  0  0  0  0  0  0  0  0  0  0  0
    6.0831    3.2004  -12.8533 C   0  0  0  0  0  0  0  0  0  0  0  0
    6.5197    2.4110  -13.8835 C   0  0  0  0  0  0  0  0  0  0  0  0
    7.6973    2.6735  -14.5597 C   0  0  0  0  0  0  0  0  0  0  0  0
    8.4364    3.7814  -14.1660 C   0  0  0  0  0  0  0  0  0  0  0  0
    8.1732    1.7288  -15.5573 C   0  0  2  0  0  0  0  0  0  0  0  0
    8.8086    0.6009  -14.7698 C   0  0  0  0  0  0  0  0  0  0  0  0
    8.5273    0.3928  -13.5639 O   0  0  0  0  0  0  0  0  0  0  0  0
    9.7340   -0.2034  -15.4655 N   0  0  0  0  0  0  0  0  0  0  0  0
    9.7913   -0.0988  -16.8751 C   0  0  0  0  0  0  0  0  0  0  0  0
    9.9028   -1.1086  -17.6419 O   0  0  0  0  0  0  0  0  0  0  0  0
    9.7152    1.2667  -17.4519 C   0  0  0  0  0  0  0  0  0  0  0  0
    9.2851    2.2853  -16.4223 C   0  0  0  0  0  0  0  0  0  0  0  0
    7.0786    1.1374  -16.3389 C   0  0  0  0  0  0  0  0  0  0  0  0
    5.9810    0.6390  -15.4923 C   0  0  0  0  0  0  0  0  0  0  0  0
    5.2225   -0.4727  -15.8957 C   0  0  0  0  0  0  0  0  0  0  0  0
    4.1219   -0.8477  -15.1529 C   0  0  0  0  0  0  0  0  0  0  0  0
    3.7578   -0.1485  -14.0239 C   0  0  0  0  0  0  0  0  0  0  0  0
    4.5059    0.9445  -13.6254 C   0  0  0  0  0  0  0  0  0  0  0  0
    5.6262    1.3354  -14.3679 C   0  0  0  0  0  0  0  0  0  0  0  0
   11.0115    7.5294   -7.2618 C   0  0  0  0  0  0  0  0  0  0  0  0
   11.4577    8.3770   -8.2592 C   0  0  0  0  0  0  0  0  0  0  0  0
   11.1337    8.2064   -9.5779 C   0  0  0  0  0  0  0  0  0  0  0  0
   10.3308    7.1547   -9.9569 C   0  0  0  0  0  0  0  0  0  0  0  0
    9.9991    6.9725  -11.2700 N   0  0  0  0  0  0  0  0  0  0  0  0
    9.2139    5.9333  -11.5890 C   0  0  0  0  0  0  0  0  0  0  0  0
    8.8560    5.6968  -12.8215 N   0  0  0  0  0  0  0  0  0  0  0  0
    8.7696    5.0972  -10.6336 N   0  0  0  0  0  0  0  0  0  0  0  0
    8.1533    4.2860  -10.9055 H   0  0  0  0  0  0  0  0  0  0  0  0
    9.0589    5.2249   -9.3455 C   0  0  0  0  0  0  0  0  0  0  0  0
    9.8772    6.3001   -8.9755 C   0  0  0  0  0  0  0  0  0  0  0  0
   10.2159    6.4892   -7.6479 C   0  0  0  0  0  0  0  0  0  0  0  0
   12.1034    8.2172   -3.2351 C   0  0  0  0  0  0  0  0  0  0  0  0
   12.2543    9.2052   -4.1766 C   0  0  0  0  0  0  0  0  0  0  0  0
   11.8970    8.9806   -5.4963 C   0  0  0  0  0  0  0  0  0  0  0  0
   11.3877    7.7551   -5.8577 C   0  0  0  0  0  0  0  0  0  0  0  0
   11.2249    6.7551   -4.9517 C   0  0  0  0  0  0  0  0  0  0  0  0
   11.5876    6.9954   -3.6331 C   0  0  0  0  0  0  0  0  0  0  0  0
 34 35  2  0
 35 36  1  0
 36 37  2  0
 37 22  1  0
 22 23  1  0
 23 24  2  0
 24 25  1  0
 25 26  2  0
 26 27  1  0
 27 28  2  0
 28  1  1  0
  1  2  2  0
  2  3  1  0
  3  4  2  0
  4  5  1  0
  5  6  2  0
  5  7  1  0
  7  8  1  0
  8  9  2  0
  8 10  1  0
 10 11  1  0
 11 12  2  0
 11 13  1  0
 13 14  1  0
  7 15  1  6
 15 16  1  0
 16 17  2  0
 17 18  1  0
 18 19  2  0
 19 20  1  0
 20 21  2  0
 27 29  1  0
 29 30  1  0
 29 31  1  0
 31 32  2  0
 32 33  1  0
 37 38  1  0
 38 39  2  0
 39 34  1  0
 33 22  2  0
 32 25  1  0
  6  1  1  0
 14  7  1  0
 21 16  1  0
 21  4  1  0
M  CHG  1  10  -1
M  END
>  <minimizedAffinity>  (442) 
-17.01518

$$$$
Mol: 128_3 - SminaDock
     RDKit          3D

 39 45  0  0  0  0  0  0  0  0999 V2000
    9.9540   -1.0012  -16.4188 H   0  0  0  0  0  0  0  0  0  0  0  0
   10.3538   -0.4937  -15.6155 O   0  0  0  0  0  0  0  0  0  0  0  0
    9.9549    0.8304  -15.4490 C   0  0  0  0  0  0  0  0  0  0  0  0
   10.1463    1.7676  -16.3869 C   0  0  0  0  0  0  0  0  0  0  0  0
    9.6002    3.0772  -15.8480 C   0  0  0  0  0  0  0  0  0  0  0  0
    8.4922    2.5002  -14.9674 C   0  0  1  0  0  0  0  0  0  0  0  0
    7.9673    3.4123  -13.9748 C   0  0  0  0  0  0  0  0  0  0  0  0
    8.6794    4.5093  -13.5266 C   0  0  0  0  0  0  0  0  0  0  0  0
    8.2261    5.3326  -12.5027 C   0  0  0  0  0  0  0  0  0  0  0  0
    7.0252    5.0606  -11.9012 C   0  0  0  0  0  0  0  0  0  0  0  0
    6.3001    3.9591  -12.3476 C   0  0  0  0  0  0  0  0  0  0  0  0
    6.7495    3.1410  -13.3670 C   0  0  0  0  0  0  0  0  0  0  0  0
    5.9298    2.0503  -13.9142 C   0  0  0  0  0  0  0  0  0  0  0  0
    4.7727    1.7020  -13.2225 C   0  0  0  0  0  0  0  0  0  0  0  0
    4.0291    0.5947  -13.6548 C   0  0  0  0  0  0  0  0  0  0  0  0
    4.4456   -0.1320  -14.7491 C   0  0  0  0  0  0  0  0  0  0  0  0
    5.5853    0.2149  -15.4295 C   0  0  0  0  0  0  0  0  0  0  0  0
    6.3392    1.3252  -15.0068 C   0  0  0  0  0  0  0  0  0  0  0  0
    7.4956    1.7627  -15.7947 C   0  0  0  0  0  0  0  0  0  0  0  0
    9.3066    1.4242  -14.3303 N   0  0  0  0  0  0  0  0  0  0  0  0
    9.3975    1.1568  -13.3550 H   0  0  0  0  0  0  0  0  0  0  0  0
    9.0239    6.4325  -12.1116 N   0  0  0  0  0  0  0  0  0  0  0  0
    9.3868    6.5244  -10.8559 C   0  0  0  0  0  0  0  0  0  0  0  0
   10.1463    7.5501  -10.4276 N   0  0  0  0  0  0  0  0  0  0  0  0
   10.5302    7.6629   -9.1400 C   0  0  0  0  0  0  0  0  0  0  0  0
   11.3051    8.7027   -8.6849 C   0  0  0  0  0  0  0  0  0  0  0  0
   11.6734    8.7762   -7.3578 C   0  0  0  0  0  0  0  0  0  0  0  0
   11.2866    7.8222   -6.4363 C   0  0  0  0  0  0  0  0  0  0  0  0
   10.5079    6.7781   -6.8960 C   0  0  0  0  0  0  0  0  0  0  0  0
   10.1399    6.7050   -8.2228 C   0  0  0  0  0  0  0  0  0  0  0  0
    9.3689    5.6640   -8.6584 C   0  0  0  0  0  0  0  0  0  0  0  0
    9.0203    5.6048   -9.9418 N   0  0  0  0  0  0  0  0  0  0  0  0
    8.4202    4.7906  -10.2702 H   0  0  0  0  0  0  0  0  0  0  0  0
   11.6903    7.9187   -5.0228 C   0  0  0  0  0  0  0  0  0  0  0  0
   11.3321    6.9049   -4.1726 C   0  0  0  0  0  0  0  0  0  0  0  0
   11.6799    6.9385   -2.8414 C   0  0  0  0  0  0  0  0  0  0  0  0
   12.4000    8.0039   -2.3442 C   0  0  0  0  0  0  0  0  0  0  0  0
   12.7539    9.0150   -3.2060 C   0  0  0  0  0  0  0  0  0  0  0  0
   12.4050    8.9802   -4.5386 C   0  0  0  0  0  0  0  0  0  0  0  0
  1  2  1  0
  2  3  1  0
  3  4  2  0
  4  5  1  0
  6  5  1  6
  6  7  1  0
  7  8  2  0
  8  9  1  0
  9 22  1  0
 22 23  2  0
 23 24  1  0
 24 25  2  0
 25 26  1  0
 26 27  2  0
 27 28  1  0
 28 34  1  0
 34 35  2  0
 35 36  1  0
 36 37  2  0
 37 38  1  0
 38 39  2  0
 28 29  2  0
 29 30  1  0
 30 31  2  0
 31 32  1  0
 32 33  1  0
  9 10  2  0
 10 11  1  0
 11 12  2  0
 12 13  1  0
 13 14  2  0
 14 15  1  0
 15 16  2  0
 16 17  1  0
 17 18  2  0
 18 19  1  0
  6 20  1  0
 20 21  1  0
 20  3  1  0
 19  6  1  0
 12  7  1  0
 18 13  1  0
 32 23  1  0
 30 25  1  0
 39 34  1  0
M  END
>  <minimizedAffinity>  (443) 
-16.97604

$$$$
Mol: 129_4 - SminaDock
     RDKit          3D

 39 45  0  0  0  0  0  0  0  0999 V2000
    8.1201    5.0803  -12.6421 C   0  0  0  0  0  0  0  0  0  0  0  0
    6.7216    4.9640  -12.5895 C   0  0  0  0  0  0  0  0  0  0  0  0
    6.0768    3.8593  -13.1357 C   0  0  0  0  0  0  0  0  0  0  0  0
    6.8824    2.9304  -13.7044 C   0  0  0  0  0  0  0  0  0  0  0  0
    8.2673    3.0142  -13.7795 C   0  0  0  0  0  0  0  0  0  0  0  0
    8.8886    4.1082  -13.2356 C   0  0  0  0  0  0  0  0  0  0  0  0
    9.1860    2.1651  -14.4325 C   0  0  0  0  0  0  0  0  0  0  0  0
   10.3183    2.0782  -13.9964 O   0  0  0  0  0  0  0  0  0  0  0  0
    8.8440    1.4300  -15.5630 C   0  0  0  0  0  0  0  0  0  0  0  0
    9.9055    1.3278  -16.4270 C   0  0  0  0  0  0  0  0  0  0  0  0
    9.6999    0.7540  -17.6598 C   0  0  0  0  0  0  0  0  0  0  0  0
    8.4190    0.2961  -17.9934 C   0  0  0  0  0  0  0  0  0  0  0  0
    7.3554    0.4073  -17.1037 C   0  0  0  0  0  0  0  0  0  0  0  0
    6.2405    0.0063  -17.4399 O   0  0  0  0  0  0  0  0  0  0  0  0
    7.6127    0.9604  -15.9323 N   0  0  0  0  0  0  0  0  0  0  0  0
    6.5414    0.9121  -15.1263 C   0  0  0  0  0  0  0  0  0  0  0  0
    5.7767   -0.1896  -15.3545 C   0  0  0  0  0  0  0  0  0  0  0  0
    4.6370   -0.3847  -14.6026 C   0  0  0  0  0  0  0  0  0  0  0  0
    4.2736    0.5185  -13.6265 C   0  0  0  0  0  0  0  0  0  0  0  0
    5.0517    1.6350  -13.3879 C   0  0  0  0  0  0  0  0  0  0  0  0
    6.1707    1.8436  -14.1175 C   0  0  0  0  0  0  0  0  0  0  0  0
   11.1190    7.7812   -6.5111 C   0  0  0  0  0  0  0  0  0  0  0  0
   11.2944    8.8051   -7.4164 C   0  0  0  0  0  0  0  0  0  0  0  0
   10.8577    8.7055   -8.7380 C   0  0  0  0  0  0  0  0  0  0  0  0
   10.2230    7.5341   -9.1601 C   0  0  0  0  0  0  0  0  0  0  0  0
   10.0437    6.5082   -8.2650 C   0  0  0  0  0  0  0  0  0  0  0  0
    9.4120    5.3653   -8.7197 C   0  0  0  0  0  0  0  0  0  0  0  0
    8.9786    5.2347   -9.9860 N   0  0  0  0  0  0  0  0  0  0  0  0
    9.1674    6.2533  -10.8379 C   0  0  0  0  0  0  0  0  0  0  0  0
    8.7770    6.2073  -12.0814 N   0  0  0  0  0  0  0  0  0  0  0  0
    9.7841    7.3900  -10.4249 N   0  0  0  0  0  0  0  0  0  0  0  0
    9.9138    8.1584  -11.1104 H   0  0  0  0  0  0  0  0  0  0  0  0
   10.4888    6.6351   -6.9549 C   0  0  0  0  0  0  0  0  0  0  0  0
   12.4528    8.0760   -2.4713 C   0  0  0  0  0  0  0  0  0  0  0  0
   11.7785    6.9621   -2.9186 C   0  0  0  0  0  0  0  0  0  0  0  0
   11.3557    6.8744   -4.2080 C   0  0  0  0  0  0  0  0  0  0  0  0
   11.5807    7.8888   -5.1202 C   0  0  0  0  0  0  0  0  0  0  0  0
   12.2551    9.0121   -4.6881 C   0  0  0  0  0  0  0  0  0  0  0  0
   12.6838    9.1026   -3.3837 C   0  0  0  0  0  0  0  0  0  0  0  0
 34 35  2  0
 35 36  1  0
 36 37  2  0
 37 22  1  0
 22 23  2  0
 23 24  1  0
 24 25  2  0
 25 26  1  0
 26 27  1  0
 27 28  2  0
 28 29  1  0
 29 30  2  0
 30  1  1  0
  1  2  2  0
  2  3  1  0
  3  4  2  0
  4  5  1  0
  5  6  2  0
  5  7  1  0
  7  8  2  0
  7  9  1  0
  9 10  2  0
 10 11  1  0
 11 12  2  0
 12 13  1  0
 13 14  2  0
 13 15  1  0
 15 16  1  0
 16 17  2  0
 17 18  1  0
 18 19  2  0
 19 20  1  0
 20 21  2  0
 29 31  1  0
 31 32  1  0
 26 33  2  0
 37 38  1  0
 38 39  2  0
 39 34  1  0
 33 22  1  0
 31 25  1  0
  6  1  1  0
 15  9  1  0
 21 16  1  0
 21  4  1  0
M  END
>  <minimizedAffinity>  (444) 
-16.97502

$$$$
Mol: 55_52 - SminaDock
     RDKit          3D

 53 61  0  0  0  0  0  0  0  0999 V2000
   11.1675    6.6560  -12.5171 C   0  0  0  0  0  0  0  0  0  0  0  0
   10.9366    5.9985  -13.6949 C   0  0  0  0  0  0  0  0  0  0  0  0
    9.8224    5.2045  -13.7914 C   0  0  0  0  0  0  0  0  0  0  0  0
    8.9266    5.0442  -12.7423 C   0  0  0  0  0  0  0  0  0  0  0  0
    9.1910    5.7215  -11.5682 C   0  0  0  0  0  0  0  0  0  0  0  0
   10.2923    6.5300  -11.4193 C   0  0  0  0  0  0  0  0  0  0  0  0
   11.8697    6.1347  -14.7711 N   0  0  0  0  0  0  0  0  0  0  0  0
   12.0475    5.1656  -15.6121 C   0  0  0  0  0  0  0  0  0  0  0  0
   11.3843    4.0062  -15.5245 N   0  0  0  0  0  0  0  0  0  0  0  0
   11.6168    3.0560  -16.4469 C   0  0  0  0  0  0  0  0  0  0  0  0
   10.9374    1.8322  -16.3884 C   0  0  0  0  0  0  0  0  0  0  0  0
   11.1368    0.8349  -17.3087 C   0  0  0  0  0  0  0  0  0  0  0  0
   12.0486    1.0655  -18.3265 C   0  0  0  0  0  0  0  0  0  0  0  0
   12.7385    2.2523  -18.4217 C   0  0  0  0  0  0  0  0  0  0  0  0
   12.5128    3.2237  -17.4844 C   0  0  0  0  0  0  0  0  0  0  0  0
   13.1957    4.4403  -17.5585 C   0  0  0  0  0  0  0  0  0  0  0  0
   12.9222    5.3546  -16.6071 N   0  0  0  0  0  0  0  0  0  0  0  0
   13.4708    6.2600  -16.7047 H   0  0  0  0  0  0  0  0  0  0  0  0
    7.7608    4.1898  -12.8544 C   0  0  0  0  0  0  0  0  0  0  0  0
    6.6508    4.5002  -12.0831 C   0  0  0  0  0  0  0  0  0  0  0  0
    5.5120    3.7311  -12.1481 C   0  0  0  0  0  0  0  0  0  0  0  0
    5.5085    2.6408  -13.0049 C   0  0  0  0  0  0  0  0  0  0  0  0
    4.3685    1.8680  -13.0765 C   0  0  0  0  0  0  0  0  0  0  0  0
    4.3834    0.7783  -13.9484 C   0  0  0  0  0  0  0  0  0  0  0  0
    5.4673    0.4500  -14.7234 C   0  0  0  0  0  0  0  0  0  0  0  0
    6.6059    1.2226  -14.6498 C   0  0  0  0  0  0  0  0  0  0  0  0
    6.5988    2.3209  -13.7754 C   0  0  0  0  0  0  0  0  0  0  0  0
    7.7193    3.1083  -13.6869 C   0  0  0  0  0  0  0  0  0  0  0  0
    5.4621   -0.7013  -15.6353 C   0  0  0  0  0  0  0  0  0  0  0  0
    5.6307   -2.0059  -15.3779 N   0  0  0  0  0  0  0  0  0  0  0  0
    5.5368   -2.7044  -16.5080 N   0  0  0  0  0  0  0  0  0  0  0  0
    5.6348   -3.7406  -16.5431 H   0  0  0  0  0  0  0  0  0  0  0  0
    5.3026   -1.8800  -17.5568 C   0  0  0  0  0  0  0  0  0  0  0  0
    5.1286   -2.1362  -18.9066 C   0  0  0  0  0  0  0  0  0  0  0  0
    4.8930   -1.0767  -19.7625 C   0  0  0  0  0  0  0  0  0  0  0  0
    4.8419    0.1879  -19.2348 C   0  0  0  0  0  0  0  0  0  0  0  0
    5.0168    0.4389  -17.8821 C   0  0  0  0  0  0  0  0  0  0  0  0
    5.2558   -0.6206  -17.0049 C   0  0  0  0  0  0  0  0  0  0  0  0
   10.5950    7.2550  -10.1924 C   0  0  0  0  0  0  0  0  0  0  0  0
   10.5892    6.6307   -8.9989 N   0  0  0  0  0  0  0  0  0  0  0  0
   10.8528    7.3158   -7.8672 C   0  0  0  0  0  0  0  0  0  0  0  0
   10.8391    6.6432   -6.6357 C   0  0  0  0  0  0  0  0  0  0  0  0
   11.1018    7.3280   -5.4798 C   0  0  0  0  0  0  0  0  0  0  0  0
   11.3829    8.6665   -5.4663 C   0  0  0  0  0  0  0  0  0  0  0  0
   11.4016    9.3485   -6.6831 C   0  0  0  0  0  0  0  0  0  0  0  0
   11.1362    8.6537   -7.8529 C   0  0  0  0  0  0  0  0  0  0  0  0
   11.1515    9.3347   -9.0711 C   0  0  0  0  0  0  0  0  0  0  0  0
   10.8772    8.5966  -10.2026 C   0  0  0  0  0  0  0  0  0  0  0  0
   11.6610    9.4161   -4.2562 C   0  0  0  0  0  0  0  0  0  0  0  0
   10.8972   10.3326   -3.8653 O   0  0  0  0  0  0  0  0  0  0  0  0
   12.8355    9.0696   -3.5253 N   0  0  0  0  0  0  0  0  0  0  0  0
   13.6989    8.7710   -4.0256 H   0  0  0  0  0  0  0  0  0  0  0  0
   12.8848    9.0971   -2.4817 H   0  0  0  0  0  0  0  0  0  0  0  0
  1  2  2  0
  2  7  1  0
  7  8  2  0
  8  9  1  0
  9 10  2  0
 10 11  1  0
 11 12  2  0
 12 13  1  0
 13 14  2  0
 14 15  1  0
 15 16  2  0
 16 17  1  0
 17 18  1  0
  2  3  1  0
  3  4  2  0
  4 19  1  0
 19 20  2  0
 20 21  1  0
 21 22  2  0
 22 23  1  0
 23 24  2  0
 24 25  1  0
 25 29  1  0
 29 30  2  0
 30 31  1  0
 31 32  1  0
 31 33  1  0
 33 34  2  0
 34 35  1  0
 35 36  2  0
 36 37  1  0
 37 38  2  0
 25 26  2  0
 26 27  1  0
 27 28  2  0
  4  5  1  0
  5  6  2  0
  6 39  1  0
 39 40  2  0
 40 41  1  0
 41 42  2  0
 42 43  1  0
 43 44  2  0
 44 49  1  0
 49 50  2  0
 49 51  1  0
 51 52  1  0
 51 53  1  0
 44 45  1  0
 45 46  2  0
 46 47  1  0
 47 48  2  0
  6  1  1  0
 48 39  1  0
 17  8  1  0
 28 19  1  0
 46 41  1  0
 15 10  1  0
 27 22  1  0
 38 29  1  0
 38 33  1  0
M  END
>  <minimizedAffinity>  (445) 
-16.99934

$$$$
Mol: 148_33 - SminaDock
     RDKit          3D

 37 43  0  0  0  0  0  0  0  0999 V2000
   11.2203    7.9384   -6.0096 C   0  0  0  0  0  0  0  0  0  0  0  0
   11.3918    9.0978   -6.7778 C   0  0  0  0  0  0  0  0  0  0  0  0
   11.0426    9.1229   -8.1125 C   0  0  0  0  0  0  0  0  0  0  0  0
   10.5130    8.0272   -8.7584 C   0  0  0  0  0  0  0  0  0  0  0  0
   10.3393    6.8808   -8.0138 C   0  0  0  0  0  0  0  0  0  0  0  0
    9.8091    5.7855   -8.6631 C   0  0  0  0  0  0  0  0  0  0  0  0
    9.4757    5.8360   -9.9702 N   0  0  0  0  0  0  0  0  0  0  0  0
    9.6471    6.9574  -10.6929 C   0  0  0  0  0  0  0  0  0  0  0  0
    9.3418    7.0436  -11.9389 N   0  0  0  0  0  0  0  0  0  0  0  0
   10.1681    8.0361  -10.0575 N   0  0  0  0  0  0  0  0  0  0  0  0
   10.3159    8.9240  -10.5847 H   0  0  0  0  0  0  0  0  0  0  0  0
   10.6899    6.8560   -6.6743 C   0  0  0  0  0  0  0  0  0  0  0  0
    8.7975    5.8767  -12.5557 C   0  0  0  0  0  0  0  0  0  0  0  0
    9.4736    5.2008  -13.5399 C   0  0  0  0  0  0  0  0  0  0  0  0
    8.8905    4.0723  -14.1003 C   0  0  0  0  0  0  0  0  0  0  0  0
    7.6411    3.6250  -13.6782 C   0  0  0  0  0  0  0  0  0  0  0  0
    6.9573    4.2788  -12.7076 C   0  0  0  0  0  0  0  0  0  0  0  0
    7.5838    5.4234  -12.1612 C   0  0  0  0  0  0  0  0  0  0  0  0
    5.6492    3.9122  -12.1939 C   0  0  0  0  0  0  0  0  0  0  0  0
    5.0425    2.7103  -12.7399 C   0  0  0  0  0  0  0  0  0  0  0  0
    5.8084    2.0413  -13.7962 C   0  0  0  0  0  0  0  0  0  0  0  0
    7.0401    2.4205  -14.2765 C   0  0  0  0  0  0  0  0  0  0  0  0
    7.6911    1.7361  -15.2612 C   0  0  0  0  0  0  0  0  0  0  0  0
    7.0946    0.6149  -15.8035 C   0  0  0  0  0  0  0  0  0  0  0  0
    5.8641    0.1963  -15.3570 C   0  0  0  0  0  0  0  0  0  0  0  0
    5.2779   -0.9398  -15.9179 C   0  0  0  0  0  0  0  0  0  0  0  0
    4.0475   -1.3245  -15.4428 C   0  0  0  0  0  0  0  0  0  0  0  0
    3.3992   -0.6319  -14.4528 C   0  0  0  0  0  0  0  0  0  0  0  0
    3.9894    0.4978  -13.8998 C   0  0  0  0  0  0  0  0  0  0  0  0
    5.2280    0.9060  -14.3607 C   0  0  0  0  0  0  0  0  0  0  0  0
   12.2954    6.7082   -2.6346 C   0  0  0  0  0  0  0  0  0  0  0  0
   12.3211    7.8721   -1.8752 C   0  0  0  0  0  0  0  0  0  0  0  0
   11.9810    9.0389   -2.4869 C   0  0  0  0  0  0  0  0  0  0  0  0
   11.6130    9.0841   -3.8418 C   0  0  0  0  0  0  0  0  0  0  0  0
   11.2371   10.3702   -4.4763 C   0  0  0  0  0  0  0  0  0  0  0  0
   11.5847    7.9413   -4.6001 C   0  0  0  0  0  0  0  0  0  0  0  0
   11.9327    6.7699   -3.9612 C   0  0  0  0  0  0  0  0  0  0  0  0
 31 32  2  0
 32 33  1  0
 33 34  2  0
 34 35  1  0
 34 36  1  0
 36  1  1  0
  1  2  2  0
  2  3  1  0
  3  4  2  0
  4  5  1  0
  5  6  1  0
  6  7  2  0
  7  8  1  0
  8  9  2  0
  9 13  1  0
 13 14  2  0
 14 15  1  0
 15 16  2  0
 16 17  1  0
 17 18  2  0
 17 19  1  0
 19 20  1  0
 20 21  1  0
 21 22  2  0
 22 23  1  0
 23 24  2  0
 24 25  1  0
 25 26  2  0
 26 27  1  0
 27 28  2  0
 28 29  1  0
 29 30  2  0
  8 10  1  0
 10 11  1  0
  5 12  2  0
 36 37  2  0
 37 31  1  0
 12  1  1  0
 10  4  1  0
 18 13  1  0
 30 21  1  0
 22 16  1  0
 30 25  1  0
M  END
>  <minimizedAffinity>  (446) 
-17.04201

$$$$
Mol: 148_47 - SminaDock
     RDKit          3D

 38 44  0  0  0  0  0  0  0  0999 V2000
    1.8973   -0.7569  -13.5161 H   0  0  0  0  0  0  0  0  0  0  0  0
    2.3151   -1.1606  -14.3454 O   0  0  0  0  0  0  0  0  0  0  0  0
    3.5051   -0.6000  -14.7874 C   0  0  0  0  0  0  0  0  0  0  0  0
    4.1251    0.4156  -14.1898 N   0  0  0  0  0  0  0  0  0  0  0  0
    5.2723    0.9579  -14.6138 C   0  0  0  0  0  0  0  0  0  0  0  0
    5.8869    2.0295  -13.9468 C   0  0  0  0  0  0  0  0  0  0  0  0
    7.0612    2.5404  -14.4308 C   0  0  0  0  0  0  0  0  0  0  0  0
    7.6742    2.0380  -15.5637 C   0  0  0  0  0  0  0  0  0  0  0  0
    7.0566    0.9777  -16.2152 C   0  0  0  0  0  0  0  0  0  0  0  0
    5.8812    0.4559  -15.7427 C   0  0  0  0  0  0  0  0  0  0  0  0
    5.2839   -0.6081  -16.4163 C   0  0  0  0  0  0  0  0  0  0  0  0
    4.0939   -1.1285  -15.9284 C   0  0  0  0  0  0  0  0  0  0  0  0
    7.7052    3.6632  -13.7331 C   0  0  0  0  0  0  0  0  0  0  0  0
    8.8862    4.2268  -14.1580 C   0  0  0  0  0  0  0  0  0  0  0  0
    9.4625    5.2905  -13.4615 C   0  0  0  0  0  0  0  0  0  0  0  0
    8.8539    5.7750  -12.3547 C   0  0  0  0  0  0  0  0  0  0  0  0
    7.6760    5.2229  -11.9200 C   0  0  0  0  0  0  0  0  0  0  0  0
    7.0802    4.1517  -12.6072 C   0  0  0  0  0  0  0  0  0  0  0  0
    5.8129    3.6487  -12.0374 C   0  0  0  0  0  0  0  0  0  0  0  0
    5.1823    2.5178  -12.7453 C   0  0  0  0  0  0  0  0  0  0  0  0
    9.4261    6.8510  -11.6398 N   0  0  0  0  0  0  0  0  0  0  0  0
    9.7392    6.8255  -10.4014 C   0  0  0  0  0  0  0  0  0  0  0  0
   10.2862    7.9357   -9.8312 N   0  0  0  0  0  0  0  0  0  0  0  0
   10.6414    7.9876   -8.5380 C   0  0  0  0  0  0  0  0  0  0  0  0
   11.1962    9.1077   -7.9558 C   0  0  0  0  0  0  0  0  0  0  0  0
   11.5557    9.1286   -6.6075 C   0  0  0  0  0  0  0  0  0  0  0  0
   11.3559    8.0083   -5.8298 C   0  0  0  0  0  0  0  0  0  0  0  0
   10.8006    6.8902   -6.4164 C   0  0  0  0  0  0  0  0  0  0  0  0
   10.4434    6.8740   -7.7620 C   0  0  0  0  0  0  0  0  0  0  0  0
    9.8895    5.7700   -8.3669 C   0  0  0  0  0  0  0  0  0  0  0  0
    9.5346    5.7201   -9.6624 N   0  0  0  0  0  0  0  0  0  0  0  0
    9.1127    4.8527  -10.0898 H   0  0  0  0  0  0  0  0  0  0  0  0
   11.7404    8.0509   -4.4244 C   0  0  0  0  0  0  0  0  0  0  0  0
   12.1091    9.2277   -3.7922 C   0  0  0  0  0  0  0  0  0  0  0  0
   12.4716    9.2432   -2.4500 C   0  0  0  0  0  0  0  0  0  0  0  0
   12.4762    8.0868   -1.7033 C   0  0  0  0  0  0  0  0  0  0  0  0
   12.1063    6.8908   -2.3281 C   0  0  0  0  0  0  0  0  0  0  0  0
   11.7483    6.8987   -3.6677 C   0  0  0  0  0  0  0  0  0  0  0  0
  1  2  1  0
  2  3  1  0
  3  4  2  0
  4  5  1  0
  5  6  2  0
  6  7  1  0
  7  8  2  0
  8  9  1  0
  9 10  2  0
 10 11  1  0
 11 12  2  0
  7 13  1  0
 13 14  2  0
 14 15  1  0
 15 16  2  0
 16 21  1  0
 21 22  2  0
 22 23  1  0
 23 24  2  0
 24 25  1  0
 25 26  2  0
 26 27  1  0
 27 33  1  0
 33 34  2  0
 34 35  1  0
 35 36  2  0
 36 37  1  0
 37 38  2  0
 27 28  2  0
 28 29  1  0
 29 30  2  0
 30 31  1  0
 31 32  1  0
 16 17  1  0
 17 18  2  0
 18 19  1  0
 19 20  1  0
 12  3  1  0
 18 13  1  0
 10  5  1  0
 31 22  1  0
 20  6  1  0
 29 24  1  0
 38 33  1  0
M  END
>  <minimizedAffinity>  (447) 
-17.02379

$$$$
Mol: 133_4 - SminaDock
     RDKit          3D

 41 48  0  0  0  0  0  0  0  0999 V2000
    8.8233    5.8250  -12.3435 C   0  0  0  0  0  0  0  0  0  0  0  0
    7.4955    5.5251  -12.1250 C   0  0  0  0  0  0  0  0  0  0  0  0
    6.9537    4.3846  -12.6640 C   0  0  0  0  0  0  0  0  0  0  0  0
    7.8059    3.5777  -13.4219 C   0  0  0  0  0  0  0  0  0  0  0  0
    9.1199    3.8631  -13.6520 C   0  0  0  0  0  0  0  0  0  0  0  0
    9.6497    5.0272  -13.0909 C   0  0  0  0  0  0  0  0  0  0  0  0
    9.9232    3.0392  -14.5654 C   0  0  2  0  0  0  0  0  0  0  0  0
   11.3127    3.2775  -14.4174 O   0  0  0  0  0  0  0  0  0  0  0  0
   11.7555    4.3002  -15.2285 C   0  0  0  0  0  0  0  0  0  0  0  0
   12.9307    4.7232  -15.2932 O   0  0  0  0  0  0  0  0  0  0  0  0
   10.5965    4.8002  -16.0003 C   0  0  0  0  0  0  0  0  0  0  0  0
    9.6755    3.6132  -15.9773 C   0  0  0  0  0  0  0  0  0  0  0  0
    9.5867    1.5999  -14.5297 C   0  0  0  0  0  0  0  0  0  0  0  0
    8.1203    1.3839  -14.4785 C   0  0  0  0  0  0  0  0  0  0  0  0
    7.2706    2.2751  -13.8643 C   0  0  0  0  0  0  0  0  0  0  0  0
    5.9543    2.0554  -13.7263 N   0  0  0  0  0  0  0  0  0  0  0  0
    5.4543    0.9088  -14.2178 C   0  0  0  0  0  0  0  0  0  0  0  0
    4.0914    0.6226  -14.1050 C   0  0  0  0  0  0  0  0  0  0  0  0
    3.5271   -0.5356  -14.5906 C   0  0  0  0  0  0  0  0  0  0  0  0
    4.3142   -1.4752  -15.2217 C   0  0  0  0  0  0  0  0  0  0  0  0
    5.6578   -1.2158  -15.3445 C   0  0  0  0  0  0  0  0  0  0  0  0
    6.2319   -0.0370  -14.8500 C   0  0  0  0  0  0  0  0  0  0  0  0
    7.5808    0.1969  -14.9854 C   0  0  0  0  0  0  0  0  0  0  0  0
   11.2395    8.0258   -5.8982 C   0  0  0  0  0  0  0  0  0  0  0  0
   11.3755    9.1810   -6.6484 C   0  0  0  0  0  0  0  0  0  0  0  0
   11.0146    9.1838   -7.9727 C   0  0  0  0  0  0  0  0  0  0  0  0
   10.5138    8.0738   -8.6055 C   0  0  0  0  0  0  0  0  0  0  0  0
   10.3852    6.9354   -7.8457 C   0  0  0  0  0  0  0  0  0  0  0  0
    9.8832    5.8182   -8.4745 C   0  0  0  0  0  0  0  0  0  0  0  0
    9.5424    5.8676   -9.7737 N   0  0  0  0  0  0  0  0  0  0  0  0
    9.6742    6.9889  -10.5021 C   0  0  0  0  0  0  0  0  0  0  0  0
    9.3370    7.0148  -11.7577 N   0  0  0  0  0  0  0  0  0  0  0  0
   10.1662    8.0963   -9.8996 N   0  0  0  0  0  0  0  0  0  0  0  0
   10.2759    8.9875  -10.4598 H   0  0  0  0  0  0  0  0  0  0  0  0
   10.7442    6.9038   -6.4981 C   0  0  0  0  0  0  0  0  0  0  0  0
   12.2742    9.3518   -2.6266 C   0  0  0  0  0  0  0  0  0  0  0  0
   11.9109    9.2416   -3.9086 N   0  0  0  0  0  0  0  0  0  0  0  0
   11.6315    8.0456   -4.4839 C   0  0  0  0  0  0  0  0  0  0  0  0
   11.7294    6.9259   -3.7134 C   0  0  0  0  0  0  0  0  0  0  0  0
   12.1066    7.0002   -2.3679 C   0  0  0  0  0  0  0  0  0  0  0  0
   12.3812    8.2354   -1.8249 C   0  0  0  0  0  0  0  0  0  0  0  0
 36 37  2  0
 37 38  1  0
 38 24  1  0
 24 25  2  0
 25 26  1  0
 26 27  2  0
 27 28  1  0
 28 29  1  0
 29 30  2  0
 30 31  1  0
 31 32  2  0
 32  1  1  0
  1  2  2  0
  2  3  1  0
  3  4  2  0
  4  5  1  0
  5  6  2  0
  5  7  1  0
  7  8  1  0
  8  9  1  0
  9 10  2  0
  9 11  1  0
 11 12  1  0
  7 13  1  6
 13 14  1  0
 14 15  2  0
 15 16  1  0
 16 17  2  0
 17 18  1  0
 18 19  2  0
 19 20  1  0
 20 21  2  0
 21 22  1  0
 22 23  2  0
 31 33  1  0
 33 34  1  0
 28 35  2  0
 38 39  2  0
 39 40  1  0
 40 41  2  0
 41 36  1  0
 35 24  1  0
 33 27  1  0
  6  1  1  0
 12  7  1  0
 23 14  1  0
 15  4  1  0
 22 17  1  0
M  END
>  <minimizedAffinity>  (448) 
-16.99769

$$$$
Mol: 131_44 - SminaDock
     RDKit          3D

 52 60  0  0  0  0  0  0  0  0999 V2000
    5.3317   -2.9294  -17.7022 C   0  0  0  0  0  0  0  0  0  0  0  0
    5.5414   -2.1061  -16.6682 N   0  0  0  0  0  0  0  0  0  0  0  0
    6.3893   -1.0351  -16.7971 C   0  0  0  0  0  0  0  0  0  0  0  0
    7.0588   -0.7440  -17.9564 C   0  0  0  0  0  0  0  0  0  0  0  0
    6.8355   -1.6114  -19.0398 C   0  0  0  0  0  0  0  0  0  0  0  0
    5.9826   -2.6782  -18.8906 C   0  0  0  0  0  0  0  0  0  0  0  0
    7.9672    0.3232  -18.2899 C   0  0  0  0  0  0  0  0  0  0  0  0
    8.7807    1.0375  -17.3084 C   0  0  1  0  0  0  0  0  0  0  0  0
    9.8843    0.1441  -16.8911 C   0  0  0  0  0  0  0  0  0  0  0  0
    9.5264   -0.8260  -16.1412 O   0  0  0  0  0  0  0  0  0  0  0  0
   11.2010    0.3485  -17.2843 N   0  0  0  0  0  0  0  0  0  0  0  0
   11.9156   -0.3825  -17.0143 H   0  0  0  0  0  0  0  0  0  0  0  0
   11.6003    1.4732  -18.0150 C   0  0  0  0  0  0  0  0  0  0  0  0
   12.8122    1.5922  -18.3359 O   0  0  0  0  0  0  0  0  0  0  0  0
   10.6439    2.4481  -18.3783 N   0  0  0  0  0  0  0  0  0  0  0  0
   11.0003    3.2667  -18.9235 H   0  0  0  0  0  0  0  0  0  0  0  0
    9.2971    2.2805  -18.0021 C   0  0  0  0  0  0  0  0  0  0  0  0
    8.4677    3.1841  -18.2410 O   0  0  0  0  0  0  0  0  0  0  0  0
    8.1624    1.5143  -16.0696 C   0  0  0  0  0  0  0  0  0  0  0  0
    8.7309    2.7240  -15.6584 C   0  0  0  0  0  0  0  0  0  0  0  0
    8.3170    3.3880  -14.5212 C   0  0  0  0  0  0  0  0  0  0  0  0
    7.3071    2.8348  -13.7669 C   0  0  0  0  0  0  0  0  0  0  0  0
    6.7138    1.6282  -14.1410 C   0  0  0  0  0  0  0  0  0  0  0  0
    7.1515    0.9925  -15.2814 C   0  0  0  0  0  0  0  0  0  0  0  0
    6.4680   -0.2619  -15.5633 C   0  0  0  0  0  0  0  0  0  0  0  0
    5.8392   -0.7614  -14.5669 O   0  0  0  0  0  0  0  0  0  0  0  0
    7.0883    3.7428  -12.6527 C   0  0  0  0  0  0  0  0  0  0  0  0
    6.2359    3.5614  -11.7521 O   0  0  0  0  0  0  0  0  0  0  0  0
    8.0064    4.8712  -12.7596 C   0  0  0  0  0  0  0  0  0  0  0  0
    8.2444    6.0048  -12.0042 C   0  0  0  0  0  0  0  0  0  0  0  0
    9.2143    6.9096  -12.3799 C   0  0  0  0  0  0  0  0  0  0  0  0
    9.9848    6.7131  -13.5285 C   0  0  0  0  0  0  0  0  0  0  0  0
    9.7271    5.5815  -14.2564 C   0  0  0  0  0  0  0  0  0  0  0  0
    8.7666    4.6598  -13.9084 C   0  0  0  0  0  0  0  0  0  0  0  0
    9.4910    8.0900  -11.6142 N   0  0  0  0  0  0  0  0  0  0  0  0
    9.8690    7.9025  -10.3936 C   0  0  0  0  0  0  0  0  0  0  0  0
    9.9973    6.6719   -9.8647 N   0  0  0  0  0  0  0  0  0  0  0  0
   10.3762    6.4393   -8.6193 N   0  0  0  0  0  0  0  0  0  0  0  0
   10.6617    7.4758   -7.7940 C   0  0  0  0  0  0  0  0  0  0  0  0
   11.0581    7.2773   -6.4889 C   0  0  0  0  0  0  0  0  0  0  0  0
   11.3490    8.3289   -5.6411 C   0  0  0  0  0  0  0  0  0  0  0  0
   11.2261    9.6056   -6.1568 C   0  0  0  0  0  0  0  0  0  0  0  0
   10.8282    9.8037   -7.4655 C   0  0  0  0  0  0  0  0  0  0  0  0
   10.5369    8.7448   -8.3151 C   0  0  0  0  0  0  0  0  0  0  0  0
   10.1456    8.9518   -9.5974 N   0  0  0  0  0  0  0  0  0  0  0  0
   10.0808    9.9358   -9.9044 H   0  0  0  0  0  0  0  0  0  0  0  0
   11.7657    8.0806   -4.2638 C   0  0  0  0  0  0  0  0  0  0  0  0
   11.8048    6.8222   -3.7007 C   0  0  0  0  0  0  0  0  0  0  0  0
   12.2031    6.6167   -2.3879 C   0  0  0  0  0  0  0  0  0  0  0  0
   12.5792    7.6819   -1.5898 C   0  0  0  0  0  0  0  0  0  0  0  0
   12.5405    8.9358   -2.1496 C   0  0  0  0  0  0  0  0  0  0  0  0
   12.1441    9.1408   -3.4574 C   0  0  0  0  0  0  0  0  0  0  0  0
  1  2  2  0
  2  3  1  0
  3  4  2  0
  4  5  1  0
  5  6  2  0
  4  7  1  0
  8  7  1  6
  8  9  1  0
  9 10  2  0
  9 11  1  0
 11 12  1  0
 11 13  1  0
 13 14  2  0
 13 15  1  0
 15 16  1  0
 15 17  1  0
 17 18  2  0
  8 19  1  0
 19 20  2  0
 20 21  1  0
 21 22  2  0
 22 23  1  0
 23 24  2  0
 24 25  1  0
 25 26  2  0
 22 27  1  0
 27 28  2  0
 27 29  1  0
 29 30  2  0
 30 31  1  0
 31 35  1  0
 35 36  2  0
 36 37  1  0
 37 38  2  0
 38 39  1  0
 39 40  2  0
 40 41  1  0
 41 47  1  0
 47 48  2  0
 48 49  1  0
 49 50  2  0
 50 51  1  0
 51 52  2  0
 41 42  2  0
 42 43  1  0
 43 44  2  0
 44 45  1  0
 45 46  1  0
 31 32  2  0
 32 33  1  0
 33 34  2  0
  6  1  1  0
 17  8  1  0
 24 19  1  0
 34 29  1  0
 25  3  1  0
 45 36  1  0
 34 21  1  0
 44 39  1  0
 52 47  1  0
M  END
>  <minimizedAffinity>  (449) 
-17.01334

$$$$
Mol: 156_35 - SminaDock
     RDKit          3D

 39 45  0  0  0  0  0  0  0  0999 V2000
    8.7581    5.9899  -12.4986 C   0  0  0  0  0  0  0  0  0  0  0  0
    9.3136    5.3996  -13.5987 C   0  0  0  0  0  0  0  0  0  0  0  0
    8.7516    4.3015  -14.2187 C   0  0  0  0  0  0  0  0  0  0  0  0
    7.5829    3.7750  -13.7119 C   0  0  0  0  0  0  0  0  0  0  0  0
    7.0090    4.3746  -12.5911 C   0  0  0  0  0  0  0  0  0  0  0  0
    7.6068    5.4884  -11.9845 C   0  0  0  0  0  0  0  0  0  0  0  0
    5.7268    3.9161  -12.0693 C   0  0  0  0  0  0  0  0  0  0  0  0
    5.3932    2.5225  -12.4036 C   0  0  0  0  0  0  0  0  0  0  0  0
    5.8991    2.0283  -13.6736 C   0  0  0  0  0  0  0  0  0  0  0  0
    5.3065    0.9084  -14.3021 C   0  0  0  0  0  0  0  0  0  0  0  0
    5.8168    0.3798  -15.4627 C   0  0  0  0  0  0  0  0  0  0  0  0
    6.9315    0.9361  -16.0476 C   0  0  0  0  0  0  0  0  0  0  0  0
    7.5316    2.0492  -15.4382 C   0  0  0  0  0  0  0  0  0  0  0  0
    7.0095    2.5647  -14.2821 C   0  0  0  0  0  0  0  0  0  0  0  0
    7.6579    0.5489  -17.2806 C   0  0  0  0  0  0  0  0  0  0  0  0
    7.4325   -0.9140  -17.5845 C   0  0  0  0  0  0  0  0  0  0  0  0
    6.1504   -1.2048  -18.1465 N   0  0  0  0  0  0  0  0  0  0  0  0
    5.7172   -0.1929  -19.0991 C   0  0  0  0  0  0  0  0  0  0  0  0
    5.1589   -1.4710  -17.1884 N   0  0  0  0  0  0  0  0  0  0  0  0
    5.0498   -0.7664  -15.9316 C   0  0  0  0  0  0  0  0  0  0  0  0
    4.1762   -1.2019  -15.1383 O   0  0  0  0  0  0  0  0  0  0  0  0
   11.3238    7.9856   -5.9992 C   0  0  0  0  0  0  0  0  0  0  0  0
   11.5850    9.1000   -6.7689 C   0  0  0  0  0  0  0  0  0  0  0  0
   11.2392    9.1282   -8.1109 C   0  0  0  0  0  0  0  0  0  0  0  0
   10.6282    8.0644   -8.7333 C   0  0  0  0  0  0  0  0  0  0  0  0
   10.3616    6.9441   -7.9747 C   0  0  0  0  0  0  0  0  0  0  0  0
    9.7525    5.8889   -8.6046 C   0  0  0  0  0  0  0  0  0  0  0  0
    9.4269    5.9433   -9.9125 N   0  0  0  0  0  0  0  0  0  0  0  0
    9.6861    7.0353  -10.6541 C   0  0  0  0  0  0  0  0  0  0  0  0
    9.3803    7.1054  -11.9131 N   0  0  0  0  0  0  0  0  0  0  0  0
   10.2848    8.0714  -10.0339 N   0  0  0  0  0  0  0  0  0  0  0  0
   10.5079    8.9518  -10.5789 H   0  0  0  0  0  0  0  0  0  0  0  0
   10.7092    6.9205   -6.6336 C   0  0  0  0  0  0  0  0  0  0  0  0
   12.3947    7.9616   -1.8625 C   0  0  0  0  0  0  0  0  0  0  0  0
   12.3820    9.1230   -2.6052 C   0  0  0  0  0  0  0  0  0  0  0  0
   12.0362    9.1331   -3.9416 C   0  0  0  0  0  0  0  0  0  0  0  0
   11.6843    7.9481   -4.5876 C   0  0  0  0  0  0  0  0  0  0  0  0
   11.7079    6.8092   -3.8166 C   0  0  0  0  0  0  0  0  0  0  0  0
   12.0498    6.7805   -2.4844 C   0  0  0  0  0  0  0  0  0  0  0  0
 34 35  2  0
 35 36  1  0
 36 37  2  0
 37 22  1  0
 22 23  2  0
 23 24  1  0
 24 25  2  0
 25 26  1  0
 26 27  1  0
 27 28  2  0
 28 29  1  0
 29 30  2  0
 30  1  1  0
  1  2  2  0
  2  3  1  0
  3  4  2  0
  4  5  1  0
  5  6  2  0
  5  7  1  0
  7  8  1  0
  8  9  1  0
  9 10  2  0
 10 11  1  0
 11 12  2  0
 12 13  1  0
 13 14  2  0
 12 15  1  0
 15 16  1  0
 16 17  1  0
 17 18  1  0
 17 19  1  0
 19 20  1  0
 20 21  2  0
 29 31  1  0
 31 32  1  0
 26 33  2  0
 37 38  1  0
 38 39  2  0
 39 34  1  0
 33 22  1  0
 31 25  1  0
  6  1  1  0
 14  9  1  0
 14  4  1  0
 20 11  1  0
M  CHG  1  19  -1
M  END
>  <minimizedAffinity>  (450) 
-16.97315

$$$$
Mol: 183_35 - SminaDock
     RDKit          3D

 43 50  0  0  0  0  0  0  0  0999 V2000
    9.1088    6.0208  -12.6281 C   0  0  0  0  0  0  0  0  0  0  0  0
    9.8450    5.6188  -13.7202 C   0  0  0  0  0  0  0  0  0  0  0  0
    9.4888    4.4997  -14.4283 C   0  0  0  0  0  0  0  0  0  0  0  0
    8.3780    3.7502  -14.0575 C   0  0  0  0  0  0  0  0  0  0  0  0
    7.6284    4.1228  -12.9850 C   0  0  0  0  0  0  0  0  0  0  0  0
    8.0109    5.2743  -12.2689 C   0  0  0  0  0  0  0  0  0  0  0  0
    6.4078    3.4317  -12.6047 C   0  0  0  0  0  0  0  0  0  0  0  0
    5.7061    3.7551  -11.6143 O   0  0  0  0  0  0  0  0  0  0  0  0
    6.0353    2.3047  -13.4694 C   0  0  0  0  0  0  0  0  0  0  0  0
    6.7849    1.9369  -14.5448 C   0  0  0  0  0  0  0  0  0  0  0  0
    6.3264    0.9300  -15.4344 C   0  0  0  0  0  0  0  0  0  0  0  0
    5.1180    0.3456  -15.1672 C   0  0  0  0  0  0  0  0  0  0  0  0
    4.4426   -0.6588  -15.8683 C   0  0  0  0  0  0  0  0  0  0  0  0
    3.2686   -0.8780  -15.1683 C   0  0  0  0  0  0  0  0  0  0  0  0
    3.2507   -0.0467  -14.1088 N   0  0  0  0  0  0  0  0  0  0  0  0
    2.4571   -0.0262  -13.4235 H   0  0  0  0  0  0  0  0  0  0  0  0
    4.3527    0.7024  -14.0831 C   0  0  0  0  0  0  0  0  0  0  0  0
    4.8068    1.6735  -13.2416 C   0  0  0  0  0  0  0  0  0  0  0  0
    8.1100    2.4907  -14.8007 C   0  0  1  0  0  0  0  0  0  0  0  0
    8.4107    2.6488  -16.2585 C   0  0  0  0  0  0  0  0  0  0  0  0
    9.5214    1.8099  -16.7532 C   0  0  0  0  0  0  0  0  0  0  0  0
    9.5725    0.4635  -16.2916 N   0  0  0  0  0  0  0  0  0  0  0  0
    9.1294   -0.2264  -16.9368 H   0  0  0  0  0  0  0  0  0  0  0  0
    9.2468    0.2691  -14.9180 C   0  0  0  0  0  0  0  0  0  0  0  0
    9.1743    1.5531  -14.2012 C   0  0  0  0  0  0  0  0  0  0  0  0
   11.2061    8.0906   -6.0305 C   0  0  0  0  0  0  0  0  0  0  0  0
   11.2812    9.2745   -6.7559 C   0  0  0  0  0  0  0  0  0  0  0  0
   10.9558    9.3174   -8.0914 C   0  0  0  0  0  0  0  0  0  0  0  0
   10.5453    8.1560   -8.7239 C   0  0  0  0  0  0  0  0  0  0  0  0
   10.4558    6.9625   -8.0477 C   0  0  0  0  0  0  0  0  0  0  0  0
   10.0468    5.8290   -8.7002 C   0  0  0  0  0  0  0  0  0  0  0  0
    9.7404    5.9237  -10.0066 N   0  0  0  0  0  0  0  0  0  0  0  0
    9.8200    7.0771  -10.6880 C   0  0  0  0  0  0  0  0  0  0  0  0
    9.5326    7.1882  -11.9389 N   0  0  0  0  0  0  0  0  0  0  0  0
   10.2213    8.1796  -10.0395 N   0  0  0  0  0  0  0  0  0  0  0  0
   10.3011    9.1157  -10.5314 H   0  0  0  0  0  0  0  0  0  0  0  0
   10.7933    6.9544   -6.6941 C   0  0  0  0  0  0  0  0  0  0  0  0
   12.2012    8.1221   -1.9656 C   0  0  0  0  0  0  0  0  0  0  0  0
   12.0780    9.2618   -2.6411 N   0  0  0  0  0  0  0  0  0  0  0  0
   11.7582    9.2199   -3.9430 C   0  0  0  0  0  0  0  0  0  0  0  0
   11.5501    8.0378   -4.6155 C   0  0  0  0  0  0  0  0  0  0  0  0
   11.6747    6.8524   -3.9272 C   0  0  0  0  0  0  0  0  0  0  0  0
   12.0042    6.9209   -2.5894 C   0  0  0  0  0  0  0  0  0  0  0  0
 38 39  2  0
 39 40  1  0
 40 41  2  0
 41 26  1  0
 26 27  2  0
 27 28  1  0
 28 29  2  0
 29 30  1  0
 30 31  1  0
 31 32  2  0
 32 33  1  0
 33 34  2  0
 34  1  1  0
  1  2  2  0
  2  3  1  0
  3  4  2  0
  4  5  1  0
  5  6  2  0
  5  7  1  0
  7  8  2  0
  7  9  1  0
  9 10  2  0
 10 11  1  0
 11 12  2  0
 12 13  1  0
 13 14  2  0
 14 15  1  0
 15 16  1  0
 15 17  1  0
 17 18  2  0
 10 19  1  0
 19 20  1  6
 20 21  1  0
 21 22  1  0
 22 23  1  0
 22 24  1  0
 24 25  1  0
 33 35  1  0
 35 36  1  0
 30 37  2  0
 41 42  1  0
 42 43  2  0
 43 38  1  0
 37 26  1  0
 35 29  1  0
  6  1  1  0
 18  9  1  0
 25 19  1  0
 19  4  1  0
 17 12  1  0
M  END
>  <minimizedAffinity>  (451) 
-17.00939

$$$$
Mol: 157_55 - SminaDock
     RDKit          3D

 41 47  0  0  0  0  0  0  0  0999 V2000
    5.3262   -3.0862  -16.1637 O   0  0  0  0  0  0  0  0  0  0  0  0
    5.4803   -1.7193  -15.8742 C   0  0  0  0  0  0  0  0  0  0  0  0
    4.4004   -1.1101  -15.3019 N   0  0  0  0  0  0  0  0  0  0  0  0
    4.3835   -0.0560  -14.4613 C   0  0  0  0  0  0  0  0  0  0  0  0
    3.3721    0.0913  -13.7366 O   0  0  0  0  0  0  0  0  0  0  0  0
    5.3634    0.9215  -14.2807 C   0  0  0  0  0  0  0  0  0  0  0  0
    5.0014    1.8662  -13.3555 C   0  0  0  0  0  0  0  0  0  0  0  0
    5.8921    2.8922  -13.0851 C   0  0  0  0  0  0  0  0  0  0  0  0
    7.1153    2.9415  -13.7473 C   0  0  0  0  0  0  0  0  0  0  0  0
    7.4689    1.9953  -14.6683 C   0  0  0  0  0  0  0  0  0  0  0  0
    6.5700    0.9674  -14.9357 C   0  0  0  0  0  0  0  0  0  0  0  0
    7.0848    0.0902  -15.8994 C   0  0  0  0  0  0  0  0  0  0  0  0
    8.0444    0.5686  -16.5325 O   0  0  0  0  0  0  0  0  0  0  0  0
    6.6567   -1.1532  -16.1839 N   0  0  0  0  0  0  0  0  0  0  0  0
    8.0483    4.0421  -13.4631 C   0  0  0  0  0  0  0  0  0  0  0  0
    9.2875    4.1168  -14.0930 C   0  0  0  0  0  0  0  0  0  0  0  0
   10.1273    5.1661  -13.7734 C   0  0  0  0  0  0  0  0  0  0  0  0
    9.7800    6.1195  -12.8691 C   0  0  0  0  0  0  0  0  0  0  0  0
    8.5571    6.0298  -12.2599 C   0  0  0  0  0  0  0  0  0  0  0  0
    7.6539    4.9864  -12.5400 C   0  0  0  0  0  0  0  0  0  0  0  0
    6.3688    5.0018  -11.8249 C   0  0  0  0  0  0  0  0  0  0  0  0
    5.4542    3.8721  -12.0753 C   0  0  0  0  0  0  0  0  0  0  0  0
    6.2108   -3.6098  -16.2342 H   0  0  0  0  0  0  0  0  0  0  0  0
   10.6832    7.1968  -12.5484 N   0  0  0  0  0  0  0  0  0  0  0  0
   11.0615    7.8122  -13.2765 H   0  0  0  0  0  0  0  0  0  0  0  0
   11.0412    7.3889  -11.1785 C   0  0  0  0  0  0  0  0  0  0  0  0
   12.2136    7.9419  -10.8163 N   0  0  0  0  0  0  0  0  0  0  0  0
   12.5644    8.1341   -9.5406 C   0  0  0  0  0  0  0  0  0  0  0  0
   11.7189    7.7647   -8.5189 C   0  0  0  0  0  0  0  0  0  0  0  0
   12.0434    7.9473   -7.1850 C   0  0  0  0  0  0  0  0  0  0  0  0
   11.1886    7.5753   -6.1597 C   0  0  0  0  0  0  0  0  0  0  0  0
    9.9869    7.0089   -6.5305 C   0  0  0  0  0  0  0  0  0  0  0  0
    9.6566    6.8234   -7.8620 C   0  0  0  0  0  0  0  0  0  0  0  0
   10.5154    7.1974   -8.8748 C   0  0  0  0  0  0  0  0  0  0  0  0
   10.2102    7.0258  -10.1769 N   0  0  0  0  0  0  0  0  0  0  0  0
   11.5528    7.7727   -4.7643 C   0  0  0  0  0  0  0  0  0  0  0  0
   11.7569    9.0495   -4.2865 C   0  0  0  0  0  0  0  0  0  0  0  0
   12.1078    9.2051   -2.9397 C   0  0  0  0  0  0  0  0  0  0  0  0
   12.2550    8.1373   -2.0819 C   0  0  0  0  0  0  0  0  0  0  0  0
   12.0464    6.8663   -2.5786 C   0  0  0  0  0  0  0  0  0  0  0  0
   11.7011    6.6978   -3.9010 C   0  0  0  0  0  0  0  0  0  0  0  0
  1  2  1  0
  2  3  1  0
  3  4  1  0
  4  5  2  0
  4  6  1  0
  6  7  2  0
  7  8  1  0
  8  9  2  0
  9 10  1  0
 10 11  2  0
 11 12  1  0
 12 13  2  0
 12 14  1  0
  9 15  1  0
 15 16  2  0
 16 17  1  0
 17 18  2  0
 18 24  1  0
 24 26  1  0
 26 27  2  0
 27 28  1  0
 28 29  2  0
 29 30  1  0
 30 31  2  0
 31 36  1  0
 36 37  2  0
 37 38  1  0
 38 39  2  0
 39 40  1  0
 40 41  2  0
 31 32  1  0
 32 33  2  0
 33 34  1  0
 34 35  2  0
 18 19  1  0
 19 20  2  0
 20 21  1  0
 21 22  1  0
 14  2  2  0
 20 15  1  0
 11  6  1  0
 35 26  1  0
 22  8  1  0
 34 29  1  0
 41 36  1  0
  1 23  1  0
 24 25  1  0
M  CHG  1   3  -1
M  END
>  <minimizedAffinity>  (452) 
-16.95080

$$$$
Mol: 197_21 - SminaDock
     RDKit          3D

 43 50  0  0  0  0  0  0  0  0999 V2000
    1.9540   -2.1034  -14.4510 H   0  0  0  0  0  0  0  0  0  0  0  0
    2.3366   -1.2474  -14.0027 N   0  0  0  0  0  0  0  0  0  0  0  0
    3.4852   -0.7715  -14.3369 C   0  0  0  0  0  0  0  0  0  0  0  0
    3.9062    0.3687  -13.6845 C   0  0  0  0  0  0  0  0  0  0  0  0
    5.1297    0.9107  -14.0124 C   0  0  0  0  0  0  0  0  0  0  0  0
    5.6142    2.0611  -13.3912 C   0  0  0  0  0  0  0  0  0  0  0  0
    6.8451    2.5931  -13.7317 C   0  0  0  0  0  0  0  0  0  0  0  0
    7.6088    1.9795  -14.7002 C   0  0  0  0  0  0  0  0  0  0  0  0
    7.1095    0.8553  -15.2908 C   0  0  0  0  0  0  0  0  0  0  0  0
    5.8886    0.2913  -14.9824 C   0  0  0  0  0  0  0  0  0  0  0  0
    5.4063   -0.8446  -15.5930 C   0  0  0  0  0  0  0  0  0  0  0  0
    4.2092   -1.3917  -15.2858 N   0  0  0  0  0  0  0  0  0  0  0  0
    3.8263   -2.2361  -15.7247 H   0  0  0  0  0  0  0  0  0  0  0  0
    8.8773    2.7492  -14.8733 C   0  0  2  0  0  0  0  0  0  0  0  0
    8.7571    3.8711  -13.8983 C   0  0  0  0  0  0  0  0  0  0  0  0
    9.6677    4.8806  -13.6564 C   0  0  0  0  0  0  0  0  0  0  0  0
    9.3806    5.8336  -12.7129 C   0  0  0  0  0  0  0  0  0  0  0  0
    8.1821    5.7427  -12.0387 C   0  0  0  0  0  0  0  0  0  0  0  0
    7.2720    4.7407  -12.2751 C   0  0  0  0  0  0  0  0  0  0  0  0
    7.5559    3.7740  -13.2275 C   0  0  0  0  0  0  0  0  0  0  0  0
    9.0282    3.3086  -16.2513 C   0  0  0  0  0  0  0  0  0  0  0  0
   10.2670    2.7083  -16.9129 C   0  0  0  0  0  0  0  0  0  0  0  0
   10.2259    1.3128  -16.7757 O   0  0  0  0  0  0  0  0  0  0  0  0
   10.4797    0.9162  -15.4756 C   0  0  0  0  0  0  0  0  0  0  0  0
   10.0642    1.9195  -14.4433 C   0  0  0  0  0  0  0  0  0  0  0  0
   10.3265    6.8531  -12.4850 N   0  0  0  0  0  0  0  0  0  0  0  0
   10.6453    7.1777  -11.2599 C   0  0  0  0  0  0  0  0  0  0  0  0
   11.5694    8.1735  -11.0192 C   0  0  0  0  0  0  0  0  0  0  0  0
   11.9167    8.5276   -9.7295 C   0  0  0  0  0  0  0  0  0  0  0  0
   11.3357    7.8808   -8.6530 C   0  0  0  0  0  0  0  0  0  0  0  0
   11.6657    8.2160   -7.3554 C   0  0  0  0  0  0  0  0  0  0  0  0
   11.0662    7.5496   -6.3028 C   0  0  0  0  0  0  0  0  0  0  0  0
   10.1404    6.5515   -6.5282 C   0  0  0  0  0  0  0  0  0  0  0  0
    9.8347    6.2428   -7.8371 C   0  0  0  0  0  0  0  0  0  0  0  0
   10.4147    6.8887   -8.9186 C   0  0  0  0  0  0  0  0  0  0  0  0
   10.0995    6.5690  -10.1913 N   0  0  0  0  0  0  0  0  0  0  0  0
    9.3918    5.8055  -10.3335 H   0  0  0  0  0  0  0  0  0  0  0  0
   11.4331    7.9234   -4.9434 C   0  0  0  0  0  0  0  0  0  0  0  0
   11.4802    9.2588   -4.5911 C   0  0  0  0  0  0  0  0  0  0  0  0
   11.8146    9.6691   -3.3419 N   0  0  0  0  0  0  0  0  0  0  0  0
   12.1118    8.7383   -2.4105 C   0  0  0  0  0  0  0  0  0  0  0  0
   12.0724    7.3795   -2.7385 C   0  0  0  0  0  0  0  0  0  0  0  0
   11.7343    6.9806   -3.9993 C   0  0  0  0  0  0  0  0  0  0  0  0
  1  2  1  0
  2  3  2  0
  3  4  1  0
  4  5  2  0
  5  6  1  0
  6  7  2  0
  7  8  1  0
  8  9  2  0
  9 10  1  0
 10 11  2  0
 11 12  1  0
 12 13  1  0
  8 14  1  0
 14 15  1  0
 15 16  2  0
 16 17  1  0
 17 26  1  0
 26 27  2  0
 27 28  1  0
 28 29  2  0
 29 30  1  0
 30 31  2  0
 31 32  1  0
 32 38  1  0
 38 39  2  0
 39 40  1  0
 40 41  2  0
 41 42  1  0
 42 43  2  0
 32 33  2  0
 33 34  1  0
 34 35  2  0
 35 36  1  0
 36 37  1  0
 17 18  2  0
 18 19  1  0
 19 20  2  0
 14 21  1  6
 21 22  1  0
 22 23  1  0
 23 24  1  0
 24 25  1  0
 12  3  1  0
 25 14  1  0
 10  5  1  0
 20 15  1  0
 20  7  1  0
 36 27  1  0
 35 30  1  0
 43 38  1  0
M  END
>  <minimizedAffinity>  (453) 
-17.02668

$$$$
Mol: 157_36 - SminaDock
     RDKit          3D

 37 43  0  0  0  0  0  0  0  0999 V2000
    8.7071    5.8441  -12.6714 C   0  0  0  0  0  0  0  0  0  0  0  0
    7.4982    6.2538  -12.1602 C   0  0  0  0  0  0  0  0  0  0  0  0
    6.3636    5.4652  -12.3161 C   0  0  0  0  0  0  0  0  0  0  0  0
    6.3900    4.2661  -12.9723 C   0  0  0  0  0  0  0  0  0  0  0  0
    7.6025    3.8534  -13.4862 C   0  0  0  0  0  0  0  0  0  0  0  0
    8.7288    4.6219  -13.3391 C   0  0  0  0  0  0  0  0  0  0  0  0
    7.3712    2.5604  -14.1409 C   0  0  1  0  0  0  0  0  0  0  0  0
    8.4635    1.5616  -14.0461 C   0  0  0  0  0  0  0  0  0  0  0  0
    8.0438    0.3109  -14.7496 C   0  0  0  0  0  0  0  0  0  0  0  0
    6.5799    0.0540  -14.6591 C   0  0  0  0  0  0  0  0  0  0  0  0
    6.1167   -1.0461  -15.3218 N   0  0  0  0  0  0  0  0  0  0  0  0
    4.8393   -1.3912  -15.3240 N   0  0  0  0  0  0  0  0  0  0  0  0
    4.4882   -2.2411  -15.8371 H   0  0  0  0  0  0  0  0  0  0  0  0
    3.9490   -0.6410  -14.6531 C   0  0  0  0  0  0  0  0  0  0  0  0
    2.7384   -0.9795  -14.6627 O   0  0  0  0  0  0  0  0  0  0  0  0
    4.3798    0.4990  -13.9576 C   0  0  0  0  0  0  0  0  0  0  0  0
    5.7073    0.8574  -13.9554 C   0  0  0  0  0  0  0  0  0  0  0  0
    6.2288    2.0172  -13.2623 C   0  0  2  0  0  0  0  0  0  0  0  0
    5.3464    3.2489  -13.2653 C   0  0  0  0  0  0  0  0  0  0  0  0
   11.0661    7.4249   -6.5433 C   0  0  0  0  0  0  0  0  0  0  0  0
    9.9272    6.6601   -6.7214 C   0  0  0  0  0  0  0  0  0  0  0  0
    9.4542    6.3430   -7.9603 C   0  0  0  0  0  0  0  0  0  0  0  0
   10.1554    6.8146   -9.0517 C   0  0  0  0  0  0  0  0  0  0  0  0
    9.7047    6.5124  -10.2840 N   0  0  0  0  0  0  0  0  0  0  0  0
   10.3440    6.9422  -11.3716 C   0  0  0  0  0  0  0  0  0  0  0  0
    9.8818    6.6326  -12.5255 N   0  0  0  0  0  0  0  0  0  0  0  0
   11.4502    7.6852  -11.2396 N   0  0  0  0  0  0  0  0  0  0  0  0
   11.9237    8.0037  -12.1125 H   0  0  0  0  0  0  0  0  0  0  0  0
   11.9458    8.0175  -10.0427 C   0  0  0  0  0  0  0  0  0  0  0  0
   11.2790    7.5693   -8.9108 C   0  0  0  0  0  0  0  0  0  0  0  0
   11.7433    7.8804   -7.6519 C   0  0  0  0  0  0  0  0  0  0  0  0
   12.4367    8.3437   -2.5806 C   0  0  0  0  0  0  0  0  0  0  0  0
   11.9443    7.0945   -2.8912 C   0  0  0  0  0  0  0  0  0  0  0  0
   11.4999    6.7994   -4.1802 C   0  0  0  0  0  0  0  0  0  0  0  0
   11.5361    7.7392   -5.1850 C   0  0  0  0  0  0  0  0  0  0  0  0
   12.0266    8.9900   -4.8837 C   0  0  0  0  0  0  0  0  0  0  0  0
   12.4679    9.2830   -3.6036 C   0  0  0  0  0  0  0  0  0  0  0  0
 32 33  2  0
 33 34  1  0
 34 35  2  0
 35 20  1  0
 20 21  1  0
 21 22  2  0
 22 23  1  0
 23 24  2  0
 24 25  1  0
 25 26  2  0
 26  1  1  0
  1  2  2  0
  2  3  1  0
  3  4  2  0
  4  5  1  0
  5  6  2  0
  5  7  1  0
  7  8  1  1
  8  9  1  0
  9 10  1  0
 10 11  2  0
 11 12  1  0
 12 13  1  0
 12 14  1  0
 14 15  2  0
 14 16  1  0
 16 17  2  0
 17 18  1  0
 18 19  1  6
 25 27  1  0
 27 28  1  0
 27 29  1  0
 29 30  2  0
 30 31  1  0
 35 36  1  0
 36 37  2  0
 37 32  1  0
 31 20  2  0
 30 23  1  0
  6  1  1  0
 18  7  1  0
 19  4  1  0
 17 10  1  0
M  END
>  <minimizedAffinity>  (454) 
-16.99768

$$$$
Mol: 159_45 - SminaDock
     RDKit          3D

 38 44  0  0  0  0  0  0  0  0999 V2000
    8.7499    5.8467  -12.2087 C   0  0  0  0  0  0  0  0  0  0  0  0
    9.5714    5.0719  -12.9993 C   0  0  0  0  0  0  0  0  0  0  0  0
    9.0132    3.9261  -13.5141 C   0  0  0  0  0  0  0  0  0  0  0  0
    7.6922    3.5556  -13.2592 C   0  0  0  0  0  0  0  0  0  0  0  0
    6.8772    4.3193  -12.4761 C   0  0  0  0  0  0  0  0  0  0  0  0
    7.4516    5.4967  -11.9485 C   0  0  0  0  0  0  0  0  0  0  0  0
    5.5013    3.9750  -12.1387 C   0  0  0  0  0  0  0  0  0  0  0  0
    4.9224    2.8533  -12.8669 C   0  0  0  0  0  0  0  0  0  0  0  0
    5.8108    1.9921  -13.6474 C   0  0  0  0  0  0  0  0  0  0  0  0
    7.1210    2.3559  -13.8522 C   0  0  0  0  0  0  0  0  0  0  0  0
    7.9417    1.5712  -14.6041 N   0  0  0  0  0  0  0  0  0  0  0  0
    7.5217    0.4158  -15.1772 C   0  0  0  0  0  0  0  0  0  0  0  0
    8.3449   -0.2529  -15.8584 O   0  0  0  0  0  0  0  0  0  0  0  0
    6.2171    0.0152  -14.9958 C   0  0  0  0  0  0  0  0  0  0  0  0
    5.7765   -1.1557  -15.5722 C   0  0  0  0  0  0  0  0  0  0  0  0
    4.4569   -1.5285  -15.3700 C   0  0  0  0  0  0  0  0  0  0  0  0
    3.5975   -0.7415  -14.6047 C   0  0  0  0  0  0  0  0  0  0  0  0
    4.0453    0.3968  -14.0507 N   0  0  0  0  0  0  0  0  0  0  0  0
    3.3898    0.9683  -13.4868 H   0  0  0  0  0  0  0  0  0  0  0  0
    5.3014    0.8196  -14.2012 C   0  0  0  0  0  0  0  0  0  0  0  0
   11.3429    8.1034   -5.8072 C   0  0  0  0  0  0  0  0  0  0  0  0
   11.5211    9.2302   -6.5825 C   0  0  0  0  0  0  0  0  0  0  0  0
   11.1435    9.2318   -7.9248 C   0  0  0  0  0  0  0  0  0  0  0  0
   10.5845    8.1197   -8.5186 C   0  0  0  0  0  0  0  0  0  0  0  0
   10.4066    6.9935   -7.7427 C   0  0  0  0  0  0  0  0  0  0  0  0
    9.8466    5.8842   -8.3463 C   0  0  0  0  0  0  0  0  0  0  0  0
    9.4936    5.9202   -9.6465 N   0  0  0  0  0  0  0  0  0  0  0  0
    9.6663    7.0181  -10.4056 C   0  0  0  0  0  0  0  0  0  0  0  0
    9.3248    7.0498  -11.6646 N   0  0  0  0  0  0  0  0  0  0  0  0
   10.2127    8.0939   -9.8082 N   0  0  0  0  0  0  0  0  0  0  0  0
   10.3478    8.9563  -10.4057 H   0  0  0  0  0  0  0  0  0  0  0  0
   10.7830    6.9984   -6.4135 C   0  0  0  0  0  0  0  0  0  0  0  0
   12.4747    7.9788   -1.6958 C   0  0  0  0  0  0  0  0  0  0  0  0
   12.1136    6.8292   -2.3763 C   0  0  0  0  0  0  0  0  0  0  0  0
   11.7519    6.8908   -3.7020 C   0  0  0  0  0  0  0  0  0  0  0  0
   11.7371    8.0846   -4.3893 C   0  0  0  0  0  0  0  0  0  0  0  0
   12.0928    9.2437   -3.7329 C   0  0  0  0  0  0  0  0  0  0  0  0
   12.4510    9.1596   -2.4079 C   0  0  0  0  0  0  0  0  0  0  0  0
 33 34  2  0
 34 35  1  0
 35 36  2  0
 36 21  1  0
 21 22  2  0
 22 23  1  0
 23 24  2  0
 24 25  1  0
 25 26  1  0
 26 27  2  0
 27 28  1  0
 28 29  2  0
 29  1  1  0
  1  2  2  0
  2  3  1  0
  3  4  2  0
  4  5  1  0
  5  6  2  0
  5  7  1  0
  7  8  1  0
  8  9  1  0
  9 10  1  0
 10 11  2  0
 11 12  1  0
 12 13  2  0
 12 14  1  0
 14 15  2  0
 15 16  1  0
 16 17  2  0
 17 18  1  0
 18 19  1  0
 18 20  1  0
 28 30  1  0
 30 31  1  0
 25 32  2  0
 36 37  1  0
 37 38  2  0
 38 33  1  0
 32 21  1  0
 30 24  1  0
  6  1  1  0
 20  9  2  0
 10  4  1  0
 20 14  1  0
M  END
>  <minimizedAffinity>  (455) 
-16.95109

$$$$
Mol: 195_55 - SminaDock
     RDKit          3D

 41 48  0  0  0  0  0  0  0  0999 V2000
    8.6753    5.8336  -12.3395 C   0  0  0  0  0  0  0  0  0  0  0  0
    9.1864    5.3606  -13.5284 C   0  0  0  0  0  0  0  0  0  0  0  0
    8.6486    4.3015  -14.2183 C   0  0  0  0  0  0  0  0  0  0  0  0
    7.5234    3.6859  -13.6661 C   0  0  0  0  0  0  0  0  0  0  0  0
    6.9732    4.1171  -12.4834 C   0  0  0  0  0  0  0  0  0  0  0  0
    7.5637    5.2019  -11.8235 C   0  0  0  0  0  0  0  0  0  0  0  0
    5.8028    3.2868  -12.1459 C   0  0  0  0  0  0  0  0  0  0  0  0
    5.7339    2.3067  -13.2891 C   0  0  0  0  0  0  0  0  0  0  0  0
    4.8619    1.2735  -13.5568 C   0  0  0  0  0  0  0  0  0  0  0  0
    5.0339    0.5071  -14.7154 C   0  0  0  0  0  0  0  0  0  0  0  0
    6.0416    0.7340  -15.6132 C   0  0  0  0  0  0  0  0  0  0  0  0
    6.9146    1.7938  -15.3135 C   0  0  0  0  0  0  0  0  0  0  0  0
    6.7526    2.5516  -14.1775 C   0  0  0  0  0  0  0  0  0  0  0  0
    6.2767   -0.0394  -16.8540 C   0  0  1  0  0  0  0  0  0  0  0  0
    5.3649   -1.1930  -16.9670 C   0  0  0  0  0  0  0  0  0  0  0  0
    5.2213   -1.8400  -18.0475 O   0  0  0  0  0  0  0  0  0  0  0  0
    4.6425   -1.5676  -15.8240 O   0  0  0  0  0  0  0  0  0  0  0  0
    4.0650   -0.6117  -14.9845 C   0  0  0  0  0  0  0  0  0  0  0  0
    5.9717    0.8900  -18.0099 C   0  0  0  0  0  0  0  0  0  0  0  0
    6.3907    0.3599  -19.3408 C   0  0  0  0  0  0  0  0  0  0  0  0
    7.2599   -0.7108  -19.2760 O   0  0  0  0  0  0  0  0  0  0  0  0
    8.2561   -0.5249  -18.3255 C   0  0  0  0  0  0  0  0  0  0  0  0
    7.7145   -0.5219  -16.9241 C   0  0  0  0  0  0  0  0  0  0  0  0
   11.2601    7.9677   -5.8487 C   0  0  0  0  0  0  0  0  0  0  0  0
   11.4724    9.0818   -6.6447 C   0  0  0  0  0  0  0  0  0  0  0  0
   11.1178    9.1008   -7.9776 C   0  0  0  0  0  0  0  0  0  0  0  0
   10.5305    7.9795   -8.5520 C   0  0  0  0  0  0  0  0  0  0  0  0
   10.3080    6.8626   -7.7899 C   0  0  0  0  0  0  0  0  0  0  0  0
   10.6790    6.8891   -6.4611 C   0  0  0  0  0  0  0  0  0  0  0  0
    9.7207    5.7403   -8.3622 C   0  0  0  0  0  0  0  0  0  0  0  0
    9.3696    5.7558   -9.6766 C   0  0  0  0  0  0  0  0  0  0  0  0
    9.6009    6.8822  -10.4203 C   0  0  0  0  0  0  0  0  0  0  0  0
    9.2803    6.9356  -11.6746 N   0  0  0  0  0  0  0  0  0  0  0  0
   10.1693    7.9659   -9.8625 N   0  0  0  0  0  0  0  0  0  0  0  0
   10.3520    8.8252  -10.4069 H   0  0  0  0  0  0  0  0  0  0  0  0
   12.1690    9.3253   -2.5350 C   0  0  0  0  0  0  0  0  0  0  0  0
   11.8026    9.2132   -3.8229 N   0  0  0  0  0  0  0  0  0  0  0  0
   11.6592    8.0219   -4.4529 C   0  0  0  0  0  0  0  0  0  0  0  0
   11.9131    6.9059   -3.6915 C   0  0  0  0  0  0  0  0  0  0  0  0
   12.2967    6.9873   -2.3469 C   0  0  0  0  0  0  0  0  0  0  0  0
   12.4288    8.2214   -1.7516 C   0  0  0  0  0  0  0  0  0  0  0  0
 36 37  2  0
 37 38  1  0
 38 24  1  0
 24 25  2  0
 25 26  1  0
 26 27  2  0
 27 28  1  0
 28 29  2  0
 28 30  1  0
 30 31  2  0
 31 32  1  0
 32 33  2  0
 33  1  1  0
  1  2  2  0
  2  3  1  0
  3  4  2  0
  4  5  1  0
  5  6  2  0
  5  7  1  0
  7  8  1  0
  8  9  2  0
  9 10  1  0
 10 11  2  0
 11 12  1  0
 12 13  2  0
 11 14  1  0
 14 15  1  0
 15 16  2  0
 15 17  1  0
 17 18  1  0
 14 19  1  6
 19 20  1  0
 20 21  1  0
 21 22  1  0
 22 23  1  0
 32 34  1  0
 34 35  1  0
 38 39  2  0
 39 40  1  0
 40 41  2  0
 41 36  1  0
 29 24  1  0
  6  1  1  0
 13  8  1  0
 23 14  1  0
 34 27  1  0
 13  4  1  0
 18 10  1  0
M  END
>  <minimizedAffinity>  (456) 
-17.03309

$$$$
Mol: 94_63 - SminaDock
     RDKit          3D

 40 45  0  0  0  0  0  0  0  0999 V2000
    2.8543   -0.8008  -14.8133 H   0  0  0  0  0  0  0  0  0  0  0  0
    3.5635   -1.4422  -14.4781 O   0  0  0  0  0  0  0  0  0  0  0  0
    4.8405   -1.3225  -14.9720 C   0  0  0  0  0  0  0  0  0  0  0  0
    5.5708   -0.2707  -14.6987 C   0  0  0  0  0  0  0  0  0  0  0  0
    6.8669   -0.1147  -15.1804 C   0  0  0  0  0  0  0  0  0  0  0  0
    7.5859    1.0156  -14.8569 C   0  0  0  0  0  0  0  0  0  0  0  0
    7.0503    2.0101  -14.0587 C   0  0  0  0  0  0  0  0  0  0  0  0
    5.7525    1.8587  -13.5733 C   0  0  0  0  0  0  0  0  0  0  0  0
    5.0418    0.7223  -13.9039 C   0  0  0  0  0  0  0  0  0  0  0  0
    5.0038    2.7976  -12.7036 C   0  0  0  0  0  0  0  0  0  0  0  0
    5.1285    4.2406  -13.1340 C   0  0  0  0  0  0  0  0  0  0  0  0
    6.4871    4.7664  -12.7538 C   0  0  0  0  0  0  0  0  0  0  0  0
    6.4609    5.9078  -12.0048 C   0  0  0  0  0  0  0  0  0  0  0  0
    7.6508    6.4800  -11.6009 C   0  0  0  0  0  0  0  0  0  0  0  0
    8.8748    5.9385  -11.9277 C   0  0  0  0  0  0  0  0  0  0  0  0
    8.8794    4.7886  -12.6828 C   0  0  0  0  0  0  0  0  0  0  0  0
    7.6872    4.1905  -13.1036 C   0  0  0  0  0  0  0  0  0  0  0  0
    7.9213    2.9852  -13.8882 C   0  0  0  0  0  0  0  0  0  0  0  0
    5.3727   -2.3465  -15.7847 N   0  0  0  0  0  0  0  0  0  0  0  0
    5.7816   -3.2379  -15.4404 H   0  0  0  0  0  0  0  0  0  0  0  0
    5.3455   -2.1768  -16.8307 H   0  0  0  0  0  0  0  0  0  0  0  0
   10.0715    6.6122  -11.4551 C   0  0  0  0  0  0  0  0  0  0  0  0
   11.1245    6.8778  -12.2863 C   0  0  0  0  0  0  0  0  0  0  0  0
   12.2516    7.5238  -11.7995 C   0  0  0  0  0  0  0  0  0  0  0  0
   12.3035    7.8978  -10.4673 C   0  0  0  0  0  0  0  0  0  0  0  0
   11.2567    7.6413   -9.6123 C   0  0  0  0  0  0  0  0  0  0  0  0
   10.1508    6.9951  -10.1371 C   0  0  0  0  0  0  0  0  0  0  0  0
   11.3412    8.0467   -8.2206 C   0  0  0  0  0  0  0  0  0  0  0  0
   11.2987    9.3952   -7.9276 C   0  0  0  0  0  0  0  0  0  0  0  0
   11.1775   10.2972   -8.9527 F   0  0  0  0  0  0  0  0  0  0  0  0
   11.3754    9.8518   -6.6289 C   0  0  0  0  0  0  0  0  0  0  0  0
   11.4972    8.9548   -5.5922 C   0  0  0  0  0  0  0  0  0  0  0  0
   11.5433    7.5859   -5.8497 C   0  0  0  0  0  0  0  0  0  0  0  0
   11.4632    7.1614   -7.1748 C   0  0  0  0  0  0  0  0  0  0  0  0
   11.6665    6.6822   -4.8048 C   0  0  0  0  0  0  0  0  0  0  0  0
   11.7449    7.1092   -3.5063 C   0  0  0  0  0  0  0  0  0  0  0  0
   11.6964    8.4749   -3.2807 C   0  0  0  0  0  0  0  0  0  0  0  0
   11.7665    8.8929   -2.0974 O   0  0  0  0  0  0  0  0  0  0  0  0
   11.5761    9.3528   -4.3056 N   0  0  0  0  0  0  0  0  0  0  0  0
   11.5456   10.3747   -4.0631 H   0  0  0  0  0  0  0  0  0  0  0  0
  1  2  1  0
  2  3  1  0
  3  4  2  0
  4  5  1  0
  5  6  2  0
  6  7  1  0
  7  8  1  0
  8  9  2  0
  8 10  1  0
 10 11  1  0
 11 12  1  0
 12 13  2  0
 13 14  1  0
 14 15  2  0
 15 22  1  0
 22 23  2  0
 23 24  1  0
 24 25  2  0
 25 26  1  0
 26 28  1  0
 28 29  2  0
 29 30  1  0
 29 31  1  0
 31 32  2  0
 32 33  1  0
 33 34  2  0
 33 35  1  0
 35 36  2  0
 36 37  1  0
 37 38  2  0
 37 39  1  0
 39 40  1  0
 26 27  2  0
 15 16  1  0
 16 17  2  0
 17 18  1  0
  3 19  1  0
 19 20  1  0
 19 21  1  0
  9  4  1  0
 17 12  1  0
 18  7  2  0
 27 22  1  0
 34 28  1  0
 39 32  1  0
M  END
>  <minimizedAffinity>  (457) 
-17.02979

$$$$
Mol: 196_11 - SminaDock
     RDKit          3D

 41 47  0  0  0  0  0  0  0  0999 V2000
    8.7871    5.7748  -12.1802 C   0  0  0  0  0  0  0  0  0  0  0  0
    7.5086    5.4556  -11.8986 C   0  0  0  0  0  0  0  0  0  0  0  0
    6.8565    4.3199  -12.4290 C   0  0  0  0  0  0  0  0  0  0  0  0
    5.5304    4.1398  -12.0331 N   0  0  0  0  0  0  0  0  0  0  0  0
    5.3491    3.5863  -11.1399 H   0  0  0  0  0  0  0  0  0  0  0  0
    4.6767    4.5376  -12.4971 H   0  0  0  0  0  0  0  0  0  0  0  0
    7.5576    3.5135  -13.2632 C   0  0  0  0  0  0  0  0  0  0  0  0
    6.9809    2.3838  -13.8195 C   0  0  0  0  0  0  0  0  0  0  0  0
    5.6835    2.0349  -13.5506 C   0  0  0  0  0  0  0  0  0  0  0  0
    5.1678    0.8894  -14.1416 C   0  0  0  0  0  0  0  0  0  0  0  0
    3.8676    0.4807  -13.9128 C   0  0  0  0  0  0  0  0  0  0  0  0
    3.3309   -0.6534  -14.4874 C   0  0  0  0  0  0  0  0  0  0  0  0
    4.0957   -1.4199  -15.3196 C   0  0  0  0  0  0  0  0  0  0  0  0
    5.3955   -1.0261  -15.5585 C   0  0  0  0  0  0  0  0  0  0  0  0
    5.9374    0.1173  -14.9794 C   0  0  0  0  0  0  0  0  0  0  0  0
    7.2311    0.4776  -15.2390 C   0  0  0  0  0  0  0  0  0  0  0  0
    7.7700    1.6138  -14.6637 C   0  0  0  0  0  0  0  0  0  0  0  0
    9.0802    1.9598  -14.9392 C   0  0  0  0  0  0  0  0  0  0  0  0
    9.7409    1.2238  -15.7095 O   0  0  0  0  0  0  0  0  0  0  0  0
    9.5947    3.0508  -14.3852 N   0  0  0  0  0  0  0  0  0  0  0  0
   10.9924    3.4244  -14.6754 C   0  0  0  0  0  0  0  0  0  0  0  0
    8.8951    3.8442  -13.5601 C   0  0  0  0  0  0  0  0  0  0  0  0
    9.4969    4.9642  -13.0209 C   0  0  0  0  0  0  0  0  0  0  0  0
   11.3621    8.1046   -5.8232 C   0  0  0  0  0  0  0  0  0  0  0  0
   11.5907    9.2205   -6.6225 C   0  0  0  0  0  0  0  0  0  0  0  0
   11.2468    9.2346   -7.9576 C   0  0  0  0  0  0  0  0  0  0  0  0
   10.6570    8.1286   -8.5529 C   0  0  0  0  0  0  0  0  0  0  0  0
   10.3096    8.0976   -9.8353 N   0  0  0  0  0  0  0  0  0  0  0  0
    9.7380    6.9902  -10.3597 C   0  0  0  0  0  0  0  0  0  0  0  0
    9.4024    6.9575  -11.6026 N   0  0  0  0  0  0  0  0  0  0  0  0
    9.5012    5.8926   -9.6187 N   0  0  0  0  0  0  0  0  0  0  0  0
    9.0614    5.0309  -10.0077 H   0  0  0  0  0  0  0  0  0  0  0  0
    9.8372    5.8799   -8.3152 C   0  0  0  0  0  0  0  0  0  0  0  0
   10.4222    7.0102   -7.7734 C   0  0  0  0  0  0  0  0  0  0  0  0
   10.7771    7.0189   -6.4302 C   0  0  0  0  0  0  0  0  0  0  0  0
   12.4247    8.0360   -1.7190 C   0  0  0  0  0  0  0  0  0  0  0  0
   12.1575    6.8650   -2.4195 C   0  0  0  0  0  0  0  0  0  0  0  0
   11.8108    6.8723   -3.7554 C   0  0  0  0  0  0  0  0  0  0  0  0
   11.7276    8.0983   -4.4178 C   0  0  0  0  0  0  0  0  0  0  0  0
   11.9937    9.2559   -3.7180 C   0  0  0  0  0  0  0  0  0  0  0  0
   12.3439    9.2526   -2.3699 C   0  0  0  0  0  0  0  0  0  0  0  0
 36 37  2  0
 37 38  1  0
 38 39  2  0
 39 24  1  0
 24 25  1  0
 25 26  2  0
 26 27  1  0
 27 28  2  0
 28 29  1  0
 29 30  2  0
 30  1  1  0
  1  2  2  0
  2  3  1  0
  3  4  1  0
  4  5  1  0
  4  6  1  0
  3  7  2  0
  7  8  1  0
  8  9  2  0
  9 10  1  0
 10 11  2  0
 11 12  1  0
 12 13  2  0
 13 14  1  0
 14 15  2  0
 15 16  1  0
 16 17  2  0
 17 18  1  0
 18 19  2  0
 18 20  1  0
 20 21  1  0
 20 22  1  0
 22 23  2  0
 29 31  1  0
 31 32  1  0
 31 33  1  0
 33 34  2  0
 34 35  1  0
 39 40  1  0
 40 41  2  0
 41 36  1  0
 35 24  2  0
 34 27  1  0
 23  1  1  0
 22  7  1  0
 17  8  1  0
 15 10  1  0
M  END
>  <minimizedAffinity>  (458) 
-16.99127

$$$$
Mol: 151_59 - SminaDock
     RDKit          3D

 43 49  0  0  0  0  0  0  0  0999 V2000
    4.6130   -0.8625  -12.8192 H   0  0  0  0  0  0  0  0  0  0  0  0
    4.3082    0.0376  -13.2097 O   0  0  0  0  0  0  0  0  0  0  0  0
    5.2253    1.0857  -13.2533 C   0  0  0  0  0  0  0  0  0  0  0  0
    5.8903    1.1238  -14.3949 C   0  0  0  0  0  0  0  0  0  0  0  0
    5.5309    0.1380  -15.2711 C   0  0  0  0  0  0  0  0  0  0  0  0
    6.0994    0.0498  -16.5350 C   0  0  0  0  0  0  0  0  0  0  0  0
    7.0418    0.9662  -16.9258 C   0  0  0  0  0  0  0  0  0  0  0  0
    7.4309    1.9837  -16.0553 C   0  0  0  0  0  0  0  0  0  0  0  0
    6.8622    2.0452  -14.8246 C   0  0  0  0  0  0  0  0  0  0  0  0
    7.4015    3.1236  -14.0327 C   0  0  0  0  0  0  0  0  0  0  0  0
    8.6733    3.4463  -14.4049 C   0  0  0  0  0  0  0  0  0  0  0  0
    9.2588    4.5079  -13.6995 C   0  0  0  0  0  0  0  0  0  0  0  0
    8.5856    5.1783  -12.6919 C   0  0  0  0  0  0  0  0  0  0  0  0
    7.2966    4.8059  -12.3537 C   0  0  0  0  0  0  0  0  0  0  0  0
    6.7203    3.7877  -13.0223 C   0  0  0  0  0  0  0  0  0  0  0  0
    5.3468    3.4637  -12.4846 C   0  0  0  0  0  0  0  0  0  0  0  0
    5.3372    1.9788  -12.0907 C   0  0  0  0  0  0  0  0  0  0  0  0
    7.6033    0.9218  -18.1502 C   0  0  0  0  0  0  0  0  0  0  0  0
    7.2258   -0.1061  -19.1506 C   0  0  0  0  0  0  0  0  0  0  0  0
    5.8257   -0.6309  -18.8561 C   0  0  2  0  0  0  0  0  0  0  0  0
    4.8147    0.3288  -19.2089 N   0  0  1  0  0  0  0  0  0  0  0  0
    5.0192    1.2710  -18.7772 H   0  0  0  0  0  0  0  0  0  0  0  0
    4.6318    0.3980  -20.2249 H   0  0  0  0  0  0  0  0  0  0  0  0
    3.9139    0.0130  -18.7614 H   0  0  0  0  0  0  0  0  0  0  0  0
    5.6863   -1.0400  -17.4279 C   0  0  0  0  0  0  0  0  0  0  0  0
    9.2501    6.2325  -12.0383 N   0  0  0  0  0  0  0  0  0  0  0  0
    9.5292    6.3089  -10.8074 C   0  0  0  0  0  0  0  0  0  0  0  0
   10.1709    7.3916  -10.3444 N   0  0  0  0  0  0  0  0  0  0  0  0
   10.5148    7.5743   -9.0597 C   0  0  0  0  0  0  0  0  0  0  0  0
   11.1737    8.7029   -8.6297 C   0  0  0  0  0  0  0  0  0  0  0  0
   11.4939    8.8224   -7.3028 C   0  0  0  0  0  0  0  0  0  0  0  0
   11.1761    7.8381   -6.3633 C   0  0  0  0  0  0  0  0  0  0  0  0
   10.5182    6.7295   -6.8400 C   0  0  0  0  0  0  0  0  0  0  0  0
   10.1796    6.5732   -8.1648 C   0  0  0  0  0  0  0  0  0  0  0  0
    9.5147    5.4451   -8.6288 C   0  0  0  0  0  0  0  0  0  0  0  0
    9.2075    5.3431   -9.9356 N   0  0  0  0  0  0  0  0  0  0  0  0
    8.7048    4.4849  -10.2721 H   0  0  0  0  0  0  0  0  0  0  0  0
   11.5245    7.9838   -4.9626 C   0  0  0  0  0  0  0  0  0  0  0  0
   11.7287    9.2122   -4.3706 C   0  0  0  0  0  0  0  0  0  0  0  0
   12.0624    9.3482   -3.0280 C   0  0  0  0  0  0  0  0  0  0  0  0
   12.1963    8.2381   -2.2553 C   0  0  0  0  0  0  0  0  0  0  0  0
   11.9985    6.9815   -2.8152 C   0  0  0  0  0  0  0  0  0  0  0  0
   11.6658    6.8721   -4.1593 C   0  0  0  0  0  0  0  0  0  0  0  0
  1  2  1  0
  2  3  1  0
  3  4  2  0
  4  5  1  0
  5  6  2  0
  6  7  1  0
  7  8  1  0
  8  9  2  0
  9 10  1  0
 10 11  2  0
 11 12  1  0
 12 13  2  0
 13 26  1  0
 26 27  2  0
 27 28  1  0
 28 29  2  0
 29 30  1  0
 30 31  2  0
 31 32  1  0
 32 38  1  0
 38 39  2  0
 39 40  1  0
 40 41  2  0
 41 42  1  0
 42 43  2  0
 32 33  2  0
 33 34  1  0
 34 35  2  0
 35 36  1  0
 36 37  1  0
 13 14  1  0
 14 15  2  0
 15 16  1  0
 16 17  1  0
  7 18  2  0
 18 19  1  0
 20 19  1  1
 20 21  1  0
 21 22  1  1
 21 23  1  0
 21 24  1  0
 20 25  1  0
 17  3  1  0
  9  4  1  0
 15 10  1  0
 25  6  1  0
 36 27  1  0
 34 29  1  0
 43 38  1  0
M  CHG  1  21   1
M  END
>  <minimizedAffinity>  (459) 
-16.98505

$$$$
Mol: 158_27 - SminaDock
     RDKit          3D

 40 46  0  0  0  0  0  0  0  0999 V2000
    3.3168   -1.5048  -14.1411 H   0  0  0  0  0  0  0  0  0  0  0  0
    3.4187   -0.9225  -14.9559 O   0  0  0  0  0  0  0  0  0  0  0  0
    4.5673   -0.7211  -15.6710 C   0  0  0  0  0  0  0  0  0  0  0  0
    4.7777   -1.6166  -16.6936 C   0  0  0  0  0  0  0  0  0  0  0  0
    5.9090   -1.7776  -17.4898 C   0  0  0  0  0  0  0  0  0  0  0  0
    6.0524   -2.8929  -18.0270 O   0  0  0  0  0  0  0  0  0  0  0  0
    6.8868   -0.8531  -17.7543 C   0  0  0  0  0  0  0  0  0  0  0  0
    7.1411    0.3280  -17.0460 C   0  0  0  0  0  0  0  0  0  0  0  0
    6.5387    0.8187  -15.9099 C   0  0  0  0  0  0  0  0  0  0  0  0
    7.2212    1.9093  -15.3746 C   0  0  0  0  0  0  0  0  0  0  0  0
    6.7325    2.5062  -14.2308 C   0  0  0  0  0  0  0  0  0  0  0  0
    5.5848    2.0438  -13.6107 C   0  0  0  0  0  0  0  0  0  0  0  0
    4.9156    0.9494  -14.1636 C   0  0  0  0  0  0  0  0  0  0  0  0
    5.3941    0.3451  -15.3053 C   0  0  0  0  0  0  0  0  0  0  0  0
    5.0825    2.6284  -12.4672 O   0  0  0  0  0  0  0  0  0  0  0  0
    5.6398    3.7138  -11.8149 C   0  0  0  0  0  0  0  0  0  0  0  0
    6.8695    4.2167  -12.4661 C   0  0  0  0  0  0  0  0  0  0  0  0
    7.5373    5.3150  -11.9027 C   0  0  0  0  0  0  0  0  0  0  0  0
    8.6842    5.8069  -12.4863 C   0  0  0  0  0  0  0  0  0  0  0  0
    9.1889    5.2267  -13.6297 C   0  0  0  0  0  0  0  0  0  0  0  0
    8.5418    4.1323  -14.2091 C   0  0  0  0  0  0  0  0  0  0  0  0
    7.3966    3.6658  -13.5989 C   0  0  0  0  0  0  0  0  0  0  0  0
    9.3633    6.9143  -11.9196 N   0  0  0  0  0  0  0  0  0  0  0  0
    9.6638    6.8867  -10.6744 C   0  0  0  0  0  0  0  0  0  0  0  0
   10.3076    7.9215  -10.1080 N   0  0  0  0  0  0  0  0  0  0  0  0
   10.6467    7.9441   -8.8060 C   0  0  0  0  0  0  0  0  0  0  0  0
   11.3082    9.0091   -8.2297 C   0  0  0  0  0  0  0  0  0  0  0  0
   11.6489    9.0132   -6.8875 C   0  0  0  0  0  0  0  0  0  0  0  0
   11.3376    7.9453   -6.0713 C   0  0  0  0  0  0  0  0  0  0  0  0
   10.6767    6.8842   -6.6530 C   0  0  0  0  0  0  0  0  0  0  0  0
   10.3323    6.8730   -7.9962 C   0  0  0  0  0  0  0  0  0  0  0  0
    9.6709    5.8162   -8.5901 C   0  0  0  0  0  0  0  0  0  0  0  0
    9.3442    5.8314   -9.9151 N   0  0  0  0  0  0  0  0  0  0  0  0
    8.8442    5.0175  -10.3321 H   0  0  0  0  0  0  0  0  0  0  0  0
   11.6975    7.9503   -4.6570 C   0  0  0  0  0  0  0  0  0  0  0  0
   11.6876    6.8064   -3.8834 C   0  0  0  0  0  0  0  0  0  0  0  0
   12.0340    6.8344   -2.5409 C   0  0  0  0  0  0  0  0  0  0  0  0
   12.4025    8.0027   -1.9227 C   0  0  0  0  0  0  0  0  0  0  0  0
   12.4145    9.1561   -2.6954 C   0  0  0  0  0  0  0  0  0  0  0  0
   12.0680    9.1213   -4.0330 C   0  0  0  0  0  0  0  0  0  0  0  0
  1  2  1  0
  2  3  1  0
  3  4  2  0
  4  5  1  0
  5  6  2  0
  5  7  1  0
  7  8  2  0
  8  9  1  0
  9 10  2  0
 10 11  1  0
 11 12  2  0
 12 13  1  0
 13 14  2  0
 12 15  1  0
 15 16  1  0
 16 17  1  0
 17 18  2  0
 18 19  1  0
 19 23  1  0
 23 24  2  0
 24 25  1  0
 25 26  2  0
 26 27  1  0
 27 28  2  0
 28 29  1  0
 29 35  1  0
 35 36  2  0
 36 37  1  0
 37 38  2  0
 38 39  1  0
 39 40  2  0
 29 30  2  0
 30 31  1  0
 31 32  2  0
 32 33  1  0
 33 34  1  0
 19 20  2  0
 20 21  1  0
 21 22  2  0
 14  3  1  0
 22 17  1  0
 14  9  1  0
 33 24  1  0
 22 11  1  0
 31 26  1  0
 40 35  1  0
M  END
>  <minimizedAffinity>  (460) 
-16.88990

$$$$
Mol: 198_60 - SminaDock
     RDKit          3D

 40 47  0  0  0  0  0  0  0  0999 V2000
    8.6934    5.8682  -12.3063 C   0  0  0  0  0  0  0  0  0  0  0  0
    7.4525    5.4689  -11.8709 C   0  0  0  0  0  0  0  0  0  0  0  0
    6.8179    4.3838  -12.4209 C   0  0  0  0  0  0  0  0  0  0  0  0
    7.4528    3.6717  -13.4477 C   0  0  0  0  0  0  0  0  0  0  0  0
    8.6876    4.0667  -13.8838 C   0  0  0  0  0  0  0  0  0  0  0  0
    9.3295    5.1812  -13.3117 C   0  0  0  0  0  0  0  0  0  0  0  0
    9.0880    3.1410  -14.9582 C   0  0  1  0  0  0  0  0  0  0  0  0
    7.9899    2.1947  -15.0819 C   0  0  0  0  0  0  0  0  0  0  0  0
    7.8066    1.0877  -15.9289 C   0  0  0  0  0  0  0  0  0  0  0  0
    6.6694    0.3129  -15.8801 C   0  0  0  0  0  0  0  0  0  0  0  0
    6.4707   -0.7763  -16.7012 C   0  0  0  0  0  0  0  0  0  0  0  0
    5.3220   -1.5385  -16.6335 C   0  0  0  0  0  0  0  0  0  0  0  0
    4.3584   -1.1844  -15.7122 C   0  0  0  0  0  0  0  0  0  0  0  0
    4.5592   -0.0912  -14.8894 C   0  0  0  0  0  0  0  0  0  0  0  0
    5.7124    0.6738  -14.9575 C   0  0  0  0  0  0  0  0  0  0  0  0
    5.9242    1.7656  -14.1418 C   0  0  0  0  0  0  0  0  0  0  0  0
    5.0436    2.0891  -13.3009 O   0  0  0  0  0  0  0  0  0  0  0  0
    7.0507    2.5274  -14.1950 N   0  0  0  0  0  0  0  0  0  0  0  0
    9.4151    3.8591  -16.2454 C   0  0  0  0  0  0  0  0  0  0  0  0
   10.7481    4.2270  -16.0980 O   0  0  0  0  0  0  0  0  0  0  0  0
   11.3932    3.2211  -15.4249 C   0  0  0  0  0  0  0  0  0  0  0  0
   10.3977    2.4960  -14.5631 C   0  0  0  0  0  0  0  0  0  0  0  0
   11.3863    8.0809   -5.9235 C   0  0  0  0  0  0  0  0  0  0  0  0
   11.6771    9.1739   -6.7308 C   0  0  0  0  0  0  0  0  0  0  0  0
   11.3099    9.1253   -8.0552 C   0  0  0  0  0  0  0  0  0  0  0  0
   10.6647    8.0420   -8.6259 C   0  0  0  0  0  0  0  0  0  0  0  0
   10.3863    6.9636   -7.7979 C   0  0  0  0  0  0  0  0  0  0  0  0
   10.7467    6.9923   -6.4639 C   0  0  0  0  0  0  0  0  0  0  0  0
    9.7442    5.8775   -8.3537 C   0  0  0  0  0  0  0  0  0  0  0  0
    9.3934    5.8671   -9.6824 C   0  0  0  0  0  0  0  0  0  0  0  0
    9.6775    6.9461  -10.4876 C   0  0  0  0  0  0  0  0  0  0  0  0
    9.3607    6.9902  -11.7526 N   0  0  0  0  0  0  0  0  0  0  0  0
   10.3110    7.9987   -9.9071 N   0  0  0  0  0  0  0  0  0  0  0  0
   10.5262    8.8181  -10.5226 H   0  0  0  0  0  0  0  0  0  0  0  0
   12.4218    7.8882   -1.7790 C   0  0  0  0  0  0  0  0  0  0  0  0
   12.0739    6.7641   -2.4875 C   0  0  0  0  0  0  0  0  0  0  0  0
   11.7409    6.8549   -3.8353 C   0  0  0  0  0  0  0  0  0  0  0  0
   11.7453    8.0619   -4.5106 C   0  0  0  0  0  0  0  0  0  0  0  0
   12.0950    9.1859   -3.7953 C   0  0  0  0  0  0  0  0  0  0  0  0
   12.4309    9.1045   -2.4416 C   0  0  0  0  0  0  0  0  0  0  0  0
 35 36  2  0
 36 37  1  0
 37 38  2  0
 38 23  1  0
 23 24  2  0
 24 25  1  0
 25 26  2  0
 26 27  1  0
 27 28  2  0
 27 29  1  0
 29 30  2  0
 30 31  1  0
 31 32  2  0
 32  1  1  0
  1  2  2  0
  2  3  1  0
  3  4  2  0
  4  5  1  0
  5  6  2  0
  5  7  1  0
  7  8  1  0
  8  9  2  0
  9 10  1  0
 10 11  2  0
 11 12  1  0
 12 13  2  0
 13 14  1  0
 14 15  2  0
 15 16  1  0
 16 17  2  0
 16 18  1  0
  7 19  1  6
 19 20  1  0
 20 21  1  0
 21 22  1  0
 31 33  1  0
 33 34  1  0
 38 39  1  0
 39 40  2  0
 40 35  1  0
 28 23  1  0
  6  1  1  0
 22  7  1  0
 33 26  1  0
 18  4  1  0
 18  8  1  0
 15 10  1  0
M  END
>  <minimizedAffinity>  (461) 
-16.88096

$$$$
Mol: 160_37 - SminaDock
     RDKit          3D

 42 48  0  0  0  0  0  0  0  0999 V2000
    7.9480    2.5612  -16.1376 H   0  0  0  0  0  0  0  0  0  0  0  0
    7.9419    1.6785  -15.7293 O   0  0  0  0  0  0  0  0  0  0  0  0
    8.8100    1.7372  -14.5813 C   0  0  1  0  0  0  0  0  0  0  0  0
   10.1460    1.7631  -15.2246 C   0  0  0  0  0  0  0  0  0  0  0  0
   10.5473    0.6474  -15.7047 O   0  0  0  0  0  0  0  0  0  0  0  0
   11.0799    2.8381  -15.4071 C   0  0  0  0  0  0  0  0  0  0  0  0
   11.8098    2.7459  -16.5954 C   0  0  0  0  0  0  0  0  0  0  0  0
   12.7432    3.6931  -16.9462 C   0  0  0  0  0  0  0  0  0  0  0  0
   12.9432    4.7553  -16.0787 C   0  0  0  0  0  0  0  0  0  0  0  0
   12.2359    4.8627  -14.9060 C   0  0  0  0  0  0  0  0  0  0  0  0
   11.3006    3.8886  -14.5808 C   0  0  0  0  0  0  0  0  0  0  0  0
   10.7128    4.2156  -13.2790 C   0  0  0  0  0  0  0  0  0  0  0  0
    9.2477    3.9708  -13.3096 C   0  0  0  0  0  0  0  0  0  0  0  0
    8.5898    5.0261  -12.6466 C   0  0  0  0  0  0  0  0  0  0  0  0
    7.2420    5.0177  -12.5040 C   0  0  0  0  0  0  0  0  0  0  0  0
    6.4677    3.9662  -13.0074 C   0  0  0  0  0  0  0  0  0  0  0  0
    7.0676    2.9222  -13.6561 C   0  0  0  0  0  0  0  0  0  0  0  0
    8.4699    2.9431  -13.8019 C   0  0  0  0  0  0  0  0  0  0  0  0
    6.2437    1.8026  -14.1255 C   0  0  0  0  0  0  0  0  0  0  0  0
    5.2009    1.5814  -13.0948 N   0  0  1  0  0  0  0  0  0  0  0  0
    4.6889    0.7267  -13.3908 H   0  0  0  0  0  0  0  0  0  0  0  0
    5.6873    1.3578  -12.2139 H   0  0  0  0  0  0  0  0  0  0  0  0
    4.3178    2.6895  -12.9956 C   0  0  0  0  0  0  0  0  0  0  0  0
    4.9903    4.0043  -12.8564 C   0  0  0  0  0  0  0  0  0  0  0  0
    9.3767    6.1054  -12.1284 N   0  0  0  0  0  0  0  0  0  0  0  0
    9.6310    6.2347  -10.8816 C   0  0  0  0  0  0  0  0  0  0  0  0
   10.3750    7.2698  -10.4635 N   0  0  0  0  0  0  0  0  0  0  0  0
   10.6733    7.4583   -9.1805 C   0  0  0  0  0  0  0  0  0  0  0  0
   11.4342    8.5119   -8.7271 C   0  0  0  0  0  0  0  0  0  0  0  0
   11.7028    8.6439   -7.3846 C   0  0  0  0  0  0  0  0  0  0  0  0
   11.2419    7.7575   -6.4338 C   0  0  0  0  0  0  0  0  0  0  0  0
   10.4799    6.7006   -6.8782 C   0  0  0  0  0  0  0  0  0  0  0  0
   10.2035    6.5605   -8.2400 C   0  0  0  0  0  0  0  0  0  0  0  0
    9.4331    5.4882   -8.6710 C   0  0  0  0  0  0  0  0  0  0  0  0
    9.1652    5.3512   -9.9827 N   0  0  0  0  0  0  0  0  0  0  0  0
    8.5870    4.5455  -10.2994 H   0  0  0  0  0  0  0  0  0  0  0  0
   11.5492    7.9319   -5.0105 C   0  0  0  0  0  0  0  0  0  0  0  0
   11.6261    6.8520   -4.1548 C   0  0  0  0  0  0  0  0  0  0  0  0
   11.9132    6.9953   -2.8157 C   0  0  0  0  0  0  0  0  0  0  0  0
   12.1367    8.2648   -2.2884 C   0  0  0  0  0  0  0  0  0  0  0  0
   12.0625    9.3610   -3.1389 C   0  0  0  0  0  0  0  0  0  0  0  0
   11.7726    9.1854   -4.4769 C   0  0  0  0  0  0  0  0  0  0  0  0
  1  2  1  0
  3  2  1  6
  3  4  1  0
  4  5  2  0
  4  6  1  0
  6  7  2  0
  7  8  1  0
  8  9  2  0
  9 10  1  0
 10 11  2  0
 11 12  1  0
 12 13  1  0
 13 14  2  0
 14 25  1  0
 25 26  2  0
 26 27  1  0
 27 28  2  0
 28 29  1  0
 29 30  2  0
 30 31  1  0
 31 37  1  0
 37 38  2  0
 38 39  1  0
 39 40  2  0
 40 41  1  0
 41 42  2  0
 31 32  2  0
 32 33  1  0
 33 34  2  0
 34 35  1  0
 35 36  1  0
 14 15  1  0
 15 16  2  0
 16 17  1  0
 17 18  2  0
 17 19  1  0
 19 20  1  0
 20 21  1  6
 20 22  1  0
 20 23  1  0
 23 24  1  0
 18  3  1  0
 11  6  1  0
 18 13  1  0
 35 26  1  0
 24 16  1  0
 33 28  1  0
 42 37  1  0
M  CHG  1  20   1
M  END
>  <minimizedAffinity>  (462) 
-16.88822

$$$$
Mol: 200_59 - SminaDock
     RDKit          3D

 44 51  0  0  0  0  0  0  0  0999 V2000
    9.4761    1.8028  -17.9285 O   0  0  0  0  0  0  0  0  0  0  0  0
    9.4999    2.1166  -16.6866 C   0  0  0  0  0  0  0  0  0  0  0  0
   10.5441    1.7931  -15.7578 N   0  0  0  0  0  0  0  0  0  0  0  0
   10.1853    2.3211  -14.4865 C   0  0  0  0  0  0  0  0  0  0  0  0
   11.0120    2.6116  -13.6066 O   0  0  0  0  0  0  0  0  0  0  0  0
    8.6902    2.4014  -14.5427 C   0  0  1  0  0  0  0  0  0  0  0  0
    8.0736    1.0675  -14.4730 C   0  0  0  0  0  0  0  0  0  0  0  0
    6.6223    1.0863  -14.2420 C   0  0  0  0  0  0  0  0  0  0  0  0
    6.0072    2.0986  -13.5422 C   0  0  0  0  0  0  0  0  0  0  0  0
    4.6721    2.0802  -13.2282 C   0  0  0  0  0  0  0  0  0  0  0  0
    3.9234    0.9814  -13.6487 C   0  0  0  0  0  0  0  0  0  0  0  0
    4.5186   -0.0439  -14.3553 C   0  0  0  0  0  0  0  0  0  0  0  0
    4.0684   -1.2090  -14.8854 N   0  0  0  0  0  0  0  0  0  0  0  0
    5.0638   -1.8497  -15.4768 N   0  0  0  0  0  0  0  0  0  0  0  0
    6.2047   -1.1163  -15.3499 C   0  0  0  0  0  0  0  0  0  0  0  0
    5.8437    0.0010  -14.6502 C   0  0  0  0  0  0  0  0  0  0  0  0
    6.8342    3.2941  -13.2298 C   0  0  0  0  0  0  0  0  0  0  0  0
    6.2835    4.3025  -12.4271 C   0  0  0  0  0  0  0  0  0  0  0  0
    7.0636    5.3756  -12.0517 C   0  0  0  0  0  0  0  0  0  0  0  0
    8.3842    5.4889  -12.4463 C   0  0  0  0  0  0  0  0  0  0  0  0
    8.9013    4.4820  -13.2385 C   0  0  0  0  0  0  0  0  0  0  0  0
    8.1323    3.3784  -13.6374 C   0  0  0  0  0  0  0  0  0  0  0  0
    8.5354    2.8339  -15.9531 N   0  0  0  0  0  0  0  0  0  0  0  0
   11.4207    1.2511  -16.0097 H   0  0  0  0  0  0  0  0  0  0  0  0
    3.0595   -1.4940  -14.7981 H   0  0  0  0  0  0  0  0  0  0  0  0
    7.8637    3.5184  -16.3337 H   0  0  0  0  0  0  0  0  0  0  0  0
    9.1975    6.5807  -12.0600 N   0  0  0  0  0  0  0  0  0  0  0  0
    9.4809    7.2775  -12.7598 H   0  0  0  0  0  0  0  0  0  0  0  0
    9.6112    6.7026  -10.7218 C   0  0  0  0  0  0  0  0  0  0  0  0
    9.3220    5.6525   -9.8740 C   0  0  0  0  0  0  0  0  0  0  0  0
    9.6875    5.7055   -8.5629 C   0  0  0  0  0  0  0  0  0  0  0  0
   10.3550    6.8476   -8.1206 C   0  0  0  0  0  0  0  0  0  0  0  0
   10.7093    6.8693   -6.7858 C   0  0  0  0  0  0  0  0  0  0  0  0
   11.3668    7.9768   -6.3088 C   0  0  0  0  0  0  0  0  0  0  0  0
   11.6573    9.0251   -7.1470 C   0  0  0  0  0  0  0  0  0  0  0  0
   11.2933    8.9777   -8.4714 C   0  0  0  0  0  0  0  0  0  0  0  0
   10.6279    7.8728   -8.9828 C   0  0  0  0  0  0  0  0  0  0  0  0
   10.2553    7.7911  -10.2699 N   0  0  0  0  0  0  0  0  0  0  0  0
   11.7452    8.0035   -4.8992 C   0  0  0  0  0  0  0  0  0  0  0  0
   11.4118    6.9118   -4.1053 C   0  0  0  0  0  0  0  0  0  0  0  0
   11.7194    6.8363   -2.7729 C   0  0  0  0  0  0  0  0  0  0  0  0
   12.3932    7.8929   -2.1851 C   0  0  0  0  0  0  0  0  0  0  0  0
   12.7288    8.9854   -2.9711 C   0  0  0  0  0  0  0  0  0  0  0  0
   12.4102    9.0453   -4.3158 C   0  0  0  0  0  0  0  0  0  0  0  0
  1  2  2  0
  2  3  1  0
  3  4  1  0
  4  5  2  0
  4  6  1  0
  6  7  1  6
  7  8  1  0
  8  9  2  0
  9 10  1  0
 10 11  2  0
 11 12  1  0
 12 13  1  0
 13 14  1  0
 14 15  2  0
 15 16  1  0
  9 17  1  0
 17 18  2  0
 18 19  1  0
 19 20  2  0
 20 27  1  0
 27 29  1  0
 29 30  2  0
 30 31  1  0
 31 32  2  0
 32 33  1  0
 33 34  2  0
 34 39  1  0
 39 40  2  0
 40 41  1  0
 41 42  2  0
 42 43  1  0
 43 44  2  0
 34 35  1  0
 35 36  2  0
 36 37  1  0
 37 38  2  0
 20 21  1  0
 21 22  2  0
  6 23  1  0
 23  2  1  0
 22  6  1  0
 16  8  1  0
 22 17  1  0
 16 12  2  0
 38 29  1  0
 37 32  1  0
 44 39  1  0
  3 24  1  0
 13 25  1  0
 27 28  1  0
 23 26  1  0
M  END
>  <minimizedAffinity>  (463) 
-16.85886

$$$$
Mol: 200_54 - SminaDock
     RDKit          3D

 44 51  0  0  0  0  0  0  0  0999 V2000
    8.8156    6.3385  -12.1746 C   0  0  0  0  0  0  0  0  0  0  0  0
    7.5516    6.0856  -11.6984 C   0  0  0  0  0  0  0  0  0  0  0  0
    6.7797    5.0789  -12.2179 C   0  0  0  0  0  0  0  0  0  0  0  0
    7.3126    4.3055  -13.2557 C   0  0  0  0  0  0  0  0  0  0  0  0
    8.5656    4.5078  -13.7747 C   0  0  0  0  0  0  0  0  0  0  0  0
    9.2961    5.5560  -13.1914 C   0  0  0  0  0  0  0  0  0  0  0  0
    9.3572    3.8654  -14.8320 C   0  0  1  0  0  0  0  0  0  0  0  0
    8.5868    2.9485  -15.7046 C   0  0  0  0  0  0  0  0  0  0  0  0
    8.9426    2.9498  -16.9640 O   0  0  0  0  0  0  0  0  0  0  0  0
    7.4956    2.0221  -15.4612 C   0  0  0  0  0  0  0  0  0  0  0  0
    6.4977    2.2077  -14.5268 C   0  0  0  0  0  0  0  0  0  0  0  0
    5.5209    1.2357  -14.4119 C   0  0  0  0  0  0  0  0  0  0  0  0
    5.5243    0.1047  -15.1990 C   0  0  0  0  0  0  0  0  0  0  0  0
    4.5709   -0.8840  -15.1139 C   0  0  0  0  0  0  0  0  0  0  0  0
    4.6021   -2.0010  -15.9134 C   0  0  0  0  0  0  0  0  0  0  0  0
    5.6225   -2.1532  -16.8433 C   0  0  0  0  0  0  0  0  0  0  0  0
    6.5860   -1.1717  -16.9416 C   0  0  0  0  0  0  0  0  0  0  0  0
    6.5426   -0.0500  -16.1290 C   0  0  0  0  0  0  0  0  0  0  0  0
    7.5342    0.8848  -16.2816 C   0  0  0  0  0  0  0  0  0  0  0  0
    6.2774    3.3064  -13.5981 C   0  0  0  0  0  0  0  0  0  0  0  0
    5.1567    3.4202  -13.0563 O   0  0  0  0  0  0  0  0  0  0  0  0
    9.9811    4.8678  -15.7773 C   0  0  0  0  0  0  0  0  0  0  0  0
   11.3523    4.3712  -16.1575 C   0  0  0  0  0  0  0  0  0  0  0  0
   12.1866    4.4997  -15.0433 O   0  0  0  0  0  0  0  0  0  0  0  0
   11.7646    3.6661  -14.0105 C   0  0  0  0  0  0  0  0  0  0  0  0
   10.4642    3.0248  -14.2343 C   0  0  0  0  0  0  0  0  0  0  0  0
   11.5003    8.0814   -5.7140 C   0  0  0  0  0  0  0  0  0  0  0  0
   11.9586    9.1476   -6.4681 C   0  0  0  0  0  0  0  0  0  0  0  0
   11.6706    9.2306   -7.8102 C   0  0  0  0  0  0  0  0  0  0  0  0
   10.9211    8.2600   -8.4410 C   0  0  0  0  0  0  0  0  0  0  0  0
   10.6251    8.3152   -9.7517 N   0  0  0  0  0  0  0  0  0  0  0  0
    9.8907    7.3567  -10.3563 C   0  0  0  0  0  0  0  0  0  0  0  0
    9.6035    7.4011  -11.6086 N   0  0  0  0  0  0  0  0  0  0  0  0
    9.4620    6.3362   -9.5950 N   0  0  0  0  0  0  0  0  0  0  0  0
    8.8801    5.5597  -10.0327 H   0  0  0  0  0  0  0  0  0  0  0  0
    9.7310    6.2403   -8.2931 C   0  0  0  0  0  0  0  0  0  0  0  0
   10.4752    7.2034   -7.6608 C   0  0  0  0  0  0  0  0  0  0  0  0
   10.7538    7.1088   -6.3282 C   0  0  0  0  0  0  0  0  0  0  0  0
   12.4558    7.8644   -1.6003 C   0  0  0  0  0  0  0  0  0  0  0  0
   12.4433    9.0924   -2.2267 C   0  0  0  0  0  0  0  0  0  0  0  0
   12.1302    9.1567   -3.5725 C   0  0  0  0  0  0  0  0  0  0  0  0
   11.8296    8.0355   -4.3118 C   0  0  0  0  0  0  0  0  0  0  0  0
   11.8506    6.8123   -3.6519 C   0  0  0  0  0  0  0  0  0  0  0  0
   12.1600    6.7202   -2.3092 C   0  0  0  0  0  0  0  0  0  0  0  0
 39 40  2  0
 40 41  1  0
 41 42  2  0
 42 27  1  0
 27 28  1  0
 28 29  2  0
 29 30  1  0
 30 31  2  0
 31 32  1  0
 32 33  2  0
 33  1  1  0
  1  2  2  0
  2  3  1  0
  3  4  2  0
  4  5  1  0
  5  6  2  0
  5  7  1  0
  7  8  1  0
  8  9  2  0
  8 10  1  0
 10 11  2  0
 11 12  1  0
 12 13  2  0
 13 14  1  0
 14 15  2  0
 15 16  1  0
 16 17  2  0
 17 18  1  0
 18 19  2  0
 11 20  1  0
 20 21  2  0
  7 22  1  6
 22 23  1  0
 23 24  1  0
 24 25  1  0
 25 26  1  0
 32 34  1  0
 34 35  1  0
 34 36  1  0
 36 37  2  0
 37 38  1  0
 42 43  1  0
 43 44  2  0
 44 39  1  0
 38 27  2  0
 37 30  1  0
  6  1  1  0
 26  7  1  0
 20  4  1  0
 19 10  1  0
 18 13  1  0
M  END
>  <minimizedAffinity>  (464) 
-16.89319

$$$$
Mol: 200_3 - SminaDock
     RDKit          3D

 42 49  0  0  0  0  0  0  0  0999 V2000
    8.8445    5.9619  -12.3487 C   0  0  0  0  0  0  0  0  0  0  0  0
    9.5949    5.4348  -13.3770 C   0  0  0  0  0  0  0  0  0  0  0  0
    9.1290    4.3307  -14.0843 C   0  0  0  0  0  0  0  0  0  0  0  0
    7.8911    3.8069  -13.6982 C   0  0  0  0  0  0  0  0  0  0  0  0
    7.1513    4.3344  -12.6773 C   0  0  0  0  0  0  0  0  0  0  0  0
    7.6356    5.4373  -11.9840 C   0  0  0  0  0  0  0  0  0  0  0  0
    5.9030    3.5429  -12.5358 C   0  0  0  0  0  0  0  0  0  0  0  0
    6.0233    2.5123  -13.5902 C   0  0  0  0  0  0  0  0  0  0  0  0
    5.1485    1.4882  -13.9327 C   0  0  0  0  0  0  0  0  0  0  0  0
    5.4918    0.6528  -14.9620 C   0  0  0  0  0  0  0  0  0  0  0  0
    6.6513    0.7642  -15.6798 C   0  0  0  0  0  0  0  0  0  0  0  0
    7.5178    1.7978  -15.3227 C   0  0  0  0  0  0  0  0  0  0  0  0
    7.1932    2.6480  -14.2928 C   0  0  0  0  0  0  0  0  0  0  0  0
    6.6887   -0.2927  -16.6934 C   0  0  0  0  0  0  0  0  0  0  0  0
    5.2722   -0.7810  -16.8412 C   0  0  2  0  0  0  0  0  0  0  0  0
    4.7198   -0.4756  -15.4838 C   0  0  0  0  0  0  0  0  0  0  0  0
    3.7718   -1.1172  -14.9676 O   0  0  0  0  0  0  0  0  0  0  0  0
    5.2901   -2.2720  -17.1057 C   0  0  0  0  0  0  0  0  0  0  0  0
    5.8627   -2.4443  -18.5119 C   0  0  0  0  0  0  0  0  0  0  0  0
    5.0063   -1.8841  -19.5112 N   0  0  2  0  0  0  0  0  0  0  0  0
    4.4558   -2.6683  -19.9749 H   0  0  0  0  0  0  0  0  0  0  0  0
    5.5876   -1.4594  -20.2647 H   0  0  0  0  0  0  0  0  0  0  0  0
    4.0175   -0.9690  -18.9923 C   0  0  0  0  0  0  0  0  0  0  0  0
    4.5763   -0.0417  -17.9362 C   0  0  0  0  0  0  0  0  0  0  0  0
   11.2999    8.1083   -5.8117 C   0  0  0  0  0  0  0  0  0  0  0  0
   11.4175    9.2616   -6.5672 C   0  0  0  0  0  0  0  0  0  0  0  0
   11.0503    9.2954   -7.9054 C   0  0  0  0  0  0  0  0  0  0  0  0
   10.5527    8.1710   -8.5292 C   0  0  0  0  0  0  0  0  0  0  0  0
   10.1790    8.1361   -9.8208 N   0  0  0  0  0  0  0  0  0  0  0  0
    9.6919    7.0134  -10.4086 C   0  0  0  0  0  0  0  0  0  0  0  0
    9.3627    7.0902  -11.6560 N   0  0  0  0  0  0  0  0  0  0  0  0
    9.5584    5.8677   -9.7179 N   0  0  0  0  0  0  0  0  0  0  0  0
    9.1789    5.0377  -10.2207 H   0  0  0  0  0  0  0  0  0  0  0  0
    9.9271    5.8856   -8.4267 C   0  0  0  0  0  0  0  0  0  0  0  0
   10.4265    6.9974   -7.7836 C   0  0  0  0  0  0  0  0  0  0  0  0
   10.7999    6.9932   -6.4534 C   0  0  0  0  0  0  0  0  0  0  0  0
   12.4526    8.0449   -1.6856 C   0  0  0  0  0  0  0  0  0  0  0  0
   12.3440    9.2317   -2.3700 C   0  0  0  0  0  0  0  0  0  0  0  0
   11.9700    9.2612   -3.7111 C   0  0  0  0  0  0  0  0  0  0  0  0
   11.6936    8.1002   -4.4056 C   0  0  0  0  0  0  0  0  0  0  0  0
   11.8067    6.9159   -3.7056 C   0  0  0  0  0  0  0  0  0  0  0  0
   12.1780    6.8811   -2.3732 C   0  0  0  0  0  0  0  0  0  0  0  0
 37 38  2  0
 38 39  1  0
 39 40  2  0
 40 25  1  0
 25 26  1  0
 26 27  2  0
 27 28  1  0
 28 29  2  0
 29 30  1  0
 30 31  2  0
 31  1  1  0
  1  2  2  0
  2  3  1  0
  3  4  2  0
  4  5  1  0
  5  6  2  0
  5  7  1  0
  7  8  1  0
  8  9  2  0
  9 10  1  0
 10 11  2  0
 11 12  1  0
 12 13  2  0
 11 14  1  0
 15 14  1  1
 15 16  1  0
 16 17  2  0
 15 18  1  0
 18 19  1  0
 19 20  1  0
 20 21  1  6
 20 22  1  0
 20 23  1  0
 23 24  1  0
 30 32  1  0
 32 33  1  0
 32 34  1  0
 34 35  2  0
 35 36  1  0
 40 41  1  0
 41 42  2  0
 42 37  1  0
 36 25  2  0
 35 28  1  0
  6  1  1  0
 13  8  1  0
 24 15  1  0
 13  4  1  0
 16 10  1  0
M  CHG  1  20   1
M  END
>  <minimizedAffinity>  (465) 
-16.91800

$$$$
Mol: 187_47 - SminaDock
     RDKit          3D

 38 44  0  0  0  0  0  0  0  0999 V2000
    8.8246   -1.0387  -17.9641 H   0  0  0  0  0  0  0  0  0  0  0  0
    8.5567   -0.3342  -17.2405 N   0  0  0  0  0  0  0  0  0  0  0  0
    7.4289   -0.3731  -16.6292 C   0  0  0  0  0  0  0  0  0  0  0  0
    7.0193    0.5228  -15.6700 C   0  0  0  0  0  0  0  0  0  0  0  0
    7.5974    1.6590  -15.0795 C   0  0  0  0  0  0  0  0  0  0  0  0
    6.9465    2.3962  -14.1113 C   0  0  0  0  0  0  0  0  0  0  0  0
    5.6946    1.9565  -13.7532 C   0  0  0  0  0  0  0  0  0  0  0  0
    5.1008    0.8262  -14.3302 C   0  0  0  0  0  0  0  0  0  0  0  0
    5.7676    0.1054  -15.2943 C   0  0  0  0  0  0  0  0  0  0  0  0
    5.4789   -0.9689  -15.9998 O   0  0  0  0  0  0  0  0  0  0  0  0
    6.4556   -1.2792  -16.8082 N   0  0  0  0  0  0  0  0  0  0  0  0
    6.4206   -2.1045  -17.4562 H   0  0  0  0  0  0  0  0  0  0  0  0
    4.9041    2.6592  -12.7224 C   0  0  0  0  0  0  0  0  0  0  0  0
    5.5027    3.8627  -12.1506 C   0  0  0  0  0  0  0  0  0  0  0  0
    6.8476    4.2724  -12.5594 C   0  0  0  0  0  0  0  0  0  0  0  0
    7.4215    5.4127  -11.9610 C   0  0  0  0  0  0  0  0  0  0  0  0
    8.6679    5.8245  -12.3244 C   0  0  0  0  0  0  0  0  0  0  0  0
    9.3753    5.1068  -13.2969 C   0  0  0  0  0  0  0  0  0  0  0  0
    8.8282    3.9945  -13.8873 C   0  0  0  0  0  0  0  0  0  0  0  0
    7.5540    3.5825  -13.5083 C   0  0  0  0  0  0  0  0  0  0  0  0
    9.2412    6.9623  -11.7265 N   0  0  0  0  0  0  0  0  0  0  0  0
    9.5777    6.9266  -10.4949 C   0  0  0  0  0  0  0  0  0  0  0  0
    9.3848    5.7892   -9.7516 C   0  0  0  0  0  0  0  0  0  0  0  0
    9.7582    5.7800   -8.4195 C   0  0  0  0  0  0  0  0  0  0  0  0
   10.3194    6.8849   -7.8193 C   0  0  0  0  0  0  0  0  0  0  0  0
   10.7110    6.9487   -6.5149 C   0  0  0  0  0  0  0  0  0  0  0  0
   11.2739    8.0785   -5.9409 C   0  0  0  0  0  0  0  0  0  0  0  0
   11.4387    9.1832   -6.7423 C   0  0  0  0  0  0  0  0  0  0  0  0
   11.0525    9.1526   -8.0691 C   0  0  0  0  0  0  0  0  0  0  0  0
   10.4948    8.0151   -8.6155 C   0  0  0  0  0  0  0  0  0  0  0  0
   10.1216    8.0007   -9.9176 N   0  0  0  0  0  0  0  0  0  0  0  0
   10.2693    8.8614  -10.4739 H   0  0  0  0  0  0  0  0  0  0  0  0
   11.6690    8.0681   -4.5317 C   0  0  0  0  0  0  0  0  0  0  0  0
   12.0203    9.2257   -3.8923 C   0  0  0  0  0  0  0  0  0  0  0  0
   12.3954    9.2238   -2.5626 C   0  0  0  0  0  0  0  0  0  0  0  0
   12.4010    8.0064   -1.9064 C   0  0  0  0  0  0  0  0  0  0  0  0
   12.0506    6.8250   -2.5301 C   0  0  0  0  0  0  0  0  0  0  0  0
   11.6857    6.8706   -3.8463 C   0  0  0  0  0  0  0  0  0  0  0  0
  1  2  1  0
  2  3  2  0
  3  4  1  0
  4  5  2  0
  5  6  1  0
  6  7  2  0
  7  8  1  0
  8  9  2  0
  9 10  1  0
 10 11  1  0
 11 12  1  0
  7 13  1  0
 13 14  1  0
 14 15  1  0
 15 16  2  0
 16 17  1  0
 17 21  1  0
 21 22  2  0
 22 23  1  0
 23 24  2  0
 24 25  1  0
 25 26  2  0
 26 27  1  0
 27 33  1  0
 33 34  2  0
 34 35  1  0
 35 36  2  0
 36 37  1  0
 37 38  2  0
 27 28  2  0
 28 29  1  0
 29 30  2  0
 30 31  1  0
 31 32  1  0
 17 18  2  0
 18 19  1  0
 19 20  2  0
 11  3  1  0
 20 15  1  0
  9  4  1  0
 31 22  1  0
 20  6  1  0
 30 25  1  0
 38 33  1  0
M  END
>  <minimizedAffinity>  (466) 
-16.90398

$$$$
Mol: 198_17 - SminaDock
     RDKit          3D

 38 44  0  0  0  0  0  0  0  0999 V2000
    8.7900    6.1445  -12.3488 C   0  0  0  0  0  0  0  0  0  0  0  0
    9.5133    5.5734  -13.3736 C   0  0  0  0  0  0  0  0  0  0  0  0
    9.0337    4.4334  -13.9821 C   0  0  0  0  0  0  0  0  0  0  0  0
    7.8413    3.8692  -13.5699 C   0  0  0  0  0  0  0  0  0  0  0  0
    7.1061    4.4217  -12.5519 C   0  0  0  0  0  0  0  0  0  0  0  0
    7.6099    5.5637  -11.9598 C   0  0  0  0  0  0  0  0  0  0  0  0
    5.8760    3.6464  -12.2901 C   0  0  0  0  0  0  0  0  0  0  0  0
    5.9360    2.5436  -13.2722 C   0  0  0  0  0  0  0  0  0  0  0  0
    5.0880    1.4741  -13.5476 C   0  0  0  0  0  0  0  0  0  0  0  0
    5.4529    0.6094  -14.5545 C   0  0  0  0  0  0  0  0  0  0  0  0
    6.5986    0.7568  -15.2848 C   0  0  0  0  0  0  0  0  0  0  0  0
    7.4365    1.8092  -15.0165 C   0  0  0  0  0  0  0  0  0  0  0  0
    7.0862    2.6953  -14.0023 C   0  0  0  0  0  0  0  0  0  0  0  0
    6.8942   -0.1872  -16.3059 N   0  0  0  0  0  0  0  0  0  0  0  0
    8.1255    0.0036  -17.0631 C   0  0  0  0  0  0  0  0  0  0  0  0
    6.0466   -1.2857  -16.6047 C   0  0  0  0  0  0  0  0  0  0  0  0
    6.2334   -1.9731  -17.6538 O   0  0  0  0  0  0  0  0  0  0  0  0
    4.9446   -1.6111  -15.6702 C   0  0  0  0  0  0  0  0  0  0  0  0
    4.5860   -0.4922  -14.8437 N   0  0  0  0  0  0  0  0  0  0  0  0
    3.2569   -0.4728  -14.2599 C   0  0  0  0  0  0  0  0  0  0  0  0
   11.2950    8.1499   -5.8458 C   0  0  0  0  0  0  0  0  0  0  0  0
   11.3706    9.3322   -6.5518 C   0  0  0  0  0  0  0  0  0  0  0  0
   10.9746    9.3829   -7.8755 C   0  0  0  0  0  0  0  0  0  0  0  0
   10.4936    8.2802   -8.5474 C   0  0  0  0  0  0  0  0  0  0  0  0
   10.4172    7.0921   -7.8394 C   0  0  0  0  0  0  0  0  0  0  0  0
    9.9340    6.0028   -8.5298 C   0  0  0  0  0  0  0  0  0  0  0  0
    9.5582    6.0906   -9.8186 N   0  0  0  0  0  0  0  0  0  0  0  0
    9.6381    7.2455  -10.4882 C   0  0  0  0  0  0  0  0  0  0  0  0
    9.2834    7.3345  -11.7082 N   0  0  0  0  0  0  0  0  0  0  0  0
   10.1040    8.3256   -9.8467 N   0  0  0  0  0  0  0  0  0  0  0  0
   10.1876    9.2528  -10.3215 H   0  0  0  0  0  0  0  0  0  0  0  0
   10.8134    7.0460   -6.5186 C   0  0  0  0  0  0  0  0  0  0  0  0
   12.4887    7.8669   -1.7747 C   0  0  0  0  0  0  0  0  0  0  0  0
   12.4686    9.0929   -2.4029 C   0  0  0  0  0  0  0  0  0  0  0  0
   12.0788    9.1970   -3.7377 C   0  0  0  0  0  0  0  0  0  0  0  0
   11.7079    8.0747   -4.4473 C   0  0  0  0  0  0  0  0  0  0  0  0
   11.7388    6.8631   -3.7897 C   0  0  0  0  0  0  0  0  0  0  0  0
   12.1202    6.7350   -2.4717 C   0  0  0  0  0  0  0  0  0  0  0  0
 33 34  2  0
 34 35  1  0
 35 36  2  0
 36 21  1  0
 21 22  2  0
 22 23  1  0
 23 24  2  0
 24 25  1  0
 25 26  1  0
 26 27  2  0
 27 28  1  0
 28 29  2  0
 29  1  1  0
  1  2  2  0
  2  3  1  0
  3  4  2  0
  4  5  1  0
  5  6  2  0
  5  7  1  0
  7  8  1  0
  8  9  2  0
  9 10  1  0
 10 11  2  0
 11 12  1  0
 12 13  2  0
 11 14  1  0
 14 15  1  0
 14 16  1  0
 16 17  2  0
 16 18  1  0
 18 19  1  0
 19 20  1  0
 28 30  1  0
 30 31  1  0
 25 32  2  0
 36 37  1  0
 37 38  2  0
 38 33  1  0
 32 21  1  0
 30 24  1  0
  6  1  1  0
 13  8  1  0
 13  4  1  0
 19 10  1  0
M  END
>  <minimizedAffinity>  (467) 
-16.89636

$$$$
Mol: 199_47 - SminaDock
     RDKit          3D

 41 48  0  0  0  0  0  0  0  0999 V2000
    9.1213   -1.5270  -18.5751 H   0  0  0  0  0  0  0  0  0  0  0  0
    8.1631   -1.9374  -18.6039 O   0  0  0  0  0  0  0  0  0  0  0  0
    7.3143   -1.5111  -17.6663 C   0  0  0  0  0  0  0  0  0  0  0  0
    7.5187   -0.1987  -17.2076 N   0  0  0  0  0  0  0  0  0  0  0  0
    6.5971    0.0875  -16.2678 C   0  0  0  0  0  0  0  0  0  0  0  0
    5.9119   -0.9345  -16.1580 C   0  0  0  0  0  0  0  0  0  0  0  0
    5.3479   -1.8289  -16.0917 C   0  0  0  0  0  0  0  0  0  0  0  0
    4.4942   -1.2869  -15.0670 N   0  0  0  0  0  0  0  0  0  0  0  0
    4.8354    0.0966  -14.6415 C   0  0  0  0  0  0  0  0  0  0  0  0
    4.3861    0.7416  -13.5572 C   0  0  0  0  0  0  0  0  0  0  0  0
    5.0256    1.9533  -13.1710 C   0  0  0  0  0  0  0  0  0  0  0  0
    6.1037    2.5042  -13.8760 C   0  0  0  0  0  0  0  0  0  0  0  0
    6.5810    1.8997  -14.9795 C   0  0  0  0  0  0  0  0  0  0  0  0
    5.9233    0.7523  -15.2879 C   0  0  0  0  0  0  0  0  0  0  0  0
    7.7251    2.1999  -15.9154 C   0  0  0  0  0  0  0  0  0  0  0  0
    8.4684    3.3794  -15.4431 C   0  0  0  0  0  0  0  0  0  0  0  0
    8.0580    3.9012  -14.1529 C   0  0  0  0  0  0  0  0  0  0  0  0
    8.9063    4.8350  -13.6114 C   0  0  0  0  0  0  0  0  0  0  0  0
    8.6567    5.4548  -12.4138 C   0  0  0  0  0  0  0  0  0  0  0  0
    7.5111    5.1367  -11.7215 C   0  0  0  0  0  0  0  0  0  0  0  0
    6.6215    4.1964  -12.2286 C   0  0  0  0  0  0  0  0  0  0  0  0
    6.9268    3.6153  -13.4162 C   0  0  0  0  0  0  0  0  0  0  0  0
    6.1989   -2.3875  -17.1223 O   0  0  0  0  0  0  0  0  0  0  0  0
    9.5666    6.4163  -11.8720 N   0  0  0  0  0  0  0  0  0  0  0  0
    9.7999    6.4771  -10.6056 C   0  0  0  0  0  0  0  0  0  0  0  0
    9.1949    5.6272   -9.7033 C   0  0  0  0  0  0  0  0  0  0  0  0
    9.4414    5.7133   -8.3526 C   0  0  0  0  0  0  0  0  0  0  0  0
   10.3188    6.6766   -7.8807 C   0  0  0  0  0  0  0  0  0  0  0  0
   10.5935    6.8143   -6.5401 C   0  0  0  0  0  0  0  0  0  0  0  0
   11.4699    7.7940   -6.0678 C   0  0  0  0  0  0  0  0  0  0  0  0
   12.0522    8.6210   -7.0024 C   0  0  0  0  0  0  0  0  0  0  0  0
   11.7792    8.4846   -8.3485 C   0  0  0  0  0  0  0  0  0  0  0  0
   10.9134    7.5169   -8.8045 C   0  0  0  0  0  0  0  0  0  0  0  0
   10.6452    7.4021  -10.1381 N   0  0  0  0  0  0  0  0  0  0  0  0
   11.1363    8.0708  -10.7688 H   0  0  0  0  0  0  0  0  0  0  0  0
   11.7514    7.9238   -4.6523 C   0  0  0  0  0  0  0  0  0  0  0  0
   12.0816    9.1448   -4.1255 C   0  0  0  0  0  0  0  0  0  0  0  0
   12.3740    9.2922   -2.7639 C   0  0  0  0  0  0  0  0  0  0  0  0
   12.3326    8.2081   -1.9372 C   0  0  0  0  0  0  0  0  0  0  0  0
   12.0023    6.9581   -2.4366 C   0  0  0  0  0  0  0  0  0  0  0  0
   11.7172    6.8476   -3.7939 C   0  0  0  0  0  0  0  0  0  0  0  0
  1  2  1  0
  2  3  1  0
  3  4  2  0
  4  5  1  0
  5  6  1  0
  6  7  2  0
  7  8  1  0
  8  9  2  0
  9 10  1  0
 10 11  2  0
 11 12  1  0
 12 13  2  0
 13 14  1  0
 13 15  1  0
 15 16  1  0
 16 17  1  0
 17 18  2  0
 18 19  1  0
 19 24  1  0
 24 25  2  0
 25 26  1  0
 26 27  2  0
 27 28  1  0
 28 29  2  0
 29 30  1  0
 30 36  1  0
 36 37  2  0
 37 38  1  0
 38 39  2  0
 39 40  1  0
 40 41  2  0
 30 31  2  0
 31 32  1  0
 32 33  2  0
 33 34  1  0
 34 35  1  0
 19 20  2  0
 20 21  1  0
 21 22  2  0
  7 23  1  0
 23  3  1  0
 14  5  2  0
 22 17  1  0
 14  9  1  0
 34 25  1  0
 22 12  1  0
 33 28  1  0
 41 36  1  0
M  END
>  <minimizedAffinity>  (468) 
-16.85661

$$$$
Mol: 159_60 - SminaDock
     RDKit          3D

 45 52  0  0  0  0  0  0  0  0999 V2000
    8.4741    0.1852  -19.3996 H   0  0  0  0  0  0  0  0  0  0  0  0
    8.4997   -0.7827  -19.0437 O   0  0  0  0  0  0  0  0  0  0  0  0
    7.3184   -1.3235  -18.5502 C   0  0  0  0  0  0  0  0  0  0  0  0
    6.7694   -0.7661  -17.4968 C   0  0  0  0  0  0  0  0  0  0  0  0
    7.3956    0.3428  -16.9206 C   0  0  0  0  0  0  0  0  0  0  0  0
    6.8079    0.9158  -15.8171 C   0  0  0  0  0  0  0  0  0  0  0  0
    7.4017    2.0424  -15.1962 C   0  0  0  0  0  0  0  0  0  0  0  0
    6.8297    2.6289  -14.0951 C   0  0  0  0  0  0  0  0  0  0  0  0
    5.6894    2.1515  -13.5736 N   0  0  0  0  0  0  0  0  0  0  0  0
    5.2328    2.5788  -12.7367 H   0  0  0  0  0  0  0  0  0  0  0  0
    5.1173    1.0752  -14.1623 C   0  0  0  0  0  0  0  0  0  0  0  0
    4.0541    0.6264  -13.6796 O   0  0  0  0  0  0  0  0  0  0  0  0
    5.6490    0.4420  -15.2753 C   0  0  0  0  0  0  0  0  0  0  0  0
    5.0613   -0.6372  -15.8550 C   0  0  0  0  0  0  0  0  0  0  0  0
    5.6018   -1.2739  -16.9816 C   0  0  0  0  0  0  0  0  0  0  0  0
    5.0088   -2.2858  -17.4880 N   0  0  0  0  0  0  0  0  0  0  0  0
    5.4684   -2.9981  -18.6207 C   0  0  0  0  0  0  0  0  0  0  0  0
    6.6918   -2.4451  -19.1389 N   0  0  0  0  0  0  0  0  0  0  0  0
    7.1740   -2.8543  -19.9826 H   0  0  0  0  0  0  0  0  0  0  0  0
    7.4465    3.8022  -13.4464 C   0  0  0  0  0  0  0  0  0  0  0  0
    6.8571    4.3960  -12.3332 C   0  0  0  0  0  0  0  0  0  0  0  0
    7.5042    5.5092  -11.7824 C   0  0  0  0  0  0  0  0  0  0  0  0
    8.6579    6.0040  -12.2971 C   0  0  0  0  0  0  0  0  0  0  0  0
    9.2029    5.3926  -13.3888 C   0  0  0  0  0  0  0  0  0  0  0  0
    8.6096    4.2674  -13.9985 C   0  0  0  0  0  0  0  0  0  0  0  0
    9.2707    3.6760  -15.1669 C   0  0  0  0  0  0  0  0  0  0  0  0
    8.6420    2.5241  -15.8018 C   0  0  0  0  0  0  0  0  0  0  0  0
    9.2844    7.1231  -11.7234 N   0  0  0  0  0  0  0  0  0  0  0  0
    9.6230    7.0840  -10.4756 C   0  0  0  0  0  0  0  0  0  0  0  0
   10.2312    8.1407   -9.8750 N   0  0  0  0  0  0  0  0  0  0  0  0
   10.5996    8.1428   -8.5862 C   0  0  0  0  0  0  0  0  0  0  0  0
   11.2160    9.2223   -7.9881 C   0  0  0  0  0  0  0  0  0  0  0  0
   11.5858    9.1881   -6.6411 C   0  0  0  0  0  0  0  0  0  0  0  0
   11.3463    8.0736   -5.8672 C   0  0  0  0  0  0  0  0  0  0  0  0
   10.7296    7.0024   -6.4785 C   0  0  0  0  0  0  0  0  0  0  0  0
   10.3596    7.0274   -7.8119 C   0  0  0  0  0  0  0  0  0  0  0  0
    9.7417    5.9621   -8.4344 C   0  0  0  0  0  0  0  0  0  0  0  0
    9.3821    5.9860   -9.7294 N   0  0  0  0  0  0  0  0  0  0  0  0
    8.9133    5.1820  -10.2086 H   0  0  0  0  0  0  0  0  0  0  0  0
   11.7431    8.0527   -4.4459 C   0  0  0  0  0  0  0  0  0  0  0  0
   11.7789    6.8612   -3.7570 C   0  0  0  0  0  0  0  0  0  0  0  0
   12.1419    6.8043   -2.4356 C   0  0  0  0  0  0  0  0  0  0  0  0
   12.4793    7.9700   -1.7811 C   0  0  0  0  0  0  0  0  0  0  0  0
   12.4462    9.1766   -2.4681 C   0  0  0  0  0  0  0  0  0  0  0  0
   12.0806    9.2130   -3.7892 C   0  0  0  0  0  0  0  0  0  0  0  0
  1  2  1  0
  2  3  1  0
  3  4  2  0
  4  5  1  0
  5  6  2  0
  6  7  1  0
  7  8  2  0
  8  9  1  0
  9 10  1  0
  9 11  1  0
 11 12  2  0
 11 13  1  0
 13 14  2  0
 14 15  1  0
 15 16  2  0
 16 17  1  0
 17 18  1  0
 18 19  1  0
  8 20  1  0
 20 21  2  0
 21 22  1  0
 22 23  2  0
 23 28  1  0
 28 29  2  0
 29 30  1  0
 30 31  2  0
 31 32  1  0
 32 33  2  0
 33 34  1  0
 34 40  1  0
 40 41  2  0
 41 42  1  0
 42 43  2  0
 43 44  1  0
 44 45  2  0
 34 35  2  0
 35 36  1  0
 36 37  2  0
 37 38  1  0
 38 39  1  0
 23 24  1  0
 24 25  2  0
 25 26  1  0
 26 27  1  0
 18  3  1  0
 25 20  1  0
 15  4  1  0
 38 29  1  0
 13  6  1  0
 36 31  1  0
 27  7  1  0
 45 40  1  0
M  END
>  <minimizedAffinity>  (469) 
-16.87721

$$$$
Mol: 121_39 - SminaDock
     RDKit          3D

 37 43  0  0  0  0  0  0  0  0999 V2000
    9.8799   -1.3016  -17.1287 H   0  0  0  0  0  0  0  0  0  0  0  0
    9.8553   -0.8720  -16.2026 O   0  0  0  0  0  0  0  0  0  0  0  0
    9.1140    0.2697  -15.9294 C   0  0  0  0  0  0  0  0  0  0  0  0
    8.5338    0.9657  -16.8464 N   0  0  0  0  0  0  0  0  0  0  0  0
    7.8360    2.0917  -16.2967 C   0  0  0  0  0  0  0  0  0  0  0  0
    7.6136    1.6762  -14.8584 C   0  0  2  0  0  0  0  0  0  0  0  0
    6.3837    0.8885  -14.7583 C   0  0  0  0  0  0  0  0  0  0  0  0
    6.0175   -0.2757  -15.4065 C   0  0  0  0  0  0  0  0  0  0  0  0
    4.7984   -0.8505  -15.1576 C   0  0  0  0  0  0  0  0  0  0  0  0
    3.9418   -0.2422  -14.2449 C   0  0  0  0  0  0  0  0  0  0  0  0
    4.3175    0.9248  -13.5998 C   0  0  0  0  0  0  0  0  0  0  0  0
    5.5469    1.5069  -13.8489 C   0  0  0  0  0  0  0  0  0  0  0  0
    6.2306    2.6987  -13.3538 C   0  0  0  0  0  0  0  0  0  0  0  0
    5.8616    3.6723  -12.4407 C   0  0  0  0  0  0  0  0  0  0  0  0
    6.6833    4.7301  -12.1182 C   0  0  0  0  0  0  0  0  0  0  0  0
    7.9269    4.8557  -12.7075 C   0  0  0  0  0  0  0  0  0  0  0  0
    8.2876    3.8738  -13.6220 C   0  0  0  0  0  0  0  0  0  0  0  0
    7.4698    2.8130  -13.9488 C   0  0  0  0  0  0  0  0  0  0  0  0
    8.8701    0.8642  -14.5889 C   0  0  0  0  0  0  0  0  0  0  0  0
    8.7823    5.9373  -12.3857 N   0  0  0  0  0  0  0  0  0  0  0  0
    9.1586    6.0915  -11.1725 C   0  0  0  0  0  0  0  0  0  0  0  0
    9.9861    7.1241  -10.8147 N   0  0  0  0  0  0  0  0  0  0  0  0
   10.3797    7.2821   -9.5377 C   0  0  0  0  0  0  0  0  0  0  0  0
   11.2132    8.3139   -9.1478 C   0  0  0  0  0  0  0  0  0  0  0  0
   11.6144    8.4721   -7.8355 C   0  0  0  0  0  0  0  0  0  0  0  0
   11.1923    7.5962   -6.8574 C   0  0  0  0  0  0  0  0  0  0  0  0
   10.3607    6.5655   -7.2418 C   0  0  0  0  0  0  0  0  0  0  0  0
    9.9561    6.4049   -8.5629 C   0  0  0  0  0  0  0  0  0  0  0  0
    9.1258    5.3818   -8.9649 C   0  0  0  0  0  0  0  0  0  0  0  0
    8.7293    5.2198  -10.2420 N   0  0  0  0  0  0  0  0  0  0  0  0
    8.0871    4.4177  -10.5172 H   0  0  0  0  0  0  0  0  0  0  0  0
   11.6303    7.7818   -5.4667 C   0  0  0  0  0  0  0  0  0  0  0  0
   11.3908    6.8301   -4.4972 C   0  0  0  0  0  0  0  0  0  0  0  0
   11.7874    6.9731   -3.1863 C   0  0  0  0  0  0  0  0  0  0  0  0
   12.4556    8.1206   -2.8233 C   0  0  0  0  0  0  0  0  0  0  0  0
   12.7161    9.1027   -3.7702 C   0  0  0  0  0  0  0  0  0  0  0  0
   12.3034    8.9237   -5.0722 C   0  0  0  0  0  0  0  0  0  0  0  0
  1  2  1  0
  2  3  1  0
  3  4  2  0
  4  5  1  0
  6  5  1  6
  6  7  1  0
  7  8  2  0
  8  9  1  0
  9 10  2  0
 10 11  1  0
 11 12  2  0
 12 13  1  0
 13 14  2  0
 14 15  1  0
 15 16  2  0
 16 20  1  0
 20 21  2  0
 21 22  1  0
 22 23  2  0
 23 24  1  0
 24 25  2  0
 25 26  1  0
 26 32  1  0
 32 33  2  0
 33 34  1  0
 34 35  2  0
 35 36  1  0
 36 37  2  0
 26 27  2  0
 27 28  1  0
 28 29  2  0
 29 30  1  0
 30 31  1  0
 16 17  1  0
 17 18  2  0
  6 19  1  0
 19  3  1  0
 18  6  1  0
 12  7  1  0
 18 13  1  0
 30 21  1  0
 28 23  1  0
 37 32  1  0
M  END
>  <minimizedAffinity>  (470) 
-16.85605

$$$$
Mol: 150_11 - SminaDock
     RDKit          3D

 39 45  0  0  0  0  0  0  0  0999 V2000
    8.4821    5.7005  -12.2354 C   0  0  0  0  0  0  0  0  0  0  0  0
    7.2584    5.3736  -11.7090 C   0  0  0  0  0  0  0  0  0  0  0  0
    6.5363    4.2799  -12.2021 C   0  0  0  0  0  0  0  0  0  0  0  0
    7.0432    3.5177  -13.2213 C   0  0  0  0  0  0  0  0  0  0  0  0
    8.2820    3.8548  -13.7487 C   0  0  0  0  0  0  0  0  0  0  0  0
    9.0016    4.9459  -13.2562 C   0  0  0  0  0  0  0  0  0  0  0  0
    8.7851    3.0824  -14.7744 O   0  0  0  0  0  0  0  0  0  0  0  0
    8.2005    1.9762  -15.3724 C   0  0  0  0  0  0  0  0  0  0  0  0
    6.8803    1.6306  -14.7969 C   0  0  0  0  0  0  0  0  0  0  0  0
    6.3047    2.3650  -13.7564 C   0  0  0  0  0  0  0  0  0  0  0  0
    5.0761    2.0214  -13.2409 C   0  0  0  0  0  0  0  0  0  0  0  0
    4.3820    0.9211  -13.7584 C   0  0  0  0  0  0  0  0  0  0  0  0
    4.9328    0.1982  -14.7724 C   0  0  0  0  0  0  0  0  0  0  0  0
    6.1731    0.5630  -15.2764 C   0  0  0  0  0  0  0  0  0  0  0  0
    6.7028   -0.2762  -16.3663 C   0  0  0  0  0  0  0  0  0  0  0  0
    5.7116   -0.6430  -17.4269 C   0  0  0  0  0  0  0  0  0  0  0  0
    4.3274   -0.6853  -16.9017 C   0  0  1  0  0  0  0  0  0  0  0  0
    3.4599   -1.5907  -17.6310 N   0  0  0  0  0  0  0  0  0  0  0  0
    3.1453   -1.0856  -18.4885 H   0  0  0  0  0  0  0  0  0  0  0  0
    2.7025   -1.9474  -17.0344 H   0  0  0  0  0  0  0  0  0  0  0  0
    4.3048   -0.9822  -15.4179 C   0  0  0  0  0  0  0  0  0  0  0  0
   11.3441    7.9633   -5.9624 C   0  0  0  0  0  0  0  0  0  0  0  0
   11.6669    9.0041   -6.8076 C   0  0  0  0  0  0  0  0  0  0  0  0
   11.3052    8.9932   -8.1436 C   0  0  0  0  0  0  0  0  0  0  0  0
   10.6055    7.9373   -8.6843 C   0  0  0  0  0  0  0  0  0  0  0  0
   10.2773    6.8903   -7.8476 C   0  0  0  0  0  0  0  0  0  0  0  0
    9.5814    5.8479   -8.4006 C   0  0  0  0  0  0  0  0  0  0  0  0
    9.2196    5.8146   -9.6929 N   0  0  0  0  0  0  0  0  0  0  0  0
    9.5484    6.8417  -10.4881 C   0  0  0  0  0  0  0  0  0  0  0  0
    9.2037    6.8130  -11.7250 N   0  0  0  0  0  0  0  0  0  0  0  0
   10.2379    7.8934   -9.9776 N   0  0  0  0  0  0  0  0  0  0  0  0
   10.4949    8.6947  -10.5962 H   0  0  0  0  0  0  0  0  0  0  0  0
   10.6430    6.9042   -6.5016 C   0  0  0  0  0  0  0  0  0  0  0  0
   12.4888    8.0323   -1.8352 C   0  0  0  0  0  0  0  0  0  0  0  0
   12.4791    9.1903   -2.5814 C   0  0  0  0  0  0  0  0  0  0  0  0
   12.1060    9.1698   -3.9281 C   0  0  0  0  0  0  0  0  0  0  0  0
   11.7366    7.9957   -4.5531 C   0  0  0  0  0  0  0  0  0  0  0  0
   11.7539    6.8446   -3.7834 C   0  0  0  0  0  0  0  0  0  0  0  0
   12.1214    6.8606   -2.4546 C   0  0  0  0  0  0  0  0  0  0  0  0
 34 35  2  0
 35 36  1  0
 36 37  2  0
 37 22  1  0
 22 23  2  0
 23 24  1  0
 24 25  2  0
 25 26  1  0
 26 27  1  0
 27 28  2  0
 28 29  1  0
 29 30  2  0
 30  1  1  0
  1  2  2  0
  2  3  1  0
  3  4  2  0
  4  5  1  0
  5  6  2  0
  5  7  1  0
  7  8  1  0
  8  9  1  0
  9 10  2  0
 10 11  1  0
 11 12  2  0
 12 13  1  0
 13 14  2  0
 14 15  1  0
 15 16  1  0
 16 17  1  0
 17 18  1  6
 18 19  1  0
 18 20  1  0
 17 21  1  0
 29 31  1  0
 31 32  1  0
 26 33  2  0
 37 38  1  0
 38 39  2  0
 39 34  1  0
 33 22  1  0
 31 25  1  0
  6  1  1  0
 14  9  1  0
 10  4  1  0
 21 13  1  0
M  END
>  <minimizedAffinity>  (471) 
-16.87114

$$$$
Mol: 150_19 - SminaDock
     RDKit          3D

 39 45  0  0  0  0  0  0  0  0999 V2000
    8.6820    5.6854  -12.3823 C   0  0  0  0  0  0  0  0  0  0  0  0
    9.4107    4.8909  -13.2224 C   0  0  0  0  0  0  0  0  0  0  0  0
    8.8589    3.7542  -13.7498 C   0  0  0  0  0  0  0  0  0  0  0  0
    7.5345    3.4111  -13.4193 C   0  0  0  0  0  0  0  0  0  0  0  0
    6.8281    4.2180  -12.5802 C   0  0  0  0  0  0  0  0  0  0  0  0
    7.3870    5.3820  -12.0375 C   0  0  0  0  0  0  0  0  0  0  0  0
    5.4394    3.9225  -12.1851 C   0  0  0  0  0  0  0  0  0  0  0  0
    4.8066    2.7202  -12.7472 C   0  0  0  0  0  0  0  0  0  0  0  0
    5.6557    1.9118  -13.6390 C   0  0  0  0  0  0  0  0  0  0  0  0
    6.9342    2.2170  -13.9700 C   0  0  0  0  0  0  0  0  0  0  0  0
    7.4589    1.2844  -14.8125 N   0  0  0  0  0  0  0  0  0  0  0  0
    6.5220    0.3271  -15.0598 C   0  0  0  0  0  0  0  0  0  0  0  0
    6.5188   -0.8205  -15.8248 C   0  0  0  0  0  0  0  0  0  0  0  0
    5.3649   -1.5741  -15.8452 C   0  0  0  0  0  0  0  0  0  0  0  0
    5.3110   -2.7816  -16.6290 N   0  0  0  0  0  0  0  0  0  0  0  0
    5.1187   -3.6722  -16.1579 H   0  0  0  0  0  0  0  0  0  0  0  0
    5.4629   -2.7666  -17.6584 H   0  0  0  0  0  0  0  0  0  0  0  0
    4.2883   -1.1819  -15.1326 N   0  0  0  0  0  0  0  0  0  0  0  0
    3.4364   -1.7854  -15.1791 H   0  0  0  0  0  0  0  0  0  0  0  0
    4.2417   -0.0779  -14.3761 C   0  0  0  0  0  0  0  0  0  0  0  0
    5.3476    0.7316  -14.2984 C   0  0  0  0  0  0  0  0  0  0  0  0
   11.2305    8.0538   -6.0403 C   0  0  0  0  0  0  0  0  0  0  0  0
   11.3517    9.1768   -6.8407 C   0  0  0  0  0  0  0  0  0  0  0  0
   10.9782    9.1871   -8.1603 C   0  0  0  0  0  0  0  0  0  0  0  0
   10.4551    8.0466   -8.7482 C   0  0  0  0  0  0  0  0  0  0  0  0
   10.3230    6.9086   -7.9693 C   0  0  0  0  0  0  0  0  0  0  0  0
    9.8082    5.7589   -8.5182 C   0  0  0  0  0  0  0  0  0  0  0  0
    9.4479    5.8056   -9.8313 N   0  0  0  0  0  0  0  0  0  0  0  0
    9.5851    6.9140  -10.5598 C   0  0  0  0  0  0  0  0  0  0  0  0
    9.2211    6.8873  -11.8057 N   0  0  0  0  0  0  0  0  0  0  0  0
   10.0856    8.0450  -10.0406 N   0  0  0  0  0  0  0  0  0  0  0  0
   10.1891    8.9090  -10.6203 H   0  0  0  0  0  0  0  0  0  0  0  0
   10.7081    6.9205   -6.6336 C   0  0  0  0  0  0  0  0  0  0  0  0
   12.3861    7.9795   -1.9235 C   0  0  0  0  0  0  0  0  0  0  0  0
   12.0204    6.8270   -2.5790 C   0  0  0  0  0  0  0  0  0  0  0  0
   11.6484    6.8558   -3.9071 C   0  0  0  0  0  0  0  0  0  0  0  0
   11.6253    8.0349   -4.6372 C   0  0  0  0  0  0  0  0  0  0  0  0
   11.9940    9.1866   -3.9705 C   0  0  0  0  0  0  0  0  0  0  0  0
   12.3703    9.1627   -2.6301 C   0  0  0  0  0  0  0  0  0  0  0  0
 34 35  2  0
 35 36  1  0
 36 37  2  0
 37 22  1  0
 22 23  2  0
 23 24  1  0
 24 25  2  0
 25 26  1  0
 26 27  1  0
 27 28  2  0
 28 29  1  0
 29 30  2  0
 30  1  1  0
  1  2  2  0
  2  3  1  0
  3  4  2  0
  4  5  1  0
  5  6  2  0
  5  7  1  0
  7  8  1  0
  8  9  1  0
  9 10  2  0
 10 11  1  0
 11 12  2  0
 12 13  1  0
 13 14  2  0
 14 15  1  0
 15 16  1  0
 15 17  1  0
 14 18  1  0
 18 19  1  0
 18 20  1  0
 20 21  2  0
 29 31  1  0
 31 32  1  0
 26 33  2  0
 37 38  1  0
 38 39  2  0
 39 34  1  0
 33 22  1  0
 31 25  1  0
  6  1  1  0
 21  9  1  0
 10  4  1  0
 21 12  1  0
M  END
>  <minimizedAffinity>  (472) 
-16.85119

$$$$
Mol: 169_22 - SminaDock
     RDKit          3D

 38 44  0  0  0  0  0  0  0  0999 V2000
    8.7706    5.6942  -12.3973 C   0  0  0  0  0  0  0  0  0  0  0  0
    9.5075    4.8981  -13.2384 C   0  0  0  0  0  0  0  0  0  0  0  0
    8.9200    3.7817  -13.7932 C   0  0  0  0  0  0  0  0  0  0  0  0
    7.5976    3.4490  -13.5164 C   0  0  0  0  0  0  0  0  0  0  0  0
    6.8437    4.2369  -12.6784 C   0  0  0  0  0  0  0  0  0  0  0  0
    7.4766    5.3562  -12.1371 C   0  0  0  0  0  0  0  0  0  0  0  0
    5.4129    4.0073  -12.3977 C   0  0  0  0  0  0  0  0  0  0  0  0
    4.9650    2.6269  -12.6108 C   0  0  0  0  0  0  0  0  0  0  0  0
    5.7016    1.8978  -13.6360 C   0  0  0  0  0  0  0  0  0  0  0  0
    6.9842    2.2073  -14.0315 C   0  0  0  0  0  0  0  0  0  0  0  0
    7.6577    1.4610  -14.9264 N   0  0  0  0  0  0  0  0  0  0  0  0
    8.6209    1.7207  -15.2012 H   0  0  0  0  0  0  0  0  0  0  0  0
    7.0795    0.3712  -15.4707 C   0  0  0  0  0  0  0  0  0  0  0  0
    7.6866   -0.3483  -16.3127 O   0  0  0  0  0  0  0  0  0  0  0  0
    5.8157    0.0118  -15.1262 C   0  0  0  0  0  0  0  0  0  0  0  0
    5.1320    0.7550  -14.2269 C   0  0  0  0  0  0  0  0  0  0  0  0
    3.9333    0.2171  -14.0503 N   0  0  0  0  0  0  0  0  0  0  0  0
    3.8768   -0.8679  -14.8478 C   0  0  0  0  0  0  0  0  0  0  0  0
    5.0235   -1.0237  -15.5267 N   0  0  0  0  0  0  0  0  0  0  0  0
    5.4013   -2.0389  -16.4834 C   0  0  0  0  0  0  0  0  0  0  0  0
   11.2769    7.9981   -5.9693 C   0  0  0  0  0  0  0  0  0  0  0  0
   11.4685    9.0979   -6.7860 C   0  0  0  0  0  0  0  0  0  0  0  0
   11.1183    9.0836   -8.1203 C   0  0  0  0  0  0  0  0  0  0  0  0
   10.5554    7.9517   -8.6945 C   0  0  0  0  0  0  0  0  0  0  0  0
   10.3599    6.8487   -7.8884 C   0  0  0  0  0  0  0  0  0  0  0  0
    9.8050    5.7306   -8.4497 C   0  0  0  0  0  0  0  0  0  0  0  0
    9.4739    5.7546   -9.7640 N   0  0  0  0  0  0  0  0  0  0  0  0
    9.6597    6.8122  -10.5430 C   0  0  0  0  0  0  0  0  0  0  0  0
    9.3586    6.8750  -11.7958 N   0  0  0  0  0  0  0  0  0  0  0  0
   10.2083    7.9296  -10.0044 N   0  0  0  0  0  0  0  0  0  0  0  0
   10.3772    8.7921  -10.5729 H   0  0  0  0  0  0  0  0  0  0  0  0
   10.7170    6.8792   -6.5503 C   0  0  0  0  0  0  0  0  0  0  0  0
   12.3710    8.0303   -1.8262 C   0  0  0  0  0  0  0  0  0  0  0  0
   12.0064    6.8667   -2.4701 C   0  0  0  0  0  0  0  0  0  0  0  0
   11.6529    6.8632   -3.8132 C   0  0  0  0  0  0  0  0  0  0  0  0
   11.6540    8.0304   -4.5545 C   0  0  0  0  0  0  0  0  0  0  0  0
   12.0206    9.1874   -3.8988 C   0  0  0  0  0  0  0  0  0  0  0  0
   12.3740    9.1975   -2.5601 C   0  0  0  0  0  0  0  0  0  0  0  0
 33 34  2  0
 34 35  1  0
 35 36  2  0
 36 21  1  0
 21 22  2  0
 22 23  1  0
 23 24  2  0
 24 25  1  0
 25 26  1  0
 26 27  2  0
 27 28  1  0
 28 29  2  0
 29  1  1  0
  1  2  2  0
  2  3  1  0
  3  4  2  0
  4  5  1  0
  5  6  2  0
  5  7  1  0
  7  8  1  0
  8  9  1  0
  9 10  2  0
 10 11  1  0
 11 12  1  0
 11 13  1  0
 13 14  2  0
 13 15  1  0
 15 16  2  0
 16 17  1  0
 17 18  2  0
 18 19  1  0
 19 20  1  0
 28 30  1  0
 30 31  1  0
 25 32  2  0
 36 37  1  0
 37 38  2  0
 38 33  1  0
 32 21  1  0
 30 24  1  0
  6  1  1  0
 16  9  1  0
 10  4  1  0
 19 15  1  0
M  END
>  <minimizedAffinity>  (473) 
-16.85072

$$$$
Mol: 199_41 - SminaDock
     RDKit          3D

 35 41  0  0  0  0  0  0  0  0999 V2000
   11.3023    8.0320   -5.9522 C   0  0  0  0  0  0  0  0  0  0  0  0
   11.5072    9.1219   -6.7611 C   0  0  0  0  0  0  0  0  0  0  0  0
   11.1271    9.1240   -8.1065 C   0  0  0  0  0  0  0  0  0  0  0  0
   10.5358    7.9917   -8.6029 C   0  0  0  0  0  0  0  0  0  0  0  0
   10.3047    6.8583   -7.8256 C   0  0  0  0  0  0  0  0  0  0  0  0
   10.7029    6.9220   -6.5090 C   0  0  0  0  0  0  0  0  0  0  0  0
    9.7055    5.7497   -8.3833 C   0  0  0  0  0  0  0  0  0  0  0  0
    9.3393    5.7708   -9.7060 C   0  0  0  0  0  0  0  0  0  0  0  0
    9.5771    6.9074  -10.4637 C   0  0  0  0  0  0  0  0  0  0  0  0
    9.2277    6.9145  -11.7060 N   0  0  0  0  0  0  0  0  0  0  0  0
   10.1623    7.9686   -9.8891 N   0  0  0  0  0  0  0  0  0  0  0  0
   10.3123    8.8007  -10.5295 H   0  0  0  0  0  0  0  0  0  0  0  0
    8.6052    5.7864  -12.3175 C   0  0  0  0  0  0  0  0  0  0  0  0
    9.1752    5.1827  -13.4290 C   0  0  0  0  0  0  0  0  0  0  0  0
    8.5778    4.0917  -14.0243 C   0  0  0  0  0  0  0  0  0  0  0  0
    7.3913    3.5524  -13.5448 C   0  0  0  0  0  0  0  0  0  0  0  0
    6.8273    4.1538  -12.4411 C   0  0  0  0  0  0  0  0  0  0  0  0
    7.4284    5.2499  -11.8437 C   0  0  0  0  0  0  0  0  0  0  0  0
    5.5774    3.3837  -12.1420 C   0  0  0  0  0  0  0  0  0  0  0  0
    5.5329    2.3313  -13.1780 C   0  0  0  0  0  0  0  0  0  0  0  0
    4.5906    1.3355  -13.3766 C   0  0  0  0  0  0  0  0  0  0  0  0
    4.7434    0.4486  -14.4151 C   0  0  0  0  0  0  0  0  0  0  0  0
    5.8243    0.5410  -15.2592 C   0  0  0  0  0  0  0  0  0  0  0  0
    6.7682    1.5283  -15.0707 C   0  0  0  0  0  0  0  0  0  0  0  0
    6.6170    2.4298  -14.0188 C   0  0  0  0  0  0  0  0  0  0  0  0
    5.7712   -0.4463  -16.2215 O   0  0  0  0  0  0  0  0  0  0  0  0
    4.4755   -1.0552  -16.2186 C   0  0  0  0  0  0  0  0  0  0  0  0
    3.9430   -0.6923  -14.8852 C   0  0  0  0  0  0  0  0  0  0  0  0
    2.9899   -1.2588  -14.2827 O   0  0  0  0  0  0  0  0  0  0  0  0
   12.4614    7.9943   -1.8269 C   0  0  0  0  0  0  0  0  0  0  0  0
   12.4025    9.1828   -2.5257 C   0  0  0  0  0  0  0  0  0  0  0  0
   12.0268    9.1793   -3.8567 C   0  0  0  0  0  0  0  0  0  0  0  0
   11.6998    8.0268   -4.5405 C   0  0  0  0  0  0  0  0  0  0  0  0
   11.7606    6.8366   -3.8342 C   0  0  0  0  0  0  0  0  0  0  0  0
   12.1349    6.8383   -2.5074 C   0  0  0  0  0  0  0  0  0  0  0  0
 30 31  2  0
 31 32  1  0
 32 33  2  0
 33  1  1  0
  1  2  2  0
  2  3  1  0
  3  4  2  0
  4  5  1  0
  5  6  2  0
  5  7  1  0
  7  8  2  0
  8  9  1  0
  9 10  2  0
 10 13  1  0
 13 14  2  0
 14 15  1  0
 15 16  2  0
 16 17  1  0
 17 18  2  0
 17 19  1  0
 19 20  1  0
 20 21  2  0
 21 22  1  0
 22 23  2  0
 23 24  1  0
 24 25  2  0
 23 26  1  0
 26 27  1  0
 27 28  1  0
 28 29  2  0
  9 11  1  0
 11 12  1  0
 33 34  1  0
 34 35  2  0
 35 30  1  0
  6  1  1  0
 18 13  1  0
 25 20  1  0
 11  4  1  0
 25 16  1  0
 28 22  1  0
M  END
>  <minimizedAffinity>  (474) 
-16.88964

$$$$
Mol: 136_62 - SminaDock
     RDKit          3D

 43 50  0  0  0  0  0  0  0  0999 V2000
    9.5690    5.7429  -16.6642 H   0  0  0  0  0  0  0  0  0  0  0  0
    9.2070    5.0725  -15.9664 O   0  0  0  0  0  0  0  0  0  0  0  0
    9.6345    3.7802  -15.9303 C   0  0  0  0  0  0  0  0  0  0  0  0
   10.5014    3.2799  -16.7378 N   0  0  0  0  0  0  0  0  0  0  0  0
   10.8863    1.8942  -16.6122 C   0  0  0  0  0  0  0  0  0  0  0  0
   11.1900    1.1848  -17.5957 O   0  0  0  0  0  0  0  0  0  0  0  0
   10.9304    1.2613  -15.2592 C   0  0  0  0  0  0  0  0  0  0  0  0
   10.3140    2.1924  -14.2743 C   0  0  0  0  0  0  0  0  0  0  0  0
    9.0651    2.8559  -14.8808 C   0  0  1  0  0  0  0  0  0  0  0  0
    8.4093    3.6725  -13.8438 C   0  0  0  0  0  0  0  0  0  0  0  0
    9.1111    4.7519  -13.3023 C   0  0  0  0  0  0  0  0  0  0  0  0
    8.6085    5.5500  -12.3041 C   0  0  0  0  0  0  0  0  0  0  0  0
    7.3408    5.2875  -11.7935 C   0  0  0  0  0  0  0  0  0  0  0  0
    6.6301    4.2237  -12.3172 C   0  0  0  0  0  0  0  0  0  0  0  0
    7.1697    3.4442  -13.3220 C   0  0  0  0  0  0  0  0  0  0  0  0
    6.4022    2.3481  -13.9119 C   0  0  0  0  0  0  0  0  0  0  0  0
    5.1718    1.8748  -13.5533 N   0  0  0  0  0  0  0  0  0  0  0  0
    4.9024    0.8278  -14.3524 C   0  0  0  0  0  0  0  0  0  0  0  0
    3.8038   -0.0291  -14.4338 C   0  0  0  0  0  0  0  0  0  0  0  0
    3.7794   -1.0421  -15.3587 C   0  0  0  0  0  0  0  0  0  0  0  0
    4.8671   -1.1804  -16.1946 C   0  0  0  0  0  0  0  0  0  0  0  0
    5.9584   -0.3236  -16.1086 C   0  0  0  0  0  0  0  0  0  0  0  0
    5.9784    0.6865  -15.1832 C   0  0  0  0  0  0  0  0  0  0  0  0
    6.9249    1.6469  -14.9062 N   0  0  0  0  0  0  0  0  0  0  0  0
    8.1918    1.8989  -15.5519 C   0  0  0  0  0  0  0  0  0  0  0  0
    9.4082    6.6132  -11.8346 N   0  0  0  0  0  0  0  0  0  0  0  0
    9.7163    6.7253  -10.5763 C   0  0  0  0  0  0  0  0  0  0  0  0
   10.4805    7.7415  -10.1268 N   0  0  0  0  0  0  0  0  0  0  0  0
   10.7654    7.8011   -8.8041 C   0  0  0  0  0  0  0  0  0  0  0  0
   11.5461    8.8207   -8.2800 C   0  0  0  0  0  0  0  0  0  0  0  0
   11.8171    8.8508   -6.9277 C   0  0  0  0  0  0  0  0  0  0  0  0
   11.3434    7.9008   -6.0474 C   0  0  0  0  0  0  0  0  0  0  0  0
   10.5739    6.8947   -6.5591 C   0  0  0  0  0  0  0  0  0  0  0  0
   10.2949    6.8546   -7.9197 C   0  0  0  0  0  0  0  0  0  0  0  0
    9.5057    5.8137   -8.4138 C   0  0  0  0  0  0  0  0  0  0  0  0
    9.2481    5.7929   -9.7299 N   0  0  0  0  0  0  0  0  0  0  0  0
    8.6476    4.9992  -10.0994 H   0  0  0  0  0  0  0  0  0  0  0  0
   11.6727    7.9951   -4.6178 C   0  0  0  0  0  0  0  0  0  0  0  0
   11.6315    6.8725   -3.8291 C   0  0  0  0  0  0  0  0  0  0  0  0
   11.9311    6.9197   -2.4982 C   0  0  0  0  0  0  0  0  0  0  0  0
   12.2824    8.1312   -1.9439 C   0  0  0  0  0  0  0  0  0  0  0  0
   12.3392    9.2930   -2.6943 C   0  0  0  0  0  0  0  0  0  0  0  0
   12.0275    9.1940   -4.0354 C   0  0  0  0  0  0  0  0  0  0  0  0
  1  2  1  0
  2  3  1  0
  3  4  2  0
  4  5  1  0
  5  6  2  0
  5  7  1  0
  7  8  1  0
  9  8  1  1
  9 10  1  0
 10 11  2  0
 11 12  1  0
 12 26  1  0
 26 27  2  0
 27 28  1  0
 28 29  2  0
 29 30  1  0
 30 31  2  0
 31 32  1  0
 32 38  1  0
 38 39  2  0
 39 40  1  0
 40 41  2  0
 41 42  1  0
 42 43  2  0
 32 33  2  0
 33 34  1  0
 34 35  2  0
 35 36  1  0
 36 37  1  0
 12 13  2  0
 13 14  1  0
 14 15  2  0
 15 16  1  0
 16 17  2  0
 17 18  1  0
 18 19  2  0
 19 20  1  0
 20 21  2  0
 21 22  1  0
 22 23  2  0
 23 24  1  0
 24 25  1  0
  9  3  1  0
 15 10  1  0
 24 16  1  0
 25  9  1  0
 36 27  1  0
 23 18  1  0
 34 29  1  0
 43 38  1  0
M  END
>  <minimizedAffinity>  (475) 
-16.86308

$$$$
Mol: 112_56 - SminaDock
     RDKit          3D

 44 50  0  0  0  0  0  0  0  0999 V2000
    4.3425   -0.1958  -14.8268 C   0  0  0  0  0  0  0  0  0  0  0  0
    4.1034   -0.9055  -15.9272 N   0  0  0  0  0  0  0  0  0  0  0  0
    4.8172   -0.6695  -17.0485 C   0  0  0  0  0  0  0  0  0  0  0  0
    5.8154    0.3100  -17.0973 C   0  0  0  0  0  0  0  0  0  0  0  0
    6.0726    1.0489  -15.9714 C   0  0  0  0  0  0  0  0  0  0  0  0
    5.3114    0.7679  -14.8435 C   0  0  0  0  0  0  0  0  0  0  0  0
    5.4922    1.4802  -13.5743 C   0  0  0  0  0  0  0  0  0  0  0  0
    4.7944    1.0951  -12.6093 O   0  0  0  0  0  0  0  0  0  0  0  0
    6.3830    2.5901  -13.2774 C   0  0  0  0  0  0  0  0  0  0  0  0
    5.9593    3.3805  -12.2293 C   0  0  0  0  0  0  0  0  0  0  0  0
    6.6995    4.4823  -11.8718 C   0  0  0  0  0  0  0  0  0  0  0  0
    7.8600    4.8313  -12.5269 C   0  0  0  0  0  0  0  0  0  0  0  0
    8.2788    4.0418  -13.5693 C   0  0  0  0  0  0  0  0  0  0  0  0
    7.5693    2.9364  -13.9533 C   0  0  0  0  0  0  0  0  0  0  0  0
    8.1471    2.1558  -15.0857 C   0  0  1  0  0  0  0  0  0  0  0  0
    7.1465    2.0413  -16.1943 C   0  0  0  0  0  0  0  0  0  0  0  0
    9.4119    2.7945  -15.6076 C   0  0  0  0  0  0  0  0  0  0  0  0
   10.1376    1.8990  -16.5986 C   0  0  0  0  0  0  0  0  0  0  0  0
   10.4949    0.6249  -15.8633 C   0  0  0  0  0  0  0  0  0  0  0  0
    9.1908   -0.0731  -15.5513 C   0  0  0  0  0  0  0  0  0  0  0  0
    8.4536    0.7722  -14.5403 C   0  0  0  0  0  0  0  0  0  0  0  0
    8.6127    5.9956  -12.1255 N   0  0  0  0  0  0  0  0  0  0  0  0
    9.0469    6.1506  -10.9407 C   0  0  0  0  0  0  0  0  0  0  0  0
    8.8122    5.2153  -10.0093 N   0  0  0  0  0  0  0  0  0  0  0  0
    9.2574    5.3456   -8.7406 C   0  0  0  0  0  0  0  0  0  0  0  0
    9.9713    6.4660   -8.3885 C   0  0  0  0  0  0  0  0  0  0  0  0
   10.4404    6.6210   -7.0832 C   0  0  0  0  0  0  0  0  0  0  0  0
   11.1568    7.7374   -6.7144 C   0  0  0  0  0  0  0  0  0  0  0  0
   11.3816    8.6806   -7.6939 C   0  0  0  0  0  0  0  0  0  0  0  0
   10.9287    8.5449   -8.9799 C   0  0  0  0  0  0  0  0  0  0  0  0
   10.2137    7.4278   -9.3425 C   0  0  0  0  0  0  0  0  0  0  0  0
    9.7411    7.2385  -10.5954 N   0  0  0  0  0  0  0  0  0  0  0  0
    9.9281    7.9705  -11.3126 H   0  0  0  0  0  0  0  0  0  0  0  0
   11.6399    7.8912   -5.3579 C   0  0  0  0  0  0  0  0  0  0  0  0
   12.3402    9.0144   -4.9509 C   0  0  0  0  0  0  0  0  0  0  0  0
   12.7973    9.1537   -3.6585 C   0  0  0  0  0  0  0  0  0  0  0  0
   12.5564    8.1554   -2.7402 C   0  0  0  0  0  0  0  0  0  0  0  0
   11.8598    7.0142   -3.1034 C   0  0  0  0  0  0  0  0  0  0  0  0
   11.4166    6.9096   -4.4100 C   0  0  0  0  0  0  0  0  0  0  0  0
    4.5055   -1.4821  -18.2205 C   0  0  0  0  0  0  0  0  0  0  0  0
    5.4754   -1.7316  -19.0124 O   0  0  0  0  0  0  0  0  0  0  0  0
    3.2019   -1.9657  -18.4644 N   0  0  0  0  0  0  0  0  0  0  0  0
    2.7219   -1.7551  -19.3798 H   0  0  0  0  0  0  0  0  0  0  0  0
    2.6812   -2.5362  -17.7607 H   0  0  0  0  0  0  0  0  0  0  0  0
  1  2  2  0
  2  3  1  0
  3 40  1  0
 40 41  2  0
 40 42  1  0
 42 43  1  0
 42 44  1  0
  3  4  2  0
  4  5  1  0
  5  6  2  0
  6  7  1  0
  7  8  2  0
  7  9  1  0
  9 10  2  0
 10 11  1  0
 11 12  2  0
 12 22  1  0
 22 23  2  0
 23 24  1  0
 24 25  2  0
 25 26  1  0
 26 27  2  0
 27 28  1  0
 28 34  1  0
 34 35  2  0
 35 36  1  0
 36 37  2  0
 37 38  1  0
 38 39  2  0
 28 29  2  0
 29 30  1  0
 30 31  2  0
 31 32  1  0
 32 33  1  0
 12 13  1  0
 13 14  2  0
 14 15  1  0
 15 16  1  6
 15 17  1  0
 17 18  1  0
 18 19  1  0
 19 20  1  0
 20 21  1  0
  6  1  1  0
 14  9  1  0
 21 15  1  0
 16  5  1  0
 32 23  1  0
 31 26  1  0
 39 34  1  0
M  END
>  <minimizedAffinity>  (476) 
-16.91406

$$$$
Mol: 164_22 - SminaDock
     RDKit          3D

 37 43  0  0  0  0  0  0  0  0999 V2000
    2.6783   -2.0931  -14.1487 H   0  0  0  0  0  0  0  0  0  0  0  0
    2.6558   -1.2493  -14.7340 O   0  0  0  0  0  0  0  0  0  0  0  0
    3.7838   -0.4253  -14.6507 C   0  0  0  0  0  0  0  0  0  0  0  0
    4.9106   -0.6390  -15.3325 N   0  0  0  0  0  0  0  0  0  0  0  0
    5.7743    0.3492  -15.0050 C   0  0  0  0  0  0  0  0  0  0  0  0
    7.0692    0.6646  -15.3750 C   0  0  0  0  0  0  0  0  0  0  0  0
    7.7016    1.7767  -14.8488 C   0  0  0  0  0  0  0  0  0  0  0  0
    7.0460    2.5958  -13.9394 C   0  0  0  0  0  0  0  0  0  0  0  0
    5.7651    2.3072  -13.5563 C   0  0  0  0  0  0  0  0  0  0  0  0
    5.1499    1.1731  -14.1068 C   0  0  0  0  0  0  0  0  0  0  0  0
    3.9532    0.6506  -13.9355 O   0  0  0  0  0  0  0  0  0  0  0  0
    4.9476    3.0763  -12.6094 C   0  0  0  0  0  0  0  0  0  0  0  0
    5.6036    4.2702  -12.0264 C   0  0  0  0  0  0  0  0  0  0  0  0
    6.9726    4.5416  -12.4689 C   0  0  0  0  0  0  0  0  0  0  0  0
    7.5828    5.6573  -11.9343 C   0  0  0  0  0  0  0  0  0  0  0  0
    8.8605    6.0396  -12.2520 C   0  0  0  0  0  0  0  0  0  0  0  0
    9.5379    5.2512  -13.1492 C   0  0  0  0  0  0  0  0  0  0  0  0
    8.9799    4.1110  -13.7261 C   0  0  0  0  0  0  0  0  0  0  0  0
    7.6938    3.7718  -13.3730 C   0  0  0  0  0  0  0  0  0  0  0  0
    9.4432    7.1993  -11.6721 N   0  0  0  0  0  0  0  0  0  0  0  0
    9.7647    7.1220  -10.4025 C   0  0  0  0  0  0  0  0  0  0  0  0
    9.5512    6.0025   -9.6953 N   0  0  0  0  0  0  0  0  0  0  0  0
    9.8782    5.9208   -8.3972 C   0  0  0  0  0  0  0  0  0  0  0  0
   10.4465    6.9782   -7.7315 C   0  0  0  0  0  0  0  0  0  0  0  0
   10.8019    6.9498   -6.4001 C   0  0  0  0  0  0  0  0  0  0  0  0
   11.3728    8.0473   -5.7776 C   0  0  0  0  0  0  0  0  0  0  0  0
   11.5963    9.2079   -6.5029 C   0  0  0  0  0  0  0  0  0  0  0  0
   11.2328    9.2100   -7.8288 C   0  0  0  0  0  0  0  0  0  0  0  0
   10.6613    8.1337   -8.4814 C   0  0  0  0  0  0  0  0  0  0  0  0
   10.3201    8.1726   -9.7740 N   0  0  0  0  0  0  0  0  0  0  0  0
   10.5079    9.0753  -10.2886 H   0  0  0  0  0  0  0  0  0  0  0  0
   11.7569    8.0432   -4.3698 C   0  0  0  0  0  0  0  0  0  0  0  0
   11.7708    6.8562   -3.6673 C   0  0  0  0  0  0  0  0  0  0  0  0
   12.1365    6.8702   -2.3377 C   0  0  0  0  0  0  0  0  0  0  0  0
   12.4859    8.0415   -1.7029 C   0  0  0  0  0  0  0  0  0  0  0  0
   12.4583    9.2070   -2.4433 C   0  0  0  0  0  0  0  0  0  0  0  0
   12.1001    9.2402   -3.7713 C   0  0  0  0  0  0  0  0  0  0  0  0
  1  2  1  0
  2  3  1  0
  3  4  2  0
  4  5  1  0
  5  6  2  0
  6  7  1  0
  7  8  2  0
  8  9  1  0
  9 10  2  0
 10 11  1  0
  9 12  1  0
 12 13  1  0
 13 14  1  0
 14 15  2  0
 15 16  1  0
 16 20  1  0
 20 21  2  0
 21 22  1  0
 22 23  2  0
 23 24  1  0
 24 25  2  0
 25 26  1  0
 26 32  1  0
 32 33  2  0
 33 34  1  0
 34 35  2  0
 35 36  1  0
 36 37  2  0
 26 27  2  0
 27 28  1  0
 28 29  2  0
 29 30  1  0
 30 31  1  0
 16 17  2  0
 17 18  1  0
 18 19  2  0
 11  3  1  0
 19 14  1  0
 10  5  1  0
 30 21  1  0
 19  8  1  0
 29 24  1  0
 37 32  1  0
M  END
>  <minimizedAffinity>  (477) 
-16.91822

$$$$
Mol: 196_8 - SminaDock
     RDKit          3D

 40 46  0  0  0  0  0  0  0  0999 V2000
    8.5929    5.5124  -12.3909 C   0  0  0  0  0  0  0  0  0  0  0  0
    9.2421    4.8667  -13.4373 C   0  0  0  0  0  0  0  0  0  0  0  0
    8.6471    3.8041  -14.0720 C   0  0  0  0  0  0  0  0  0  0  0  0
    7.3864    3.3838  -13.6522 C   0  0  0  0  0  0  0  0  0  0  0  0
    6.7249    4.0016  -12.6250 C   0  0  0  0  0  0  0  0  0  0  0  0
    7.3581    5.0756  -12.0047 C   0  0  0  0  0  0  0  0  0  0  0  0
    5.4105    3.3432  -12.4011 C   0  0  0  0  0  0  0  0  0  0  0  0
    5.3768    2.2569  -13.3875 C   0  0  0  0  0  0  0  0  0  0  0  0
    4.4301    1.2617  -13.6843 C   0  0  0  0  0  0  0  0  0  0  0  0
    4.6258    0.3294  -14.6826 C   0  0  0  0  0  0  0  0  0  0  0  0
    5.7850    0.3675  -15.4203 C   0  0  0  0  0  0  0  0  0  0  0  0
    6.7316    1.3525  -15.1322 C   0  0  0  0  0  0  0  0  0  0  0  0
    6.5297    2.2917  -14.1216 C   0  0  0  0  0  0  0  0  0  0  0  0
    5.7715   -0.7115  -16.4343 C   0  0  1  0  0  0  0  0  0  0  0  0
    4.5457   -1.4385  -16.2308 N   0  0  0  0  0  0  0  0  0  0  0  0
    4.2584   -2.2973  -16.7866 H   0  0  0  0  0  0  0  0  0  0  0  0
    3.8415   -0.7991  -15.1843 C   0  0  0  0  0  0  0  0  0  0  0  0
    2.7131   -1.1644  -14.7655 O   0  0  0  0  0  0  0  0  0  0  0  0
   11.3054    7.9642   -5.9710 C   0  0  0  0  0  0  0  0  0  0  0  0
   11.5454    8.9900   -6.8600 C   0  0  0  0  0  0  0  0  0  0  0  0
   11.1810    8.9163   -8.1874 C   0  0  0  0  0  0  0  0  0  0  0  0
   10.5511    7.7926   -8.6848 C   0  0  0  0  0  0  0  0  0  0  0  0
   10.3024    6.7557   -7.8100 C   0  0  0  0  0  0  0  0  0  0  0  0
   10.6743    6.8475   -6.4850 C   0  0  0  0  0  0  0  0  0  0  0  0
    9.6712    5.6369   -8.3218 C   0  0  0  0  0  0  0  0  0  0  0  0
    9.3079    5.5733   -9.6637 C   0  0  0  0  0  0  0  0  0  0  0  0
    9.5720    6.6290  -10.5109 C   0  0  0  0  0  0  0  0  0  0  0  0
    9.2427    6.5971  -11.7607 N   0  0  0  0  0  0  0  0  0  0  0  0
   10.1861    7.7040   -9.9882 N   0  0  0  0  0  0  0  0  0  0  0  0
   10.3863    8.5099  -10.6359 H   0  0  0  0  0  0  0  0  0  0  0  0
   12.4445    8.1706   -1.8610 C   0  0  0  0  0  0  0  0  0  0  0  0
   12.1246    6.9691   -2.4544 C   0  0  0  0  0  0  0  0  0  0  0  0
   11.7565    6.9237   -3.7951 C   0  0  0  0  0  0  0  0  0  0  0  0
   11.6949    8.0539   -4.5795 C   0  0  0  0  0  0  0  0  0  0  0  0
   12.0177    9.2591   -3.9767 C   0  0  0  0  0  0  0  0  0  0  0  0
   12.3870    9.3086   -2.6330 C   0  0  0  0  0  0  0  0  0  0  0  0
    5.7977   -0.1370  -17.8476 C   0  0  2  0  0  0  0  0  0  0  0  0
    5.0377    1.0073  -17.8786 F   0  0  0  0  0  0  0  0  0  0  0  0
    5.3163   -1.1193  -18.6780 F   0  0  0  0  0  0  0  0  0  0  0  0
    7.0956    0.1564  -18.2140 F   0  0  0  0  0  0  0  0  0  0  0  0
 31 32  2  0
 32 33  1  0
 33 34  2  0
 34 19  1  0
 19 20  2  0
 20 21  1  0
 21 22  2  0
 22 23  1  0
 23 24  2  0
 23 25  1  0
 25 26  2  0
 26 27  1  0
 27 28  2  0
 28  1  1  0
  1  2  2  0
  2  3  1  0
  3  4  2  0
  4  5  1  0
  5  6  2  0
  5  7  1  0
  7  8  1  0
  8  9  2  0
  9 10  1  0
 10 11  2  0
 11 12  1  0
 12 13  2  0
 11 14  1  0
 14 37  1  0
 37 38  1  1
 37 39  1  0
 37 40  1  0
 14 15  1  6
 15 16  1  0
 15 17  1  0
 17 18  2  0
 27 29  1  0
 29 30  1  0
 34 35  1  0
 35 36  2  0
 36 31  1  0
 24 19  1  0
  6  1  1  0
 13  8  1  0
 29 22  1  0
 13  4  1  0
 17 10  1  0
M  END
>  <minimizedAffinity>  (478) 
-16.85715

$$$$
Mol: 196_16 - SminaDock
     RDKit          3D

 37 43  0  0  0  0  0  0  0  0999 V2000
    3.4252   -0.8356  -14.6018 C   0  0  0  0  0  0  0  0  0  0  0  0
    3.5518    0.3206  -13.9719 O   0  0  0  0  0  0  0  0  0  0  0  0
    4.7897    0.7460  -14.0554 C   0  0  0  0  0  0  0  0  0  0  0  0
    5.3793    1.9169  -13.5395 C   0  0  0  0  0  0  0  0  0  0  0  0
    6.7127    2.1567  -13.7546 C   0  0  0  0  0  0  0  0  0  0  0  0
    7.4472    1.2321  -14.4793 C   0  0  0  0  0  0  0  0  0  0  0  0
    6.8738    0.0679  -14.9956 C   0  0  0  0  0  0  0  0  0  0  0  0
    5.5361   -0.1571  -14.7708 C   0  0  0  0  0  0  0  0  0  0  0  0
    4.6580   -1.1782  -15.1244 C   0  0  0  0  0  0  0  0  0  0  0  0
    8.7895    1.4956  -14.6830 C   0  0  0  0  0  0  0  0  0  0  0  0
    9.4297    0.6349  -15.3462 O   0  0  0  0  0  0  0  0  0  0  0  0
    9.3695    2.6002  -14.2028 N   0  0  0  0  0  0  0  0  0  0  0  0
   10.7717    2.8632  -14.4229 C   0  0  0  0  0  0  0  0  0  0  0  0
    8.6660    3.5157  -13.4915 C   0  0  0  0  0  0  0  0  0  0  0  0
    9.2824    4.6494  -13.0040 C   0  0  0  0  0  0  0  0  0  0  0  0
    8.6017    5.6027  -12.2769 C   0  0  0  0  0  0  0  0  0  0  0  0
    7.2600    5.3817  -12.0489 C   0  0  0  0  0  0  0  0  0  0  0  0
    6.6137    4.2450  -12.5302 C   0  0  0  0  0  0  0  0  0  0  0  0
    7.3233    3.3076  -13.2559 C   0  0  0  0  0  0  0  0  0  0  0  0
    9.2029    6.7801  -11.7604 N   0  0  0  0  0  0  0  0  0  0  0  0
    9.5494    6.7843  -10.5159 C   0  0  0  0  0  0  0  0  0  0  0  0
    9.3419    5.6816   -9.7159 C   0  0  0  0  0  0  0  0  0  0  0  0
    9.7187    5.7017   -8.3851 C   0  0  0  0  0  0  0  0  0  0  0  0
   10.3057    6.8463   -7.8755 C   0  0  0  0  0  0  0  0  0  0  0  0
   10.6791    6.8422   -6.5232 C   0  0  0  0  0  0  0  0  0  0  0  0
   11.2589    7.9610   -6.0031 C   0  0  0  0  0  0  0  0  0  0  0  0
   11.4660    9.0586   -6.7972 C   0  0  0  0  0  0  0  0  0  0  0  0
   11.0967    9.0684   -8.1430 C   0  0  0  0  0  0  0  0  0  0  0  0
   10.5101    7.9440   -8.6793 C   0  0  0  0  0  0  0  0  0  0  0  0
   10.1302    7.8876   -9.9704 N   0  0  0  0  0  0  0  0  0  0  0  0
   10.2863    8.7222  -10.5787 H   0  0  0  0  0  0  0  0  0  0  0  0
   11.6576    8.0012   -4.6157 C   0  0  0  0  0  0  0  0  0  0  0  0
   11.6988    6.8397   -3.8741 C   0  0  0  0  0  0  0  0  0  0  0  0
   12.0775    6.8566   -2.5522 C   0  0  0  0  0  0  0  0  0  0  0  0
   12.4224    8.0467   -1.9510 C   0  0  0  0  0  0  0  0  0  0  0  0
   12.3937    9.2314   -2.6603 C   0  0  0  0  0  0  0  0  0  0  0  0
   12.0123    9.1989   -3.9841 C   0  0  0  0  0  0  0  0  0  0  0  0
  1  2  1  0
  2  3  1  0
  3  4  2  0
  4  5  1  0
  5  6  2  0
  6  7  1  0
  7  8  2  0
  8  9  1  0
  6 10  1  0
 10 11  2  0
 10 12  1  0
 12 13  1  0
 12 14  1  0
 14 15  2  0
 15 16  1  0
 16 20  1  0
 20 21  2  0
 21 22  1  0
 22 23  2  0
 23 24  1  0
 24 25  2  0
 25 26  1  0
 26 32  1  0
 32 33  2  0
 33 34  1  0
 34 35  2  0
 35 36  1  0
 36 37  2  0
 26 27  2  0
 27 28  1  0
 28 29  2  0
 29 30  1  0
 30 31  1  0
 16 17  2  0
 17 18  1  0
 18 19  2  0
  9  1  2  0
 19 14  1  0
  8  3  1  0
 30 21  1  0
 19  5  1  0
 29 24  1  0
 37 32  1  0
M  END
>  <minimizedAffinity>  (479) 
-16.87190

$$$$
Mol: 196_30 - SminaDock
     RDKit          3D

 38 44  0  0  0  0  0  0  0  0999 V2000
    8.7643    5.6117  -12.3302 C   0  0  0  0  0  0  0  0  0  0  0  0
    9.4747    4.8197  -13.2346 C   0  0  0  0  0  0  0  0  0  0  0  0
    8.8791    3.7574  -13.8756 C   0  0  0  0  0  0  0  0  0  0  0  0
    7.5572    3.4890  -13.6052 C   0  0  0  0  0  0  0  0  0  0  0  0
    6.8422    4.2634  -12.7189 C   0  0  0  0  0  0  0  0  0  0  0  0
    7.4477    5.3334  -12.0723 C   0  0  0  0  0  0  0  0  0  0  0  0
    5.4035    4.0606  -12.5192 C   0  0  0  0  0  0  0  0  0  0  0  0
    4.9973    2.6510  -12.6467 C   0  0  0  0  0  0  0  0  0  0  0  0
    5.6357    1.9729  -13.7913 C   0  0  0  0  0  0  0  0  0  0  0  0
    6.9132    2.2921  -14.1727 C   0  0  0  0  0  0  0  0  0  0  0  0
    7.5844    1.6192  -15.1470 C   0  0  0  0  0  0  0  0  0  0  0  0
    6.9007    0.5621  -15.7655 C   0  0  0  0  0  0  0  0  0  0  0  0
    7.2429   -0.3275  -16.7692 C   0  0  0  0  0  0  0  0  0  0  0  0
    8.3441   -0.3472  -17.3660 O   0  0  0  0  0  0  0  0  0  0  0  0
    6.1941   -1.1914  -17.0186 C   0  0  0  0  0  0  0  0  0  0  0  0
    6.1907   -2.1230  -17.8799 O   0  0  0  0  0  0  0  0  0  0  0  0
    5.1697   -0.8412  -16.1562 C   0  0  0  0  0  0  0  0  0  0  0  0
    4.0414   -1.3987  -16.0801 O   0  0  0  0  0  0  0  0  0  0  0  0
    5.6205    0.2316  -15.3991 C   0  0  0  0  0  0  0  0  0  0  0  0
    4.9701    0.9220  -14.4165 C   0  0  0  0  0  0  0  0  0  0  0  0
   11.2901    7.9468   -5.9370 C   0  0  0  0  0  0  0  0  0  0  0  0
   11.4985    9.0367   -6.7506 C   0  0  0  0  0  0  0  0  0  0  0  0
   11.1551    9.0283   -8.0771 C   0  0  0  0  0  0  0  0  0  0  0  0
   10.5807    7.8771   -8.6000 C   0  0  0  0  0  0  0  0  0  0  0  0
   10.3766    6.7903   -7.7743 C   0  0  0  0  0  0  0  0  0  0  0  0
   10.7252    6.7981   -6.4257 C   0  0  0  0  0  0  0  0  0  0  0  0
    9.8034    5.6515   -8.3134 C   0  0  0  0  0  0  0  0  0  0  0  0
    9.4560    5.6320   -9.6422 C   0  0  0  0  0  0  0  0  0  0  0  0
    9.6775    6.7283  -10.4148 C   0  0  0  0  0  0  0  0  0  0  0  0
    9.3503    6.7037  -11.6637 N   0  0  0  0  0  0  0  0  0  0  0  0
   10.2295    7.8254   -9.8955 N   0  0  0  0  0  0  0  0  0  0  0  0
   10.4089    8.6884  -10.4828 H   0  0  0  0  0  0  0  0  0  0  0  0
   12.4148    8.1604   -1.8782 C   0  0  0  0  0  0  0  0  0  0  0  0
   12.3959    9.2786   -2.6623 C   0  0  0  0  0  0  0  0  0  0  0  0
   12.0272    9.2204   -4.0014 C   0  0  0  0  0  0  0  0  0  0  0  0
   11.6760    8.0217   -4.5484 C   0  0  0  0  0  0  0  0  0  0  0  0
   11.7023    6.9016   -3.7358 C   0  0  0  0  0  0  0  0  0  0  0  0
   12.0646    6.9412   -2.4086 C   0  0  0  0  0  0  0  0  0  0  0  0
 33 34  2  0
 34 35  1  0
 35 36  2  0
 36 21  1  0
 21 22  2  0
 22 23  1  0
 23 24  2  0
 24 25  1  0
 25 26  2  0
 25 27  1  0
 27 28  2  0
 28 29  1  0
 29 30  2  0
 30  1  1  0
  1  2  2  0
  2  3  1  0
  3  4  2  0
  4  5  1  0
  5  6  2  0
  5  7  1  0
  7  8  1  0
  8  9  1  0
  9 10  2  0
 10 11  1  0
 11 12  2  0
 12 13  1  0
 13 14  2  0
 13 15  1  0
 15 16  2  0
 15 17  1  0
 17 18  2  0
 17 19  1  0
 19 20  2  0
 29 31  1  0
 31 32  1  0
 36 37  1  0
 37 38  2  0
 38 33  1  0
 26 21  1  0
  6  1  1  0
 20  9  1  0
 31 24  1  0
 10  4  1  0
 19 12  1  0
M  END
>  <minimizedAffinity>  (480) 
-16.93646

$$$$
Mol: 164_21 - SminaDock
     RDKit          3D

 39 45  0  0  0  0  0  0  0  0999 V2000
    8.9822    5.6685  -12.4464 C   0  0  0  0  0  0  0  0  0  0  0  0
    9.6572    4.8633  -13.3393 C   0  0  0  0  0  0  0  0  0  0  0  0
    9.0878    3.7538  -13.8807 C   0  0  0  0  0  0  0  0  0  0  0  0
    7.7835    3.3976  -13.5393 C   0  0  0  0  0  0  0  0  0  0  0  0
    7.0842    4.1699  -12.6592 C   0  0  0  0  0  0  0  0  0  0  0  0
    7.6947    5.2931  -12.1267 C   0  0  0  0  0  0  0  0  0  0  0  0
    5.7197    3.7928  -12.3054 C   0  0  0  0  0  0  0  0  0  0  0  0
    5.0964    4.5213  -11.4916 O   0  0  0  0  0  0  0  0  0  0  0  0
    5.0257    2.6064  -12.8455 C   0  0  0  0  0  0  0  0  0  0  0  0
    5.8433    1.8311  -13.7823 C   0  0  0  0  0  0  0  0  0  0  0  0
    7.1441    2.2177  -14.0998 C   0  0  0  0  0  0  0  0  0  0  0  0
    7.8607    1.4724  -14.9689 N   0  0  0  0  0  0  0  0  0  0  0  0
    7.3653    0.3581  -15.5485 C   0  0  0  0  0  0  0  0  0  0  0  0
    8.0281   -0.3444  -16.3618 O   0  0  0  0  0  0  0  0  0  0  0  0
    6.0841   -0.0710  -15.2709 C   0  0  0  0  0  0  0  0  0  0  0  0
    5.5204   -1.2067  -15.8347 C   0  0  0  0  0  0  0  0  0  0  0  0
    4.2500   -1.5800  -15.5220 N   0  0  0  0  0  0  0  0  0  0  0  0
    3.8939   -2.4434  -15.9839 H   0  0  0  0  0  0  0  0  0  0  0  0
    3.4794   -0.8873  -14.6662 C   0  0  0  0  0  0  0  0  0  0  0  0
    4.0024    0.2640  -14.0721 C   0  0  0  0  0  0  0  0  0  0  0  0
    5.2735    0.7023  -14.3383 C   0  0  0  0  0  0  0  0  0  0  0  0
   11.3333    7.9810   -5.9662 C   0  0  0  0  0  0  0  0  0  0  0  0
   11.6046    9.0731   -6.7649 C   0  0  0  0  0  0  0  0  0  0  0  0
   11.3049    9.0678   -8.1322 C   0  0  0  0  0  0  0  0  0  0  0  0
   10.7262    7.9505   -8.6992 C   0  0  0  0  0  0  0  0  0  0  0  0
   10.4495    6.8497   -7.9091 C   0  0  0  0  0  0  0  0  0  0  0  0
    9.8729    5.7740   -8.5453 C   0  0  0  0  0  0  0  0  0  0  0  0
    9.5814    5.7514   -9.8439 N   0  0  0  0  0  0  0  0  0  0  0  0
    9.8551    6.8268  -10.6000 C   0  0  0  0  0  0  0  0  0  0  0  0
    9.5791    6.8312  -11.8789 N   0  0  0  0  0  0  0  0  0  0  0  0
   10.4191    7.8956  -10.0090 N   0  0  0  0  0  0  0  0  0  0  0  0
   10.6297    8.7401  -10.6223 H   0  0  0  0  0  0  0  0  0  0  0  0
   10.7600    6.8977   -6.5720 C   0  0  0  0  0  0  0  0  0  0  0  0
   12.1654    9.3613   -2.6337 C   0  0  0  0  0  0  0  0  0  0  0  0
   11.8565    9.2249   -3.9338 N   0  0  0  0  0  0  0  0  0  0  0  0
   11.6676    8.0420   -4.5473 C   0  0  0  0  0  0  0  0  0  0  0  0
   11.8085    6.9188   -3.7585 C   0  0  0  0  0  0  0  0  0  0  0  0
   12.1297    7.0113   -2.3987 C   0  0  0  0  0  0  0  0  0  0  0  0
   12.3127    8.2487   -1.8191 C   0  0  0  0  0  0  0  0  0  0  0  0
 34 35  2  0
 35 36  1  0
 36 22  1  0
 22 23  2  0
 23 24  1  0
 24 25  2  0
 25 26  1  0
 26 27  1  0
 27 28  2  0
 28 29  1  0
 29 30  2  0
 30  1  1  0
  1  2  2  0
  2  3  1  0
  3  4  2  0
  4  5  1  0
  5  6  2  0
  5  7  1  0
  7  8  2  0
  7  9  1  0
  9 10  1  0
 10 11  1  0
 11 12  2  0
 12 13  1  0
 13 14  2  0
 13 15  1  0
 15 16  2  0
 16 17  1  0
 17 18  1  0
 17 19  1  0
 19 20  2  0
 20 21  1  0
 29 31  1  0
 31 32  1  0
 26 33  2  0
 36 37  2  0
 37 38  1  0
 38 39  2  0
 39 34  1  0
 33 22  1  0
 31 25  1  0
  6  1  1  0
 21 10  2  0
 11  4  1  0
 21 15  1  0
M  END
>  <minimizedAffinity>  (481) 
-16.90779

$$$$
Mol: 157_4 - SminaDock
     RDKit          3D

 39 45  0  0  0  0  0  0  0  0999 V2000
    3.7776   -2.5445  -17.1562 H   0  0  0  0  0  0  0  0  0  0  0  0
    4.8036   -2.6021  -17.2248 O   0  0  0  0  0  0  0  0  0  0  0  0
    5.5259   -1.4730  -16.7469 C   0  0  0  0  0  0  0  0  0  0  0  0
    5.0279   -0.8290  -15.7645 N   0  0  0  0  0  0  0  0  0  0  0  0
    5.6340    0.3162  -15.1812 C   0  0  0  0  0  0  0  0  0  0  0  0
    5.0743    0.9839  -14.1278 C   0  0  0  0  0  0  0  0  0  0  0  0
    5.7003    2.1005  -13.5860 C   0  0  0  0  0  0  0  0  0  0  0  0
    6.8861    2.5070  -14.1406 C   0  0  0  0  0  0  0  0  0  0  0  0
    7.4598    1.8440  -15.1988 C   0  0  0  0  0  0  0  0  0  0  0  0
    6.8340    0.7158  -15.7489 C   0  0  0  0  0  0  0  0  0  0  0  0
    7.4269    0.0380  -16.8363 N   0  0  0  0  0  0  0  0  0  0  0  0
    8.6861    0.4944  -17.3971 C   0  0  0  0  0  0  0  0  0  0  0  0
    6.7940   -1.1141  -17.4055 C   0  0  0  0  0  0  0  0  0  0  0  0
    7.4919    3.7275  -13.5933 C   0  0  0  0  0  0  0  0  0  0  0  0
    8.7337    4.1080  -14.0978 C   0  0  0  0  0  0  0  0  0  0  0  0
    9.3653    5.2261  -13.5530 C   0  0  0  0  0  0  0  0  0  0  0  0
    8.7500    5.9235  -12.5351 C   0  0  0  0  0  0  0  0  0  0  0  0
    7.5360    5.5635  -12.0330 C   0  0  0  0  0  0  0  0  0  0  0  0
    6.9008    4.4413  -12.5806 C   0  0  0  0  0  0  0  0  0  0  0  0
    5.5664    4.1029  -12.0753 C   0  0  0  0  0  0  0  0  0  0  0  0
    5.0744    2.7573  -12.3974 C   0  0  0  0  0  0  0  0  0  0  0  0
    9.3861    7.0657  -11.9710 N   0  0  0  0  0  0  0  0  0  0  0  0
    9.7195    7.0781  -10.7169 C   0  0  0  0  0  0  0  0  0  0  0  0
   10.3182    8.1247  -10.1401 N   0  0  0  0  0  0  0  0  0  0  0  0
   10.6404    8.0829   -8.8378 C   0  0  0  0  0  0  0  0  0  0  0  0
   11.2577    9.1679   -8.2523 C   0  0  0  0  0  0  0  0  0  0  0  0
   11.6190    9.2053   -6.9306 C   0  0  0  0  0  0  0  0  0  0  0  0
   11.3560    8.1106   -6.1436 C   0  0  0  0  0  0  0  0  0  0  0  0
   10.7354    7.0091   -6.7147 C   0  0  0  0  0  0  0  0  0  0  0  0
   10.3771    6.9829   -8.0434 C   0  0  0  0  0  0  0  0  0  0  0  0
    9.7607    5.9144   -8.6526 C   0  0  0  0  0  0  0  0  0  0  0  0
    9.4558    5.9978   -9.9564 N   0  0  0  0  0  0  0  0  0  0  0  0
    8.9832    5.1645  -10.4006 H   0  0  0  0  0  0  0  0  0  0  0  0
   11.7012    8.0483   -4.7199 C   0  0  0  0  0  0  0  0  0  0  0  0
   12.0470    9.2129   -4.0383 C   0  0  0  0  0  0  0  0  0  0  0  0
   12.3722    9.1554   -2.6970 C   0  0  0  0  0  0  0  0  0  0  0  0
   12.3598    7.9538   -2.0168 C   0  0  0  0  0  0  0  0  0  0  0  0
   12.0155    6.7728   -2.6825 C   0  0  0  0  0  0  0  0  0  0  0  0
   11.7012    6.8704   -4.0043 C   0  0  0  0  0  0  0  0  0  0  0  0
  1  2  1  0
  2  3  1  0
  3  4  2  0
  4  5  1  0
  5  6  2  0
  6  7  1  0
  7  8  2  0
  8  9  1  0
  9 10  2  0
 10 11  1  0
 11 12  1  0
 11 13  1  0
  8 14  1  0
 14 15  2  0
 15 16  1  0
 16 17  2  0
 17 22  1  0
 22 23  2  0
 23 24  1  0
 24 25  2  0
 25 26  1  0
 26 27  2  0
 27 28  1  0
 28 34  1  0
 34 35  2  0
 35 36  1  0
 36 37  2  0
 37 38  1  0
 38 39  2  0
 28 29  2  0
 29 30  1  0
 30 31  2  0
 31 32  1  0
 32 33  1  0
 17 18  1  0
 18 19  2  0
 19 20  1  0
 20 21  1  0
 13  3  1  0
 19 14  1  0
 10  5  1  0
 32 23  1  0
 21  7  1  0
 30 25  1  0
 39 34  1  0
M  END
>  <minimizedAffinity>  (482) 
-16.90617

$$$$
Mol: 156_51 - SminaDock
     RDKit          3D

 45 51  0  0  0  0  0  0  0  0999 V2000
    9.6998    6.0009  -12.8669 C   0  0  0  0  0  0  0  0  0  0  0  0
   10.1202    4.9100  -13.5573 C   0  0  0  0  0  0  0  0  0  0  0  0
    9.1849    3.8710  -13.8453 C   0  0  0  0  0  0  0  0  0  0  0  0
    9.7155    2.7556  -14.5114 N   0  0  0  0  0  0  0  0  0  0  0  0
    9.8476    2.7903  -15.5433 H   0  0  0  0  0  0  0  0  0  0  0  0
   10.0237    1.9028  -13.9793 H   0  0  0  0  0  0  0  0  0  0  0  0
    7.8975    3.9991  -13.4232 C   0  0  0  0  0  0  0  0  0  0  0  0
    7.4970    5.1444  -12.7143 C   0  0  0  0  0  0  0  0  0  0  0  0
    8.4149    6.1460  -12.4376 C   0  0  0  0  0  0  0  0  0  0  0  0
    6.0689    5.3016  -12.3804 C   0  0  0  0  0  0  0  0  0  0  0  0
    5.5118    4.0164  -11.9098 C   0  0  0  0  0  0  0  0  0  0  0  0
    5.7272    2.9564  -12.9170 C   0  0  0  0  0  0  0  0  0  0  0  0
    4.7578    1.9995  -13.1393 C   0  0  0  0  0  0  0  0  0  0  0  0
    5.0231    0.9503  -13.9786 C   0  0  0  0  0  0  0  0  0  0  0  0
    6.2491    0.8519  -14.5991 C   0  0  0  0  0  0  0  0  0  0  0  0
    7.2362    1.8190  -14.3851 C   0  0  0  0  0  0  0  0  0  0  0  0
    6.9666    2.8633  -13.5451 C   0  0  0  0  0  0  0  0  0  0  0  0
    6.7318   -0.1328  -15.4864 N   0  0  0  0  0  0  0  0  0  0  0  0
    8.1528   -0.1504  -15.7790 C   0  0  0  0  0  0  0  0  0  0  0  0
    5.9196   -1.1657  -16.1539 C   0  0  2  0  0  0  0  0  0  0  0  0
    6.5953   -1.5827  -17.3682 N   0  0  0  0  0  0  0  0  0  0  0  0
    6.8405   -2.6092  -17.3530 H   0  0  0  0  0  0  0  0  0  0  0  0
    5.8914   -1.4809  -18.1521 H   0  0  0  0  0  0  0  0  0  0  0  0
    4.5946   -0.5842  -16.4209 C   0  0  0  0  0  0  0  0  0  0  0  0
    4.2692   -0.3993  -17.6003 O   0  0  0  0  0  0  0  0  0  0  0  0
    3.6549   -0.2131  -15.4717 O   0  0  0  0  0  0  0  0  0  0  0  0
    3.8498    0.0393  -14.0738 C   0  0  0  0  0  0  0  0  0  0  0  0
   11.2614    7.5599   -6.3222 C   0  0  0  0  0  0  0  0  0  0  0  0
   10.3496    6.5878   -6.6559 C   0  0  0  0  0  0  0  0  0  0  0  0
   10.0489    6.2838   -7.9616 C   0  0  0  0  0  0  0  0  0  0  0  0
   10.6686    6.9623   -9.0044 C   0  0  0  0  0  0  0  0  0  0  0  0
   11.5826    7.9354   -8.6844 C   0  0  0  0  0  0  0  0  0  0  0  0
   12.1782    8.5995   -9.7691 C   0  0  0  0  0  0  0  0  0  0  0  0
   11.8181    8.2442  -11.0140 N   0  0  0  0  0  0  0  0  0  0  0  0
   10.9268    7.2953  -11.3169 C   0  0  0  0  0  0  0  0  0  0  0  0
   10.6599    7.0198  -12.5880 N   0  0  0  0  0  0  0  0  0  0  0  0
   10.3551    6.6562  -10.2984 N   0  0  0  0  0  0  0  0  0  0  0  0
    9.6656    5.9079  -10.4633 H   0  0  0  0  0  0  0  0  0  0  0  0
   11.8729    8.2282   -7.3674 C   0  0  0  0  0  0  0  0  0  0  0  0
   11.9799    8.3064   -2.2354 C   0  0  0  0  0  0  0  0  0  0  0  0
   11.7554    7.0175   -2.6742 C   0  0  0  0  0  0  0  0  0  0  0  0
   11.5296    6.8018   -4.0072 C   0  0  0  0  0  0  0  0  0  0  0  0
   11.5238    7.8395   -4.9024 C   0  0  0  0  0  0  0  0  0  0  0  0
   11.7463    9.1101   -4.4599 C   0  0  0  0  0  0  0  0  0  0  0  0
   11.9772    9.3584   -3.1189 C   0  0  0  0  0  0  0  0  0  0  0  0
 40 41  2  0
 41 42  1  0
 42 43  2  0
 43 28  1  0
 28 29  2  0
 29 30  1  0
 30 31  2  0
 31 32  1  0
 32 33  1  0
 33 34  2  0
 34 35  1  0
 35 36  2  0
 36  1  1  0
  1  2  2  0
  2  3  1  0
  3  4  1  0
  4  5  1  0
  4  6  1  0
  3  7  2  0
  7  8  1  0
  8  9  2  0
  8 10  1  0
 10 11  1  0
 11 12  1  0
 12 13  2  0
 13 14  1  0
 14 15  2  0
 15 16  1  0
 16 17  2  0
 15 18  1  0
 18 19  1  0
 18 20  1  0
 20 21  1  6
 21 22  1  0
 21 23  1  0
 20 24  1  0
 24 25  2  0
 24 26  1  0
 26 27  1  0
 35 37  1  0
 37 38  1  0
 32 39  2  0
 43 44  1  0
 44 45  2  0
 45 40  1  0
 39 28  1  0
 37 31  1  0
  9  1  1  0
 17 12  1  0
 17  7  1  0
 27 14  1  0
M  END
>  <minimizedAffinity>  (483) 
-16.93269

$$$$
Mol: 124_46 - SminaDock
     RDKit          3D

 40 46  0  0  0  0  0  0  0  0999 V2000
    6.9977    2.2789  -15.8218 C   0  0  0  0  0  0  0  0  0  0  0  0
    6.3536    1.4304  -16.5872 C   0  0  0  0  0  0  0  0  0  0  0  0
    5.6819   -0.0074  -15.8756 S   0  0  1  0  0  0  0  0  0  0  0  0
    4.3519   -0.2582  -16.5783 O   0  0  0  0  0  0  0  0  0  0  0  0
    6.5050   -1.2376  -16.1544 O   0  0  0  0  0  0  0  0  0  0  0  0
    5.4172    0.2749  -14.1622 C   0  0  0  0  0  0  0  0  0  0  0  0
    5.9819    1.5573  -13.6484 C   0  0  0  0  0  0  0  0  0  0  0  0
    7.1768    2.0576  -14.3828 C   0  0  2  0  0  0  0  0  0  0  0  0
    7.7398    3.3021  -13.8205 C   0  0  0  0  0  0  0  0  0  0  0  0
    7.1369    3.8412  -12.7403 C   0  0  0  0  0  0  0  0  0  0  0  0
    7.5675    5.0044  -12.1209 C   0  0  0  0  0  0  0  0  0  0  0  0
    8.6625    5.6504  -12.6234 C   0  0  0  0  0  0  0  0  0  0  0  0
    9.2946    5.1168  -13.7274 C   0  0  0  0  0  0  0  0  0  0  0  0
    8.8579    3.9495  -14.3443 C   0  0  0  0  0  0  0  0  0  0  0  0
    9.7502    3.6649  -15.4791 C   0  0  0  0  0  0  0  0  0  0  0  0
    9.8784    2.2242  -15.7819 C   0  0  0  0  0  0  0  0  0  0  0  0
   10.8058    2.0490  -16.7938 C   0  0  0  0  0  0  0  0  0  0  0  0
   11.1290    0.7996  -17.2810 C   0  0  0  0  0  0  0  0  0  0  0  0
   10.5161   -0.3398  -16.7545 C   0  0  0  0  0  0  0  0  0  0  0  0
    9.5992   -0.1655  -15.7541 C   0  0  0  0  0  0  0  0  0  0  0  0
    9.2886    1.0906  -15.2797 C   0  0  0  0  0  0  0  0  0  0  0  0
    8.2867    1.0055  -14.2183 C   0  0  0  0  0  0  0  0  0  0  0  0
    9.1157    6.8423  -12.0004 N   0  0  0  0  0  0  0  0  0  0  0  0
    9.4890    6.8677  -10.7659 C   0  0  0  0  0  0  0  0  0  0  0  0
    9.4361    5.7149  -10.0740 N   0  0  0  0  0  0  0  0  0  0  0  0
    9.8248    5.7343   -8.7839 C   0  0  0  0  0  0  0  0  0  0  0  0
   10.2712    6.8718   -8.1432 C   0  0  0  0  0  0  0  0  0  0  0  0
   10.6679    6.8659   -6.8070 C   0  0  0  0  0  0  0  0  0  0  0  0
   11.1122    8.0129   -6.1806 C   0  0  0  0  0  0  0  0  0  0  0  0
   11.1462    9.1662   -6.9363 C   0  0  0  0  0  0  0  0  0  0  0  0
   10.7525    9.1773   -8.2663 C   0  0  0  0  0  0  0  0  0  0  0  0
   10.3110    8.0310   -8.8840 C   0  0  0  0  0  0  0  0  0  0  0  0
    9.9199    8.0078  -10.1790 N   0  0  0  0  0  0  0  0  0  0  0  0
    9.9441    8.8766  -10.7532 H   0  0  0  0  0  0  0  0  0  0  0  0
   11.5302    8.0167   -4.7796 C   0  0  0  0  0  0  0  0  0  0  0  0
   11.8449    9.1760   -4.1015 C   0  0  0  0  0  0  0  0  0  0  0  0
   12.2390    9.1512   -2.7711 C   0  0  0  0  0  0  0  0  0  0  0  0
   12.3324    7.9671   -2.0724 C   0  0  0  0  0  0  0  0  0  0  0  0
   12.0194    6.8041   -2.7439 C   0  0  0  0  0  0  0  0  0  0  0  0
   11.6275    6.8344   -4.0687 C   0  0  0  0  0  0  0  0  0  0  0  0
  1  2  2  0
  2  3  1  0
  3  4  2  0
  3  5  2  0
  3  6  1  1
  6  7  1  0
  8  7  1  1
  8  9  1  0
  9 10  2  0
 10 11  1  0
 11 12  2  0
 12 23  1  0
 23 24  2  0
 24 25  1  0
 25 26  2  0
 26 27  1  0
 27 28  2  0
 28 29  1  0
 29 35  1  0
 35 36  2  0
 36 37  1  0
 37 38  2  0
 38 39  1  0
 39 40  2  0
 29 30  2  0
 30 31  1  0
 31 32  2  0
 32 33  1  0
 33 34  1  0
 12 13  1  0
 13 14  2  0
 14 15  1  0
 15 16  1  0
 16 17  2  0
 17 18  1  0
 18 19  2  0
 19 20  1  0
 20 21  2  0
 21 22  1  0
  8  1  1  0
 14  9  1  0
 21 16  1  0
 22  8  1  0
 33 24  1  0
 32 27  1  0
 40 35  1  0
M  END
>  <minimizedAffinity>  (484) 
-16.92379

$$$$
Mol: 187_63 - SminaDock
     RDKit          3D

 39 45  0  0  0  0  0  0  0  0999 V2000
    6.9092   -2.1243  -19.2821 H   0  0  0  0  0  0  0  0  0  0  0  0
    7.4546   -1.8467  -18.4628 O   0  0  0  0  0  0  0  0  0  0  0  0
    6.8257   -1.1693  -17.4239 C   0  0  0  0  0  0  0  0  0  0  0  0
    5.6539   -1.5606  -16.9692 C   0  0  0  0  0  0  0  0  0  0  0  0
    5.0067   -0.9050  -15.9372 O   0  0  0  0  0  0  0  0  0  0  0  0
    5.5843    0.2246  -15.3224 C   0  0  0  0  0  0  0  0  0  0  0  0
    4.9722    0.9059  -14.2915 C   0  0  0  0  0  0  0  0  0  0  0  0
    5.5885    2.0019  -13.7334 C   0  0  0  0  0  0  0  0  0  0  0  0
    6.8389    2.4506  -14.1903 C   0  0  0  0  0  0  0  0  0  0  0  0
    7.4400    1.7618  -15.2205 C   0  0  0  0  0  0  0  0  0  0  0  0
    6.8075    0.6687  -15.7651 C   0  0  0  0  0  0  0  0  0  0  0  0
    7.4394   -0.0278  -16.8232 N   0  0  0  0  0  0  0  0  0  0  0  0
    8.7254    0.4236  -17.3025 C   0  0  0  0  0  0  0  0  0  0  0  0
    7.4569    3.6088  -13.5715 C   0  0  0  0  0  0  0  0  0  0  0  0
    8.6605    4.0514  -14.0113 C   0  0  0  0  0  0  0  0  0  0  0  0
    9.2633    5.1748  -13.4220 C   0  0  0  0  0  0  0  0  0  0  0  0
    8.6650    5.8590  -12.3917 C   0  0  0  0  0  0  0  0  0  0  0  0
    7.4511    5.4031  -11.9565 C   0  0  0  0  0  0  0  0  0  0  0  0
    6.8392    4.2720  -12.5461 C   0  0  0  0  0  0  0  0  0  0  0  0
    5.5388    3.8388  -12.0223 C   0  0  0  0  0  0  0  0  0  0  0  0
    4.8740    2.6866  -12.6361 C   0  0  0  0  0  0  0  0  0  0  0  0
    9.2815    7.0043  -11.7938 N   0  0  0  0  0  0  0  0  0  0  0  0
    9.6076    6.9721  -10.5696 C   0  0  0  0  0  0  0  0  0  0  0  0
    9.3760    5.8548   -9.8155 C   0  0  0  0  0  0  0  0  0  0  0  0
    9.7276    5.8046   -8.4689 C   0  0  0  0  0  0  0  0  0  0  0  0
   10.3231    6.9311   -7.9164 C   0  0  0  0  0  0  0  0  0  0  0  0
   10.6807    6.8926   -6.5635 C   0  0  0  0  0  0  0  0  0  0  0  0
   11.2671    7.9839   -5.9925 C   0  0  0  0  0  0  0  0  0  0  0  0
   11.4854    9.0975   -6.7899 C   0  0  0  0  0  0  0  0  0  0  0  0
   11.1364    9.1400   -8.1176 C   0  0  0  0  0  0  0  0  0  0  0  0
   10.5471    8.0431   -8.6906 C   0  0  0  0  0  0  0  0  0  0  0  0
   10.1826    8.0364  -10.0028 N   0  0  0  0  0  0  0  0  0  0  0  0
   10.3858    8.9305  -10.5417 H   0  0  0  0  0  0  0  0  0  0  0  0
   11.6695    8.0217   -4.5845 C   0  0  0  0  0  0  0  0  0  0  0  0
   11.6852    6.8345   -3.8847 C   0  0  0  0  0  0  0  0  0  0  0  0
   12.0562    6.8129   -2.5560 C   0  0  0  0  0  0  0  0  0  0  0  0
   12.4100    8.0091   -1.9492 C   0  0  0  0  0  0  0  0  0  0  0  0
   12.3926    9.1875   -2.6502 C   0  0  0  0  0  0  0  0  0  0  0  0
   12.0171    9.2077   -3.9937 C   0  0  0  0  0  0  0  0  0  0  0  0
  1  2  1  0
  2  3  1  0
  3  4  2  0
  4  5  1  0
  5  6  1  0
  6  7  2  0
  7  8  1  0
  8  9  2  0
  9 10  1  0
 10 11  2  0
 11 12  1  0
 12 13  1  0
  9 14  1  0
 14 15  2  0
 15 16  1  0
 16 17  2  0
 17 22  1  0
 22 23  2  0
 23 24  1  0
 24 25  2  0
 25 26  1  0
 26 27  2  0
 27 28  1  0
 28 34  1  0
 34 35  2  0
 35 36  1  0
 36 37  2  0
 37 38  1  0
 38 39  2  0
 28 29  2  0
 29 30  1  0
 30 31  2  0
 31 32  1  0
 32 33  1  0
 17 18  1  0
 18 19  2  0
 19 20  1  0
 20 21  1  0
 12  3  1  0
 19 14  1  0
 11  6  1  0
 32 23  1  0
 21  8  1  0
 31 26  1  0
 39 34  1  0
M  END
>  <minimizedAffinity>  (485) 
-16.91507

$$$$
Mol: 162_19 - SminaDock
     RDKit          3D

 41 47  0  0  0  0  0  0  0  0999 V2000
   10.1039    1.5414  -15.0140 H   0  0  0  0  0  0  0  0  0  0  0  0
    9.4758    1.1419  -14.3279 O   0  0  0  0  0  0  0  0  0  0  0  0
    8.1028    1.0817  -14.4592 C   0  0  0  0  0  0  0  0  0  0  0  0
    7.5889    0.1489  -15.2313 C   0  0  0  0  0  0  0  0  0  0  0  0
    6.1748   -0.0718  -15.4885 C   0  0  0  0  0  0  0  0  0  0  0  0
    5.1176    0.1613  -14.5879 C   0  0  0  0  0  0  0  0  0  0  0  0
    3.8485   -0.1857  -14.9497 C   0  0  0  0  0  0  0  0  0  0  0  0
    3.6244   -0.7537  -16.1855 C   0  0  0  0  0  0  0  0  0  0  0  0
    4.6498   -0.9812  -17.0730 C   0  0  0  0  0  0  0  0  0  0  0  0
    4.4318   -1.5227  -18.3122 C   0  0  0  0  0  0  0  0  0  0  0  0
    5.4919   -1.6999  -19.1602 C   0  0  0  0  0  0  0  0  0  0  0  0
    6.7468   -1.3628  -18.8296 N   0  0  0  0  0  0  0  0  0  0  0  0
    7.7999   -1.5908  -19.8037 C   0  0  0  0  0  0  0  0  0  0  0  0
    6.9990   -0.8217  -17.6029 C   0  0  0  0  0  0  0  0  0  0  0  0
    8.1717   -0.5429  -17.4059 O   0  0  0  0  0  0  0  0  0  0  0  0
    5.9732   -0.6354  -16.7348 C   0  0  0  0  0  0  0  0  0  0  0  0
    5.1705    0.7886  -13.2881 C   0  0  0  0  0  0  0  0  0  0  0  0
    6.1030    1.9260  -13.1877 C   0  0  0  0  0  0  0  0  0  0  0  0
    5.5609    2.9575  -12.4710 C   0  0  0  0  0  0  0  0  0  0  0  0
    6.3017    4.1307  -12.2633 C   0  0  0  0  0  0  0  0  0  0  0  0
    7.5858    4.2853  -12.7666 C   0  0  0  0  0  0  0  0  0  0  0  0
    8.1324    3.2471  -13.4881 C   0  0  0  0  0  0  0  0  0  0  0  0
    7.3905    2.1036  -13.6822 C   0  0  0  0  0  0  0  0  0  0  0  0
    8.2826    5.4991  -12.5200 N   0  0  0  0  0  0  0  0  0  0  0  0
    8.7647    5.7351  -11.3215 C   0  0  0  0  0  0  0  0  0  0  0  0
    9.4272    6.8727  -11.0584 N   0  0  0  0  0  0  0  0  0  0  0  0
    9.9166    7.1071   -9.8303 C   0  0  0  0  0  0  0  0  0  0  0  0
   10.6089    8.2893   -9.5422 C   0  0  0  0  0  0  0  0  0  0  0  0
   11.1161    8.5444   -8.2876 C   0  0  0  0  0  0  0  0  0  0  0  0
   10.9533    7.6302   -7.2696 C   0  0  0  0  0  0  0  0  0  0  0  0
   10.2755    6.4581   -7.5274 C   0  0  0  0  0  0  0  0  0  0  0  0
    9.7705    6.2125   -8.7902 C   0  0  0  0  0  0  0  0  0  0  0  0
    9.0843    5.0501   -9.0903 C   0  0  0  0  0  0  0  0  0  0  0  0
    8.6081    4.8475  -10.3282 N   0  0  0  0  0  0  0  0  0  0  0  0
    8.0891    3.9634  -10.5470 H   0  0  0  0  0  0  0  0  0  0  0  0
   11.4960    7.9142   -5.9432 C   0  0  0  0  0  0  0  0  0  0  0  0
   11.3393    6.9815   -4.9385 C   0  0  0  0  0  0  0  0  0  0  0  0
   11.8403    7.2167   -3.6684 C   0  0  0  0  0  0  0  0  0  0  0  0
   12.5127    8.3895   -3.3629 C   0  0  0  0  0  0  0  0  0  0  0  0
   12.6722    9.3244   -4.3624 C   0  0  0  0  0  0  0  0  0  0  0  0
   12.1655    9.0769   -5.6311 C   0  0  0  0  0  0  0  0  0  0  0  0
  1  2  1  0
  2  3  1  0
  3  4  2  0
  4  5  1  0
  5  6  2  0
  6  7  1  0
  7  8  2  0
  8  9  1  0
  9 10  1  0
 10 11  2  0
 11 12  1  0
 12 13  1  0
 12 14  1  0
 14 15  2  0
 14 16  1  0
  6 17  1  0
 17 18  1  0
 18 19  2  0
 19 20  1  0
 20 21  2  0
 21 24  1  0
 24 25  2  0
 25 26  1  0
 26 27  2  0
 27 28  1  0
 28 29  2  0
 29 30  1  0
 30 36  1  0
 36 37  2  0
 37 38  1  0
 38 39  2  0
 39 40  1  0
 40 41  2  0
 30 31  2  0
 31 32  1  0
 32 33  2  0
 33 34  1  0
 34 35  1  0
 21 22  1  0
 22 23  2  0
 23  3  1  0
 16  5  1  0
 23 18  1  0
 16  9  2  0
 34 25  1  0
 32 27  1  0
 41 36  1  0
M  END
>  <minimizedAffinity>  (486) 
-16.91001

$$$$
Mol: 87_23 - SminaDock
     RDKit          3D

 37 43  0  0  0  0  0  0  0  0999 V2000
    8.1225    5.0904  -12.6166 C   0  0  0  0  0  0  0  0  0  0  0  0
    6.8716    4.9054  -12.0804 C   0  0  0  0  0  0  0  0  0  0  0  0
    6.1286    3.8197  -12.5201 C   0  0  0  0  0  0  0  0  0  0  0  0
    6.6287    2.9534  -13.4655 C   0  0  0  0  0  0  0  0  0  0  0  0
    7.8787    3.1711  -13.9783 C   0  0  0  0  0  0  0  0  0  0  0  0
    8.6593    4.2265  -13.5811 C   0  0  0  0  0  0  0  0  0  0  0  0
    8.4143    2.2833  -15.0344 C   0  0  0  0  0  0  0  0  0  0  0  0
    7.6122    1.2549  -15.4734 C   0  0  0  0  0  0  0  0  0  0  0  0
    8.1095    0.3744  -16.4391 C   0  0  0  0  0  0  0  0  0  0  0  0
    9.3774    0.5060  -16.9653 C   0  0  0  0  0  0  0  0  0  0  0  0
    9.8442   -0.3820  -17.9210 C   0  0  0  0  0  0  0  0  0  0  0  0
   11.1104   -0.2175  -18.4191 C   0  0  0  0  0  0  0  0  0  0  0  0
   11.8835    0.8091  -17.9698 C   0  0  0  0  0  0  0  0  0  0  0  0
   11.4052    1.6797  -17.0223 C   0  0  0  0  0  0  0  0  0  0  0  0
   10.1333    1.5489  -16.4938 C   0  0  0  0  0  0  0  0  0  0  0  0
    9.6878    2.4502  -15.5360 C   0  0  0  0  0  0  0  0  0  0  0  0
    6.2350    1.0304  -15.0280 C   0  0  0  0  0  0  0  0  0  0  0  0
    5.8097    1.8108  -13.8432 C   0  0  1  0  0  0  0  0  0  0  0  0
    5.8520    0.8599  -12.6141 C   0  0  0  0  0  0  0  0  0  0  0  0
   11.2702    7.7226   -6.5985 C   0  0  0  0  0  0  0  0  0  0  0  0
   11.6356    8.6496   -7.5574 C   0  0  0  0  0  0  0  0  0  0  0  0
   11.2320    8.5116   -8.8855 C   0  0  0  0  0  0  0  0  0  0  0  0
   10.4548    7.4470   -9.2889 C   0  0  0  0  0  0  0  0  0  0  0  0
   10.0873    6.5197   -8.3371 C   0  0  0  0  0  0  0  0  0  0  0  0
   10.4907    6.6605   -7.0188 C   0  0  0  0  0  0  0  0  0  0  0  0
    9.3076    5.4630   -8.7600 C   0  0  0  0  0  0  0  0  0  0  0  0
    8.9034    5.3272  -10.0821 C   0  0  0  0  0  0  0  0  0  0  0  0
    9.2980    6.2793  -10.9858 C   0  0  0  0  0  0  0  0  0  0  0  0
    8.9310    6.1802  -12.2091 N   0  0  0  0  0  0  0  0  0  0  0  0
   10.0636    7.3178  -10.5745 N   0  0  0  0  0  0  0  0  0  0  0  0
   10.3818    8.0658  -11.2483 H   0  0  0  0  0  0  0  0  0  0  0  0
   12.4586    8.0827   -2.5147 C   0  0  0  0  0  0  0  0  0  0  0  0
   11.7565    6.9741   -2.9430 C   0  0  0  0  0  0  0  0  0  0  0  0
   11.3731    6.8643   -4.2754 C   0  0  0  0  0  0  0  0  0  0  0  0
   11.6723    7.8383   -5.2024 C   0  0  0  0  0  0  0  0  0  0  0  0
   12.3732    8.9494   -4.7839 C   0  0  0  0  0  0  0  0  0  0  0  0
   12.7529    9.0515   -3.4513 C   0  0  0  0  0  0  0  0  0  0  0  0
 32 33  2  0
 33 34  1  0
 34 35  2  0
 35 20  1  0
 20 21  2  0
 21 22  1  0
 22 23  2  0
 23 24  1  0
 24 25  2  0
 24 26  1  0
 26 27  2  0
 27 28  1  0
 28 29  2  0
 29  1  1  0
  1  2  2  0
  2  3  1  0
  3  4  2  0
  4  5  1  0
  5  6  2  0
  5  7  1  0
  7  8  2  0
  8  9  1  0
  9 10  2  0
 10 11  1  0
 11 12  2  0
 12 13  1  0
 13 14  2  0
 14 15  1  0
 15 16  2  0
  8 17  1  0
 17 18  1  0
 18 19  1  1
 28 30  1  0
 30 31  1  0
 35 36  1  0
 36 37  2  0
 37 32  1  0
 25 20  1  0
  6  1  1  0
 16  7  1  0
 30 23  1  0
 18  4  1  0
 15 10  1  0
M  END
>  <minimizedAffinity>  (487) 
-16.87369

$$$$
Mol: 149_17 - SminaDock
     RDKit          3D

 39 45  0  0  0  0  0  0  0  0999 V2000
    8.6940    5.8958  -12.5603 C   0  0  0  0  0  0  0  0  0  0  0  0
    9.2642    5.2244  -13.6271 C   0  0  0  0  0  0  0  0  0  0  0  0
    8.6706    4.1260  -14.2069 C   0  0  0  0  0  0  0  0  0  0  0  0
    7.4634    3.6898  -13.6960 C   0  0  0  0  0  0  0  0  0  0  0  0
    6.8680    4.3415  -12.6349 C   0  0  0  0  0  0  0  0  0  0  0  0
    7.4975    5.4476  -12.0715 C   0  0  0  0  0  0  0  0  0  0  0  0
    5.5255    3.9517  -12.1684 C   0  0  0  0  0  0  0  0  0  0  0  0
    5.2651    2.5057  -12.2858 C   0  0  0  0  0  0  0  0  0  0  0  0
    5.7131    1.9336  -13.5676 C   0  0  0  0  0  0  0  0  0  0  0  0
    6.8507    2.4507  -14.1769 C   0  0  0  0  0  0  0  0  0  0  0  0
    7.3352    1.8522  -15.3148 C   0  0  0  0  0  0  0  0  0  0  0  0
    8.3344    2.2463  -15.9107 O   0  0  0  0  0  0  0  0  0  0  0  0
    6.6388    0.7345  -15.8076 C   0  0  0  0  0  0  0  0  0  0  0  0
    7.1356    0.1466  -16.9473 C   0  0  0  0  0  0  0  0  0  0  0  0
    6.4980   -0.9708  -17.5014 C   0  0  0  0  0  0  0  0  0  0  0  0
    7.0391   -1.5997  -18.7297 C   0  0  0  0  0  0  0  0  0  0  0  0
    5.3735   -1.4321  -16.8525 C   0  0  0  0  0  0  0  0  0  0  0  0
    4.8510   -0.8642  -15.7078 C   0  0  0  0  0  0  0  0  0  0  0  0
    5.5253    0.2527  -15.1918 C   0  0  0  0  0  0  0  0  0  0  0  0
    5.0651    0.8441  -14.0833 N   0  0  0  0  0  0  0  0  0  0  0  0
    4.2026    0.4984  -13.5764 H   0  0  0  0  0  0  0  0  0  0  0  0
   11.2311    7.9741   -6.1223 C   0  0  0  0  0  0  0  0  0  0  0  0
   11.4389    9.0905   -6.8926 C   0  0  0  0  0  0  0  0  0  0  0  0
   11.1035    9.1646   -8.2200 C   0  0  0  0  0  0  0  0  0  0  0  0
   10.5290    8.0483   -8.7908 C   0  0  0  0  0  0  0  0  0  0  0  0
   10.2921    6.8934   -8.0741 C   0  0  0  0  0  0  0  0  0  0  0  0
    9.7073    5.7831   -8.6911 C   0  0  0  0  0  0  0  0  0  0  0  0
    9.3954    5.8998   -9.9919 N   0  0  0  0  0  0  0  0  0  0  0  0
    9.6193    7.0129  -10.6991 C   0  0  0  0  0  0  0  0  0  0  0  0
    9.2870    7.0314  -11.9434 N   0  0  0  0  0  0  0  0  0  0  0  0
   10.1823    8.0793  -10.1012 N   0  0  0  0  0  0  0  0  0  0  0  0
   10.3397    8.9362  -10.7000 H   0  0  0  0  0  0  0  0  0  0  0  0
   10.6455    6.8728   -6.7542 C   0  0  0  0  0  0  0  0  0  0  0  0
   12.3418    7.9413   -1.9971 C   0  0  0  0  0  0  0  0  0  0  0  0
   12.3115    9.1096   -2.7289 C   0  0  0  0  0  0  0  0  0  0  0  0
   11.9503    9.1210   -4.0697 C   0  0  0  0  0  0  0  0  0  0  0  0
   11.6073    7.9513   -4.7167 C   0  0  0  0  0  0  0  0  0  0  0  0
   11.6354    6.7785   -3.9911 C   0  0  0  0  0  0  0  0  0  0  0  0
   11.9995    6.7720   -2.6417 C   0  0  0  0  0  0  0  0  0  0  0  0
 34 35  2  0
 35 36  1  0
 36 37  2  0
 37 22  1  0
 22 23  2  0
 23 24  1  0
 24 25  2  0
 25 26  1  0
 26 27  1  0
 27 28  2  0
 28 29  1  0
 29 30  2  0
 30  1  1  0
  1  2  2  0
  2  3  1  0
  3  4  2  0
  4  5  1  0
  5  6  2  0
  5  7  1  0
  7  8  1  0
  8  9  1  0
  9 10  2  0
 10 11  1  0
 11 12  2  0
 11 13  1  0
 13 14  2  0
 14 15  1  0
 15 16  1  0
 15 17  2  0
 17 18  1  0
 18 19  2  0
 19 20  1  0
 20 21  1  0
 29 31  1  0
 31 32  1  0
 26 33  2  0
 37 38  1  0
 38 39  2  0
 39 34  1  0
 33 22  1  0
 31 25  1  0
  6  1  1  0
 20  9  1  0
 10  4  1  0
 19 13  1  0
M  END
>  <minimizedAffinity>  (488) 
-16.92605

$$$$
Mol: 138_30 - SminaDock
     RDKit          3D

 37 43  0  0  0  0  0  0  0  0999 V2000
    4.1000   -2.6488  -15.6094 H   0  0  0  0  0  0  0  0  0  0  0  0
    4.1776   -1.6283  -15.5443 O   0  0  0  0  0  0  0  0  0  0  0  0
    5.4134   -0.9927  -15.6962 C   0  0  0  0  0  0  0  0  0  0  0  0
    6.4473   -1.3392  -16.4792 N   0  0  0  0  0  0  0  0  0  0  0  0
    7.4492   -0.4621  -16.3323 N   0  0  0  0  0  0  0  0  0  0  0  0
    7.0797    0.4740  -15.4457 C   0  0  0  0  0  0  0  0  0  0  0  0
    7.6534    1.6148  -14.8862 C   0  0  0  0  0  0  0  0  0  0  0  0
    6.9550    2.3803  -13.9607 C   0  0  0  0  0  0  0  0  0  0  0  0
    5.6854    2.0349  -13.5698 C   0  0  0  0  0  0  0  0  0  0  0  0
    5.1444    0.9206  -14.1288 N   0  0  0  0  0  0  0  0  0  0  0  0
    5.8018    0.1684  -15.0259 C   0  0  0  0  0  0  0  0  0  0  0  0
    4.9856    2.7985  -12.5351 C   0  0  0  0  0  0  0  0  0  0  0  0
    5.3942    4.1965  -12.3348 C   0  0  0  0  0  0  0  0  0  0  0  0
    6.8136    4.4533  -12.5952 C   0  0  0  0  0  0  0  0  0  0  0  0
    7.4265    5.5797  -12.0512 C   0  0  0  0  0  0  0  0  0  0  0  0
    8.7198    5.8688  -12.3563 C   0  0  0  0  0  0  0  0  0  0  0  0
    9.4251    5.0448  -13.2056 C   0  0  0  0  0  0  0  0  0  0  0  0
    8.8252    3.9386  -13.7385 C   0  0  0  0  0  0  0  0  0  0  0  0
    7.5285    3.6385  -13.4379 C   0  0  0  0  0  0  0  0  0  0  0  0
    9.3642    7.0394  -11.7945 N   0  0  0  0  0  0  0  0  0  0  0  0
    9.6621    6.9690  -10.5370 C   0  0  0  0  0  0  0  0  0  0  0  0
    9.4071    5.9076   -9.7836 N   0  0  0  0  0  0  0  0  0  0  0  0
    9.7426    5.9016   -8.4856 C   0  0  0  0  0  0  0  0  0  0  0  0
   10.3659    6.9989   -7.8838 C   0  0  0  0  0  0  0  0  0  0  0  0
   10.7090    6.9937   -6.5584 C   0  0  0  0  0  0  0  0  0  0  0  0
   11.3302    8.1014   -5.9819 C   0  0  0  0  0  0  0  0  0  0  0  0
   11.5848    9.1952   -6.7888 C   0  0  0  0  0  0  0  0  0  0  0  0
   11.2293    9.1728   -8.1174 C   0  0  0  0  0  0  0  0  0  0  0  0
   10.6106    8.0692   -8.6915 C   0  0  0  0  0  0  0  0  0  0  0  0
   10.2637    8.0479   -9.9889 N   0  0  0  0  0  0  0  0  0  0  0  0
   10.4722    8.9019  -10.5819 H   0  0  0  0  0  0  0  0  0  0  0  0
   11.6833    8.0689   -4.5766 C   0  0  0  0  0  0  0  0  0  0  0  0
   11.6542    6.8720   -3.9023 C   0  0  0  0  0  0  0  0  0  0  0  0
   11.9941    6.8346   -2.5446 C   0  0  0  0  0  0  0  0  0  0  0  0
   12.3562    7.9929   -1.8867 C   0  0  0  0  0  0  0  0  0  0  0  0
   12.3803    9.1839   -2.5767 C   0  0  0  0  0  0  0  0  0  0  0  0
   12.0415    9.2271   -3.9344 C   0  0  0  0  0  0  0  0  0  0  0  0
  1  2  1  0
  2  3  1  0
  3  4  1  0
  4  5  1  0
  5  6  2  0
  6  7  1  0
  7  8  2  0
  8  9  1  0
  9 10  2  0
 10 11  1  0
  9 12  1  0
 12 13  1  0
 13 14  1  0
 14 15  2  0
 15 16  1  0
 16 20  1  0
 20 21  2  0
 21 22  1  0
 22 23  2  0
 23 24  1  0
 24 25  2  0
 25 26  1  0
 26 32  1  0
 32 33  2  0
 33 34  1  0
 34 35  2  0
 35 36  1  0
 36 37  2  0
 26 27  2  0
 27 28  1  0
 28 29  2  0
 29 30  1  0
 30 31  1  0
 16 17  2  0
 17 18  1  0
 18 19  2  0
 11  3  2  0
 19 14  1  0
 11  6  1  0
 30 21  1  0
 19  8  1  0
 29 24  1  0
 37 32  1  0
M  CHG  1   4  -1
M  END
>  <minimizedAffinity>  (489) 
-16.89033

$$$$
Mol: 75_26 - SminaDock
     RDKit          3D

 40 45  0  0  0  0  0  0  0  0999 V2000
   11.1671    7.8336   -8.8058 C   0  0  0  0  0  0  0  0  0  0  0  0
   10.1876    6.9468   -8.3824 C   0  0  0  0  0  0  0  0  0  0  0  0
    9.4777    6.2365   -9.3220 C   0  0  0  0  0  0  0  0  0  0  0  0
    9.7505    6.4167  -10.6711 C   0  0  0  0  0  0  0  0  0  0  0  0
   10.7138    7.2883  -11.1071 C   0  0  0  0  0  0  0  0  0  0  0  0
   11.4375    8.0126  -10.1443 C   0  0  0  0  0  0  0  0  0  0  0  0
   11.1410    7.6238  -12.4836 C   0  0  0  0  0  0  0  0  0  0  0  0
   11.2298    6.4489  -13.3769 C   0  0  0  0  0  0  0  0  0  0  0  0
   12.3065    6.2665  -14.0150 O   0  0  0  0  0  0  0  0  0  0  0  0
   10.2369    5.4444  -13.6392 C   0  0  0  0  0  0  0  0  0  0  0  0
   10.3619    4.8160  -14.8732 C   0  0  0  0  0  0  0  0  0  0  0  0
    9.4695    3.8341  -15.2421 C   0  0  0  0  0  0  0  0  0  0  0  0
    8.4308    3.4364  -14.4202 C   0  0  0  0  0  0  0  0  0  0  0  0
    8.2991    4.0468  -13.2068 C   0  0  0  0  0  0  0  0  0  0  0  0
    9.1814    5.0272  -12.8257 C   0  0  0  0  0  0  0  0  0  0  0  0
    8.8813    5.5565  -11.4945 C   0  0  0  0  0  0  0  0  0  0  0  0
    7.7908    5.2630  -10.9904 O   0  0  0  0  0  0  0  0  0  0  0  0
   12.4247    8.3818   -1.5862 N   0  0  0  0  0  0  0  0  0  0  0  0
   11.6557    7.6066   -2.4716 C   0  0  0  0  0  0  0  0  0  0  0  0
   10.8302    6.6017   -2.0230 O   0  0  0  0  0  0  0  0  0  0  0  0
   11.7140    7.8345   -3.7727 C   0  0  0  0  0  0  0  0  0  0  0  0
   12.5339    8.8416   -4.2911 C   0  0  0  0  0  0  0  0  0  0  0  0
   12.5960    9.0804   -5.6369 C   0  0  0  0  0  0  0  0  0  0  0  0
   11.8702    8.3583   -6.5388 C   0  0  0  0  0  0  0  0  0  0  0  0
   11.9477    8.6106   -7.8365 C   0  0  0  0  0  0  0  0  0  0  0  0
   11.0522    7.3563   -6.0450 C   0  0  0  0  0  0  0  0  0  0  0  0
   10.9860    7.1122   -4.6947 C   0  0  0  0  0  0  0  0  0  0  0  0
   12.0859    9.2910   -1.2106 H   0  0  0  0  0  0  0  0  0  0  0  0
   13.3808    8.0792   -1.2608 H   0  0  0  0  0  0  0  0  0  0  0  0
   11.0925    5.6519   -1.8461 H   0  0  0  0  0  0  0  0  0  0  0  0
    7.4945    2.3829  -14.8433 C   0  0  0  0  0  0  0  0  0  0  0  0
    7.6696    1.7242  -16.0416 C   0  0  0  0  0  0  0  0  0  0  0  0
    6.7951    0.7245  -16.4565 C   0  0  0  0  0  0  0  0  0  0  0  0
    5.7213    0.3603  -15.6786 C   0  0  0  0  0  0  0  0  0  0  0  0
    4.8255   -0.6256  -16.0453 C   0  0  0  0  0  0  0  0  0  0  0  0
    3.7549   -0.9762  -15.2493 C   0  0  0  0  0  0  0  0  0  0  0  0
    3.5569   -0.3281  -14.0388 C   0  0  0  0  0  0  0  0  0  0  0  0
    4.4527    0.6464  -13.6892 C   0  0  0  0  0  0  0  0  0  0  0  0
    5.5331    1.0097  -14.4782 C   0  0  0  0  0  0  0  0  0  0  0  0
    6.4147    2.0096  -14.0716 C   0  0  0  0  0  0  0  0  0  0  0  0
 18 19  1  0
 19 20  1  0
 19 21  2  0
 21 22  1  0
 22 23  2  0
 23 24  1  0
 24 25  2  0
 25  1  1  0
  1  2  2  0
  2  3  1  0
  3  4  2  0
  4  5  1  0
  5  6  2  0
  5  7  1  0
  7  8  1  0
  8  9  2  0
  8 10  1  0
 10 11  2  0
 11 12  1  0
 12 13  2  0
 13 31  1  0
 31 32  2  0
 32 33  1  0
 33 34  2  0
 34 35  1  0
 35 36  2  0
 36 37  1  0
 37 38  2  0
 38 39  1  0
 39 40  2  0
 13 14  1  0
 14 15  2  0
 15 16  1  0
 16 17  2  0
 24 26  1  0
 26 27  2  0
 27 21  1  0
  6  1  1  0
 15 10  1  0
 16  4  1  0
 40 31  1  0
 39 34  1  0
 18 28  1  0
 18 29  1  0
 20 30  1  0
M  END
>  <minimizedAffinity>  (490) 
-16.91209

$$$$
Mol: 139_12 - SminaDock
     RDKit          3D

 36 42  0  0  0  0  0  0  0  0999 V2000
   11.2526    8.0311   -6.0185 C   0  0  0  0  0  0  0  0  0  0  0  0
   11.4634    9.1887   -6.7547 C   0  0  0  0  0  0  0  0  0  0  0  0
   11.0996    9.2039   -8.0848 C   0  0  0  0  0  0  0  0  0  0  0  0
   10.5314    8.0963   -8.7003 C   0  0  0  0  0  0  0  0  0  0  0  0
   10.3191    6.9457   -7.9792 C   0  0  0  0  0  0  0  0  0  0  0  0
    9.7540    5.8216   -8.5599 C   0  0  0  0  0  0  0  0  0  0  0  0
    9.4227    5.9042   -9.8567 N   0  0  0  0  0  0  0  0  0  0  0  0
    9.6263    7.0188  -10.5627 C   0  0  0  0  0  0  0  0  0  0  0  0
    9.3010    7.0666  -11.7941 N   0  0  0  0  0  0  0  0  0  0  0  0
   10.1747    8.1032   -9.9917 N   0  0  0  0  0  0  0  0  0  0  0  0
   10.3351    8.9738  -10.5381 H   0  0  0  0  0  0  0  0  0  0  0  0
   10.6902    6.9381   -6.6324 C   0  0  0  0  0  0  0  0  0  0  0  0
    8.7161    5.9072  -12.4018 C   0  0  0  0  0  0  0  0  0  0  0  0
    9.4174    5.1452  -13.3141 C   0  0  0  0  0  0  0  0  0  0  0  0
    8.8360    4.0309  -13.8775 C   0  0  0  0  0  0  0  0  0  0  0  0
    7.5524    3.6745  -13.5310 C   0  0  0  0  0  0  0  0  0  0  0  0
    6.8543    4.4398  -12.6238 C   0  0  0  0  0  0  0  0  0  0  0  0
    7.4379    5.5653  -12.0502 C   0  0  0  0  0  0  0  0  0  0  0  0
    5.4347    4.1271  -12.3509 C   0  0  0  0  0  0  0  0  0  0  0  0
    5.1391    2.6852  -12.4152 C   0  0  0  0  0  0  0  0  0  0  0  0
    5.7529    1.9997  -13.5572 C   0  0  0  0  0  0  0  0  0  0  0  0
    5.1598    0.8587  -14.1201 C   0  0  0  0  0  0  0  0  0  0  0  0
    5.8005    0.1614  -15.1232 C   0  0  0  0  0  0  0  0  0  0  0  0
    7.0320    0.5651  -15.5953 C   0  0  0  0  0  0  0  0  0  0  0  0
    7.6146    1.6946  -15.0382 C   0  0  0  0  0  0  0  0  0  0  0  0
    6.9765    2.4058  -14.0281 C   0  0  0  0  0  0  0  0  0  0  0  0
    7.4112   -0.3820  -16.6307 C   0  0  0  0  0  0  0  0  0  0  0  0
    8.4725   -0.3685  -17.3150 O   0  0  0  0  0  0  0  0  0  0  0  0
    6.4158   -1.3262  -16.7629 O   0  0  0  0  0  0  0  0  0  0  0  0
    5.3637   -1.0655  -15.8599 C   0  0  0  0  0  0  0  0  0  0  0  0
   12.3623    7.9676   -1.9424 C   0  0  0  0  0  0  0  0  0  0  0  0
   12.0230    6.7955   -2.5711 C   0  0  0  0  0  0  0  0  0  0  0  0
   11.6618    6.8346   -3.9055 C   0  0  0  0  0  0  0  0  0  0  0  0
   11.6331    8.0133   -4.6198 C   0  0  0  0  0  0  0  0  0  0  0  0
   11.9767    9.1760   -3.9714 C   0  0  0  0  0  0  0  0  0  0  0  0
   12.3413    9.1594   -2.6354 C   0  0  0  0  0  0  0  0  0  0  0  0
 31 32  2  0
 32 33  1  0
 33 34  2  0
 34  1  1  0
  1  2  2  0
  2  3  1  0
  3  4  2  0
  4  5  1  0
  5  6  1  0
  6  7  2  0
  7  8  1  0
  8  9  2  0
  9 13  1  0
 13 14  2  0
 14 15  1  0
 15 16  2  0
 16 17  1  0
 17 18  2  0
 17 19  1  0
 19 20  1  0
 20 21  1  0
 21 22  2  0
 22 23  1  0
 23 24  2  0
 24 25  1  0
 25 26  2  0
 24 27  1  0
 27 28  2  0
 27 29  1  0
 29 30  1  0
  8 10  1  0
 10 11  1  0
  5 12  2  0
 34 35  1  0
 35 36  2  0
 36 31  1  0
 12  1  1  0
 10  4  1  0
 18 13  1  0
 26 21  1  0
 26 16  1  0
 30 23  1  0
M  END
>  <minimizedAffinity>  (491) 
-16.89322

$$$$
Mol: 138_48 - SminaDock
     RDKit          3D

 47 54  0  0  0  0  0  0  0  0999 V2000
   12.2738    2.1551  -17.8146 C   0  0  0  0  0  0  0  0  0  0  0  0
   11.3514    2.5737  -17.0002 C   0  0  0  0  0  0  0  0  0  0  0  0
   11.0730    1.8797  -15.8022 N   0  0  0  0  0  0  0  0  0  0  0  0
   11.3172    0.8576  -15.7406 H   0  0  0  0  0  0  0  0  0  0  0  0
   10.4815    2.5110  -14.6934 N   0  0  1  0  0  0  0  0  0  0  0  0
   10.1076    1.8001  -14.0486 H   0  0  0  0  0  0  0  0  0  0  0  0
   11.1943    3.1410  -14.2865 H   0  0  0  0  0  0  0  0  0  0  0  0
    9.3825    3.3447  -15.2375 C   0  0  2  0  0  0  0  0  0  0  0  0
    8.6583    4.0038  -14.1442 C   0  0  0  0  0  0  0  0  0  0  0  0
    9.2566    5.1241  -13.5287 C   0  0  0  0  0  0  0  0  0  0  0  0
    8.6658    5.7456  -12.4521 C   0  0  0  0  0  0  0  0  0  0  0  0
    7.4704    5.2614  -11.9715 C   0  0  0  0  0  0  0  0  0  0  0  0
    6.8514    4.1563  -12.5579 C   0  0  0  0  0  0  0  0  0  0  0  0
    7.4468    3.5426  -13.6327 C   0  0  0  0  0  0  0  0  0  0  0  0
    6.7898    2.4340  -14.3288 C   0  0  0  0  0  0  0  0  0  0  0  0
    7.3648    1.9095  -15.4394 C   0  0  0  0  0  0  0  0  0  0  0  0
    6.5637    0.8314  -15.8345 C   0  0  0  0  0  0  0  0  0  0  0  0
    6.7182   -0.0274  -16.9004 C   0  0  0  0  0  0  0  0  0  0  0  0
    5.7827   -1.0262  -17.0855 C   0  0  0  0  0  0  0  0  0  0  0  0
    4.7317   -1.1249  -16.1973 C   0  0  0  0  0  0  0  0  0  0  0  0
    4.6104   -0.2459  -15.1410 C   0  0  0  0  0  0  0  0  0  0  0  0
    5.5500    0.7719  -14.9393 C   0  0  0  0  0  0  0  0  0  0  0  0
    5.6702    1.7564  -13.9971 N   0  0  0  0  0  0  0  0  0  0  0  0
    4.7206    1.9187  -12.9181 C   0  0  0  0  0  0  0  0  0  0  0  0
    8.5659    2.4812  -16.0762 C   0  0  0  0  0  0  0  0  0  0  0  0
   10.0808    4.3691  -16.0282 N   0  0  1  0  0  0  0  0  0  0  0  0
    9.4268    5.1229  -16.2315 H   0  0  0  0  0  0  0  0  0  0  0  0
   10.9344    4.6156  -15.5074 H   0  0  0  0  0  0  0  0  0  0  0  0
   10.5554    3.7874  -17.2855 C   0  0  0  0  0  0  0  0  0  0  0  0
    9.2626    6.8762  -11.8248 N   0  0  0  0  0  0  0  0  0  0  0  0
    9.6010    6.8687  -10.5744 C   0  0  0  0  0  0  0  0  0  0  0  0
   10.1620    7.9598  -10.0244 N   0  0  0  0  0  0  0  0  0  0  0  0
   10.5373    8.0136   -8.7224 C   0  0  0  0  0  0  0  0  0  0  0  0
   11.1121    9.1336   -8.1617 C   0  0  0  0  0  0  0  0  0  0  0  0
   11.4863    9.1497   -6.8128 C   0  0  0  0  0  0  0  0  0  0  0  0
   11.2926    8.0502   -6.0048 C   0  0  0  0  0  0  0  0  0  0  0  0
   10.7154    6.9359   -6.5816 C   0  0  0  0  0  0  0  0  0  0  0  0
   10.3459    6.9165   -7.9094 C   0  0  0  0  0  0  0  0  0  0  0  0
    9.7682    5.7971   -8.4817 C   0  0  0  0  0  0  0  0  0  0  0  0
    9.4069    5.7879   -9.7933 N   0  0  0  0  0  0  0  0  0  0  0  0
    8.9795    4.9494  -10.2023 H   0  0  0  0  0  0  0  0  0  0  0  0
   11.6770    8.0497   -4.5968 C   0  0  0  0  0  0  0  0  0  0  0  0
   11.6912    6.8785   -3.8716 C   0  0  0  0  0  0  0  0  0  0  0  0
   12.0507    6.8416   -2.5347 C   0  0  0  0  0  0  0  0  0  0  0  0
   12.4127    7.9980   -1.8749 C   0  0  0  0  0  0  0  0  0  0  0  0
   12.3999    9.1734   -2.5972 C   0  0  0  0  0  0  0  0  0  0  0  0
   12.0397    9.2057   -3.9341 C   0  0  0  0  0  0  0  0  0  0  0  0
  1  2  2  0
  2  3  1  0
  3  4  1  0
  3  5  1  0
  5  6  1  1
  5  7  1  0
  5  8  1  0
  8  9  1  0
  9 10  2  0
 10 11  1  0
 11 30  1  0
 30 31  2  0
 31 32  1  0
 32 33  2  0
 33 34  1  0
 34 35  2  0
 35 36  1  0
 36 42  1  0
 42 43  2  0
 43 44  1  0
 44 45  2  0
 45 46  1  0
 46 47  2  0
 36 37  2  0
 37 38  1  0
 38 39  2  0
 39 40  1  0
 40 41  1  0
 11 12  2  0
 12 13  1  0
 13 14  2  0
 14 15  1  0
 15 16  2  0
 16 17  1  0
 17 18  2  0
 18 19  1  0
 19 20  2  0
 20 21  1  0
 21 22  2  0
 22 23  1  0
 23 24  1  0
 16 25  1  0
  8 26  1  0
 26 27  1  6
 26 28  1  0
 26 29  1  0
 29  2  1  0
  8 25  1  6
 14  9  1  0
 23 15  1  0
 40 31  1  0
 22 17  1  0
 38 33  1  0
 47 42  1  0
M  CHG  2   5   1  26   1
M  END
>  <minimizedAffinity>  (492) 
-16.86440

$$$$
Mol: 147_43 - SminaDock
     RDKit          3D

 36 42  0  0  0  0  0  0  0  0999 V2000
    9.0301    3.9942  -13.6232 C   0  0  0  0  0  0  0  0  0  0  0  0
    9.4848    5.1309  -13.0581 N   0  0  0  0  0  0  0  0  0  0  0  0
    8.7347    5.9018  -12.2628 C   0  0  0  0  0  0  0  0  0  0  0  0
    7.4411    5.5291  -12.0024 C   0  0  0  0  0  0  0  0  0  0  0  0
    6.9308    4.3710  -12.5598 C   0  0  0  0  0  0  0  0  0  0  0  0
    7.7286    3.5734  -13.3913 C   0  0  0  0  0  0  0  0  0  0  0  0
    7.1846    2.3580  -13.9756 C   0  0  0  0  0  0  0  0  0  0  0  0
    7.9918    1.6002  -14.7807 C   0  0  0  0  0  0  0  0  0  0  0  0
    7.4596    0.4335  -15.3339 C   0  0  0  0  0  0  0  0  0  0  0  0
    6.1572    0.0523  -15.0783 C   0  0  0  0  0  0  0  0  0  0  0  0
    5.6243   -1.1092  -15.6275 C   0  0  0  0  0  0  0  0  0  0  0  0
    4.3232   -1.4843  -15.3680 C   0  0  0  0  0  0  0  0  0  0  0  0
    3.5799   -0.6627  -14.5461 C   0  0  0  0  0  0  0  0  0  0  0  0
    4.0720    0.4891  -13.9875 C   0  0  0  0  0  0  0  0  0  0  0  0
    5.3772    0.8421  -14.2630 C   0  0  0  0  0  0  0  0  0  0  0  0
    5.8805    2.0251  -13.6881 C   0  0  0  0  0  0  0  0  0  0  0  0
    4.9864    2.8108  -12.8352 C   0  0  0  0  0  0  0  0  0  0  0  0
    5.5380    4.0345  -12.2348 C   0  0  0  0  0  0  0  0  0  0  0  0
    9.2826    7.1124  -11.6864 N   0  0  0  0  0  0  0  0  0  0  0  0
    9.6284    7.0468  -10.4343 C   0  0  0  0  0  0  0  0  0  0  0  0
    9.4921    5.9261   -9.7000 N   0  0  0  0  0  0  0  0  0  0  0  0
    9.8428    5.8421   -8.4115 C   0  0  0  0  0  0  0  0  0  0  0  0
   10.3749    6.9639   -7.7945 C   0  0  0  0  0  0  0  0  0  0  0  0
   10.7587    6.9431   -6.4602 C   0  0  0  0  0  0  0  0  0  0  0  0
   11.2890    8.0747   -5.8596 C   0  0  0  0  0  0  0  0  0  0  0  0
   11.4103    9.1989   -6.6489 C   0  0  0  0  0  0  0  0  0  0  0  0
   11.0261    9.2167   -7.9810 C   0  0  0  0  0  0  0  0  0  0  0  0
   10.5052    8.1005   -8.5662 C   0  0  0  0  0  0  0  0  0  0  0  0
   10.1367    8.1428   -9.8708 N   0  0  0  0  0  0  0  0  0  0  0  0
   10.2433    9.0187  -10.4447 H   0  0  0  0  0  0  0  0  0  0  0  0
   11.6857    8.0380   -4.4633 C   0  0  0  0  0  0  0  0  0  0  0  0
   11.7398    6.8776   -3.7312 C   0  0  0  0  0  0  0  0  0  0  0  0
   12.1141    6.8322   -2.4087 C   0  0  0  0  0  0  0  0  0  0  0  0
   12.4585    8.0286   -1.7720 C   0  0  0  0  0  0  0  0  0  0  0  0
   12.4088    9.1947   -2.4916 C   0  0  0  0  0  0  0  0  0  0  0  0
   12.0332    9.2143   -3.8064 C   0  0  0  0  0  0  0  0  0  0  0  0
  1  2  2  0
  2  3  1  0
  3 19  1  0
 19 20  2  0
 20 21  1  0
 21 22  2  0
 22 23  1  0
 23 24  2  0
 24 25  1  0
 25 31  1  0
 31 32  2  0
 32 33  1  0
 33 34  2  0
 34 35  1  0
 35 36  2  0
 25 26  2  0
 26 27  1  0
 27 28  2  0
 28 29  1  0
 29 30  1  0
  3  4  2  0
  4  5  1  0
  5  6  2  0
  6  7  1  0
  7  8  2  0
  8  9  1  0
  9 10  2  0
 10 11  1  0
 11 12  2  0
 12 13  1  0
 13 14  2  0
 14 15  1  0
 15 16  2  0
 16 17  1  0
 17 18  1  0
  6  1  1  0
 16  7  1  0
 29 20  1  0
 18  5  1  0
 28 23  1  0
 15 10  1  0
 36 31  1  0
M  END
>  <minimizedAffinity>  (493) 
-16.88314

$$$$
Mol: 148_19 - SminaDock
     RDKit          3D

 39 45  0  0  0  0  0  0  0  0999 V2000
    8.5680    5.8312  -12.2060 C   0  0  0  0  0  0  0  0  0  0  0  0
    7.1883    5.6395  -12.0466 C   0  0  0  0  0  0  0  0  0  0  0  0
    6.5591    4.5320  -12.5744 C   0  0  0  0  0  0  0  0  0  0  0  0
    7.3349    3.6369  -13.2527 C   0  0  0  0  0  0  0  0  0  0  0  0
    8.7020    3.7911  -13.4345 C   0  0  0  0  0  0  0  0  0  0  0  0
    9.3020    4.9030  -12.8984 C   0  0  0  0  0  0  0  0  0  0  0  0
    9.6711    2.9531  -14.1674 C   0  0  0  0  0  0  0  0  0  0  0  0
    9.1803    1.7563  -14.7351 N   0  0  1  0  0  0  0  0  0  0  0  0
    9.9736    1.2365  -15.2096 H   0  0  0  0  0  0  0  0  0  0  0  0
    8.8761    1.1183  -13.9757 H   0  0  0  0  0  0  0  0  0  0  0  0
    8.0840    1.9451  -15.7141 C   0  0  0  0  0  0  0  0  0  0  0  0
    6.8565    1.7366  -14.9198 C   0  0  0  0  0  0  0  0  0  0  0  0
    6.5655    2.4957  -13.7601 C   0  0  0  0  0  0  0  0  0  0  0  0
    5.4734    2.2615  -12.9844 C   0  0  0  0  0  0  0  0  0  0  0  0
    4.6293    1.2317  -13.3799 C   0  0  0  0  0  0  0  0  0  0  0  0
    4.8944    0.4847  -14.5074 C   0  0  0  0  0  0  0  0  0  0  0  0
    4.0364   -0.5445  -14.8979 C   0  0  0  0  0  0  0  0  0  0  0  0
    4.2925   -1.2922  -16.0247 C   0  0  0  0  0  0  0  0  0  0  0  0
    5.4095   -1.0539  -16.8155 C   0  0  0  0  0  0  0  0  0  0  0  0
    6.2707   -0.0250  -16.4284 C   0  0  0  0  0  0  0  0  0  0  0  0
    6.0225    0.7300  -15.2992 C   0  0  0  0  0  0  0  0  0  0  0  0
   11.2866    8.0085   -5.9532 C   0  0  0  0  0  0  0  0  0  0  0  0
   11.5340    9.1036   -6.7257 C   0  0  0  0  0  0  0  0  0  0  0  0
   11.1577    9.1051   -8.0504 C   0  0  0  0  0  0  0  0  0  0  0  0
   10.5250    8.0079   -8.6280 C   0  0  0  0  0  0  0  0  0  0  0  0
   10.2916    6.9215   -7.8196 C   0  0  0  0  0  0  0  0  0  0  0  0
    9.6607    5.8151   -8.3733 C   0  0  0  0  0  0  0  0  0  0  0  0
    9.3204    5.8779   -9.6597 N   0  0  0  0  0  0  0  0  0  0  0  0
    9.5593    6.9515  -10.4298 C   0  0  0  0  0  0  0  0  0  0  0  0
    9.2083    6.9617  -11.6660 N   0  0  0  0  0  0  0  0  0  0  0  0
   10.1713    8.0452   -9.9233 N   0  0  0  0  0  0  0  0  0  0  0  0
   10.3699    8.8915  -10.4940 H   0  0  0  0  0  0  0  0  0  0  0  0
   10.6613    6.9125   -6.5073 C   0  0  0  0  0  0  0  0  0  0  0  0
   12.4309    7.9677   -1.8790 C   0  0  0  0  0  0  0  0  0  0  0  0
   12.3774    9.1549   -2.5542 C   0  0  0  0  0  0  0  0  0  0  0  0
   12.0054    9.1544   -3.8724 C   0  0  0  0  0  0  0  0  0  0  0  0
   11.6808    8.0000   -4.5501 C   0  0  0  0  0  0  0  0  0  0  0  0
   11.7379    6.8001   -3.8570 C   0  0  0  0  0  0  0  0  0  0  0  0
   12.1119    6.8066   -2.5342 C   0  0  0  0  0  0  0  0  0  0  0  0
 34 35  2  0
 35 36  1  0
 36 37  2  0
 37 22  1  0
 22 23  2  0
 23 24  1  0
 24 25  2  0
 25 26  1  0
 26 27  1  0
 27 28  2  0
 28 29  1  0
 29 30  2  0
 30  1  1  0
  1  2  2  0
  2  3  1  0
  3  4  2  0
  4  5  1  0
  5  6  2  0
  5  7  1  0
  7  8  1  0
  8  9  1  6
  8 10  1  0
  8 11  1  0
 11 12  1  0
 12 13  2  0
 13 14  1  0
 14 15  2  0
 15 16  1  0
 16 17  2  0
 17 18  1  0
 18 19  2  0
 19 20  1  0
 20 21  2  0
 29 31  1  0
 31 32  1  0
 26 33  2  0
 37 38  1  0
 38 39  2  0
 39 34  1  0
 33 22  1  0
 31 25  1  0
  6  1  1  0
 21 12  1  0
 13  4  1  0
 21 16  1  0
M  CHG  1   8   1
M  END
>  <minimizedAffinity>  (494) 
-16.90600

$$$$
Mol: 135_42 - SminaDock
     RDKit          3D

 45 51  0  0  0  0  0  0  0  0999 V2000
   12.1631    2.4093  -17.3809 H   0  0  0  0  0  0  0  0  0  0  0  0
   11.3808    3.0115  -17.1500 O   0  0  0  0  0  0  0  0  0  0  0  0
   10.3155    2.4842  -16.3653 C   0  0  0  0  0  0  0  0  0  0  0  0
    9.0781    2.8799  -16.3660 C   0  0  0  0  0  0  0  0  0  0  0  0
    8.2532    2.0920  -15.4062 C   0  0  1  0  0  0  0  0  0  0  0  0
    9.2659    1.1261  -14.8360 C   0  0  0  0  0  0  0  0  0  0  0  0
    8.9419    0.2632  -13.9701 O   0  0  0  0  0  0  0  0  0  0  0  0
   10.4912    1.4158  -15.4503 N   0  0  0  0  0  0  0  0  0  0  0  0
   11.3785    0.8939  -15.2342 H   0  0  0  0  0  0  0  0  0  0  0  0
    7.7287    2.9445  -14.3426 C   0  0  0  0  0  0  0  0  0  0  0  0
    8.5095    4.0527  -13.9272 C   0  0  0  0  0  0  0  0  0  0  0  0
    8.0917    4.8189  -12.8646 C   0  0  0  0  0  0  0  0  0  0  0  0
    6.9170    4.4876  -12.2265 C   0  0  0  0  0  0  0  0  0  0  0  0
    6.1276    3.4015  -12.6169 C   0  0  0  0  0  0  0  0  0  0  0  0
    6.5713    2.6536  -13.6861 C   0  0  0  0  0  0  0  0  0  0  0  0
    5.7148    1.5661  -14.2084 C   0  0  0  0  0  0  0  0  0  0  0  0
    4.5571    1.2110  -13.5143 C   0  0  0  0  0  0  0  0  0  0  0  0
    3.7816    0.1669  -13.9670 C   0  0  0  0  0  0  0  0  0  0  0  0
    4.1443   -0.5195  -15.0944 C   0  0  0  0  0  0  0  0  0  0  0  0
    5.2986   -0.1879  -15.8150 C   0  0  0  0  0  0  0  0  0  0  0  0
    6.0809    0.8764  -15.3437 C   0  0  0  0  0  0  0  0  0  0  0  0
    7.2577    1.2516  -16.1108 C   0  0  0  0  0  0  0  0  0  0  0  0
    8.8177    5.9441  -12.3894 N   0  0  0  0  0  0  0  0  0  0  0  0
    9.1803    6.0635  -11.1744 C   0  0  0  0  0  0  0  0  0  0  0  0
    9.8699    7.1744  -10.8163 N   0  0  0  0  0  0  0  0  0  0  0  0
   10.2642    7.3214   -9.5320 C   0  0  0  0  0  0  0  0  0  0  0  0
   10.9723    8.4510   -9.1380 C   0  0  0  0  0  0  0  0  0  0  0  0
   11.3820    8.6170   -7.8306 C   0  0  0  0  0  0  0  0  0  0  0  0
   11.0982    7.6660   -6.8855 C   0  0  0  0  0  0  0  0  0  0  0  0
   10.3987    6.5544   -7.2843 C   0  0  0  0  0  0  0  0  0  0  0  0
    9.9762    6.3621   -8.5854 C   0  0  0  0  0  0  0  0  0  0  0  0
    9.2719    5.2347   -8.9671 C   0  0  0  0  0  0  0  0  0  0  0  0
    8.8968    5.1275  -10.2614 N   0  0  0  0  0  0  0  0  0  0  0  0
    8.3753    4.2871  -10.5315 H   0  0  0  0  0  0  0  0  0  0  0  0
   11.5318    7.8380   -5.4979 C   0  0  0  0  0  0  0  0  0  0  0  0
   12.1270    9.0019   -5.0595 C   0  0  0  0  0  0  0  0  0  0  0  0
   12.5337    9.1544   -3.7443 C   0  0  0  0  0  0  0  0  0  0  0  0
   12.3565    8.1395   -2.8180 C   0  0  0  0  0  0  0  0  0  0  0  0
   11.7593    6.9791   -3.2690 C   0  0  0  0  0  0  0  0  0  0  0  0
   11.3602    6.8357   -4.5704 C   0  0  0  0  0  0  0  0  0  0  0  0
    5.5869   -0.9659  -17.0048 C   0  0  0  0  0  0  0  0  0  0  0  0
    6.0781   -2.1534  -16.8351 O   0  0  0  0  0  0  0  0  0  0  0  0
    5.3972   -0.5974  -18.3441 N   0  0  0  0  0  0  0  0  0  0  0  0
    4.4415   -0.4563  -18.7306 H   0  0  0  0  0  0  0  0  0  0  0  0
    6.2567   -0.4720  -18.9565 H   0  0  0  0  0  0  0  0  0  0  0  0
  1  2  1  0
  2  3  1  0
  3  4  2  0
  4  5  1  0
  5  6  1  0
  6  7  2  0
  6  8  1  0
  8  9  1  0
  5 10  1  0
 10 11  2  0
 11 12  1  0
 12 23  1  0
 23 24  2  0
 24 25  1  0
 25 26  2  0
 26 27  1  0
 27 28  2  0
 28 29  1  0
 29 35  1  0
 35 36  2  0
 36 37  1  0
 37 38  2  0
 38 39  1  0
 39 40  2  0
 29 30  2  0
 30 31  1  0
 31 32  2  0
 32 33  1  0
 33 34  1  0
 12 13  2  0
 13 14  1  0
 14 15  2  0
 15 16  1  0
 16 17  2  0
 17 18  1  0
 18 19  2  0
 19 20  1  0
 20 41  1  0
 41 42  2  0
 41 43  1  0
 43 44  1  0
 43 45  1  0
 20 21  2  0
 21 22  1  0
  8  3  1  0
 15 10  1  0
 21 16  1  0
  5 22  1  6
 33 24  1  0
 31 26  1  0
 40 35  1  0
M  END
>  <minimizedAffinity>  (495) 
-16.88529

$$$$
Mol: 195_2 - SminaDock
     RDKit          3D

 47 55  0  0  0  0  0  0  0  0999 V2000
    7.1516   -1.4662  -20.3201 H   0  0  0  0  0  0  0  0  0  0  0  0
    7.0744   -0.4952  -20.3421 O   0  0  0  0  0  0  0  0  0  0  0  0
    7.9328    0.1607  -19.4580 C   0  0  2  0  0  0  0  0  0  0  0  0
    8.3996   -0.8540  -18.4434 C   0  0  0  0  0  0  0  0  0  0  0  0
    8.1222   -0.4328  -17.0285 C   0  0  0  0  0  0  0  0  0  0  0  0
    6.7015    0.0087  -16.7977 C   0  0  2  0  0  0  0  0  0  0  0  0
    6.6916    1.0589  -15.7092 C   0  0  0  0  0  0  0  0  0  0  0  0
    7.5478    2.0912  -15.3877 C   0  0  0  0  0  0  0  0  0  0  0  0
    7.2338    2.9053  -14.3074 C   0  0  0  0  0  0  0  0  0  0  0  0
    6.1021    2.7206  -13.5468 C   0  0  0  0  0  0  0  0  0  0  0  0
    5.2565    1.6629  -13.9016 C   0  0  0  0  0  0  0  0  0  0  0  0
    5.5515    0.8386  -14.9758 C   0  0  0  0  0  0  0  0  0  0  0  0
    4.8709   -0.2771  -15.5219 O   0  0  0  0  0  0  0  0  0  0  0  0
    5.8642   -1.0669  -16.1723 C   0  0  1  0  0  0  0  0  0  0  0  0
    6.0235    3.7374  -12.4601 C   0  0  0  0  0  0  0  0  0  0  0  0
    7.2488    4.5443  -12.6760 C   0  0  0  0  0  0  0  0  0  0  0  0
    7.7444    5.6445  -11.9878 C   0  0  0  0  0  0  0  0  0  0  0  0
    8.9262    6.2125  -12.4068 C   0  0  0  0  0  0  0  0  0  0  0  0
    9.6433    5.7307  -13.4896 C   0  0  0  0  0  0  0  0  0  0  0  0
    9.1336    4.6406  -14.1558 C   0  0  0  0  0  0  0  0  0  0  0  0
    7.9616    4.0659  -13.7516 C   0  0  0  0  0  0  0  0  0  0  0  0
    6.0614    0.6353  -17.9801 C   0  0  0  0  0  0  0  0  0  0  0  0
    7.1602    1.2843  -18.8333 C   0  0  0  0  0  0  0  0  0  0  0  0
    9.4362    7.3349  -11.7091 N   0  0  0  0  0  0  0  0  0  0  0  0
    9.7659    7.2673  -10.4815 C   0  0  0  0  0  0  0  0  0  0  0  0
   10.2533    8.3085   -9.7843 N   0  0  0  0  0  0  0  0  0  0  0  0
   10.5985    8.2201   -8.4816 C   0  0  0  0  0  0  0  0  0  0  0  0
   11.0968    9.3404   -7.8252 C   0  0  0  0  0  0  0  0  0  0  0  0
   11.4475    9.2481   -6.5013 C   0  0  0  0  0  0  0  0  0  0  0  0
   11.3140    8.0562   -5.8035 C   0  0  0  0  0  0  0  0  0  0  0  0
   10.8181    6.9744   -6.4892 C   0  0  0  0  0  0  0  0  0  0  0  0
   10.4547    7.0207   -7.8134 C   0  0  0  0  0  0  0  0  0  0  0  0
    9.9580    5.9615   -8.5257 C   0  0  0  0  0  0  0  0  0  0  0  0
    9.6254    6.1001   -9.8333 N   0  0  0  0  0  0  0  0  0  0  0  0
    9.2534    5.2700  -10.3313 H   0  0  0  0  0  0  0  0  0  0  0  0
   11.7008    8.0126   -4.4027 C   0  0  0  0  0  0  0  0  0  0  0  0
   12.0111    9.1669   -3.7215 C   0  0  0  0  0  0  0  0  0  0  0  0
   12.3801    9.1445   -2.3915 C   0  0  0  0  0  0  0  0  0  0  0  0
   12.4500    7.9557   -1.6977 C   0  0  0  0  0  0  0  0  0  0  0  0
   12.1418    6.7914   -2.3674 C   0  0  0  0  0  0  0  0  0  0  0  0
   11.7711    6.8275   -3.7088 C   0  0  0  0  0  0  0  0  0  0  0  0
    5.3502   -2.0684  -17.0860 C   0  0  0  0  0  0  0  0  0  0  0  0
    5.8831   -3.2872  -17.2359 N   0  0  0  0  0  0  0  0  0  0  0  0
    5.3924   -4.1966  -18.0851 C   0  0  0  0  0  0  0  0  0  0  0  0
    4.2853   -3.8764  -18.8486 C   0  0  0  0  0  0  0  0  0  0  0  0
    3.7037   -2.6405  -18.7306 C   0  0  0  0  0  0  0  0  0  0  0  0
    4.2283   -1.7273  -17.8514 C   0  0  0  0  0  0  0  0  0  0  0  0
  1  2  1  0
  3  2  1  6
  3  4  1  0
  4  5  1  0
  6  5  1  6
  6  7  1  0
  7  8  2  0
  8  9  1  0
  9 10  2  0
 10 11  1  0
 11 12  2  0
 12 13  1  0
 13 14  1  0
 14 42  1  6
 42 43  2  0
 43 44  1  0
 44 45  2  0
 45 46  1  0
 46 47  2  0
 10 15  1  0
 15 16  1  0
 16 17  2  0
 17 18  1  0
 18 24  1  0
 24 25  2  0
 25 26  1  0
 26 27  2  0
 27 28  1  0
 28 29  2  0
 29 30  1  0
 30 36  1  0
 36 37  2  0
 37 38  1  0
 38 39  2  0
 39 40  1  0
 40 41  2  0
 30 31  2  0
 31 32  1  0
 32 33  2  0
 33 34  1  0
 34 35  1  0
 18 19  2  0
 19 20  1  0
 20 21  2  0
  6 22  1  0
 22 23  1  0
 23  3  1  0
 14  6  1  0
 47 42  1  0
 21 16  1  0
 12  7  1  0
 34 25  1  0
 21  9  1  0
 32 27  1  0
 41 36  1  0
M  END
>  <minimizedAffinity>  (496) 
-16.85805

$$$$
Mol: 136_25 - SminaDock
     RDKit          3D

 43 50  0  0  0  0  0  0  0  0999 V2000
    9.9154    0.5448  -17.6589 H   0  0  0  0  0  0  0  0  0  0  0  0
    9.2908    0.1503  -16.9620 O   0  0  0  0  0  0  0  0  0  0  0  0
    7.9707   -0.1279  -17.1942 C   0  0  0  0  0  0  0  0  0  0  0  0
    7.6339   -0.7985  -18.2831 C   0  0  0  0  0  0  0  0  0  0  0  0
    6.2602   -1.1724  -18.6705 C   0  0  0  0  0  0  0  0  0  0  0  0
    6.1357   -1.3785  -20.0275 C   0  0  0  0  0  0  0  0  0  0  0  0
    4.9346   -1.7342  -20.6022 C   0  0  0  0  0  0  0  0  0  0  0  0
    3.8609   -1.8729  -19.7435 C   0  0  0  0  0  0  0  0  0  0  0  0
    3.9671   -1.6720  -18.3908 C   0  0  0  0  0  0  0  0  0  0  0  0
    5.1892   -1.3112  -17.8141 C   0  0  0  0  0  0  0  0  0  0  0  0
    5.0453   -1.1671  -16.3554 C   0  0  0  0  0  0  0  0  0  0  0  0
    5.8140   -0.0424  -15.7835 C   0  0  0  0  0  0  0  0  0  0  0  0
    5.1141    0.6005  -14.7503 C   0  0  0  0  0  0  0  0  0  0  0  0
    5.6913    1.6629  -14.1033 C   0  0  0  0  0  0  0  0  0  0  0  0
    6.9706    2.1177  -14.4568 C   0  0  0  0  0  0  0  0  0  0  0  0
    7.6392    1.4725  -15.4735 C   0  0  0  0  0  0  0  0  0  0  0  0
    7.0655    0.3853  -16.1466 C   0  0  0  0  0  0  0  0  0  0  0  0
    7.5423    3.2385  -13.7326 C   0  0  0  0  0  0  0  0  0  0  0  0
    8.7832    3.6995  -14.0835 C   0  0  0  0  0  0  0  0  0  0  0  0
    9.3299    4.7913  -13.3957 C   0  0  0  0  0  0  0  0  0  0  0  0
    8.6738    5.4357  -12.3697 C   0  0  0  0  0  0  0  0  0  0  0  0
    7.4367    4.9539  -12.0408 C   0  0  0  0  0  0  0  0  0  0  0  0
    6.8615    3.8547  -12.7162 C   0  0  0  0  0  0  0  0  0  0  0  0
    5.5419    3.3903  -12.2891 C   0  0  0  0  0  0  0  0  0  0  0  0
    4.8984    2.3047  -13.0362 C   0  0  0  0  0  0  0  0  0  0  0  0
    9.2450    6.5461  -11.6892 N   0  0  0  0  0  0  0  0  0  0  0  0
    9.5783    6.5618  -10.4419 C   0  0  0  0  0  0  0  0  0  0  0  0
   10.1046    7.6820   -9.9447 N   0  0  0  0  0  0  0  0  0  0  0  0
   10.4697    7.7709   -8.6778 C   0  0  0  0  0  0  0  0  0  0  0  0
   11.0106    8.9282   -8.1789 C   0  0  0  0  0  0  0  0  0  0  0  0
   11.3821    8.9986   -6.8661 C   0  0  0  0  0  0  0  0  0  0  0  0
   11.2277    7.9265   -6.0138 C   0  0  0  0  0  0  0  0  0  0  0  0
   10.6861    6.7562   -6.4992 C   0  0  0  0  0  0  0  0  0  0  0  0
   10.3083    6.6747   -7.8222 C   0  0  0  0  0  0  0  0  0  0  0  0
    9.7624    5.5383   -8.3722 C   0  0  0  0  0  0  0  0  0  0  0  0
    9.4095    5.4984   -9.6584 N   0  0  0  0  0  0  0  0  0  0  0  0
    8.9999    4.6056  -10.0281 H   0  0  0  0  0  0  0  0  0  0  0  0
   11.6405    8.0632   -4.6200 C   0  0  0  0  0  0  0  0  0  0  0  0
   11.7030    6.9148   -3.8314 C   0  0  0  0  0  0  0  0  0  0  0  0
   12.0920    7.0506   -2.5180 C   0  0  0  0  0  0  0  0  0  0  0  0
   12.4241    8.2538   -1.9349 C   0  0  0  0  0  0  0  0  0  0  0  0
   12.3578    9.3819   -2.7274 C   0  0  0  0  0  0  0  0  0  0  0  0
   11.9717    9.2747   -4.0439 C   0  0  0  0  0  0  0  0  0  0  0  0
  1  2  1  0
  2  3  1  0
  3  4  2  0
  4  5  1  0
  5  6  2  0
  6  7  1  0
  7  8  2  0
  8  9  1  0
  9 10  2  0
 10 11  1  0
 11 12  1  0
 12 13  2  0
 13 14  1  0
 14 15  2  0
 15 16  1  0
 16 17  2  0
 15 18  1  0
 18 19  2  0
 19 20  1  0
 20 21  2  0
 21 26  1  0
 26 27  2  0
 27 28  1  0
 28 29  2  0
 29 30  1  0
 30 31  2  0
 31 32  1  0
 32 38  1  0
 38 39  2  0
 39 40  1  0
 40 41  2  0
 41 42  1  0
 42 43  2  0
 32 33  2  0
 33 34  1  0
 34 35  2  0
 35 36  1  0
 36 37  1  0
 21 22  1  0
 22 23  2  0
 23 24  1  0
 24 25  1  0
 17  3  1  0
 23 18  1  0
 10  5  1  0
 17 12  1  0
 36 27  1  0
 25 14  1  0
 34 29  1  0
 43 38  1  0
M  END
>  <minimizedAffinity>  (497) 
-16.90801

$$$$
Mol: 179_47 - SminaDock
     RDKit          3D

 47 55  0  0  0  0  0  0  0  0999 V2000
    4.5979   -1.9714  -16.9706 O   0  0  0  0  0  0  0  0  0  0  0  0
    5.0260   -0.9183  -16.1946 C   0  0  0  0  0  0  0  0  0  0  0  0
    4.3817   -0.4619  -15.1140 N   0  0  0  0  0  0  0  0  0  0  0  0
    5.0902    0.5811  -14.5998 C   0  0  0  0  0  0  0  0  0  0  0  0
    4.8815    1.4068  -13.5257 C   0  0  0  0  0  0  0  0  0  0  0  0
    5.8038    2.4017  -13.2788 C   0  0  0  0  0  0  0  0  0  0  0  0
    6.8969    2.5420  -14.1019 C   0  0  0  0  0  0  0  0  0  0  0  0
    7.1033    1.7071  -15.1833 C   0  0  0  0  0  0  0  0  0  0  0  0
    6.1994    0.7129  -15.4490 C   0  0  0  0  0  0  0  0  0  0  0  0
    6.1449   -0.1978  -16.4048 N   0  0  0  0  0  0  0  0  0  0  0  0
    7.7388    3.6783  -13.6912 C   0  0  0  0  0  0  0  0  0  0  0  0
    8.9022    4.2184  -14.1958 C   0  0  0  0  0  0  0  0  0  0  0  0
    9.4314    5.3242  -13.5784 C   0  0  0  0  0  0  0  0  0  0  0  0
    8.8714    5.9279  -12.4880 C   0  0  0  0  0  0  0  0  0  0  0  0
    7.6795    5.3364  -12.0046 C   0  0  0  0  0  0  0  0  0  0  0  0
    7.1150    4.2303  -12.5891 C   0  0  0  0  0  0  0  0  0  0  0  0
    5.8971    3.4571  -12.2332 C   0  0  0  0  0  0  0  0  0  0  0  0
    4.7257   -2.9305  -16.6955 H   0  0  0  0  0  0  0  0  0  0  0  0
    7.0392   -0.4379  -17.5142 C   0  0  1  0  0  0  0  0  0  0  0  0
    7.1707   -1.7569  -17.8698 O   0  0  0  0  0  0  0  0  0  0  0  0
    6.5482    0.4142  -18.6672 C   0  0  0  0  0  0  0  0  0  0  0  0
    7.6520    1.3447  -19.0527 C   0  0  0  0  0  0  0  0  0  0  0  0
    8.7370    1.0740  -18.0734 C   0  0  0  0  0  0  0  0  0  0  0  0
    9.9682    1.7283  -17.9879 C   0  0  0  0  0  0  0  0  0  0  0  0
   10.8829    1.3648  -17.0132 C   0  0  0  0  0  0  0  0  0  0  0  0
   10.5435    0.3570  -16.1483 C   0  0  0  0  0  0  0  0  0  0  0  0
    9.3224   -0.2733  -16.2537 C   0  0  0  0  0  0  0  0  0  0  0  0
    8.4002    0.0693  -17.2108 C   0  0  0  0  0  0  0  0  0  0  0  0
    8.0963   -2.0561  -17.8734 H   0  0  0  0  0  0  0  0  0  0  0  0
    9.3597    7.0571  -11.7993 N   0  0  0  0  0  0  0  0  0  0  0  0
    9.5043    7.9478  -12.3340 H   0  0  0  0  0  0  0  0  0  0  0  0
    9.6685    7.0585  -10.4268 C   0  0  0  0  0  0  0  0  0  0  0  0
    9.4537    5.9566   -9.6971 N   0  0  0  0  0  0  0  0  0  0  0  0
    9.7824    5.9242   -8.3934 C   0  0  0  0  0  0  0  0  0  0  0  0
   10.3419    7.0475   -7.8322 C   0  0  0  0  0  0  0  0  0  0  0  0
   10.7073    7.0234   -6.4881 C   0  0  0  0  0  0  0  0  0  0  0  0
   11.2846    8.1070   -5.8790 C   0  0  0  0  0  0  0  0  0  0  0  0
   11.4960    9.2450   -6.6476 C   0  0  0  0  0  0  0  0  0  0  0  0
   11.1513    9.3115   -7.9764 C   0  0  0  0  0  0  0  0  0  0  0  0
   10.5704    8.1949   -8.5652 C   0  0  0  0  0  0  0  0  0  0  0  0
   10.2256    8.1707   -9.8504 N   0  0  0  0  0  0  0  0  0  0  0  0
   11.6932    8.0514   -4.4836 C   0  0  0  0  0  0  0  0  0  0  0  0
   12.0361    9.2140   -3.8175 C   0  0  0  0  0  0  0  0  0  0  0  0
   12.4081    9.1574   -2.4906 C   0  0  0  0  0  0  0  0  0  0  0  0
   12.4508    7.9787   -1.7996 C   0  0  0  0  0  0  0  0  0  0  0  0
   12.1055    6.8077   -2.4722 C   0  0  0  0  0  0  0  0  0  0  0  0
   11.7319    6.8608   -3.8043 C   0  0  0  0  0  0  0  0  0  0  0  0
  1  2  1  0
  2  3  2  0
  3  4  1  0
  4  5  2  0
  5  6  1  0
  6  7  2  0
  7  8  1  0
  8  9  2  0
  9 10  1  0
 10 19  1  0
 19 20  1  6
 19 21  1  0
 21 22  1  0
 22 23  1  0
 23 24  2  0
 24 25  1  0
 25 26  2  0
 26 27  1  0
 27 28  2  0
  7 11  1  0
 11 12  2  0
 12 13  1  0
 13 14  2  0
 14 30  1  0
 30 32  1  0
 32 33  2  0
 33 34  1  0
 34 35  2  0
 35 36  1  0
 36 37  2  0
 37 42  1  0
 42 43  2  0
 43 44  1  0
 44 45  2  0
 45 46  1  0
 46 47  2  0
 37 38  1  0
 38 39  2  0
 39 40  1  0
 40 41  2  0
 14 15  1  0
 15 16  2  0
 16 17  1  0
 10  2  1  0
 28 19  1  0
 16 11  1  0
  9  4  1  0
 28 23  1  0
 41 32  1  0
 17  6  1  0
 40 35  1  0
 47 42  1  0
  1 18  1  0
 20 29  1  0
 30 31  1  0
M  END
>  <minimizedAffinity>  (498) 
-16.85287

$$$$
Mol: 134_56 - SminaDock
     RDKit          3D

 42 49  0  0  0  0  0  0  0  0999 V2000
    8.6758    6.0771  -12.2878 C   0  0  0  0  0  0  0  0  0  0  0  0
    7.4660    5.5957  -11.8352 C   0  0  0  0  0  0  0  0  0  0  0  0
    6.9458    4.4716  -12.4369 C   0  0  0  0  0  0  0  0  0  0  0  0
    7.6392    3.8419  -13.4821 C   0  0  0  0  0  0  0  0  0  0  0  0
    8.8383    4.2955  -13.9463 C   0  0  0  0  0  0  0  0  0  0  0  0
    9.3431    5.4393  -13.3194 C   0  0  0  0  0  0  0  0  0  0  0  0
    9.6166    3.6018  -14.9979 C   0  0  2  0  0  0  0  0  0  0  0  0
    8.8277    2.6730  -15.8411 C   0  0  0  0  0  0  0  0  0  0  0  0
    7.6240    2.0990  -15.2521 C   0  0  0  0  0  0  0  0  0  0  0  0
    7.0298    2.6993  -14.1694 C   0  0  0  0  0  0  0  0  0  0  0  0
    5.8806    2.1938  -13.6747 N   0  0  0  0  0  0  0  0  0  0  0  0
    5.3267    1.1073  -14.2412 C   0  0  0  0  0  0  0  0  0  0  0  0
    4.1411    0.5994  -13.7171 C   0  0  0  0  0  0  0  0  0  0  0  0
    3.5587   -0.5129  -14.2832 C   0  0  0  0  0  0  0  0  0  0  0  0
    4.1210   -1.1556  -15.3753 C   0  0  0  0  0  0  0  0  0  0  0  0
    5.2899   -0.6704  -15.9069 C   0  0  0  0  0  0  0  0  0  0  0  0
    5.8798    0.4646  -15.3256 C   0  0  0  0  0  0  0  0  0  0  0  0
    7.0518    0.9631  -15.8484 C   0  0  0  0  0  0  0  0  0  0  0  0
   10.7580    2.8903  -14.2944 C   0  0  0  0  0  0  0  0  0  0  0  0
   11.9382    3.7720  -14.4399 C   0  0  0  0  0  0  0  0  0  0  0  0
   11.7187    4.5759  -15.5890 N   0  0  1  0  0  0  0  0  0  0  0  0
   12.1386    5.5364  -15.4457 H   0  0  0  0  0  0  0  0  0  0  0  0
   12.2674    4.1812  -16.4077 H   0  0  0  0  0  0  0  0  0  0  0  0
   10.3246    4.6146  -15.8701 C   0  0  0  0  0  0  0  0  0  0  0  0
   11.3491    8.1444   -5.8675 C   0  0  0  0  0  0  0  0  0  0  0  0
   11.5434    9.2857   -6.6198 C   0  0  0  0  0  0  0  0  0  0  0  0
   11.1682    9.3412   -7.9473 C   0  0  0  0  0  0  0  0  0  0  0  0
   10.5824    8.2559   -8.5767 C   0  0  0  0  0  0  0  0  0  0  0  0
   10.2031    8.2745   -9.8711 N   0  0  0  0  0  0  0  0  0  0  0  0
    9.6355    7.2082  -10.4624 C   0  0  0  0  0  0  0  0  0  0  0  0
    9.2728    7.2366  -11.7132 N   0  0  0  0  0  0  0  0  0  0  0  0
    9.4605    6.1129   -9.7017 N   0  0  0  0  0  0  0  0  0  0  0  0
    9.0283    5.2596  -10.1016 H   0  0  0  0  0  0  0  0  0  0  0  0
    9.8280    6.0686   -8.4153 N   0  0  0  0  0  0  0  0  0  0  0  0
   10.3972    7.1236   -7.8052 C   0  0  0  0  0  0  0  0  0  0  0  0
   10.7657    7.0503   -6.4785 C   0  0  0  0  0  0  0  0  0  0  0  0
   12.4827    7.8871   -1.7402 C   0  0  0  0  0  0  0  0  0  0  0  0
   12.4751    9.0917   -2.4128 C   0  0  0  0  0  0  0  0  0  0  0  0
   12.1082    9.1773   -3.7492 C   0  0  0  0  0  0  0  0  0  0  0  0
   11.7350    8.0564   -4.4609 C   0  0  0  0  0  0  0  0  0  0  0  0
   11.7425    6.8510   -3.7883 C   0  0  0  0  0  0  0  0  0  0  0  0
   12.1088    6.7690   -2.4563 C   0  0  0  0  0  0  0  0  0  0  0  0
 37 38  2  0
 38 39  1  0
 39 40  2  0
 40 25  1  0
 25 26  1  0
 26 27  2  0
 27 28  1  0
 28 29  2  0
 29 30  1  0
 30 31  2  0
 31  1  1  0
  1  2  2  0
  2  3  1  0
  3  4  2  0
  4  5  1  0
  5  6  2  0
  5  7  1  0
  7  8  1  6
  8  9  1  0
  9 10  2  0
 10 11  1  0
 11 12  2  0
 12 13  1  0
 13 14  2  0
 14 15  1  0
 15 16  2  0
 16 17  1  0
 17 18  2  0
  7 19  1  0
 19 20  1  0
 20 21  1  0
 21 22  1  1
 21 23  1  0
 21 24  1  0
 30 32  1  0
 32 33  1  0
 32 34  1  0
 34 35  2  0
 35 36  1  0
 40 41  1  0
 41 42  2  0
 42 37  1  0
 36 25  2  0
 35 28  1  0
  6  1  1  0
 24  7  1  0
 10  4  1  0
 17 12  1  0
 18  9  1  0
M  CHG  1  21   1
M  END
>  <minimizedAffinity>  (499) 
-16.94475

$$$$
Mol: 196_44 - SminaDock
     RDKit          3D

 38 44  0  0  0  0  0  0  0  0999 V2000
    8.7475    5.9641  -12.2734 C   0  0  0  0  0  0  0  0  0  0  0  0
    9.4128    5.3569  -13.3062 C   0  0  0  0  0  0  0  0  0  0  0  0
    8.9051    4.2459  -13.9874 C   0  0  0  0  0  0  0  0  0  0  0  0
    7.6784    3.7243  -13.6144 C   0  0  0  0  0  0  0  0  0  0  0  0
    7.0077    4.3269  -12.5821 C   0  0  0  0  0  0  0  0  0  0  0  0
    7.5369    5.4459  -11.9086 C   0  0  0  0  0  0  0  0  0  0  0  0
    5.6943    3.8125  -12.1435 C   0  0  0  0  0  0  0  0  0  0  0  0
    5.1515    2.6426  -12.8440 C   0  0  0  0  0  0  0  0  0  0  0  0
    5.9416    2.0753  -13.9295 C   0  0  0  0  0  0  0  0  0  0  0  0
    5.4422    0.9795  -14.5990 C   0  0  0  0  0  0  0  0  0  0  0  0
    6.1227    0.3815  -15.6342 C   0  0  0  0  0  0  0  0  0  0  0  0
    7.3412    0.8612  -16.0441 C   0  0  0  0  0  0  0  0  0  0  0  0
    7.8590    1.9612  -15.3836 C   0  0  0  0  0  0  0  0  0  0  0  0
    7.1745    2.5577  -14.3469 C   0  0  0  0  0  0  0  0  0  0  0  0
    8.0019    0.2405  -17.0867 O   0  0  0  0  0  0  0  0  0  0  0  0
    7.5194   -0.8573  -17.7698 C   0  0  0  0  0  0  0  0  0  0  0  0
    8.2291   -1.5376  -18.5639 O   0  0  0  0  0  0  0  0  0  0  0  0
    6.1224   -1.2811  -17.5885 C   0  0  0  0  0  0  0  0  0  0  0  0
    5.5519   -0.7798  -16.3145 C   0  0  0  0  0  0  0  0  0  0  0  0
    4.5582   -1.3916  -15.8408 O   0  0  0  0  0  0  0  0  0  0  0  0
   11.3313    8.1002   -5.8177 C   0  0  0  0  0  0  0  0  0  0  0  0
   11.4871    9.2457   -6.5890 C   0  0  0  0  0  0  0  0  0  0  0  0
   11.1093    9.2570   -7.9075 C   0  0  0  0  0  0  0  0  0  0  0  0
   10.5626    8.1248   -8.5021 C   0  0  0  0  0  0  0  0  0  0  0  0
   10.3969    6.9712   -7.7556 C   0  0  0  0  0  0  0  0  0  0  0  0
   10.7904    7.0010   -6.4303 C   0  0  0  0  0  0  0  0  0  0  0  0
    9.8557    5.8440   -8.3352 C   0  0  0  0  0  0  0  0  0  0  0  0
    9.4630    5.8319   -9.6749 C   0  0  0  0  0  0  0  0  0  0  0  0
    9.6509    7.0069  -10.3682 C   0  0  0  0  0  0  0  0  0  0  0  0
    9.3201    7.1027  -11.6090 N   0  0  0  0  0  0  0  0  0  0  0  0
   10.1837    8.1188   -9.8012 N   0  0  0  0  0  0  0  0  0  0  0  0
   10.3123    8.9841  -10.3471 H   0  0  0  0  0  0  0  0  0  0  0  0
   12.4573    7.9412   -1.7806 C   0  0  0  0  0  0  0  0  0  0  0  0
   12.4422    9.1536   -2.4314 C   0  0  0  0  0  0  0  0  0  0  0  0
   12.0746    9.2381   -3.7663 C   0  0  0  0  0  0  0  0  0  0  0  0
   11.7258    8.0719   -4.4191 C   0  0  0  0  0  0  0  0  0  0  0  0
   11.7475    6.8685   -3.7494 C   0  0  0  0  0  0  0  0  0  0  0  0
   12.1087    6.7632   -2.4267 C   0  0  0  0  0  0  0  0  0  0  0  0
 33 34  2  0
 34 35  1  0
 35 36  2  0
 36 21  1  0
 21 22  2  0
 22 23  1  0
 23 24  2  0
 24 25  1  0
 25 26  2  0
 25 27  1  0
 27 28  2  0
 28 29  1  0
 29 30  2  0
 30  1  1  0
  1  2  2  0
  2  3  1  0
  3  4  2  0
  4  5  1  0
  5  6  2  0
  5  7  1  0
  7  8  1  0
  8  9  1  0
  9 10  2  0
 10 11  1  0
 11 12  2  0
 12 13  1  0
 13 14  2  0
 12 15  1  0
 15 16  1  0
 16 17  2  0
 16 18  1  0
 18 19  1  0
 19 20  2  0
 29 31  1  0
 31 32  1  0
 36 37  1  0
 37 38  2  0
 38 33  1  0
 26 21  1  0
  6  1  1  0
 14  9  1  0
 31 24  1  0
 14  4  1  0
 19 11  1  0
M  END
>  <minimizedAffinity>  (500) 
-16.91250

$$$$
Mol: 91_37 - SminaDock
     RDKit          3D

 43 48  0  0  0  0  0  0  0  0999 V2000
    8.6623    5.5011  -13.0355 N   0  0  0  0  0  0  0  0  0  0  0  0
    9.0697    5.8127  -11.8571 C   0  0  0  0  0  0  0  0  0  0  0  0
    8.6267    5.0941  -10.7738 C   0  0  0  0  0  0  0  0  0  0  0  0
    9.0144    5.3651   -9.4828 C   0  0  0  0  0  0  0  0  0  0  0  0
    9.8974    6.4214   -9.2900 C   0  0  0  0  0  0  0  0  0  0  0  0
   10.3161    6.7308   -7.9892 C   0  0  0  0  0  0  0  0  0  0  0  0
   11.1901    7.7712   -7.7529 C   0  0  0  0  0  0  0  0  0  0  0  0
   11.6219    8.4788   -8.8568 C   0  0  0  0  0  0  0  0  0  0  0  0
   11.2145    8.1801  -10.1377 C   0  0  0  0  0  0  0  0  0  0  0  0
   10.3441    7.1444  -10.3732 C   0  0  0  0  0  0  0  0  0  0  0  0
    9.9203    6.8201  -11.6076 N   0  0  0  0  0  0  0  0  0  0  0  0
   10.2638    7.3740  -12.4333 H   0  0  0  0  0  0  0  0  0  0  0  0
   11.6139    8.0810   -6.4017 C   0  0  0  0  0  0  0  0  0  0  0  0
   12.2904    9.2460   -6.1377 C   0  0  0  0  0  0  0  0  0  0  0  0
   12.7114    9.5753   -4.8519 C   0  0  0  0  0  0  0  0  0  0  0  0
   12.4481    8.7207   -3.8165 C   0  0  0  0  0  0  0  0  0  0  0  0
   12.8616    9.0306   -2.5144 C   0  0  0  0  0  0  0  0  0  0  0  0
   12.6091    8.1874   -1.4541 C   0  0  0  0  0  0  0  0  0  0  0  0
   11.9293    7.0227   -1.7367 C   0  0  0  0  0  0  0  0  0  0  0  0
   11.5141    6.6990   -3.0092 C   0  0  0  0  0  0  0  0  0  0  0  0
   11.7700    7.5482   -4.0678 C   0  0  0  0  0  0  0  0  0  0  0  0
   11.3492    7.2223   -5.3630 C   0  0  0  0  0  0  0  0  0  0  0  0
    5.3304    3.8223  -13.2345 C   0  0  0  0  0  0  0  0  0  0  0  0
    6.4088    4.6644  -13.0975 C   0  0  0  0  0  0  0  0  0  0  0  0
    7.7591    4.4217  -13.2277 C   0  0  0  0  0  0  0  0  0  0  0  0
    8.3462    3.1982  -13.5371 C   0  0  0  0  0  0  0  0  0  0  0  0
    7.7150    2.0853  -14.0924 C   0  0  0  0  0  0  0  0  0  0  0  0
    8.4401    1.2830  -14.7328 O   0  0  0  0  0  0  0  0  0  0  0  0
    6.3790    1.6993  -14.0585 C   0  0  0  0  0  0  0  0  0  0  0  0
    5.3866    2.4408  -13.4647 C   0  0  0  0  0  0  0  0  0  0  0  0
    6.0064    0.4009  -14.7002 C   0  0  1  0  0  0  0  0  0  0  0  0
    7.0597   -0.6227  -14.2554 C   0  0  0  0  0  0  0  0  0  0  0  0
    4.7570   -0.0075  -14.1214 N   0  0  0  0  0  0  0  0  0  0  0  0
    4.5677    0.2347  -13.1255 H   0  0  0  0  0  0  0  0  0  0  0  0
    3.8701   -0.6545  -14.7736 C   0  0  0  0  0  0  0  0  0  0  0  0
    2.6516   -1.0350  -14.1548 N   0  0  0  0  0  0  0  0  0  0  0  0
    2.6321   -1.7110  -13.3681 H   0  0  0  0  0  0  0  0  0  0  0  0
    1.7629   -0.6252  -14.5001 H   0  0  0  0  0  0  0  0  0  0  0  0
    4.1057   -1.0161  -16.2075 C   0  0  0  0  0  0  0  0  0  0  0  0
    4.8222    0.1153  -16.9191 C   0  0  0  0  0  0  0  0  0  0  0  0
    6.0243    0.5876  -16.1744 C   0  0  2  0  0  0  0  0  0  0  0  0
    7.1083   -0.1595  -16.6690 F   0  0  0  0  0  0  0  0  0  0  0  0
    6.2989    1.9092  -16.5055 F   0  0  0  0  0  0  0  0  0  0  0  0
 23 24  2  0
 24 25  1  0
 25  1  1  0
  1  2  2  0
  2  3  1  0
  3  4  2  0
  4  5  1  0
  5  6  2  0
  6  7  1  0
  7 13  1  0
 13 14  2  0
 14 15  1  0
 15 16  2  0
 16 17  1  0
 17 18  2  0
 18 19  1  0
 19 20  2  0
 20 21  1  0
 21 22  2  0
  7  8  2  0
  8  9  1  0
  9 10  2  0
 10 11  1  0
 11 12  1  0
 25 26  2  0
 26 27  1  0
 27 28  2  0
 27 29  1  0
 29 31  1  0
 31 32  1  6
 31 33  1  0
 33 34  1  0
 33 35  2  0
 35 36  1  0
 36 37  1  0
 36 38  1  0
 35 39  1  0
 39 40  1  0
 40 41  1  0
 41 42  1  6
 41 43  1  0
 29 30  2  0
 30 23  1  0
 11  2  1  0
 41 31  1  0
 10  5  1  0
 22 13  1  0
 21 16  1  0
M  CHG  1  33   1
M  END
>  <minimizedAffinity>  (501) 
-16.93225

$$$$
Mol: 188_43 - SminaDock
     RDKit          3D

 42 49  0  0  0  0  0  0  0  0999 V2000
   11.0920   -0.2290  -16.2373 H   0  0  0  0  0  0  0  0  0  0  0  0
   10.4419   -0.1203  -15.4435 N   0  0  0  0  0  0  0  0  0  0  0  0
    9.5889    0.8388  -15.3168 C   0  0  0  0  0  0  0  0  0  0  0  0
    9.3530    1.9133  -16.1884 O   0  0  0  0  0  0  0  0  0  0  0  0
    8.0108    2.2717  -16.0589 C   0  0  0  0  0  0  0  0  0  0  0  0
    7.6507    1.8084  -14.6823 C   0  0  1  0  0  0  0  0  0  0  0  0
    7.4516    2.9865  -13.7596 C   0  0  0  0  0  0  0  0  0  0  0  0
    8.3070    4.0073  -13.4306 C   0  0  0  0  0  0  0  0  0  0  0  0
    7.8889    4.9754  -12.5535 C   0  0  0  0  0  0  0  0  0  0  0  0
    6.6249    4.9796  -11.9695 C   0  0  0  0  0  0  0  0  0  0  0  0
    5.7785    3.9465  -12.3114 C   0  0  0  0  0  0  0  0  0  0  0  0
    6.1993    2.9586  -13.2037 C   0  0  0  0  0  0  0  0  0  0  0  0
    5.5465    1.7792  -13.7401 C   0  0  0  0  0  0  0  0  0  0  0  0
    4.2617    1.2637  -13.5170 C   0  0  0  0  0  0  0  0  0  0  0  0
    3.8234    0.1155  -14.1321 C   0  0  0  0  0  0  0  0  0  0  0  0
    4.6722   -0.5390  -14.9865 C   0  0  0  0  0  0  0  0  0  0  0  0
    4.5745   -1.6275  -15.7154 O   0  0  0  0  0  0  0  0  0  0  0  0
    5.6703   -1.8487  -16.3752 N   0  0  0  0  0  0  0  0  0  0  0  0
    6.5613   -0.8748  -16.0917 C   0  0  0  0  0  0  0  0  0  0  0  0
    5.9374   -0.0436  -15.2146 C   0  0  0  0  0  0  0  0  0  0  0  0
    6.3775    1.1102  -14.5964 C   0  0  0  0  0  0  0  0  0  0  0  0
    8.7080    0.9710  -14.2241 N   0  0  2  0  0  0  0  0  0  0  0  0
    9.2111    1.3571  -13.3852 H   0  0  0  0  0  0  0  0  0  0  0  0
    8.3155    0.0414  -13.9209 H   0  0  0  0  0  0  0  0  0  0  0  0
    8.7528    6.0231  -12.2088 N   0  0  0  0  0  0  0  0  0  0  0  0
    9.1362    6.1567  -10.9781 C   0  0  0  0  0  0  0  0  0  0  0  0
    9.9661    7.1469  -10.5947 N   0  0  0  0  0  0  0  0  0  0  0  0
   10.3786    7.3066   -9.3235 C   0  0  0  0  0  0  0  0  0  0  0  0
   11.2305    8.3277   -8.9448 C   0  0  0  0  0  0  0  0  0  0  0  0
   11.6615    8.5035   -7.6461 C   0  0  0  0  0  0  0  0  0  0  0  0
   11.2394    7.6363   -6.6605 C   0  0  0  0  0  0  0  0  0  0  0  0
   10.3785    6.6025   -7.0372 C   0  0  0  0  0  0  0  0  0  0  0  0
    9.9547    6.4375   -8.3394 C   0  0  0  0  0  0  0  0  0  0  0  0
    9.1039    5.4221   -8.7321 C   0  0  0  0  0  0  0  0  0  0  0  0
    8.7170    5.3040  -10.0267 N   0  0  0  0  0  0  0  0  0  0  0  0
    8.0724    4.5164  -10.2640 H   0  0  0  0  0  0  0  0  0  0  0  0
   11.6844    7.8076   -5.2860 C   0  0  0  0  0  0  0  0  0  0  0  0
   12.4230    8.9149   -4.8864 C   0  0  0  0  0  0  0  0  0  0  0  0
   12.8219    9.0355   -3.5789 C   0  0  0  0  0  0  0  0  0  0  0  0
   12.5259    8.0979   -2.6103 C   0  0  0  0  0  0  0  0  0  0  0  0
   11.7932    6.9962   -2.9993 C   0  0  0  0  0  0  0  0  0  0  0  0
   11.3833    6.8669   -4.3306 C   0  0  0  0  0  0  0  0  0  0  0  0
  1  2  1  0
  2  3  2  0
  3  4  1  0
  4  5  1  0
  6  5  1  6
  6  7  1  0
  7  8  2  0
  8  9  1  0
  9 25  1  0
 25 26  2  0
 26 27  1  0
 27 28  2  0
 28 29  1  0
 29 30  2  0
 30 31  1  0
 31 37  1  0
 37 38  2  0
 38 39  1  0
 39 40  2  0
 40 41  1  0
 41 42  2  0
 31 32  2  0
 32 33  1  0
 33 34  2  0
 34 35  1  0
 35 36  1  0
  9 10  2  0
 10 11  1  0
 11 12  2  0
 12 13  1  0
 13 14  2  0
 14 15  1  0
 15 16  2  0
 16 17  1  0
 17 18  1  0
 18 19  2  0
 19 20  1  0
 20 21  2  0
  6 22  1  0
 22 23  1  1
 22 24  1  0
 22  3  1  0
 21  6  1  0
 12  7  1  0
 21 13  1  0
 35 26  1  0
 20 16  1  0
 33 28  1  0
 42 37  1  0
M  CHG  1  22   1
M  END
>  <minimizedAffinity>  (502) 
-16.92932

$$$$
Mol: 188_51 - SminaDock
     RDKit          3D

 44 52  0  0  0  0  0  0  0  0999 V2000
    5.2107   -2.4371  -17.8122 C   0  0  0  0  0  0  0  0  0  0  0  0
    6.3814   -2.1420  -18.4067 N   0  0  0  0  0  0  0  0  0  0  0  0
    6.8849   -1.0794  -17.7189 C   0  0  0  0  0  0  0  0  0  0  0  0
    8.0429   -0.3690  -17.8847 C   0  0  0  0  0  0  0  0  0  0  0  0
    8.3162    0.6957  -17.0190 C   0  0  0  0  0  0  0  0  0  0  0  0
    7.4740    1.0642  -16.0047 C   0  0  0  0  0  0  0  0  0  0  0  0
    7.8041    2.1257  -15.1933 C   0  0  0  0  0  0  0  0  0  0  0  0
    6.8898    2.4226  -14.2086 C   0  0  0  0  0  0  0  0  0  0  0  0
    5.7148    1.6856  -14.0579 C   0  0  0  0  0  0  0  0  0  0  0  0
    5.4268    0.6395  -14.8841 C   0  0  0  0  0  0  0  0  0  0  0  0
    6.3209    0.3198  -15.8776 C   0  0  0  0  0  0  0  0  0  0  0  0
    6.0144   -0.7370  -16.7103 C   0  0  0  0  0  0  0  0  0  0  0  0
    4.9873   -1.5771  -16.7747 N   0  0  0  0  0  0  0  0  0  0  0  0
    7.3512    3.5526  -13.4518 C   0  0  0  0  0  0  0  0  0  0  0  0
    6.7695    4.2139  -12.3770 C   0  0  0  0  0  0  0  0  0  0  0  0
    7.4304    5.2925  -11.8357 C   0  0  0  0  0  0  0  0  0  0  0  0
    8.6399    5.7231  -12.3315 C   0  0  0  0  0  0  0  0  0  0  0  0
    9.1821    5.0289  -13.4077 C   0  0  0  0  0  0  0  0  0  0  0  0
    8.5506    3.9418  -13.9793 C   0  0  0  0  0  0  0  0  0  0  0  0
    8.9460    3.0336  -15.1309 C   0  0  1  0  0  0  0  0  0  0  0  0
   10.2078    2.3906  -14.6464 C   0  0  0  0  0  0  0  0  0  0  0  0
   11.3358    2.2834  -15.5850 C   0  0  0  0  0  0  0  0  0  0  0  0
   11.4298    3.2398  -16.6288 N   0  0  0  0  0  0  0  0  0  0  0  0
   11.4339    2.7842  -17.5684 H   0  0  0  0  0  0  0  0  0  0  0  0
   10.5213    4.3183  -16.6204 C   0  0  0  0  0  0  0  0  0  0  0  0
    9.0923    3.9442  -16.3073 C   0  0  0  0  0  0  0  0  0  0  0  0
    9.2669    6.8306  -11.7371 N   0  0  0  0  0  0  0  0  0  0  0  0
    9.6110    6.8728  -10.5130 C   0  0  0  0  0  0  0  0  0  0  0  0
   10.2034    7.9611  -10.0173 N   0  0  0  0  0  0  0  0  0  0  0  0
   10.5755    8.0281   -8.7242 C   0  0  0  0  0  0  0  0  0  0  0  0
   11.1865    9.1337   -8.1848 C   0  0  0  0  0  0  0  0  0  0  0  0
   11.5547    9.1692   -6.8551 C   0  0  0  0  0  0  0  0  0  0  0  0
   11.3178    8.0912   -6.0296 C   0  0  0  0  0  0  0  0  0  0  0  0
   10.7049    6.9793   -6.5662 C   0  0  0  0  0  0  0  0  0  0  0  0
   10.3393    6.9539   -7.9027 C   0  0  0  0  0  0  0  0  0  0  0  0
    9.7280    5.8249   -8.4052 C   0  0  0  0  0  0  0  0  0  0  0  0
    9.3831    5.8311   -9.7122 N   0  0  0  0  0  0  0  0  0  0  0  0
    8.9216    4.9575  -10.0614 H   0  0  0  0  0  0  0  0  0  0  0  0
   11.6897    8.0830   -4.6174 C   0  0  0  0  0  0  0  0  0  0  0  0
   12.0733    9.2366   -3.9599 C   0  0  0  0  0  0  0  0  0  0  0  0
   12.4129    9.1687   -2.6258 C   0  0  0  0  0  0  0  0  0  0  0  0
   12.3900    7.9945   -1.9024 C   0  0  0  0  0  0  0  0  0  0  0  0
   12.0022    6.8576   -2.5878 C   0  0  0  0  0  0  0  0  0  0  0  0
   11.6624    6.8981   -3.9034 C   0  0  0  0  0  0  0  0  0  0  0  0
  1  2  2  0
  2  3  1  0
  3  4  2  0
  4  5  1  0
  5  6  2  0
  6  7  1  0
  7  8  2  0
  8  9  1  0
  9 10  2  0
 10 11  1  0
 11 12  2  0
 12 13  1  0
  8 14  1  0
 14 15  2  0
 15 16  1  0
 16 17  2  0
 17 27  1  0
 27 28  2  0
 28 29  1  0
 29 30  2  0
 30 31  1  0
 31 32  2  0
 32 33  1  0
 33 39  1  0
 39 40  2  0
 40 41  1  0
 41 42  2  0
 42 43  1  0
 43 44  2  0
 33 34  2  0
 34 35  1  0
 35 36  2  0
 36 37  1  0
 37 38  1  0
 17 18  1  0
 18 19  2  0
 19 20  1  0
 20 21  1  1
 21 22  1  0
 22 23  1  0
 23 24  1  0
 23 25  1  0
 25 26  1  0
 13  1  1  0
 19 14  1  0
 26 20  1  0
 12  3  1  0
 37 28  1  0
 11  6  1  0
 35 30  1  0
 20  7  1  0
 44 39  1  0
M  CHG  1  13  -1
M  END
>  <minimizedAffinity>  (503) 
-16.90781

$$$$
Mol: 163_53 - SminaDock
     RDKit          3D

 37 43  0  0  0  0  0  0  0  0999 V2000
    3.6137   -0.8181  -14.7013 C   0  0  0  0  0  0  0  0  0  0  0  0
    4.3958   -1.5357  -15.5334 N   0  0  0  0  0  0  0  0  0  0  0  0
    5.6627   -1.1344  -15.7705 C   0  0  0  0  0  0  0  0  0  0  0  0
    6.1838    0.0142  -15.1697 C   0  0  0  0  0  0  0  0  0  0  0  0
    7.4818    0.4323  -15.4077 C   0  0  0  0  0  0  0  0  0  0  0  0
    8.1747   -0.2677  -16.1902 O   0  0  0  0  0  0  0  0  0  0  0  0
    7.9820    1.5488  -14.8215 N   0  0  0  0  0  0  0  0  0  0  0  0
    7.2299    2.2970  -13.9804 C   0  0  0  0  0  0  0  0  0  0  0  0
    5.9338    1.8975  -13.7293 C   0  0  0  0  0  0  0  0  0  0  0  0
    5.4027    0.7661  -14.3137 C   0  0  0  0  0  0  0  0  0  0  0  0
    4.1140    0.3279  -14.0937 C   0  0  0  0  0  0  0  0  0  0  0  0
    5.0632    2.6668  -12.8081 C   0  0  0  0  0  0  0  0  0  0  0  0
    5.6171    3.9006  -12.2444 C   0  0  0  0  0  0  0  0  0  0  0  0
    7.0055    4.2561  -12.5295 C   0  0  0  0  0  0  0  0  0  0  0  0
    7.5328    5.4185  -11.9200 C   0  0  0  0  0  0  0  0  0  0  0  0
    8.8237    5.8143  -12.1534 C   0  0  0  0  0  0  0  0  0  0  0  0
    9.5933    5.0412  -13.0030 C   0  0  0  0  0  0  0  0  0  0  0  0
    9.0866    3.9061  -13.6012 C   0  0  0  0  0  0  0  0  0  0  0  0
    7.7732    3.4989  -13.3666 C   0  0  0  0  0  0  0  0  0  0  0  0
    9.3301    6.9883  -11.5271 N   0  0  0  0  0  0  0  0  0  0  0  0
    9.6875    6.9858  -10.2998 C   0  0  0  0  0  0  0  0  0  0  0  0
    9.5763    5.8407   -9.5989 N   0  0  0  0  0  0  0  0  0  0  0  0
    9.9386    5.7991   -8.3146 C   0  0  0  0  0  0  0  0  0  0  0  0
   10.4229    6.9535   -7.7417 C   0  0  0  0  0  0  0  0  0  0  0  0
   10.8059    6.9671   -6.4376 C   0  0  0  0  0  0  0  0  0  0  0  0
   11.2928    8.1333   -5.8666 C   0  0  0  0  0  0  0  0  0  0  0  0
   11.3976    9.2958   -6.6063 C   0  0  0  0  0  0  0  0  0  0  0  0
   11.0092    9.2770   -7.9236 C   0  0  0  0  0  0  0  0  0  0  0  0
   10.5313    8.1254   -8.4773 C   0  0  0  0  0  0  0  0  0  0  0  0
   10.1550    8.1207   -9.7666 N   0  0  0  0  0  0  0  0  0  0  0  0
   10.2379    8.9971  -10.3105 H   0  0  0  0  0  0  0  0  0  0  0  0
   11.6904    8.1119   -4.4804 C   0  0  0  0  0  0  0  0  0  0  0  0
   12.0345    9.2715   -3.8547 C   0  0  0  0  0  0  0  0  0  0  0  0
   12.4178    9.2373   -2.5136 C   0  0  0  0  0  0  0  0  0  0  0  0
   12.4374    8.0247   -1.8583 C   0  0  0  0  0  0  0  0  0  0  0  0
   12.0936    6.8391   -2.4709 C   0  0  0  0  0  0  0  0  0  0  0  0
   11.7164    6.9142   -3.8101 C   0  0  0  0  0  0  0  0  0  0  0  0
  1  2  2  0
  2  3  1  0
  3  4  2  0
  4  5  1  0
  5  6  2  0
  5  7  1  0
  7  8  1  0
  8  9  2  0
  9 10  1  0
 10 11  2  0
  9 12  1  0
 12 13  1  0
 13 14  1  0
 14 15  2  0
 15 16  1  0
 16 20  1  0
 20 21  2  0
 21 22  1  0
 22 23  2  0
 23 24  1  0
 24 25  2  0
 25 26  1  0
 26 32  1  0
 32 33  2  0
 33 34  1  0
 34 35  2  0
 35 36  1  0
 36 37  2  0
 26 27  2  0
 27 28  1  0
 28 29  2  0
 29 30  1  0
 30 31  1  0
 16 17  2  0
 17 18  1  0
 18 19  2  0
 11  1  1  0
 19 14  1  0
 10  4  1  0
 30 21  1  0
 19  8  1  0
 29 24  1  0
 37 32  1  0
M  CHG  1   7  -1
M  END
>  <minimizedAffinity>  (504) 
-16.91786

$$$$
Mol: 155_37 - SminaDock
     RDKit          3D

 41 47  0  0  0  0  0  0  0  0999 V2000
    8.9991    1.1281  -17.1109 H   0  0  0  0  0  0  0  0  0  0  0  0
    8.4230    0.3466  -17.3955 N   0  0  0  0  0  0  0  0  0  0  0  0
    7.3228    0.0187  -16.8697 C   0  0  0  0  0  0  0  0  0  0  0  0
    6.6075   -1.0915  -17.3514 C   0  0  0  0  0  0  0  0  0  0  0  0
    5.4131   -1.4756  -16.8064 C   0  0  0  0  0  0  0  0  0  0  0  0
    4.7219   -2.5945  -17.3143 O   0  0  0  0  0  0  0  0  0  0  0  0
    4.9536   -3.5204  -16.9491 H   0  0  0  0  0  0  0  0  0  0  0  0
    4.9068   -0.7760  -15.7834 N   0  0  0  0  0  0  0  0  0  0  0  0
    3.9938   -1.0793  -15.3759 H   0  0  0  0  0  0  0  0  0  0  0  0
    5.5265    0.3154  -15.2471 C   0  0  0  0  0  0  0  0  0  0  0  0
    4.9669    0.9950  -14.2026 C   0  0  0  0  0  0  0  0  0  0  0  0
    5.6057    2.1162  -13.6532 C   0  0  0  0  0  0  0  0  0  0  0  0
    6.7910    2.5036  -14.1886 C   0  0  0  0  0  0  0  0  0  0  0  0
    7.3368    1.8022  -15.2427 C   0  0  0  0  0  0  0  0  0  0  0  0
    6.7381    0.6957  -15.8086 C   0  0  0  0  0  0  0  0  0  0  0  0
    7.4545    3.6826  -13.6065 C   0  0  0  0  0  0  0  0  0  0  0  0
    8.6585    4.1220  -14.1062 C   0  0  0  0  0  0  0  0  0  0  0  0
    9.3183    5.2414  -13.5743 C   0  0  0  0  0  0  0  0  0  0  0  0
    8.7251    5.8945  -12.5307 C   0  0  0  0  0  0  0  0  0  0  0  0
    7.5217    5.5003  -11.9900 C   0  0  0  0  0  0  0  0  0  0  0  0
    6.9182    4.3811  -12.5640 C   0  0  0  0  0  0  0  0  0  0  0  0
    5.6327    3.9854  -11.9652 C   0  0  0  0  0  0  0  0  0  0  0  0
    4.9645    2.8077  -12.5348 C   0  0  0  0  0  0  0  0  0  0  0  0
    9.3831    7.0406  -11.9730 N   0  0  0  0  0  0  0  0  0  0  0  0
    9.6722    6.9904  -10.7177 C   0  0  0  0  0  0  0  0  0  0  0  0
   10.2965    8.0370  -10.1137 N   0  0  0  0  0  0  0  0  0  0  0  0
   10.6205    8.0412   -8.8164 C   0  0  0  0  0  0  0  0  0  0  0  0
   11.2621    9.1404   -8.2384 C   0  0  0  0  0  0  0  0  0  0  0  0
   11.5666    9.0848   -6.9098 C   0  0  0  0  0  0  0  0  0  0  0  0
   11.2770    8.0039   -6.1032 C   0  0  0  0  0  0  0  0  0  0  0  0
   10.6447    6.9340   -6.6970 C   0  0  0  0  0  0  0  0  0  0  0  0
   10.3151    6.9369   -8.0305 C   0  0  0  0  0  0  0  0  0  0  0  0
    9.6841    5.8812   -8.6447 C   0  0  0  0  0  0  0  0  0  0  0  0
    9.3882    5.9407   -9.9449 N   0  0  0  0  0  0  0  0  0  0  0  0
    8.9051    5.1289  -10.4086 H   0  0  0  0  0  0  0  0  0  0  0  0
   11.6378    8.0281   -4.6925 C   0  0  0  0  0  0  0  0  0  0  0  0
   11.9751    9.1768   -4.0087 C   0  0  0  0  0  0  0  0  0  0  0  0
   12.3130    9.1577   -2.6637 C   0  0  0  0  0  0  0  0  0  0  0  0
   12.3110    7.9506   -1.9904 C   0  0  0  0  0  0  0  0  0  0  0  0
   11.9770    6.7858   -2.6518 C   0  0  0  0  0  0  0  0  0  0  0  0
   11.6412    6.8344   -4.0051 C   0  0  0  0  0  0  0  0  0  0  0  0
  1  2  1  0
  2  3  2  0
  3  4  1  0
  4  5  2  0
  5  6  1  0
  6  7  1  0
  5  8  1  0
  8  9  1  0
  8 10  1  0
 10 11  2  0
 11 12  1  0
 12 13  2  0
 13 14  1  0
 14 15  2  0
 13 16  1  0
 16 17  2  0
 17 18  1  0
 18 19  2  0
 19 24  1  0
 24 25  2  0
 25 26  1  0
 26 27  2  0
 27 28  1  0
 28 29  2  0
 29 30  1  0
 30 36  1  0
 36 37  2  0
 37 38  1  0
 38 39  2  0
 39 40  1  0
 40 41  2  0
 30 31  2  0
 31 32  1  0
 32 33  2  0
 33 34  1  0
 34 35  1  0
 19 20  1  0
 20 21  2  0
 21 22  1  0
 22 23  1  0
 15  3  1  0
 21 16  1  0
 15 10  1  0
 34 25  1  0
 23 12  1  0
 32 27  1  0
 41 36  1  0
M  END
>  <minimizedAffinity>  (505) 
-16.93487

$$$$
Mol: 186_45 - SminaDock
     RDKit          3D

 41 48  0  0  0  0  0  0  0  0999 V2000
    8.6499    5.8951  -12.4832 C   0  0  0  0  0  0  0  0  0  0  0  0
    7.3993    5.4911  -12.0760 C   0  0  0  0  0  0  0  0  0  0  0  0
    6.8552    4.3768  -12.6665 C   0  0  0  0  0  0  0  0  0  0  0  0
    7.5267    3.6661  -13.6441 C   0  0  0  0  0  0  0  0  0  0  0  0
    8.7733    4.0538  -14.0636 C   0  0  0  0  0  0  0  0  0  0  0  0
    9.3132    5.1778  -13.4616 C   0  0  0  0  0  0  0  0  0  0  0  0
    9.2252    3.1074  -15.1152 C   0  0  1  0  0  0  0  0  0  0  0  0
    8.1336    2.1284  -15.2155 C   0  0  0  0  0  0  0  0  0  0  0  0
    7.1268    2.4678  -14.3597 C   0  0  0  0  0  0  0  0  0  0  0  0
    5.9593    1.6843  -14.2834 C   0  0  0  0  0  0  0  0  0  0  0  0
    5.8206    0.5641  -15.0730 C   0  0  0  0  0  0  0  0  0  0  0  0
    6.8379    0.2179  -15.9395 C   0  0  0  0  0  0  0  0  0  0  0  0
    6.9909   -0.7806  -16.8058 N   0  0  0  0  0  0  0  0  0  0  0  0
    8.1629   -0.6634  -17.4032 N   0  0  0  0  0  0  0  0  0  0  0  0
    8.8175    0.4402  -16.9298 C   0  0  0  0  0  0  0  0  0  0  0  0
    7.9911    1.0087  -16.0020 C   0  0  0  0  0  0  0  0  0  0  0  0
    9.3532    3.9005  -16.4042 C   0  0  0  0  0  0  0  0  0  0  0  0
   10.5484    4.7813  -16.4691 C   0  0  0  0  0  0  0  0  0  0  0  0
   11.7556    4.2414  -15.9251 N   0  0  2  0  0  0  0  0  0  0  0  0
   12.0721    4.6256  -15.0348 H   0  0  0  0  0  0  0  0  0  0  0  0
   12.5875    4.3523  -16.5829 H   0  0  0  0  0  0  0  0  0  0  0  0
   11.6147    2.7898  -15.7642 C   0  0  0  0  0  0  0  0  0  0  0  0
   10.5401    2.4989  -14.7588 C   0  0  0  0  0  0  0  0  0  0  0  0
   11.2263    8.0231   -6.0265 C   0  0  0  0  0  0  0  0  0  0  0  0
   11.4118    9.1670   -6.8095 C   0  0  0  0  0  0  0  0  0  0  0  0
   11.0420    9.1778   -8.1349 C   0  0  0  0  0  0  0  0  0  0  0  0
   10.4839    8.0611   -8.7075 C   0  0  0  0  0  0  0  0  0  0  0  0
   10.2881    6.9101   -7.9519 C   0  0  0  0  0  0  0  0  0  0  0  0
   10.6638    6.9303   -6.6448 C   0  0  0  0  0  0  0  0  0  0  0  0
    9.7247    5.8027   -8.5549 C   0  0  0  0  0  0  0  0  0  0  0  0
    9.3634    5.8411   -9.8843 C   0  0  0  0  0  0  0  0  0  0  0  0
    9.5649    6.9907  -10.6183 C   0  0  0  0  0  0  0  0  0  0  0  0
    9.2291    7.0478  -11.8812 N   0  0  0  0  0  0  0  0  0  0  0  0
   10.1123    8.0415  -10.0004 N   0  0  0  0  0  0  0  0  0  0  0  0
   10.2793    8.9342  -10.5329 H   0  0  0  0  0  0  0  0  0  0  0  0
   12.3698    7.9911   -1.9636 C   0  0  0  0  0  0  0  0  0  0  0  0
   12.0545    6.8181   -2.6103 C   0  0  0  0  0  0  0  0  0  0  0  0
   11.6821    6.8302   -3.9345 C   0  0  0  0  0  0  0  0  0  0  0  0
   11.6221    8.0251   -4.6253 C   0  0  0  0  0  0  0  0  0  0  0  0
   11.9391    9.2064   -3.9759 C   0  0  0  0  0  0  0  0  0  0  0  0
   12.3139    9.2060   -2.6479 C   0  0  0  0  0  0  0  0  0  0  0  0
 36 37  2  0
 37 38  1  0
 38 39  2  0
 39 24  1  0
 24 25  2  0
 25 26  1  0
 26 27  2  0
 27 28  1  0
 28 29  2  0
 28 30  1  0
 30 31  2  0
 31 32  1  0
 32 33  2  0
 33  1  1  0
  1  2  2  0
  2  3  1  0
  3  4  2  0
  4  5  1  0
  5  6  2  0
  5  7  1  0
  7  8  1  0
  8  9  2  0
  9 10  1  0
 10 11  2  0
 11 12  1  0
 12 13  2  0
 13 14  1  0
 14 15  1  0
 15 16  2  0
  7 17  1  6
 17 18  1  0
 18 19  1  0
 19 20  1  1
 19 21  1  0
 19 22  1  0
 22 23  1  0
 32 34  1  0
 34 35  1  0
 39 40  1  0
 40 41  2  0
 41 36  1  0
 29 24  1  0
  6  1  1  0
 23  7  1  0
 34 27  1  0
  9  4  1  0
 16 12  1  0
 16  8  1  0
M  CHG  2  14  -1  19   1
M  END
>  <minimizedAffinity>  (506) 
-16.94287

$$$$
Mol: 156_14 - SminaDock
     RDKit          3D

 41 47  0  0  0  0  0  0  0  0999 V2000
    8.6794    5.6670  -12.3468 C   0  0  0  0  0  0  0  0  0  0  0  0
    9.3111    5.0726  -13.4095 C   0  0  0  0  0  0  0  0  0  0  0  0
    8.8080    3.9779  -14.1084 C   0  0  0  0  0  0  0  0  0  0  0  0
    7.6040    3.4568  -13.7130 C   0  0  0  0  0  0  0  0  0  0  0  0
    6.9290    4.0181  -12.6500 C   0  0  0  0  0  0  0  0  0  0  0  0
    7.4732    5.1235  -11.9716 C   0  0  0  0  0  0  0  0  0  0  0  0
    5.6347    3.5615  -12.1221 C   0  0  0  0  0  0  0  0  0  0  0  0
    5.0215    2.4106  -12.7968 C   0  0  0  0  0  0  0  0  0  0  0  0
    5.7883    1.8552  -13.9235 C   0  0  0  0  0  0  0  0  0  0  0  0
    6.9981    2.3135  -14.3839 C   0  0  0  0  0  0  0  0  0  0  0  0
    7.6331    1.7013  -15.4672 C   0  0  0  0  0  0  0  0  0  0  0  0
    6.9983    0.6116  -16.0639 C   0  0  0  0  0  0  0  0  0  0  0  0
    7.7417    0.1093  -17.1202 C   0  0  0  0  0  0  0  0  0  0  0  0
    8.9279    0.5236  -17.1245 O   0  0  0  0  0  0  0  0  0  0  0  0
    7.3575   -0.7630  -18.1396 C   0  0  0  0  0  0  0  0  0  0  0  0
    6.2286   -1.5444  -18.2512 C   0  0  0  0  0  0  0  0  0  0  0  0
    6.1156   -2.3658  -19.4263 N   0  0  0  0  0  0  0  0  0  0  0  0
    6.4899   -3.3538  -19.3307 H   0  0  0  0  0  0  0  0  0  0  0  0
    5.6931   -1.9992  -20.3006 H   0  0  0  0  0  0  0  0  0  0  0  0
    5.1961   -1.6120  -17.3396 C   0  0  0  0  0  0  0  0  0  0  0  0
    5.0529   -0.9419  -16.1307 C   0  0  0  0  0  0  0  0  0  0  0  0
    5.7853    0.1243  -15.6299 C   0  0  0  0  0  0  0  0  0  0  0  0
    5.1922    0.7567  -14.5582 C   0  0  0  0  0  0  0  0  0  0  0  0
   11.2821    8.0309   -5.9354 C   0  0  0  0  0  0  0  0  0  0  0  0
   11.4607    9.1454   -6.7638 C   0  0  0  0  0  0  0  0  0  0  0  0
   11.0852    9.1048   -8.0897 C   0  0  0  0  0  0  0  0  0  0  0  0
   10.5255    7.9671   -8.6301 C   0  0  0  0  0  0  0  0  0  0  0  0
   10.3396    6.8650   -7.8452 C   0  0  0  0  0  0  0  0  0  0  0  0
    9.7832    5.7348   -8.3839 C   0  0  0  0  0  0  0  0  0  0  0  0
    9.4322    5.7452   -9.6869 N   0  0  0  0  0  0  0  0  0  0  0  0
    9.6075    6.8147  -10.4676 C   0  0  0  0  0  0  0  0  0  0  0  0
    9.2635    6.7832  -11.6887 N   0  0  0  0  0  0  0  0  0  0  0  0
   10.1497    7.9198   -9.9478 N   0  0  0  0  0  0  0  0  0  0  0  0
   10.2874    8.7463  -10.5431 H   0  0  0  0  0  0  0  0  0  0  0  0
   10.7194    6.9195   -6.5223 C   0  0  0  0  0  0  0  0  0  0  0  0
   12.4065    8.0417   -1.8777 C   0  0  0  0  0  0  0  0  0  0  0  0
   12.0703    6.8471   -2.5053 C   0  0  0  0  0  0  0  0  0  0  0  0
   11.7044    6.8714   -3.8394 C   0  0  0  0  0  0  0  0  0  0  0  0
   11.6733    8.0578   -4.5348 C   0  0  0  0  0  0  0  0  0  0  0  0
   12.0100    9.2342   -3.8960 C   0  0  0  0  0  0  0  0  0  0  0  0
   12.3827    9.2436   -2.5541 C   0  0  0  0  0  0  0  0  0  0  0  0
 36 37  2  0
 37 38  1  0
 38 39  2  0
 39 24  1  0
 24 25  2  0
 25 26  1  0
 26 27  2  0
 27 28  1  0
 28 29  1  0
 29 30  2  0
 30 31  1  0
 31 32  2  0
 32  1  1  0
  1  2  2  0
  2  3  1  0
  3  4  2  0
  4  5  1  0
  5  6  2  0
  5  7  1  0
  7  8  1  0
  8  9  1  0
  9 10  2  0
 10 11  1  0
 11 12  2  0
 12 13  1  0
 13 14  2  0
 13 15  1  0
 15 16  2  0
 16 17  1  0
 17 18  1  0
 17 19  1  0
 16 20  1  0
 20 21  2  0
 21 22  1  0
 22 23  2  0
 31 33  1  0
 33 34  1  0
 28 35  2  0
 39 40  1  0
 40 41  2  0
 41 36  1  0
 35 24  1  0
 33 27  1  0
  6  1  1  0
 23  9  1  0
 10  4  1  0
 22 12  1  0
M  END
>  <minimizedAffinity>  (507) 
-16.91736

$$$$
Mol: 151_5 - SminaDock
     RDKit          3D

 40 46  0  0  0  0  0  0  0  0999 V2000
   10.4202    1.0432  -13.2743 H   0  0  0  0  0  0  0  0  0  0  0  0
   10.1347    1.6764  -14.0050 O   0  0  0  0  0  0  0  0  0  0  0  0
    8.9830    1.5805  -14.7435 C   0  0  0  0  0  0  0  0  0  0  0  0
    8.9954    0.8306  -15.8990 C   0  0  0  0  0  0  0  0  0  0  0  0
   10.2704    0.6533  -16.3856 C   0  0  0  0  0  0  0  0  0  0  0  0
   10.4013   -0.0852  -17.5298 C   0  0  0  0  0  0  0  0  0  0  0  0
    9.3129   -0.6376  -18.1834 C   0  0  0  0  0  0  0  0  0  0  0  0
    9.5244   -1.3106  -19.2419 O   0  0  0  0  0  0  0  0  0  0  0  0
    8.0582   -0.4669  -17.7100 N   0  0  0  0  0  0  0  0  0  0  0  0
    7.8267    0.2359  -16.6031 C   0  0  0  0  0  0  0  0  0  0  0  0
    6.5328    0.3371  -16.2221 N   0  0  0  0  0  0  0  0  0  0  0  0
    6.0168    0.9158  -15.0941 C   0  0  0  0  0  0  0  0  0  0  0  0
    6.5460    1.8630  -14.2461 C   0  0  0  0  0  0  0  0  0  0  0  0
    7.8837    2.2455  -14.2655 C   0  0  0  0  0  0  0  0  0  0  0  0
    8.2521    3.4855  -13.6070 C   0  0  0  0  0  0  0  0  0  0  0  0
    9.5445    3.9185  -13.6391 C   0  0  0  0  0  0  0  0  0  0  0  0
    9.8464    5.1276  -13.0096 C   0  0  0  0  0  0  0  0  0  0  0  0
    8.8842    5.8671  -12.3792 C   0  0  0  0  0  0  0  0  0  0  0  0
    7.5912    5.4088  -12.3663 C   0  0  0  0  0  0  0  0  0  0  0  0
    7.2333    4.2281  -12.9656 C   0  0  0  0  0  0  0  0  0  0  0  0
    5.8341    3.8164  -12.9010 C   0  0  0  0  0  0  0  0  0  0  0  0
    5.5411    2.4141  -13.3494 C   0  0  0  0  0  0  0  0  0  0  0  0
    9.2971    7.0755  -11.7725 N   0  0  0  0  0  0  0  0  0  0  0  0
    9.6611    7.0617  -10.5374 C   0  0  0  0  0  0  0  0  0  0  0  0
    9.6377    5.8993   -9.8628 N   0  0  0  0  0  0  0  0  0  0  0  0
   10.0148    5.8697   -8.5716 C   0  0  0  0  0  0  0  0  0  0  0  0
   10.4303    7.0047   -7.9060 C   0  0  0  0  0  0  0  0  0  0  0  0
   10.8185    6.9581   -6.5658 C   0  0  0  0  0  0  0  0  0  0  0  0
   11.2328    8.0967   -5.9054 C   0  0  0  0  0  0  0  0  0  0  0  0
   11.2448    9.2729   -6.6279 C   0  0  0  0  0  0  0  0  0  0  0  0
   10.8611    9.3194   -7.9530 C   0  0  0  0  0  0  0  0  0  0  0  0
   10.4460    8.1850   -8.6181 C   0  0  0  0  0  0  0  0  0  0  0  0
   10.0661    8.1979   -9.9080 N   0  0  0  0  0  0  0  0  0  0  0  0
   10.0835    9.0818  -10.4221 H   0  0  0  0  0  0  0  0  0  0  0  0
   11.6456    8.0910   -4.5065 C   0  0  0  0  0  0  0  0  0  0  0  0
   11.7248    6.8922   -3.8070 C   0  0  0  0  0  0  0  0  0  0  0  0
   12.1117    6.8544   -2.4813 C   0  0  0  0  0  0  0  0  0  0  0  0
   12.4360    8.0054   -1.7946 C   0  0  0  0  0  0  0  0  0  0  0  0
   12.3615    9.2116   -2.4811 C   0  0  0  0  0  0  0  0  0  0  0  0
   11.9735    9.2286   -3.8033 C   0  0  0  0  0  0  0  0  0  0  0  0
  1  2  1  0
  2  3  1  0
  3  4  2  0
  4  5  1  0
  5  6  2  0
  6  7  1  0
  7  8  2  0
  7  9  1  0
  9 10  2  0
 10 11  1  0
 11 12  2  0
 12 13  1  0
 13 14  2  0
 14 15  1  0
 15 16  2  0
 16 17  1  0
 17 18  2  0
 18 23  1  0
 23 24  2  0
 24 25  1  0
 25 26  2  0
 26 27  1  0
 27 28  2  0
 28 29  1  0
 29 35  1  0
 35 36  2  0
 36 37  1  0
 37 38  2  0
 38 39  1  0
 39 40  2  0
 29 30  2  0
 30 31  1  0
 31 32  2  0
 32 33  1  0
 33 34  1  0
 18 19  1  0
 19 20  2  0
 20 21  1  0
 21 22  1  0
 14  3  1  0
 20 15  1  0
 10  4  1  0
 22 13  1  0
 33 24  1  0
 32 27  1  0
 40 35  1  0
M  END
>  <minimizedAffinity>  (508) 
-16.85477

$$$$
Mol: 194_46 - SminaDock
     RDKit          3D

 44 50  0  0  0  0  0  0  0  0999 V2000
    8.4696    5.4218  -12.6133 C   0  0  0  0  0  0  0  0  0  0  0  0
    7.3605    4.7339  -12.2587 C   0  0  0  0  0  0  0  0  0  0  0  0
    6.8792    3.6186  -12.9739 C   0  0  0  0  0  0  0  0  0  0  0  0
    5.7165    3.0680  -12.4227 N   0  0  0  0  0  0  0  0  0  0  0  0
    5.8225    2.3184  -11.6747 H   0  0  0  0  0  0  0  0  0  0  0  0
    4.7437    3.3790  -12.6692 H   0  0  0  0  0  0  0  0  0  0  0  0
    7.5800    3.2303  -14.0733 C   0  0  0  0  0  0  0  0  0  0  0  0
    7.1720    2.1457  -14.8299 C   0  0  0  0  0  0  0  0  0  0  0  0
    6.0570    1.4428  -14.4881 C   0  0  0  0  0  0  0  0  0  0  0  0
    5.7066    0.3528  -15.3100 C   0  0  0  0  0  0  0  0  0  0  0  0
    6.4219   -0.0013  -16.3897 C   0  0  0  0  0  0  0  0  0  0  0  0
    7.5265    0.6932  -16.7299 C   0  0  0  0  0  0  0  0  0  0  0  0
    7.9217    1.7782  -15.9575 C   0  0  0  0  0  0  0  0  0  0  0  0
    9.0410    2.4863  -16.3001 C   0  0  0  0  0  0  0  0  0  0  0  0
    9.6778    2.1142  -17.3215 O   0  0  0  0  0  0  0  0  0  0  0  0
    9.4220    3.5226  -15.5684 N   0  0  0  0  0  0  0  0  0  0  0  0
   10.6107    4.2945  -15.9120 C   0  0  0  0  0  0  0  0  0  0  0  0
    8.7275    3.8966  -14.4885 C   0  0  0  0  0  0  0  0  0  0  0  0
    9.1391    4.9872  -13.7315 C   0  0  0  0  0  0  0  0  0  0  0  0
    5.9030   -1.1890  -17.1594 C   0  0  0  0  0  0  0  0  0  0  0  0
    4.4931   -0.9140  -17.3677 N   0  0  1  0  0  0  0  0  0  0  0  0
    4.4475   -0.0681  -17.9818 H   0  0  0  0  0  0  0  0  0  0  0  0
    4.1161   -1.7084  -17.9330 H   0  0  0  0  0  0  0  0  0  0  0  0
    3.7293   -0.7818  -16.1725 C   0  0  0  0  0  0  0  0  0  0  0  0
    4.5038   -0.4122  -14.9475 C   0  0  2  0  0  0  0  0  0  0  0  0
    3.6615    0.2511  -13.8940 C   0  0  0  0  0  0  0  0  0  0  0  0
   11.0783    7.8828   -6.1995 C   0  0  0  0  0  0  0  0  0  0  0  0
   11.1442    8.9995   -6.9990 C   0  0  0  0  0  0  0  0  0  0  0  0
   10.7280    8.9179   -8.3062 C   0  0  0  0  0  0  0  0  0  0  0  0
   10.2404    7.7652   -8.8743 C   0  0  0  0  0  0  0  0  0  0  0  0
   10.1708    6.6370   -8.0766 C   0  0  0  0  0  0  0  0  0  0  0  0
   10.5932    6.7159   -6.7460 C   0  0  0  0  0  0  0  0  0  0  0  0
    9.6867    5.4654   -8.6144 C   0  0  0  0  0  0  0  0  0  0  0  0
    9.2770    5.4385   -9.9491 C   0  0  0  0  0  0  0  0  0  0  0  0
    9.3574    6.5755  -10.7187 C   0  0  0  0  0  0  0  0  0  0  0  0
    8.9863    6.5464  -11.9241 N   0  0  0  0  0  0  0  0  0  0  0  0
    9.8348    7.6933  -10.1540 N   0  0  0  0  0  0  0  0  0  0  0  0
    9.9092    8.5751  -10.7118 H   0  0  0  0  0  0  0  0  0  0  0  0
   12.3505    8.0611   -2.1595 C   0  0  0  0  0  0  0  0  0  0  0  0
   12.3179    9.1931   -2.9434 C   0  0  0  0  0  0  0  0  0  0  0  0
   11.9119    9.1832   -4.2602 C   0  0  0  0  0  0  0  0  0  0  0  0
   11.5193    7.9732   -4.8156 C   0  0  0  0  0  0  0  0  0  0  0  0
   11.5489    6.8444   -4.0433 C   0  0  0  0  0  0  0  0  0  0  0  0
   11.9566    6.8614   -2.7248 C   0  0  0  0  0  0  0  0  0  0  0  0
 39 40  2  0
 40 41  1  0
 41 42  2  0
 42 27  1  0
 27 28  2  0
 28 29  1  0
 29 30  2  0
 30 31  1  0
 31 32  2  0
 31 33  1  0
 33 34  2  0
 34 35  1  0
 35 36  2  0
 36  1  1  0
  1  2  2  0
  2  3  1  0
  3  4  1  0
  4  5  1  0
  4  6  1  0
  3  7  2  0
  7  8  1  0
  8  9  2  0
  9 10  1  0
 10 11  2  0
 11 12  1  0
 12 13  2  0
 13 14  1  0
 14 15  2  0
 14 16  1  0
 16 17  1  0
 16 18  1  0
 18 19  2  0
 11 20  1  0
 20 21  1  0
 21 22  1  6
 21 23  1  0
 21 24  1  0
 24 25  1  0
 25 26  1  1
 35 37  1  0
 37 38  1  0
 42 43  1  0
 43 44  2  0
 44 39  1  0
 32 27  1  0
 19  1  1  0
 37 30  1  0
 18  7  1  0
 13  8  1  0
 25 10  1  0
M  CHG  1  21   1
M  END
>  <minimizedAffinity>  (509) 
-16.90526

$$$$
Mol: 147_31 - SminaDock
     RDKit          3D

 41 47  0  0  0  0  0  0  0  0999 V2000
    3.6407   -2.6874  -17.4314 H   0  0  0  0  0  0  0  0  0  0  0  0
    4.6449   -2.6810  -17.2900 O   0  0  0  0  0  0  0  0  0  0  0  0
    5.3225   -1.5705  -16.7699 C   0  0  0  0  0  0  0  0  0  0  0  0
    4.8711   -0.8933  -15.7387 C   0  0  0  0  0  0  0  0  0  0  0  0
    5.5512    0.2775  -15.1637 C   0  0  0  0  0  0  0  0  0  0  0  0
    5.0204    0.9396  -14.0814 C   0  0  0  0  0  0  0  0  0  0  0  0
    5.6315    2.0519  -13.5060 C   0  0  0  0  0  0  0  0  0  0  0  0
    6.8127    2.4697  -14.0815 C   0  0  0  0  0  0  0  0  0  0  0  0
    7.3523    1.8154  -15.1613 C   0  0  0  0  0  0  0  0  0  0  0  0
    6.7203    0.6935  -15.7262 C   0  0  0  0  0  0  0  0  0  0  0  0
    7.3030    0.0041  -16.8761 C   0  0  0  0  0  0  0  0  0  0  0  0
    6.5436   -1.1249  -17.3448 N   0  0  0  0  0  0  0  0  0  0  0  0
    7.4385    3.7059  -13.5479 C   0  0  0  0  0  0  0  0  0  0  0  0
    8.6698    4.0736  -14.0454 C   0  0  0  0  0  0  0  0  0  0  0  0
    9.3260    5.1631  -13.5119 C   0  0  0  0  0  0  0  0  0  0  0  0
    8.7327    5.8693  -12.4827 C   0  0  0  0  0  0  0  0  0  0  0  0
    7.5087    5.5132  -11.9819 C   0  0  0  0  0  0  0  0  0  0  0  0
    6.8439    4.4090  -12.5253 C   0  0  0  0  0  0  0  0  0  0  0  0
    5.4936    4.0706  -12.0598 C   0  0  0  0  0  0  0  0  0  0  0  0
    5.0752    2.6829  -12.3060 C   0  0  0  0  0  0  0  0  0  0  0  0
    9.3752    7.0017  -11.9012 N   0  0  0  0  0  0  0  0  0  0  0  0
    9.7000    7.0066  -10.6428 C   0  0  0  0  0  0  0  0  0  0  0  0
   10.3053    8.0584  -10.0684 N   0  0  0  0  0  0  0  0  0  0  0  0
   10.6416    8.0580   -8.7552 C   0  0  0  0  0  0  0  0  0  0  0  0
   11.2669    9.1448   -8.1626 C   0  0  0  0  0  0  0  0  0  0  0  0
   11.5989    9.1195   -6.8230 C   0  0  0  0  0  0  0  0  0  0  0  0
   11.3210    8.0095   -6.0198 C   0  0  0  0  0  0  0  0  0  0  0  0
   10.6985    6.9533   -6.6536 C   0  0  0  0  0  0  0  0  0  0  0  0
   10.3591    6.9591   -7.9891 C   0  0  0  0  0  0  0  0  0  0  0  0
    9.7357    5.8897   -8.6036 C   0  0  0  0  0  0  0  0  0  0  0  0
    9.4215    5.9298   -9.8982 N   0  0  0  0  0  0  0  0  0  0  0  0
    8.9436    5.0908  -10.3368 H   0  0  0  0  0  0  0  0  0  0  0  0
   11.6771    8.0056   -4.6221 C   0  0  0  0  0  0  0  0  0  0  0  0
   11.6903    6.8464   -3.8926 C   0  0  0  0  0  0  0  0  0  0  0  0
   12.0340    6.8386   -2.5399 C   0  0  0  0  0  0  0  0  0  0  0  0
   12.3650    8.0145   -1.9289 C   0  0  0  0  0  0  0  0  0  0  0  0
   12.3592    9.1939   -2.6410 C   0  0  0  0  0  0  0  0  0  0  0  0
   12.0113    9.1825   -3.9989 C   0  0  0  0  0  0  0  0  0  0  0  0
    7.0202   -1.8570  -18.4475 N   0  0  0  0  0  0  0  0  0  0  0  0
    6.2751   -1.9460  -19.1546 H   0  0  0  0  0  0  0  0  0  0  0  0
    8.1702   -1.2451  -19.0568 C   0  0  0  0  0  0  0  0  0  0  0  0
  1  2  1  0
  2  3  1  0
  3  4  2  0
  4  5  1  0
  5  6  2  0
  6  7  1  0
  7  8  2  0
  8  9  1  0
  9 10  2  0
 10 11  1  0
 11 12  1  0
 12 39  1  0
 39 40  1  0
 39 41  1  0
  8 13  1  0
 13 14  2  0
 14 15  1  0
 15 16  2  0
 16 21  1  0
 21 22  2  0
 22 23  1  0
 23 24  2  0
 24 25  1  0
 25 26  2  0
 26 27  1  0
 27 33  1  0
 33 34  2  0
 34 35  1  0
 35 36  2  0
 36 37  1  0
 37 38  2  0
 27 28  2  0
 28 29  1  0
 29 30  2  0
 30 31  1  0
 31 32  1  0
 16 17  1  0
 17 18  2  0
 18 19  1  0
 19 20  1  0
 12  3  1  0
 18 13  1  0
 10  5  1  0
 31 22  1  0
 20  7  1  0
 29 24  1  0
 38 33  1  0
M  END
>  <minimizedAffinity>  (510) 
-16.87661

$$$$
Mol: 167_30 - SminaDock
     RDKit          3D

 41 48  0  0  0  0  0  0  0  0999 V2000
    8.2828    5.2870  -12.5916 C   0  0  0  0  0  0  0  0  0  0  0  0
    6.9926    5.1795  -12.0606 C   0  0  0  0  0  0  0  0  0  0  0  0
    6.2353    4.1180  -12.5051 C   0  0  0  0  0  0  0  0  0  0  0  0
    6.7024    3.2038  -13.4193 C   0  0  0  0  0  0  0  0  0  0  0  0
    7.9770    3.3303  -13.9286 C   0  0  0  0  0  0  0  0  0  0  0  0
    8.7726    4.3828  -13.5090 C   0  0  0  0  0  0  0  0  0  0  0  0
    8.2726    2.2377  -14.8967 C   0  0  2  0  0  0  0  0  0  0  0  0
    7.0347    1.4406  -14.9126 C   0  0  0  0  0  0  0  0  0  0  0  0
    6.1195    2.0039  -14.0515 C   0  0  0  0  0  0  0  0  0  0  0  0
    5.0326    1.2911  -14.0755 O   0  0  0  0  0  0  0  0  0  0  0  0
    5.1449    0.2797  -14.8948 C   0  0  0  0  0  0  0  0  0  0  0  0
    4.2101   -0.7026  -15.1950 C   0  0  0  0  0  0  0  0  0  0  0  0
    4.6107   -1.6620  -16.1118 C   0  0  0  0  0  0  0  0  0  0  0  0
    5.8764   -1.5860  -16.6551 C   0  0  0  0  0  0  0  0  0  0  0  0
    6.2925   -2.4293  -17.4914 O   0  0  0  0  0  0  0  0  0  0  0  0
    6.7464   -0.6026  -16.3233 N   0  0  0  0  0  0  0  0  0  0  0  0
    6.3861    0.3253  -15.4495 C   0  0  0  0  0  0  0  0  0  0  0  0
    9.4706    1.4814  -14.3980 C   0  0  0  0  0  0  0  0  0  0  0  0
    9.9073    0.3932  -15.3331 C   0  0  0  0  0  0  0  0  0  0  0  0
    9.8529    0.7627  -16.7131 N   0  0  0  0  0  0  0  0  0  0  0  0
    9.2523    0.1762  -17.2997 H   0  0  0  0  0  0  0  0  0  0  0  0
    9.7355    2.1789  -16.9386 C   0  0  0  0  0  0  0  0  0  0  0  0
    8.5656    2.8101  -16.2536 C   0  0  0  0  0  0  0  0  0  0  0  0
   11.2712    7.8061   -6.4923 C   0  0  0  0  0  0  0  0  0  0  0  0
   11.6628    8.7656   -7.4016 C   0  0  0  0  0  0  0  0  0  0  0  0
   11.2847    8.6539   -8.7362 C   0  0  0  0  0  0  0  0  0  0  0  0
   10.5209    7.6072   -9.2013 C   0  0  0  0  0  0  0  0  0  0  0  0
   10.1425    7.4774  -10.4879 N   0  0  0  0  0  0  0  0  0  0  0  0
    9.3972    6.4437  -10.9076 C   0  0  0  0  0  0  0  0  0  0  0  0
    9.0675    6.3726  -12.1417 N   0  0  0  0  0  0  0  0  0  0  0  0
    8.9964    5.4922  -10.0593 N   0  0  0  0  0  0  0  0  0  0  0  0
    8.4124    4.6626  -10.3359 H   0  0  0  0  0  0  0  0  0  0  0  0
    9.3625    5.6003   -8.7678 C   0  0  0  0  0  0  0  0  0  0  0  0
   10.1285    6.6455   -8.2886 C   0  0  0  0  0  0  0  0  0  0  0  0
   10.5047    6.7574   -6.9636 C   0  0  0  0  0  0  0  0  0  0  0  0
   12.3556    8.0035   -2.3493 C   0  0  0  0  0  0  0  0  0  0  0  0
   11.6996    6.9082   -2.8702 C   0  0  0  0  0  0  0  0  0  0  0  0
   11.3541    6.8512   -4.2019 C   0  0  0  0  0  0  0  0  0  0  0  0
   11.6478    7.8851   -5.0753 C   0  0  0  0  0  0  0  0  0  0  0  0
   12.3040    8.9801   -4.5533 C   0  0  0  0  0  0  0  0  0  0  0  0
   12.6530    9.0388   -3.2101 C   0  0  0  0  0  0  0  0  0  0  0  0
 36 37  2  0
 37 38  1  0
 38 39  2  0
 39 24  1  0
 24 25  1  0
 25 26  2  0
 26 27  1  0
 27 28  2  0
 28 29  1  0
 29 30  2  0
 30  1  1  0
  1  2  2  0
  2  3  1  0
  3  4  2  0
  4  5  1  0
  5  6  2  0
  5  7  1  0
  7  8  1  0
  8  9  2  0
  9 10  1  0
 10 11  1  0
 11 12  1  0
 12 13  2  0
 13 14  1  0
 14 15  2  0
 14 16  1  0
 16 17  1  0
  7 18  1  1
 18 19  1  0
 19 20  1  0
 20 21  1  0
 20 22  1  0
 22 23  1  0
 29 31  1  0
 31 32  1  0
 31 33  1  0
 33 34  2  0
 34 35  1  0
 39 40  1  0
 40 41  2  0
 41 36  1  0
 35 24  2  0
 34 27  1  0
  6  1  1  0
 23  7  1  0
  9  4  1  0
 17 11  2  0
 17  8  1  0
M  CHG  1  16  -1
M  END
>  <minimizedAffinity>  (511) 
-16.85625

$$$$
Mol: 140_60 - SminaDock
     RDKit          3D

 47 54  0  0  0  0  0  0  0  0999 V2000
    8.8016    5.3742  -12.4533 C   0  0  0  0  0  0  0  0  0  0  0  0
    9.6852    4.4339  -13.0127 C   0  0  0  0  0  0  0  0  0  0  0  0
    9.1973    3.2695  -13.5864 C   0  0  0  0  0  0  0  0  0  0  0  0
    7.8463    3.1196  -13.5681 C   0  0  0  0  0  0  0  0  0  0  0  0
    6.9469    4.0294  -13.0157 C   0  0  0  0  0  0  0  0  0  0  0  0
    7.4379    5.1564  -12.4623 C   0  0  0  0  0  0  0  0  0  0  0  0
    5.5004    3.8109  -12.8643 C   0  0  0  0  0  0  0  0  0  0  0  0
    4.8461    4.8410  -12.8085 O   0  0  0  0  0  0  0  0  0  0  0  0
    4.9155    2.4985  -12.7859 N   0  0  0  0  0  0  0  0  0  0  0  0
    3.8903    2.5012  -12.7763 H   0  0  0  0  0  0  0  0  0  0  0  0
    5.5230    1.1702  -12.7134 C   0  0  0  0  0  0  0  0  0  0  0  0
    6.5007    0.9582  -13.8027 C   0  0  0  0  0  0  0  0  0  0  0  0
    6.3525   -0.2083  -14.4787 C   0  0  0  0  0  0  0  0  0  0  0  0
    7.1267   -0.4972  -15.5837 C   0  0  0  0  0  0  0  0  0  0  0  0
    8.0499    0.4414  -15.9790 C   0  0  0  0  0  0  0  0  0  0  0  0
    8.2727    1.6785  -15.3415 C   0  0  0  0  0  0  0  0  0  0  0  0
    7.4692    1.8762  -14.2500 C   0  0  0  0  0  0  0  0  0  0  0  0
    9.0372    2.8434  -15.6914 C   0  0  0  0  0  0  0  0  0  0  0  0
   10.3152    2.6973  -16.4693 C   0  0  0  0  0  0  0  0  0  0  0  0
   11.0391    3.8665  -16.3771 C   0  0  0  0  0  0  0  0  0  0  0  0
   12.2446    3.9543  -16.9988 C   0  0  0  0  0  0  0  0  0  0  0  0
   12.7508    2.8735  -17.7261 C   0  0  0  0  0  0  0  0  0  0  0  0
   11.9992    1.7270  -17.7940 C   0  0  0  0  0  0  0  0  0  0  0  0
   10.7412    1.6035  -17.1586 C   0  0  0  0  0  0  0  0  0  0  0  0
   10.2358    0.2423  -17.4548 C   0  0  0  0  0  0  0  0  0  0  0  0
    8.8040    0.0276  -17.1747 C   0  0  0  0  0  0  0  0  0  0  0  0
    8.1392   -0.5612  -18.0815 N   0  0  0  0  0  0  0  0  0  0  0  0
   11.1684    7.9807   -6.1609 C   0  0  0  0  0  0  0  0  0  0  0  0
   11.2971    9.0774   -6.9890 C   0  0  0  0  0  0  0  0  0  0  0  0
   10.9422    9.0062   -8.3232 C   0  0  0  0  0  0  0  0  0  0  0  0
   10.4483    7.8312   -8.8612 C   0  0  0  0  0  0  0  0  0  0  0  0
   10.3135    6.7240   -8.0442 C   0  0  0  0  0  0  0  0  0  0  0  0
    9.8177    5.5413   -8.5815 C   0  0  0  0  0  0  0  0  0  0  0  0
    9.4887    5.5227   -9.8767 N   0  0  0  0  0  0  0  0  0  0  0  0
    9.6322    6.6112  -10.6361 C   0  0  0  0  0  0  0  0  0  0  0  0
    9.3130    6.5700  -11.8674 N   0  0  0  0  0  0  0  0  0  0  0  0
   10.1108    7.7748  -10.1442 N   0  0  0  0  0  0  0  0  0  0  0  0
   10.2139    8.6094  -10.7542 H   0  0  0  0  0  0  0  0  0  0  0  0
   10.6745    6.8195   -6.7158 C   0  0  0  0  0  0  0  0  0  0  0  0
   12.2663    8.1315   -2.0503 C   0  0  0  0  0  0  0  0  0  0  0  0
   12.1307    9.3048   -2.7762 C   0  0  0  0  0  0  0  0  0  0  0  0
   11.7753    9.2730   -4.1105 C   0  0  0  0  0  0  0  0  0  0  0  0
   11.5483    8.0659   -4.7452 C   0  0  0  0  0  0  0  0  0  0  0  0
   11.6938    6.9139   -3.9858 C   0  0  0  0  0  0  0  0  0  0  0  0
   12.0451    6.9216   -2.6629 C   0  0  0  0  0  0  0  0  0  0  0  0
    6.8591   -0.8573  -18.1153 O   0  0  0  0  0  0  0  0  0  0  0  0
    6.1900   -1.7314  -18.9773 C   0  0  0  0  0  0  0  0  0  0  0  0
 40 41  2  0
 41 42  1  0
 42 43  2  0
 43 28  1  0
 28 29  2  0
 29 30  1  0
 30 31  2  0
 31 32  1  0
 32 33  1  0
 33 34  2  0
 34 35  1  0
 35 36  2  0
 36  1  1  0
  1  2  2  0
  2  3  1  0
  3  4  2  0
  4  5  1  0
  5  6  2  0
  5  7  1  0
  7  8  2  0
  7  9  1  0
  9 10  1  0
  9 11  1  0
 11 12  1  0
 12 13  2  0
 13 14  1  0
 14 15  2  0
 15 16  1  0
 16 17  2  0
 16 18  1  0
 18 19  1  0
 19 20  2  0
 20 21  1  0
 21 22  2  0
 22 23  1  0
 23 24  2  0
 24 25  1  0
 25 26  1  0
 26 27  2  0
 27 46  1  0
 46 47  1  0
 35 37  1  0
 37 38  1  0
 32 39  2  0
 43 44  1  0
 44 45  2  0
 45 40  1  0
 39 28  1  0
 37 31  1  0
  6  1  1  0
 17 12  1  0
 24 19  1  0
 17  4  1  0
 26 15  1  0
M  END
>  <minimizedAffinity>  (512) 
-16.88186

$$$$
Mol: 139_56 - SminaDock
     RDKit          3D

 39 46  0  0  0  0  0  0  0  0999 V2000
    8.2785    5.1566  -12.6160 C   0  0  0  0  0  0  0  0  0  0  0  0
    6.9172    5.0437  -12.4574 C   0  0  0  0  0  0  0  0  0  0  0  0
    6.2159    3.9235  -12.9249 C   0  0  0  0  0  0  0  0  0  0  0  0
    6.9389    2.9524  -13.5400 C   0  0  0  0  0  0  0  0  0  0  0  0
    8.3204    3.0172  -13.7295 C   0  0  0  0  0  0  0  0  0  0  0  0
    8.9621    4.1418  -13.2505 C   0  0  0  0  0  0  0  0  0  0  0  0
    9.2998    2.1501  -14.3847 C   0  0  0  0  0  0  0  0  0  0  0  0
    8.8285    0.8790  -14.9445 C   0  0  2  0  0  0  0  0  0  0  0  0
    9.9182    0.2823  -15.8446 C   0  0  0  0  0  0  0  0  0  0  0  0
    9.5153    0.4407  -17.2955 C   0  0  0  0  0  0  0  0  0  0  0  0
    8.3494   -0.3966  -17.6396 N   0  0  0  0  0  0  0  0  0  0  0  0
    8.7244   -1.3249  -17.8993 H   0  0  0  0  0  0  0  0  0  0  0  0
    7.5306   -0.4691  -16.4627 C   0  0  2  0  0  0  0  0  0  0  0  0
    6.0836   -0.6800  -16.6457 C   0  0  0  0  0  0  0  0  0  0  0  0
    5.5101    0.0151  -15.4372 C   0  0  0  0  0  0  0  0  0  0  0  0
    4.3432   -0.0980  -14.7015 C   0  0  0  0  0  0  0  0  0  0  0  0
    4.0753    0.7461  -13.6193 C   0  0  0  0  0  0  0  0  0  0  0  0
    4.9672    1.7398  -13.2324 C   0  0  0  0  0  0  0  0  0  0  0  0
    6.1142    1.8463  -13.9650 C   0  0  0  0  0  0  0  0  0  0  0  0
    6.3822    0.9998  -15.0410 C   0  0  0  0  0  0  0  0  0  0  0  0
    7.6116    0.9255  -15.8541 C   0  0  1  0  0  0  0  0  0  0  0  0
   11.2160    7.7824   -6.5763 C   0  0  0  0  0  0  0  0  0  0  0  0
   11.4801    8.7766   -7.4999 C   0  0  0  0  0  0  0  0  0  0  0  0
   11.0768    8.6778   -8.8338 C   0  0  0  0  0  0  0  0  0  0  0  0
   10.3960    7.5455   -9.2190 C   0  0  0  0  0  0  0  0  0  0  0  0
    9.9975    7.4295  -10.5038 N   0  0  0  0  0  0  0  0  0  0  0  0
    9.3298    6.3363  -10.9171 C   0  0  0  0  0  0  0  0  0  0  0  0
    8.9751    6.2782  -12.1481 N   0  0  0  0  0  0  0  0  0  0  0  0
    9.0535    5.3491  -10.0537 N   0  0  0  0  0  0  0  0  0  0  0  0
    8.5378    4.4935  -10.3516 H   0  0  0  0  0  0  0  0  0  0  0  0
    9.4402    5.4322   -8.7498 C   0  0  0  0  0  0  0  0  0  0  0  0
   10.1272    6.5532   -8.3174 C   0  0  0  0  0  0  0  0  0  0  0  0
   10.5336    6.6627   -6.9922 C   0  0  0  0  0  0  0  0  0  0  0  0
   12.4150    8.0418   -2.5331 C   0  0  0  0  0  0  0  0  0  0  0  0
   12.7546    9.0602   -3.4128 C   0  0  0  0  0  0  0  0  0  0  0  0
   12.3686    8.9870   -4.7375 C   0  0  0  0  0  0  0  0  0  0  0  0
   11.6503    7.9118   -5.1895 C   0  0  0  0  0  0  0  0  0  0  0  0
   11.3038    6.8828   -4.3137 C   0  0  0  0  0  0  0  0  0  0  0  0
   11.6934    6.9687   -3.0021 C   0  0  0  0  0  0  0  0  0  0  0  0
 34 35  2  0
 35 36  1  0
 36 37  2  0
 37 22  1  0
 22 23  1  0
 23 24  2  0
 24 25  1  0
 25 26  2  0
 26 27  1  0
 27 28  2  0
 28  1  1  0
  1  2  2  0
  2  3  1  0
  3  4  2  0
  4  5  1  0
  5  6  2  0
  5  7  1  0
  8  7  1  6
  8  9  1  0
  9 10  1  0
 10 11  1  0
 11 12  1  0
 11 13  1  0
 13 14  1  6
 14 15  1  0
 15 16  1  0
 16 17  2  0
 17 18  1  0
 18 19  2  0
 19 20  1  0
 21 20  1  1
 27 29  1  0
 29 30  1  0
 29 31  1  0
 31 32  2  0
 32 33  1  0
 37 38  1  0
 38 39  2  0
 39 34  1  0
 33 22  2  0
 32 25  1  0
  6  1  1  0
 21  8  1  0
 19  4  1  0
 21 13  1  0
 20 15  2  0
M  END
>  <minimizedAffinity>  (513) 
-16.90030

$$$$
Mol: 146_47 - SminaDock
     RDKit          3D

 36 42  0  0  0  0  0  0  0  0999 V2000
    2.2298   -1.3260  -13.8772 H   0  0  0  0  0  0  0  0  0  0  0  0
    2.7473   -0.4427  -13.9474 O   0  0  0  0  0  0  0  0  0  0  0  0
    4.0645   -0.3519  -14.3327 C   0  0  0  0  0  0  0  0  0  0  0  0
    4.8362   -1.0984  -15.0430 N   0  0  0  0  0  0  0  0  0  0  0  0
    5.9872   -0.2815  -14.9328 C   0  0  0  0  0  0  0  0  0  0  0  0
    7.2999    0.0125  -15.1936 C   0  0  0  0  0  0  0  0  0  0  0  0
    7.8615    1.1895  -14.6690 C   0  0  0  0  0  0  0  0  0  0  0  0
    7.1075    2.0474  -13.8978 C   0  0  0  0  0  0  0  0  0  0  0  0
    5.7988    1.6995  -13.6695 C   0  0  0  0  0  0  0  0  0  0  0  0
    5.1906    0.5524  -14.1612 C   0  0  0  0  0  0  0  0  0  0  0  0
    4.9537    2.5532  -12.8217 C   0  0  0  0  0  0  0  0  0  0  0  0
    5.4618    3.8693  -12.4519 C   0  0  0  0  0  0  0  0  0  0  0  0
    6.9014    4.1417  -12.6559 C   0  0  0  0  0  0  0  0  0  0  0  0
    7.4276    5.3295  -12.1061 C   0  0  0  0  0  0  0  0  0  0  0  0
    8.7350    5.6298  -12.3065 C   0  0  0  0  0  0  0  0  0  0  0  0
    9.5282    4.7694  -13.0440 C   0  0  0  0  0  0  0  0  0  0  0  0
    9.0229    3.6052  -13.5849 C   0  0  0  0  0  0  0  0  0  0  0  0
    7.6841    3.2915  -13.3825 C   0  0  0  0  0  0  0  0  0  0  0  0
    9.2374    6.8343  -11.7398 N   0  0  0  0  0  0  0  0  0  0  0  0
    9.5947    6.8626  -10.5092 C   0  0  0  0  0  0  0  0  0  0  0  0
    9.4989    5.7570   -9.7417 N   0  0  0  0  0  0  0  0  0  0  0  0
    9.8570    5.7292   -8.4524 C   0  0  0  0  0  0  0  0  0  0  0  0
   10.3436    6.9008   -7.9088 C   0  0  0  0  0  0  0  0  0  0  0  0
   10.7297    6.9427   -6.5905 C   0  0  0  0  0  0  0  0  0  0  0  0
   11.2192    8.1012   -6.0243 C   0  0  0  0  0  0  0  0  0  0  0  0
   11.3110    9.2156   -6.8141 C   0  0  0  0  0  0  0  0  0  0  0  0
   10.9341    9.2115   -8.1376 C   0  0  0  0  0  0  0  0  0  0  0  0
   10.4430    8.0422   -8.6992 C   0  0  0  0  0  0  0  0  0  0  0  0
   10.0675    8.0109   -9.9909 N   0  0  0  0  0  0  0  0  0  0  0  0
   10.1598    8.8839  -10.5380 H   0  0  0  0  0  0  0  0  0  0  0  0
   11.6120    8.0877   -4.6263 C   0  0  0  0  0  0  0  0  0  0  0  0
   11.9803    9.2197   -3.9546 C   0  0  0  0  0  0  0  0  0  0  0  0
   12.3455    9.1590   -2.6282 C   0  0  0  0  0  0  0  0  0  0  0  0
   12.3351    7.9490   -1.9888 C   0  0  0  0  0  0  0  0  0  0  0  0
   11.9701    6.7988   -2.6389 C   0  0  0  0  0  0  0  0  0  0  0  0
   11.6060    6.8673   -3.9664 C   0  0  0  0  0  0  0  0  0  0  0  0
  1  2  1  0
  2  3  1  0
  3  4  2  0
  4  5  1  0
  5  6  2  0
  6  7  1  0
  7  8  2  0
  8  9  1  0
  9 10  2  0
  9 11  1  0
 11 12  1  0
 12 13  1  0
 13 14  2  0
 14 15  1  0
 15 19  1  0
 19 20  2  0
 20 21  1  0
 21 22  2  0
 22 23  1  0
 23 24  2  0
 24 25  1  0
 25 31  1  0
 31 32  2  0
 32 33  1  0
 33 34  2  0
 34 35  1  0
 35 36  2  0
 25 26  2  0
 26 27  1  0
 27 28  2  0
 28 29  1  0
 29 30  1  0
 15 16  2  0
 16 17  1  0
 17 18  2  0
 10  3  1  0
 18 13  1  0
 10  5  1  0
 29 20  1  0
 18  8  1  0
 28 23  1  0
 36 31  1  0
M  END
>  <minimizedAffinity>  (514) 
-16.85789

$$$$
Mol: 146_31 - SminaDock
     RDKit          3D

 38 44  0  0  0  0  0  0  0  0999 V2000
    8.5778   -1.2549  -15.5886 H   0  0  0  0  0  0  0  0  0  0  0  0
    8.1654   -0.4238  -15.9555 O   0  0  0  0  0  0  0  0  0  0  0  0
    7.3534    0.4143  -15.1650 C   0  0  0  0  0  0  0  0  0  0  0  0
    7.8882    1.5235  -14.6303 N   0  0  0  0  0  0  0  0  0  0  0  0
    7.1301    2.3357  -13.8736 C   0  0  0  0  0  0  0  0  0  0  0  0
    5.8065    2.0551  -13.6285 C   0  0  0  0  0  0  0  0  0  0  0  0
    5.2223    0.8998  -14.1783 C   0  0  0  0  0  0  0  0  0  0  0  0
    6.0261    0.1043  -14.9402 C   0  0  0  0  0  0  0  0  0  0  0  0
    5.5044   -1.1316  -15.5601 C   0  0  0  0  0  0  0  0  0  0  0  0
    4.1339   -1.2318  -15.5409 O   0  0  0  0  0  0  0  0  0  0  0  0
    3.6365   -0.9306  -14.2722 C   0  0  0  0  0  0  0  0  0  0  0  0
    3.8076    0.5369  -13.9614 C   0  0  0  0  0  0  0  0  0  0  0  0
    5.0026    2.8919  -12.7553 C   0  0  0  0  0  0  0  0  0  0  0  0
    5.5046    4.2499  -12.5109 C   0  0  0  0  0  0  0  0  0  0  0  0
    6.9453    4.4349  -12.6606 C   0  0  0  0  0  0  0  0  0  0  0  0
    7.5004    5.6016  -12.0966 C   0  0  0  0  0  0  0  0  0  0  0  0
    8.8401    5.8327  -12.2844 C   0  0  0  0  0  0  0  0  0  0  0  0
    9.6465    4.9798  -12.9922 C   0  0  0  0  0  0  0  0  0  0  0  0
    9.0680    3.8537  -13.5248 C   0  0  0  0  0  0  0  0  0  0  0  0
    7.7242    3.5669  -13.3678 C   0  0  0  0  0  0  0  0  0  0  0  0
    9.4057    7.0060  -11.7192 N   0  0  0  0  0  0  0  0  0  0  0  0
    9.7318    6.9787  -10.4567 C   0  0  0  0  0  0  0  0  0  0  0  0
   10.2720    8.0595   -9.8646 N   0  0  0  0  0  0  0  0  0  0  0  0
   10.6247    8.0790   -8.5630 C   0  0  0  0  0  0  0  0  0  0  0  0
   11.1780    9.1927   -7.9651 C   0  0  0  0  0  0  0  0  0  0  0  0
   11.5357    9.1937   -6.6203 C   0  0  0  0  0  0  0  0  0  0  0  0
   11.3496    8.0763   -5.8320 C   0  0  0  0  0  0  0  0  0  0  0  0
   10.7955    6.9703   -6.4431 C   0  0  0  0  0  0  0  0  0  0  0  0
   10.4378    6.9606   -7.7761 C   0  0  0  0  0  0  0  0  0  0  0  0
    9.8834    5.8561   -8.3908 C   0  0  0  0  0  0  0  0  0  0  0  0
    9.5425    5.8799   -9.7053 N   0  0  0  0  0  0  0  0  0  0  0  0
    9.1238    5.0069  -10.1182 H   0  0  0  0  0  0  0  0  0  0  0  0
   11.7269    8.0796   -4.4154 C   0  0  0  0  0  0  0  0  0  0  0  0
   12.0841    9.2525   -3.7654 C   0  0  0  0  0  0  0  0  0  0  0  0
   12.4345    9.2065   -2.4229 C   0  0  0  0  0  0  0  0  0  0  0  0
   12.4444    8.0343   -1.6963 C   0  0  0  0  0  0  0  0  0  0  0  0
   12.0892    6.8766   -2.3479 C   0  0  0  0  0  0  0  0  0  0  0  0
   11.7419    6.9203   -3.6769 C   0  0  0  0  0  0  0  0  0  0  0  0
  1  2  1  0
  2  3  1  0
  3  4  2  0
  4  5  1  0
  5  6  2  0
  6  7  1  0
  7  8  2  0
  8  9  1  0
  9 10  1  0
 10 11  1  0
 11 12  1  0
  6 13  1  0
 13 14  1  0
 14 15  1  0
 15 16  2  0
 16 17  1  0
 17 21  1  0
 21 22  2  0
 22 23  1  0
 23 24  2  0
 24 25  1  0
 25 26  2  0
 26 27  1  0
 27 33  1  0
 33 34  2  0
 34 35  1  0
 35 36  2  0
 36 37  1  0
 37 38  2  0
 27 28  2  0
 28 29  1  0
 29 30  2  0
 30 31  1  0
 31 32  1  0
 17 18  2  0
 18 19  1  0
 19 20  2  0
  8  3  1  0
 20 15  1  0
 20  5  1  0
 12  7  1  0
 31 22  1  0
 29 24  1  0
 38 33  1  0
M  END
>  <minimizedAffinity>  (515) 
-16.85378

$$$$
Mol: 146_45 - SminaDock
     RDKit          3D

 36 42  0  0  0  0  0  0  0  0999 V2000
   11.2797    8.0901   -5.9520 C   0  0  0  0  0  0  0  0  0  0  0  0
   11.3826    9.2010   -6.7568 C   0  0  0  0  0  0  0  0  0  0  0  0
   11.0306    9.2193   -8.0831 C   0  0  0  0  0  0  0  0  0  0  0  0
   10.5413    8.0654   -8.6672 C   0  0  0  0  0  0  0  0  0  0  0  0
   10.1864    8.0519   -9.9704 N   0  0  0  0  0  0  0  0  0  0  0  0
    9.7114    6.9281  -10.5342 C   0  0  0  0  0  0  0  0  0  0  0  0
    9.3625    6.8982  -11.7964 N   0  0  0  0  0  0  0  0  0  0  0  0
    9.6049    5.8362   -9.7634 N   0  0  0  0  0  0  0  0  0  0  0  0
    9.2381    4.9416  -10.1700 H   0  0  0  0  0  0  0  0  0  0  0  0
    9.9423    5.7921   -8.4637 C   0  0  0  0  0  0  0  0  0  0  0  0
   10.4308    6.9386   -7.8741 C   0  0  0  0  0  0  0  0  0  0  0  0
   10.7889    6.9369   -6.5428 C   0  0  0  0  0  0  0  0  0  0  0  0
    8.8597    5.6928  -12.3767 C   0  0  0  0  0  0  0  0  0  0  0  0
    9.6519    4.8552  -13.1281 C   0  0  0  0  0  0  0  0  0  0  0  0
    9.1333    3.6743  -13.6878 C   0  0  0  0  0  0  0  0  0  0  0  0
    7.8142    3.3829  -13.4622 C   0  0  0  0  0  0  0  0  0  0  0  0
    7.0072    4.2129  -12.7130 C   0  0  0  0  0  0  0  0  0  0  0  0
    7.5397    5.3888  -12.1596 C   0  0  0  0  0  0  0  0  0  0  0  0
    5.5791    3.9740  -12.4825 C   0  0  0  0  0  0  0  0  0  0  0  0
    5.0943    2.6321  -12.8167 C   0  0  0  0  0  0  0  0  0  0  0  0
    5.9347    1.8363  -13.7033 C   0  0  0  0  0  0  0  0  0  0  0  0
    7.2381    2.1377  -13.9816 C   0  0  0  0  0  0  0  0  0  0  0  0
    7.9588    1.2877  -14.7859 C   0  0  0  0  0  0  0  0  0  0  0  0
    7.3751    0.1501  -15.3050 C   0  0  0  0  0  0  0  0  0  0  0  0
    6.0505   -0.1561  -15.0246 C   0  0  0  0  0  0  0  0  0  0  0  0
    5.3153    0.6709  -14.2286 C   0  0  0  0  0  0  0  0  0  0  0  0
    3.9288    0.1231  -14.0809 C   0  0  0  0  0  0  0  0  0  0  0  0
    3.9679   -1.0404  -14.8437 O   0  0  0  0  0  0  0  0  0  0  0  0
    5.1871   -1.2730  -15.4318 C   0  0  0  0  0  0  0  0  0  0  0  0
    5.5771   -2.2097  -16.1740 O   0  0  0  0  0  0  0  0  0  0  0  0
   12.3727    7.9645   -1.8232 C   0  0  0  0  0  0  0  0  0  0  0  0
   12.0326    6.8300   -2.5102 C   0  0  0  0  0  0  0  0  0  0  0  0
   11.6769    6.8860   -3.8616 C   0  0  0  0  0  0  0  0  0  0  0  0
   11.6581    8.0843   -4.5423 C   0  0  0  0  0  0  0  0  0  0  0  0
   11.9994    9.2222   -3.8522 C   0  0  0  0  0  0  0  0  0  0  0  0
   12.3486    9.1672   -2.5254 C   0  0  0  0  0  0  0  0  0  0  0  0
 31 32  2  0
 32 33  1  0
 33 34  2  0
 34  1  1  0
  1  2  1  0
  2  3  2  0
  3  4  1  0
  4  5  2  0
  5  6  1  0
  6  7  2  0
  7 13  1  0
 13 14  2  0
 14 15  1  0
 15 16  2  0
 16 17  1  0
 17 18  2  0
 17 19  1  0
 19 20  1  0
 20 21  1  0
 21 22  2  0
 22 23  1  0
 23 24  2  0
 24 25  1  0
 25 26  2  0
 26 27  1  0
 27 28  1  0
 28 29  1  0
 29 30  2  0
  6  8  1  0
  8  9  1  0
  8 10  1  0
 10 11  2  0
 11 12  1  0
 34 35  1  0
 35 36  2  0
 36 31  1  0
 12  1  2  0
 11  4  1  0
 18 13  1  0
 26 21  1  0
 22 16  1  0
 29 25  1  0
M  END
>  <minimizedAffinity>  (516) 
-16.90140

$$$$
Mol: 152_10 - SminaDock
     RDKit          3D

 36 42  0  0  0  0  0  0  0  0999 V2000
   11.3154    8.1160   -5.8774 C   0  0  0  0  0  0  0  0  0  0  0  0
   11.5156    9.2465   -6.6233 C   0  0  0  0  0  0  0  0  0  0  0  0
   11.1562    9.2928   -7.9799 C   0  0  0  0  0  0  0  0  0  0  0  0
   10.5898    8.2030   -8.6079 C   0  0  0  0  0  0  0  0  0  0  0  0
   10.2365    8.2203   -9.9047 N   0  0  0  0  0  0  0  0  0  0  0  0
    9.6828    7.1584  -10.5230 C   0  0  0  0  0  0  0  0  0  0  0  0
    9.3481    7.1910  -11.7725 N   0  0  0  0  0  0  0  0  0  0  0  0
    9.4926    6.0543   -9.7757 N   0  0  0  0  0  0  0  0  0  0  0  0
    9.0600    5.1860  -10.2086 H   0  0  0  0  0  0  0  0  0  0  0  0
    9.8265    5.9800   -8.4749 C   0  0  0  0  0  0  0  0  0  0  0  0
   10.3930    7.0696   -7.8461 C   0  0  0  0  0  0  0  0  0  0  0  0
   10.7487    7.0247   -6.5049 C   0  0  0  0  0  0  0  0  0  0  0  0
    8.7722    6.0155  -12.3234 C   0  0  0  0  0  0  0  0  0  0  0  0
    9.5226    5.2828  -13.2076 C   0  0  0  0  0  0  0  0  0  0  0  0
    9.0294    4.1187  -13.7906 C   0  0  0  0  0  0  0  0  0  0  0  0
    7.7392    3.7222  -13.4418 C   0  0  0  0  0  0  0  0  0  0  0  0
    6.9725    4.4293  -12.5679 C   0  0  0  0  0  0  0  0  0  0  0  0
    7.5188    5.5936  -12.0106 C   0  0  0  0  0  0  0  0  0  0  0  0
    5.5978    4.0340  -12.1808 C   0  0  0  0  0  0  0  0  0  0  0  0
    5.0680    2.7985  -12.7760 C   0  0  0  0  0  0  0  0  0  0  0  0
    5.9450    2.0892  -13.7131 C   0  0  0  0  0  0  0  0  0  0  0  0
    7.2148    2.4924  -14.0516 C   0  0  0  0  0  0  0  0  0  0  0  0
    7.9937    1.7850  -14.9356 C   0  0  0  0  0  0  0  0  0  0  0  0
    7.4502    0.6166  -15.4961 C   0  0  0  0  0  0  0  0  0  0  0  0
    6.1784    0.1972  -15.1682 C   0  0  0  0  0  0  0  0  0  0  0  0
    5.6542   -0.9646  -15.7336 C   0  0  0  0  0  0  0  0  0  0  0  0
    4.3834   -1.3902  -15.4106 C   0  0  0  0  0  0  0  0  0  0  0  0
    3.6234   -0.6731  -14.5290 C   0  0  0  0  0  0  0  0  0  0  0  0
    4.1552    0.4820  -13.9721 C   0  0  0  0  0  0  0  0  0  0  0  0
    5.4257    0.9314  -14.2781 C   0  0  0  0  0  0  0  0  0  0  0  0
   12.3043    9.2050   -2.4955 C   0  0  0  0  0  0  0  0  0  0  0  0
   11.9623    9.1970   -3.7891 N   0  0  0  0  0  0  0  0  0  0  0  0
   11.6868    8.0453   -4.4461 C   0  0  0  0  0  0  0  0  0  0  0  0
   11.7671    6.8739   -3.7476 C   0  0  0  0  0  0  0  0  0  0  0  0
   12.1150    6.8440   -2.4189 C   0  0  0  0  0  0  0  0  0  0  0  0
   12.3875    8.0336   -1.7861 C   0  0  0  0  0  0  0  0  0  0  0  0
 31 32  2  0
 32 33  1  0
 33  1  1  0
  1  2  1  0
  2  3  2  0
  3  4  1  0
  4  5  2  0
  5  6  1  0
  6  7  2  0
  7 13  1  0
 13 14  2  0
 14 15  1  0
 15 16  2  0
 16 17  1  0
 17 18  2  0
 17 19  1  0
 19 20  1  0
 20 21  1  0
 21 22  2  0
 22 23  1  0
 23 24  2  0
 24 25  1  0
 25 26  2  0
 26 27  1  0
 27 28  2  0
 28 29  1  0
 29 30  2  0
  6  8  1  0
  8  9  1  0
  8 10  1  0
 10 11  2  0
 11 12  1  0
 33 34  2  0
 34 35  1  0
 35 36  2  0
 36 31  1  0
 12  1  2  0
 11  4  1  0
 18 13  1  0
 30 21  1  0
 22 16  1  0
 30 25  1  0
M  END
>  <minimizedAffinity>  (517) 
-16.88882

$$$$
Mol: 166_32 - SminaDock
     RDKit          3D

 39 45  0  0  0  0  0  0  0  0999 V2000
    2.6741    0.1261  -13.1894 H   0  0  0  0  0  0  0  0  0  0  0  0
    2.8721   -0.0163  -14.1754 O   0  0  0  0  0  0  0  0  0  0  0  0
    4.1404   -0.2526  -14.6839 C   0  0  0  0  0  0  0  0  0  0  0  0
    4.3208   -1.3610  -15.4201 N   0  0  0  0  0  0  0  0  0  0  0  0
    5.5254   -1.6343  -15.9332 C   0  0  0  0  0  0  0  0  0  0  0  0
    5.7407   -2.6680  -16.6333 O   0  0  0  0  0  0  0  0  0  0  0  0
    6.5310   -0.7818  -15.6943 N   0  0  0  0  0  0  0  0  0  0  0  0
    6.4187    0.3239  -14.9792 N   0  0  0  0  0  0  0  0  0  0  0  0
    7.2864    1.2977  -14.6257 C   0  0  0  0  0  0  0  0  0  0  0  0
    6.6215    2.2314  -13.8586 C   0  0  0  0  0  0  0  0  0  0  0  0
    5.3224    1.7799  -13.7662 C   0  0  0  0  0  0  0  0  0  0  0  0
    5.2037    0.5909  -14.4670 C   0  0  0  0  0  0  0  0  0  0  0  0
    7.2875    3.4067  -13.3226 C   0  0  0  0  0  0  0  0  0  0  0  0
    6.5422    4.3050  -12.5529 C   0  0  0  0  0  0  0  0  0  0  0  0
    7.2011    5.3966  -12.0652 C   0  0  0  0  0  0  0  0  0  0  0  0
    8.5585    5.6234  -12.3128 C   0  0  0  0  0  0  0  0  0  0  0  0
    9.2501    4.7231  -13.0685 C   0  0  0  0  0  0  0  0  0  0  0  0
    8.6223    3.5958  -13.5874 C   0  0  0  0  0  0  0  0  0  0  0  0
    9.3258    2.6263  -14.3901 C   0  0  0  0  0  0  0  0  0  0  0  0
   10.5568    2.8252  -14.6239 O   0  0  0  0  0  0  0  0  0  0  0  0
    8.7146    1.4221  -14.9567 C   0  0  0  0  0  0  0  0  0  0  0  0
    9.1879    6.7655  -11.7845 N   0  0  0  0  0  0  0  0  0  0  0  0
    9.5409    6.7984  -10.5347 C   0  0  0  0  0  0  0  0  0  0  0  0
    9.3017    5.7344   -9.7471 N   0  0  0  0  0  0  0  0  0  0  0  0
    9.6460    5.7162   -8.4493 C   0  0  0  0  0  0  0  0  0  0  0  0
   10.2633    6.8138   -7.8961 C   0  0  0  0  0  0  0  0  0  0  0  0
   10.6398    6.8443   -6.5556 C   0  0  0  0  0  0  0  0  0  0  0  0
   11.2581    7.9530   -6.0154 C   0  0  0  0  0  0  0  0  0  0  0  0
   11.4833    9.0209   -6.8609 C   0  0  0  0  0  0  0  0  0  0  0  0
   11.1125    8.9974   -8.1911 C   0  0  0  0  0  0  0  0  0  0  0  0
   10.4936    7.8879   -8.7318 C   0  0  0  0  0  0  0  0  0  0  0  0
   10.1394    7.8820  -10.0287 N   0  0  0  0  0  0  0  0  0  0  0  0
   10.3336    8.7288  -10.6410 H   0  0  0  0  0  0  0  0  0  0  0  0
   11.6629    8.0100   -4.6120 C   0  0  0  0  0  0  0  0  0  0  0  0
   11.9660    9.1894   -3.9644 C   0  0  0  0  0  0  0  0  0  0  0  0
   12.3434    9.1842   -2.6346 C   0  0  0  0  0  0  0  0  0  0  0  0
   12.4339    8.0176   -1.9012 C   0  0  0  0  0  0  0  0  0  0  0  0
   12.1313    6.8385   -2.5468 C   0  0  0  0  0  0  0  0  0  0  0  0
   11.7548    6.8442   -3.8739 C   0  0  0  0  0  0  0  0  0  0  0  0
  1  2  1  0
  2  3  1  0
  3  4  2  0
  4  5  1  0
  5  6  2  0
  5  7  1  0
  7  8  1  0
  8  9  1  0
  9 10  2  0
 10 11  1  0
 11 12  2  0
 10 13  1  0
 13 14  2  0
 14 15  1  0
 15 16  2  0
 16 22  1  0
 22 23  2  0
 23 24  1  0
 24 25  2  0
 25 26  1  0
 26 27  2  0
 27 28  1  0
 28 34  1  0
 34 35  2  0
 35 36  1  0
 36 37  2  0
 37 38  1  0
 38 39  2  0
 28 29  2  0
 29 30  1  0
 30 31  2  0
 31 32  1  0
 32 33  1  0
 16 17  1  0
 17 18  2  0
 18 19  1  0
 19 20  2  0
 19 21  1  0
 12  3  1  0
 18 13  1  0
 12  8  1  0
 32 23  1  0
 21  9  1  0
 31 26  1  0
 39 34  1  0
M  CHG  1   7  -1
M  END
>  <minimizedAffinity>  (518) 
-16.86504

$$$$
Mol: 153_15 - SminaDock
     RDKit          3D

 44 51  0  0  0  0  0  0  0  0999 V2000
   13.6067    4.2988  -16.5281 H   0  0  0  0  0  0  0  0  0  0  0  0
   12.7204    4.8191  -16.4439 O   0  0  0  0  0  0  0  0  0  0  0  0
   11.5806    4.1874  -15.9095 C   0  0  0  0  0  0  0  0  0  0  0  0
   11.6932    3.1330  -15.1912 N   0  0  0  0  0  0  0  0  0  0  0  0
   10.4467    2.6641  -14.7598 C   0  0  0  0  0  0  0  0  0  0  0  0
   10.1671    1.6764  -14.0177 O   0  0  0  0  0  0  0  0  0  0  0  0
    9.4014    3.5766  -15.3528 C   0  0  2  0  0  0  0  0  0  0  0  0
    8.6929    4.2071  -14.2296 C   0  0  0  0  0  0  0  0  0  0  0  0
    9.2491    5.3634  -13.6449 C   0  0  0  0  0  0  0  0  0  0  0  0
    8.6752    5.9151  -12.5303 C   0  0  0  0  0  0  0  0  0  0  0  0
    7.5503    5.3282  -11.9884 C   0  0  0  0  0  0  0  0  0  0  0  0
    6.9843    4.1984  -12.5410 C   0  0  0  0  0  0  0  0  0  0  0  0
    7.5741    3.6426  -13.6785 C   0  0  0  0  0  0  0  0  0  0  0  0
    6.9319    2.5137  -14.3857 C   0  0  0  0  0  0  0  0  0  0  0  0
    7.4678    2.0774  -15.5876 C   0  0  0  0  0  0  0  0  0  0  0  0
    6.7424    0.9579  -15.9926 C   0  0  0  0  0  0  0  0  0  0  0  0
    6.8185    0.1105  -17.0931 C   0  0  0  0  0  0  0  0  0  0  0  0
    5.9103   -0.9364  -17.1842 C   0  0  0  0  0  0  0  0  0  0  0  0
    4.9503   -1.1512  -16.2236 C   0  0  0  0  0  0  0  0  0  0  0  0
    4.9024   -0.2800  -15.1305 C   0  0  0  0  0  0  0  0  0  0  0  0
    5.7971    0.7649  -15.0248 C   0  0  0  0  0  0  0  0  0  0  0  0
    5.9183    1.7226  -14.0412 N   0  0  0  0  0  0  0  0  0  0  0  0
    5.0764    1.7981  -12.8688 C   0  0  0  0  0  0  0  0  0  0  0  0
    8.5540    2.8068  -16.2613 C   0  0  0  0  0  0  0  0  0  0  0  0
   10.2312    4.5588  -16.0493 N   0  0  0  0  0  0  0  0  0  0  0  0
    9.9160    5.4019  -16.5710 H   0  0  0  0  0  0  0  0  0  0  0  0
    9.2628    7.0887  -11.9602 N   0  0  0  0  0  0  0  0  0  0  0  0
    9.5993    7.0439  -10.6978 C   0  0  0  0  0  0  0  0  0  0  0  0
   10.1571    8.1035  -10.0850 N   0  0  0  0  0  0  0  0  0  0  0  0
   10.5181    8.0969   -8.7883 C   0  0  0  0  0  0  0  0  0  0  0  0
   11.0932    9.1995   -8.1705 C   0  0  0  0  0  0  0  0  0  0  0  0
   11.4587    9.1773   -6.8380 C   0  0  0  0  0  0  0  0  0  0  0  0
   11.2619    8.0465   -6.0694 C   0  0  0  0  0  0  0  0  0  0  0  0
   10.6894    6.9551   -6.6925 C   0  0  0  0  0  0  0  0  0  0  0  0
   10.3215    6.9676   -8.0214 C   0  0  0  0  0  0  0  0  0  0  0  0
    9.7464    5.8797   -8.6590 C   0  0  0  0  0  0  0  0  0  0  0  0
    9.4027    5.9369   -9.9598 N   0  0  0  0  0  0  0  0  0  0  0  0
    8.9705    5.0986  -10.4111 H   0  0  0  0  0  0  0  0  0  0  0  0
   11.6471    8.0112   -4.6520 C   0  0  0  0  0  0  0  0  0  0  0  0
   12.0128    9.1723   -4.0016 C   0  0  0  0  0  0  0  0  0  0  0  0
   12.3778    9.1327   -2.6542 C   0  0  0  0  0  0  0  0  0  0  0  0
   12.3721    7.9321   -1.9754 C   0  0  0  0  0  0  0  0  0  0  0  0
   12.0108    6.7552   -2.6007 C   0  0  0  0  0  0  0  0  0  0  0  0
   11.6577    6.8366   -3.9293 C   0  0  0  0  0  0  0  0  0  0  0  0
  1  2  1  0
  2  3  1  0
  3  4  2  0
  4  5  1  0
  5  6  2  0
  5  7  1  0
  7  8  1  0
  8  9  2  0
  9 10  1  0
 10 27  1  0
 27 28  2  0
 28 29  1  0
 29 30  2  0
 30 31  1  0
 31 32  2  0
 32 33  1  0
 33 39  1  0
 39 40  2  0
 40 41  1  0
 41 42  2  0
 42 43  1  0
 43 44  2  0
 33 34  2  0
 34 35  1  0
 35 36  2  0
 36 37  1  0
 37 38  1  0
 10 11  2  0
 11 12  1  0
 12 13  2  0
 13 14  1  0
 14 15  2  0
 15 16  1  0
 16 17  2  0
 17 18  1  0
 18 19  2  0
 19 20  1  0
 20 21  2  0
 21 22  1  0
 22 23  1  0
 15 24  1  0
  7 25  1  0
 25 26  1  0
 25  3  1  0
  7 24  1  6
 13  8  1  0
 22 14  1  0
 37 28  1  0
 21 16  1  0
 35 30  1  0
 44 39  1  0
M  END
>  <minimizedAffinity>  (519) 
-16.92685

$$$$
Mol: 189_4 - SminaDock
     RDKit          3D

 44 51  0  0  0  0  0  0  0  0999 V2000
    6.1046   -2.7408  -18.6771 H   0  0  0  0  0  0  0  0  0  0  0  0
    6.4455   -2.7078  -17.7101 O   0  0  0  0  0  0  0  0  0  0  0  0
    6.0473   -1.6941  -16.8304 C   0  0  0  0  0  0  0  0  0  0  0  0
    6.8852   -0.7220  -16.4332 N   0  0  0  0  0  0  0  0  0  0  0  0
    6.4959    0.2551  -15.5832 C   0  0  0  0  0  0  0  0  0  0  0  0
    7.0888    1.3450  -15.0103 C   0  0  0  0  0  0  0  0  0  0  0  0
    6.1401    1.9600  -14.2171 C   0  0  0  0  0  0  0  0  0  0  0  0
    4.9975    1.2670  -14.3012 N   0  0  0  0  0  0  0  0  0  0  0  0
    4.1120    1.4959  -13.8113 H   0  0  0  0  0  0  0  0  0  0  0  0
    5.1930    0.2255  -15.1278 C   0  0  0  0  0  0  0  0  0  0  0  0
    4.2959   -0.7498  -15.5056 C   0  0  0  0  0  0  0  0  0  0  0  0
    4.7452   -1.7280  -16.3784 C   0  0  0  0  0  0  0  0  0  0  0  0
    6.7401    3.1397  -13.5789 C   0  0  0  0  0  0  0  0  0  0  0  0
    6.2132    4.0723  -12.7080 C   0  0  0  0  0  0  0  0  0  0  0  0
    6.9726    5.1292  -12.2160 C   0  0  0  0  0  0  0  0  0  0  0  0
    8.2803    5.2356  -12.6160 C   0  0  0  0  0  0  0  0  0  0  0  0
    8.8104    4.2863  -13.5003 C   0  0  0  0  0  0  0  0  0  0  0  0
    8.0477    3.2483  -13.9773 C   0  0  0  0  0  0  0  0  0  0  0  0
    8.3471    2.1276  -14.9040 C   0  0  1  0  0  0  0  0  0  0  0  0
    9.4685    1.2648  -14.4138 C   0  0  0  0  0  0  0  0  0  0  0  0
    9.9954    0.6154  -15.6908 C   0  0  0  0  0  0  0  0  0  0  0  0
    9.6987    1.5719  -16.7951 C   0  0  2  0  0  0  0  0  0  0  0  0
    9.0691    0.9936  -17.8954 O   0  0  0  0  0  0  0  0  0  0  0  0
    9.7052    0.7964  -18.6282 H   0  0  0  0  0  0  0  0  0  0  0  0
   10.9988    2.1759  -17.3467 C   0  0  0  0  0  0  0  0  0  0  0  0
    8.8475    2.6459  -16.2224 C   0  0  0  0  0  0  0  0  0  0  0  0
    9.1400    6.2738  -12.1747 N   0  0  0  0  0  0  0  0  0  0  0  0
    9.4521    6.3574  -10.9233 C   0  0  0  0  0  0  0  0  0  0  0  0
    9.0025    5.5038   -9.9981 N   0  0  0  0  0  0  0  0  0  0  0  0
    9.3111    5.5673   -8.6900 C   0  0  0  0  0  0  0  0  0  0  0  0
   10.1517    6.5936   -8.3015 C   0  0  0  0  0  0  0  0  0  0  0  0
   10.4763    6.6677   -6.9540 C   0  0  0  0  0  0  0  0  0  0  0  0
   11.3062    7.6646   -6.5104 C   0  0  0  0  0  0  0  0  0  0  0  0
   11.7901    8.5645   -7.4365 C   0  0  0  0  0  0  0  0  0  0  0  0
   11.4686    8.4927   -8.7773 C   0  0  0  0  0  0  0  0  0  0  0  0
   10.6321    7.4885   -9.2268 C   0  0  0  0  0  0  0  0  0  0  0  0
   10.2755    7.3531  -10.5068 N   0  0  0  0  0  0  0  0  0  0  0  0
   10.6427    8.0334  -11.2000 H   0  0  0  0  0  0  0  0  0  0  0  0
   11.6912    7.7995   -5.0879 C   0  0  0  0  0  0  0  0  0  0  0  0
   11.3667    6.8246   -4.1717 C   0  0  0  0  0  0  0  0  0  0  0  0
   11.7220    6.9497   -2.8605 C   0  0  0  0  0  0  0  0  0  0  0  0
   12.4147    8.0586   -2.4280 C   0  0  0  0  0  0  0  0  0  0  0  0
   12.7433    9.0386   -3.3386 C   0  0  0  0  0  0  0  0  0  0  0  0
   12.3848    8.9127   -4.6622 C   0  0  0  0  0  0  0  0  0  0  0  0
  1  2  1  0
  2  3  1  0
  3  4  2  0
  4  5  1  0
  5  6  1  0
  6  7  2  0
  7  8  1  0
  8  9  1  0
  8 10  1  0
 10 11  1  0
 11 12  2  0
  7 13  1  0
 13 14  2  0
 14 15  1  0
 15 16  2  0
 16 27  1  0
 27 28  2  0
 28 29  1  0
 29 30  2  0
 30 31  1  0
 31 32  2  0
 32 33  1  0
 33 39  1  0
 39 40  2  0
 40 41  1  0
 41 42  2  0
 42 43  1  0
 43 44  2  0
 33 34  2  0
 34 35  1  0
 35 36  2  0
 36 37  1  0
 37 38  1  0
 16 17  1  0
 17 18  2  0
 18 19  1  0
 19 20  1  1
 20 21  1  0
 21 22  1  0
 22 23  1  0
 23 24  1  0
 22 25  1  6
 22 26  1  0
 12  3  1  0
 18 13  1  0
 26 19  1  0
 10  5  2  0
 37 28  1  0
 19  6  1  0
 36 31  1  0
 44 39  1  0
M  END
>  <minimizedAffinity>  (520) 
-16.87920

$$$$
Mol: 134_4 - SminaDock
     RDKit          3D

 39 45  0  0  0  0  0  0  0  0999 V2000
    8.7832    5.8728  -12.3836 C   0  0  0  0  0  0  0  0  0  0  0  0
    7.4158    5.7343  -12.3730 C   0  0  0  0  0  0  0  0  0  0  0  0
    6.7852    4.6187  -12.9416 C   0  0  0  0  0  0  0  0  0  0  0  0
    7.6129    3.6869  -13.4979 C   0  0  0  0  0  0  0  0  0  0  0  0
    9.0072    3.8225  -13.5168 C   0  0  0  0  0  0  0  0  0  0  0  0
    9.5825    4.9124  -12.9591 C   0  0  0  0  0  0  0  0  0  0  0  0
    9.9455    2.8850  -14.1753 C   0  0  0  0  0  0  0  0  0  0  0  0
   11.0846    2.9143  -13.7082 O   0  0  0  0  0  0  0  0  0  0  0  0
    9.5852    2.0200  -15.2543 N   0  0  0  0  0  0  0  0  0  0  0  0
   10.3302    1.3710  -15.5415 H   0  0  0  0  0  0  0  0  0  0  0  0
    8.3496    1.9055  -16.0118 C   0  0  0  0  0  0  0  0  0  0  0  0
    7.1726    1.7693  -15.1261 C   0  0  0  0  0  0  0  0  0  0  0  0
    6.8514    2.5383  -14.0012 C   0  0  0  0  0  0  0  0  0  0  0  0
    5.7455    2.1027  -13.4120 N   0  0  0  0  0  0  0  0  0  0  0  0
    5.0971    2.5413  -12.2064 C   0  0  0  0  0  0  0  0  0  0  0  0
    5.3377    1.0369  -14.1686 C   0  0  0  0  0  0  0  0  0  0  0  0
    4.2485    0.2046  -14.0272 C   0  0  0  0  0  0  0  0  0  0  0  0
    4.0136   -0.8410  -14.9264 C   0  0  0  0  0  0  0  0  0  0  0  0
    4.8892   -1.0332  -15.9646 C   0  0  0  0  0  0  0  0  0  0  0  0
    5.9953   -0.1924  -16.1129 C   0  0  0  0  0  0  0  0  0  0  0  0
    6.2046    0.8261  -15.2186 C   0  0  0  0  0  0  0  0  0  0  0  0
   11.3404    8.0084   -5.9399 C   0  0  0  0  0  0  0  0  0  0  0  0
   11.6244    9.0957   -6.7509 C   0  0  0  0  0  0  0  0  0  0  0  0
   11.2881    9.0903   -8.0919 C   0  0  0  0  0  0  0  0  0  0  0  0
   10.6604    8.0128   -8.6797 C   0  0  0  0  0  0  0  0  0  0  0  0
   10.3753    6.9272   -7.8767 C   0  0  0  0  0  0  0  0  0  0  0  0
    9.7481    5.8600   -8.4815 C   0  0  0  0  0  0  0  0  0  0  0  0
    9.4267    5.8748   -9.8000 N   0  0  0  0  0  0  0  0  0  0  0  0
    9.7156    6.9440  -10.5583 C   0  0  0  0  0  0  0  0  0  0  0  0
    9.4306    7.0013  -11.8073 N   0  0  0  0  0  0  0  0  0  0  0  0
   10.3262    7.9954   -9.9919 N   0  0  0  0  0  0  0  0  0  0  0  0
   10.5827    8.8675  -10.5261 H   0  0  0  0  0  0  0  0  0  0  0  0
   10.7119    6.9345   -6.5376 C   0  0  0  0  0  0  0  0  0  0  0  0
   12.3678    7.9887   -1.8419 C   0  0  0  0  0  0  0  0  0  0  0  0
   12.4007    9.1816   -2.5193 C   0  0  0  0  0  0  0  0  0  0  0  0
   12.0593    9.1609   -3.8627 C   0  0  0  0  0  0  0  0  0  0  0  0
   11.7000    8.0225   -4.5198 C   0  0  0  0  0  0  0  0  0  0  0  0
   11.6835    6.8425   -3.7862 C   0  0  0  0  0  0  0  0  0  0  0  0
   12.0121    6.7990   -2.4499 C   0  0  0  0  0  0  0  0  0  0  0  0
 34 35  2  0
 35 36  1  0
 36 37  2  0
 37 22  1  0
 22 23  2  0
 23 24  1  0
 24 25  2  0
 25 26  1  0
 26 27  1  0
 27 28  2  0
 28 29  1  0
 29 30  2  0
 30  1  1  0
  1  2  2  0
  2  3  1  0
  3  4  2  0
  4  5  1  0
  5  6  2  0
  5  7  1  0
  7  8  2  0
  7  9  1  0
  9 10  1  0
  9 11  1  0
 11 12  1  0
 12 13  2  0
 13 14  1  0
 14 15  1  0
 14 16  1  0
 16 17  2  0
 17 18  1  0
 18 19  2  0
 19 20  1  0
 20 21  2  0
 29 31  1  0
 31 32  1  0
 26 33  2  0
 37 38  1  0
 38 39  2  0
 39 34  1  0
 33 22  1  0
 31 25  1  0
  6  1  1  0
 21 12  1  0
 13  4  1  0
 21 16  1  0
M  END
>  <minimizedAffinity>  (521) 
-16.92987

$$$$
Mol: 153_8 - SminaDock
     RDKit          3D

 40 46  0  0  0  0  0  0  0  0999 V2000
    2.3214   -1.2305  -14.1974 O   0  0  0  0  0  0  0  0  0  0  0  0
    3.6119   -0.8233  -14.5237 C   0  0  0  0  0  0  0  0  0  0  0  0
    4.1124    0.2838  -13.9898 C   0  0  0  0  0  0  0  0  0  0  0  0
    5.4538    0.7529  -14.2968 C   0  0  0  0  0  0  0  0  0  0  0  0
    5.9618    1.9150  -13.7315 C   0  0  0  0  0  0  0  0  0  0  0  0
    7.2485    2.2652  -14.0987 C   0  0  0  0  0  0  0  0  0  0  0  0
    7.9714    1.5375  -14.9463 N   0  0  0  0  0  0  0  0  0  0  0  0
    7.4897    0.4044  -15.5039 C   0  0  0  0  0  0  0  0  0  0  0  0
    8.1990   -0.2587  -16.3001 O   0  0  0  0  0  0  0  0  0  0  0  0
    6.1998   -0.0034  -15.1751 C   0  0  0  0  0  0  0  0  0  0  0  0
    5.7044   -1.2389  -15.7942 C   0  0  0  0  0  0  0  0  0  0  0  0
    4.4012   -1.5368  -15.3934 O   0  0  0  0  0  0  0  0  0  0  0  0
    7.7909    3.4841  -13.5106 C   0  0  0  0  0  0  0  0  0  0  0  0
    9.0839    3.9310  -13.8129 C   0  0  0  0  0  0  0  0  0  0  0  0
    9.6034    5.0847  -13.2582 C   0  0  0  0  0  0  0  0  0  0  0  0
    8.8095    5.7966  -12.3880 C   0  0  0  0  0  0  0  0  0  0  0  0
    7.5372    5.3545  -12.0922 C   0  0  0  0  0  0  0  0  0  0  0  0
    7.0110    4.1943  -12.6482 C   0  0  0  0  0  0  0  0  0  0  0  0
    5.6336    3.8648  -12.2257 C   0  0  0  0  0  0  0  0  0  0  0  0
    5.0855    2.6309  -12.8172 C   0  0  0  0  0  0  0  0  0  0  0  0
    1.5735   -0.6928  -14.6563 H   0  0  0  0  0  0  0  0  0  0  0  0
    8.9343    1.8141  -15.2111 H   0  0  0  0  0  0  0  0  0  0  0  0
    9.3147    7.0078  -11.7880 N   0  0  0  0  0  0  0  0  0  0  0  0
    9.3862    7.8665  -12.3720 H   0  0  0  0  0  0  0  0  0  0  0  0
    9.7116    7.0603  -10.4396 C   0  0  0  0  0  0  0  0  0  0  0  0
    9.4856    5.9864   -9.6453 N   0  0  0  0  0  0  0  0  0  0  0  0
    9.8332    5.9594   -8.3475 C   0  0  0  0  0  0  0  0  0  0  0  0
   10.4491    7.0638   -7.7772 C   0  0  0  0  0  0  0  0  0  0  0  0
   10.8144    7.0601   -6.4471 C   0  0  0  0  0  0  0  0  0  0  0  0
   11.4264    8.1514   -5.8681 C   0  0  0  0  0  0  0  0  0  0  0  0
   11.6613    9.2455   -6.6611 C   0  0  0  0  0  0  0  0  0  0  0  0
   11.2921    9.2509   -8.0081 C   0  0  0  0  0  0  0  0  0  0  0  0
   10.6816    8.1553   -8.5743 C   0  0  0  0  0  0  0  0  0  0  0  0
   10.3076    8.1284   -9.8871 N   0  0  0  0  0  0  0  0  0  0  0  0
   11.7824    8.0738   -4.4578 C   0  0  0  0  0  0  0  0  0  0  0  0
   12.1472    9.1958   -3.7367 C   0  0  0  0  0  0  0  0  0  0  0  0
   12.4896    9.1596   -2.4071 C   0  0  0  0  0  0  0  0  0  0  0  0
   12.4775    7.9676   -1.7384 C   0  0  0  0  0  0  0  0  0  0  0  0
   12.1210    6.8356   -2.4212 C   0  0  0  0  0  0  0  0  0  0  0  0
   11.7731    6.8758   -3.7743 C   0  0  0  0  0  0  0  0  0  0  0  0
  1  2  1  0
  2  3  2  0
  3  4  1  0
  4  5  1  0
  5  6  2  0
  6  7  1  0
  7  8  1  0
  8  9  2  0
  8 10  1  0
 10 11  1  0
 11 12  1  0
  6 13  1  0
 13 14  2  0
 14 15  1  0
 15 16  2  0
 16 23  1  0
 23 25  1  0
 25 26  2  0
 26 27  1  0
 27 28  2  0
 28 29  1  0
 29 30  2  0
 30 35  1  0
 35 36  2  0
 36 37  1  0
 37 38  2  0
 38 39  1  0
 39 40  2  0
 30 31  1  0
 31 32  2  0
 32 33  1  0
 33 34  2  0
 16 17  1  0
 17 18  2  0
 18 19  1  0
 19 20  1  0
 12  2  1  0
 18 13  1  0
 10  4  2  0
 34 25  1  0
 20  5  1  0
 33 28  1  0
 40 35  1  0
  1 21  1  0
  7 22  1  0
 23 24  1  0
M  END
>  <minimizedAffinity>  (522) 
-16.88960

$$$$
Mol: 96_19 - SminaDock
     RDKit          3D

 38 44  0  0  0  0  0  0  0  0999 V2000
    8.5867    5.3466  -13.1045 N   0  0  0  0  0  0  0  0  0  0  0  0
    8.9279    5.5734  -11.8847 C   0  0  0  0  0  0  0  0  0  0  0  0
    8.5650    4.8076  -10.8045 C   0  0  0  0  0  0  0  0  0  0  0  0
    8.9659    5.0974   -9.5149 C   0  0  0  0  0  0  0  0  0  0  0  0
    9.7636    6.1985   -9.2940 C   0  0  0  0  0  0  0  0  0  0  0  0
   10.2080    6.5566   -8.0388 C   0  0  0  0  0  0  0  0  0  0  0  0
   11.0092    7.6707   -7.8521 C   0  0  0  0  0  0  0  0  0  0  0  0
   11.3371    8.3978   -8.9787 C   0  0  0  0  0  0  0  0  0  0  0  0
   10.9054    8.0559  -10.2282 C   0  0  0  0  0  0  0  0  0  0  0  0
   10.1144    6.9525  -10.3967 C   0  0  0  0  0  0  0  0  0  0  0  0
    9.7058    6.6440  -11.6497 N   0  0  0  0  0  0  0  0  0  0  0  0
   10.0079    7.2583  -12.4408 H   0  0  0  0  0  0  0  0  0  0  0  0
   10.1573    0.1899  -15.2634 H   0  0  0  0  0  0  0  0  0  0  0  0
    9.6364    1.0458  -15.1488 O   0  0  0  0  0  0  0  0  0  0  0  0
    8.2561    0.9259  -14.8817 C   0  0  0  0  0  0  0  0  0  0  0  0
    7.6070   -0.1976  -15.2003 N   0  0  0  0  0  0  0  0  0  0  0  0
    6.2735   -0.2404  -14.9115 C   0  0  0  0  0  0  0  0  0  0  0  0
    5.6233   -1.4057  -15.2462 C   0  0  0  0  0  0  0  0  0  0  0  0
    4.2761   -1.5018  -14.9756 C   0  0  0  0  0  0  0  0  0  0  0  0
    3.6175   -0.4309  -14.3785 C   0  0  0  0  0  0  0  0  0  0  0  0
    4.2784    0.7433  -14.0421 C   0  0  0  0  0  0  0  0  0  0  0  0
    5.6215    0.8214  -14.3196 C   0  0  0  0  0  0  0  0  0  0  0  0
    6.2975    1.9925  -13.9872 C   0  0  0  0  0  0  0  0  0  0  0  0
    5.6834    3.0519  -13.4015 C   0  0  0  0  0  0  0  0  0  0  0  0
    6.4488    4.1837  -13.1026 C   0  0  0  0  0  0  0  0  0  0  0  0
    7.7744    4.2284  -13.3888 C   0  0  0  0  0  0  0  0  0  0  0  0
    8.3942    3.1466  -13.9853 C   0  0  0  0  0  0  0  0  0  0  0  0
    7.6544    2.0205  -14.2876 C   0  0  0  0  0  0  0  0  0  0  0  0
   11.4873    8.0605   -6.5289 C   0  0  0  0  0  0  0  0  0  0  0  0
   12.1616    9.2392   -6.2905 C   0  0  0  0  0  0  0  0  0  0  0  0
   12.6039    9.5767   -5.0301 C   0  0  0  0  0  0  0  0  0  0  0  0
   12.3918    8.7420   -3.9318 C   0  0  0  0  0  0  0  0  0  0  0  0
   12.8358    9.0799   -2.6741 C   0  0  0  0  0  0  0  0  0  0  0  0
   12.6249    8.2434   -1.5739 C   0  0  0  0  0  0  0  0  0  0  0  0
   11.9499    7.0653   -1.8193 C   0  0  0  0  0  0  0  0  0  0  0  0
   11.5072    6.7301   -3.0782 C   0  0  0  0  0  0  0  0  0  0  0  0
   11.7178    7.5638   -4.1727 C   0  0  0  0  0  0  0  0  0  0  0  0
   11.2790    7.2371   -5.4417 C   0  0  0  0  0  0  0  0  0  0  0  0
 13 14  1  0
 14 15  1  0
 15 16  2  0
 16 17  1  0
 17 18  2  0
 18 19  1  0
 19 20  2  0
 20 21  1  0
 21 22  2  0
 22 23  1  0
 23 24  2  0
 24 25  1  0
 25 26  2  0
 26  1  1  0
  1  2  2  0
  2  3  1  0
  3  4  2  0
  4  5  1  0
  5  6  2  0
  6  7  1  0
  7 29  1  0
 29 30  2  0
 30 31  1  0
 31 32  2  0
 32 33  1  0
 33 34  2  0
 34 35  1  0
 35 36  2  0
 36 37  1  0
 37 38  2  0
  7  8  2  0
  8  9  1  0
  9 10  2  0
 10 11  1  0
 11 12  1  0
 26 27  1  0
 27 28  2  0
 28 15  1  0
 22 17  1  0
 28 23  1  0
 11  2  1  0
 10  5  1  0
 38 29  1  0
 37 32  1  0
M  END
>  <minimizedAffinity>  (523) 
-16.85922

$$$$
Mol: 152_41 - SminaDock
     RDKit          3D

 36 42  0  0  0  0  0  0  0  0999 V2000
   11.2855    8.0719   -5.9605 C   0  0  0  0  0  0  0  0  0  0  0  0
   11.4435    9.1878   -6.7528 C   0  0  0  0  0  0  0  0  0  0  0  0
   11.0928    9.2567   -8.0810 C   0  0  0  0  0  0  0  0  0  0  0  0
   10.5416    8.1254   -8.6654 C   0  0  0  0  0  0  0  0  0  0  0  0
   10.3700    6.9808   -7.8866 C   0  0  0  0  0  0  0  0  0  0  0  0
    9.8263    5.8769   -8.4778 C   0  0  0  0  0  0  0  0  0  0  0  0
    9.4862    5.9406   -9.7632 N   0  0  0  0  0  0  0  0  0  0  0  0
    9.6510    7.0512  -10.5249 C   0  0  0  0  0  0  0  0  0  0  0  0
    9.2963    7.0247  -11.7536 N   0  0  0  0  0  0  0  0  0  0  0  0
   10.1861    8.1477   -9.9547 N   0  0  0  0  0  0  0  0  0  0  0  0
   10.3198    9.0055  -10.5203 H   0  0  0  0  0  0  0  0  0  0  0  0
   10.7369    6.9556   -6.5537 C   0  0  0  0  0  0  0  0  0  0  0  0
    8.7401    5.8389  -12.2918 C   0  0  0  0  0  0  0  0  0  0  0  0
    9.5408    5.0154  -13.0348 C   0  0  0  0  0  0  0  0  0  0  0  0
    8.9937    3.8503  -13.5627 C   0  0  0  0  0  0  0  0  0  0  0  0
    7.6946    3.4756  -13.3829 C   0  0  0  0  0  0  0  0  0  0  0  0
    6.9079    4.3284  -12.6267 C   0  0  0  0  0  0  0  0  0  0  0  0
    7.4228    5.5099  -12.0789 C   0  0  0  0  0  0  0  0  0  0  0  0
    5.4976    4.0564  -12.3491 C   0  0  0  0  0  0  0  0  0  0  0  0
    4.9399    2.8203  -12.9251 C   0  0  0  0  0  0  0  0  0  0  0  0
    5.8202    1.9601  -13.7098 C   0  0  0  0  0  0  0  0  0  0  0  0
    5.2957    0.7700  -14.2590 C   0  0  0  0  0  0  0  0  0  0  0  0
    6.0843   -0.0637  -15.0023 C   0  0  0  0  0  0  0  0  0  0  0  0
    7.4118    0.2474  -15.2282 C   0  0  0  0  0  0  0  0  0  0  0  0
    7.9423    1.4001  -14.7032 C   0  0  0  0  0  0  0  0  0  0  0  0
    7.1397    2.2527  -13.9441 C   0  0  0  0  0  0  0  0  0  0  0  0
    5.2823   -1.2095  -15.4393 C   0  0  0  0  0  0  0  0  0  0  0  0
    5.6599   -2.0779  -16.2651 O   0  0  0  0  0  0  0  0  0  0  0  0
    3.9968   -1.0860  -14.7033 C   0  0  0  0  0  0  0  0  0  0  0  0
    4.0242    0.2235  -14.1912 O   0  0  0  0  0  0  0  0  0  0  0  0
   12.4092    7.9547   -1.8492 C   0  0  0  0  0  0  0  0  0  0  0  0
   12.0595    6.8011   -2.5107 C   0  0  0  0  0  0  0  0  0  0  0  0
   11.6990    6.8569   -3.8390 C   0  0  0  0  0  0  0  0  0  0  0  0
   11.6709    8.0400   -4.5549 C   0  0  0  0  0  0  0  0  0  0  0  0
   12.0265    9.2032   -3.8772 C   0  0  0  0  0  0  0  0  0  0  0  0
   12.3870    9.1453   -2.5480 C   0  0  0  0  0  0  0  0  0  0  0  0
 31 32  2  0
 32 33  1  0
 33 34  2  0
 34  1  1  0
  1  2  2  0
  2  3  1  0
  3  4  2  0
  4  5  1  0
  5  6  1  0
  6  7  2  0
  7  8  1  0
  8  9  2  0
  9 13  1  0
 13 14  2  0
 14 15  1  0
 15 16  2  0
 16 17  1  0
 17 18  2  0
 17 19  1  0
 19 20  1  0
 20 21  1  0
 21 22  2  0
 22 23  1  0
 23 24  2  0
 24 25  1  0
 25 26  2  0
 23 27  1  0
 27 28  2  0
 27 29  1  0
 29 30  1  0
  8 10  1  0
 10 11  1  0
  5 12  2  0
 34 35  1  0
 35 36  2  0
 36 31  1  0
 12  1  1  0
 10  4  1  0
 18 13  1  0
 26 21  1  0
 26 16  1  0
 30 22  1  0
M  END
>  <minimizedAffinity>  (524) 
-16.88140

$$$$
Mol: 132_13 - SminaDock
     RDKit          3D

 40 46  0  0  0  0  0  0  0  0999 V2000
    8.7522   -1.1800  -13.6663 H   0  0  0  0  0  0  0  0  0  0  0  0
    8.3263   -0.2562  -13.8004 O   0  0  0  0  0  0  0  0  0  0  0  0
    8.9557    0.6965  -14.6068 C   0  0  0  0  0  0  0  0  0  0  0  0
   10.1815    0.7759  -14.8963 N   0  0  0  0  0  0  0  0  0  0  0  0
   10.4502    1.8789  -15.7430 C   0  0  0  0  0  0  0  0  0  0  0  0
   11.6105    2.1752  -16.1767 O   0  0  0  0  0  0  0  0  0  0  0  0
    9.2319    2.5417  -15.9904 N   0  0  0  0  0  0  0  0  0  0  0  0
    9.0598    3.3745  -16.5585 H   0  0  0  0  0  0  0  0  0  0  0  0
    8.1919    1.8180  -15.2714 C   0  0  2  0  0  0  0  0  0  0  0  0
    7.5811    2.6824  -14.2338 C   0  0  0  0  0  0  0  0  0  0  0  0
    8.3225    3.7577  -13.7003 C   0  0  0  0  0  0  0  0  0  0  0  0
    7.8530    4.5132  -12.6515 C   0  0  0  0  0  0  0  0  0  0  0  0
    6.6212    4.1633  -12.1502 C   0  0  0  0  0  0  0  0  0  0  0  0
    5.8695    3.0962  -12.6720 C   0  0  0  0  0  0  0  0  0  0  0  0
    6.3594    2.3531  -13.7270 C   0  0  0  0  0  0  0  0  0  0  0  0
    5.5159    1.3343  -14.3572 C   0  0  0  0  0  0  0  0  0  0  0  0
    4.3579    0.9293  -13.7519 C   0  0  0  0  0  0  0  0  0  0  0  0
    3.6605   -0.1261  -14.3215 C   0  0  0  0  0  0  0  0  0  0  0  0
    4.1322   -0.7373  -15.4616 C   0  0  0  0  0  0  0  0  0  0  0  0
    5.2915   -0.3383  -16.0784 C   0  0  0  0  0  0  0  0  0  0  0  0
    5.9913    0.7190  -15.5128 C   0  0  0  0  0  0  0  0  0  0  0  0
    7.1659    1.2687  -16.1968 C   0  0  0  0  0  0  0  0  0  0  0  0
    8.6226    5.5898  -12.1379 N   0  0  0  0  0  0  0  0  0  0  0  0
    8.9845    5.7222  -10.9183 C   0  0  0  0  0  0  0  0  0  0  0  0
    9.7215    6.8369  -10.6457 N   0  0  0  0  0  0  0  0  0  0  0  0
   10.1734    7.1134   -9.4147 C   0  0  0  0  0  0  0  0  0  0  0  0
   10.9228    8.2420   -9.1274 C   0  0  0  0  0  0  0  0  0  0  0  0
   11.3835    8.5149   -7.8525 C   0  0  0  0  0  0  0  0  0  0  0  0
   11.0826    7.6257   -6.8299 C   0  0  0  0  0  0  0  0  0  0  0  0
   10.3293    6.4952   -7.1288 C   0  0  0  0  0  0  0  0  0  0  0  0
    9.8691    6.2208   -8.3976 C   0  0  0  0  0  0  0  0  0  0  0  0
    9.1386    5.1243   -8.6895 N   0  0  0  0  0  0  0  0  0  0  0  0
    8.7063    4.8830   -9.9275 N   0  0  0  0  0  0  0  0  0  0  0  0
    8.1372    4.0308  -10.1605 H   0  0  0  0  0  0  0  0  0  0  0  0
   11.5395    7.8599   -5.4707 C   0  0  0  0  0  0  0  0  0  0  0  0
   11.3983    6.8775   -4.5146 C   0  0  0  0  0  0  0  0  0  0  0  0
   11.8320    7.0870   -3.2036 C   0  0  0  0  0  0  0  0  0  0  0  0
   12.4077    8.2885   -2.8599 C   0  0  0  0  0  0  0  0  0  0  0  0
   12.5542    9.2754   -3.8030 C   0  0  0  0  0  0  0  0  0  0  0  0
   12.1138    9.0443   -5.1070 C   0  0  0  0  0  0  0  0  0  0  0  0
  1  2  1  0
  2  3  1  0
  3  4  2  0
  4  5  1  0
  5  6  2  0
  5  7  1  0
  7  8  1  0
  9  7  1  0
  9 10  1  0
 10 11  2  0
 11 12  1  0
 12 23  1  0
 23 24  2  0
 24 25  1  0
 25 26  2  0
 26 27  1  0
 27 28  2  0
 28 29  1  0
 29 35  1  0
 35 36  2  0
 36 37  1  0
 37 38  2  0
 38 39  1  0
 39 40  2  0
 29 30  2  0
 30 31  1  0
 31 32  2  0
 32 33  1  0
 33 34  1  0
 12 13  2  0
 13 14  1  0
 14 15  2  0
 15 16  1  0
 16 17  2  0
 17 18  1  0
 18 19  2  0
 19 20  1  0
 20 21  2  0
 21 22  1  0
  9  3  1  0
 15 10  1  0
 21 16  1  0
  9 22  1  6
 33 24  1  0
 31 26  1  0
 40 35  1  0
M  END
>  <minimizedAffinity>  (525) 
-16.85709

$$$$
Mol: 132_49 - SminaDock
     RDKit          3D

 38 44  0  0  0  0  0  0  0  0999 V2000
    7.8382    4.6849  -12.6784 C   0  0  0  0  0  0  0  0  0  0  0  0
    6.6029    4.4619  -12.1100 C   0  0  0  0  0  0  0  0  0  0  0  0
    5.8858    3.3425  -12.4880 C   0  0  0  0  0  0  0  0  0  0  0  0
    6.3649    2.4444  -13.4122 C   0  0  0  0  0  0  0  0  0  0  0  0
    7.6230    2.7175  -13.9573 C   0  0  0  0  0  0  0  0  0  0  0  0
    8.3794    3.8056  -13.6257 C   0  0  0  0  0  0  0  0  0  0  0  0
    8.2609    1.8505  -14.9523 C   0  0  2  0  0  0  0  0  0  0  0  0
    7.4072    1.9252  -16.2058 C   0  0  0  0  0  0  0  0  0  0  0  0
    6.2335    0.9979  -16.0371 C   0  0  0  0  0  0  0  0  0  0  0  0
    6.0122    0.2797  -17.1949 C   0  0  0  0  0  0  0  0  0  0  0  0
    4.9812   -0.6493  -17.2930 C   0  0  0  0  0  0  0  0  0  0  0  0
    4.1464   -0.8742  -16.2175 C   0  0  0  0  0  0  0  0  0  0  0  0
    4.3776   -0.1526  -15.0709 C   0  0  0  0  0  0  0  0  0  0  0  0
    5.4101    0.7795  -14.9685 C   0  0  0  0  0  0  0  0  0  0  0  0
    5.3863    1.3760  -13.6224 C   0  0  0  0  0  0  0  0  0  0  0  0
    8.1681    0.4146  -14.4865 C   0  0  0  0  0  0  0  0  0  0  0  0
    9.5195   -0.0600  -14.3441 N   0  0  0  0  0  0  0  0  0  0  0  0
    9.9237    0.3627  -13.4699 H   0  0  0  0  0  0  0  0  0  0  0  0
   10.2092    0.5827  -15.4560 C   0  0  0  0  0  0  0  0  0  0  0  0
    9.7034    2.0384  -15.2096 C   0  0  0  0  0  0  0  0  0  0  0  0
   11.0992    7.6223   -6.8626 C   0  0  0  0  0  0  0  0  0  0  0  0
   11.3901    8.5315   -7.8534 C   0  0  0  0  0  0  0  0  0  0  0  0
   10.9416    8.3422   -9.1527 C   0  0  0  0  0  0  0  0  0  0  0  0
   10.1910    7.2413   -9.5000 C   0  0  0  0  0  0  0  0  0  0  0  0
    9.8957    6.3265   -8.5134 C   0  0  0  0  0  0  0  0  0  0  0  0
    9.1639    5.2591   -8.8660 N   0  0  0  0  0  0  0  0  0  0  0  0
    8.7140    5.0491  -10.1236 C   0  0  0  0  0  0  0  0  0  0  0  0
    9.0113    5.9656  -11.1059 C   0  0  0  0  0  0  0  0  0  0  0  0
    8.6052    5.8115  -12.3252 N   0  0  0  0  0  0  0  0  0  0  0  0
    9.7502    7.0457  -10.7554 N   0  0  0  0  0  0  0  0  0  0  0  0
    9.9841    7.7557  -11.5027 H   0  0  0  0  0  0  0  0  0  0  0  0
   10.3480    6.5200   -7.2088 C   0  0  0  0  0  0  0  0  0  0  0  0
   12.4790    8.1777   -2.8545 C   0  0  0  0  0  0  0  0  0  0  0  0
   12.6883    9.1401   -3.8195 C   0  0  0  0  0  0  0  0  0  0  0  0
   12.2547    8.9886   -5.1201 C   0  0  0  0  0  0  0  0  0  0  0  0
   11.5886    7.8502   -5.4964 C   0  0  0  0  0  0  0  0  0  0  0  0
   11.3755    6.8793   -4.5301 C   0  0  0  0  0  0  0  0  0  0  0  0
   11.8072    7.0269   -3.2291 C   0  0  0  0  0  0  0  0  0  0  0  0
 33 34  2  0
 34 35  1  0
 35 36  2  0
 36 21  1  0
 21 22  2  0
 22 23  1  0
 23 24  2  0
 24 25  1  0
 25 26  1  0
 26 27  2  0
 27 28  1  0
 28 29  2  0
 29  1  1  0
  1  2  2  0
  2  3  1  0
  3  4  2  0
  4  5  1  0
  5  6  2  0
  5  7  1  0
  7  8  1  6
  8  9  1  0
  9 10  2  0
 10 11  1  0
 11 12  2  0
 12 13  1  0
 13 14  2  0
 14 15  1  0
  7 16  1  0
 16 17  1  0
 17 18  1  0
 17 19  1  0
 19 20  1  0
 28 30  1  0
 30 31  1  0
 25 32  2  0
 36 37  1  0
 37 38  2  0
 38 33  1  0
 32 21  1  0
 30 24  1  0
  6  1  1  0
 20  7  1  0
 15  4  1  0
 14  9  1  0
M  END
>  <minimizedAffinity>  (526) 
-16.87476

$$$$
Mol: 132_20 - SminaDock
     RDKit          3D

 42 49  0  0  0  0  0  0  0  0999 V2000
   12.0434    3.0031  -17.9057 H   0  0  0  0  0  0  0  0  0  0  0  0
   11.1429    3.3747  -17.6345 O   0  0  0  0  0  0  0  0  0  0  0  0
   10.5683    3.1352  -16.3831 C   0  0  0  0  0  0  0  0  0  0  0  0
   10.9682    2.2632  -15.5273 N   0  0  0  0  0  0  0  0  0  0  0  0
   10.1516    2.2749  -14.3341 C   0  0  0  0  0  0  0  0  0  0  0  0
    8.8879    2.9903  -14.8415 C   0  0  2  0  0  0  0  0  0  0  0  0
    8.3475    3.8774  -13.8151 C   0  0  0  0  0  0  0  0  0  0  0  0
    9.0883    4.9887  -13.3704 C   0  0  0  0  0  0  0  0  0  0  0  0
    8.5860    5.7607  -12.3642 C   0  0  0  0  0  0  0  0  0  0  0  0
    7.3659    5.5140  -11.7391 C   0  0  0  0  0  0  0  0  0  0  0  0
    6.6449    4.4265  -12.1787 C   0  0  0  0  0  0  0  0  0  0  0  0
    7.1495    3.6256  -13.2132 C   0  0  0  0  0  0  0  0  0  0  0  0
    6.3066    2.5351  -13.6873 C   0  0  0  0  0  0  0  0  0  0  0  0
    5.1193    2.0479  -13.2319 N   0  0  0  0  0  0  0  0  0  0  0  0
    4.7851    0.9882  -13.9884 C   0  0  0  0  0  0  0  0  0  0  0  0
    3.6969    0.1123  -13.9809 C   0  0  0  0  0  0  0  0  0  0  0  0
    3.6412   -0.9033  -14.9111 C   0  0  0  0  0  0  0  0  0  0  0  0
    4.6464   -1.0573  -15.8412 C   0  0  0  0  0  0  0  0  0  0  0  0
    5.7182   -0.1764  -15.8311 C   0  0  0  0  0  0  0  0  0  0  0  0
    5.7935    0.8473  -14.9083 C   0  0  0  0  0  0  0  0  0  0  0  0
    6.7523    1.8209  -14.7221 N   0  0  0  0  0  0  0  0  0  0  0  0
    7.9452    2.0828  -15.4777 C   0  0  0  0  0  0  0  0  0  0  0  0
    9.4490    3.8466  -15.9039 N   0  0  0  0  0  0  0  0  0  0  0  0
    9.0534    4.7517  -16.1779 H   0  0  0  0  0  0  0  0  0  0  0  0
    9.2903    6.9046  -11.8670 N   0  0  0  0  0  0  0  0  0  0  0  0
    9.5996    6.8857  -10.6061 C   0  0  0  0  0  0  0  0  0  0  0  0
   10.2703    7.9333  -10.0499 N   0  0  0  0  0  0  0  0  0  0  0  0
   10.6219    7.9811   -8.7556 C   0  0  0  0  0  0  0  0  0  0  0  0
   11.3013    9.0490   -8.2054 C   0  0  0  0  0  0  0  0  0  0  0  0
   11.6550    9.0762   -6.8614 C   0  0  0  0  0  0  0  0  0  0  0  0
   11.3338    8.0242   -6.0272 C   0  0  0  0  0  0  0  0  0  0  0  0
   10.6544    6.9624   -6.5891 C   0  0  0  0  0  0  0  0  0  0  0  0
   10.3008    6.9301   -7.9222 C   0  0  0  0  0  0  0  0  0  0  0  0
    9.6233    5.8800   -8.5008 C   0  0  0  0  0  0  0  0  0  0  0  0
    9.2831    5.8568   -9.7995 N   0  0  0  0  0  0  0  0  0  0  0  0
    8.7679    5.0605  -10.2437 H   0  0  0  0  0  0  0  0  0  0  0  0
   11.7016    8.0409   -4.6061 C   0  0  0  0  0  0  0  0  0  0  0  0
   11.6757    6.8700   -3.8789 C   0  0  0  0  0  0  0  0  0  0  0  0
   12.0032    6.8095   -2.5590 C   0  0  0  0  0  0  0  0  0  0  0  0
   12.3811    7.9822   -1.9153 C   0  0  0  0  0  0  0  0  0  0  0  0
   12.4196    9.1769   -2.6104 C   0  0  0  0  0  0  0  0  0  0  0  0
   12.0791    9.1925   -3.9490 C   0  0  0  0  0  0  0  0  0  0  0  0
  1  2  1  0
  2  3  1  0
  3  4  2  0
  4  5  1  0
  6  5  1  1
  6  7  1  0
  7  8  2  0
  8  9  1  0
  9 25  1  0
 25 26  2  0
 26 27  1  0
 27 28  2  0
 28 29  1  0
 29 30  2  0
 30 31  1  0
 31 37  1  0
 37 38  2  0
 38 39  1  0
 39 40  2  0
 40 41  1  0
 41 42  2  0
 31 32  2  0
 32 33  1  0
 33 34  2  0
 34 35  1  0
 35 36  1  0
  9 10  2  0
 10 11  1  0
 11 12  2  0
 12 13  1  0
 13 14  2  0
 14 15  1  0
 15 16  2  0
 16 17  1  0
 17 18  2  0
 18 19  1  0
 19 20  2  0
 20 21  1  0
 21 22  1  0
  6 23  1  0
 23 24  1  0
 23  3  1  0
 22  6  1  0
 12  7  1  0
 21 13  1  0
 35 26  1  0
 20 15  1  0
 33 28  1  0
 42 37  1  0
M  END
>  <minimizedAffinity>  (527) 
-16.89092

$$$$
Mol: 131_7 - SminaDock
     RDKit          3D

 43 50  0  0  0  0  0  0  0  0999 V2000
   10.5719    6.1588  -13.6425 N   0  0  0  0  0  0  0  0  0  0  0  0
   10.8463    6.6207  -12.4665 C   0  0  0  0  0  0  0  0  0  0  0  0
   11.8398    7.5708  -12.2871 C   0  0  0  0  0  0  0  0  0  0  0  0
   12.0830    8.0169  -11.0480 N   0  0  0  0  0  0  0  0  0  0  0  0
   11.3791    7.5557   -9.9883 C   0  0  0  0  0  0  0  0  0  0  0  0
   11.6219    8.0098   -8.7096 C   0  0  0  0  0  0  0  0  0  0  0  0
   10.9176    7.5557   -7.6157 C   0  0  0  0  0  0  0  0  0  0  0  0
    9.9361    6.6110   -7.8239 C   0  0  0  0  0  0  0  0  0  0  0  0
    9.6556    6.1287   -9.0658 C   0  0  0  0  0  0  0  0  0  0  0  0
   10.3888    6.6107  -10.1544 C   0  0  0  0  0  0  0  0  0  0  0  0
   10.1599    6.1763  -11.4018 N   0  0  0  0  0  0  0  0  0  0  0  0
    9.4010    5.4523  -11.5174 H   0  0  0  0  0  0  0  0  0  0  0  0
    7.1944   -0.1456  -17.5098 H   0  0  0  0  0  0  0  0  0  0  0  0
    6.9369   -0.8463  -16.8192 O   0  0  0  0  0  0  0  0  0  0  0  0
    5.7761   -0.7838  -16.0633 C   0  0  0  0  0  0  0  0  0  0  0  0
    5.6129    0.2115  -15.1959 C   0  0  0  0  0  0  0  0  0  0  0  0
    6.6296    1.1670  -15.0787 C   0  0  0  0  0  0  0  0  0  0  0  0
    6.5133    2.2095  -14.2047 C   0  0  0  0  0  0  0  0  0  0  0  0
    5.3711    2.3028  -13.4380 C   0  0  0  0  0  0  0  0  0  0  0  0
    4.3610    1.3407  -13.5642 C   0  0  0  0  0  0  0  0  0  0  0  0
    4.4678    0.2868  -14.4410 C   0  0  0  0  0  0  0  0  0  0  0  0
    3.3772   -0.7323  -14.5601 C   0  0  0  0  0  0  0  0  0  0  0  0
    3.4044   -1.4039  -15.9055 C   0  0  0  0  0  0  0  0  0  0  0  0
    4.7682   -1.7931  -16.2280 N   0  0  0  0  0  0  0  0  0  0  0  0
    5.0133   -2.7507  -16.5618 H   0  0  0  0  0  0  0  0  0  0  0  0
    5.2407    3.3012  -12.5908 C   0  0  0  0  0  0  0  0  0  0  0  0
    6.2091    4.3820  -12.3497 C   0  0  0  0  0  0  0  0  0  0  0  0
    7.4212    4.2783  -13.1673 C   0  0  0  0  0  0  0  0  0  0  0  0
    8.3833    5.2571  -13.0000 C   0  0  0  0  0  0  0  0  0  0  0  0
    9.5421    5.1865  -13.7591 C   0  0  0  0  0  0  0  0  0  0  0  0
    9.6917    4.1500  -14.6466 C   0  0  0  0  0  0  0  0  0  0  0  0
    8.7093    3.1663  -14.8051 C   0  0  0  0  0  0  0  0  0  0  0  0
    7.5649    3.2348  -14.0566 C   0  0  0  0  0  0  0  0  0  0  0  0
   11.2206    8.0774   -6.2777 C   0  0  0  0  0  0  0  0  0  0  0  0
   11.1759    9.4456   -6.0333 C   0  0  0  0  0  0  0  0  0  0  0  0
   11.4687    9.8735   -4.7628 C   0  0  0  0  0  0  0  0  0  0  0  0
   11.8017    8.9814   -3.7397 C   0  0  0  0  0  0  0  0  0  0  0  0
   12.0911    9.4329   -2.4750 C   0  0  0  0  0  0  0  0  0  0  0  0
   12.4162    8.5341   -1.4848 C   0  0  0  0  0  0  0  0  0  0  0  0
   12.4610    7.1768   -1.7254 C   0  0  0  0  0  0  0  0  0  0  0  0
   12.1696    6.7302   -2.9955 C   0  0  0  0  0  0  0  0  0  0  0  0
   11.8377    7.6275   -4.0132 C   0  0  0  0  0  0  0  0  0  0  0  0
   11.5473    7.1840   -5.2793 C   0  0  0  0  0  0  0  0  0  0  0  0
 13 14  1  0
 14 15  1  0
 15 16  2  0
 16 17  1  0
 17 18  2  0
 18 19  1  0
 19 20  1  0
 20 21  2  0
 21 22  1  0
 22 23  1  0
 23 24  1  0
 24 25  1  0
 19 26  2  0
 26 27  1  0
 27 28  1  0
 28 29  2  0
 29 30  1  0
 30  1  1  0
  1  2  2  0
  2  3  1  0
  3  4  2  0
  4  5  1  0
  5  6  2  0
  6  7  1  0
  7 34  1  0
 34 35  2  0
 35 36  1  0
 36 37  2  0
 37 38  1  0
 38 39  2  0
 39 40  1  0
 40 41  2  0
 41 42  1  0
 42 43  2  0
  7  8  2  0
  8  9  1  0
  9 10  2  0
 10 11  1  0
 11 12  1  0
 30 31  2  0
 31 32  1  0
 32 33  2  0
 24 15  1  0
 33 28  1  0
 21 16  1  0
 11  2  1  0
 33 18  1  0
 10  5  1  0
 43 34  1  0
 42 37  1  0
M  END
>  <minimizedAffinity>  (528) 
-16.93638

$$$$
Mol: 131_30 - SminaDock
     RDKit          3D

 41 48  0  0  0  0  0  0  0  0999 V2000
    8.6799    5.7249  -12.4952 C   0  0  0  0  0  0  0  0  0  0  0  0
    7.6535    5.1861  -11.7595 C   0  0  0  0  0  0  0  0  0  0  0  0
    6.9547    4.0569  -12.2112 C   0  0  0  0  0  0  0  0  0  0  0  0
    7.3405    3.5156  -13.4172 C   0  0  0  0  0  0  0  0  0  0  0  0
    8.3665    4.0361  -14.1650 C   0  0  0  0  0  0  0  0  0  0  0  0
    9.0342    5.1409  -13.7061 C   0  0  0  0  0  0  0  0  0  0  0  0
    8.7863    3.2937  -15.3714 C   0  0  2  0  0  0  0  0  0  0  0  0
    7.6319    2.7644  -16.0764 C   0  0  0  0  0  0  0  0  0  0  0  0
    6.7383    1.9700  -15.2246 C   0  0  0  0  0  0  0  0  0  0  0  0
    6.0731    0.8548  -15.7567 C   0  0  0  0  0  0  0  0  0  0  0  0
    5.1486    0.2272  -14.9655 C   0  0  0  0  0  0  0  0  0  0  0  0
    4.8913    0.6850  -13.6943 C   0  0  0  0  0  0  0  0  0  0  0  0
    5.5519    1.7804  -13.1786 C   0  0  0  0  0  0  0  0  0  0  0  0
    6.4808    2.4220  -13.9491 C   0  0  0  0  0  0  0  0  0  0  0  0
    9.7439    2.2301  -14.8456 C   0  0  0  0  0  0  0  0  0  0  0  0
   10.0989    1.3474  -15.9780 C   0  0  0  0  0  0  0  0  0  0  0  0
   10.2841   -0.0277  -15.7801 C   0  0  0  0  0  0  0  0  0  0  0  0
   10.6179   -0.8602  -16.8276 C   0  0  0  0  0  0  0  0  0  0  0  0
   10.7682   -0.3144  -18.0853 C   0  0  0  0  0  0  0  0  0  0  0  0
   10.5835    1.0351  -18.2648 C   0  0  0  0  0  0  0  0  0  0  0  0
   10.2442    1.9076  -17.2222 C   0  0  0  0  0  0  0  0  0  0  0  0
   10.0546    3.3475  -17.4722 C   0  0  0  0  0  0  0  0  0  0  0  0
    9.6202    4.1471  -16.3056 C   0  0  0  0  0  0  0  0  0  0  0  0
   11.3103    7.9888   -6.1773 C   0  0  0  0  0  0  0  0  0  0  0  0
   11.6384    9.0517   -7.0075 C   0  0  0  0  0  0  0  0  0  0  0  0
   11.3133    9.0388   -8.3424 C   0  0  0  0  0  0  0  0  0  0  0  0
   10.6406    7.9580   -8.9195 C   0  0  0  0  0  0  0  0  0  0  0  0
   10.3321    7.9700  -10.2351 N   0  0  0  0  0  0  0  0  0  0  0  0
    9.6796    6.8987  -10.7450 C   0  0  0  0  0  0  0  0  0  0  0  0
    9.3630    6.8691  -12.0083 N   0  0  0  0  0  0  0  0  0  0  0  0
    9.3600    5.8681   -9.9465 N   0  0  0  0  0  0  0  0  0  0  0  0
    8.8565    5.0481  -10.3542 H   0  0  0  0  0  0  0  0  0  0  0  0
    9.6429    5.8088   -8.6400 C   0  0  0  0  0  0  0  0  0  0  0  0
   10.3180    6.9093   -8.0962 C   0  0  0  0  0  0  0  0  0  0  0  0
   10.6477    6.9302   -6.7580 C   0  0  0  0  0  0  0  0  0  0  0  0
   12.2703    7.9681   -2.0249 C   0  0  0  0  0  0  0  0  0  0  0  0
   12.2546    9.1315   -2.7652 C   0  0  0  0  0  0  0  0  0  0  0  0
   11.9437    9.1397   -4.1111 C   0  0  0  0  0  0  0  0  0  0  0  0
   11.6330    7.9635   -4.7705 C   0  0  0  0  0  0  0  0  0  0  0  0
   11.6487    6.7991   -4.0296 C   0  0  0  0  0  0  0  0  0  0  0  0
   11.9610    6.7940   -2.6793 C   0  0  0  0  0  0  0  0  0  0  0  0
 36 37  2  0
 37 38  1  0
 38 39  2  0
 39 24  1  0
 24 25  1  0
 25 26  2  0
 26 27  1  0
 27 28  2  0
 28 29  1  0
 29 30  2  0
 30  1  1  0
  1  2  2  0
  2  3  1  0
  3  4  2  0
  4  5  1  0
  5  6  2  0
  5  7  1  0
  7  8  1  6
  8  9  1  0
  9 10  2  0
 10 11  1  0
 11 12  2  0
 12 13  1  0
 13 14  2  0
  7 15  1  0
 15 16  1  0
 16 17  2  0
 17 18  1  0
 18 19  2  0
 19 20  1  0
 20 21  2  0
 21 22  1  0
 22 23  1  0
 29 31  1  0
 31 32  1  0
 31 33  1  0
 33 34  2  0
 34 35  1  0
 39 40  1  0
 40 41  2  0
 41 36  1  0
 35 24  2  0
 34 27  1  0
  6  1  1  0
 23  7  1  0
 14  4  1  0
 21 16  1  0
 14  9  1  0
M  END
>  <minimizedAffinity>  (529) 
-16.92729

$$$$
Mol: 166_21 - SminaDock
     RDKit          3D

 44 51  0  0  0  0  0  0  0  0999 V2000
    8.7634    5.9238  -12.4500 C   0  0  0  0  0  0  0  0  0  0  0  0
    9.4753    5.3441  -13.4750 C   0  0  0  0  0  0  0  0  0  0  0  0
    8.9929    4.2191  -14.1045 C   0  0  0  0  0  0  0  0  0  0  0  0
    7.8026    3.6848  -13.7024 C   0  0  0  0  0  0  0  0  0  0  0  0
    7.0553    4.2344  -12.6779 C   0  0  0  0  0  0  0  0  0  0  0  0
    7.5662    5.3674  -12.0621 C   0  0  0  0  0  0  0  0  0  0  0  0
    5.7841    3.7298  -12.1920 C   0  0  0  0  0  0  0  0  0  0  0  0
    5.2546    2.5228  -12.8497 C   0  0  0  0  0  0  0  0  0  0  0  0
    6.0932    1.9786  -13.9390 C   0  0  0  0  0  0  0  0  0  0  0  0
    7.2850    2.4936  -14.3616 C   0  0  0  0  0  0  0  0  0  0  0  0
    7.9611    1.8626  -15.4072 C   0  0  0  0  0  0  0  0  0  0  0  0
    7.4754    0.7332  -16.0374 C   0  0  0  0  0  0  0  0  0  0  0  0
    6.2576    0.2130  -15.6002 C   0  0  0  0  0  0  0  0  0  0  0  0
    5.5976    0.8402  -14.5698 C   0  0  0  0  0  0  0  0  0  0  0  0
    4.4358    0.0963  -14.3692 C   0  0  0  0  0  0  0  0  0  0  0  0
    4.4620   -0.9263  -15.2809 C   0  0  0  0  0  0  0  0  0  0  0  0
    5.5848   -0.8670  -16.0507 N   0  0  0  0  0  0  0  0  0  0  0  0
   11.2613    8.0917   -5.9881 C   0  0  0  0  0  0  0  0  0  0  0  0
   11.4116    9.2334   -6.7477 C   0  0  0  0  0  0  0  0  0  0  0  0
   11.0371    9.2306   -8.0807 C   0  0  0  0  0  0  0  0  0  0  0  0
   10.5088    8.1164   -8.7006 C   0  0  0  0  0  0  0  0  0  0  0  0
   10.1406    8.0988   -9.9970 N   0  0  0  0  0  0  0  0  0  0  0  0
    9.6231    6.9908  -10.5878 C   0  0  0  0  0  0  0  0  0  0  0  0
    9.3031    7.0800  -11.8337 N   0  0  0  0  0  0  0  0  0  0  0  0
    9.4703    5.8684   -9.8590 N   0  0  0  0  0  0  0  0  0  0  0  0
    9.0715    5.0132  -10.3121 H   0  0  0  0  0  0  0  0  0  0  0  0
    9.8313    5.8628   -8.5619 C   0  0  0  0  0  0  0  0  0  0  0  0
   10.3592    6.9724   -7.9358 C   0  0  0  0  0  0  0  0  0  0  0  0
   10.7337    6.9794   -6.6077 C   0  0  0  0  0  0  0  0  0  0  0  0
   12.3858    7.9508   -1.8554 C   0  0  0  0  0  0  0  0  0  0  0  0
   12.3501    9.1408   -2.5628 C   0  0  0  0  0  0  0  0  0  0  0  0
   11.9923    9.2144   -3.8916 C   0  0  0  0  0  0  0  0  0  0  0  0
   11.6496    8.0603   -4.5685 C   0  0  0  0  0  0  0  0  0  0  0  0
   11.6843    6.8726   -3.8654 C   0  0  0  0  0  0  0  0  0  0  0  0
   12.0452    6.8058   -2.5290 C   0  0  0  0  0  0  0  0  0  0  0  0
    5.9362   -1.7435  -17.0743 N   0  0  1  0  0  0  0  0  0  0  0  0
    6.9866   -1.9272  -16.9281 H   0  0  0  0  0  0  0  0  0  0  0  0
    5.3632   -3.0656  -16.9481 C   0  0  0  0  0  0  0  0  0  0  0  0
    6.0010   -3.9155  -18.0295 C   0  0  0  0  0  0  0  0  0  0  0  0
    7.1155   -3.2938  -18.6778 N   0  0  2  0  0  0  0  0  0  0  0  0
    7.3649   -3.9218  -19.5002 H   0  0  0  0  0  0  0  0  0  0  0  0
    7.9854   -3.2574  -18.1056 H   0  0  0  0  0  0  0  0  0  0  0  0
    6.8435   -1.9999  -19.2464 C   0  0  0  0  0  0  0  0  0  0  0  0
    5.8668   -1.2032  -18.3971 C   0  0  0  0  0  0  0  0  0  0  0  0
 30 31  2  0
 31 32  1  0
 32 33  2  0
 33 18  1  0
 18 19  1  0
 19 20  2  0
 20 21  1  0
 21 22  2  0
 22 23  1  0
 23 24  2  0
 24  1  1  0
  1  2  2  0
  2  3  1  0
  3  4  2  0
  4  5  1  0
  5  6  2  0
  5  7  1  0
  7  8  1  0
  8  9  1  0
  9 10  2  0
 10 11  1  0
 11 12  2  0
 12 13  1  0
 13 14  2  0
 14 15  1  0
 15 16  2  0
 16 17  1  0
 17 36  1  0
 36 37  1  1
 36 38  1  0
 38 39  1  0
 39 40  1  0
 40 41  1  6
 40 42  1  0
 40 43  1  0
 43 44  1  0
 23 25  1  0
 25 26  1  0
 25 27  1  0
 27 28  2  0
 28 29  1  0
 33 34  1  0
 34 35  2  0
 35 30  1  0
 29 18  2  0
 28 21  1  0
  6  1  1  0
 14  9  1  0
 44 36  1  0
 10  4  1  0
 17 13  1  0
M  CHG  2  36   1  40   1
M  END
>  <minimizedAffinity>  (530) 
-16.87243

$$$$
Mol: 183_48 - SminaDock
     RDKit          3D

 37 43  0  0  0  0  0  0  0  0999 V2000
    8.7174    5.8441  -12.2523 C   0  0  0  0  0  0  0  0  0  0  0  0
    9.4671    5.1756  -13.2093 C   0  0  0  0  0  0  0  0  0  0  0  0
    8.9256    4.0607  -13.8072 C   0  0  0  0  0  0  0  0  0  0  0  0
    7.6444    3.6451  -13.4287 C   0  0  0  0  0  0  0  0  0  0  0  0
    6.9064    4.2945  -12.4935 C   0  0  0  0  0  0  0  0  0  0  0  0
    7.4557    5.4252  -11.8873 C   0  0  0  0  0  0  0  0  0  0  0  0
    5.5974    3.6210  -12.3077 C   0  0  0  0  0  0  0  0  0  0  0  0
    5.6574    2.4815  -13.2604 C   0  0  0  0  0  0  0  0  0  0  0  0
    4.7358    1.5006  -13.5383 C   0  0  0  0  0  0  0  0  0  0  0  0
    5.0532    0.5211  -14.5053 C   0  0  0  0  0  0  0  0  0  0  0  0
    6.2552    0.5502  -15.1516 C   0  0  0  0  0  0  0  0  0  0  0  0
    7.1776    1.5456  -14.8625 C   0  0  0  0  0  0  0  0  0  0  0  0
    6.8653    2.5051  -13.9144 C   0  0  0  0  0  0  0  0  0  0  0  0
    6.5651   -0.4730  -16.1504 C   0  0  0  0  0  0  0  0  0  0  0  0
    7.6804   -0.4369  -16.7426 O   0  0  0  0  0  0  0  0  0  0  0  0
    5.5937   -1.5164  -16.4514 C   0  0  0  0  0  0  0  0  0  0  0  0
    5.8144   -2.4158  -17.3004 O   0  0  0  0  0  0  0  0  0  0  0  0
    4.4058   -1.4575  -15.7419 O   0  0  0  0  0  0  0  0  0  0  0  0
    4.0453   -0.5282  -14.7898 C   0  0  0  0  0  0  0  0  0  0  0  0
   11.3195    8.0022   -5.8418 C   0  0  0  0  0  0  0  0  0  0  0  0
   11.5267    9.1153   -6.6157 C   0  0  0  0  0  0  0  0  0  0  0  0
   11.1645    9.1376   -7.9488 C   0  0  0  0  0  0  0  0  0  0  0  0
   10.5795    8.0169   -8.5229 C   0  0  0  0  0  0  0  0  0  0  0  0
   10.3725    6.9000   -7.7430 C   0  0  0  0  0  0  0  0  0  0  0  0
    9.7899    5.8045   -8.3430 C   0  0  0  0  0  0  0  0  0  0  0  0
    9.4601    5.8848   -9.6385 N   0  0  0  0  0  0  0  0  0  0  0  0
    9.6606    6.9707  -10.3994 C   0  0  0  0  0  0  0  0  0  0  0  0
    9.3155    6.9878  -11.6629 N   0  0  0  0  0  0  0  0  0  0  0  0
   10.2273    8.0454   -9.8281 N   0  0  0  0  0  0  0  0  0  0  0  0
   10.4037    8.9181  -10.3844 H   0  0  0  0  0  0  0  0  0  0  0  0
   10.7426    6.8959   -6.4065 C   0  0  0  0  0  0  0  0  0  0  0  0
   12.4826    8.0609   -1.7482 C   0  0  0  0  0  0  0  0  0  0  0  0
   12.4365    9.2302   -2.4909 C   0  0  0  0  0  0  0  0  0  0  0  0
   12.0638    9.2156   -3.8051 C   0  0  0  0  0  0  0  0  0  0  0  0
   11.7158    8.0257   -4.4490 C   0  0  0  0  0  0  0  0  0  0  0  0
   11.7591    6.8542   -3.7146 C   0  0  0  0  0  0  0  0  0  0  0  0
   12.1408    6.8850   -2.3770 C   0  0  0  0  0  0  0  0  0  0  0  0
 32 33  2  0
 33 34  1  0
 34 35  2  0
 35 20  1  0
 20 21  2  0
 21 22  1  0
 22 23  2  0
 23 24  1  0
 24 25  1  0
 25 26  2  0
 26 27  1  0
 27 28  2  0
 28  1  1  0
  1  2  2  0
  2  3  1  0
  3  4  2  0
  4  5  1  0
  5  6  2  0
  5  7  1  0
  7  8  1  0
  8  9  2  0
  9 10  1  0
 10 11  2  0
 11 12  1  0
 12 13  2  0
 11 14  1  0
 14 15  2  0
 14 16  1  0
 16 17  2  0
 16 18  1  0
 18 19  1  0
 27 29  1  0
 29 30  1  0
 24 31  2  0
 35 36  1  0
 36 37  2  0
 37 32  1  0
 31 20  1  0
 29 23  1  0
  6  1  1  0
 13  8  1  0
 13  4  1  0
 19 10  1  0
M  END
>  <minimizedAffinity>  (531) 
-16.94961

$$$$
Mol: 129_13 - SminaDock
     RDKit          3D

 43 49  0  0  0  0  0  0  0  0999 V2000
    9.9235   -1.1240  -16.1275 H   0  0  0  0  0  0  0  0  0  0  0  0
   10.2728   -0.4765  -15.4188 O   0  0  0  0  0  0  0  0  0  0  0  0
    9.9268    0.8828  -15.4637 C   0  0  0  0  0  0  0  0  0  0  0  0
   10.1987    1.7723  -16.4114 C   0  0  0  0  0  0  0  0  0  0  0  0
    9.5992    3.1053  -15.9739 C   0  0  0  0  0  0  0  0  0  0  0  0
    8.4451    2.5542  -15.1572 C   0  0  1  0  0  0  0  0  0  0  0  0
    9.2062    1.5115  -14.4518 O   0  0  0  0  0  0  0  0  0  0  0  0
    7.9214    3.4045  -14.1182 C   0  0  0  0  0  0  0  0  0  0  0  0
    8.6263    4.5464  -13.6744 C   0  0  0  0  0  0  0  0  0  0  0  0
    8.1525    5.2581  -12.5940 C   0  0  0  0  0  0  0  0  0  0  0  0
    7.0026    4.8633  -11.9502 C   0  0  0  0  0  0  0  0  0  0  0  0
    6.3108    3.7508  -12.3829 C   0  0  0  0  0  0  0  0  0  0  0  0
    6.7667    3.0306  -13.4593 C   0  0  0  0  0  0  0  0  0  0  0  0
    5.9599    1.9291  -14.0319 C   0  0  0  0  0  0  0  0  0  0  0  0
    4.8606    1.4944  -13.3294 C   0  0  0  0  0  0  0  0  0  0  0  0
    4.1225    0.4222  -13.7881 C   0  0  0  0  0  0  0  0  0  0  0  0
    4.5131   -0.1849  -14.9469 C   0  0  0  0  0  0  0  0  0  0  0  0
    5.6055    0.2005  -15.7040 C   0  0  0  0  0  0  0  0  0  0  0  0
    6.3418    1.2900  -15.2222 C   0  0  0  0  0  0  0  0  0  0  0  0
    7.4747    1.8205  -15.9875 C   0  0  0  0  0  0  0  0  0  0  0  0
    8.8989    6.3925  -12.1932 N   0  0  0  0  0  0  0  0  0  0  0  0
    9.2784    6.4713  -10.9647 C   0  0  0  0  0  0  0  0  0  0  0  0
   10.0003    7.5514  -10.5419 N   0  0  0  0  0  0  0  0  0  0  0  0
   10.3767    7.5945   -9.2530 C   0  0  0  0  0  0  0  0  0  0  0  0
   11.1178    8.6757   -8.7646 C   0  0  0  0  0  0  0  0  0  0  0  0
   11.5155    8.7412   -7.4461 C   0  0  0  0  0  0  0  0  0  0  0  0
   11.2003    7.7430   -6.5487 C   0  0  0  0  0  0  0  0  0  0  0  0
   10.4709    6.6724   -7.0153 C   0  0  0  0  0  0  0  0  0  0  0  0
   10.0697    6.6051   -8.3430 C   0  0  0  0  0  0  0  0  0  0  0  0
    9.3327    5.5144   -8.7993 C   0  0  0  0  0  0  0  0  0  0  0  0
    8.9733    5.4982  -10.0813 N   0  0  0  0  0  0  0  0  0  0  0  0
    8.4123    4.6557  -10.4029 H   0  0  0  0  0  0  0  0  0  0  0  0
   11.6426    7.8566   -5.1681 C   0  0  0  0  0  0  0  0  0  0  0  0
   12.3616    8.9573   -4.7180 C   0  0  0  0  0  0  0  0  0  0  0  0
   12.7580    9.0228   -3.4107 C   0  0  0  0  0  0  0  0  0  0  0  0
   12.4677    8.0279   -2.5146 C   0  0  0  0  0  0  0  0  0  0  0  0
   11.7522    6.9271   -2.9520 C   0  0  0  0  0  0  0  0  0  0  0  0
   11.3588    6.8718   -4.2683 C   0  0  0  0  0  0  0  0  0  0  0  0
    5.9381   -0.4881  -16.9310 C   0  0  0  0  0  0  0  0  0  0  0  0
    6.8236   -1.3236  -17.1250 O   0  0  0  0  0  0  0  0  0  0  0  0
    5.1242   -0.1546  -18.0890 N   0  0  0  0  0  0  0  0  0  0  0  0
    4.5561   -0.8824  -18.5600 H   0  0  0  0  0  0  0  0  0  0  0  0
    5.1327    0.8254  -18.4226 H   0  0  0  0  0  0  0  0  0  0  0  0
  1  2  1  0
  2  3  1  0
  3  4  2  0
  4  5  1  0
  6  5  1  6
  6  7  1  0
  6  8  1  0
  8  9  2  0
  9 10  1  0
 10 21  1  0
 21 22  2  0
 22 23  1  0
 23 24  2  0
 24 25  1  0
 25 26  2  0
 26 27  1  0
 27 33  1  0
 33 34  2  0
 34 35  1  0
 35 36  2  0
 36 37  1  0
 37 38  2  0
 27 28  2  0
 28 29  1  0
 29 30  2  0
 30 31  1  0
 31 32  1  0
 10 11  2  0
 11 12  1  0
 12 13  2  0
 13 14  1  0
 14 15  2  0
 15 16  1  0
 16 17  2  0
 17 18  1  0
 18 39  1  0
 39 40  2  0
 39 41  1  0
 41 42  1  0
 41 43  1  0
 18 19  2  0
 19 20  1  0
  7  3  1  0
 13  8  1  0
 19 14  1  0
 20  6  1  0
 31 22  1  0
 29 24  1  0
 38 33  1  0
M  END
>  <minimizedAffinity>  (532) 
-16.85389

$$$$
Mol: 188_47 - SminaDock
     RDKit          3D

 41 48  0  0  0  0  0  0  0  0999 V2000
    3.3979   -2.2883  -16.4570 H   0  0  0  0  0  0  0  0  0  0  0  0
    4.3116   -1.9114  -16.6370 O   0  0  0  0  0  0  0  0  0  0  0  0
    4.8022   -0.8049  -15.9159 C   0  0  0  0  0  0  0  0  0  0  0  0
    4.3199   -0.3704  -14.8114 N   0  0  0  0  0  0  0  0  0  0  0  0
    5.0728    0.7749  -14.3633 C   0  0  0  0  0  0  0  0  0  0  0  0
    4.9222    1.5721  -13.2310 C   0  0  0  0  0  0  0  0  0  0  0  0
    5.8056    2.6374  -13.0375 C   0  0  0  0  0  0  0  0  0  0  0  0
    6.7910    2.8603  -13.9708 C   0  0  0  0  0  0  0  0  0  0  0  0
    6.9353    2.0819  -15.0731 C   0  0  0  0  0  0  0  0  0  0  0  0
    6.0667    1.0242  -15.2757 C   0  0  0  0  0  0  0  0  0  0  0  0
    5.9407   -0.0014  -16.3442 C   0  0  1  0  0  0  0  0  0  0  0  0
    7.2405   -0.7760  -16.3707 C   0  0  0  0  0  0  0  0  0  0  0  0
    7.9023   -0.5438  -17.7121 C   0  0  0  0  0  0  0  0  0  0  0  0
    6.9688   -1.0933  -18.7719 C   0  0  0  0  0  0  0  0  0  0  0  0
    5.7844   -0.1522  -18.8392 C   0  0  0  0  0  0  0  0  0  0  0  0
    5.6972    0.7403  -17.6373 C   0  0  0  0  0  0  0  0  0  0  0  0
    7.6130    4.0280  -13.5811 C   0  0  0  0  0  0  0  0  0  0  0  0
    8.6996    4.6280  -14.1895 C   0  0  0  0  0  0  0  0  0  0  0  0
    9.2757    5.7311  -13.5781 C   0  0  0  0  0  0  0  0  0  0  0  0
    8.7646    6.2022  -12.3957 C   0  0  0  0  0  0  0  0  0  0  0  0
    7.6901    5.5871  -11.8202 C   0  0  0  0  0  0  0  0  0  0  0  0
    7.0783    4.4787  -12.3945 C   0  0  0  0  0  0  0  0  0  0  0  0
    5.9297    3.6491  -11.9839 C   0  0  0  0  0  0  0  0  0  0  0  0
    9.3666    7.3281  -11.7900 N   0  0  0  0  0  0  0  0  0  0  0  0
    9.6946    7.2510  -10.5459 C   0  0  0  0  0  0  0  0  0  0  0  0
    9.4737    6.1321   -9.8336 N   0  0  0  0  0  0  0  0  0  0  0  0
    9.8079    6.0324   -8.5361 C   0  0  0  0  0  0  0  0  0  0  0  0
   10.3985    7.0841   -7.8699 C   0  0  0  0  0  0  0  0  0  0  0  0
   10.7548    7.0175   -6.5377 C   0  0  0  0  0  0  0  0  0  0  0  0
   11.3454    8.0777   -5.8818 C   0  0  0  0  0  0  0  0  0  0  0  0
   11.5683    9.2214   -6.6204 C   0  0  0  0  0  0  0  0  0  0  0  0
   11.2139    9.2928   -7.9516 C   0  0  0  0  0  0  0  0  0  0  0  0
   10.6206    8.2271   -8.6091 C   0  0  0  0  0  0  0  0  0  0  0  0
   10.2791    8.3070   -9.9068 N   0  0  0  0  0  0  0  0  0  0  0  0
   10.4478    9.1728  -10.4659 H   0  0  0  0  0  0  0  0  0  0  0  0
   11.7205    7.9986   -4.4682 C   0  0  0  0  0  0  0  0  0  0  0  0
   12.0868    9.1245   -3.7596 C   0  0  0  0  0  0  0  0  0  0  0  0
   12.4420    9.0335   -2.4124 C   0  0  0  0  0  0  0  0  0  0  0  0
   12.4396    7.8296   -1.7500 C   0  0  0  0  0  0  0  0  0  0  0  0
   12.0747    6.6961   -2.4496 C   0  0  0  0  0  0  0  0  0  0  0  0
   11.7247    6.7986   -3.7838 C   0  0  0  0  0  0  0  0  0  0  0  0
  1  2  1  0
  2  3  1  0
  3  4  2  0
  4  5  1  0
  5  6  2  0
  6  7  1  0
  7  8  2  0
  8  9  1  0
  9 10  2  0
 10 11  1  0
 11 12  1  6
 12 13  1  0
 13 14  1  0
 14 15  1  0
 15 16  1  0
  8 17  1  0
 17 18  2  0
 18 19  1  0
 19 20  2  0
 20 24  1  0
 24 25  2  0
 25 26  1  0
 26 27  2  0
 27 28  1  0
 28 29  2  0
 29 30  1  0
 30 36  1  0
 36 37  2  0
 37 38  1  0
 38 39  2  0
 39 40  1  0
 40 41  2  0
 30 31  2  0
 31 32  1  0
 32 33  2  0
 33 34  1  0
 34 35  1  0
 20 21  1  0
 21 22  2  0
 22 23  1  0
 11  3  1  0
 22 17  1  0
 10  5  1  0
 16 11  1  0
 34 25  1  0
 23  7  1  0
 33 28  1  0
 41 36  1  0
M  END
>  <minimizedAffinity>  (533) 
-16.85450

$$$$
Mol: 188_50 - SminaDock
     RDKit          3D

 42 49  0  0  0  0  0  0  0  0999 V2000
    4.7534   -1.4805  -14.9252 C   0  0  0  0  0  0  0  0  0  0  0  0
    3.9481   -0.5398  -14.4180 N   0  0  0  0  0  0  0  0  0  0  0  0
    4.3473    0.6904  -14.0598 C   0  0  0  0  0  0  0  0  0  0  0  0
    5.6770    0.9938  -14.2301 C   0  0  0  0  0  0  0  0  0  0  0  0
    6.3813    2.1738  -13.9520 C   0  0  0  0  0  0  0  0  0  0  0  0
    7.6777    1.9456  -14.3131 C   0  0  0  0  0  0  0  0  0  0  0  0
    7.7360    0.6631  -14.7829 N   0  0  0  0  0  0  0  0  0  0  0  0
    8.5837    0.1747  -15.1106 H   0  0  0  0  0  0  0  0  0  0  0  0
    6.5375    0.0654  -14.7447 C   0  0  0  0  0  0  0  0  0  0  0  0
    6.0839   -1.1915  -15.1010 C   0  0  0  0  0  0  0  0  0  0  0  0
    8.7139    2.9873  -14.2261 C   0  0  2  0  0  0  0  0  0  0  0  0
    8.3215    4.1226  -13.3834 C   0  0  0  0  0  0  0  0  0  0  0  0
    9.3359    5.0404  -13.0212 C   0  0  0  0  0  0  0  0  0  0  0  0
    9.0243    6.1654  -12.3129 C   0  0  0  0  0  0  0  0  0  0  0  0
    7.7219    6.4163  -11.9450 C   0  0  0  0  0  0  0  0  0  0  0  0
    6.7457    5.5204  -12.2988 C   0  0  0  0  0  0  0  0  0  0  0  0
    7.0385    4.3512  -13.0280 C   0  0  0  0  0  0  0  0  0  0  0  0
    5.9488    3.3988  -13.2825 C   0  0  0  0  0  0  0  0  0  0  0  0
    4.7610    3.6184  -12.9553 O   0  0  0  0  0  0  0  0  0  0  0  0
    8.8751    3.5902  -15.6321 C   0  0  0  0  0  0  0  0  0  0  0  0
    9.2850    2.5658  -16.6249 C   0  0  0  0  0  0  0  0  0  0  0  0
   10.6126    1.9722  -16.2718 C   0  0  0  0  0  0  0  0  0  0  0  0
   11.0777    2.5936  -14.9735 C   0  0  0  0  0  0  0  0  0  0  0  0
   10.0595    2.4187  -13.8761 C   0  0  0  0  0  0  0  0  0  0  0  0
   10.0886    7.0649  -11.9731 N   0  0  0  0  0  0  0  0  0  0  0  0
   10.4502    7.3143  -10.7782 C   0  0  0  0  0  0  0  0  0  0  0  0
   11.4529    8.1690  -10.5974 N   0  0  0  0  0  0  0  0  0  0  0  0
   11.8812    8.4749   -9.3719 C   0  0  0  0  0  0  0  0  0  0  0  0
   11.2824    7.9020   -8.2717 C   0  0  0  0  0  0  0  0  0  0  0  0
   11.7159    8.2098   -6.9982 C   0  0  0  0  0  0  0  0  0  0  0  0
   11.1042    7.6259   -5.8961 C   0  0  0  0  0  0  0  0  0  0  0  0
   10.0767    6.7517   -6.1188 C   0  0  0  0  0  0  0  0  0  0  0  0
    9.6293    6.4315   -7.3862 C   0  0  0  0  0  0  0  0  0  0  0  0
   10.2481    7.0218   -8.4891 C   0  0  0  0  0  0  0  0  0  0  0  0
    9.8503    6.7431   -9.7346 N   0  0  0  0  0  0  0  0  0  0  0  0
    9.0527    6.0613   -9.8393 H   0  0  0  0  0  0  0  0  0  0  0  0
   11.5511    7.9421   -4.5499 C   0  0  0  0  0  0  0  0  0  0  0  0
   11.8376    6.9150   -3.6682 C   0  0  0  0  0  0  0  0  0  0  0  0
   12.2625    7.1464   -2.3878 C   0  0  0  0  0  0  0  0  0  0  0  0
   12.4022    8.4562   -1.9860 C   0  0  0  0  0  0  0  0  0  0  0  0
   12.1213    9.4843   -2.8503 C   0  0  0  0  0  0  0  0  0  0  0  0
   11.6919    9.2430   -4.1444 C   0  0  0  0  0  0  0  0  0  0  0  0
  1  2  2  0
  2  3  1  0
  3  4  2  0
  4  5  1  0
  5  6  2  0
  6  7  1  0
  7  8  1  0
  7  9  1  0
  9 10  2  0
  6 11  1  0
 11 12  1  0
 12 13  2  0
 13 14  1  0
 14 25  1  0
 25 26  2  0
 26 27  1  0
 27 28  2  0
 28 29  1  0
 29 30  2  0
 30 31  1  0
 31 37  1  0
 37 38  2  0
 38 39  1  0
 39 40  2  0
 40 41  1  0
 41 42  2  0
 31 32  2  0
 32 33  1  0
 33 34  2  0
 34 35  1  0
 35 36  1  0
 14 15  2  0
 15 16  1  0
 16 17  2  0
 17 18  1  0
 18 19  2  0
 11 20  1  6
 20 21  1  0
 21 22  1  0
 22 23  1  0
 23 24  1  0
 10  1  1  0
 24 11  1  0
  9  4  1  0
 17 12  1  0
 18  5  1  0
 35 26  1  0
 34 29  1  0
 42 37  1  0
M  END
>  <minimizedAffinity>  (534) 
-16.91199

$$$$
Mol: 140_46 - SminaDock
     RDKit          3D

 37 43  0  0  0  0  0  0  0  0999 V2000
    8.2568    5.0119  -13.1643 N   0  0  0  0  0  0  0  0  0  0  0  0
    8.6911    5.3935  -12.0184 C   0  0  0  0  0  0  0  0  0  0  0  0
    8.2296    4.8194  -10.8967 N   0  0  0  0  0  0  0  0  0  0  0  0
    8.6408    5.1716   -9.6678 C   0  0  0  0  0  0  0  0  0  0  0  0
    9.5833    6.1711   -9.5385 C   0  0  0  0  0  0  0  0  0  0  0  0
   10.0365    6.5665   -8.2765 C   0  0  0  0  0  0  0  0  0  0  0  0
   10.9778    7.5648   -8.1369 C   0  0  0  0  0  0  0  0  0  0  0  0
   11.4514    8.1540   -9.2909 C   0  0  0  0  0  0  0  0  0  0  0  0
   11.0143    7.7752  -10.5460 C   0  0  0  0  0  0  0  0  0  0  0  0
   10.0733    6.7768  -10.6763 C   0  0  0  0  0  0  0  0  0  0  0  0
    9.6089    6.3652  -11.8693 N   0  0  0  0  0  0  0  0  0  0  0  0
    9.9805    6.8250  -12.7374 H   0  0  0  0  0  0  0  0  0  0  0  0
    4.4881   -3.5649  -16.0531 H   0  0  0  0  0  0  0  0  0  0  0  0
    5.3730   -3.1246  -16.3481 O   0  0  0  0  0  0  0  0  0  0  0  0
    5.7267   -1.8588  -15.8652 C   0  0  0  0  0  0  0  0  0  0  0  0
    5.3102   -1.4927  -14.6903 N   0  0  0  0  0  0  0  0  0  0  0  0
    5.6101   -0.2535  -14.1105 C   0  0  1  0  0  0  0  0  0  0  0  0
    6.4495    0.6540  -14.9895 C   0  0  0  0  0  0  0  0  0  0  0  0
    6.8732    0.3271  -16.1428 N   0  0  0  0  0  0  0  0  0  0  0  0
    6.5210   -0.9610  -16.6232 N   0  0  0  0  0  0  0  0  0  0  0  0
    6.5231    1.8966  -14.1866 C   0  0  0  0  0  0  0  0  0  0  0  0
    7.4650    2.8948  -14.0941 C   0  0  0  0  0  0  0  0  0  0  0  0
    7.2849    3.9800  -13.2601 C   0  0  0  0  0  0  0  0  0  0  0  0
    6.1126    4.0048  -12.5296 C   0  0  0  0  0  0  0  0  0  0  0  0
    5.1465    2.9955  -12.6148 C   0  0  0  0  0  0  0  0  0  0  0  0
    5.3378    1.9381  -13.4369 C   0  0  0  0  0  0  0  0  0  0  0  0
    4.5174    0.6970  -13.7578 C   0  0  0  0  0  0  0  0  0  0  0  0
   11.4545    7.9826   -6.8169 C   0  0  0  0  0  0  0  0  0  0  0  0
   12.1230    9.1736   -6.6269 C   0  0  0  0  0  0  0  0  0  0  0  0
   12.5571    9.5339   -5.3648 C   0  0  0  0  0  0  0  0  0  0  0  0
   12.3259    8.7097   -4.2933 C   0  0  0  0  0  0  0  0  0  0  0  0
   12.7439    9.0401   -3.0315 C   0  0  0  0  0  0  0  0  0  0  0  0
   12.5232    8.2271   -1.9347 C   0  0  0  0  0  0  0  0  0  0  0  0
   11.8620    7.0458   -2.1126 C   0  0  0  0  0  0  0  0  0  0  0  0
   11.4277    6.6789   -3.3591 C   0  0  0  0  0  0  0  0  0  0  0  0
   11.6511    7.4912   -4.4397 C   0  0  0  0  0  0  0  0  0  0  0  0
   11.2398    7.1793   -5.7170 C   0  0  0  0  0  0  0  0  0  0  0  0
 13 14  1  0
 14 15  1  0
 15 16  2  0
 16 17  1  0
 17 18  1  0
 18 19  2  0
 19 20  1  0
 18 21  1  0
 21 22  2  0
 22 23  1  0
 23  1  1  0
  1  2  2  0
  2  3  1  0
  3  4  2  0
  4  5  1  0
  5  6  2  0
  6  7  1  0
  7 28  1  0
 28 29  2  0
 29 30  1  0
 30 31  2  0
 31 32  1  0
 32 33  2  0
 33 34  1  0
 34 35  2  0
 35 36  1  0
 36 37  2  0
  7  8  2  0
  8  9  1  0
  9 10  2  0
 10 11  1  0
 11 12  1  0
 23 24  2  0
 24 25  1  0
 25 26  2  0
 26 27  1  0
 20 15  1  0
 26 21  1  0
 17 27  1  6
 11  2  1  0
 10  5  1  0
 37 28  1  0
 36 31  1  0
M  CHG  1  20  -1
M  END
>  <minimizedAffinity>  (535) 
-16.85220

$$$$
Mol: 165_52 - SminaDock
     RDKit          3D

 41 47  0  0  0  0  0  0  0  0999 V2000
    2.2751   -1.6137  -14.5067 H   0  0  0  0  0  0  0  0  0  0  0  0
    2.9499   -0.8625  -14.2537 N   0  0  0  0  0  0  0  0  0  0  0  0
    4.0473   -0.7630  -14.9245 C   0  0  0  0  0  0  0  0  0  0  0  0
    5.0592    0.1486  -14.7524 C   0  0  0  0  0  0  0  0  0  0  0  0
    5.3961    1.2422  -13.9323 C   0  0  0  0  0  0  0  0  0  0  0  0
    4.6342    1.7409  -12.7974 C   0  0  0  0  0  0  0  0  0  0  0  0
    6.6115    1.6328  -14.4120 C   0  0  0  0  0  0  0  0  0  0  0  0
    7.3114    2.7145  -13.8926 C   0  0  0  0  0  0  0  0  0  0  0  0
    6.4768    3.6747  -13.4161 C   0  0  0  0  0  0  0  0  0  0  0  0
    7.1015    4.7793  -12.8230 C   0  0  0  0  0  0  0  0  0  0  0  0
    8.4970    4.8701  -12.7396 C   0  0  0  0  0  0  0  0  0  0  0  0
    9.2738    3.8609  -13.2486 C   0  0  0  0  0  0  0  0  0  0  0  0
    8.7005    2.7782  -13.8287 C   0  0  0  0  0  0  0  0  0  0  0  0
    9.5908    1.8938  -14.3518 N   0  0  0  0  0  0  0  0  0  0  0  0
   10.5173    1.8715  -13.8957 H   0  0  0  0  0  0  0  0  0  0  0  0
    9.3459    1.0950  -15.3927 N   0  0  0  0  0  0  0  0  0  0  0  0
    8.1732    0.9472  -16.0815 N   0  0  0  0  0  0  0  0  0  0  0  0
    7.0169    0.8373  -15.4566 N   0  0  0  0  0  0  0  0  0  0  0  0
    6.0668   -0.0740  -15.6713 C   0  0  0  0  0  0  0  0  0  0  0  0
    5.6346   -1.1607  -16.4171 C   0  0  0  0  0  0  0  0  0  0  0  0
    6.3374   -1.6278  -17.3587 O   0  0  0  0  0  0  0  0  0  0  0  0
    4.4331   -1.5613  -15.9640 N   0  0  0  0  0  0  0  0  0  0  0  0
    3.8841   -2.3718  -16.3620 H   0  0  0  0  0  0  0  0  0  0  0  0
    9.1327    5.9873  -12.1377 N   0  0  0  0  0  0  0  0  0  0  0  0
    9.4337    6.0996  -10.9077 C   0  0  0  0  0  0  0  0  0  0  0  0
   10.0390    7.2428  -10.5141 N   0  0  0  0  0  0  0  0  0  0  0  0
   10.3889    7.4457   -9.2454 C   0  0  0  0  0  0  0  0  0  0  0  0
   11.0142    8.6372   -8.8627 C   0  0  0  0  0  0  0  0  0  0  0  0
   11.3531    8.7932   -7.5410 C   0  0  0  0  0  0  0  0  0  0  0  0
   11.0748    7.7901   -6.6368 C   0  0  0  0  0  0  0  0  0  0  0  0
   10.4554    6.6101   -7.0170 C   0  0  0  0  0  0  0  0  0  0  0  0
   10.1108    6.4435   -8.3424 C   0  0  0  0  0  0  0  0  0  0  0  0
    9.4961    5.2859   -8.7497 C   0  0  0  0  0  0  0  0  0  0  0  0
    9.1573    5.1162  -10.0387 N   0  0  0  0  0  0  0  0  0  0  0  0
    8.6819    4.2110  -10.3337 H   0  0  0  0  0  0  0  0  0  0  0  0
   11.4415    7.9680   -5.2264 C   0  0  0  0  0  0  0  0  0  0  0  0
   11.4413    6.8952   -4.3668 C   0  0  0  0  0  0  0  0  0  0  0  0
   11.7848    7.0401   -3.0276 C   0  0  0  0  0  0  0  0  0  0  0  0
   12.1326    8.2730   -2.5432 C   0  0  0  0  0  0  0  0  0  0  0  0
   12.1395    9.3622   -3.3879 C   0  0  0  0  0  0  0  0  0  0  0  0
   11.7933    9.2013   -4.7259 C   0  0  0  0  0  0  0  0  0  0  0  0
  1  2  1  0
  2  3  2  0
  3  4  1  0
  4  5  1  0
  5  6  1  0
  5  7  2  0
  7  8  1  0
  8  9  2  0
  9 10  1  0
 10 11  2  0
 11 24  1  0
 24 25  2  0
 25 26  1  0
 26 27  2  0
 27 28  1  0
 28 29  2  0
 29 30  1  0
 30 36  1  0
 36 37  2  0
 37 38  1  0
 38 39  2  0
 39 40  1  0
 40 41  2  0
 30 31  2  0
 31 32  1  0
 32 33  2  0
 33 34  1  0
 34 35  1  0
 11 12  1  0
 12 13  2  0
 13 14  1  0
 14 15  1  0
 14 16  1  0
 16 17  2  0
 17 18  1  0
 18 19  1  0
 19 20  1  0
 20 21  2  0
 20 22  1  0
 22 23  1  0
 22  3  1  0
 19  4  2  0
 18  7  1  0
 13  8  1  0
 34 25  1  0
 32 27  1  0
 41 36  1  0
M  END
>  <minimizedAffinity>  (536) 
-16.90965

$$$$
Mol: 165_41 - SminaDock
     RDKit          3D

 45 51  0  0  0  0  0  0  0  0999 V2000
   10.9204    2.4912  -13.8677 O   0  0  0  0  0  0  0  0  0  0  0  0
    9.8063    2.4954  -14.4030 C   0  0  0  0  0  0  0  0  0  0  0  0
    9.5171    1.7373  -15.5571 N   0  0  0  0  0  0  0  0  0  0  0  0
    8.3304    1.2453  -16.2232 C   0  0  0  0  0  0  0  0  0  0  0  0
    7.0789    1.3009  -15.4599 C   0  0  0  0  0  0  0  0  0  0  0  0
    6.7019    2.0762  -14.3545 C   0  0  0  0  0  0  0  0  0  0  0  0
    5.5444    1.9037  -13.7228 N   0  0  0  0  0  0  0  0  0  0  0  0
    4.6962    0.9624  -14.1535 C   0  0  0  0  0  0  0  0  0  0  0  0
    3.6014    0.7562  -13.6040 O   0  0  0  0  0  0  0  0  0  0  0  0
    5.0125    0.1618  -15.2545 C   0  0  0  0  0  0  0  0  0  0  0  0
    4.1252   -0.7894  -15.7040 C   0  0  0  0  0  0  0  0  0  0  0  0
    3.0245   -0.9372  -15.0869 O   0  0  0  0  0  0  0  0  0  0  0  0
    4.4187   -1.5425  -16.7703 N   0  0  0  0  0  0  0  0  0  0  0  0
    5.5843   -1.3642  -17.4001 C   0  0  0  0  0  0  0  0  0  0  0  0
    5.8823   -2.0623  -18.4091 O   0  0  0  0  0  0  0  0  0  0  0  0
    6.5074   -0.4413  -17.0076 N   0  0  0  0  0  0  0  0  0  0  0  0
    6.2043    0.3176  -15.9237 C   0  0  0  0  0  0  0  0  0  0  0  0
    7.4262    3.2050  -13.7538 C   0  0  0  0  0  0  0  0  0  0  0  0
    6.5883    4.1028  -13.1702 C   0  0  0  0  0  0  0  0  0  0  0  0
    7.1434    5.2008  -12.5356 C   0  0  0  0  0  0  0  0  0  0  0  0
    8.5274    5.3630  -12.5096 C   0  0  0  0  0  0  0  0  0  0  0  0
    9.3706    4.4403  -13.1125 C   0  0  0  0  0  0  0  0  0  0  0  0
    8.8098    3.3573  -13.7382 C   0  0  0  0  0  0  0  0  0  0  0  0
   10.3946    1.4462  -16.0782 H   0  0  0  0  0  0  0  0  0  0  0  0
    5.2931    2.4314  -12.8963 H   0  0  0  0  0  0  0  0  0  0  0  0
    3.7130   -2.2687  -17.0924 H   0  0  0  0  0  0  0  0  0  0  0  0
    7.3884   -0.3319  -17.5541 H   0  0  0  0  0  0  0  0  0  0  0  0
    9.1067    6.4679  -11.8697 N   0  0  0  0  0  0  0  0  0  0  0  0
    9.4467    6.4948  -10.6337 C   0  0  0  0  0  0  0  0  0  0  0  0
    9.2892    5.4591   -9.7896 N   0  0  0  0  0  0  0  0  0  0  0  0
    9.6507    5.5041   -8.4986 C   0  0  0  0  0  0  0  0  0  0  0  0
   10.2095    6.6557   -8.0000 C   0  0  0  0  0  0  0  0  0  0  0  0
   10.5961    6.7340   -6.6620 C   0  0  0  0  0  0  0  0  0  0  0  0
   11.1568    7.8856   -6.1574 C   0  0  0  0  0  0  0  0  0  0  0  0
   11.3170    8.9474   -7.0273 C   0  0  0  0  0  0  0  0  0  0  0  0
   10.9454    8.8959   -8.3468 C   0  0  0  0  0  0  0  0  0  0  0  0
   10.3811    7.7274   -8.8414 C   0  0  0  0  0  0  0  0  0  0  0  0
    9.9998    7.6115  -10.1087 N   0  0  0  0  0  0  0  0  0  0  0  0
   10.1381    8.4393  -10.7366 H   0  0  0  0  0  0  0  0  0  0  0  0
   11.5730    8.0040   -4.7636 C   0  0  0  0  0  0  0  0  0  0  0  0
   11.8923    9.2029   -4.1969 C   0  0  0  0  0  0  0  0  0  0  0  0
   12.2801    9.2883   -2.8882 C   0  0  0  0  0  0  0  0  0  0  0  0
   12.3600    8.1603   -2.0997 C   0  0  0  0  0  0  0  0  0  0  0  0
   12.0412    6.9409   -2.6558 C   0  0  0  0  0  0  0  0  0  0  0  0
   11.6509    6.8618   -3.9759 C   0  0  0  0  0  0  0  0  0  0  0  0
  1  2  2  0
  2  3  1  0
  3  4  1  0
  4  5  1  0
  5  6  2  0
  6  7  1  0
  7  8  1  0
  8  9  2  0
  8 10  1  0
 10 11  1  0
 11 12  2  0
 11 13  1  0
 13 14  1  0
 14 15  2  0
 14 16  1  0
 16 17  1  0
  6 18  1  0
 18 19  2  0
 19 20  1  0
 20 21  2  0
 21 28  1  0
 28 29  2  0
 29 30  1  0
 30 31  2  0
 31 32  1  0
 32 33  2  0
 33 34  1  0
 34 40  1  0
 40 41  2  0
 41 42  1  0
 42 43  2  0
 43 44  1  0
 44 45  2  0
 34 35  2  0
 35 36  1  0
 36 37  2  0
 37 38  1  0
 21 22  1  0
 22 23  2  0
 23  2  1  0
 17  5  1  0
 23 18  1  0
 17 10  2  0
 38 29  1  0
 37 32  1  0
 45 40  1  0
  3 24  1  0
  7 25  1  0
 13 26  1  0
 16 27  1  0
 38 39  1  0
M  END
>  <minimizedAffinity>  (537) 
-16.92120

$$$$
Mol: 166_10 - SminaDock
     RDKit          3D

 39 45  0  0  0  0  0  0  0  0999 V2000
    9.5004   -0.3961  -16.8700 H   0  0  0  0  0  0  0  0  0  0  0  0
    8.7268    0.2090  -17.0623 O   0  0  0  0  0  0  0  0  0  0  0  0
    7.4313   -0.1004  -16.6367 C   0  0  0  0  0  0  0  0  0  0  0  0
    6.8452    0.6374  -15.7055 C   0  0  0  0  0  0  0  0  0  0  0  0
    7.4869    1.7372  -15.1198 C   0  0  0  0  0  0  0  0  0  0  0  0
    6.8352    2.4607  -14.1667 C   0  0  0  0  0  0  0  0  0  0  0  0
    5.5441    2.1574  -13.7395 C   0  0  0  0  0  0  0  0  0  0  0  0
    4.9244    1.0579  -14.3364 C   0  0  0  0  0  0  0  0  0  0  0  0
    5.5730    0.3205  -15.2995 C   0  0  0  0  0  0  0  0  0  0  0  0
    4.8637   -0.8176  -15.8822 C   0  0  0  0  0  0  0  0  0  0  0  0
    3.6997   -1.1398  -15.5348 O   0  0  0  0  0  0  0  0  0  0  0  0
    5.5270   -1.6473  -16.9353 C   0  0  0  0  0  0  0  0  0  0  0  0
    6.8170   -1.1929  -17.2305 O   0  0  0  0  0  0  0  0  0  0  0  0
    4.9158    2.8625  -12.8163 C   0  0  0  0  0  0  0  0  0  0  0  0
    5.4574    4.0278  -12.1264 C   0  0  0  0  0  0  0  0  0  0  0  0
    6.8155    4.3640  -12.5533 C   0  0  0  0  0  0  0  0  0  0  0  0
    7.4613    5.4538  -11.9731 C   0  0  0  0  0  0  0  0  0  0  0  0
    8.7165    5.7962  -12.3448 C   0  0  0  0  0  0  0  0  0  0  0  0
    9.3518    5.0555  -13.3045 C   0  0  0  0  0  0  0  0  0  0  0  0
    8.7581    3.9653  -13.9122 C   0  0  0  0  0  0  0  0  0  0  0  0
    7.4654    3.6317  -13.5134 C   0  0  0  0  0  0  0  0  0  0  0  0
    9.3278    6.9241  -11.7173 N   0  0  0  0  0  0  0  0  0  0  0  0
    9.6620    6.9101  -10.4692 C   0  0  0  0  0  0  0  0  0  0  0  0
    9.4594    5.8414   -9.6792 N   0  0  0  0  0  0  0  0  0  0  0  0
    9.8073    5.8281   -8.3801 C   0  0  0  0  0  0  0  0  0  0  0  0
   10.3963    6.9301   -7.7957 C   0  0  0  0  0  0  0  0  0  0  0  0
   10.7665    6.9496   -6.4561 C   0  0  0  0  0  0  0  0  0  0  0  0
   11.3515    8.0713   -5.9096 C   0  0  0  0  0  0  0  0  0  0  0  0
   11.5677    9.1738   -6.6985 C   0  0  0  0  0  0  0  0  0  0  0  0
   11.1907    9.1398   -8.0422 C   0  0  0  0  0  0  0  0  0  0  0  0
   10.6031    8.0252   -8.6079 C   0  0  0  0  0  0  0  0  0  0  0  0
   10.2341    7.9940   -9.9208 N   0  0  0  0  0  0  0  0  0  0  0  0
   10.4222    8.8610  -10.4752 H   0  0  0  0  0  0  0  0  0  0  0  0
   11.7245    8.0526   -4.4969 C   0  0  0  0  0  0  0  0  0  0  0  0
   12.0938    9.2437   -3.8862 C   0  0  0  0  0  0  0  0  0  0  0  0
   12.4431    9.2052   -2.5614 C   0  0  0  0  0  0  0  0  0  0  0  0
   12.4337    8.0362   -1.8463 C   0  0  0  0  0  0  0  0  0  0  0  0
   12.0689    6.8480   -2.4425 C   0  0  0  0  0  0  0  0  0  0  0  0
   11.7173    6.8805   -3.7718 C   0  0  0  0  0  0  0  0  0  0  0  0
  1  2  1  0
  2  3  1  0
  3  4  2  0
  4  5  1  0
  5  6  2  0
  6  7  1  0
  7  8  1  0
  8  9  2  0
  9 10  1  0
 10 11  2  0
 10 12  1  0
 12 13  1  0
  7 14  2  0
 14 15  1  0
 15 16  1  0
 16 17  2  0
 17 18  1  0
 18 22  1  0
 22 23  2  0
 23 24  1  0
 24 25  2  0
 25 26  1  0
 26 27  2  0
 27 28  1  0
 28 34  1  0
 34 35  2  0
 35 36  1  0
 36 37  2  0
 37 38  1  0
 38 39  2  0
 28 29  2  0
 29 30  1  0
 30 31  2  0
 31 32  1  0
 32 33  1  0
 18 19  2  0
 19 20  1  0
 20 21  2  0
 13  3  1  0
 21 16  1  0
  9  4  1  0
 32 23  1  0
 21  6  1  0
 31 26  1  0
 39 34  1  0
M  END
>  <minimizedAffinity>  (538) 
-16.87962

$$$$
Mol: 145_47 - SminaDock
     RDKit          3D

 35 41  0  0  0  0  0  0  0  0999 V2000
   11.2664    8.0707   -6.0133 C   0  0  0  0  0  0  0  0  0  0  0  0
   11.4180    9.2053   -6.7922 C   0  0  0  0  0  0  0  0  0  0  0  0
   11.0685    9.2665   -8.1135 C   0  0  0  0  0  0  0  0  0  0  0  0
   10.5344    8.1161   -8.6844 C   0  0  0  0  0  0  0  0  0  0  0  0
   10.1629    8.0811   -9.9735 N   0  0  0  0  0  0  0  0  0  0  0  0
    9.6544    6.9698  -10.4994 C   0  0  0  0  0  0  0  0  0  0  0  0
    9.3074    6.9836  -11.7579 N   0  0  0  0  0  0  0  0  0  0  0  0
    9.4941    5.8492   -9.7677 N   0  0  0  0  0  0  0  0  0  0  0  0
    9.0919    4.9793  -10.1943 H   0  0  0  0  0  0  0  0  0  0  0  0
    9.8465    5.8163   -8.4682 C   0  0  0  0  0  0  0  0  0  0  0  0
   10.3722    6.9730   -7.9337 C   0  0  0  0  0  0  0  0  0  0  0  0
   10.7386    6.9469   -6.5929 C   0  0  0  0  0  0  0  0  0  0  0  0
    8.7563    5.8034  -12.3562 C   0  0  0  0  0  0  0  0  0  0  0  0
    9.4604    5.0572  -13.2713 C   0  0  0  0  0  0  0  0  0  0  0  0
    8.9294    3.9190  -13.8492 C   0  0  0  0  0  0  0  0  0  0  0  0
    7.6533    3.5398  -13.4815 C   0  0  0  0  0  0  0  0  0  0  0  0
    6.9204    4.2544  -12.5752 C   0  0  0  0  0  0  0  0  0  0  0  0
    7.4903    5.4065  -12.0068 C   0  0  0  0  0  0  0  0  0  0  0  0
    5.5655    3.9017  -12.1466 C   0  0  0  0  0  0  0  0  0  0  0  0
    4.9519    2.7030  -12.7336 C   0  0  0  0  0  0  0  0  0  0  0  0
    5.7479    1.9463  -13.7012 C   0  0  0  0  0  0  0  0  0  0  0  0
    7.0150    2.3341  -14.0564 C   0  0  0  0  0  0  0  0  0  0  0  0
    7.6837    1.5648  -14.9698 C   0  0  0  0  0  0  0  0  0  0  0  0
    7.0692    0.4280  -15.5047 C   0  0  0  0  0  0  0  0  0  0  0  0
    5.7952    0.0385  -15.1473 C   0  0  0  0  0  0  0  0  0  0  0  0
    5.1350    0.8119  -14.2352 C   0  0  0  0  0  0  0  0  0  0  0  0
    3.7873    0.2046  -14.0009 C   0  0  0  0  0  0  0  0  0  0  0  0
    3.5821   -0.7097  -15.1885 C   0  0  0  0  0  0  0  0  0  0  0  0
    4.9794   -1.1289  -15.6043 C   0  0  0  0  0  0  0  0  0  0  0  0
   12.3964    7.9567   -1.8849 C   0  0  0  0  0  0  0  0  0  0  0  0
   12.3638    9.1487   -2.5848 C   0  0  0  0  0  0  0  0  0  0  0  0
   12.0026    9.2055   -3.9149 C   0  0  0  0  0  0  0  0  0  0  0  0
   11.6564    8.0531   -4.5996 C   0  0  0  0  0  0  0  0  0  0  0  0
   11.6929    6.8631   -3.8863 C   0  0  0  0  0  0  0  0  0  0  0  0
   12.0536    6.8039   -2.5571 C   0  0  0  0  0  0  0  0  0  0  0  0
 30 31  2  0
 31 32  1  0
 32 33  2  0
 33  1  1  0
  1  2  1  0
  2  3  2  0
  3  4  1  0
  4  5  2  0
  5  6  1  0
  6  7  2  0
  7 13  1  0
 13 14  2  0
 14 15  1  0
 15 16  2  0
 16 17  1  0
 17 18  2  0
 17 19  1  0
 19 20  1  0
 20 21  1  0
 21 22  2  0
 22 23  1  0
 23 24  2  0
 24 25  1  0
 25 26  2  0
 26 27  1  0
 27 28  1  0
 28 29  1  0
  6  8  1  0
  8  9  1  0
  8 10  1  0
 10 11  2  0
 11 12  1  0
 33 34  1  0
 34 35  2  0
 35 30  1  0
 12  1  2  0
 11  4  1  0
 18 13  1  0
 26 21  1  0
 22 16  1  0
 29 25  1  0
M  END
>  <minimizedAffinity>  (539) 
-16.92722

$$$$
Mol: 172_36 - SminaDock
     RDKit          3D

 40 46  0  0  0  0  0  0  0  0999 V2000
    6.5447   -1.7576  -14.5410 H   0  0  0  0  0  0  0  0  0  0  0  0
    6.0760   -1.8079  -15.3942 O   0  0  0  0  0  0  0  0  0  0  0  0
    5.8617   -0.5852  -15.9850 C   0  0  1  0  0  0  0  0  0  0  0  0
    6.9003   -0.3247  -17.0576 C   0  0  0  0  0  0  0  0  0  0  0  0
    4.5179   -0.6460  -16.6571 C   0  0  0  0  0  0  0  0  0  0  0  0
    4.4180   -0.7645  -17.9071 O   0  0  0  0  0  0  0  0  0  0  0  0
    3.4133   -0.5640  -15.8209 O   0  0  0  0  0  0  0  0  0  0  0  0
    3.5778   -0.4104  -14.4025 C   0  0  0  0  0  0  0  0  0  0  0  0
    4.6417    0.6209  -14.2189 C   0  0  0  0  0  0  0  0  0  0  0  0
    4.5009    1.6377  -13.2893 C   0  0  0  0  0  0  0  0  0  0  0  0
    5.4815    2.5907  -13.1181 C   0  0  0  0  0  0  0  0  0  0  0  0
    6.6085    2.4990  -13.9033 C   0  0  0  0  0  0  0  0  0  0  0  0
    6.7580    1.4759  -14.8438 C   0  0  0  0  0  0  0  0  0  0  0  0
    5.7783    0.5306  -15.0091 C   0  0  0  0  0  0  0  0  0  0  0  0
    7.4701    3.6034  -13.5324 C   0  0  0  0  0  0  0  0  0  0  0  0
    8.7125    3.9529  -14.0255 C   0  0  0  0  0  0  0  0  0  0  0  0
    9.3545    5.0594  -13.5148 C   0  0  0  0  0  0  0  0  0  0  0  0
    8.8183    5.8534  -12.5207 C   0  0  0  0  0  0  0  0  0  0  0  0
    7.5691    5.4690  -12.0521 C   0  0  0  0  0  0  0  0  0  0  0  0
    6.9048    4.3733  -12.5399 C   0  0  0  0  0  0  0  0  0  0  0  0
    5.6209    3.7545  -12.2435 C   0  0  0  0  0  0  0  0  0  0  0  0
    4.7767    4.1528  -11.3828 O   0  0  0  0  0  0  0  0  0  0  0  0
    9.4906    6.9913  -12.0040 N   0  0  0  0  0  0  0  0  0  0  0  0
    9.7637    6.9772  -10.7181 C   0  0  0  0  0  0  0  0  0  0  0  0
   10.3983    8.0171  -10.1531 N   0  0  0  0  0  0  0  0  0  0  0  0
   10.6957    8.0453   -8.8509 C   0  0  0  0  0  0  0  0  0  0  0  0
   11.3485    9.1114   -8.2623 C   0  0  0  0  0  0  0  0  0  0  0  0
   11.6653    9.1621   -6.9233 C   0  0  0  0  0  0  0  0  0  0  0  0
   11.3145    8.0967   -6.1271 C   0  0  0  0  0  0  0  0  0  0  0  0
   10.6581    7.0076   -6.6797 C   0  0  0  0  0  0  0  0  0  0  0  0
   10.3580    6.9936   -8.0255 C   0  0  0  0  0  0  0  0  0  0  0  0
    9.7059    5.9411   -8.6421 C   0  0  0  0  0  0  0  0  0  0  0  0
    9.4199    5.9373   -9.9475 N   0  0  0  0  0  0  0  0  0  0  0  0
    8.9324    5.1268  -10.3536 H   0  0  0  0  0  0  0  0  0  0  0  0
   11.6127    8.0648   -4.6917 C   0  0  0  0  0  0  0  0  0  0  0  0
   11.7941    9.2647   -4.0529 C   0  0  0  0  0  0  0  0  0  0  0  0
   12.0693    9.2568   -2.7302 N   0  0  0  0  0  0  0  0  0  0  0  0
   12.1574    8.0951   -2.0822 C   0  0  0  0  0  0  0  0  0  0  0  0
   11.9846    6.8650   -2.6736 C   0  0  0  0  0  0  0  0  0  0  0  0
   11.7025    6.8566   -4.0267 C   0  0  0  0  0  0  0  0  0  0  0  0
  1  2  1  0
  3  2  1  0
  3  4  1  6
  3  5  1  0
  5  6  2  0
  5  7  1  0
  7  8  1  0
  8  9  1  0
  9 10  2  0
 10 11  1  0
 11 12  2  0
 12 13  1  0
 13 14  2  0
 12 15  1  0
 15 16  2  0
 16 17  1  0
 17 18  2  0
 18 23  1  0
 23 24  2  0
 24 25  1  0
 25 26  2  0
 26 27  1  0
 27 28  2  0
 28 29  1  0
 29 35  1  0
 35 36  2  0
 36 37  1  0
 37 38  2  0
 38 39  1  0
 39 40  2  0
 29 30  2  0
 30 31  1  0
 31 32  2  0
 32 33  1  0
 33 34  1  0
 18 19  1  0
 19 20  2  0
 20 21  1  0
 21 22  2  0
 14  3  1  0
 20 15  1  0
 14  9  1  0
 33 24  1  0
 21 11  1  0
 31 26  1  0
 40 35  1  0
M  END
>  <minimizedAffinity>  (540) 
-16.94860

$$$$
Mol: 191_44 - SminaDock
     RDKit          3D

 38 44  0  0  0  0  0  0  0  0999 V2000
    8.7866    5.5769  -12.4176 C   0  0  0  0  0  0  0  0  0  0  0  0
    9.4206    4.6146  -13.1657 C   0  0  0  0  0  0  0  0  0  0  0  0
    8.6891    3.5237  -13.6417 C   0  0  0  0  0  0  0  0  0  0  0  0
    7.3362    3.4389  -13.3460 C   0  0  0  0  0  0  0  0  0  0  0  0
    6.7064    4.4053  -12.5997 C   0  0  0  0  0  0  0  0  0  0  0  0
    7.4528    5.5103  -12.1173 C   0  0  0  0  0  0  0  0  0  0  0  0
    5.2582    4.3879  -12.3371 C   0  0  0  0  0  0  0  0  0  0  0  0
    4.6298    3.0620  -12.4879 C   0  0  0  0  0  0  0  0  0  0  0  0
    5.2793    2.1351  -13.4017 C   0  0  0  0  0  0  0  0  0  0  0  0
    6.5881    2.2442  -13.7768 C   0  0  0  0  0  0  0  0  0  0  0  0
    7.2045    1.3422  -14.5754 C   0  0  0  0  0  0  0  0  0  0  0  0
    6.4190    0.2596  -15.0169 C   0  0  0  0  0  0  0  0  0  0  0  0
    6.7083   -0.7920  -15.8037 N   0  0  0  0  0  0  0  0  0  0  0  0
    5.6229   -1.5697  -15.9451 C   0  0  0  0  0  0  0  0  0  0  0  0
    5.5247   -2.7694  -16.6976 N   0  0  0  0  0  0  0  0  0  0  0  0
    5.5188   -2.7622  -17.7329 H   0  0  0  0  0  0  0  0  0  0  0  0
    5.4571   -3.6762  -16.2006 H   0  0  0  0  0  0  0  0  0  0  0  0
    4.6601   -0.9840  -15.2351 O   0  0  0  0  0  0  0  0  0  0  0  0
    5.1011    0.1085  -14.6690 C   0  0  0  0  0  0  0  0  0  0  0  0
    4.5214    1.0479  -13.8571 C   0  0  0  0  0  0  0  0  0  0  0  0
   11.4315    7.9739   -6.0954 C   0  0  0  0  0  0  0  0  0  0  0  0
   11.9003    8.9334   -6.9737 C   0  0  0  0  0  0  0  0  0  0  0  0
   11.6058    8.8380   -8.3178 C   0  0  0  0  0  0  0  0  0  0  0  0
   10.8452    7.8046   -8.8484 C   0  0  0  0  0  0  0  0  0  0  0  0
   10.5668    7.7272  -10.1683 N   0  0  0  0  0  0  0  0  0  0  0  0
    9.8276    6.7237  -10.6887 C   0  0  0  0  0  0  0  0  0  0  0  0
    9.5670    6.6599  -11.9572 N   0  0  0  0  0  0  0  0  0  0  0  0
    9.3747    5.7941   -9.8298 N   0  0  0  0  0  0  0  0  0  0  0  0
    8.7956    4.9948  -10.1869 H   0  0  0  0  0  0  0  0  0  0  0  0
    9.6267    5.8279   -8.5000 C   0  0  0  0  0  0  0  0  0  0  0  0
   10.3816    6.8513   -7.9641 C   0  0  0  0  0  0  0  0  0  0  0  0
   10.6738    6.9433   -6.6201 C   0  0  0  0  0  0  0  0  0  0  0  0
   12.2431    8.0415   -1.8873 C   0  0  0  0  0  0  0  0  0  0  0  0
   11.8693    6.8831   -2.5319 C   0  0  0  0  0  0  0  0  0  0  0  0
   11.6128    6.8890   -3.8922 C   0  0  0  0  0  0  0  0  0  0  0  0
   11.7153    8.0262   -4.6554 C   0  0  0  0  0  0  0  0  0  0  0  0
   12.0888    9.1922   -4.0212 C   0  0  0  0  0  0  0  0  0  0  0  0
   12.3498    9.1955   -2.6474 C   0  0  0  0  0  0  0  0  0  0  0  0
 33 34  2  0
 34 35  1  0
 35 36  2  0
 36 21  1  0
 21 22  1  0
 22 23  2  0
 23 24  1  0
 24 25  2  0
 25 26  1  0
 26 27  2  0
 27  1  1  0
  1  2  2  0
  2  3  1  0
  3  4  2  0
  4  5  1  0
  5  6  2  0
  5  7  1  0
  7  8  1  0
  8  9  1  0
  9 10  2  0
 10 11  1  0
 11 12  2  0
 12 13  1  0
 13 14  2  0
 14 15  1  0
 15 16  1  0
 15 17  1  0
 14 18  1  0
 18 19  1  0
 19 20  2  0
 26 28  1  0
 28 29  1  0
 28 30  1  0
 30 31  2  0
 31 32  1  0
 36 37  1  0
 37 38  2  0
 38 33  1  0
 32 21  2  0
 31 24  1  0
  6  1  1  0
 20  9  1  0
 10  4  1  0
 19 12  1  0
M  END
>  <minimizedAffinity>  (541) 
-16.90046

$$$$
Mol: 108_44 - SminaDock
     RDKit          3D

 39 45  0  0  0  0  0  0  0  0999 V2000
    8.2400    5.0390  -12.6713 C   0  0  0  0  0  0  0  0  0  0  0  0
    6.9677    4.6875  -12.2718 C   0  0  0  0  0  0  0  0  0  0  0  0
    6.3214    3.5656  -12.7362 C   0  0  0  0  0  0  0  0  0  0  0  0
    6.9387    2.7500  -13.6278 C   0  0  0  0  0  0  0  0  0  0  0  0
    8.2284    3.0688  -14.0594 C   0  0  0  0  0  0  0  0  0  0  0  0
    8.8554    4.2001  -13.5784 C   0  0  0  0  0  0  0  0  0  0  0  0
    8.9615    2.2346  -15.0239 C   0  0  0  0  0  0  0  0  0  0  0  0
    8.0790    1.5163  -15.9978 C   0  0  1  0  0  0  0  0  0  0  0  0
    8.2322    2.1337  -17.3645 C   0  0  0  0  0  0  0  0  0  0  0  0
    8.8319    3.2381  -17.5210 O   0  0  0  0  0  0  0  0  0  0  0  0
    7.6667    1.4021  -18.4450 N   0  0  0  0  0  0  0  0  0  0  0  0
    7.4996   -0.0105  -18.4207 C   0  0  0  0  0  0  0  0  0  0  0  0
    7.0007   -0.6684  -19.3705 O   0  0  0  0  0  0  0  0  0  0  0  0
    7.9459   -0.6643  -17.2143 N   0  0  0  0  0  0  0  0  0  0  0  0
    8.5093    0.1015  -16.1485 C   0  0  0  0  0  0  0  0  0  0  0  0
    9.3448   -0.4107  -15.3627 O   0  0  0  0  0  0  0  0  0  0  0  0
    6.6277    1.5300  -15.6752 C   0  0  0  0  0  0  0  0  0  0  0  0
    6.3700    1.5151  -14.2125 C   0  0  2  0  0  0  0  0  0  0  0  0
    5.0345    1.1011  -13.7263 C   0  0  0  0  0  0  0  0  0  0  0  0
    5.6726    0.5214  -12.6057 O   0  0  0  0  0  0  0  0  0  0  0  0
    6.7732    0.2783  -13.4604 C   0  0  0  0  0  0  0  0  0  0  0  0
   11.0740    7.8661   -6.5433 C   0  0  0  0  0  0  0  0  0  0  0  0
   11.1832    8.9198   -7.4202 C   0  0  0  0  0  0  0  0  0  0  0  0
   10.7424    8.7738   -8.7218 C   0  0  0  0  0  0  0  0  0  0  0  0
   10.1894    7.6053   -9.1935 C   0  0  0  0  0  0  0  0  0  0  0  0
   10.0805    6.5487   -8.3126 C   0  0  0  0  0  0  0  0  0  0  0  0
    9.5262    5.3772   -8.7835 C   0  0  0  0  0  0  0  0  0  0  0  0
    9.1106    5.2918  -10.0701 N   0  0  0  0  0  0  0  0  0  0  0  0
    9.2194    6.3250  -10.9238 C   0  0  0  0  0  0  0  0  0  0  0  0
    8.8141    6.2089  -12.1367 N   0  0  0  0  0  0  0  0  0  0  0  0
    9.7583    7.4709  -10.4747 N   0  0  0  0  0  0  0  0  0  0  0  0
    9.8492    8.2751  -11.1181 H   0  0  0  0  0  0  0  0  0  0  0  0
   10.5216    6.6946   -7.0098 C   0  0  0  0  0  0  0  0  0  0  0  0
   12.3578    8.0477   -2.4649 C   0  0  0  0  0  0  0  0  0  0  0  0
   11.8247    6.8977   -3.0048 C   0  0  0  0  0  0  0  0  0  0  0  0
   11.4105    6.8503   -4.3324 C   0  0  0  0  0  0  0  0  0  0  0  0
   11.5197    7.9529   -5.1526 C   0  0  0  0  0  0  0  0  0  0  0  0
   12.0552    9.1048   -4.6075 C   0  0  0  0  0  0  0  0  0  0  0  0
   12.4688    9.1527   -3.2824 C   0  0  0  0  0  0  0  0  0  0  0  0
 34 35  2  0
 35 36  1  0
 36 37  2  0
 37 22  1  0
 22 23  2  0
 23 24  1  0
 24 25  2  0
 25 26  1  0
 26 27  1  0
 27 28  2  0
 28 29  1  0
 29 30  2  0
 30  1  1  0
  1  2  2  0
  2  3  1  0
  3  4  2  0
  4  5  1  0
  5  6  2  0
  5  7  1  0
  8  7  1  1
  8  9  1  0
  9 10  2  0
  9 11  1  0
 11 12  1  0
 12 13  2  0
 12 14  1  0
 14 15  1  0
 15 16  2  0
  8 17  1  0
 18 17  1  6
 18 19  1  0
 19 20  1  0
 20 21  1  0
 29 31  1  0
 31 32  1  0
 26 33  2  0
 37 38  1  0
 38 39  2  0
 39 34  1  0
 33 22  1  0
 31 25  1  0
  6  1  1  0
 15  8  1  0
 21 18  1  0
 18  4  1  0
M  CHG  2  11  -1  14  -1
M  END
>  <minimizedAffinity>  (542) 
-16.87797

$$$$
Mol: 164_12 - SminaDock
     RDKit          3D

 38 44  0  0  0  0  0  0  0  0999 V2000
    8.6935    5.7158  -12.3304 C   0  0  0  0  0  0  0  0  0  0  0  0
    7.3860    5.3935  -12.0401 C   0  0  0  0  0  0  0  0  0  0  0  0
    6.8150    4.2426  -12.5732 C   0  0  0  0  0  0  0  0  0  0  0  0
    7.5789    3.4403  -13.3899 C   0  0  0  0  0  0  0  0  0  0  0  0
    8.8926    3.7536  -13.6886 C   0  0  0  0  0  0  0  0  0  0  0  0
    9.4693    4.9129  -13.1522 C   0  0  0  0  0  0  0  0  0  0  0  0
    9.7590    2.9492  -14.5495 C   0  0  0  0  0  0  0  0  0  0  0  0
    9.1784    1.7235  -15.1059 C   0  0  0  0  0  0  0  0  0  0  0  0
    7.7823    1.4092  -14.7864 C   0  0  0  0  0  0  0  0  0  0  0  0
    7.2188    0.2679  -15.3178 N   0  0  0  0  0  0  0  0  0  0  0  0
    5.9485   -0.0387  -15.0368 C   0  0  0  0  0  0  0  0  0  0  0  0
    5.3577   -1.1830  -15.5600 C   0  0  0  0  0  0  0  0  0  0  0  0
    6.0915   -1.8932  -16.3012 O   0  0  0  0  0  0  0  0  0  0  0  0
    4.0785   -1.5004  -15.2830 N   0  0  0  0  0  0  0  0  0  0  0  0
    3.6719   -2.3721  -15.6980 H   0  0  0  0  0  0  0  0  0  0  0  0
    3.2944   -0.7408  -14.4905 C   0  0  0  0  0  0  0  0  0  0  0  0
    3.8639    0.3990  -13.9623 C   0  0  0  0  0  0  0  0  0  0  0  0
    5.1568    0.7416  -14.2280 C   0  0  0  0  0  0  0  0  0  0  0  0
    5.6987    1.8980  -13.6788 C   0  0  0  0  0  0  0  0  0  0  0  0
    7.0284    2.2189  -13.9729 C   0  0  0  0  0  0  0  0  0  0  0  0
   11.2154    7.9842   -5.9780 C   0  0  0  0  0  0  0  0  0  0  0  0
   11.3942    9.1599   -6.7140 C   0  0  0  0  0  0  0  0  0  0  0  0
   11.0133    9.1339   -8.0429 C   0  0  0  0  0  0  0  0  0  0  0  0
   10.4801    8.0176   -8.6410 C   0  0  0  0  0  0  0  0  0  0  0  0
   10.3215    6.8786   -7.8754 C   0  0  0  0  0  0  0  0  0  0  0  0
    9.7780    5.7514   -8.4978 C   0  0  0  0  0  0  0  0  0  0  0  0
    9.4405    5.8271   -9.7910 N   0  0  0  0  0  0  0  0  0  0  0  0
    9.5903    6.9270  -10.5422 C   0  0  0  0  0  0  0  0  0  0  0  0
    9.2390    6.9005  -11.7659 N   0  0  0  0  0  0  0  0  0  0  0  0
   10.1141    8.0066   -9.9343 N   0  0  0  0  0  0  0  0  0  0  0  0
   10.2396    8.8682  -10.4935 H   0  0  0  0  0  0  0  0  0  0  0  0
   10.6845    6.8565   -6.5547 C   0  0  0  0  0  0  0  0  0  0  0  0
   12.3876    8.0583   -1.9280 C   0  0  0  0  0  0  0  0  0  0  0  0
   12.2786    9.2363   -2.6354 C   0  0  0  0  0  0  0  0  0  0  0  0
   11.8970    9.2324   -3.9599 C   0  0  0  0  0  0  0  0  0  0  0  0
   11.6217    8.0265   -4.5793 C   0  0  0  0  0  0  0  0  0  0  0  0
   11.7327    6.8628   -3.8687 C   0  0  0  0  0  0  0  0  0  0  0  0
   12.1117    6.8791   -2.5569 C   0  0  0  0  0  0  0  0  0  0  0  0
 33 34  2  0
 34 35  1  0
 35 36  2  0
 36 21  1  0
 21 22  2  0
 22 23  1  0
 23 24  2  0
 24 25  1  0
 25 26  1  0
 26 27  2  0
 27 28  1  0
 28 29  2  0
 29  1  1  0
  1  2  2  0
  2  3  1  0
  3  4  2  0
  4  5  1  0
  5  6  2  0
  5  7  1  0
  7  8  1  0
  8  9  1  0
  9 10  2  0
 10 11  1  0
 11 12  1  0
 12 13  2  0
 12 14  1  0
 14 15  1  0
 14 16  1  0
 16 17  2  0
 17 18  1  0
 18 19  1  0
 19 20  2  0
 28 30  1  0
 30 31  1  0
 25 32  2  0
 36 37  1  0
 37 38  2  0
 38 33  1  0
 32 21  1  0
 30 24  1  0
  6  1  1  0
 20  9  1  0
 20  4  1  0
 18 11  2  0
M  END
>  <minimizedAffinity>  (543) 
-16.94564

$$$$
Mol: 193_8 - SminaDock
     RDKit          3D

 36 42  0  0  0  0  0  0  0  0999 V2000
   11.2614    7.9514   -6.0533 C   0  0  0  0  0  0  0  0  0  0  0  0
   11.4093    9.0099   -6.9249 C   0  0  0  0  0  0  0  0  0  0  0  0
   11.0188    8.9663   -8.2464 C   0  0  0  0  0  0  0  0  0  0  0  0
   10.4437    7.7998   -8.7408 C   0  0  0  0  0  0  0  0  0  0  0  0
   10.2833    6.7240   -7.8906 C   0  0  0  0  0  0  0  0  0  0  0  0
   10.6891    6.8068   -6.5670 C   0  0  0  0  0  0  0  0  0  0  0  0
    9.7109    5.5836   -8.4099 C   0  0  0  0  0  0  0  0  0  0  0  0
    9.3159    5.5368   -9.7433 C   0  0  0  0  0  0  0  0  0  0  0  0
    9.4865    6.6250  -10.5739 C   0  0  0  0  0  0  0  0  0  0  0  0
    9.1172    6.5602  -11.7917 N   0  0  0  0  0  0  0  0  0  0  0  0
   10.0468    7.7229  -10.0407 N   0  0  0  0  0  0  0  0  0  0  0  0
   10.1788    8.5445  -10.6568 H   0  0  0  0  0  0  0  0  0  0  0  0
    8.5304    5.4637  -12.4193 C   0  0  0  0  0  0  0  0  0  0  0  0
    9.2022    4.7900  -13.4057 C   0  0  0  0  0  0  0  0  0  0  0  0
    8.6579    3.6923  -14.0581 C   0  0  0  0  0  0  0  0  0  0  0  0
    7.3826    3.2501  -13.7056 C   0  0  0  0  0  0  0  0  0  0  0  0
    6.6970    3.9111  -12.7248 C   0  0  0  0  0  0  0  0  0  0  0  0
    7.2858    5.0248  -12.0828 C   0  0  0  0  0  0  0  0  0  0  0  0
    5.3296    3.5200  -12.3520 C   0  0  0  0  0  0  0  0  0  0  0  0
    4.8738    2.2174  -12.8299 C   0  0  0  0  0  0  0  0  0  0  0  0
    5.5646    1.5897  -13.9429 C   0  0  0  0  0  0  0  0  0  0  0  0
    6.8164    2.0740  -14.3333 C   0  0  0  0  0  0  0  0  0  0  0  0
    7.4807    1.4472  -15.3510 C   0  0  0  0  0  0  0  0  0  0  0  0
    6.8855    0.3460  -15.9661 C   0  0  0  0  0  0  0  0  0  0  0  0
    5.6517   -0.1163  -15.5698 C   0  0  0  0  0  0  0  0  0  0  0  0
    4.8566   -1.1407  -15.9825 N   0  0  0  0  0  0  0  0  0  0  0  0
    3.7466   -1.1833  -15.2826 N   0  0  0  0  0  0  0  0  0  0  0  0
    2.9661   -1.8612  -15.3864 H   0  0  0  0  0  0  0  0  0  0  0  0
    3.7890   -0.1820  -14.3899 C   0  0  0  0  0  0  0  0  0  0  0  0
    4.9726    0.5038  -14.5473 C   0  0  0  0  0  0  0  0  0  0  0  0
   12.4679    8.0637   -1.9538 C   0  0  0  0  0  0  0  0  0  0  0  0
   12.1270    6.8743   -2.5601 C   0  0  0  0  0  0  0  0  0  0  0  0
   11.7378    6.8362   -3.8819 C   0  0  0  0  0  0  0  0  0  0  0  0
   11.6741    7.9958   -4.6551 C   0  0  0  0  0  0  0  0  0  0  0  0
   12.0195    9.1737   -4.0282 C   0  0  0  0  0  0  0  0  0  0  0  0
   12.4113    9.2098   -2.6959 C   0  0  0  0  0  0  0  0  0  0  0  0
 31 32  2  0
 32 33  1  0
 33 34  2  0
 34  1  1  0
  1  2  2  0
  2  3  1  0
  3  4  2  0
  4  5  1  0
  5  6  2  0
  5  7  1  0
  7  8  2  0
  8  9  1  0
  9 10  2  0
 10 13  1  0
 13 14  2  0
 14 15  1  0
 15 16  2  0
 16 17  1  0
 17 18  2  0
 17 19  1  0
 19 20  1  0
 20 21  1  0
 21 22  2  0
 22 23  1  0
 23 24  2  0
 24 25  1  0
 25 26  2  0
 26 27  1  0
 27 28  1  0
 27 29  1  0
 29 30  2  0
  9 11  1  0
 11 12  1  0
 34 35  1  0
 35 36  2  0
 36 31  1  0
  6  1  1  0
 18 13  1  0
 30 21  1  0
 11  4  1  0
 22 16  1  0
 30 25  1  0
M  END
>  <minimizedAffinity>  (544) 
-16.94660

$$$$
Mol: 102_24 - SminaDock
     RDKit          3D

 44 50  0  0  0  0  0  0  0  0999 V2000
    8.4411    5.0650  -13.2787 C   0  0  0  0  0  0  0  0  0  0  0  0
    7.3081    5.3143  -12.5393 C   0  0  0  0  0  0  0  0  0  0  0  0
    6.3114    4.3756  -12.5502 C   0  0  0  0  0  0  0  0  0  0  0  0
    6.4242    3.1900  -13.2861 C   0  0  0  0  0  0  0  0  0  0  0  0
    7.5615    2.9116  -14.0428 C   0  0  0  0  0  0  0  0  0  0  0  0
    8.5458    3.8970  -14.0002 C   0  0  0  0  0  0  0  0  0  0  0  0
    8.1302    1.8961  -14.9216 C   0  0  2  0  0  0  0  0  0  0  0  0
    9.6372    1.9752  -14.7867 C   0  0  0  0  0  0  0  0  0  0  0  0
   10.0767    1.8261  -13.6119 O   0  0  0  0  0  0  0  0  0  0  0  0
   10.5053    2.1937  -15.8625 N   0  0  0  0  0  0  0  0  0  0  0  0
   11.5412    2.2042  -15.6485 H   0  0  0  0  0  0  0  0  0  0  0  0
    9.9936    2.3872  -17.1568 C   0  0  0  0  0  0  0  0  0  0  0  0
   10.8215    2.5830  -18.1081 O   0  0  0  0  0  0  0  0  0  0  0  0
    8.6123    2.3668  -17.4022 N   0  0  0  0  0  0  0  0  0  0  0  0
    8.2927    2.5195  -18.4011 H   0  0  0  0  0  0  0  0  0  0  0  0
    7.7242    2.1492  -16.3367 C   0  0  0  0  0  0  0  0  0  0  0  0
    6.4891    2.1638  -16.5668 O   0  0  0  0  0  0  0  0  0  0  0  0
    7.8244    0.4720  -14.6177 C   0  0  0  0  0  0  0  0  0  0  0  0
    6.4142    0.0727  -14.6932 C   0  0  0  0  0  0  0  0  0  0  0  0
    6.2468   -0.6953  -15.8183 C   0  0  0  0  0  0  0  0  0  0  0  0
    5.0085   -1.1965  -16.1026 C   0  0  0  0  0  0  0  0  0  0  0  0
    3.8941   -0.9590  -15.2903 C   0  0  0  0  0  0  0  0  0  0  0  0
    4.1231   -0.1684  -14.1551 C   0  0  0  0  0  0  0  0  0  0  0  0
    5.3524    0.3359  -13.8626 C   0  0  0  0  0  0  0  0  0  0  0  0
    5.1885    1.1080  -12.6175 C   0  0  0  0  0  0  0  0  0  0  0  0
    5.1472    2.5530  -13.0119 C   0  0  0  0  0  0  0  0  0  0  0  0
   10.8517    7.2565   -7.3069 C   0  0  0  0  0  0  0  0  0  0  0  0
    9.8108    6.3610   -7.4043 C   0  0  0  0  0  0  0  0  0  0  0  0
    9.3444    5.9355   -8.6343 C   0  0  0  0  0  0  0  0  0  0  0  0
    9.9101    6.3969   -9.8216 C   0  0  0  0  0  0  0  0  0  0  0  0
   10.9476    7.2891   -9.7349 C   0  0  0  0  0  0  0  0  0  0  0  0
   11.4151    7.7157   -8.4926 C   0  0  0  0  0  0  0  0  0  0  0  0
   11.4999    7.7392  -10.9115 C   0  0  0  0  0  0  0  0  0  0  0  0
   11.0377    7.3173  -12.1403 C   0  0  0  0  0  0  0  0  0  0  0  0
    9.9852    6.4127  -12.1927 C   0  0  0  0  0  0  0  0  0  0  0  0
    9.5255    5.9951  -13.3186 N   0  0  0  0  0  0  0  0  0  0  0  0
    9.4667    5.9915  -11.0271 N   0  0  0  0  0  0  0  0  0  0  0  0
    8.6653    5.3044  -10.9887 H   0  0  0  0  0  0  0  0  0  0  0  0
   12.2693    8.4993   -3.4612 C   0  0  0  0  0  0  0  0  0  0  0  0
   12.3985    9.3181   -4.5599 C   0  0  0  0  0  0  0  0  0  0  0  0
   11.9458    8.9344   -5.8156 C   0  0  0  0  0  0  0  0  0  0  0  0
   11.3453    7.7069   -6.0054 C   0  0  0  0  0  0  0  0  0  0  0  0
   11.2133    6.8844   -4.9127 C   0  0  0  0  0  0  0  0  0  0  0  0
   11.6622    7.2646   -3.6665 C   0  0  0  0  0  0  0  0  0  0  0  0
 39 40  2  0
 40 41  1  0
 41 42  2  0
 42 27  1  0
 27 28  2  0
 28 29  1  0
 29 30  2  0
 30 31  1  0
 31 32  2  0
 31 33  1  0
 33 34  2  0
 34 35  1  0
 35 36  2  0
 36  1  1  0
  1  2  2  0
  2  3  1  0
  3  4  2  0
  4  5  1  0
  5  6  2  0
  5  7  1  0
  7  8  1  0
  8  9  2  0
  8 10  1  0
 10 11  1  0
 10 12  1  0
 12 13  2  0
 12 14  1  0
 14 15  1  0
 14 16  1  0
 16 17  2  0
  7 18  1  1
 18 19  1  0
 19 20  2  0
 20 21  1  0
 21 22  2  0
 22 23  1  0
 23 24  2  0
 24 25  1  0
 25 26  1  0
 35 37  1  0
 37 38  1  0
 42 43  1  0
 43 44  2  0
 44 39  1  0
 32 27  1  0
  6  1  1  0
 16  7  1  0
 24 19  1  0
 37 30  1  0
 26  4  1  0
M  END
>  <minimizedAffinity>  (545) 
-16.85344

$$$$
Mol: 193_16 - SminaDock
     RDKit          3D

 39 45  0  0  0  0  0  0  0  0999 V2000
    8.8275    5.9635  -12.3644 C   0  0  0  0  0  0  0  0  0  0  0  0
    9.5516    5.3577  -13.3680 C   0  0  0  0  0  0  0  0  0  0  0  0
    9.0492    4.2305  -13.9930 C   0  0  0  0  0  0  0  0  0  0  0  0
    7.8102    3.7176  -13.5985 C   0  0  0  0  0  0  0  0  0  0  0  0
    7.1180    4.3576  -12.5871 C   0  0  0  0  0  0  0  0  0  0  0  0
    7.6053    5.4810  -11.9554 C   0  0  0  0  0  0  0  0  0  0  0  0
    5.8890    3.6050  -12.4041 C   0  0  0  0  0  0  0  0  0  0  0  0
    5.0081    3.9168  -11.5461 O   0  0  0  0  0  0  0  0  0  0  0  0
    5.8628    2.4851  -13.3427 C   0  0  0  0  0  0  0  0  0  0  0  0
    7.0518    2.5638  -14.0742 C   0  0  0  0  0  0  0  0  0  0  0  0
    7.2902    1.6135  -15.0458 C   0  0  0  0  0  0  0  0  0  0  0  0
    6.3675    0.6119  -15.2812 C   0  0  0  0  0  0  0  0  0  0  0  0
    6.6061   -0.3415  -16.2555 C   0  0  0  0  0  0  0  0  0  0  0  0
    5.7187   -1.3581  -16.5276 C   0  0  0  0  0  0  0  0  0  0  0  0
    6.0601   -2.2842  -17.5477 N   0  0  0  0  0  0  0  0  0  0  0  0
    6.9758   -2.7515  -17.5001 H   0  0  0  0  0  0  0  0  0  0  0  0
    5.4199   -2.5109  -18.3450 H   0  0  0  0  0  0  0  0  0  0  0  0
    4.5847   -1.4065  -15.8073 N   0  0  0  0  0  0  0  0  0  0  0  0
    4.3203   -0.4869  -14.8444 C   0  0  0  0  0  0  0  0  0  0  0  0
    5.1912    0.5272  -14.5634 C   0  0  0  0  0  0  0  0  0  0  0  0
    4.9455    1.4831  -13.5821 C   0  0  0  0  0  0  0  0  0  0  0  0
   11.3221    8.0251   -5.8803 C   0  0  0  0  0  0  0  0  0  0  0  0
   11.4878    9.1687   -6.6387 C   0  0  0  0  0  0  0  0  0  0  0  0
   11.1335    9.2224   -7.9701 C   0  0  0  0  0  0  0  0  0  0  0  0
   10.5896    8.1054   -8.5970 C   0  0  0  0  0  0  0  0  0  0  0  0
   10.4316    6.9735   -7.8255 C   0  0  0  0  0  0  0  0  0  0  0  0
   10.7879    6.9261   -6.4936 C   0  0  0  0  0  0  0  0  0  0  0  0
    9.8846    5.8605   -8.4662 C   0  0  0  0  0  0  0  0  0  0  0  0
    9.5258    5.9002   -9.7955 C   0  0  0  0  0  0  0  0  0  0  0  0
    9.7079    7.0589  -10.5128 C   0  0  0  0  0  0  0  0  0  0  0  0
    9.3798    7.1154  -11.7519 N   0  0  0  0  0  0  0  0  0  0  0  0
   10.2410    8.1555   -9.9024 N   0  0  0  0  0  0  0  0  0  0  0  0
   10.3945    9.0509  -10.4104 H   0  0  0  0  0  0  0  0  0  0  0  0
   12.4622    7.9865   -1.7416 C   0  0  0  0  0  0  0  0  0  0  0  0
   12.4205    9.1565   -2.4697 C   0  0  0  0  0  0  0  0  0  0  0  0
   12.0512    9.1765   -3.8120 C   0  0  0  0  0  0  0  0  0  0  0  0
   11.7122    8.0065   -4.4579 C   0  0  0  0  0  0  0  0  0  0  0  0
   11.7561    6.8402   -3.7235 C   0  0  0  0  0  0  0  0  0  0  0  0
   12.1225    6.8192   -2.3910 C   0  0  0  0  0  0  0  0  0  0  0  0
 34 35  2  0
 35 36  1  0
 36 37  2  0
 37 22  1  0
 22 23  2  0
 23 24  1  0
 24 25  2  0
 25 26  1  0
 26 27  2  0
 26 28  1  0
 28 29  2  0
 29 30  1  0
 30 31  2  0
 31  1  1  0
  1  2  2  0
  2  3  1  0
  3  4  2  0
  4  5  1  0
  5  6  2  0
  5  7  1  0
  7  8  2  0
  7  9  1  0
  9 10  2  0
 10 11  1  0
 11 12  2  0
 12 13  1  0
 13 14  2  0
 14 15  1  0
 15 16  1  0
 15 17  1  0
 14 18  1  0
 18 19  2  0
 19 20  1  0
 20 21  2  0
 30 32  1  0
 32 33  1  0
 37 38  1  0
 38 39  2  0
 39 34  1  0
 27 22  1  0
  6  1  1  0
 21  9  1  0
 32 25  1  0
 10  4  1  0
 20 12  1  0
M  END
>  <minimizedAffinity>  (546) 
-16.92617

$$$$
Mol: 157_33 - SminaDock
     RDKit          3D

 38 44  0  0  0  0  0  0  0  0999 V2000
   11.3019    8.0060   -5.9595 C   0  0  0  0  0  0  0  0  0  0  0  0
   11.5326    9.1024   -6.7388 C   0  0  0  0  0  0  0  0  0  0  0  0
   11.1900    9.0928   -8.0798 C   0  0  0  0  0  0  0  0  0  0  0  0
   10.6186    7.9588   -8.5921 C   0  0  0  0  0  0  0  0  0  0  0  0
   10.3787    6.8410   -7.8170 C   0  0  0  0  0  0  0  0  0  0  0  0
    9.8040    5.7230   -8.3696 C   0  0  0  0  0  0  0  0  0  0  0  0
    9.4725    5.7050   -9.6569 N   0  0  0  0  0  0  0  0  0  0  0  0
    9.7188    6.8158  -10.3957 C   0  0  0  0  0  0  0  0  0  0  0  0
    9.3877    6.7688  -11.6413 N   0  0  0  0  0  0  0  0  0  0  0  0
   10.2761    7.9211   -9.8922 N   0  0  0  0  0  0  0  0  0  0  0  0
   10.4436    8.7554  -10.5165 H   0  0  0  0  0  0  0  0  0  0  0  0
   10.7202    6.8654   -6.5026 C   0  0  0  0  0  0  0  0  0  0  0  0
    8.7918    5.6214  -12.2376 C   0  0  0  0  0  0  0  0  0  0  0  0
    9.5227    4.8178  -13.0964 C   0  0  0  0  0  0  0  0  0  0  0  0
    8.9435    3.6938  -13.6817 C   0  0  0  0  0  0  0  0  0  0  0  0
    7.6332    3.3461  -13.4277 C   0  0  0  0  0  0  0  0  0  0  0  0
    6.8962    4.1368  -12.5761 C   0  0  0  0  0  0  0  0  0  0  0  0
    7.4834    5.2575  -11.9960 C   0  0  0  0  0  0  0  0  0  0  0  0
    5.4822    3.8567  -12.2465 C   0  0  0  0  0  0  0  0  0  0  0  0
    4.9232    2.6315  -12.8508 C   0  0  0  0  0  0  0  0  0  0  0  0
    5.7349    1.8329  -13.7598 C   0  0  0  0  0  0  0  0  0  0  0  0
    7.0309    2.1646  -14.0332 C   0  0  0  0  0  0  0  0  0  0  0  0
    7.7288    1.3949  -14.8587 O   0  0  0  0  0  0  0  0  0  0  0  0
    7.2412    0.3230  -15.4336 C   0  0  0  0  0  0  0  0  0  0  0  0
    7.9357   -0.3733  -16.2050 O   0  0  0  0  0  0  0  0  0  0  0  0
    5.9374   -0.0531  -15.1896 C   0  0  0  0  0  0  0  0  0  0  0  0
    5.4155   -1.1983  -15.8048 C   0  0  0  0  0  0  0  0  0  0  0  0
    4.1031   -1.5416  -15.5346 C   0  0  0  0  0  0  0  0  0  0  0  0
    3.3270   -0.7615  -14.6708 C   0  0  0  0  0  0  0  0  0  0  0  0
    3.8414    0.3633  -14.0674 C   0  0  0  0  0  0  0  0  0  0  0  0
    5.1474    0.6863  -14.3493 C   0  0  0  0  0  0  0  0  0  0  0  0
   12.3180    6.7065   -2.6718 C   0  0  0  0  0  0  0  0  0  0  0  0
   12.3435    7.8384   -1.8871 C   0  0  0  0  0  0  0  0  0  0  0  0
   12.0230    9.0537   -2.4278 C   0  0  0  0  0  0  0  0  0  0  0  0
   11.6781    9.1142   -3.7630 C   0  0  0  0  0  0  0  0  0  0  0  0
   11.3307   10.4217   -4.3267 C   0  0  0  0  0  0  0  0  0  0  0  0
   11.6533    7.9972   -4.5370 C   0  0  0  0  0  0  0  0  0  0  0  0
   11.9749    6.7721   -3.9974 C   0  0  0  0  0  0  0  0  0  0  0  0
 32 33  2  0
 33 34  1  0
 34 35  2  0
 35 36  1  0
 35 37  1  0
 37  1  1  0
  1  2  2  0
  2  3  1  0
  3  4  2  0
  4  5  1  0
  5  6  1  0
  6  7  2  0
  7  8  1  0
  8  9  2  0
  9 13  1  0
 13 14  2  0
 14 15  1  0
 15 16  2  0
 16 17  1  0
 17 18  2  0
 17 19  1  0
 19 20  1  0
 20 21  1  0
 21 22  2  0
 22 23  1  0
 23 24  1  0
 24 25  2  0
 24 26  1  0
 26 27  2  0
 27 28  1  0
 28 29  2  0
 29 30  1  0
 30 31  2  0
  8 10  1  0
 10 11  1  0
  5 12  2  0
 37 38  2  0
 38 32  1  0
 12  1  1  0
 10  4  1  0
 18 13  1  0
 31 21  1  0
 22 16  1  0
 31 26  1  0
M  END
>  <minimizedAffinity>  (547) 
-16.86767

$$$$
Mol: 197_26 - SminaDock
     RDKit          3D

 44 51  0  0  0  0  0  0  0  0999 V2000
    8.3544   -1.1479  -18.2989 H   0  0  0  0  0  0  0  0  0  0  0  0
    7.9126   -0.3036  -17.9469 O   0  0  0  0  0  0  0  0  0  0  0  0
    6.8208   -0.3572  -17.0969 C   0  0  0  0  0  0  0  0  0  0  0  0
    5.8620   -1.3056  -17.2791 N   0  0  0  0  0  0  0  0  0  0  0  0
    4.7809   -1.4143  -16.4947 C   0  0  0  0  0  0  0  0  0  0  0  0
    4.6413   -0.5256  -15.4632 C   0  0  0  0  0  0  0  0  0  0  0  0
    5.5610    0.4533  -15.2171 C   0  0  0  0  0  0  0  0  0  0  0  0
    6.6753    0.5217  -16.0709 C   0  0  0  0  0  0  0  0  0  0  0  0
    7.4228    1.5870  -15.5930 C   0  0  0  0  0  0  0  0  0  0  0  0
    6.7781    2.1239  -14.5032 C   0  0  0  0  0  0  0  0  0  0  0  0
    5.6523    1.4240  -14.2915 N   0  0  0  0  0  0  0  0  0  0  0  0
    4.9702    1.6137  -13.5299 H   0  0  0  0  0  0  0  0  0  0  0  0
    7.4164    3.2639  -13.8322 C   0  0  0  0  0  0  0  0  0  0  0  0
    6.7746    3.8522  -12.7301 C   0  0  0  0  0  0  0  0  0  0  0  0
    7.3186    4.9353  -12.0753 C   0  0  0  0  0  0  0  0  0  0  0  0
    8.5180    5.4795  -12.4834 C   0  0  0  0  0  0  0  0  0  0  0  0
    9.1540    4.9189  -13.5524 C   0  0  0  0  0  0  0  0  0  0  0  0
    8.5987    3.8029  -14.2307 C   0  0  0  0  0  0  0  0  0  0  0  0
    9.3575    3.2407  -15.3664 C   0  0  2  0  0  0  0  0  0  0  0  0
    8.6609    2.1617  -16.0522 C   0  0  0  0  0  0  0  0  0  0  0  0
    9.2246    1.7293  -17.1282 O   0  0  0  0  0  0  0  0  0  0  0  0
   10.7305    2.7940  -14.8636 C   0  0  0  0  0  0  0  0  0  0  0  0
   11.7012    2.6235  -15.9823 C   0  0  0  0  0  0  0  0  0  0  0  0
   11.8291    3.7610  -16.7672 O   0  0  0  0  0  0  0  0  0  0  0  0
   10.6434    4.1243  -17.3524 C   0  0  0  0  0  0  0  0  0  0  0  0
    9.5362    4.3639  -16.3907 C   0  0  0  0  0  0  0  0  0  0  0  0
    9.1127    6.6073  -11.8246 N   0  0  0  0  0  0  0  0  0  0  0  0
    9.4504    6.5783  -10.5956 C   0  0  0  0  0  0  0  0  0  0  0  0
    9.2947    5.4939   -9.7599 C   0  0  0  0  0  0  0  0  0  0  0  0
    9.6769    5.5141   -8.4384 C   0  0  0  0  0  0  0  0  0  0  0  0
   10.2385    6.6742   -7.9404 C   0  0  0  0  0  0  0  0  0  0  0  0
   10.6536    6.7966   -6.6339 C   0  0  0  0  0  0  0  0  0  0  0  0
   11.2174    7.9501   -6.1198 C   0  0  0  0  0  0  0  0  0  0  0  0
   11.3585    9.0163   -6.9835 C   0  0  0  0  0  0  0  0  0  0  0  0
   10.9577    8.9285   -8.2841 C   0  0  0  0  0  0  0  0  0  0  0  0
   10.3928    7.7672   -8.7918 C   0  0  0  0  0  0  0  0  0  0  0  0
   10.0014    7.6876  -10.0701 N   0  0  0  0  0  0  0  0  0  0  0  0
   10.1346    8.5335  -10.6799 H   0  0  0  0  0  0  0  0  0  0  0  0
   11.6446    8.0356   -4.7237 C   0  0  0  0  0  0  0  0  0  0  0  0
   11.6842    6.8966   -3.9425 C   0  0  0  0  0  0  0  0  0  0  0  0
   12.0785    6.9170   -2.6213 C   0  0  0  0  0  0  0  0  0  0  0  0
   12.4513    8.1115   -2.0406 C   0  0  0  0  0  0  0  0  0  0  0  0
   12.4176    9.2592   -2.8066 C   0  0  0  0  0  0  0  0  0  0  0  0
   12.0194    9.2187   -4.1292 C   0  0  0  0  0  0  0  0  0  0  0  0
  1  2  1  0
  2  3  1  0
  3  4  2  0
  4  5  1  0
  5  6  2  0
  6  7  1  0
  7  8  2  0
  8  9  1  0
  9 10  2  0
 10 11  1  0
 11 12  1  0
 10 13  1  0
 13 14  2  0
 14 15  1  0
 15 16  2  0
 16 27  1  0
 27 28  2  0
 28 29  1  0
 29 30  2  0
 30 31  1  0
 31 32  2  0
 32 33  1  0
 33 39  1  0
 39 40  2  0
 40 41  1  0
 41 42  2  0
 42 43  1  0
 43 44  2  0
 33 34  2  0
 34 35  1  0
 35 36  2  0
 36 37  1  0
 37 38  1  0
 16 17  1  0
 17 18  2  0
 18 19  1  0
 19 20  1  0
 20 21  2  0
 19 22  1  1
 22 23  1  0
 23 24  1  0
 24 25  1  0
 25 26  1  0
  8  3  1  0
 20  9  1  0
 11  7  1  0
 18 13  1  0
 26 19  1  0
 37 28  1  0
 36 31  1  0
 44 39  1  0
M  END
>  <minimizedAffinity>  (548) 
-16.92496

$$$$
Mol: 199_9 - SminaDock
     RDKit          3D

 41 48  0  0  0  0  0  0  0  0999 V2000
    8.6165    4.2843  -14.1394 C   0  0  0  0  0  0  0  0  0  0  0  0
    9.2436    5.3371  -13.5943 N   0  0  0  0  0  0  0  0  0  0  0  0
    8.7555    5.9461  -12.5084 C   0  0  0  0  0  0  0  0  0  0  0  0
    7.5986    5.4906  -11.9427 C   0  0  0  0  0  0  0  0  0  0  0  0
    6.9126    4.3987  -12.4762 C   0  0  0  0  0  0  0  0  0  0  0  0
    7.4382    3.7982  -13.5869 C   0  0  0  0  0  0  0  0  0  0  0  0
    6.5398    2.6985  -13.9358 C   0  0  0  0  0  0  0  0  0  0  0  0
    6.6635    1.7984  -14.9985 C   0  0  0  0  0  0  0  0  0  0  0  0
    5.6757    0.8314  -15.1255 C   0  0  0  0  0  0  0  0  0  0  0  0
    4.6232    0.7498  -14.2588 C   0  0  0  0  0  0  0  0  0  0  0  0
    4.5204    1.6333  -13.2325 C   0  0  0  0  0  0  0  0  0  0  0  0
    5.4893    2.6325  -13.0544 C   0  0  0  0  0  0  0  0  0  0  0  0
    5.6581    3.7075  -12.0716 C   0  0  0  0  0  0  0  0  0  0  0  0
    3.6128   -0.3280  -14.4817 C   0  0  0  0  0  0  0  0  0  0  0  0
    4.2189   -1.5164  -14.9711 O   0  0  0  0  0  0  0  0  0  0  0  0
    5.3779   -1.4699  -15.7525 C   0  0  0  0  0  0  0  0  0  0  0  0
    5.9788   -2.5270  -15.9831 O   0  0  0  0  0  0  0  0  0  0  0  0
    5.7873   -0.1309  -16.2421 C   0  0  2  0  0  0  0  0  0  0  0  0
    7.1251   -0.1320  -16.8507 C   0  0  0  0  0  0  0  0  0  0  0  0
    8.1148   -0.8673  -16.6328 O   0  0  0  0  0  0  0  0  0  0  0  0
    7.1478    0.8916  -17.7925 O   0  0  0  0  0  0  0  0  0  0  0  0
    5.8320    1.2932  -18.1103 C   0  0  0  0  0  0  0  0  0  0  0  0
    4.9082    0.3422  -17.3800 C   0  0  0  0  0  0  0  0  0  0  0  0
    9.4090    7.0586  -11.9231 N   0  0  0  0  0  0  0  0  0  0  0  0
    9.7059    7.0178  -10.6809 C   0  0  0  0  0  0  0  0  0  0  0  0
    9.4092    5.9446   -9.9321 N   0  0  0  0  0  0  0  0  0  0  0  0
    9.7159    5.8779   -8.6048 C   0  0  0  0  0  0  0  0  0  0  0  0
   10.3518    6.9342   -7.9865 C   0  0  0  0  0  0  0  0  0  0  0  0
   10.6930    6.9384   -6.6485 C   0  0  0  0  0  0  0  0  0  0  0  0
   11.3285    7.9960   -6.0333 C   0  0  0  0  0  0  0  0  0  0  0  0
   11.6220    9.0952   -6.8411 C   0  0  0  0  0  0  0  0  0  0  0  0
   11.2844    9.0981   -8.1780 C   0  0  0  0  0  0  0  0  0  0  0  0
   10.6508    8.0339   -8.7735 C   0  0  0  0  0  0  0  0  0  0  0  0
   10.3254    8.0482  -10.0816 N   0  0  0  0  0  0  0  0  0  0  0  0
   10.5526    8.8874  -10.6864 H   0  0  0  0  0  0  0  0  0  0  0  0
   11.6774    7.9752   -4.6203 C   0  0  0  0  0  0  0  0  0  0  0  0
   12.0747    9.1442   -3.9967 C   0  0  0  0  0  0  0  0  0  0  0  0
   12.4121    9.1580   -2.6601 C   0  0  0  0  0  0  0  0  0  0  0  0
   12.3629    8.0035   -1.9037 C   0  0  0  0  0  0  0  0  0  0  0  0
   11.9707    6.8221   -2.4964 C   0  0  0  0  0  0  0  0  0  0  0  0
   11.6418    6.8477   -3.8326 C   0  0  0  0  0  0  0  0  0  0  0  0
  1  2  2  0
  2  3  1  0
  3 24  1  0
 24 25  2  0
 25 26  1  0
 26 27  2  0
 27 28  1  0
 28 29  2  0
 29 30  1  0
 30 36  1  0
 36 37  2  0
 37 38  1  0
 38 39  2  0
 39 40  1  0
 40 41  2  0
 30 31  2  0
 31 32  1  0
 32 33  2  0
 33 34  1  0
 34 35  1  0
  3  4  2  0
  4  5  1  0
  5  6  2  0
  6  7  1  0
  7  8  2  0
  8  9  1  0
  9 10  2  0
 10 11  1  0
 11 12  2  0
 12 13  1  0
 10 14  1  0
 14 15  1  0
 15 16  1  0
 16 17  2  0
 16 18  1  0
 18 19  1  0
 19 20  2  0
 19 21  1  0
 21 22  1  0
 22 23  1  0
  6  1  1  0
 12  7  1  0
 18 23  1  6
 34 25  1  0
 13  5  1  0
 33 28  1  0
 18  9  1  0
 41 36  1  0
M  END
>  <minimizedAffinity>  (549) 
-16.89440

$$$$
Mol: 123_15 - SminaDock
     RDKit          3D

 37 43  0  0  0  0  0  0  0  0999 V2000
    9.4944    5.3384  -13.8840 N   0  0  0  0  0  0  0  0  0  0  0  0
    9.8222    5.8843  -12.7571 C   0  0  0  0  0  0  0  0  0  0  0  0
   10.6650    6.9482  -12.7526 N   0  0  0  0  0  0  0  0  0  0  0  0
   11.0299    7.5367  -11.6065 C   0  0  0  0  0  0  0  0  0  0  0  0
   10.5624    7.0814  -10.3975 C   0  0  0  0  0  0  0  0  0  0  0  0
   10.9324    7.6747   -9.2077 C   0  0  0  0  0  0  0  0  0  0  0  0
   10.4628    7.2100   -7.9977 C   0  0  0  0  0  0  0  0  0  0  0  0
    9.6043    6.1216   -8.0446 C   0  0  0  0  0  0  0  0  0  0  0  0
    9.2295    5.5229   -9.2333 C   0  0  0  0  0  0  0  0  0  0  0  0
    9.7049    5.9947  -10.4434 C   0  0  0  0  0  0  0  0  0  0  0  0
    9.3440    5.4111  -11.5981 N   0  0  0  0  0  0  0  0  0  0  0  0
    8.6801    4.5759  -11.5999 H   0  0  0  0  0  0  0  0  0  0  0  0
    8.9287    3.2541  -14.9381 C   0  0  0  0  0  0  0  0  0  0  0  0
    8.0784    2.1837  -15.0430 C   0  0  0  0  0  0  0  0  0  0  0  0
    6.9411    2.0609  -14.2435 C   0  0  0  0  0  0  0  0  0  0  0  0
    6.6264    3.0169  -13.3091 C   0  0  0  0  0  0  0  0  0  0  0  0
    7.5053    4.1063  -13.2148 C   0  0  0  0  0  0  0  0  0  0  0  0
    8.6220    4.2247  -14.0028 C   0  0  0  0  0  0  0  0  0  0  0  0
    5.4705    2.9024  -12.4163 C   0  0  0  0  0  0  0  0  0  0  0  0
    4.4381    1.9102  -12.7849 C   0  0  0  0  0  0  0  0  0  0  0  0
    4.8878    0.8366  -13.6848 C   0  0  0  0  0  0  0  0  0  0  0  0
    4.1357   -0.2888  -13.8634 N   0  0  0  0  0  0  0  0  0  0  0  0
    4.5046   -1.2250  -14.7088 N   0  0  0  0  0  0  0  0  0  0  0  0
    5.6351   -1.0921  -15.4183 C   0  0  0  0  0  0  0  0  0  0  0  0
    5.9759   -2.0004  -16.2285 O   0  0  0  0  0  0  0  0  0  0  0  0
    6.4336   -0.0190  -15.3036 N   0  0  0  0  0  0  0  0  0  0  0  0
    6.0251    0.9375  -14.4157 C   0  0  0  0  0  0  0  0  0  0  0  0
   10.8479    7.8319   -6.7332 C   0  0  0  0  0  0  0  0  0  0  0  0
   10.8743    9.1869   -6.5635 C   0  0  0  0  0  0  0  0  0  0  0  0
   11.2450    9.7537   -5.3536 C   0  0  0  0  0  0  0  0  0  0  0  0
   11.6025    8.9442   -4.2751 C   0  0  0  0  0  0  0  0  0  0  0  0
   11.9745    9.4470   -3.0651 C   0  0  0  0  0  0  0  0  0  0  0  0
   12.3207    8.5847   -2.0245 C   0  0  0  0  0  0  0  0  0  0  0  0
   12.2983    7.2008   -2.1834 C   0  0  0  0  0  0  0  0  0  0  0  0
   11.9203    6.7003   -3.4107 C   0  0  0  0  0  0  0  0  0  0  0  0
   11.5807    7.5670   -4.4324 C   0  0  0  0  0  0  0  0  0  0  0  0
   11.2100    7.0569   -5.6372 C   0  0  0  0  0  0  0  0  0  0  0  0
 13 14  2  0
 14 15  1  0
 15 16  2  0
 16 17  1  0
 17 18  2  0
 18  1  1  0
  1  2  2  0
  2  3  1  0
  3  4  2  0
  4  5  1  0
  5  6  2  0
  6  7  1  0
  7 28  1  0
 28 29  2  0
 29 30  1  0
 30 31  2  0
 31 32  1  0
 32 33  2  0
 33 34  1  0
 34 35  2  0
 35 36  1  0
 36 37  2  0
  7  8  2  0
  8  9  1  0
  9 10  2  0
 10 11  1  0
 11 12  1  0
 16 19  1  0
 19 20  1  0
 20 21  1  0
 21 22  2  0
 22 23  1  0
 23 24  1  0
 24 25  2  0
 24 26  1  0
 26 27  2  0
 18 13  1  0
 11  2  1  0
 27 21  1  0
 27 15  1  0
 10  5  1  0
 37 28  1  0
 36 31  1  0
M  CHG  1  23  -1
M  END
>  <minimizedAffinity>  (550) 
-16.88102

$$$$
Mol: 121_53 - SminaDock
     RDKit          3D

 41 47  0  0  0  0  0  0  0  0999 V2000
    7.6833    4.5843  -12.6232 C   0  0  0  0  0  0  0  0  0  0  0  0
    6.4659    4.3631  -12.0121 C   0  0  0  0  0  0  0  0  0  0  0  0
    5.7039    3.2746  -12.3801 C   0  0  0  0  0  0  0  0  0  0  0  0
    6.1013    2.3665  -13.3541 C   0  0  0  0  0  0  0  0  0  0  0  0
    7.3079    2.5854  -13.9603 C   0  0  0  0  0  0  0  0  0  0  0  0
    8.0745    3.6728  -13.5960 C   0  0  0  0  0  0  0  0  0  0  0  0
    7.9388    1.7563  -15.0279 C   0  0  2  0  0  0  0  0  0  0  0  0
    9.4014    2.0099  -15.0224 C   0  0  0  0  0  0  0  0  0  0  0  0
   10.0427    1.7532  -13.9754 O   0  0  0  0  0  0  0  0  0  0  0  0
   10.0954    2.5258  -16.1451 N   0  0  0  0  0  0  0  0  0  0  0  0
   11.0318    2.9937  -16.0846 H   0  0  0  0  0  0  0  0  0  0  0  0
    9.5163    2.4199  -17.4495 C   0  0  0  0  0  0  0  0  0  0  0  0
   10.0903    2.7963  -18.5003 O   0  0  0  0  0  0  0  0  0  0  0  0
    8.1737    1.8346  -17.5394 C   0  0  0  0  0  0  0  0  0  0  0  0
    7.3109    2.1225  -16.3528 C   0  0  0  0  0  0  0  0  0  0  0  0
    7.7449    0.2806  -14.8158 C   0  0  0  0  0  0  0  0  0  0  0  0
    6.3565   -0.1100  -15.1988 C   0  0  0  0  0  0  0  0  0  0  0  0
    6.2535   -1.0056  -16.2165 C   0  0  0  0  0  0  0  0  0  0  0  0
    5.0290   -1.4411  -16.6607 C   0  0  0  0  0  0  0  0  0  0  0  0
    3.9023   -0.9577  -16.0601 C   0  0  0  0  0  0  0  0  0  0  0  0
    4.0146   -0.0516  -15.0308 C   0  0  0  0  0  0  0  0  0  0  0  0
    5.2346    0.3985  -14.5698 C   0  0  0  0  0  0  0  0  0  0  0  0
    5.0470    1.3431  -13.4841 C   0  0  0  0  0  0  0  0  0  0  0  0
   11.1316    7.6205   -6.8866 C   0  0  0  0  0  0  0  0  0  0  0  0
   11.4165    8.5115   -7.9251 C   0  0  0  0  0  0  0  0  0  0  0  0
   10.9303    8.2766   -9.1929 C   0  0  0  0  0  0  0  0  0  0  0  0
   10.1552    7.1762   -9.4966 C   0  0  0  0  0  0  0  0  0  0  0  0
    9.8692    6.2933   -8.4826 C   0  0  0  0  0  0  0  0  0  0  0  0
    9.0984    5.2004   -8.7881 C   0  0  0  0  0  0  0  0  0  0  0  0
    8.6550    5.0296  -10.0454 N   0  0  0  0  0  0  0  0  0  0  0  0
    8.9218    5.8793  -11.0533 C   0  0  0  0  0  0  0  0  0  0  0  0
    8.4824    5.6964  -12.2629 N   0  0  0  0  0  0  0  0  0  0  0  0
    9.6819    6.9524  -10.7407 N   0  0  0  0  0  0  0  0  0  0  0  0
    9.8972    7.6221  -11.5119 H   0  0  0  0  0  0  0  0  0  0  0  0
   10.3564    6.5279   -7.2109 C   0  0  0  0  0  0  0  0  0  0  0  0
   12.5993    8.2912   -2.9642 C   0  0  0  0  0  0  0  0  0  0  0  0
   12.8669    9.2076   -3.9511 C   0  0  0  0  0  0  0  0  0  0  0  0
   12.3848    8.9753   -5.2150 C   0  0  0  0  0  0  0  0  0  0  0  0
   11.6415    7.8592   -5.5390 C   0  0  0  0  0  0  0  0  0  0  0  0
   11.3880    6.9557   -4.5280 C   0  0  0  0  0  0  0  0  0  0  0  0
   11.8665    7.1659   -3.2299 C   0  0  0  0  0  0  0  0  0  0  0  0
 36 37  2  0
 37 38  1  0
 38 39  2  0
 39 24  1  0
 24 25  2  0
 25 26  1  0
 26 27  2  0
 27 28  1  0
 28 29  1  0
 29 30  2  0
 30 31  1  0
 31 32  2  0
 32  1  1  0
  1  2  2  0
  2  3  1  0
  3  4  2  0
  4  5  1  0
  5  6  2  0
  5  7  1  0
  7  8  1  0
  8  9  2  0
  8 10  1  0
 10 11  1  0
 10 12  1  0
 12 13  2  0
 12 14  1  0
 14 15  1  0
  7 16  1  1
 16 17  1  0
 17 18  2  0
 18 19  1  0
 19 20  2  0
 20 21  1  0
 21 22  2  0
 22 23  1  0
 31 33  1  0
 33 34  1  0
 28 35  2  0
 39 40  1  0
 40 41  2  0
 41 36  1  0
 35 24  1  0
 33 27  1  0
  6  1  1  0
 15  7  1  0
 22 17  1  0
 23  4  1  0
M  END
>  <minimizedAffinity>  (551) 
-16.88448

$$$$
Mol: 122_45 - SminaDock
     RDKit          3D

 39 45  0  0  0  0  0  0  0  0999 V2000
   10.1647   -1.6077  -15.6509 H   0  0  0  0  0  0  0  0  0  0  0  0
   10.2019   -0.6578  -15.9390 O   0  0  0  0  0  0  0  0  0  0  0  0
    9.2731    0.3241  -15.6973 C   0  0  0  0  0  0  0  0  0  0  0  0
    8.7218    1.0427  -16.6908 C   0  0  0  0  0  0  0  0  0  0  0  0
    7.8203    1.9591  -16.1346 N   0  0  0  0  0  0  0  0  0  0  0  0
    7.3471    2.8028  -16.5509 H   0  0  0  0  0  0  0  0  0  0  0  0
    7.5829    1.5689  -14.7549 C   0  0  2  0  0  0  0  0  0  0  0  0
    6.3192    0.8239  -14.6694 C   0  0  0  0  0  0  0  0  0  0  0  0
    5.8419   -0.3494  -15.2705 C   0  0  0  0  0  0  0  0  0  0  0  0
    4.5774   -0.8194  -14.9886 C   0  0  0  0  0  0  0  0  0  0  0  0
    3.7253   -0.1766  -14.1172 C   0  0  0  0  0  0  0  0  0  0  0  0
    4.1865    0.9757  -13.5232 C   0  0  0  0  0  0  0  0  0  0  0  0
    5.4714    1.4622  -13.8034 C   0  0  0  0  0  0  0  0  0  0  0  0
    6.1643    2.6385  -13.3058 C   0  0  0  0  0  0  0  0  0  0  0  0
    5.7116    3.6034  -12.4007 C   0  0  0  0  0  0  0  0  0  0  0  0
    6.5105    4.6624  -12.0386 C   0  0  0  0  0  0  0  0  0  0  0  0
    7.7669    4.7541  -12.5858 C   0  0  0  0  0  0  0  0  0  0  0  0
    8.1941    3.7906  -13.4774 C   0  0  0  0  0  0  0  0  0  0  0  0
    7.4213    2.7152  -13.8637 C   0  0  0  0  0  0  0  0  0  0  0  0
    8.7361    0.7604  -14.4573 N   0  0  0  0  0  0  0  0  0  0  0  0
    9.1467    0.5077  -13.5371 H   0  0  0  0  0  0  0  0  0  0  0  0
    8.6563    5.8249  -12.2599 N   0  0  0  0  0  0  0  0  0  0  0  0
    9.0701    6.0092  -11.0432 C   0  0  0  0  0  0  0  0  0  0  0  0
    9.9059    7.0236  -10.7642 N   0  0  0  0  0  0  0  0  0  0  0  0
   10.3448    7.2247   -9.4919 C   0  0  0  0  0  0  0  0  0  0  0  0
   11.2032    8.2633   -9.1897 C   0  0  0  0  0  0  0  0  0  0  0  0
   11.6496    8.4660   -7.8855 C   0  0  0  0  0  0  0  0  0  0  0  0
   11.2500    7.6388   -6.8580 C   0  0  0  0  0  0  0  0  0  0  0  0
   10.3937    6.6057   -7.1697 C   0  0  0  0  0  0  0  0  0  0  0  0
    9.9478    6.3999   -8.4611 C   0  0  0  0  0  0  0  0  0  0  0  0
    9.0908    5.3665   -8.7703 C   0  0  0  0  0  0  0  0  0  0  0  0
    8.6829    5.2049  -10.0380 N   0  0  0  0  0  0  0  0  0  0  0  0
    8.0230    4.4048  -10.2610 H   0  0  0  0  0  0  0  0  0  0  0  0
   11.6782    7.7974   -5.4783 C   0  0  0  0  0  0  0  0  0  0  0  0
   12.4131    8.8938   -5.0417 C   0  0  0  0  0  0  0  0  0  0  0  0
   12.8059    9.0167   -3.7260 C   0  0  0  0  0  0  0  0  0  0  0  0
   12.4897    8.0617   -2.7843 C   0  0  0  0  0  0  0  0  0  0  0  0
   11.7595    6.9687   -3.2096 C   0  0  0  0  0  0  0  0  0  0  0  0
   11.3652    6.8458   -4.5315 C   0  0  0  0  0  0  0  0  0  0  0  0
  1  2  1  0
  2  3  1  0
  3  4  2  0
  4  5  1  0
  5  6  1  0
  7  5  1  6
  7  8  1  0
  8  9  2  0
  9 10  1  0
 10 11  2  0
 11 12  1  0
 12 13  2  0
 13 14  1  0
 14 15  2  0
 15 16  1  0
 16 17  2  0
 17 22  1  0
 22 23  2  0
 23 24  1  0
 24 25  2  0
 25 26  1  0
 26 27  2  0
 27 28  1  0
 28 34  1  0
 34 35  2  0
 35 36  1  0
 36 37  2  0
 37 38  1  0
 38 39  2  0
 28 29  2  0
 29 30  1  0
 30 31  2  0
 31 32  1  0
 32 33  1  0
 17 18  1  0
 18 19  2  0
  7 20  1  0
 20 21  1  0
 20  3  1  0
 19  7  1  0
 13  8  1  0
 19 14  1  0
 32 23  1  0
 30 25  1  0
 39 34  1  0
M  END
>  <minimizedAffinity>  (552) 
-16.86499

$$$$
Mol: 197_44 - SminaDock
     RDKit          3D

 40 46  0  0  0  0  0  0  0  0999 V2000
    2.2851   -2.0130  -14.8787 H   0  0  0  0  0  0  0  0  0  0  0  0
    2.6366   -1.1786  -14.3681 N   0  0  0  0  0  0  0  0  0  0  0  0
    3.7716   -0.6792  -14.7116 C   0  0  0  0  0  0  0  0  0  0  0  0
    4.4713   -1.2267  -15.6996 N   0  0  0  0  0  0  0  0  0  0  0  0
    5.6574   -0.7213  -16.0730 C   0  0  0  0  0  0  0  0  0  0  0  0
    6.3382   -1.2283  -17.0109 O   0  0  0  0  0  0  0  0  0  0  0  0
    6.1725    0.3945  -15.4217 C   0  0  0  0  0  0  0  0  0  0  0  0
    7.3851    0.9075  -15.8057 C   0  0  0  0  0  0  0  0  0  0  0  0
    7.9225    2.0391  -15.1549 C   0  0  0  0  0  0  0  0  0  0  0  0
    7.2001    2.6052  -14.1355 C   0  0  0  0  0  0  0  0  0  0  0  0
    5.9673    2.0834  -13.7446 C   0  0  0  0  0  0  0  0  0  0  0  0
    5.4480    0.9763  -14.3852 C   0  0  0  0  0  0  0  0  0  0  0  0
    4.2740    0.4123  -14.0734 N   0  0  0  0  0  0  0  0  0  0  0  0
    3.7196    0.8345  -13.3010 H   0  0  0  0  0  0  0  0  0  0  0  0
    7.7525    3.7867  -13.4794 C   0  0  0  0  0  0  0  0  0  0  0  0
    7.1013    4.4048  -12.4379 C   0  0  0  0  0  0  0  0  0  0  0  0
    7.5960    5.5016  -11.7933 N   0  0  0  0  0  0  0  0  0  0  0  0
    8.7715    6.0035  -12.1905 C   0  0  0  0  0  0  0  0  0  0  0  0
    9.4943    5.4526  -13.2230 C   0  0  0  0  0  0  0  0  0  0  0  0
    8.9612    4.3360  -13.8581 C   0  0  0  0  0  0  0  0  0  0  0  0
    9.7393    3.7725  -14.9668 C   0  0  0  0  0  0  0  0  0  0  0  0
    9.2276    2.5440  -15.5842 C   0  0  0  0  0  0  0  0  0  0  0  0
    9.2956    7.1479  -11.5225 N   0  0  0  0  0  0  0  0  0  0  0  0
    9.6480    7.0733  -10.2836 C   0  0  0  0  0  0  0  0  0  0  0  0
    9.5392    5.9374   -9.5824 N   0  0  0  0  0  0  0  0  0  0  0  0
    9.9178    5.9108   -8.2991 C   0  0  0  0  0  0  0  0  0  0  0  0
   10.4155    7.0549   -7.7159 C   0  0  0  0  0  0  0  0  0  0  0  0
   10.8122    7.0307   -6.3740 C   0  0  0  0  0  0  0  0  0  0  0  0
   11.3158    8.1521   -5.7487 C   0  0  0  0  0  0  0  0  0  0  0  0
   11.4206    9.3124   -6.4863 C   0  0  0  0  0  0  0  0  0  0  0  0
   11.0335    9.3534   -7.8124 C   0  0  0  0  0  0  0  0  0  0  0  0
   10.5321    8.2284   -8.4267 C   0  0  0  0  0  0  0  0  0  0  0  0
   10.1390    8.2048   -9.7106 N   0  0  0  0  0  0  0  0  0  0  0  0
   10.2323    9.1062  -10.2445 H   0  0  0  0  0  0  0  0  0  0  0  0
   11.7167    8.0856   -4.3518 C   0  0  0  0  0  0  0  0  0  0  0  0
   12.0224    9.2280   -3.6453 C   0  0  0  0  0  0  0  0  0  0  0  0
   12.4077    9.1777   -2.3100 C   0  0  0  0  0  0  0  0  0  0  0  0
   12.4867    7.9683   -1.6776 C   0  0  0  0  0  0  0  0  0  0  0  0
   12.1778    6.8307   -2.3964 C   0  0  0  0  0  0  0  0  0  0  0  0
   11.7946    6.8569   -3.7176 C   0  0  0  0  0  0  0  0  0  0  0  0
  1  2  1  0
  2  3  2  0
  3  4  1  0
  4  5  1  0
  5  6  2  0
  5  7  1  0
  7  8  2  0
  8  9  1  0
  9 10  2  0
 10 11  1  0
 11 12  2  0
 12 13  1  0
 13 14  1  0
 10 15  1  0
 15 16  2  0
 16 17  1  0
 17 18  2  0
 18 23  1  0
 23 24  2  0
 24 25  1  0
 25 26  2  0
 26 27  1  0
 27 28  2  0
 28 29  1  0
 29 35  1  0
 35 36  2  0
 36 37  1  0
 37 38  2  0
 38 39  1  0
 39 40  2  0
 29 30  2  0
 30 31  1  0
 31 32  2  0
 32 33  1  0
 33 34  1  0
 18 19  1  0
 19 20  2  0
 20 21  1  0
 21 22  1  0
 13  3  1  0
 20 15  1  0
 12  7  1  0
 33 24  1  0
 22  9  1  0
 32 27  1  0
 40 35  1  0
M  CHG  1   4  -1
M  END
>  <minimizedAffinity>  (553) 
-16.85789

$$$$
Mol: 142_53 - SminaDock
     RDKit          3D

 37 43  0  0  0  0  0  0  0  0999 V2000
    2.5458   -0.0287  -13.0034 H   0  0  0  0  0  0  0  0  0  0  0  0
    3.0805    0.5884  -13.6027 O   0  0  0  0  0  0  0  0  0  0  0  0
    4.1953    0.1745  -14.3289 C   0  0  0  0  0  0  0  0  0  0  0  0
    4.2048   -0.9182  -15.0707 C   0  0  0  0  0  0  0  0  0  0  0  0
    5.5382   -1.0537  -15.6974 C   0  0  0  0  0  0  0  0  0  0  0  0
    6.3026    0.1088  -15.2174 C   0  0  0  0  0  0  0  0  0  0  0  0
    7.5875    0.5234  -15.4507 C   0  0  0  0  0  0  0  0  0  0  0  0
    8.1139    1.6868  -14.8760 C   0  0  0  0  0  0  0  0  0  0  0  0
    7.2982    2.4058  -14.0650 C   0  0  0  0  0  0  0  0  0  0  0  0
    6.0128    1.9990  -13.8240 C   0  0  0  0  0  0  0  0  0  0  0  0
    5.4747    0.8358  -14.3951 C   0  0  0  0  0  0  0  0  0  0  0  0
    5.1260    2.7281  -12.9112 C   0  0  0  0  0  0  0  0  0  0  0  0
    5.5217    4.0805  -12.5139 C   0  0  0  0  0  0  0  0  0  0  0  0
    6.9299    4.4034  -12.7051 C   0  0  0  0  0  0  0  0  0  0  0  0
    7.4625    5.5742  -12.1109 C   0  0  0  0  0  0  0  0  0  0  0  0
    8.7577    5.9321  -12.3079 C   0  0  0  0  0  0  0  0  0  0  0  0
    9.5761    5.1670  -13.0860 C   0  0  0  0  0  0  0  0  0  0  0  0
    9.1027    4.0228  -13.6811 C   0  0  0  0  0  0  0  0  0  0  0  0
    7.7886    3.6571  -13.4818 C   0  0  0  0  0  0  0  0  0  0  0  0
    9.2656    7.1009  -11.7059 N   0  0  0  0  0  0  0  0  0  0  0  0
    9.6170    7.0765  -10.4869 C   0  0  0  0  0  0  0  0  0  0  0  0
    9.5097    5.9486   -9.7674 N   0  0  0  0  0  0  0  0  0  0  0  0
    9.8772    5.9045   -8.4761 C   0  0  0  0  0  0  0  0  0  0  0  0
   10.3839    7.0126   -7.8199 C   0  0  0  0  0  0  0  0  0  0  0  0
   10.7664    6.9817   -6.4918 C   0  0  0  0  0  0  0  0  0  0  0  0
   11.2688    8.1006   -5.8610 C   0  0  0  0  0  0  0  0  0  0  0  0
   11.3745    9.2537   -6.6101 C   0  0  0  0  0  0  0  0  0  0  0  0
   10.9908    9.2786   -7.9369 C   0  0  0  0  0  0  0  0  0  0  0  0
   10.4884    8.1642   -8.5716 C   0  0  0  0  0  0  0  0  0  0  0  0
   10.1078    8.1634   -9.8641 N   0  0  0  0  0  0  0  0  0  0  0  0
   10.2156    9.0832  -10.3817 H   0  0  0  0  0  0  0  0  0  0  0  0
   11.6812    8.0848   -4.4472 C   0  0  0  0  0  0  0  0  0  0  0  0
   11.7198    6.8976   -3.7612 C   0  0  0  0  0  0  0  0  0  0  0  0
   12.1025    6.8766   -2.4473 C   0  0  0  0  0  0  0  0  0  0  0  0
   12.4562    8.0306   -1.7814 C   0  0  0  0  0  0  0  0  0  0  0  0
   12.4184    9.2213   -2.4667 C   0  0  0  0  0  0  0  0  0  0  0  0
   12.0334    9.2420   -3.7882 C   0  0  0  0  0  0  0  0  0  0  0  0
  1  2  1  0
  2  3  1  0
  3  4  2  0
  4  5  1  0
  5  6  1  0
  6  7  2  0
  7  8  1  0
  8  9  2  0
  9 10  1  0
 10 11  2  0
 10 12  1  0
 12 13  1  0
 13 14  1  0
 14 15  2  0
 15 16  1  0
 16 20  1  0
 20 21  2  0
 21 22  1  0
 22 23  2  0
 23 24  1  0
 24 25  2  0
 25 26  1  0
 26 32  1  0
 32 33  2  0
 33 34  1  0
 34 35  2  0
 35 36  1  0
 36 37  2  0
 26 27  2  0
 27 28  1  0
 28 29  2  0
 29 30  1  0
 30 31  1  0
 16 17  2  0
 17 18  1  0
 18 19  2  0
 11  3  1  0
 19 14  1  0
 11  6  1  0
 30 21  1  0
 19  9  1  0
 29 24  1  0
 37 32  1  0
M  END
>  <minimizedAffinity>  (554) 
-16.86806

$$$$
Mol: 173_28 - SminaDock
     RDKit          3D

 46 53  0  0  0  0  0  0  0  0999 V2000
    6.5803    3.6450  -12.4340 C   0  0  0  0  0  0  0  0  0  0  0  0
    5.3701    3.0300  -12.4271 C   0  0  0  0  0  0  0  0  0  0  0  0
    5.0739    2.0592  -13.3400 C   0  0  0  0  0  0  0  0  0  0  0  0
    6.0003    1.6850  -14.2875 C   0  0  0  0  0  0  0  0  0  0  0  0
    7.2336    2.2687  -14.3426 C   0  0  0  0  0  0  0  0  0  0  0  0
    7.5130    3.2496  -13.4087 C   0  0  0  0  0  0  0  0  0  0  0  0
    8.0610    1.7002  -15.4544 C   0  0  1  0  0  0  0  0  0  0  0  0
    8.3286    2.8430  -16.3791 C   0  0  0  0  0  0  0  0  0  0  0  0
    9.6957    3.4593  -16.2019 C   0  0  0  0  0  0  0  0  0  0  0  0
   10.7021    2.5161  -16.1438 O   0  0  0  0  0  0  0  0  0  0  0  0
   10.5792    1.6258  -15.1086 C   0  0  0  0  0  0  0  0  0  0  0  0
    9.2538    1.0805  -14.8106 C   0  0  0  0  0  0  0  0  0  0  0  0
    7.1169    0.7083  -16.0051 C   0  0  0  0  0  0  0  0  0  0  0  0
    5.9185    0.6993  -15.3331 C   0  0  0  0  0  0  0  0  0  0  0  0
    4.9111   -0.1552  -15.7023 N   0  0  0  0  0  0  0  0  0  0  0  0
    5.0396   -1.0141  -16.7223 C   0  0  0  0  0  0  0  0  0  0  0  0
    4.0038   -1.8841  -17.0927 O   0  0  0  0  0  0  0  0  0  0  0  0
    6.2189   -1.0357  -17.4165 C   0  0  0  0  0  0  0  0  0  0  0  0
    6.3861   -1.9077  -18.4714 C   0  0  0  0  0  0  0  0  0  0  0  0
    7.5812   -1.9160  -19.1588 C   0  0  0  0  0  0  0  0  0  0  0  0
    8.6296   -1.0780  -18.8310 C   0  0  0  0  0  0  0  0  0  0  0  0
    8.4060   -0.2256  -17.7656 C   0  0  0  0  0  0  0  0  0  0  0  0
    7.2468   -0.1756  -17.0528 C   0  0  0  0  0  0  0  0  0  0  0  0
    3.5112   -2.4341  -16.4003 H   0  0  0  0  0  0  0  0  0  0  0  0
    9.1768    4.7849  -12.1987 O   0  0  0  0  0  0  0  0  0  0  0  0
    8.2968    5.2147  -11.4363 C   0  0  0  0  0  0  0  0  0  0  0  0
    8.5787    6.2358  -10.4847 N   0  0  0  0  0  0  0  0  0  0  0  0
    7.0018    4.6599  -11.5401 N   0  0  0  0  0  0  0  0  0  0  0  0
    7.7490    6.5237   -9.8851 H   0  0  0  0  0  0  0  0  0  0  0  0
    6.2951    5.0760  -10.8547 H   0  0  0  0  0  0  0  0  0  0  0  0
    9.8402    6.8462  -10.3140 C   0  0  0  0  0  0  0  0  0  0  0  0
   10.7482    7.1163  -11.2908 C   0  0  0  0  0  0  0  0  0  0  0  0
   11.9654    7.7309  -10.9633 C   0  0  0  0  0  0  0  0  0  0  0  0
   12.2770    8.0740   -9.6746 C   0  0  0  0  0  0  0  0  0  0  0  0
   11.3652    7.8046   -8.6821 C   0  0  0  0  0  0  0  0  0  0  0  0
   10.1821    7.2047   -9.0169 C   0  0  0  0  0  0  0  0  0  0  0  0
   11.6293    8.1440   -7.2796 C   0  0  0  0  0  0  0  0  0  0  0  0
   12.1305    9.3961   -6.9985 C   0  0  0  0  0  0  0  0  0  0  0  0
   12.3794    9.7180   -5.6870 C   0  0  0  0  0  0  0  0  0  0  0  0
   12.1259    8.7899   -4.6781 C   0  0  0  0  0  0  0  0  0  0  0  0
   12.3688    9.0963   -3.3679 C   0  0  0  0  0  0  0  0  0  0  0  0
   12.1214    8.1824   -2.3527 C   0  0  0  0  0  0  0  0  0  0  0  0
   11.6191    6.9427   -2.6951 C   0  0  0  0  0  0  0  0  0  0  0  0
   11.3660    6.6088   -4.0026 C   0  0  0  0  0  0  0  0  0  0  0  0
   11.6255    7.5448   -4.9796 C   0  0  0  0  0  0  0  0  0  0  0  0
   11.3725    7.2139   -6.2969 C   0  0  0  0  0  0  0  0  0  0  0  0
 25 26  2  0
 26 27  1  0
 27 31  1  0
 31 32  2  0
 32 33  1  0
 33 34  2  0
 34 35  1  0
 35 37  1  0
 37 38  2  0
 38 39  1  0
 39 40  2  0
 40 41  1  0
 41 42  2  0
 42 43  1  0
 43 44  2  0
 44 45  1  0
 45 46  2  0
 35 36  2  0
 26 28  1  0
 28  1  1  0
  1  2  2  0
  2  3  1  0
  3  4  2  0
  4  5  1  0
  5  6  2  0
  5  7  1  0
  7  8  1  6
  8  9  1  0
  9 10  1  0
 10 11  1  0
 11 12  1  0
  7 13  1  0
 13 14  2  0
 14 15  1  0
 15 16  2  0
 16 17  1  0
 16 18  1  0
 18 19  2  0
 19 20  1  0
 20 21  2  0
 21 22  1  0
 22 23  2  0
 36 31  1  0
  6  1  1  0
 12  7  1  0
 23 13  1  0
 46 37  1  0
 14  4  1  0
 23 18  1  0
 45 40  1  0
 27 29  1  0
 28 30  1  0
 17 24  1  0
M  END
>  <minimizedAffinity>  (555) 
-16.88965

$$$$
Mol: 156_39 - SminaDock
     RDKit          3D

 39 45  0  0  0  0  0  0  0  0999 V2000
    8.7258    5.9937  -12.2652 C   0  0  0  0  0  0  0  0  0  0  0  0
    7.4515    5.6280  -11.9068 C   0  0  0  0  0  0  0  0  0  0  0  0
    6.9187    4.4643  -12.4834 C   0  0  0  0  0  0  0  0  0  0  0  0
    7.6527    3.7202  -13.3759 C   0  0  0  0  0  0  0  0  0  0  0  0
    8.9273    4.0945  -13.7282 C   0  0  0  0  0  0  0  0  0  0  0  0
    9.4681    5.2591  -13.1549 C   0  0  0  0  0  0  0  0  0  0  0  0
    9.7628    3.3525  -14.6703 C   0  0  0  0  0  0  0  0  0  0  0  0
    9.2042    2.1265  -15.2691 C   0  0  0  0  0  0  0  0  0  0  0  0
    7.8325    1.7599  -14.8681 C   0  0  0  0  0  0  0  0  0  0  0  0
    7.0847    2.5111  -13.9658 C   0  0  0  0  0  0  0  0  0  0  0  0
    5.8131    2.0769  -13.6601 C   0  0  0  0  0  0  0  0  0  0  0  0
    5.2476    0.9201  -14.2160 C   0  0  0  0  0  0  0  0  0  0  0  0
    3.9689    0.5381  -13.8696 C   0  0  0  0  0  0  0  0  0  0  0  0
    3.4147   -0.5996  -14.4172 C   0  0  0  0  0  0  0  0  0  0  0  0
    4.1891   -1.3153  -15.3069 C   0  0  0  0  0  0  0  0  0  0  0  0
    5.4714   -0.9298  -15.6526 C   0  0  0  0  0  0  0  0  0  0  0  0
    6.2562   -1.6633  -16.5602 N   0  0  0  0  0  0  0  0  0  0  0  0
    7.0041   -2.2856  -16.2046 H   0  0  0  0  0  0  0  0  0  0  0  0
    6.0789   -1.5745  -17.5763 H   0  0  0  0  0  0  0  0  0  0  0  0
    6.0272    0.2167  -15.0993 C   0  0  0  0  0  0  0  0  0  0  0  0
    7.3101    0.6172  -15.4346 C   0  0  0  0  0  0  0  0  0  0  0  0
   11.3287    8.0794   -5.8189 C   0  0  0  0  0  0  0  0  0  0  0  0
   11.5013    9.2236   -6.5686 C   0  0  0  0  0  0  0  0  0  0  0  0
   11.1215    9.2572   -7.9052 C   0  0  0  0  0  0  0  0  0  0  0  0
   10.5641    8.1656   -8.5319 C   0  0  0  0  0  0  0  0  0  0  0  0
   10.3946    7.0247   -7.7761 C   0  0  0  0  0  0  0  0  0  0  0  0
    9.8335    5.9350   -8.4170 C   0  0  0  0  0  0  0  0  0  0  0  0
    9.4716    5.9848   -9.7112 N   0  0  0  0  0  0  0  0  0  0  0  0
    9.6378    7.0967  -10.4446 C   0  0  0  0  0  0  0  0  0  0  0  0
    9.2925    7.1640  -11.7006 N   0  0  0  0  0  0  0  0  0  0  0  0
   10.1874    8.1684   -9.8215 N   0  0  0  0  0  0  0  0  0  0  0  0
   10.3119    9.0269  -10.4008 H   0  0  0  0  0  0  0  0  0  0  0  0
   10.7702    6.9857   -6.4471 C   0  0  0  0  0  0  0  0  0  0  0  0
   12.4770    7.8944   -1.7531 C   0  0  0  0  0  0  0  0  0  0  0  0
   12.4374    9.1166   -2.4010 C   0  0  0  0  0  0  0  0  0  0  0  0
   12.0645    9.1972   -3.7300 C   0  0  0  0  0  0  0  0  0  0  0  0
   11.7315    8.0496   -4.4074 C   0  0  0  0  0  0  0  0  0  0  0  0
   11.7707    6.8407   -3.7663 C   0  0  0  0  0  0  0  0  0  0  0  0
   12.1394    6.7504   -2.4477 C   0  0  0  0  0  0  0  0  0  0  0  0
 34 35  2  0
 35 36  1  0
 36 37  2  0
 37 22  1  0
 22 23  2  0
 23 24  1  0
 24 25  2  0
 25 26  1  0
 26 27  1  0
 27 28  2  0
 28 29  1  0
 29 30  2  0
 30  1  1  0
  1  2  2  0
  2  3  1  0
  3  4  2  0
  4  5  1  0
  5  6  2  0
  5  7  1  0
  7  8  1  0
  8  9  1  0
  9 10  2  0
 10 11  1  0
 11 12  2  0
 12 13  1  0
 13 14  2  0
 14 15  1  0
 15 16  2  0
 16 17  1  0
 17 18  1  0
 17 19  1  0
 16 20  1  0
 20 21  2  0
 29 31  1  0
 31 32  1  0
 26 33  2  0
 37 38  1  0
 38 39  2  0
 39 34  1  0
 33 22  1  0
 31 25  1  0
  6  1  1  0
 21  9  1  0
 10  4  1  0
 20 12  1  0
M  END
>  <minimizedAffinity>  (556) 
-16.86612

$$$$
Mol: 144_21 - SminaDock
     RDKit          3D

 36 42  0  0  0  0  0  0  0  0999 V2000
    7.7778    1.7677  -15.1761 C   0  0  0  0  0  0  0  0  0  0  0  0
    7.2380    0.6839  -15.7643 N   0  0  0  0  0  0  0  0  0  0  0  0
    6.0244    0.2562  -15.3916 C   0  0  0  0  0  0  0  0  0  0  0  0
    5.4908   -0.8712  -16.0200 C   0  0  0  0  0  0  0  0  0  0  0  0
    4.2310   -1.3321  -15.6475 C   0  0  0  0  0  0  0  0  0  0  0  0
    3.5051   -0.6897  -14.6670 C   0  0  0  0  0  0  0  0  0  0  0  0
    4.0359    0.4209  -14.0511 C   0  0  0  0  0  0  0  0  0  0  0  0
    5.2926    0.8785  -14.4246 C   0  0  0  0  0  0  0  0  0  0  0  0
    5.8239    2.0088  -13.7923 C   0  0  0  0  0  0  0  0  0  0  0  0
    7.0661    2.4270  -14.1901 C   0  0  0  0  0  0  0  0  0  0  0  0
    7.6339    3.6024  -13.5393 C   0  0  0  0  0  0  0  0  0  0  0  0
    8.8598    4.0844  -13.8745 C   0  0  0  0  0  0  0  0  0  0  0  0
    9.3926    5.2042  -13.2503 C   0  0  0  0  0  0  0  0  0  0  0  0
    8.6905    5.8530  -12.2766 C   0  0  0  0  0  0  0  0  0  0  0  0
    7.4494    5.3946  -11.9122 C   0  0  0  0  0  0  0  0  0  0  0  0
    6.9261    4.2770  -12.5401 C   0  0  0  0  0  0  0  0  0  0  0  0
    5.5942    3.8476  -12.0949 C   0  0  0  0  0  0  0  0  0  0  0  0
    5.0218    2.6638  -12.7569 C   0  0  0  0  0  0  0  0  0  0  0  0
    9.2458    6.9798  -11.6598 N   0  0  0  0  0  0  0  0  0  0  0  0
    9.5907    6.9658  -10.4432 C   0  0  0  0  0  0  0  0  0  0  0  0
    9.4276    5.8532   -9.7124 N   0  0  0  0  0  0  0  0  0  0  0  0
    9.8017    5.8553   -8.4129 C   0  0  0  0  0  0  0  0  0  0  0  0
   10.3487    6.9601   -7.7988 C   0  0  0  0  0  0  0  0  0  0  0  0
   10.7393    6.9891   -6.4734 C   0  0  0  0  0  0  0  0  0  0  0  0
   11.2839    8.1112   -5.8874 C   0  0  0  0  0  0  0  0  0  0  0  0
   11.4334    9.2332   -6.6770 C   0  0  0  0  0  0  0  0  0  0  0  0
   11.0432    9.2219   -8.0219 C   0  0  0  0  0  0  0  0  0  0  0  0
   10.5013    8.0867   -8.5826 C   0  0  0  0  0  0  0  0  0  0  0  0
   10.1199    8.0694   -9.8901 N   0  0  0  0  0  0  0  0  0  0  0  0
   10.2312    8.9163  -10.4911 H   0  0  0  0  0  0  0  0  0  0  0  0
   11.6954    8.1320   -4.4812 C   0  0  0  0  0  0  0  0  0  0  0  0
   12.0272    9.2928   -3.8290 C   0  0  0  0  0  0  0  0  0  0  0  0
   12.4048    9.2301   -2.5048 C   0  0  0  0  0  0  0  0  0  0  0  0
   12.4514    8.0222   -1.8369 C   0  0  0  0  0  0  0  0  0  0  0  0
   12.1220    6.8438   -2.4732 C   0  0  0  0  0  0  0  0  0  0  0  0
   11.7453    6.9257   -3.8022 C   0  0  0  0  0  0  0  0  0  0  0  0
  1  2  2  0
  2  3  1  0
  3  4  2  0
  4  5  1  0
  5  6  2  0
  6  7  1  0
  7  8  2  0
  8  9  1  0
  9 10  2  0
 10 11  1  0
 11 12  2  0
 12 13  1  0
 13 14  2  0
 14 19  1  0
 19 20  2  0
 20 21  1  0
 21 22  2  0
 22 23  1  0
 23 24  2  0
 24 25  1  0
 25 31  1  0
 31 32  2  0
 32 33  1  0
 33 34  2  0
 34 35  1  0
 35 36  2  0
 25 26  2  0
 26 27  1  0
 27 28  2  0
 28 29  1  0
 29 30  1  0
 14 15  1  0
 15 16  2  0
 16 17  1  0
 17 18  1  0
 10  1  1  0
 16 11  1  0
  8  3  1  0
 18  9  1  0
 29 20  1  0
 28 23  1  0
 36 31  1  0
M  END
>  <minimizedAffinity>  (557) 
-16.93156

$$$$
Mol: 176_14 - SminaDock
     RDKit          3D

 39 45  0  0  0  0  0  0  0  0999 V2000
    8.7728    5.5588  -12.4776 C   0  0  0  0  0  0  0  0  0  0  0  0
    9.3345    4.8162  -13.4895 C   0  0  0  0  0  0  0  0  0  0  0  0
    8.6411    3.7500  -14.0179 C   0  0  0  0  0  0  0  0  0  0  0  0
    7.3863    3.3783  -13.5777 C   0  0  0  0  0  0  0  0  0  0  0  0
    6.8535    4.1488  -12.5587 C   0  0  0  0  0  0  0  0  0  0  0  0
    7.5283    5.2184  -12.0157 C   0  0  0  0  0  0  0  0  0  0  0  0
    5.5334    3.5454  -12.2856 C   0  0  0  0  0  0  0  0  0  0  0  0
    4.7460    3.9741  -11.4160 O   0  0  0  0  0  0  0  0  0  0  0  0
    5.3311    2.4174  -13.1720 C   0  0  0  0  0  0  0  0  0  0  0  0
    4.2923    1.5243  -13.3322 C   0  0  0  0  0  0  0  0  0  0  0  0
    4.3935    0.5202  -14.2946 C   0  0  0  0  0  0  0  0  0  0  0  0
    5.5202    0.4179  -15.0808 C   0  0  0  0  0  0  0  0  0  0  0  0
    6.5476    1.3127  -14.9120 C   0  0  0  0  0  0  0  0  0  0  0  0
    6.4645    2.3119  -13.9651 C   0  0  0  0  0  0  0  0  0  0  0  0
    5.5490   -0.6761  -16.0785 C   0  0  1  0  0  0  0  0  0  0  0  0
    6.6548   -0.5127  -17.0852 C   0  0  0  0  0  0  0  0  0  0  0  0
    5.7942   -1.9688  -15.3255 C   0  0  0  0  0  0  0  0  0  0  0  0
    4.2106   -0.7381  -16.7138 C   0  0  0  0  0  0  0  0  0  0  0  0
    4.0020   -0.7578  -17.9495 O   0  0  0  0  0  0  0  0  0  0  0  0
    3.1172   -0.7764  -15.8597 O   0  0  0  0  0  0  0  0  0  0  0  0
    3.2600   -0.4503  -14.4670 C   0  0  0  0  0  0  0  0  0  0  0  0
   11.3508    7.9132   -6.1411 C   0  0  0  0  0  0  0  0  0  0  0  0
   11.7306    8.9191   -7.0121 C   0  0  0  0  0  0  0  0  0  0  0  0
   11.4211    8.8552   -8.3769 C   0  0  0  0  0  0  0  0  0  0  0  0
   10.7262    7.7832   -8.8920 C   0  0  0  0  0  0  0  0  0  0  0  0
   10.3461    6.7786   -8.0268 C   0  0  0  0  0  0  0  0  0  0  0  0
    9.6516    5.7163   -8.5627 C   0  0  0  0  0  0  0  0  0  0  0  0
    9.3616    5.6788   -9.8976 N   0  0  0  0  0  0  0  0  0  0  0  0
    9.7553    6.6825  -10.6924 C   0  0  0  0  0  0  0  0  0  0  0  0
    9.4830    6.6470  -11.9392 N   0  0  0  0  0  0  0  0  0  0  0  0
   10.4348    7.7367  -10.2093 N   0  0  0  0  0  0  0  0  0  0  0  0
   10.7555    8.5348  -10.8040 H   0  0  0  0  0  0  0  0  0  0  0  0
   10.6525    6.8455   -6.6856 C   0  0  0  0  0  0  0  0  0  0  0  0
   12.3214    8.0424   -2.0218 C   0  0  0  0  0  0  0  0  0  0  0  0
   11.9485    6.8447   -2.6161 C   0  0  0  0  0  0  0  0  0  0  0  0
   11.6456    6.8714   -3.9542 C   0  0  0  0  0  0  0  0  0  0  0  0
   11.6934    8.0196   -4.7295 C   0  0  0  0  0  0  0  0  0  0  0  0
   12.0660    9.1998   -4.1215 C   0  0  0  0  0  0  0  0  0  0  0  0
   12.3728    9.1947   -2.7844 C   0  0  0  0  0  0  0  0  0  0  0  0
 34 35  2  0
 35 36  1  0
 36 37  2  0
 37 22  1  0
 22 23  2  0
 23 24  1  0
 24 25  2  0
 25 26  1  0
 26 27  1  0
 27 28  2  0
 28 29  1  0
 29 30  2  0
 30  1  1  0
  1  2  2  0
  2  3  1  0
  3  4  2  0
  4  5  1  0
  5  6  2  0
  5  7  1  0
  7  8  2  0
  7  9  1  0
  9 10  2  0
 10 11  1  0
 11 12  2  0
 12 13  1  0
 13 14  2  0
 12 15  1  0
 15 16  1  6
 15 17  1  0
 15 18  1  0
 18 19  2  0
 18 20  1  0
 20 21  1  0
 29 31  1  0
 31 32  1  0
 26 33  2  0
 37 38  1  0
 38 39  2  0
 39 34  1  0
 33 22  1  0
 31 25  1  0
  6  1  1  0
 14  9  1  0
 14  4  1  0
 21 11  1  0
M  END
>  <minimizedAffinity>  (558) 
-16.88950

$$$$
Mol: 141_47 - SminaDock
     RDKit          3D

 39 45  0  0  0  0  0  0  0  0999 V2000
    6.5930   -2.4732  -19.1096 H   0  0  0  0  0  0  0  0  0  0  0  0
    7.2268   -2.0369  -18.4252 O   0  0  0  0  0  0  0  0  0  0  0  0
    6.7268   -1.2926  -17.3569 C   0  0  0  0  0  0  0  0  0  0  0  0
    5.6336   -1.6441  -16.8214 N   0  0  0  0  0  0  0  0  0  0  0  0
    4.9411   -1.0459  -15.7353 C   0  0  0  0  0  0  0  0  0  0  0  0
    5.6379    0.1426  -15.1987 C   0  0  0  0  0  0  0  0  0  0  0  0
    5.0439    0.8045  -14.1307 C   0  0  0  0  0  0  0  0  0  0  0  0
    5.6779    1.9408  -13.5924 C   0  0  0  0  0  0  0  0  0  0  0  0
    6.8634    2.3732  -14.1316 C   0  0  0  0  0  0  0  0  0  0  0  0
    7.4192    1.6881  -15.1886 C   0  0  0  0  0  0  0  0  0  0  0  0
    6.8235    0.5700  -15.7378 C   0  0  0  0  0  0  0  0  0  0  0  0
    7.3940   -0.1458  -16.8355 N   0  0  0  0  0  0  0  0  0  0  0  0
    8.2863    0.1703  -17.2463 H   0  0  0  0  0  0  0  0  0  0  0  0
    7.4250    3.6078  -13.5865 C   0  0  0  0  0  0  0  0  0  0  0  0
    8.6647    3.9913  -14.0473 C   0  0  0  0  0  0  0  0  0  0  0  0
    9.2459    5.1127  -13.4649 C   0  0  0  0  0  0  0  0  0  0  0  0
    8.6336    5.8301  -12.4683 C   0  0  0  0  0  0  0  0  0  0  0  0
    7.4003    5.4536  -12.0078 C   0  0  0  0  0  0  0  0  0  0  0  0
    6.7922    4.3145  -12.5905 C   0  0  0  0  0  0  0  0  0  0  0  0
    5.4259    3.9592  -12.1681 C   0  0  0  0  0  0  0  0  0  0  0  0
    5.0535    2.5572  -12.4036 C   0  0  0  0  0  0  0  0  0  0  0  0
    9.2385    6.9813  -11.8751 N   0  0  0  0  0  0  0  0  0  0  0  0
    9.5812    6.9544  -10.6101 C   0  0  0  0  0  0  0  0  0  0  0  0
    9.3718    5.8529   -9.8537 N   0  0  0  0  0  0  0  0  0  0  0  0
    9.7094    5.7928   -8.5597 C   0  0  0  0  0  0  0  0  0  0  0  0
   10.3017    6.9066   -7.9578 C   0  0  0  0  0  0  0  0  0  0  0  0
   10.6618    6.8841   -6.6315 C   0  0  0  0  0  0  0  0  0  0  0  0
   11.2459    7.9777   -6.0292 C   0  0  0  0  0  0  0  0  0  0  0  0
   11.4465    9.0891   -6.8305 C   0  0  0  0  0  0  0  0  0  0  0  0
   11.0911    9.1224   -8.1546 C   0  0  0  0  0  0  0  0  0  0  0  0
   10.5064    8.0206   -8.7479 C   0  0  0  0  0  0  0  0  0  0  0  0
   10.1451    8.0094  -10.0295 N   0  0  0  0  0  0  0  0  0  0  0  0
   10.3181    8.8755  -10.5936 H   0  0  0  0  0  0  0  0  0  0  0  0
   11.6460    8.0114   -4.6389 C   0  0  0  0  0  0  0  0  0  0  0  0
   11.6727    6.8174   -3.9212 C   0  0  0  0  0  0  0  0  0  0  0  0
   12.0553    6.8598   -2.5943 C   0  0  0  0  0  0  0  0  0  0  0  0
   12.4116    8.0288   -1.9482 C   0  0  0  0  0  0  0  0  0  0  0  0
   12.3786    9.2053   -2.6788 C   0  0  0  0  0  0  0  0  0  0  0  0
   11.9979    9.1880   -4.0120 C   0  0  0  0  0  0  0  0  0  0  0  0
  1  2  1  0
  2  3  1  0
  3  4  2  0
  4  5  1  0
  5  6  1  0
  6  7  2  0
  7  8  1  0
  8  9  2  0
  9 10  1  0
 10 11  2  0
 11 12  1  0
 12 13  1  0
  9 14  1  0
 14 15  2  0
 15 16  1  0
 16 17  2  0
 17 22  1  0
 22 23  2  0
 23 24  1  0
 24 25  2  0
 25 26  1  0
 26 27  2  0
 27 28  1  0
 28 34  1  0
 34 35  2  0
 35 36  1  0
 36 37  2  0
 37 38  1  0
 38 39  2  0
 28 29  2  0
 29 30  1  0
 30 31  2  0
 31 32  1  0
 32 33  1  0
 17 18  1  0
 18 19  2  0
 19 20  1  0
 20 21  1  0
 12  3  1  0
 19 14  1  0
 11  6  1  0
 32 23  1  0
 21  8  1  0
 31 26  1  0
 39 34  1  0
M  END
>  <minimizedAffinity>  (559) 
-16.90067

$$$$
Mol: 141_50 - SminaDock
     RDKit          3D

 50 57  0  0  0  0  0  0  0  0999 V2000
   11.6316    4.7389  -17.1792 O   0  0  0  0  0  0  0  0  0  0  0  0
   10.8557    3.9883  -16.5043 C   0  0  0  0  0  0  0  0  0  0  0  0
   11.3127    2.9350  -15.6851 N   0  0  0  0  0  0  0  0  0  0  0  0
   10.3277    2.3551  -15.1313 C   0  0  0  0  0  0  0  0  0  0  0  0
   10.4282    1.2780  -14.2637 O   0  0  0  0  0  0  0  0  0  0  0  0
    9.0136    2.9927  -15.5404 C   0  0  1  0  0  0  0  0  0  0  0  0
    8.2071    2.0376  -16.2919 C   0  0  0  0  0  0  0  0  0  0  0  0
    6.9810    1.5100  -15.6696 C   0  0  0  0  0  0  0  0  0  0  0  0
    6.4577    2.0202  -14.5058 C   0  0  0  0  0  0  0  0  0  0  0  0
    5.3109    1.5503  -13.9446 C   0  0  0  0  0  0  0  0  0  0  0  0
    4.6623    0.5015  -14.6058 C   0  0  0  0  0  0  0  0  0  0  0  0
    5.1441   -0.0474  -15.7751 C   0  0  0  0  0  0  0  0  0  0  0  0
    4.4429   -1.0948  -16.3913 C   0  0  0  0  0  0  0  0  0  0  0  0
    4.9174   -1.6359  -17.5545 C   0  0  0  0  0  0  0  0  0  0  0  0
    6.0930   -1.1078  -18.0732 C   0  0  0  0  0  0  0  0  0  0  0  0
    6.7788   -0.0871  -17.4750 C   0  0  0  0  0  0  0  0  0  0  0  0
    6.3146    0.4708  -16.3011 C   0  0  0  0  0  0  0  0  0  0  0  0
    7.1991    3.0932  -13.8446 C   0  0  0  0  0  0  0  0  0  0  0  0
    6.6865    3.6773  -12.6966 C   0  0  0  0  0  0  0  0  0  0  0  0
    7.3663    4.7401  -12.0769 C   0  0  0  0  0  0  0  0  0  0  0  0
    8.5391    5.2389  -12.5646 C   0  0  0  0  0  0  0  0  0  0  0  0
    9.0372    4.6506  -13.7024 C   0  0  0  0  0  0  0  0  0  0  0  0
    8.3731    3.5810  -14.3426 C   0  0  0  0  0  0  0  0  0  0  0  0
    9.4481    4.0586  -16.4455 N   0  0  0  0  0  0  0  0  0  0  0  0
   11.1427    0.5698  -14.3834 H   0  0  0  0  0  0  0  0  0  0  0  0
    8.8609    4.7353  -16.9481 H   0  0  0  0  0  0  0  0  0  0  0  0
    4.2134   -2.7131  -18.2088 C   0  0  0  0  0  0  0  0  0  0  0  0
    4.8525   -3.7781  -18.5113 O   0  0  0  0  0  0  0  0  0  0  0  0
    2.8425   -2.5914  -18.5095 N   0  0  0  0  0  0  0  0  0  0  0  0
    2.2080   -3.6310  -19.1295 O   0  0  0  0  0  0  0  0  0  0  0  0
    2.2452   -1.7785  -18.3057 H   0  0  0  0  0  0  0  0  0  0  0  0
    2.5610   -3.7155  -20.0512 H   0  0  0  0  0  0  0  0  0  0  0  0
    9.2492    6.3378  -11.9773 N   0  0  0  0  0  0  0  0  0  0  0  0
    9.5784    7.1384  -12.5862 H   0  0  0  0  0  0  0  0  0  0  0  0
    9.5293    6.3947  -10.6096 C   0  0  0  0  0  0  0  0  0  0  0  0
    9.0760    5.5423   -9.6828 N   0  0  0  0  0  0  0  0  0  0  0  0
    9.3549    5.6113   -8.3752 C   0  0  0  0  0  0  0  0  0  0  0  0
   10.1634    6.6177   -7.9117 C   0  0  0  0  0  0  0  0  0  0  0  0
   10.4983    6.7600   -6.5825 C   0  0  0  0  0  0  0  0  0  0  0  0
   11.3114    7.7742   -6.1215 C   0  0  0  0  0  0  0  0  0  0  0  0
   11.7808    8.6546   -7.0764 C   0  0  0  0  0  0  0  0  0  0  0  0
   11.4749    8.5528   -8.4059 C   0  0  0  0  0  0  0  0  0  0  0  0
   10.6570    7.5224   -8.8258 C   0  0  0  0  0  0  0  0  0  0  0  0
   10.3312    7.3910  -10.1421 N   0  0  0  0  0  0  0  0  0  0  0  0
   11.6669    7.9298   -4.7207 C   0  0  0  0  0  0  0  0  0  0  0  0
   12.0660    9.1327   -4.1741 C   0  0  0  0  0  0  0  0  0  0  0  0
   12.3887    9.1884   -2.8314 C   0  0  0  0  0  0  0  0  0  0  0  0
   12.3247    8.0839   -2.0230 C   0  0  0  0  0  0  0  0  0  0  0  0
   11.9201    6.8782   -2.5902 C   0  0  0  0  0  0  0  0  0  0  0  0
   11.5983    6.8154   -3.9220 C   0  0  0  0  0  0  0  0  0  0  0  0
  1  2  2  0
  2  3  1  0
  3  4  2  0
  4  5  1  0
  4  6  1  0
  6  7  1  6
  7  8  1  0
  8  9  2  0
  9 10  1  0
 10 11  2  0
 11 12  1  0
 12 13  2  0
 13 14  1  0
 14 27  1  0
 27 28  2  0
 27 29  1  0
 29 30  1  0
 14 15  2  0
 15 16  1  0
 16 17  2  0
  9 18  1  0
 18 19  2  0
 19 20  1  0
 20 21  2  0
 21 33  1  0
 33 35  1  0
 35 36  2  0
 36 37  1  0
 37 38  2  0
 38 39  1  0
 39 40  2  0
 40 45  1  0
 45 46  2  0
 46 47  1  0
 47 48  2  0
 48 49  1  0
 49 50  2  0
 40 41  1  0
 41 42  2  0
 42 43  1  0
 43 44  2  0
 21 22  1  0
 22 23  2  0
  6 24  1  0
 24  2  1  0
 23  6  1  0
 17  8  1  0
 23 18  1  0
 17 12  1  0
 44 35  1  0
 43 38  1  0
 50 45  1  0
  5 25  1  0
 29 31  1  0
 30 32  1  0
 33 34  1  0
 24 26  1  0
M  END
>  <minimizedAffinity>  (560) 
-16.90346

$$$$
Mol: 142_26 - SminaDock
     RDKit          3D

 39 45  0  0  0  0  0  0  0  0999 V2000
   12.2911    2.9803  -14.5069 H   0  0  0  0  0  0  0  0  0  0  0  0
   11.4980    3.3468  -13.9556 O   0  0  0  0  0  0  0  0  0  0  0  0
   10.2163    3.2782  -14.4965 C   0  0  0  0  0  0  0  0  0  0  0  0
   10.0151    2.5909  -15.5735 N   0  0  0  0  0  0  0  0  0  0  0  0
    8.8194    2.3271  -16.3735 C   0  0  0  0  0  0  0  0  0  0  0  0
    7.6291    2.0055  -15.5593 C   0  0  0  0  0  0  0  0  0  0  0  0
    7.1805    2.6164  -14.3740 C   0  0  0  0  0  0  0  0  0  0  0  0
    6.0761    2.2117  -13.6890 C   0  0  0  0  0  0  0  0  0  0  0  0
    5.3578    1.1367  -14.2001 C   0  0  0  0  0  0  0  0  0  0  0  0
    4.2274    0.6734  -13.5605 C   0  0  0  0  0  0  0  0  0  0  0  0
    3.5158   -0.3957  -14.0721 C   0  0  0  0  0  0  0  0  0  0  0  0
    3.9298   -1.0162  -15.2356 C   0  0  0  0  0  0  0  0  0  0  0  0
    5.0630   -0.5336  -15.8554 C   0  0  0  0  0  0  0  0  0  0  0  0
    5.7978    0.5315  -15.3729 C   0  0  0  0  0  0  0  0  0  0  0  0
    6.9197    0.9467  -16.0600 C   0  0  0  0  0  0  0  0  0  0  0  0
    7.8228    3.7548  -13.7326 C   0  0  0  0  0  0  0  0  0  0  0  0
    6.9221    4.5265  -13.0626 C   0  0  0  0  0  0  0  0  0  0  0  0
    7.4291    5.6209  -12.3891 C   0  0  0  0  0  0  0  0  0  0  0  0
    8.8011    5.9077  -12.4069 C   0  0  0  0  0  0  0  0  0  0  0  0
    9.6777    5.1042  -13.0981 C   0  0  0  0  0  0  0  0  0  0  0  0
    9.1825    4.0187  -13.7674 C   0  0  0  0  0  0  0  0  0  0  0  0
    9.3003    7.0456  -11.7007 N   0  0  0  0  0  0  0  0  0  0  0  0
    9.6273    6.9530  -10.4719 C   0  0  0  0  0  0  0  0  0  0  0  0
    9.5205    5.8012   -9.7925 N   0  0  0  0  0  0  0  0  0  0  0  0
    9.8865    5.7918   -8.5018 C   0  0  0  0  0  0  0  0  0  0  0  0
   10.3615    6.9205   -7.8709 C   0  0  0  0  0  0  0  0  0  0  0  0
   10.7455    6.9339   -6.5369 C   0  0  0  0  0  0  0  0  0  0  0  0
   11.2175    8.0666   -5.9197 C   0  0  0  0  0  0  0  0  0  0  0  0
   11.3038    9.2175   -6.6701 C   0  0  0  0  0  0  0  0  0  0  0  0
   10.9312    9.2426   -7.9993 C   0  0  0  0  0  0  0  0  0  0  0  0
   10.4651    8.0994   -8.5866 C   0  0  0  0  0  0  0  0  0  0  0  0
   10.0912    8.0724   -9.8720 N   0  0  0  0  0  0  0  0  0  0  0  0
   10.1659    8.9666  -10.4281 H   0  0  0  0  0  0  0  0  0  0  0  0
   11.6099    8.0331   -4.5123 C   0  0  0  0  0  0  0  0  0  0  0  0
   11.6475    6.8614   -3.7804 C   0  0  0  0  0  0  0  0  0  0  0  0
   12.0105    6.7966   -2.4592 C   0  0  0  0  0  0  0  0  0  0  0  0
   12.3593    7.9915   -1.8325 C   0  0  0  0  0  0  0  0  0  0  0  0
   12.3340    9.1790   -2.5287 C   0  0  0  0  0  0  0  0  0  0  0  0
   11.9643    9.1895   -3.8457 C   0  0  0  0  0  0  0  0  0  0  0  0
  1  2  1  0
  2  3  1  0
  3  4  2  0
  4  5  1  0
  5  6  1  0
  6  7  2  0
  7  8  1  0
  8  9  2  0
  9 10  1  0
 10 11  2  0
 11 12  1  0
 12 13  2  0
 13 14  1  0
 14 15  2  0
  7 16  1  0
 16 17  2  0
 17 18  1  0
 18 19  2  0
 19 22  1  0
 22 23  2  0
 23 24  1  0
 24 25  2  0
 25 26  1  0
 26 27  2  0
 27 28  1  0
 28 34  1  0
 34 35  2  0
 35 36  1  0
 36 37  2  0
 37 38  1  0
 38 39  2  0
 28 29  2  0
 29 30  1  0
 30 31  2  0
 31 32  1  0
 32 33  1  0
 19 20  1  0
 20 21  2  0
 21  3  1  0
 15  6  1  0
 21 16  1  0
 14  9  1  0
 32 23  1  0
 31 26  1  0
 39 34  1  0
M  END
>  <minimizedAffinity>  (561) 
-16.86103

$$$$
Mol: 175_22 - SminaDock
     RDKit          3D

 39 45  0  0  0  0  0  0  0  0999 V2000
    9.0126    6.0103  -12.2754 C   0  0  0  0  0  0  0  0  0  0  0  0
    9.7069    5.3571  -13.2643 C   0  0  0  0  0  0  0  0  0  0  0  0
    9.1983    4.2386  -13.8865 C   0  0  0  0  0  0  0  0  0  0  0  0
    7.9662    3.7240  -13.5431 C   0  0  0  0  0  0  0  0  0  0  0  0
    7.2657    4.3802  -12.5477 C   0  0  0  0  0  0  0  0  0  0  0  0
    7.7782    5.5078  -11.9201 C   0  0  0  0  0  0  0  0  0  0  0  0
    6.0217    3.6271  -12.3979 C   0  0  0  0  0  0  0  0  0  0  0  0
    5.1301    3.9427  -11.5693 O   0  0  0  0  0  0  0  0  0  0  0  0
    6.0196    2.5093  -13.3392 C   0  0  0  0  0  0  0  0  0  0  0  0
    5.1072    1.5061  -13.6085 C   0  0  0  0  0  0  0  0  0  0  0  0
    5.3513    0.5465  -14.5705 C   0  0  0  0  0  0  0  0  0  0  0  0
    6.5453    0.6024  -15.2764 C   0  0  0  0  0  0  0  0  0  0  0  0
    7.4533    1.6057  -15.0044 C   0  0  0  0  0  0  0  0  0  0  0  0
    7.2229    2.5747  -14.0431 C   0  0  0  0  0  0  0  0  0  0  0  0
    6.7729   -0.4227  -16.2796 C   0  0  0  0  0  0  0  0  0  0  0  0
    7.8470   -0.3999  -16.9380 O   0  0  0  0  0  0  0  0  0  0  0  0
    5.8625   -1.4707  -16.5840 N   0  0  0  0  0  0  0  0  0  0  0  0
    6.1531   -2.2920  -17.1806 H   0  0  0  0  0  0  0  0  0  0  0  0
    4.5141   -1.3937  -16.0567 C   0  0  0  0  0  0  0  0  0  0  0  0
    4.4038   -0.5253  -14.8760 C   0  0  0  0  0  0  0  0  0  0  0  0
    3.4424   -0.7125  -14.0842 O   0  0  0  0  0  0  0  0  0  0  0  0
   11.3644    8.1845   -5.8138 C   0  0  0  0  0  0  0  0  0  0  0  0
   11.5029    9.3620   -6.5377 C   0  0  0  0  0  0  0  0  0  0  0  0
   11.1463    9.3505   -7.8520 C   0  0  0  0  0  0  0  0  0  0  0  0
   10.6586    8.2091   -8.4649 C   0  0  0  0  0  0  0  0  0  0  0  0
   10.3033    8.1858   -9.7621 N   0  0  0  0  0  0  0  0  0  0  0  0
    9.8251    7.0696  -10.3661 C   0  0  0  0  0  0  0  0  0  0  0  0
    9.5170    7.1676  -11.6177 N   0  0  0  0  0  0  0  0  0  0  0  0
    9.6821    5.9183   -9.6858 N   0  0  0  0  0  0  0  0  0  0  0  0
    9.3106    5.0832  -10.1876 H   0  0  0  0  0  0  0  0  0  0  0  0
   10.0318    5.9216   -8.3880 C   0  0  0  0  0  0  0  0  0  0  0  0
   10.5201    7.0389   -7.7476 C   0  0  0  0  0  0  0  0  0  0  0  0
   10.8794    7.0428   -6.4158 C   0  0  0  0  0  0  0  0  0  0  0  0
   12.3888    7.9922   -1.7852 C   0  0  0  0  0  0  0  0  0  0  0  0
   12.0445    6.8273   -2.4460 C   0  0  0  0  0  0  0  0  0  0  0  0
   11.7044    6.8931   -3.7853 C   0  0  0  0  0  0  0  0  0  0  0  0
   11.7218    8.1193   -4.4117 C   0  0  0  0  0  0  0  0  0  0  0  0
   12.0629    9.2846   -3.7631 C   0  0  0  0  0  0  0  0  0  0  0  0
   12.3998    9.1989   -2.4248 C   0  0  0  0  0  0  0  0  0  0  0  0
 34 35  2  0
 35 36  1  0
 36 37  2  0
 37 22  1  0
 22 23  1  0
 23 24  2  0
 24 25  1  0
 25 26  2  0
 26 27  1  0
 27 28  2  0
 28  1  1  0
  1  2  2  0
  2  3  1  0
  3  4  2  0
  4  5  1  0
  5  6  2  0
  5  7  1  0
  7  8  2  0
  7  9  1  0
  9 10  2  0
 10 11  1  0
 11 12  2  0
 12 13  1  0
 13 14  2  0
 12 15  1  0
 15 16  2  0
 15 17  1  0
 17 18  1  0
 17 19  1  0
 19 20  1  0
 20 21  2  0
 27 29  1  0
 29 30  1  0
 29 31  1  0
 31 32  2  0
 32 33  1  0
 37 38  1  0
 38 39  2  0
 39 34  1  0
 33 22  2  0
 32 25  1  0
  6  1  1  0
 14  9  1  0
 14  4  1  0
 20 11  1  0
M  END
>  <minimizedAffinity>  (562) 
-16.94599

$$$$
Mol: 81_52 - SminaDock
     RDKit          3D

 35 40  0  0  0  0  0  0  0  0999 V2000
   11.4410    7.7417   -6.2211 C   0  0  0  0  0  0  0  0  0  0  0  0
   11.9924    8.6113   -7.1448 C   0  0  0  0  0  0  0  0  0  0  0  0
   11.6751    8.4997   -8.4826 C   0  0  0  0  0  0  0  0  0  0  0  0
   10.8105    7.5375   -8.9638 C   0  0  0  0  0  0  0  0  0  0  0  0
   10.2604    6.6701   -8.0419 C   0  0  0  0  0  0  0  0  0  0  0  0
   10.5771    6.7808   -6.7039 C   0  0  0  0  0  0  0  0  0  0  0  0
    9.3973    5.7117   -8.5315 C   0  0  0  0  0  0  0  0  0  0  0  0
    9.0954    5.6228   -9.8867 C   0  0  0  0  0  0  0  0  0  0  0  0
    9.6659    6.5088  -10.7777 C   0  0  0  0  0  0  0  0  0  0  0  0
    9.4183    6.4705  -12.0591 N   0  0  0  0  0  0  0  0  0  0  0  0
   10.5036    7.4330  -10.2738 N   0  0  0  0  0  0  0  0  0  0  0  0
   10.9435    8.1145  -10.9516 H   0  0  0  0  0  0  0  0  0  0  0  0
    8.5508    5.5189  -12.6110 C   0  0  0  0  0  0  0  0  0  0  0  0
    8.9928    4.8612  -13.7528 C   0  0  0  0  0  0  0  0  0  0  0  0
    8.6286    3.6039  -14.2485 C   0  0  0  0  0  0  0  0  0  0  0  0
    7.5333    2.8365  -13.8801 C   0  0  0  0  0  0  0  0  0  0  0  0
    6.4412    3.2808  -13.1522 C   0  0  0  0  0  0  0  0  0  0  0  0
    6.3514    4.3733  -12.2980 C   0  0  0  0  0  0  0  0  0  0  0  0
    5.2318    4.5059  -11.7502 O   0  0  0  0  0  0  0  0  0  0  0  0
    7.3311    5.2953  -11.9997 C   0  0  0  0  0  0  0  0  0  0  0  0
    5.1028    2.6893  -13.1152 C   0  0  0  0  0  0  0  0  0  0  0  0
    5.1616    1.2107  -12.8503 C   0  0  0  0  0  0  0  0  0  0  0  0
    5.5722    0.5622  -14.1194 C   0  0  0  0  0  0  0  0  0  0  0  0
    4.5680   -0.2642  -14.5734 C   0  0  0  0  0  0  0  0  0  0  0  0
    4.7518   -0.9758  -15.7653 C   0  0  0  0  0  0  0  0  0  0  0  0
    5.9230   -0.8538  -16.4797 C   0  0  0  0  0  0  0  0  0  0  0  0
    6.9054   -0.0189  -15.9962 C   0  0  0  0  0  0  0  0  0  0  0  0
    6.7288    0.6880  -14.8167 C   0  0  0  0  0  0  0  0  0  0  0  0
    7.8967    1.5261  -14.4677 C   0  0  0  0  0  0  0  0  0  0  0  0
   12.3726    8.0262   -2.0983 C   0  0  0  0  0  0  0  0  0  0  0  0
   11.8699    6.8493   -2.6008 C   0  0  0  0  0  0  0  0  0  0  0  0
   11.5696    6.7647   -3.9415 C   0  0  0  0  0  0  0  0  0  0  0  0
   11.7650    7.8423   -4.7907 C   0  0  0  0  0  0  0  0  0  0  0  0
   12.2713    9.0020   -4.2423 C   0  0  0  0  0  0  0  0  0  0  0  0
   12.5870    9.1277   -2.8938 C   0  0  0  0  0  0  0  0  0  0  0  0
 30 31  2  0
 31 32  1  0
 32 33  2  0
 33  1  1  0
  1  2  2  0
  2  3  1  0
  3  4  2  0
  4  5  1  0
  5  6  2  0
  5  7  1  0
  7  8  2  0
  8  9  1  0
  9 10  2  0
 10 13  1  0
 13 14  1  0
 14 15  2  0
 15 16  1  0
 16 17  2  0
 17 18  1  0
 18 19  2  0
 18 20  1  0
 17 21  1  0
 21 22  1  0
 22 23  1  0
 23 24  2  0
 24 25  1  0
 25 26  2  0
 26 27  1  0
 27 28  2  0
 28 29  1  0
  9 11  1  0
 11 12  1  0
 33 34  1  0
 34 35  2  0
 35 30  1  0
  6  1  1  0
 20 13  2  0
 28 23  1  0
 11  4  1  0
 29 16  1  0
M  END
>  <minimizedAffinity>  (563) 
-16.92806

$$$$
Mol: 199_26 - SminaDock
     RDKit          3D

 41 48  0  0  0  0  0  0  0  0999 V2000
    8.5285    5.7318  -12.3451 C   0  0  0  0  0  0  0  0  0  0  0  0
    7.2555    5.3295  -11.9903 C   0  0  0  0  0  0  0  0  0  0  0  0
    6.7001    4.2449  -12.6368 C   0  0  0  0  0  0  0  0  0  0  0  0
    7.3445    3.5311  -13.6250 C   0  0  0  0  0  0  0  0  0  0  0  0
    8.6341    3.9477  -13.9765 C   0  0  0  0  0  0  0  0  0  0  0  0
    9.2094    5.0294  -13.3434 C   0  0  0  0  0  0  0  0  0  0  0  0
    9.1644    3.0574  -15.0555 C   0  0  2  0  0  0  0  0  0  0  0  0
    8.0575    2.0905  -15.2937 C   0  0  0  0  0  0  0  0  0  0  0  0
    7.9286    1.0602  -16.1325 N   0  0  0  0  0  0  0  0  0  0  0  0
    6.8258    0.2842  -16.2038 C   0  0  0  0  0  0  0  0  0  0  0  0
    6.7153   -0.7522  -17.0584 N   0  0  0  0  0  0  0  0  0  0  0  0
    5.6326   -1.5364  -17.1485 C   0  0  0  0  0  0  0  0  0  0  0  0
    5.5702   -2.5056  -17.9706 O   0  0  0  0  0  0  0  0  0  0  0  0
    4.5511   -1.2958  -16.3333 C   0  0  0  0  0  0  0  0  0  0  0  0
    4.6206   -0.2484  -15.4463 C   0  0  0  0  0  0  0  0  0  0  0  0
    5.7474    0.5420  -15.3752 C   0  0  0  0  0  0  0  0  0  0  0  0
    5.8726    1.6107  -14.5004 C   0  0  0  0  0  0  0  0  0  0  0  0
    7.0117    2.3812  -14.4541 C   0  0  0  0  0  0  0  0  0  0  0  0
   10.3827    2.3332  -14.4766 C   0  0  0  0  0  0  0  0  0  0  0  0
   11.0823    1.6216  -15.5996 C   0  0  0  0  0  0  0  0  0  0  0  0
   11.6070    2.6225  -16.4453 O   0  0  0  0  0  0  0  0  0  0  0  0
   10.5319    3.1399  -17.1520 C   0  0  0  0  0  0  0  0  0  0  0  0
    9.5328    3.8472  -16.2670 C   0  0  0  0  0  0  0  0  0  0  0  0
   11.2937    8.0038   -5.9612 C   0  0  0  0  0  0  0  0  0  0  0  0
   11.5453    9.0861   -6.7809 C   0  0  0  0  0  0  0  0  0  0  0  0
   11.1640    9.0568   -8.1141 C   0  0  0  0  0  0  0  0  0  0  0  0
   10.5327    7.9796   -8.6768 C   0  0  0  0  0  0  0  0  0  0  0  0
   10.1503    7.9180   -9.9628 N   0  0  0  0  0  0  0  0  0  0  0  0
    9.5326    6.8587  -10.5057 C   0  0  0  0  0  0  0  0  0  0  0  0
    9.1778    6.8252  -11.7427 N   0  0  0  0  0  0  0  0  0  0  0  0
    9.2699    5.7874   -9.7428 N   0  0  0  0  0  0  0  0  0  0  0  0
    8.7806    4.9300  -10.1401 H   0  0  0  0  0  0  0  0  0  0  0  0
    9.6432    5.8182   -8.4394 C   0  0  0  0  0  0  0  0  0  0  0  0
   10.2787    6.8955   -7.8616 C   0  0  0  0  0  0  0  0  0  0  0  0
   10.6550    6.9168   -6.5339 C   0  0  0  0  0  0  0  0  0  0  0  0
   12.4329    8.0363   -1.8877 C   0  0  0  0  0  0  0  0  0  0  0  0
   12.1090    6.8282   -2.4744 C   0  0  0  0  0  0  0  0  0  0  0  0
   11.7436    6.8467   -3.7948 C   0  0  0  0  0  0  0  0  0  0  0  0
   11.6877    8.0143   -4.5528 C   0  0  0  0  0  0  0  0  0  0  0  0
   12.0164    9.1822   -3.9302 C   0  0  0  0  0  0  0  0  0  0  0  0
   12.3931    9.2245   -2.5978 C   0  0  0  0  0  0  0  0  0  0  0  0
 36 37  2  0
 37 38  1  0
 38 39  2  0
 39 24  1  0
 24 25  1  0
 25 26  2  0
 26 27  1  0
 27 28  2  0
 28 29  1  0
 29 30  2  0
 30  1  1  0
  1  2  2  0
  2  3  1  0
  3  4  2  0
  4  5  1  0
  5  6  2  0
  5  7  1  0
  7  8  1  0
  8  9  2  0
  9 10  1  0
 10 11  1  0
 11 12  1  0
 12 13  2  0
 12 14  1  0
 14 15  2  0
 15 16  1  0
 16 17  1  0
 17 18  2  0
  7 19  1  1
 19 20  1  0
 20 21  1  0
 21 22  1  0
 22 23  1  0
 29 31  1  0
 31 32  1  0
 31 33  1  0
 33 34  2  0
 34 35  1  0
 39 40  1  0
 40 41  2  0
 41 36  1  0
 35 24  2  0
 34 27  1  0
  6  1  1  0
 23  7  1  0
 18  4  1  0
 18  8  1  0
 16 10  2  0
M  CHG  1  11  -1
M  END
>  <minimizedAffinity>  (564) 
-16.88752

$$$$
Mol: 142_21 - SminaDock
     RDKit          3D

 36 42  0  0  0  0  0  0  0  0999 V2000
   11.2945    8.0536   -5.9551 C   0  0  0  0  0  0  0  0  0  0  0  0
   11.5036    9.1902   -6.7142 C   0  0  0  0  0  0  0  0  0  0  0  0
   11.1390    9.2098   -8.0630 C   0  0  0  0  0  0  0  0  0  0  0  0
   10.5684    8.1042   -8.6563 C   0  0  0  0  0  0  0  0  0  0  0  0
   10.3503    6.9508   -7.9075 C   0  0  0  0  0  0  0  0  0  0  0  0
    9.7771    5.8409   -8.5027 C   0  0  0  0  0  0  0  0  0  0  0  0
    9.4540    5.9380   -9.8022 N   0  0  0  0  0  0  0  0  0  0  0  0
    9.6542    7.0370  -10.5436 C   0  0  0  0  0  0  0  0  0  0  0  0
    9.3181    7.0741  -11.8113 N   0  0  0  0  0  0  0  0  0  0  0  0
   10.2112    8.1088   -9.9561 N   0  0  0  0  0  0  0  0  0  0  0  0
   10.3827    8.9849  -10.5051 H   0  0  0  0  0  0  0  0  0  0  0  0
   10.7218    6.9632   -6.5764 C   0  0  0  0  0  0  0  0  0  0  0  0
    8.7224    5.8873  -12.3873 C   0  0  0  0  0  0  0  0  0  0  0  0
    9.4287    5.1248  -13.2776 C   0  0  0  0  0  0  0  0  0  0  0  0
    8.8222    3.9764  -13.8183 C   0  0  0  0  0  0  0  0  0  0  0  0
    7.5396    3.5941  -13.4804 C   0  0  0  0  0  0  0  0  0  0  0  0
    6.8443    4.3654  -12.5905 C   0  0  0  0  0  0  0  0  0  0  0  0
    7.4577    5.5049  -12.0589 C   0  0  0  0  0  0  0  0  0  0  0  0
    5.4512    4.0593  -12.1888 C   0  0  0  0  0  0  0  0  0  0  0  0
    4.9323    2.7829  -12.6545 C   0  0  0  0  0  0  0  0  0  0  0  0
    5.7288    2.0325  -13.6471 C   0  0  0  0  0  0  0  0  0  0  0  0
    6.9817    2.3647  -14.0564 C   0  0  0  0  0  0  0  0  0  0  0  0
    7.4516    1.4836  -14.9446 N   0  0  0  0  0  0  0  0  0  0  0  0
    8.7061    1.4122  -15.6530 C   0  0  0  0  0  0  0  0  0  0  0  0
    6.4565    0.5596  -15.1031 C   0  0  0  0  0  0  0  0  0  0  0  0
    6.3642   -0.5717  -15.8829 C   0  0  0  0  0  0  0  0  0  0  0  0
    5.2489   -1.3601  -15.8803 C   0  0  0  0  0  0  0  0  0  0  0  0
    4.1643   -1.0468  -15.0874 C   0  0  0  0  0  0  0  0  0  0  0  0
    4.2420    0.0820  -14.3017 C   0  0  0  0  0  0  0  0  0  0  0  0
    5.3807    0.8790  -14.3103 C   0  0  0  0  0  0  0  0  0  0  0  0
   12.3927    7.9854   -1.8330 C   0  0  0  0  0  0  0  0  0  0  0  0
   12.0844    6.8051   -2.4883 C   0  0  0  0  0  0  0  0  0  0  0  0
   11.7259    6.8353   -3.8368 C   0  0  0  0  0  0  0  0  0  0  0  0
   11.6679    8.0153   -4.5464 C   0  0  0  0  0  0  0  0  0  0  0  0
   11.9752    9.1907   -3.8933 C   0  0  0  0  0  0  0  0  0  0  0  0
   12.3356    9.1674   -2.5405 C   0  0  0  0  0  0  0  0  0  0  0  0
 31 32  2  0
 32 33  1  0
 33 34  2  0
 34  1  1  0
  1  2  2  0
  2  3  1  0
  3  4  2  0
  4  5  1  0
  5  6  1  0
  6  7  2  0
  7  8  1  0
  8  9  2  0
  9 13  1  0
 13 14  2  0
 14 15  1  0
 15 16  2  0
 16 17  1  0
 17 18  2  0
 17 19  1  0
 19 20  1  0
 20 21  1  0
 21 22  2  0
 22 23  1  0
 23 24  1  0
 23 25  1  0
 25 26  2  0
 26 27  1  0
 27 28  2  0
 28 29  1  0
 29 30  2  0
  8 10  1  0
 10 11  1  0
  5 12  2  0
 34 35  1  0
 35 36  2  0
 36 31  1  0
 12  1  1  0
 10  4  1  0
 18 13  1  0
 30 21  1  0
 22 16  1  0
 30 25  1  0
M  END
>  <minimizedAffinity>  (565) 
-16.88798

$$$$
Mol: 186_1 - SminaDock
     RDKit          3D

 47 55  0  0  0  0  0  0  0  0999 V2000
    9.0675    6.3240  -12.2407 C   0  0  0  0  0  0  0  0  0  0  0  0
    7.8692    5.7458  -11.8874 C   0  0  0  0  0  0  0  0  0  0  0  0
    7.3799    4.6331  -12.5712 C   0  0  0  0  0  0  0  0  0  0  0  0
    8.1118    4.0946  -13.6295 C   0  0  0  0  0  0  0  0  0  0  0  0
    9.3064    4.6969  -13.9573 C   0  0  0  0  0  0  0  0  0  0  0  0
    9.8095    5.8178  -13.2762 C   0  0  0  0  0  0  0  0  0  0  0  0
    9.8758    3.9488  -15.0903 C   0  0  1  0  0  0  0  0  0  0  0  0
    8.9064    2.8957  -15.3611 C   0  0  0  0  0  0  0  0  0  0  0  0
    8.9085    1.8810  -16.3241 C   0  0  0  0  0  0  0  0  0  0  0  0
    7.8699    0.9872  -16.3900 C   0  0  0  0  0  0  0  0  0  0  0  0
    6.7923    1.0394  -15.5303 C   0  0  0  0  0  0  0  0  0  0  0  0
    5.6495    0.2841  -15.3849 C   0  0  0  0  0  0  0  0  0  0  0  0
    5.1253   -0.8135  -16.0291 C   0  0  0  0  0  0  0  0  0  0  0  0
    3.9252   -1.3806  -15.6616 C   0  0  0  0  0  0  0  0  0  0  0  0
    3.2086   -0.8306  -14.6007 C   0  0  0  0  0  0  0  0  0  0  0  0
    3.7226    0.2669  -13.9488 C   0  0  0  0  0  0  0  0  0  0  0  0
    4.9336    0.8179  -14.3398 C   0  0  0  0  0  0  0  0  0  0  0  0
    5.6519    1.8687  -13.8854 N   0  0  0  0  0  0  0  0  0  0  0  0
    5.3176    2.4427  -13.0899 H   0  0  0  0  0  0  0  0  0  0  0  0
    6.7877    2.0537  -14.5659 C   0  0  0  0  0  0  0  0  0  0  0  0
    7.8363    2.9508  -14.5047 C   0  0  0  0  0  0  0  0  0  0  0  0
   10.0498    4.8239  -16.2341 N   0  0  0  0  0  0  0  0  0  0  0  0
    9.3055    5.4995  -16.5292 H   0  0  0  0  0  0  0  0  0  0  0  0
   11.2036    4.6278  -16.7755 C   0  0  0  0  0  0  0  0  0  0  0  0
   11.6516    5.3466  -17.9192 N   0  0  0  0  0  0  0  0  0  0  0  0
   11.5797    6.3734  -17.9524 H   0  0  0  0  0  0  0  0  0  0  0  0
   12.0523    4.8580  -18.7269 H   0  0  0  0  0  0  0  0  0  0  0  0
   11.8964    3.6424  -16.0817 O   0  0  0  0  0  0  0  0  0  0  0  0
   11.2663    3.4371  -14.8117 C   0  0  0  0  0  0  0  0  0  0  0  0
   11.3542    8.1966   -5.6048 C   0  0  0  0  0  0  0  0  0  0  0  0
   11.3837    9.3987   -6.2708 C   0  0  0  0  0  0  0  0  0  0  0  0
   11.0082    9.4886   -7.6120 C   0  0  0  0  0  0  0  0  0  0  0  0
   10.6018    8.3380   -8.2677 C   0  0  0  0  0  0  0  0  0  0  0  0
   10.5629    7.1210   -7.6240 C   0  0  0  0  0  0  0  0  0  0  0  0
   10.1637    6.0345   -8.2983 N   0  0  0  0  0  0  0  0  0  0  0  0
    9.7979    6.0997   -9.5932 C   0  0  0  0  0  0  0  0  0  0  0  0
    9.8320    7.3119  -10.2503 C   0  0  0  0  0  0  0  0  0  0  0  0
    9.4967    7.4553  -11.4916 N   0  0  0  0  0  0  0  0  0  0  0  0
   10.2389    8.3960   -9.5479 N   0  0  0  0  0  0  0  0  0  0  0  0
   10.2618    9.3163  -10.0560 H   0  0  0  0  0  0  0  0  0  0  0  0
   10.9460    7.0723   -6.2827 C   0  0  0  0  0  0  0  0  0  0  0  0
   12.4952    7.9197   -1.5678 C   0  0  0  0  0  0  0  0  0  0  0  0
   12.1964    6.7800   -2.2801 C   0  0  0  0  0  0  0  0  0  0  0  0
   11.8213    6.8860   -3.6092 C   0  0  0  0  0  0  0  0  0  0  0  0
   11.7474    8.1170   -4.2136 C   0  0  0  0  0  0  0  0  0  0  0  0
   12.0495    9.2341   -3.4840 C   0  0  0  0  0  0  0  0  0  0  0  0
   12.4304    9.1713   -2.1471 C   0  0  0  0  0  0  0  0  0  0  0  0
 42 43  2  0
 43 44  1  0
 44 45  2  0
 45 30  1  0
 30 31  2  0
 31 32  1  0
 32 33  2  0
 33 34  1  0
 34 35  1  0
 35 36  2  0
 36 37  1  0
 37 38  2  0
 38  1  1  0
  1  2  2  0
  2  3  1  0
  3  4  2  0
  4  5  1  0
  5  6  2  0
  5  7  1  0
  7  8  1  0
  8  9  2  0
  9 10  1  0
 10 11  2  0
 11 12  1  0
 12 13  2  0
 13 14  1  0
 14 15  2  0
 15 16  1  0
 16 17  2  0
 17 18  1  0
 18 19  1  0
 18 20  1  0
 20 21  2  0
  7 22  1  0
 22 23  1  0
 22 24  2  0
 24 25  1  0
 25 26  1  0
 25 27  1  0
 24 28  1  0
 28 29  1  0
 37 39  1  0
 39 40  1  0
 34 41  2  0
 45 46  1  0
 46 47  2  0
 47 42  1  0
 41 30  1  0
 39 33  1  0
  6  1  1  0
  7 29  1  1
 21  4  1  0
 21  8  1  0
 20 11  1  0
 17 12  1  0
M  CHG  1  22   1
M  END
>  <minimizedAffinity>  (566) 
-16.77386

$$$$
Mol: 124_25 - SminaDock
     RDKit          3D

 36 42  0  0  0  0  0  0  0  0999 V2000
    4.6788   -0.6371  -17.2495 C   0  0  0  0  0  0  0  0  0  0  0  0
    5.7414    0.1598  -17.1258 N   0  0  0  0  0  0  0  0  0  0  0  0
    6.0612    0.7886  -15.9769 C   0  0  0  0  0  0  0  0  0  0  0  0
    5.2650    0.6097  -14.8744 C   0  0  0  0  0  0  0  0  0  0  0  0
    4.1416   -0.2236  -14.9790 C   0  0  0  0  0  0  0  0  0  0  0  0
    3.8681   -0.8333  -16.1673 C   0  0  0  0  0  0  0  0  0  0  0  0
    5.2984    1.1170  -13.4943 C   0  0  0  0  0  0  0  0  0  0  0  0
    6.1783    2.2939  -13.2960 C   0  0  0  0  0  0  0  0  0  0  0  0
    5.6869    3.2141  -12.3973 C   0  0  0  0  0  0  0  0  0  0  0  0
    6.4084    4.3582  -12.1176 C   0  0  0  0  0  0  0  0  0  0  0  0
    7.6161    4.6323  -12.7013 C   0  0  0  0  0  0  0  0  0  0  0  0
    8.1229    3.7194  -13.6050 C   0  0  0  0  0  0  0  0  0  0  0  0
    7.4072    2.5734  -13.8895 C   0  0  0  0  0  0  0  0  0  0  0  0
    8.0590    1.6732  -14.8802 C   0  0  2  0  0  0  0  0  0  0  0  0
    7.2784    1.5939  -16.1482 C   0  0  0  0  0  0  0  0  0  0  0  0
    8.3237    0.2741  -14.3079 C   0  0  0  0  0  0  0  0  0  0  0  0
    9.6101    0.2908  -15.1322 C   0  0  0  0  0  0  0  0  0  0  0  0
    9.5326    1.8202  -15.0490 C   0  0  0  0  0  0  0  0  0  0  0  0
    8.3515    5.8008  -12.4122 N   0  0  0  0  0  0  0  0  0  0  0  0
    8.8227    5.9990  -11.2318 C   0  0  0  0  0  0  0  0  0  0  0  0
    8.6023    5.0759  -10.2815 N   0  0  0  0  0  0  0  0  0  0  0  0
    9.0744    5.2336   -9.0323 C   0  0  0  0  0  0  0  0  0  0  0  0
    9.8047    6.3457   -8.6677 C   0  0  0  0  0  0  0  0  0  0  0  0
   10.3039    6.5366   -7.3951 C   0  0  0  0  0  0  0  0  0  0  0  0
   11.0338    7.6531   -7.0445 C   0  0  0  0  0  0  0  0  0  0  0  0
   11.2490    8.5888   -8.0346 C   0  0  0  0  0  0  0  0  0  0  0  0
   10.7518    8.4066   -9.3163 C   0  0  0  0  0  0  0  0  0  0  0  0
   10.0228    7.2858   -9.6561 C   0  0  0  0  0  0  0  0  0  0  0  0
    9.5320    7.0917  -10.8999 N   0  0  0  0  0  0  0  0  0  0  0  0
    9.7222    7.8313  -11.6160 H   0  0  0  0  0  0  0  0  0  0  0  0
   11.5633    7.8470   -5.6839 C   0  0  0  0  0  0  0  0  0  0  0  0
   12.2631    8.9874   -5.3601 C   0  0  0  0  0  0  0  0  0  0  0  0
   12.7472    9.1412   -4.0765 C   0  0  0  0  0  0  0  0  0  0  0  0
   12.5245    8.1499   -3.1305 C   0  0  0  0  0  0  0  0  0  0  0  0
   11.8241    7.0084   -3.4544 C   0  0  0  0  0  0  0  0  0  0  0  0
   11.3541    6.8785   -4.7330 C   0  0  0  0  0  0  0  0  0  0  0  0
  1  2  2  0
  2  3  1  0
  3  4  2  0
  4  5  1  0
  5  6  2  0
  4  7  1  0
  7  8  1  0
  8  9  2  0
  9 10  1  0
 10 11  2  0
 11 19  1  0
 19 20  2  0
 20 21  1  0
 21 22  2  0
 22 23  1  0
 23 24  2  0
 24 25  1  0
 25 31  1  0
 31 32  2  0
 32 33  1  0
 33 34  2  0
 34 35  1  0
 35 36  2  0
 25 26  2  0
 26 27  1  0
 27 28  2  0
 28 29  1  0
 29 30  1  0
 11 12  1  0
 12 13  2  0
 13 14  1  0
 14 15  1  6
 14 16  1  0
 16 17  1  0
 17 18  1  0
  6  1  1  0
 13  8  1  0
 18 14  1  0
 15  3  1  0
 29 20  1  0
 28 23  1  0
 36 31  1  0
M  END
>  <minimizedAffinity>  (567) 
-16.75345

$$$$
Mol: 186_30 - SminaDock
     RDKit          3D

 38 44  0  0  0  0  0  0  0  0999 V2000
    9.0566    5.9019  -12.5741 C   0  0  0  0  0  0  0  0  0  0  0  0
    7.7854    6.3081  -12.2170 C   0  0  0  0  0  0  0  0  0  0  0  0
    6.7453    5.4278  -12.4185 C   0  0  0  0  0  0  0  0  0  0  0  0
    6.9630    4.1747  -12.9615 C   0  0  0  0  0  0  0  0  0  0  0  0
    8.2345    3.7607  -13.3220 C   0  0  0  0  0  0  0  0  0  0  0  0
    9.2762    4.6409  -13.1207 C   0  0  0  0  0  0  0  0  0  0  0  0
    8.4646    2.4242  -13.9010 C   0  0  0  0  0  0  0  0  0  0  0  0
    9.6566    2.1109  -14.2085 O   0  0  0  0  0  0  0  0  0  0  0  0
    7.3609    1.4989  -14.1113 C   0  0  0  0  0  0  0  0  0  0  0  0
    7.3406    0.2494  -14.6170 N   0  0  0  0  0  0  0  0  0  0  0  0
    6.0868   -0.2363  -14.6257 C   0  0  0  0  0  0  0  0  0  0  0  0
    5.5307   -1.4363  -15.0305 C   0  0  0  0  0  0  0  0  0  0  0  0
    4.2024   -1.5861  -14.8912 N   0  0  0  0  0  0  0  0  0  0  0  0
    3.7291   -2.4694  -15.1796 H   0  0  0  0  0  0  0  0  0  0  0  0
    3.4097   -0.6192  -14.3779 C   0  0  0  0  0  0  0  0  0  0  0  0
    3.9185    0.6129  -13.9528 C   0  0  0  0  0  0  0  0  0  0  0  0
    5.2652    0.8379  -14.0643 C   0  0  0  0  0  0  0  0  0  0  0  0
    6.0816    1.9053  -13.7527 C   0  0  0  0  0  0  0  0  0  0  0  0
    5.8679    3.2298  -13.1811 C   0  0  0  0  0  0  0  0  0  0  0  0
    4.6990    3.5545  -12.8727 O   0  0  0  0  0  0  0  0  0  0  0  0
   11.0368    7.5259   -6.3260 C   0  0  0  0  0  0  0  0  0  0  0  0
    9.9479    6.6938   -6.5609 C   0  0  0  0  0  0  0  0  0  0  0  0
    9.5646    6.3781   -7.8406 C   0  0  0  0  0  0  0  0  0  0  0  0
   10.2605    6.8866   -8.9106 C   0  0  0  0  0  0  0  0  0  0  0  0
    9.8945    6.5847  -10.1551 N   0  0  0  0  0  0  0  0  0  0  0  0
   10.5501    7.0629  -11.2056 C   0  0  0  0  0  0  0  0  0  0  0  0
   10.1764    6.7563  -12.3951 N   0  0  0  0  0  0  0  0  0  0  0  0
   11.6269    7.8837  -11.0830 N   0  0  0  0  0  0  0  0  0  0  0  0
   12.1108    8.2352  -11.9337 H   0  0  0  0  0  0  0  0  0  0  0  0
   12.0133    8.2012   -9.8337 C   0  0  0  0  0  0  0  0  0  0  0  0
   11.3560    7.7227   -8.7284 C   0  0  0  0  0  0  0  0  0  0  0  0
   11.7042    8.0120   -7.4325 C   0  0  0  0  0  0  0  0  0  0  0  0
   12.2147    8.3562   -2.3118 C   0  0  0  0  0  0  0  0  0  0  0  0
   11.9735    7.0671   -2.7431 C   0  0  0  0  0  0  0  0  0  0  0  0
   11.5916    6.8355   -4.0574 C   0  0  0  0  0  0  0  0  0  0  0  0
   11.4411    7.8591   -4.9651 C   0  0  0  0  0  0  0  0  0  0  0  0
   11.6801    9.1445   -4.5411 C   0  0  0  0  0  0  0  0  0  0  0  0
   12.0615    9.3965   -3.2352 C   0  0  0  0  0  0  0  0  0  0  0  0
 33 34  2  0
 34 35  1  0
 35 36  2  0
 36 21  1  0
 21 22  1  0
 22 23  2  0
 23 24  1  0
 24 25  2  0
 25 26  1  0
 26 27  2  0
 27  1  1  0
  1  2  2  0
  2  3  1  0
  3  4  2  0
  4  5  1  0
  5  6  2  0
  5  7  1  0
  7  8  2  0
  7  9  1  0
  9 10  2  0
 10 11  1  0
 11 12  2  0
 12 13  1  0
 13 14  1  0
 13 15  1  0
 15 16  2  0
 16 17  1  0
 17 18  2  0
 18 19  1  0
 19 20  2  0
 26 28  1  0
 28 29  1  0
 28 30  1  0
 30 31  2  0
 31 32  1  0
 36 37  1  0
 37 38  2  0
 38 33  1  0
 32 21  2  0
 31 24  1  0
  6  1  1  0
 18  9  1  0
 19  4  1  0
 17 11  1  0
M  END
>  <minimizedAffinity>  (568) 
-16.77570

$$$$
Mol: 186_40 - SminaDock
     RDKit          3D

 41 48  0  0  0  0  0  0  0  0999 V2000
    5.7603   -2.9370  -18.5093 H   0  0  0  0  0  0  0  0  0  0  0  0
    6.3913   -2.5427  -17.8008 O   0  0  0  0  0  0  0  0  0  0  0  0
    5.8994   -1.6192  -16.8834 C   0  0  0  0  0  0  0  0  0  0  0  0
    6.7401   -0.6301  -16.4791 N   0  0  0  0  0  0  0  0  0  0  0  0
    6.3049    0.2702  -15.6033 C   0  0  0  0  0  0  0  0  0  0  0  0
    6.9371    1.3724  -15.0240 C   0  0  0  0  0  0  0  0  0  0  0  0
    6.0075    1.9378  -14.1962 C   0  0  0  0  0  0  0  0  0  0  0  0
    4.8761    1.2366  -14.2564 O   0  0  0  0  0  0  0  0  0  0  0  0
    5.0288    0.2385  -15.0880 C   0  0  0  0  0  0  0  0  0  0  0  0
    4.1865   -0.7677  -15.5047 C   0  0  0  0  0  0  0  0  0  0  0  0
    4.6090   -1.7311  -16.4236 C   0  0  0  0  0  0  0  0  0  0  0  0
    6.5926    3.1023  -13.5486 C   0  0  0  0  0  0  0  0  0  0  0  0
    6.0621    4.0169  -12.6196 C   0  0  0  0  0  0  0  0  0  0  0  0
    6.8673    5.0364  -12.1750 C   0  0  0  0  0  0  0  0  0  0  0  0
    8.1682    5.1883  -12.6085 C   0  0  0  0  0  0  0  0  0  0  0  0
    8.6894    4.3003  -13.5130 C   0  0  0  0  0  0  0  0  0  0  0  0
    7.8797    3.2469  -13.9819 C   0  0  0  0  0  0  0  0  0  0  0  0
    8.1724    2.1617  -14.9414 C   0  0  1  0  0  0  0  0  0  0  0  0
    9.3082    1.3600  -14.3359 C   0  0  0  0  0  0  0  0  0  0  0  0
   10.5312    1.3675  -15.2268 C   0  0  0  0  0  0  0  0  0  0  0  0
   10.0799    0.7865  -16.5687 C   0  0  0  0  0  0  0  0  0  0  0  0
    9.1733    1.7885  -17.2066 C   0  0  0  0  0  0  0  0  0  0  0  0
    8.5669    2.7690  -16.2660 C   0  0  0  0  0  0  0  0  0  0  0  0
    8.9881    6.2647  -12.1243 N   0  0  0  0  0  0  0  0  0  0  0  0
    9.3275    6.3407  -10.8792 C   0  0  0  0  0  0  0  0  0  0  0  0
   10.0998    7.3684  -10.4624 N   0  0  0  0  0  0  0  0  0  0  0  0
   10.4895    7.5087   -9.1847 C   0  0  0  0  0  0  0  0  0  0  0  0
   11.2850    8.5754   -8.7746 C   0  0  0  0  0  0  0  0  0  0  0  0
   11.6620    8.6817   -7.4532 C   0  0  0  0  0  0  0  0  0  0  0  0
   11.2454    7.7222   -6.5369 C   0  0  0  0  0  0  0  0  0  0  0  0
   10.4571    6.6652   -6.9420 C   0  0  0  0  0  0  0  0  0  0  0  0
   10.0722    6.5531   -8.2809 C   0  0  0  0  0  0  0  0  0  0  0  0
    9.2835    5.4933   -8.6778 C   0  0  0  0  0  0  0  0  0  0  0  0
    8.9355    5.4233   -9.9743 N   0  0  0  0  0  0  0  0  0  0  0  0
    8.3338    4.6304  -10.3178 H   0  0  0  0  0  0  0  0  0  0  0  0
   11.6640    7.8649   -5.1398 C   0  0  0  0  0  0  0  0  0  0  0  0
   12.3857    8.9666   -4.7001 C   0  0  0  0  0  0  0  0  0  0  0  0
   12.7601    9.0555   -3.3640 C   0  0  0  0  0  0  0  0  0  0  0  0
   12.4378    8.0784   -2.4459 C   0  0  0  0  0  0  0  0  0  0  0  0
   11.7200    6.9914   -2.9031 C   0  0  0  0  0  0  0  0  0  0  0  0
   11.3327    6.8772   -4.2339 C   0  0  0  0  0  0  0  0  0  0  0  0
  1  2  1  0
  2  3  1  0
  3  4  2  0
  4  5  1  0
  5  6  1  0
  6  7  2  0
  7  8  1  0
  8  9  1  0
  9 10  1  0
 10 11  2  0
  7 12  1  0
 12 13  2  0
 13 14  1  0
 14 15  2  0
 15 24  1  0
 24 25  2  0
 25 26  1  0
 26 27  2  0
 27 28  1  0
 28 29  2  0
 29 30  1  0
 30 36  1  0
 36 37  2  0
 37 38  1  0
 38 39  2  0
 39 40  1  0
 40 41  2  0
 30 31  2  0
 31 32  1  0
 32 33  2  0
 33 34  1  0
 34 35  1  0
 15 16  1  0
 16 17  2  0
 17 18  1  0
 18 19  1  1
 19 20  1  0
 20 21  1  0
 21 22  1  0
 22 23  1  0
 11  3  1  0
 17 12  1  0
 23 18  1  0
  9  5  2  0
 34 25  1  0
 18  6  1  0
 32 27  1  0
 41 36  1  0
M  END
>  <minimizedAffinity>  (569) 
-16.77215

$$$$
Mol: 162_17 - SminaDock
     RDKit          3D

 40 46  0  0  0  0  0  0  0  0999 V2000
    6.8843   -1.8309  -16.6964 H   0  0  0  0  0  0  0  0  0  0  0  0
    5.9305   -1.9044  -16.3460 N   0  0  0  0  0  0  0  0  0  0  0  0
    5.3035   -1.1115  -15.5562 C   0  0  0  0  0  0  0  0  0  0  0  0
    5.8182    0.0368  -15.0081 C   0  0  0  0  0  0  0  0  0  0  0  0
    7.1006    0.4072  -15.2994 C   0  0  0  0  0  0  0  0  0  0  0  0
    7.6680    1.5534  -14.7750 C   0  0  0  0  0  0  0  0  0  0  0  0
    6.9054    2.3344  -13.9361 C   0  0  0  0  0  0  0  0  0  0  0  0
    5.6077    2.0124  -13.6063 C   0  0  0  0  0  0  0  0  0  0  0  0
    5.0862    0.8429  -14.1654 C   0  0  0  0  0  0  0  0  0  0  0  0
    3.7952    0.4709  -13.8719 C   0  0  0  0  0  0  0  0  0  0  0  0
    3.2735   -0.6779  -14.4172 C   0  0  0  0  0  0  0  0  0  0  0  0
    4.0125   -1.4299  -15.2270 N   0  0  0  0  0  0  0  0  0  0  0  0
    3.6036   -2.3012  -15.6352 H   0  0  0  0  0  0  0  0  0  0  0  0
    7.5175    3.5440  -13.3901 C   0  0  0  0  0  0  0  0  0  0  0  0
    6.7851    4.3629  -12.5363 C   0  0  0  0  0  0  0  0  0  0  0  0
    7.4041    5.4990  -12.0400 C   0  0  0  0  0  0  0  0  0  0  0  0
    8.6906    5.8466  -12.3495 C   0  0  0  0  0  0  0  0  0  0  0  0
    9.3823    4.9964  -13.2070 C   0  0  0  0  0  0  0  0  0  0  0  0
    8.8103    3.8589  -13.7243 C   0  0  0  0  0  0  0  0  0  0  0  0
    9.5581    3.0456  -14.5826 N   0  0  0  0  0  0  0  0  0  0  0  0
   10.5661    3.3066  -14.8430 H   0  0  0  0  0  0  0  0  0  0  0  0
    9.0596    1.8485  -15.1602 C   0  0  0  0  0  0  0  0  0  0  0  0
    9.2614    7.0274  -11.8030 N   0  0  0  0  0  0  0  0  0  0  0  0
    9.6040    6.9835  -10.5457 C   0  0  0  0  0  0  0  0  0  0  0  0
   10.1550    8.0645   -9.9452 N   0  0  0  0  0  0  0  0  0  0  0  0
   10.5243    8.0679   -8.6520 C   0  0  0  0  0  0  0  0  0  0  0  0
   11.0862    9.1751   -8.0448 C   0  0  0  0  0  0  0  0  0  0  0  0
   11.4628    9.1720   -6.7176 C   0  0  0  0  0  0  0  0  0  0  0  0
   11.2904    8.0483   -5.9356 C   0  0  0  0  0  0  0  0  0  0  0  0
   10.7291    6.9442   -6.5447 C   0  0  0  0  0  0  0  0  0  0  0  0
   10.3466    6.9381   -7.8812 C   0  0  0  0  0  0  0  0  0  0  0  0
    9.7887    5.8396   -8.4852 C   0  0  0  0  0  0  0  0  0  0  0  0
    9.4352    5.8869   -9.7851 N   0  0  0  0  0  0  0  0  0  0  0  0
    9.0089    5.0232  -10.2169 H   0  0  0  0  0  0  0  0  0  0  0  0
   11.6872    8.0384   -4.5273 C   0  0  0  0  0  0  0  0  0  0  0  0
   11.7130    6.8518   -3.8239 C   0  0  0  0  0  0  0  0  0  0  0  0
   12.0867    6.8247   -2.4878 C   0  0  0  0  0  0  0  0  0  0  0  0
   12.4454    7.9713   -1.8106 C   0  0  0  0  0  0  0  0  0  0  0  0
   12.4198    9.1579   -2.5129 C   0  0  0  0  0  0  0  0  0  0  0  0
   12.0475    9.1801   -3.8415 C   0  0  0  0  0  0  0  0  0  0  0  0
  1  2  1  0
  2  3  2  0
  3  4  1  0
  4  5  2  0
  5  6  1  0
  6  7  2  0
  7  8  1  0
  8  9  2  0
  9 10  1  0
 10 11  2  0
 11 12  1  0
 12 13  1  0
  7 14  1  0
 14 15  2  0
 15 16  1  0
 16 17  2  0
 17 23  1  0
 23 24  2  0
 24 25  1  0
 25 26  2  0
 26 27  1  0
 27 28  2  0
 28 29  1  0
 29 35  1  0
 35 36  2  0
 36 37  1  0
 37 38  2  0
 38 39  1  0
 39 40  2  0
 29 30  2  0
 30 31  1  0
 31 32  2  0
 32 33  1  0
 33 34  1  0
 17 18  1  0
 18 19  2  0
 19 20  1  0
 20 21  1  0
 20 22  1  0
 12  3  1  0
 19 14  1  0
  9  4  1  0
 33 24  1  0
 22  6  1  0
 31 26  1  0
 40 35  1  0
M  END
>  <minimizedAffinity>  (570) 
-16.80233

$$$$
Mol: 162_18 - SminaDock
     RDKit          3D

 47 54  0  0  0  0  0  0  0  0999 V2000
    8.5579    5.9165  -12.4967 C   0  0  0  0  0  0  0  0  0  0  0  0
    9.1120    5.4448  -13.6935 C   0  0  0  0  0  0  0  0  0  0  0  0
    8.8926    4.2482  -14.3489 C   0  0  0  0  0  0  0  0  0  0  0  0
    7.7626    3.4828  -14.1579 C   0  0  0  0  0  0  0  0  0  0  0  0
    6.7932    3.5377  -13.1828 C   0  0  0  0  0  0  0  0  0  0  0  0
    6.5359    4.5352  -12.2592 C   0  0  0  0  0  0  0  0  0  0  0  0
    5.3905    4.5663  -11.7213 O   0  0  0  0  0  0  0  0  0  0  0  0
    7.4159    5.5147  -11.8592 C   0  0  0  0  0  0  0  0  0  0  0  0
    9.9038    3.7785  -15.2804 C   0  0  0  0  0  0  0  0  0  0  0  0
   10.3459    2.4689  -15.3665 C   0  0  0  0  0  0  0  0  0  0  0  0
   11.3109    2.0757  -16.2809 C   0  0  0  0  0  0  0  0  0  0  0  0
   11.7963    3.0469  -17.0899 C   0  0  0  0  0  0  0  0  0  0  0  0
   11.3823    4.3839  -17.0348 C   0  0  0  0  0  0  0  0  0  0  0  0
   10.4412    4.7501  -16.1379 C   0  0  0  0  0  0  0  0  0  0  0  0
   11.9948    5.4886  -17.8677 C   0  0  0  0  0  0  0  0  0  0  0  0
   13.3939    5.4519  -17.4836 N   0  0  0  0  0  0  0  0  0  0  0  0
   13.8001    6.4137  -17.4886 H   0  0  0  0  0  0  0  0  0  0  0  0
   14.2672    4.5970  -18.1709 C   0  0  0  0  0  0  0  0  0  0  0  0
   13.8326    3.2137  -18.4607 C   0  0  0  0  0  0  0  0  0  0  0  0
   14.6659    2.6033  -19.3290 N   0  0  0  0  0  0  0  0  0  0  0  0
   14.3811    1.3561  -19.7298 C   0  0  0  0  0  0  0  0  0  0  0  0
   15.2750    0.7657  -20.6282 C   0  0  0  0  0  0  0  0  0  0  0  0
   15.0301   -0.5208  -21.0753 C   0  0  0  0  0  0  0  0  0  0  0  0
   13.9132   -1.1765  -20.6196 C   0  0  0  0  0  0  0  0  0  0  0  0
   13.0234   -0.6129  -19.7370 C   0  0  0  0  0  0  0  0  0  0  0  0
   13.2680    0.6694  -19.2918 C   0  0  0  0  0  0  0  0  0  0  0  0
   12.4149    1.3036  -18.3998 C   0  0  0  0  0  0  0  0  0  0  0  0
   11.4061    0.7279  -17.9975 O   0  0  0  0  0  0  0  0  0  0  0  0
   12.7384    2.5355  -18.0273 N   0  0  0  0  0  0  0  0  0  0  0  0
   11.3169    7.9483   -5.9903 C   0  0  0  0  0  0  0  0  0  0  0  0
   11.6468    9.0009   -6.8174 C   0  0  0  0  0  0  0  0  0  0  0  0
   11.2960    8.9994   -8.1505 C   0  0  0  0  0  0  0  0  0  0  0  0
   10.5985    7.9435   -8.7161 C   0  0  0  0  0  0  0  0  0  0  0  0
   10.2541    7.9347  -10.0144 N   0  0  0  0  0  0  0  0  0  0  0  0
    9.5753    6.9066  -10.5693 C   0  0  0  0  0  0  0  0  0  0  0  0
    9.2696    6.9562  -11.8386 N   0  0  0  0  0  0  0  0  0  0  0  0
    9.2616    5.8963   -9.7632 N   0  0  0  0  0  0  0  0  0  0  0  0
    8.7389    5.0846  -10.1483 H   0  0  0  0  0  0  0  0  0  0  0  0
    9.5749    5.8428   -8.4598 C   0  0  0  0  0  0  0  0  0  0  0  0
   10.2665    6.8914   -7.8978 C   0  0  0  0  0  0  0  0  0  0  0  0
   10.6245    6.9031   -6.5578 C   0  0  0  0  0  0  0  0  0  0  0  0
   12.4397    7.9765   -1.8721 C   0  0  0  0  0  0  0  0  0  0  0  0
   12.4561    9.1455   -2.5953 C   0  0  0  0  0  0  0  0  0  0  0  0
   12.0865    9.1140   -3.9368 C   0  0  0  0  0  0  0  0  0  0  0  0
   11.7034    7.9807   -4.5896 C   0  0  0  0  0  0  0  0  0  0  0  0
   11.6880    6.8001   -3.8552 C   0  0  0  0  0  0  0  0  0  0  0  0
   12.0508    6.8139   -2.5265 C   0  0  0  0  0  0  0  0  0  0  0  0
 42 43  2  0
 43 44  1  0
 44 45  2  0
 45 30  1  0
 30 31  1  0
 31 32  2  0
 32 33  1  0
 33 34  2  0
 34 35  1  0
 35 36  2  0
 36  1  1  0
  1  2  1  0
  2  3  2  0
  3  9  1  0
  9 10  2  0
 10 11  1  0
 11 12  2  0
 12 13  1  0
 13 14  2  0
 13 15  1  0
 15 16  1  0
 16 17  1  0
 16 18  1  0
 18 19  1  0
 19 20  2  0
 20 21  1  0
 21 22  2  0
 22 23  1  0
 23 24  2  0
 24 25  1  0
 25 26  2  0
 26 27  1  0
 27 28  2  0
 27 29  1  0
  3  4  1  0
  4  5  2  0
  5  6  1  0
  6  7  2  0
  6  8  1  0
 35 37  1  0
 37 38  1  0
 37 39  1  0
 39 40  2  0
 40 41  1  0
 45 46  1  0
 46 47  2  0
 47 42  1  0
 41 30  2  0
 40 33  1  0
  8  1  2  0
 14  9  1  0
 29 19  1  0
 29 12  1  0
 26 21  1  0
M  END
>  <minimizedAffinity>  (571) 
-16.84511

$$$$
Mol: 157_41 - SminaDock
     RDKit          3D

 41 47  0  0  0  0  0  0  0  0999 V2000
    9.5524    0.4263  -17.1849 H   0  0  0  0  0  0  0  0  0  0  0  0
    8.7587    1.0335  -17.2963 O   0  0  0  0  0  0  0  0  0  0  0  0
    7.9036    1.3044  -16.2452 C   0  0  0  0  0  0  0  0  0  0  0  0
    8.0971    2.3501  -15.3868 N   0  0  0  0  0  0  0  0  0  0  0  0
    7.2585    2.6073  -14.3639 C   0  0  0  0  0  0  0  0  0  0  0  0
    6.1245    1.8262  -14.0980 C   0  0  0  0  0  0  0  0  0  0  0  0
    5.9421    0.7799  -14.9698 C   0  0  0  0  0  0  0  0  0  0  0  0
    6.8172    0.5298  -16.0179 C   0  0  0  0  0  0  0  0  0  0  0  0
    6.4669   -0.6641  -16.8472 C   0  0  0  0  0  0  0  0  0  0  0  0
    6.0491   -1.7085  -16.0205 O   0  0  0  0  0  0  0  0  0  0  0  0
    4.8904   -1.4977  -15.3329 C   0  0  0  0  0  0  0  0  0  0  0  0
    4.8011   -0.1043  -14.8634 C   0  0  0  0  0  0  0  0  0  0  0  0
    3.7429    0.3763  -14.3558 O   0  0  0  0  0  0  0  0  0  0  0  0
    5.0788    1.8699  -13.0689 C   0  0  0  0  0  0  0  0  0  0  0  0
    5.6366    2.6678  -11.9573 N   0  0  0  0  0  0  0  0  0  0  0  0
    6.5907    2.3597  -11.7500 H   0  0  0  0  0  0  0  0  0  0  0  0
    5.5669    4.0832  -12.1988 C   0  0  0  0  0  0  0  0  0  0  0  0
    6.9570    4.4802  -12.6451 C   0  0  0  0  0  0  0  0  0  0  0  0
    7.4604    5.5734  -12.0211 C   0  0  0  0  0  0  0  0  0  0  0  0
    8.7292    5.9961  -12.3679 C   0  0  0  0  0  0  0  0  0  0  0  0
    9.4474    5.3261  -13.3123 C   0  0  0  0  0  0  0  0  0  0  0  0
    8.9486    4.2107  -13.9572 C   0  0  0  0  0  0  0  0  0  0  0  0
    7.6831    3.7910  -13.6100 C   0  0  0  0  0  0  0  0  0  0  0  0
    9.3007    7.1302  -11.7477 N   0  0  0  0  0  0  0  0  0  0  0  0
    9.6308    7.0792  -10.5208 C   0  0  0  0  0  0  0  0  0  0  0  0
    9.4446    5.9699   -9.8130 N   0  0  0  0  0  0  0  0  0  0  0  0
    9.7715    5.8432   -8.5042 C   0  0  0  0  0  0  0  0  0  0  0  0
   10.3297    6.9394   -7.8837 C   0  0  0  0  0  0  0  0  0  0  0  0
   10.7069    6.9481   -6.5635 C   0  0  0  0  0  0  0  0  0  0  0  0
   11.2687    8.0850   -5.9804 C   0  0  0  0  0  0  0  0  0  0  0  0
   11.4530    9.2317   -6.7408 C   0  0  0  0  0  0  0  0  0  0  0  0
   11.0747    9.2249   -8.0672 C   0  0  0  0  0  0  0  0  0  0  0  0
   10.5206    8.0877   -8.6231 C   0  0  0  0  0  0  0  0  0  0  0  0
   10.1728    8.1538   -9.9313 N   0  0  0  0  0  0  0  0  0  0  0  0
   10.3331    9.0467  -10.4646 H   0  0  0  0  0  0  0  0  0  0  0  0
   11.6553    8.0546   -4.5796 C   0  0  0  0  0  0  0  0  0  0  0  0
   12.0280    9.2391   -3.9397 C   0  0  0  0  0  0  0  0  0  0  0  0
   12.3846    9.1453   -2.6103 C   0  0  0  0  0  0  0  0  0  0  0  0
   12.3808    7.9379   -1.9182 C   0  0  0  0  0  0  0  0  0  0  0  0
   12.0137    6.7929   -2.5611 C   0  0  0  0  0  0  0  0  0  0  0  0
   11.6477    6.8498   -3.9023 C   0  0  0  0  0  0  0  0  0  0  0  0
  1  2  1  0
  2  3  1  0
  3  4  2  0
  4  5  1  0
  5  6  2  0
  6  7  1  0
  7  8  2  0
  8  9  1  0
  9 10  1  0
 10 11  1  0
 11 12  1  0
 12 13  2  0
  6 14  1  0
 14 15  1  0
 15 16  1  0
 15 17  1  0
 17 18  1  0
 18 19  2  0
 19 20  1  0
 20 24  1  0
 24 25  2  0
 25 26  1  0
 26 27  2  0
 27 28  1  0
 28 29  2  0
 29 30  1  0
 30 36  1  0
 36 37  2  0
 37 38  1  0
 38 39  2  0
 39 40  1  0
 40 41  2  0
 30 31  2  0
 31 32  1  0
 32 33  2  0
 33 34  1  0
 34 35  1  0
 20 21  2  0
 21 22  1  0
 22 23  2  0
  8  3  1  0
 23 18  1  0
 23  5  1  0
 12  7  1  0
 34 25  1  0
 33 28  1  0
 41 36  1  0
M  END
>  <minimizedAffinity>  (572) 
-16.77567

$$$$
Mol: 73_55 - SminaDock
     RDKit          3D

 47 55  0  0  0  0  0  0  0  0999 V2000
   13.6596    8.4738  -18.9227 C   0  0  0  0  0  0  0  0  0  0  0  0
   14.2533    8.7557  -17.7134 C   0  0  0  0  0  0  0  0  0  0  0  0
   13.9395    7.9582  -16.6382 C   0  0  0  0  0  0  0  0  0  0  0  0
   13.0435    6.8990  -16.7915 C   0  0  0  0  0  0  0  0  0  0  0  0
   12.4723    6.6465  -18.0169 C   0  0  0  0  0  0  0  0  0  0  0  0
   12.7623    7.4166  -19.0902 C   0  0  0  0  0  0  0  0  0  0  0  0
   11.6288    5.4771  -18.1488 C   0  0  0  0  0  0  0  0  0  0  0  0
   10.9903    5.2380  -19.3640 C   0  0  0  0  0  0  0  0  0  0  0  0
   10.1490    4.1732  -19.5144 C   0  0  0  0  0  0  0  0  0  0  0  0
    9.9473    3.3431  -18.4372 C   0  0  0  0  0  0  0  0  0  0  0  0
   10.5522    3.5340  -17.2207 C   0  0  0  0  0  0  0  0  0  0  0  0
   11.4133    4.6214  -17.0648 C   0  0  0  0  0  0  0  0  0  0  0  0
   12.1442    4.8083  -15.8075 C   0  0  2  0  0  0  0  0  0  0  0  0
   11.5546    4.1691  -14.5776 C   0  0  0  0  0  0  0  0  0  0  0  0
   10.8008    5.1707  -13.7755 N   0  0  0  0  0  0  0  0  0  0  0  0
    9.5609    5.0155  -13.4767 C   0  0  0  0  0  0  0  0  0  0  0  0
    8.7997    5.9085  -12.7470 C   0  0  0  0  0  0  0  0  0  0  0  0
    7.4707    5.6511  -12.3984 C   0  0  0  0  0  0  0  0  0  0  0  0
    6.8630    4.4878  -12.7728 C   0  0  0  0  0  0  0  0  0  0  0  0
    5.5531    4.1694  -12.4548 C   0  0  0  0  0  0  0  0  0  0  0  0
    4.9926    2.9715  -12.8564 C   0  0  0  0  0  0  0  0  0  0  0  0
    5.7409    2.0800  -13.5814 C   0  0  0  0  0  0  0  0  0  0  0  0
    7.0417    2.3969  -13.8967 C   0  0  0  0  0  0  0  0  0  0  0  0
    7.6267    3.6047  -13.4990 C   0  0  0  0  0  0  0  0  0  0  0  0
    8.9037    3.8787  -13.8203 N   0  0  0  0  0  0  0  0  0  0  0  0
    9.3927    3.1553  -14.3591 H   0  0  0  0  0  0  0  0  0  0  0  0
   11.6687    6.2541  -13.4014 C   0  0  1  0  0  0  0  0  0  0  0  0
   11.8572    7.0602  -14.6574 C   0  0  0  0  0  0  0  0  0  0  0  0
   12.7005    6.1530  -15.5803 C   0  0  2  0  0  0  0  0  0  0  0  0
   11.5274    6.9712  -12.1656 C   0  0  0  0  0  0  0  0  0  0  0  0
   10.3013    7.3972  -11.6542 C   0  0  0  0  0  0  0  0  0  0  0  0
   10.2094    8.1222  -10.4917 C   0  0  0  0  0  0  0  0  0  0  0  0
   11.3322    8.4675   -9.7677 C   0  0  0  0  0  0  0  0  0  0  0  0
   12.5371    8.0529  -10.2643 C   0  0  0  0  0  0  0  0  0  0  0  0
   12.6450    7.3247  -11.4286 C   0  0  0  0  0  0  0  0  0  0  0  0
   11.2788    9.1984   -8.5606 N   0  0  0  0  0  0  0  0  0  0  0  0
   11.1752   10.2580   -8.6092 H   0  0  0  0  0  0  0  0  0  0  0  0
   11.3502    8.6284   -7.2715 C   0  0  0  0  0  0  0  0  0  0  0  0
   10.6477    7.4708   -7.0117 C   0  0  0  0  0  0  0  0  0  0  0  0
   10.6923    6.9164   -5.7485 C   0  0  0  0  0  0  0  0  0  0  0  0
   11.4315    7.5148   -4.7490 C   0  0  0  0  0  0  0  0  0  0  0  0
   11.4328    6.9084   -3.4910 C   0  0  0  0  0  0  0  0  0  0  0  0
   12.1433    7.4685   -2.4799 C   0  0  0  0  0  0  0  0  0  0  0  0
   12.8567    8.6335   -2.7205 C   0  0  0  0  0  0  0  0  0  0  0  0
   12.8592    9.2396   -3.9722 C   0  0  0  0  0  0  0  0  0  0  0  0
   12.1444    8.6752   -4.9858 C   0  0  0  0  0  0  0  0  0  0  0  0
   12.0888    9.2230   -6.2697 C   0  0  0  0  0  0  0  0  0  0  0  0
  1  2  2  0
  2  3  1  0
  3  4  2  0
  4  5  1  0
  5  6  2  0
  5  7  1  0
  7  8  2  0
  8  9  1  0
  9 10  2  0
 10 11  1  0
 11 12  2  0
 12 13  1  0
 13 14  1  1
 14 15  1  0
 15 16  2  0
 16 17  1  0
 17 18  2  0
 18 19  1  0
 19 20  2  0
 20 21  1  0
 21 22  2  0
 22 23  1  0
 23 24  2  0
 24 25  1  0
 25 26  1  0
 15 27  1  0
 27 30  1  1
 30 31  2  0
 31 32  1  0
 32 33  2  0
 33 36  1  0
 36 37  1  0
 36 38  1  0
 38 39  2  0
 39 40  1  0
 40 41  2  0
 41 42  1  0
 42 43  2  0
 43 44  1  0
 44 45  2  0
 45 46  1  0
 46 47  2  0
 33 34  1  0
 34 35  2  0
 27 28  1  0
 29 28  1  6
  6  1  1  0
 12  7  1  0
 29 13  1  0
 29  4  1  0
 25 16  1  0
 35 30  1  0
 24 19  1  0
 47 38  1  0
 46 41  1  0
M  CHG  1  15   1
M  END
>  <minimizedAffinity>  (573) 
-16.76077

$$$$
Mol: 193_53 - SminaDock
     RDKit          3D

 37 43  0  0  0  0  0  0  0  0999 V2000
    4.8471   -1.3792  -16.3205 C   0  0  0  0  0  0  0  0  0  0  0  0
    4.1054   -0.8988  -15.3173 N   0  0  0  0  0  0  0  0  0  0  0  0
    4.5435    0.1731  -14.6162 C   0  0  0  0  0  0  0  0  0  0  0  0
    3.8035    0.5668  -13.6974 O   0  0  0  0  0  0  0  0  0  0  0  0
    5.7308    0.8316  -14.8597 C   0  0  0  0  0  0  0  0  0  0  0  0
    6.1644    1.9350  -14.1271 C   0  0  0  0  0  0  0  0  0  0  0  0
    7.3830    2.5198  -14.4675 C   0  0  0  0  0  0  0  0  0  0  0  0
    8.1237    2.0100  -15.4985 C   0  0  0  0  0  0  0  0  0  0  0  0
    7.6675    0.9023  -16.2178 C   0  0  0  0  0  0  0  0  0  0  0  0
    6.4853    0.3226  -15.9000 C   0  0  0  0  0  0  0  0  0  0  0  0
    6.0488   -0.7802  -16.6317 C   0  0  0  0  0  0  0  0  0  0  0  0
    7.8492    3.6773  -13.7068 C   0  0  0  0  0  0  0  0  0  0  0  0
    9.0658    4.2484  -14.0670 C   0  0  0  0  0  0  0  0  0  0  0  0
    9.4830    5.3429  -13.3379 C   0  0  0  0  0  0  0  0  0  0  0  0
    8.7626    5.8783  -12.2954 C   0  0  0  0  0  0  0  0  0  0  0  0
    7.5712    5.2717  -11.9878 C   0  0  0  0  0  0  0  0  0  0  0  0
    7.0959    4.1616  -12.6886 C   0  0  0  0  0  0  0  0  0  0  0  0
    5.8141    3.5808  -12.2808 C   0  0  0  0  0  0  0  0  0  0  0  0
    5.3100    2.4101  -13.0401 C   0  0  0  0  0  0  0  0  0  0  0  0
    9.2331    7.0140  -11.5621 N   0  0  0  0  0  0  0  0  0  0  0  0
    9.5986    6.9343  -10.3314 C   0  0  0  0  0  0  0  0  0  0  0  0
    9.5730    5.7637   -9.6109 C   0  0  0  0  0  0  0  0  0  0  0  0
    9.9840    5.7697   -8.2936 C   0  0  0  0  0  0  0  0  0  0  0  0
   10.4175    6.9454   -7.7055 C   0  0  0  0  0  0  0  0  0  0  0  0
   10.8289    6.9602   -6.3941 C   0  0  0  0  0  0  0  0  0  0  0  0
   11.2653    8.1349   -5.7968 C   0  0  0  0  0  0  0  0  0  0  0  0
   11.2899    9.2997   -6.5156 C   0  0  0  0  0  0  0  0  0  0  0  0
   10.8698    9.2657   -7.8423 C   0  0  0  0  0  0  0  0  0  0  0  0
   10.4356    8.1104   -8.4455 C   0  0  0  0  0  0  0  0  0  0  0  0
   10.0236    8.0638   -9.7389 N   0  0  0  0  0  0  0  0  0  0  0  0
   10.0593    8.9762  -10.2502 H   0  0  0  0  0  0  0  0  0  0  0  0
   11.6900    8.0999   -4.4161 C   0  0  0  0  0  0  0  0  0  0  0  0
   11.7584    6.9108   -3.7069 C   0  0  0  0  0  0  0  0  0  0  0  0
   12.1583    6.8475   -2.3922 C   0  0  0  0  0  0  0  0  0  0  0  0
   12.5136    8.0004   -1.7201 C   0  0  0  0  0  0  0  0  0  0  0  0
   12.4558    9.1995   -2.3992 C   0  0  0  0  0  0  0  0  0  0  0  0
   12.0529    9.2489   -3.7182 C   0  0  0  0  0  0  0  0  0  0  0  0
  1  2  1  0
  2  3  1  0
  3  4  2  0
  3  5  1  0
  5  6  2  0
  6  7  1  0
  7  8  2  0
  8  9  1  0
  9 10  2  0
 10 11  1  0
  7 12  1  0
 12 13  2  0
 13 14  1  0
 14 15  2  0
 15 20  1  0
 20 21  2  0
 21 22  1  0
 22 23  2  0
 23 24  1  0
 24 25  2  0
 25 26  1  0
 26 32  1  0
 32 33  2  0
 33 34  1  0
 34 35  2  0
 35 36  1  0
 36 37  2  0
 26 27  2  0
 27 28  1  0
 28 29  2  0
 29 30  1  0
 30 31  1  0
 15 16  1  0
 16 17  2  0
 17 18  1  0
 18 19  1  0
 11  1  2  0
 17 12  1  0
 10  5  1  0
 30 21  1  0
 19  6  1  0
 29 24  1  0
 37 32  1  0
M  CHG  1   2  -1
M  END
>  <minimizedAffinity>  (574) 
-16.79324

$$$$
Mol: 136_28 - SminaDock
     RDKit          3D

 38 44  0  0  0  0  0  0  0  0999 V2000
    8.5927    6.2285  -12.4466 C   0  0  0  0  0  0  0  0  0  0  0  0
    7.5077    6.9196  -12.0063 C   0  0  0  0  0  0  0  0  0  0  0  0
    6.2803    6.3013  -12.0842 C   0  0  0  0  0  0  0  0  0  0  0  0
    6.1625    5.0079  -12.5995 C   0  0  0  0  0  0  0  0  0  0  0  0
    4.9316    4.4098  -12.6703 C   0  0  0  0  0  0  0  0  0  0  0  0
    4.7874    3.1186  -13.1828 C   0  0  0  0  0  0  0  0  0  0  0  0
    5.9042    2.4354  -13.6245 C   0  0  0  0  0  0  0  0  0  0  0  0
    7.1551    3.0146  -13.5638 C   0  0  0  0  0  0  0  0  0  0  0  0
    7.2553    4.3083  -13.0445 C   0  0  0  0  0  0  0  0  0  0  0  0
    8.4825    4.9510  -12.9565 C   0  0  0  0  0  0  0  0  0  0  0  0
    8.4112    2.3992  -13.9873 C   0  0  0  0  0  0  0  0  0  0  0  0
    8.2962    1.0513  -14.5716 C   0  0  0  0  0  0  0  0  0  0  0  0
    6.9518    0.4728  -14.6058 C   0  0  0  0  0  0  0  0  0  0  0  0
    5.8028    1.0892  -14.1765 C   0  0  0  0  0  0  0  0  0  0  0  0
    4.6050    0.4382  -14.2689 C   0  0  0  0  0  0  0  0  0  0  0  0
    4.6014   -0.8533  -14.8073 C   0  0  0  0  0  0  0  0  0  0  0  0
    5.7482   -1.4722  -15.2372 C   0  0  0  0  0  0  0  0  0  0  0  0
    5.7394   -2.6440  -15.7248 O   0  0  0  0  0  0  0  0  0  0  0  0
    6.8868   -0.7939  -15.1246 N   0  0  0  0  0  0  0  0  0  0  0  0
    7.7589   -1.2806  -15.4580 H   0  0  0  0  0  0  0  0  0  0  0  0
   11.0761    7.4749   -6.3244 C   0  0  0  0  0  0  0  0  0  0  0  0
    9.8012    6.9552   -6.4613 C   0  0  0  0  0  0  0  0  0  0  0  0
    9.3451    6.7202   -7.7360 C   0  0  0  0  0  0  0  0  0  0  0  0
   10.1174    6.9867   -8.8630 C   0  0  0  0  0  0  0  0  0  0  0  0
   11.3905    7.5068   -8.7028 C   0  0  0  0  0  0  0  0  0  0  0  0
   12.1200    7.7550   -9.8555 C   0  0  0  0  0  0  0  0  0  0  0  0
   11.6512    7.5168  -11.0850 N   0  0  0  0  0  0  0  0  0  0  0  0
   10.4009    7.0070  -11.2187 C   0  0  0  0  0  0  0  0  0  0  0  0
    9.9231    6.7666  -12.4165 N   0  0  0  0  0  0  0  0  0  0  0  0
    9.6953    6.7670  -10.1009 N   0  0  0  0  0  0  0  0  0  0  0  0
    8.7218    6.3696  -10.2204 H   0  0  0  0  0  0  0  0  0  0  0  0
   11.8628    7.7478   -7.4415 C   0  0  0  0  0  0  0  0  0  0  0  0
   12.6487    8.2466   -2.5578 C   0  0  0  0  0  0  0  0  0  0  0  0
   12.7736    9.2163   -3.5334 C   0  0  0  0  0  0  0  0  0  0  0  0
   12.2490    8.9527   -4.7807 C   0  0  0  0  0  0  0  0  0  0  0  0
   11.6237    7.7478   -5.0176 C   0  0  0  0  0  0  0  0  0  0  0  0
   11.5114    6.7994   -4.0329 C   0  0  0  0  0  0  0  0  0  0  0  0
   12.0268    7.0345   -2.7740 C   0  0  0  0  0  0  0  0  0  0  0  0
 33 34  2  0
 34 35  1  0
 35 36  2  0
 36 21  1  0
 21 22  2  0
 22 23  1  0
 23 24  2  0
 24 25  1  0
 25 26  1  0
 26 27  2  0
 27 28  1  0
 28 29  2  0
 29  1  1  0
  1  2  2  0
  2  3  1  0
  3  4  2  0
  4  5  1  0
  5  6  2  0
  6  7  1  0
  7  8  2  0
  8  9  1  0
  9 10  2  0
  8 11  1  0
 11 12  1  0
 12 13  1  0
 13 14  2  0
 14 15  1  0
 15 16  2  0
 16 17  1  0
 17 18  2  0
 17 19  1  0
 19 20  1  0
 28 30  1  0
 30 31  1  0
 25 32  2  0
 36 37  1  0
 37 38  2  0
 38 33  1  0
 32 21  1  0
 30 24  1  0
 10  1  1  0
 19 13  1  0
  9  4  1  0
 14  7  1  0
M  END
>  <minimizedAffinity>  (575) 
-16.78611

$$$$
Mol: 179_23 - SminaDock
     RDKit          3D

 39 45  0  0  0  0  0  0  0  0999 V2000
    8.7203    5.9673  -12.5680 C   0  0  0  0  0  0  0  0  0  0  0  0
    9.2863    5.2881  -13.6233 C   0  0  0  0  0  0  0  0  0  0  0  0
    8.6673    4.1525  -14.1633 C   0  0  0  0  0  0  0  0  0  0  0  0
    7.4704    3.7298  -13.6085 C   0  0  0  0  0  0  0  0  0  0  0  0
    6.8904    4.3895  -12.5600 C   0  0  0  0  0  0  0  0  0  0  0  0
    7.5245    5.5042  -12.0505 C   0  0  0  0  0  0  0  0  0  0  0  0
    5.6278    3.9809  -11.9396 C   0  0  0  0  0  0  0  0  0  0  0  0
    4.9489    2.7962  -12.4847 C   0  0  0  0  0  0  0  0  0  0  0  0
    5.6359    2.1303  -13.6192 C   0  0  0  0  0  0  0  0  0  0  0  0
    6.8266    2.5494  -14.1708 C   0  0  0  0  0  0  0  0  0  0  0  0
    7.3873    1.8571  -15.2316 C   0  0  0  0  0  0  0  0  0  0  0  0
    6.7659    0.7279  -15.7635 C   0  0  0  0  0  0  0  0  0  0  0  0
    7.3077    0.0245  -16.8197 C   0  0  0  0  0  0  0  0  0  0  0  0
    6.6882   -1.0932  -17.3428 C   0  0  0  0  0  0  0  0  0  0  0  0
    5.4852   -1.5384  -16.8050 C   0  0  0  0  0  0  0  0  0  0  0  0
    4.8837   -2.6835  -17.3667 N   0  0  0  0  0  0  0  0  0  0  0  0
    4.9384   -3.5841  -16.8721 H   0  0  0  0  0  0  0  0  0  0  0  0
    4.3921   -2.6133  -18.2700 H   0  0  0  0  0  0  0  0  0  0  0  0
    4.9576   -0.8289  -15.7545 C   0  0  0  0  0  0  0  0  0  0  0  0
    5.5798    0.2989  -15.2243 C   0  0  0  0  0  0  0  0  0  0  0  0
    5.0432    1.0033  -14.1716 C   0  0  0  0  0  0  0  0  0  0  0  0
   11.3084    8.0375   -6.1575 C   0  0  0  0  0  0  0  0  0  0  0  0
   11.5907    9.1292   -6.9528 C   0  0  0  0  0  0  0  0  0  0  0  0
   11.2732    9.1960   -8.2926 C   0  0  0  0  0  0  0  0  0  0  0  0
   10.6311    8.1082   -8.8919 C   0  0  0  0  0  0  0  0  0  0  0  0
   10.3479    7.0130   -8.0944 C   0  0  0  0  0  0  0  0  0  0  0  0
    9.7111    5.9461   -8.7091 C   0  0  0  0  0  0  0  0  0  0  0  0
    9.4058    6.0191  -10.0136 N   0  0  0  0  0  0  0  0  0  0  0  0
    9.6874    7.0880  -10.7717 C   0  0  0  0  0  0  0  0  0  0  0  0
    9.3701    7.1146  -12.0418 N   0  0  0  0  0  0  0  0  0  0  0  0
   10.3050    8.1330  -10.1924 N   0  0  0  0  0  0  0  0  0  0  0  0
   10.5194    8.9586  -10.7898 H   0  0  0  0  0  0  0  0  0  0  0  0
   10.6735    6.9713   -6.7665 C   0  0  0  0  0  0  0  0  0  0  0  0
   12.3129    7.8551   -2.0067 C   0  0  0  0  0  0  0  0  0  0  0  0
   12.3674    9.0500   -2.6907 C   0  0  0  0  0  0  0  0  0  0  0  0
   12.0413    9.1169   -4.0443 C   0  0  0  0  0  0  0  0  0  0  0  0
   11.6560    7.9877   -4.7316 C   0  0  0  0  0  0  0  0  0  0  0  0
   11.6031    6.7958   -4.0435 C   0  0  0  0  0  0  0  0  0  0  0  0
   11.9270    6.7203   -2.6922 C   0  0  0  0  0  0  0  0  0  0  0  0
 34 35  2  0
 35 36  1  0
 36 37  2  0
 37 22  1  0
 22 23  2  0
 23 24  1  0
 24 25  2  0
 25 26  1  0
 26 27  1  0
 27 28  2  0
 28 29  1  0
 29 30  2  0
 30  1  1  0
  1  2  2  0
  2  3  1  0
  3  4  2  0
  4  5  1  0
  5  6  2  0
  5  7  1  0
  7  8  1  0
  8  9  1  0
  9 10  2  0
 10 11  1  0
 11 12  2  0
 12 13  1  0
 13 14  2  0
 14 15  1  0
 15 16  1  0
 16 17  1  0
 16 18  1  0
 15 19  2  0
 19 20  1  0
 20 21  2  0
 29 31  1  0
 31 32  1  0
 26 33  2  0
 37 38  1  0
 38 39  2  0
 39 34  1  0
 33 22  1  0
 31 25  1  0
  6  1  1  0
 21  9  1  0
 10  4  1  0
 20 12  1  0
M  END
>  <minimizedAffinity>  (576) 
-16.77803

$$$$
Mol: 190_50 - SminaDock
     RDKit          3D

 44 51  0  0  0  0  0  0  0  0999 V2000
   11.8753    2.1036  -13.3117 H   0  0  0  0  0  0  0  0  0  0  0  0
   10.9746    2.0306  -13.7819 O   0  0  0  0  0  0  0  0  0  0  0  0
   10.7061    2.8805  -14.8525 C   0  0  0  0  0  0  0  0  0  0  0  0
   11.6224    3.2931  -15.6626 N   0  0  0  0  0  0  0  0  0  0  0  0
   11.0653    4.1348  -16.6421 C   0  0  0  0  0  0  0  0  0  0  0  0
   11.7064    4.6946  -17.5743 O   0  0  0  0  0  0  0  0  0  0  0  0
    9.6706    4.2433  -16.4015 N   0  0  0  0  0  0  0  0  0  0  0  0
    9.0064    4.8042  -16.9725 H   0  0  0  0  0  0  0  0  0  0  0  0
    9.3823    3.4459  -15.2472 C   0  0  2  0  0  0  0  0  0  0  0  0
    8.7995    4.2602  -14.1459 C   0  0  0  0  0  0  0  0  0  0  0  0
    9.3056    5.3975  -13.5264 C   0  0  0  0  0  0  0  0  0  0  0  0
    8.6359    6.0491  -12.5031 C   0  0  0  0  0  0  0  0  0  0  0  0
    7.4138    5.4984  -12.1229 C   0  0  0  0  0  0  0  0  0  0  0  0
    6.9121    4.3713  -12.7370 C   0  0  0  0  0  0  0  0  0  0  0  0
    7.6013    3.7432  -13.7536 C   0  0  0  0  0  0  0  0  0  0  0  0
    7.3680    2.5748  -14.5906 C   0  0  0  0  0  0  0  0  0  0  0  0
    8.3968    2.3775  -15.4760 C   0  0  0  0  0  0  0  0  0  0  0  0
    8.2974    1.3010  -16.3284 C   0  0  0  0  0  0  0  0  0  0  0  0
    7.2130    0.4358  -16.3140 C   0  0  0  0  0  0  0  0  0  0  0  0
    6.1909    0.6351  -15.4316 C   0  0  0  0  0  0  0  0  0  0  0  0
    5.2714   -0.3433  -15.6285 N   0  0  0  0  0  0  0  0  0  0  0  0
    5.6971   -1.1520  -16.6173 C   0  0  0  0  0  0  0  0  0  0  0  0
    5.0674   -2.1705  -17.0507 O   0  0  0  0  0  0  0  0  0  0  0  0
    6.8811   -0.6599  -17.0208 N   0  0  0  0  0  0  0  0  0  0  0  0
    7.4364   -1.0941  -17.7793 H   0  0  0  0  0  0  0  0  0  0  0  0
    6.2742    1.7081  -14.5708 C   0  0  0  0  0  0  0  0  0  0  0  0
    9.1491    7.2119  -11.8661 N   0  0  0  0  0  0  0  0  0  0  0  0
    9.5183    7.1453  -10.6156 C   0  0  0  0  0  0  0  0  0  0  0  0
    9.4017    5.9414   -9.9356 C   0  0  0  0  0  0  0  0  0  0  0  0
    9.7879    5.8659   -8.6278 C   0  0  0  0  0  0  0  0  0  0  0  0
   10.2853    6.9742   -7.9995 C   0  0  0  0  0  0  0  0  0  0  0  0
   10.6952    6.9654   -6.6749 C   0  0  0  0  0  0  0  0  0  0  0  0
   11.2000    8.0652   -6.0165 C   0  0  0  0  0  0  0  0  0  0  0  0
   11.2988    9.2444   -6.7319 C   0  0  0  0  0  0  0  0  0  0  0  0
   10.9043    9.3008   -8.0486 C   0  0  0  0  0  0  0  0  0  0  0  0
   10.4072    8.1886   -8.6718 C   0  0  0  0  0  0  0  0  0  0  0  0
   10.0079    8.1889   -9.9558 N   0  0  0  0  0  0  0  0  0  0  0  0
   10.0904    9.0886  -10.4793 H   0  0  0  0  0  0  0  0  0  0  0  0
   11.6219    8.0150   -4.6205 C   0  0  0  0  0  0  0  0  0  0  0  0
   11.9932    9.1483   -3.9300 C   0  0  0  0  0  0  0  0  0  0  0  0
   12.3939    9.0868   -2.5968 C   0  0  0  0  0  0  0  0  0  0  0  0
   12.4340    7.8878   -1.9168 C   0  0  0  0  0  0  0  0  0  0  0  0
   12.0627    6.7526   -2.6062 C   0  0  0  0  0  0  0  0  0  0  0  0
   11.6662    6.8187   -3.9284 C   0  0  0  0  0  0  0  0  0  0  0  0
  1  2  1  0
  2  3  1  0
  3  4  2  0
  4  5  1  0
  5  6  2  0
  5  7  1  0
  7  8  1  0
  9  7  1  6
  9 10  1  0
 10 11  2  0
 11 12  1  0
 12 27  1  0
 27 28  2  0
 28 29  1  0
 29 30  2  0
 30 31  1  0
 31 32  2  0
 32 33  1  0
 33 39  1  0
 39 40  2  0
 40 41  1  0
 41 42  2  0
 42 43  1  0
 43 44  2  0
 33 34  2  0
 34 35  1  0
 35 36  2  0
 36 37  1  0
 37 38  1  0
 12 13  2  0
 13 14  1  0
 14 15  2  0
 15 16  1  0
 16 17  2  0
 17 18  1  0
 18 19  2  0
 19 20  1  0
 20 21  1  0
 21 22  1  0
 22 23  2  0
 22 24  1  0
 24 25  1  0
 20 26  2  0
  9  3  1  0
 15 10  1  0
 26 16  1  0
 17  9  1  0
 24 19  1  0
 37 28  1  0
 36 31  1  0
 44 39  1  0
M  CHG  1  21  -1
M  END
>  <minimizedAffinity>  (577) 
-16.81294

$$$$
Mol: 139_13 - SminaDock
     RDKit          3D

 44 51  0  0  0  0  0  0  0  0999 V2000
   13.5539    4.7923  -15.8463 O   0  0  0  0  0  0  0  0  0  0  0  0
   12.4514    4.2631  -15.5376 C   0  0  0  0  0  0  0  0  0  0  0  0
   11.9100    3.0834  -15.9928 O   0  0  0  0  0  0  0  0  0  0  0  0
   10.6563    2.8146  -15.3900 C   0  0  0  0  0  0  0  0  0  0  0  0
   10.4340    3.9902  -14.5123 C   0  0  0  0  0  0  0  0  0  0  0  0
   11.5112    4.8480  -14.5914 C   0  0  0  0  0  0  0  0  0  0  0  0
   11.5127    6.0189  -13.8480 C   0  0  0  0  0  0  0  0  0  0  0  0
   10.4925    6.3973  -13.0179 C   0  0  0  0  0  0  0  0  0  0  0  0
    9.4163    5.5022  -12.9634 C   0  0  0  0  0  0  0  0  0  0  0  0
    9.3773    4.3221  -13.6903 C   0  0  0  0  0  0  0  0  0  0  0  0
    8.2050    3.4349  -13.5733 C   0  0  0  0  0  0  0  0  0  0  0  0
    7.0204    3.7832  -12.9838 C   0  0  0  0  0  0  0  0  0  0  0  0
    5.9482    2.9074  -12.8777 C   0  0  0  0  0  0  0  0  0  0  0  0
    6.0651    1.6333  -13.3814 C   0  0  0  0  0  0  0  0  0  0  0  0
    7.2431    1.2362  -13.9868 C   0  0  0  0  0  0  0  0  0  0  0  0
    8.2857    2.1310  -14.0740 C   0  0  0  0  0  0  0  0  0  0  0  0
    7.3695   -0.1549  -14.5379 C   0  0  2  0  0  0  0  0  0  0  0  0
    8.3616   -0.2095  -15.5200 O   0  0  0  0  0  0  0  0  0  0  0  0
    6.0732   -0.4634  -15.1969 C   0  0  0  0  0  0  0  0  0  0  0  0
    5.9922   -1.1337  -16.4083 C   0  0  0  0  0  0  0  0  0  0  0  0
    4.7724   -1.4086  -17.0006 C   0  0  0  0  0  0  0  0  0  0  0  0
    3.5948   -1.0158  -16.3897 C   0  0  0  0  0  0  0  0  0  0  0  0
    3.6796   -0.3420  -15.1717 C   0  0  0  0  0  0  0  0  0  0  0  0
    4.8976   -0.0729  -14.5897 C   0  0  0  0  0  0  0  0  0  0  0  0
    4.9478    0.6451  -13.2957 C   0  0  0  0  0  0  0  0  0  0  0  0
    8.8423   -1.0649  -15.3828 H   0  0  0  0  0  0  0  0  0  0  0  0
   10.4636    7.6002  -12.2703 N   0  0  0  0  0  0  0  0  0  0  0  0
   10.1158    8.4472  -12.8222 H   0  0  0  0  0  0  0  0  0  0  0  0
   10.8420    7.7302  -10.9262 C   0  0  0  0  0  0  0  0  0  0  0  0
   12.0345    8.2666  -10.5947 N   0  0  0  0  0  0  0  0  0  0  0  0
   12.4499    8.3892   -9.3169 C   0  0  0  0  0  0  0  0  0  0  0  0
   11.6379    7.9552   -8.2973 C   0  0  0  0  0  0  0  0  0  0  0  0
   12.0394    8.0664   -6.9821 C   0  0  0  0  0  0  0  0  0  0  0  0
   11.2301    7.6296   -5.9547 C   0  0  0  0  0  0  0  0  0  0  0  0
   10.0163    7.0847   -6.3161 C   0  0  0  0  0  0  0  0  0  0  0  0
    9.5994    6.9664   -7.6264 C   0  0  0  0  0  0  0  0  0  0  0  0
   10.4237    7.4088   -8.6303 C   0  0  0  0  0  0  0  0  0  0  0  0
   10.0752    7.3183   -9.9255 N   0  0  0  0  0  0  0  0  0  0  0  0
   11.6349    7.7357   -4.5584 C   0  0  0  0  0  0  0  0  0  0  0  0
   11.9981    8.9671   -4.0303 C   0  0  0  0  0  0  0  0  0  0  0  0
   12.3867    9.0992   -2.7181 C   0  0  0  0  0  0  0  0  0  0  0  0
   12.4254    7.9958   -1.8835 C   0  0  0  0  0  0  0  0  0  0  0  0
   12.0654    6.7777   -2.4077 C   0  0  0  0  0  0  0  0  0  0  0  0
   11.6736    6.6405   -3.7280 C   0  0  0  0  0  0  0  0  0  0  0  0
  1  2  2  0
  2  3  1  0
  3  4  1  0
  4  5  1  0
  5  6  2  0
  6  7  1  0
  7  8  2  0
  8 27  1  0
 27 29  1  0
 29 30  2  0
 30 31  1  0
 31 32  2  0
 32 33  1  0
 33 34  2  0
 34 39  1  0
 39 40  2  0
 40 41  1  0
 41 42  2  0
 42 43  1  0
 43 44  2  0
 34 35  1  0
 35 36  2  0
 36 37  1  0
 37 38  2  0
  8  9  1  0
  9 10  2  0
 10 11  1  0
 11 12  2  0
 12 13  1  0
 13 14  2  0
 14 15  1  0
 15 16  2  0
 15 17  1  0
 17 18  1  6
 17 19  1  0
 19 20  2  0
 20 21  1  0
 21 22  2  0
 22 23  1  0
 23 24  2  0
 24 25  1  0
  6  2  1  0
 38 29  1  0
 16 11  1  0
 24 19  1  0
 10  5  1  0
 25 14  1  0
 37 32  1  0
 44 39  1  0
 27 28  1  0
 18 26  1  0
M  END
>  <minimizedAffinity>  (578) 
-16.76395

$$$$
Mol: 138_26 - SminaDock
     RDKit          3D

 38 44  0  0  0  0  0  0  0  0999 V2000
    8.8063    5.9846  -12.3864 C   0  0  0  0  0  0  0  0  0  0  0  0
    9.5141    5.2242  -13.2733 C   0  0  0  0  0  0  0  0  0  0  0  0
    8.9515    4.0756  -13.8573 C   0  0  0  0  0  0  0  0  0  0  0  0
    7.6588    3.7036  -13.5323 C   0  0  0  0  0  0  0  0  0  0  0  0
    6.9480    4.4652  -12.6463 C   0  0  0  0  0  0  0  0  0  0  0  0
    7.5310    5.6076  -12.0747 C   0  0  0  0  0  0  0  0  0  0  0  0
    5.5580    4.1712  -12.3101 C   0  0  0  0  0  0  0  0  0  0  0  0
    5.1120    2.8095  -12.6375 C   0  0  0  0  0  0  0  0  0  0  0  0
    5.8541    2.1054  -13.6809 C   0  0  0  0  0  0  0  0  0  0  0  0
    7.1151    2.4629  -14.1002 C   0  0  0  0  0  0  0  0  0  0  0  0
    7.8076    1.7329  -15.0484 C   0  0  0  0  0  0  0  0  0  0  0  0
    7.2567    0.6054  -15.6212 C   0  0  0  0  0  0  0  0  0  0  0  0
    5.9986    0.2413  -15.2119 C   0  0  0  0  0  0  0  0  0  0  0  0
    5.3066    0.9575  -14.2731 C   0  0  0  0  0  0  0  0  0  0  0  0
    5.6882   -0.9172  -15.9418 C   0  0  0  0  0  0  0  0  0  0  0  0
    4.5998   -1.5337  -15.8220 O   0  0  0  0  0  0  0  0  0  0  0  0
    6.7298   -1.1981  -16.7335 N   0  0  0  0  0  0  0  0  0  0  0  0
    6.7966   -2.0189  -17.4083 H   0  0  0  0  0  0  0  0  0  0  0  0
    7.6638   -0.2879  -16.5398 N   0  0  0  0  0  0  0  0  0  0  0  0
    8.5920   -0.2750  -17.0404 H   0  0  0  0  0  0  0  0  0  0  0  0
   11.3274    8.1241   -5.9161 C   0  0  0  0  0  0  0  0  0  0  0  0
   11.5166    9.2630   -6.6745 C   0  0  0  0  0  0  0  0  0  0  0  0
   11.1526    9.2670   -8.0068 C   0  0  0  0  0  0  0  0  0  0  0  0
   10.5951    8.1628   -8.6352 C   0  0  0  0  0  0  0  0  0  0  0  0
   10.2407    8.1566   -9.9188 N   0  0  0  0  0  0  0  0  0  0  0  0
    9.6950    7.0796  -10.5385 C   0  0  0  0  0  0  0  0  0  0  0  0
    9.3684    7.1341  -11.7991 N   0  0  0  0  0  0  0  0  0  0  0  0
    9.5070    5.9741   -9.8175 N   0  0  0  0  0  0  0  0  0  0  0  0
    9.0905    5.1117  -10.2381 H   0  0  0  0  0  0  0  0  0  0  0  0
    9.8533    5.9457   -8.5196 C   0  0  0  0  0  0  0  0  0  0  0  0
   10.4084    7.0268   -7.8713 C   0  0  0  0  0  0  0  0  0  0  0  0
   10.7677    7.0158   -6.5472 C   0  0  0  0  0  0  0  0  0  0  0  0
   12.3879    7.9343   -1.8168 C   0  0  0  0  0  0  0  0  0  0  0  0
   12.3612    9.1412   -2.4654 C   0  0  0  0  0  0  0  0  0  0  0  0
   12.0123    9.1978   -3.8112 C   0  0  0  0  0  0  0  0  0  0  0  0
   11.6897    8.0635   -4.5178 C   0  0  0  0  0  0  0  0  0  0  0  0
   11.7200    6.8605   -3.8578 C   0  0  0  0  0  0  0  0  0  0  0  0
   12.0678    6.7816   -2.5056 C   0  0  0  0  0  0  0  0  0  0  0  0
 33 34  2  0
 34 35  1  0
 35 36  2  0
 36 21  1  0
 21 22  1  0
 22 23  2  0
 23 24  1  0
 24 25  2  0
 25 26  1  0
 26 27  2  0
 27  1  1  0
  1  2  2  0
  2  3  1  0
  3  4  2  0
  4  5  1  0
  5  6  2  0
  5  7  1  0
  7  8  1  0
  8  9  1  0
  9 10  2  0
 10 11  1  0
 11 12  2  0
 12 13  1  0
 13 14  2  0
 13 15  1  0
 15 16  2  0
 15 17  1  0
 17 18  1  0
 17 19  1  0
 19 20  1  0
 26 28  1  0
 28 29  1  0
 28 30  1  0
 30 31  2  0
 31 32  1  0
 36 37  1  0
 37 38  2  0
 38 33  1  0
 32 21  2  0
 31 24  1  0
  6  1  1  0
 14  9  1  0
 10  4  1  0
 19 12  1  0
M  END
>  <minimizedAffinity>  (579) 
-16.80465

$$$$
Mol: 138_33 - SminaDock
     RDKit          3D

 43 50  0  0  0  0  0  0  0  0999 V2000
    8.6643    5.5194  -12.2732 C   0  0  0  0  0  0  0  0  0  0  0  0
    7.3649    5.1484  -12.0249 C   0  0  0  0  0  0  0  0  0  0  0  0
    6.7936    4.0312  -12.6192 C   0  0  0  0  0  0  0  0  0  0  0  0
    7.5900    3.2933  -13.4837 C   0  0  0  0  0  0  0  0  0  0  0  0
    8.8862    3.6484  -13.7483 C   0  0  0  0  0  0  0  0  0  0  0  0
    9.4282    4.7761  -13.1312 C   0  0  0  0  0  0  0  0  0  0  0  0
    9.6679    2.9231  -14.7630 C   0  0  2  0  0  0  0  0  0  0  0  0
   11.0983    3.1337  -14.5807 N   0  0  0  0  0  0  0  0  0  0  0  0
   11.6571    2.5907  -13.8875 H   0  0  0  0  0  0  0  0  0  0  0  0
   11.5036    4.0343  -15.3653 C   0  0  0  0  0  0  0  0  0  0  0  0
   12.8554    4.4893  -15.4477 N   0  0  0  0  0  0  0  0  0  0  0  0
   13.5941    3.9451  -15.9313 H   0  0  0  0  0  0  0  0  0  0  0  0
   13.0782    5.4005  -14.9987 H   0  0  0  0  0  0  0  0  0  0  0  0
   10.4706    4.5403  -16.1517 O   0  0  0  0  0  0  0  0  0  0  0  0
    9.4105    3.6043  -16.1217 C   0  0  0  0  0  0  0  0  0  0  0  0
    9.3209    1.4899  -14.8504 C   0  0  0  0  0  0  0  0  0  0  0  0
    7.8687    1.2346  -14.7411 C   0  0  0  0  0  0  0  0  0  0  0  0
    7.3190    0.0893  -15.3277 C   0  0  0  0  0  0  0  0  0  0  0  0
    5.9877   -0.2263  -15.1667 C   0  0  0  0  0  0  0  0  0  0  0  0
    5.1389    0.5639  -14.4267 C   0  0  0  0  0  0  0  0  0  0  0  0
    5.6825    1.7043  -13.8438 C   0  0  0  0  0  0  0  0  0  0  0  0
    7.0178    2.0288  -14.0020 C   0  0  0  0  0  0  0  0  0  0  0  0
    3.7801   -0.0585  -14.4596 C   0  0  0  0  0  0  0  0  0  0  0  0
    3.8702   -0.9318  -15.7234 C   0  0  0  0  0  0  0  0  0  0  0  0
    5.2287   -1.3077  -15.6539 O   0  0  0  0  0  0  0  0  0  0  0  0
   11.2818    8.0285   -5.9497 C   0  0  0  0  0  0  0  0  0  0  0  0
   11.4692    9.1002   -6.7878 C   0  0  0  0  0  0  0  0  0  0  0  0
   11.0999    9.0438   -8.1133 C   0  0  0  0  0  0  0  0  0  0  0  0
   10.5317    7.9011   -8.6233 C   0  0  0  0  0  0  0  0  0  0  0  0
   10.1631    7.8183   -9.9057 N   0  0  0  0  0  0  0  0  0  0  0  0
    9.6043    6.7191  -10.4401 C   0  0  0  0  0  0  0  0  0  0  0  0
    9.2542    6.6535  -11.6716 N   0  0  0  0  0  0  0  0  0  0  0  0
    9.4195    5.6722   -9.6294 N   0  0  0  0  0  0  0  0  0  0  0  0
    8.9934    4.7884   -9.9751 H   0  0  0  0  0  0  0  0  0  0  0  0
    9.7732    5.6928   -8.3138 C   0  0  0  0  0  0  0  0  0  0  0  0
   10.3477    6.8313   -7.7756 C   0  0  0  0  0  0  0  0  0  0  0  0
   10.7151    6.8904   -6.4614 C   0  0  0  0  0  0  0  0  0  0  0  0
   12.3846    8.0724   -1.9120 C   0  0  0  0  0  0  0  0  0  0  0  0
   12.3704    9.2576   -2.6052 C   0  0  0  0  0  0  0  0  0  0  0  0
   12.0054    9.2609   -3.9498 C   0  0  0  0  0  0  0  0  0  0  0  0
   11.6706    8.0855   -4.5461 C   0  0  0  0  0  0  0  0  0  0  0  0
   11.6895    6.9009   -3.8365 C   0  0  0  0  0  0  0  0  0  0  0  0
   12.0474    6.8841   -2.5101 C   0  0  0  0  0  0  0  0  0  0  0  0
 38 39  2  0
 39 40  1  0
 40 41  2  0
 41 26  1  0
 26 27  1  0
 27 28  2  0
 28 29  1  0
 29 30  2  0
 30 31  1  0
 31 32  2  0
 32  1  1  0
  1  2  2  0
  2  3  1  0
  3  4  2  0
  4  5  1  0
  5  6  2  0
  5  7  1  0
  7  8  1  0
  8  9  1  0
  8 10  2  0
 10 11  1  0
 11 12  1  0
 11 13  1  0
 10 14  1  0
 14 15  1  0
  7 16  1  6
 16 17  1  0
 17 18  2  0
 18 19  1  0
 19 20  2  0
 20 21  1  0
 21 22  2  0
 20 23  1  0
 23 24  1  0
 24 25  1  0
 31 33  1  0
 33 34  1  0
 33 35  1  0
 35 36  2  0
 36 37  1  0
 41 42  1  0
 42 43  2  0
 43 38  1  0
 37 26  2  0
 36 29  1  0
  6  1  1  0
 15  7  1  0
 22 17  1  0
 22  4  1  0
 25 19  1  0
M  CHG  1   8   1
M  END
>  <minimizedAffinity>  (580) 
-16.79408

$$$$
Mol: 98_54 - SminaDock
     RDKit          3D

 40 46  0  0  0  0  0  0  0  0999 V2000
    8.7235    5.2091  -13.4778 N   0  0  0  0  0  0  0  0  0  0  0  0
    9.2683    5.7231  -12.4327 C   0  0  0  0  0  0  0  0  0  0  0  0
   10.3288    6.5890  -12.5613 C   0  0  0  0  0  0  0  0  0  0  0  0
   10.9404    7.1638  -11.4461 C   0  0  0  0  0  0  0  0  0  0  0  0
   10.4595    6.8477  -10.1812 C   0  0  0  0  0  0  0  0  0  0  0  0
   11.0514    7.4082   -9.0423 C   0  0  0  0  0  0  0  0  0  0  0  0
   10.5675    7.0892   -7.7917 C   0  0  0  0  0  0  0  0  0  0  0  0
    9.5043    6.2172   -7.7212 C   0  0  0  0  0  0  0  0  0  0  0  0
    8.9111    5.6580   -8.8238 C   0  0  0  0  0  0  0  0  0  0  0  0
    9.3948    5.9768  -10.0742 C   0  0  0  0  0  0  0  0  0  0  0  0
    8.8322    5.4420  -11.1959 N   0  0  0  0  0  0  0  0  0  0  0  0
    8.0360    4.7950  -11.0502 H   0  0  0  0  0  0  0  0  0  0  0  0
    6.3482    4.7954  -13.2087 C   0  0  0  0  0  0  0  0  0  0  0  0
    5.2711    3.9424  -13.1335 C   0  0  0  0  0  0  0  0  0  0  0  0
    5.4411    2.5840  -13.2491 C   0  0  0  0  0  0  0  0  0  0  0  0
    6.7214    2.1105  -13.4420 C   0  0  0  0  0  0  0  0  0  0  0  0
    7.8128    2.9465  -13.5202 C   0  0  0  0  0  0  0  0  0  0  0  0
    7.6229    4.3067  -13.4019 C   0  0  0  0  0  0  0  0  0  0  0  0
    6.8535    0.6223  -13.5626 C   0  0  0  0  0  0  0  0  0  0  0  0
    5.7558    0.1973  -14.5319 C   0  0  2  0  0  0  0  0  0  0  0  0
    5.9265   -1.2529  -14.7844 C   0  0  0  0  0  0  0  0  0  0  0  0
    6.5267   -2.0180  -13.9658 O   0  0  0  0  0  0  0  0  0  0  0  0
    5.4299   -1.8991  -15.9652 N   0  0  0  0  0  0  0  0  0  0  0  0
    5.1510   -1.0979  -17.1030 C   0  0  0  0  0  0  0  0  0  0  0  0
    4.7113   -1.6320  -18.1643 O   0  0  0  0  0  0  0  0  0  0  0  0
    5.3805    0.3073  -17.0082 N   0  0  0  0  0  0  0  0  0  0  0  0
    5.8737    0.9140  -15.8207 C   0  0  0  0  0  0  0  0  0  0  0  0
    6.4115    2.0704  -15.8880 O   0  0  0  0  0  0  0  0  0  0  0  0
    4.4080    0.3997  -13.8901 C   0  0  0  0  0  0  0  0  0  0  0  0
    4.2623    1.6944  -13.1640 C   0  0  0  0  0  0  0  0  0  0  0  0
   11.1445    7.6432   -6.5627 C   0  0  0  0  0  0  0  0  0  0  0  0
   11.7517    8.8816   -6.5490 C   0  0  0  0  0  0  0  0  0  0  0  0
   12.2940    9.3951   -5.3789 C   0  0  0  0  0  0  0  0  0  0  0  0
   12.2501    8.6957   -4.1892 C   0  0  0  0  0  0  0  0  0  0  0  0
   12.7875    9.1964   -3.0150 C   0  0  0  0  0  0  0  0  0  0  0  0
   12.7457    8.5007   -1.8244 C   0  0  0  0  0  0  0  0  0  0  0  0
   12.1391    7.2624   -1.8359 C   0  0  0  0  0  0  0  0  0  0  0  0
   11.6023    6.7610   -3.0070 C   0  0  0  0  0  0  0  0  0  0  0  0
   11.6438    7.4579   -4.2006 C   0  0  0  0  0  0  0  0  0  0  0  0
   11.1067    6.9540   -5.3683 C   0  0  0  0  0  0  0  0  0  0  0  0
 13 14  2  0
 14 15  1  0
 15 16  2  0
 16 17  1  0
 17 18  2  0
 18  1  1  0
  1  2  2  0
  2  3  1  0
  3  4  2  0
  4  5  1  0
  5  6  2  0
  6  7  1  0
  7 31  1  0
 31 32  2  0
 32 33  1  0
 33 34  2  0
 34 35  1  0
 35 36  2  0
 36 37  1  0
 37 38  2  0
 38 39  1  0
 39 40  2  0
  7  8  2  0
  8  9  1  0
  9 10  2  0
 10 11  1  0
 11 12  1  0
 16 19  1  0
 20 19  1  1
 20 21  1  0
 21 22  2  0
 21 23  1  0
 23 24  1  0
 24 25  2  0
 24 26  1  0
 26 27  1  0
 27 28  2  0
 20 29  1  0
 29 30  1  0
 18 13  1  0
 11  2  1  0
 27 20  1  0
 30 15  1  0
 10  5  1  0
 40 31  1  0
 39 34  1  0
M  CHG  2  23  -1  26  -1
M  END
>  <minimizedAffinity>  (581) 
-16.77448

$$$$
Mol: 175_55 - SminaDock
     RDKit          3D

 39 45  0  0  0  0  0  0  0  0999 V2000
    8.7194    5.9244  -12.4868 C   0  0  0  0  0  0  0  0  0  0  0  0
    9.3487    5.3631  -13.5791 C   0  0  0  0  0  0  0  0  0  0  0  0
    8.7907    4.2366  -14.1976 C   0  0  0  0  0  0  0  0  0  0  0  0
    7.6220    3.7020  -13.7102 C   0  0  0  0  0  0  0  0  0  0  0  0
    6.9758    4.2452  -12.6209 C   0  0  0  0  0  0  0  0  0  0  0  0
    7.5403    5.3539  -12.0254 C   0  0  0  0  0  0  0  0  0  0  0  0
    5.7326    3.7472  -12.0340 C   0  0  0  0  0  0  0  0  0  0  0  0
    5.1376    2.5603  -12.6759 C   0  0  0  0  0  0  0  0  0  0  0  0
    5.8728    2.0181  -13.8430 C   0  0  0  0  0  0  0  0  0  0  0  0
    7.0437    2.5274  -14.3576 C   0  0  0  0  0  0  0  0  0  0  0  0
    7.6735    1.9629  -15.4547 C   0  0  0  0  0  0  0  0  0  0  0  0
    7.1297    0.8370  -16.0856 C   0  0  0  0  0  0  0  0  0  0  0  0
    7.7240    0.2439  -17.1798 C   0  0  0  0  0  0  0  0  0  0  0  0
    8.7942    0.7116  -17.6481 O   0  0  0  0  0  0  0  0  0  0  0  0
    7.1696   -0.8450  -17.7654 N   0  0  0  0  0  0  0  0  0  0  0  0
    7.7557   -1.5026  -18.9159 C   0  0  0  0  0  0  0  0  0  0  0  0
    6.0269   -1.2900  -17.2125 C   0  0  0  0  0  0  0  0  0  0  0  0
    5.4883   -2.3020  -17.7366 O   0  0  0  0  0  0  0  0  0  0  0  0
    5.4583   -0.7288  -16.1716 O   0  0  0  0  0  0  0  0  0  0  0  0
    5.9591    0.3342  -15.5648 C   0  0  0  0  0  0  0  0  0  0  0  0
    5.3362    0.8986  -14.4739 C   0  0  0  0  0  0  0  0  0  0  0  0
   11.2584    8.0468   -6.0264 C   0  0  0  0  0  0  0  0  0  0  0  0
   11.4235    9.1814   -6.7920 C   0  0  0  0  0  0  0  0  0  0  0  0
   11.0658    9.2417   -8.1297 C   0  0  0  0  0  0  0  0  0  0  0  0
   10.5219    8.1296   -8.7314 C   0  0  0  0  0  0  0  0  0  0  0  0
   10.3391    6.9741   -8.0038 C   0  0  0  0  0  0  0  0  0  0  0  0
    9.7853    5.8558   -8.6334 C   0  0  0  0  0  0  0  0  0  0  0  0
    9.4339    5.9002   -9.9304 N   0  0  0  0  0  0  0  0  0  0  0  0
    9.6210    7.0359  -10.6193 C   0  0  0  0  0  0  0  0  0  0  0  0
    9.2814    7.0664  -11.8568 N   0  0  0  0  0  0  0  0  0  0  0  0
   10.1530    8.1293  -10.0368 N   0  0  0  0  0  0  0  0  0  0  0  0
   10.3108    9.0307  -10.5507 H   0  0  0  0  0  0  0  0  0  0  0  0
   10.7041    6.9467   -6.6792 C   0  0  0  0  0  0  0  0  0  0  0  0
   12.3696    7.9149   -1.9398 C   0  0  0  0  0  0  0  0  0  0  0  0
   12.0176    6.7647   -2.5846 C   0  0  0  0  0  0  0  0  0  0  0  0
   11.6517    6.8197   -3.9364 C   0  0  0  0  0  0  0  0  0  0  0  0
   11.6384    8.0010   -4.6275 C   0  0  0  0  0  0  0  0  0  0  0  0
   11.9953    9.1538   -3.9664 C   0  0  0  0  0  0  0  0  0  0  0  0
   12.3633    9.1122   -2.6144 C   0  0  0  0  0  0  0  0  0  0  0  0
 34 35  2  0
 35 36  1  0
 36 37  2  0
 37 22  1  0
 22 23  2  0
 23 24  1  0
 24 25  2  0
 25 26  1  0
 26 27  1  0
 27 28  2  0
 28 29  1  0
 29 30  2  0
 30  1  1  0
  1  2  2  0
  2  3  1  0
  3  4  2  0
  4  5  1  0
  5  6  2  0
  5  7  1  0
  7  8  1  0
  8  9  1  0
  9 10  2  0
 10 11  1  0
 11 12  2  0
 12 13  1  0
 13 14  2  0
 13 15  1  0
 15 16  1  0
 15 17  1  0
 17 18  2  0
 17 19  1  0
 19 20  1  0
 20 21  2  0
 29 31  1  0
 31 32  1  0
 26 33  2  0
 37 38  1  0
 38 39  2  0
 39 34  1  0
 33 22  1  0
 31 25  1  0
  6  1  1  0
 21  9  1  0
 10  4  1  0
 20 12  1  0
M  END
>  <minimizedAffinity>  (582) 
-16.80156

$$$$
Mol: 176_9 - SminaDock
     RDKit          3D

 44 51  0  0  0  0  0  0  0  0999 V2000
    6.4293   -3.1251  -19.4961 O   0  0  0  0  0  0  0  0  0  0  0  0
    6.1966   -2.3479  -18.5418 C   0  0  0  0  0  0  0  0  0  0  0  0
    7.0855   -1.3236  -18.2615 C   0  0  0  0  0  0  0  0  0  0  0  0
    6.7804   -0.4961  -17.1985 C   0  0  0  0  0  0  0  0  0  0  0  0
    7.5770    0.5557  -16.8160 C   0  0  0  0  0  0  0  0  0  0  0  0
    8.6386    0.7989  -17.4450 O   0  0  0  0  0  0  0  0  0  0  0  0
    7.2522    1.3810  -15.7388 C   0  0  0  0  0  0  0  0  0  0  0  0
    8.0429    2.4361  -15.3483 C   0  0  0  0  0  0  0  0  0  0  0  0
    7.7367    3.2615  -14.2865 C   0  0  0  0  0  0  0  0  0  0  0  0
    6.5823    3.0326  -13.5673 C   0  0  0  0  0  0  0  0  0  0  0  0
    5.7609    1.9718  -13.9384 C   0  0  0  0  0  0  0  0  0  0  0  0
    6.0916    1.1575  -15.0094 C   0  0  0  0  0  0  0  0  0  0  0  0
    5.2743    0.1082  -15.3726 C   0  0  0  0  0  0  0  0  0  0  0  0
    4.1085   -0.1369  -14.6601 O   0  0  0  0  0  0  0  0  0  0  0  0
    5.5558   -0.7272  -16.4243 C   0  0  0  0  0  0  0  0  0  0  0  0
    4.7413   -1.7751  -16.7882 C   0  0  0  0  0  0  0  0  0  0  0  0
    5.0837   -2.5501  -17.8302 N   0  0  0  0  0  0  0  0  0  0  0  0
    6.4909    3.9758  -12.5655 C   0  0  0  0  0  0  0  0  0  0  0  0
    5.5975    4.1089  -11.7041 O   0  0  0  0  0  0  0  0  0  0  0  0
    7.6018    4.8227  -12.6415 C   0  0  0  0  0  0  0  0  0  0  0  0
    7.9893    5.9110  -11.8888 C   0  0  0  0  0  0  0  0  0  0  0  0
    9.1566    6.5660  -12.1997 C   0  0  0  0  0  0  0  0  0  0  0  0
    9.9082    6.1022  -13.2702 C   0  0  0  0  0  0  0  0  0  0  0  0
    9.5155    5.0132  -14.0194 C   0  0  0  0  0  0  0  0  0  0  0  0
    8.3363    4.3569  -13.7001 C   0  0  0  0  0  0  0  0  0  0  0  0
    4.0890   -0.8879  -13.9838 H   0  0  0  0  0  0  0  0  0  0  0  0
    9.6317    7.6909  -11.4823 N   0  0  0  0  0  0  0  0  0  0  0  0
    9.9441    7.5319  -10.2421 C   0  0  0  0  0  0  0  0  0  0  0  0
    9.8294    6.3406   -9.6290 N   0  0  0  0  0  0  0  0  0  0  0  0
   10.1710    6.2394   -8.3329 C   0  0  0  0  0  0  0  0  0  0  0  0
   10.6386    7.3005   -7.5851 C   0  0  0  0  0  0  0  0  0  0  0  0
   10.9888    7.2201   -6.2756 C   0  0  0  0  0  0  0  0  0  0  0  0
   11.4579    8.2977   -5.5365 C   0  0  0  0  0  0  0  0  0  0  0  0
   11.5605    9.5012   -6.2027 C   0  0  0  0  0  0  0  0  0  0  0  0
   11.2143    9.6218   -7.5326 C   0  0  0  0  0  0  0  0  0  0  0  0
   10.7462    8.5175   -8.2453 C   0  0  0  0  0  0  0  0  0  0  0  0
   10.3986    8.5845   -9.5335 N   0  0  0  0  0  0  0  0  0  0  0  0
    9.4773    5.5469  -10.1969 H   0  0  0  0  0  0  0  0  0  0  0  0
   11.8205    8.1494   -4.1247 C   0  0  0  0  0  0  0  0  0  0  0  0
   12.1272    9.2289   -3.3220 C   0  0  0  0  0  0  0  0  0  0  0  0
   12.4688    9.1277   -2.0042 C   0  0  0  0  0  0  0  0  0  0  0  0
   12.5126    7.8725   -1.4316 C   0  0  0  0  0  0  0  0  0  0  0  0
   12.2131    6.7467   -2.1926 C   0  0  0  0  0  0  0  0  0  0  0  0
   11.8704    6.8971   -3.5301 C   0  0  0  0  0  0  0  0  0  0  0  0
  1  2  2  0
  2  3  1  0
  3  4  2  0
  4  5  1  0
  5  6  2  0
  5  7  1  0
  7  8  2  0
  8  9  1  0
  9 10  2  0
 10 11  1  0
 11 12  2  0
 12 13  1  0
 13 14  1  0
 13 15  2  0
 15 16  1  0
 16 17  2  0
 10 18  1  0
 18 19  2  0
 18 20  1  0
 20 21  2  0
 21 22  1  0
 22 27  1  0
 27 28  2  0
 28 29  1  0
 29 30  1  0
 30 31  2  0
 31 32  1  0
 32 33  2  0
 33 39  1  0
 39 40  2  0
 40 41  1  0
 41 42  2  0
 42 43  1  0
 43 44  2  0
 33 34  1  0
 34 35  2  0
 35 36  1  0
 36 37  2  0
 22 23  2  0
 23 24  1  0
 24 25  2  0
 17  2  1  0
 25 20  1  0
 15  4  1  0
 37 28  1  0
 12  7  1  0
 36 31  1  0
 25  9  1  0
 44 39  1  0
 14 26  1  0
 29 38  1  0
M  END
>  <minimizedAffinity>  (583) 
-16.83620

$$$$
Mol: 154_24 - SminaDock
     RDKit          3D

 37 43  0  0  0  0  0  0  0  0999 V2000
    8.8124    5.7521  -12.3094 C   0  0  0  0  0  0  0  0  0  0  0  0
    9.5857    4.9205  -13.0689 C   0  0  0  0  0  0  0  0  0  0  0  0
    9.0248    3.7502  -13.5916 C   0  0  0  0  0  0  0  0  0  0  0  0
    7.6995    3.4277  -13.3482 C   0  0  0  0  0  0  0  0  0  0  0  0
    6.9156    4.2611  -12.5842 C   0  0  0  0  0  0  0  0  0  0  0  0
    7.5128    5.4256  -12.0769 C   0  0  0  0  0  0  0  0  0  0  0  0
    5.5027    3.9852  -12.2817 C   0  0  0  0  0  0  0  0  0  0  0  0
    4.9338    2.7527  -12.8491 C   0  0  0  0  0  0  0  0  0  0  0  0
    5.8259    1.9144  -13.6489 C   0  0  0  0  0  0  0  0  0  0  0  0
    7.1387    2.1830  -13.9185 C   0  0  0  0  0  0  0  0  0  0  0  0
    7.9327    1.3615  -14.6775 C   0  0  0  0  0  0  0  0  0  0  0  0
    7.3489    0.2025  -15.1870 C   0  0  0  0  0  0  0  0  0  0  0  0
    6.0281   -0.1121  -14.9426 C   0  0  0  0  0  0  0  0  0  0  0  0
    5.2447   -1.1939  -15.3401 C   0  0  0  0  0  0  0  0  0  0  0  0
    5.5935   -2.1725  -16.0476 O   0  0  0  0  0  0  0  0  0  0  0  0
    4.0343   -0.9454  -14.7913 N   0  0  0  0  0  0  0  0  0  0  0  0
    4.0517    0.1857  -14.1119 N   0  0  0  0  0  0  0  0  0  0  0  0
    3.2384    0.5946  -13.5966 H   0  0  0  0  0  0  0  0  0  0  0  0
    5.2736    0.7486  -14.1730 C   0  0  0  0  0  0  0  0  0  0  0  0
   11.3067    8.1184   -5.9266 C   0  0  0  0  0  0  0  0  0  0  0  0
   11.4580    9.2335   -6.7239 C   0  0  0  0  0  0  0  0  0  0  0  0
   11.0949    9.2196   -8.0546 C   0  0  0  0  0  0  0  0  0  0  0  0
   10.5598    8.0749   -8.6461 C   0  0  0  0  0  0  0  0  0  0  0  0
   10.2041    8.0504   -9.9379 N   0  0  0  0  0  0  0  0  0  0  0  0
    9.6851    6.9477  -10.5222 C   0  0  0  0  0  0  0  0  0  0  0  0
    9.3499    6.9448  -11.7660 N   0  0  0  0  0  0  0  0  0  0  0  0
    9.5364    5.8594   -9.7482 N   0  0  0  0  0  0  0  0  0  0  0  0
    9.1298    5.0035  -10.2151 H   0  0  0  0  0  0  0  0  0  0  0  0
    9.8755    5.8258   -8.4469 C   0  0  0  0  0  0  0  0  0  0  0  0
   10.4090    6.9610   -7.8488 C   0  0  0  0  0  0  0  0  0  0  0  0
   10.7758    6.9796   -6.5099 C   0  0  0  0  0  0  0  0  0  0  0  0
   12.4031    8.0118   -1.7890 C   0  0  0  0  0  0  0  0  0  0  0  0
   12.0208    6.8792   -2.4767 C   0  0  0  0  0  0  0  0  0  0  0  0
   11.6692    6.9238   -3.8104 C   0  0  0  0  0  0  0  0  0  0  0  0
   11.6859    8.1164   -4.5185 C   0  0  0  0  0  0  0  0  0  0  0  0
   12.0682    9.2485   -3.8303 C   0  0  0  0  0  0  0  0  0  0  0  0
   12.4218    9.2011   -2.4875 C   0  0  0  0  0  0  0  0  0  0  0  0
 32 33  2  0
 33 34  1  0
 34 35  2  0
 35 20  1  0
 20 21  1  0
 21 22  2  0
 22 23  1  0
 23 24  2  0
 24 25  1  0
 25 26  2  0
 26  1  1  0
  1  2  2  0
  2  3  1  0
  3  4  2  0
  4  5  1  0
  5  6  2  0
  5  7  1  0
  7  8  1  0
  8  9  1  0
  9 10  2  0
 10 11  1  0
 11 12  2  0
 12 13  1  0
 13 14  1  0
 14 15  2  0
 14 16  1  0
 16 17  1  0
 17 18  1  0
 17 19  1  0
 25 27  1  0
 27 28  1  0
 27 29  1  0
 29 30  2  0
 30 31  1  0
 35 36  1  0
 36 37  2  0
 37 32  1  0
 31 20  2  0
 30 23  1  0
  6  1  1  0
 19  9  1  0
 10  4  1  0
 19 13  2  0
M  CHG  1  16  -1
M  END
>  <minimizedAffinity>  (584) 
-16.81488

$$$$
Mol: 165_33 - SminaDock
     RDKit          3D

 40 46  0  0  0  0  0  0  0  0999 V2000
    2.7382   -0.8279  -15.4259 H   0  0  0  0  0  0  0  0  0  0  0  0
    3.6263   -1.2439  -15.2436 O   0  0  0  0  0  0  0  0  0  0  0  0
    4.8436   -0.7791  -15.7229 C   0  0  0  0  0  0  0  0  0  0  0  0
    5.3779   -1.4717  -16.7732 N   0  0  0  0  0  0  0  0  0  0  0  0
    6.5540   -1.0301  -17.2431 C   0  0  0  0  0  0  0  0  0  0  0  0
    7.0802   -1.6491  -18.2187 O   0  0  0  0  0  0  0  0  0  0  0  0
    7.2056    0.0439  -16.7266 N   0  0  0  0  0  0  0  0  0  0  0  0
    6.7080    0.7466  -15.6943 C   0  0  0  0  0  0  0  0  0  0  0  0
    7.3462    1.8521  -15.1382 C   0  0  0  0  0  0  0  0  0  0  0  0
    6.7504    2.5133  -14.0714 C   0  0  0  0  0  0  0  0  0  0  0  0
    5.5469    2.0868  -13.5672 C   0  0  0  0  0  0  0  0  0  0  0  0
    4.9049    0.9663  -14.1342 C   0  0  0  0  0  0  0  0  0  0  0  0
    5.4935    0.3119  -15.1889 C   0  0  0  0  0  0  0  0  0  0  0  0
    4.9106    2.7798  -12.4457 C   0  0  0  0  0  0  0  0  0  0  0  0
    5.6108    3.8975  -11.9094 N   0  0  0  0  0  0  0  0  0  0  0  0
    5.2123    4.4342  -11.0949 H   0  0  0  0  0  0  0  0  0  0  0  0
    6.8602    4.3624  -12.4125 C   0  0  0  0  0  0  0  0  0  0  0  0
    7.4710    5.4561  -11.8411 C   0  0  0  0  0  0  0  0  0  0  0  0
    8.6774    5.9039  -12.3267 C   0  0  0  0  0  0  0  0  0  0  0  0
    9.2492    5.2417  -13.3812 C   0  0  0  0  0  0  0  0  0  0  0  0
    8.6208    4.1396  -13.9471 C   0  0  0  0  0  0  0  0  0  0  0  0
    7.4155    3.6623  -13.4901 C   0  0  0  0  0  0  0  0  0  0  0  0
    9.3277    7.0499  -11.7320 N   0  0  0  0  0  0  0  0  0  0  0  0
    9.6559    7.0143  -10.4865 C   0  0  0  0  0  0  0  0  0  0  0  0
    9.4132    5.9424   -9.7163 N   0  0  0  0  0  0  0  0  0  0  0  0
    9.7489    5.8811   -8.4055 C   0  0  0  0  0  0  0  0  0  0  0  0
   10.3714    6.9711   -7.8275 C   0  0  0  0  0  0  0  0  0  0  0  0
   10.7305    6.9511   -6.4978 C   0  0  0  0  0  0  0  0  0  0  0  0
   11.3562    8.0255   -5.8858 C   0  0  0  0  0  0  0  0  0  0  0  0
   11.6025    9.1250   -6.6862 C   0  0  0  0  0  0  0  0  0  0  0  0
   11.2449    9.1499   -8.0180 C   0  0  0  0  0  0  0  0  0  0  0  0
   10.6228    8.0745   -8.6151 C   0  0  0  0  0  0  0  0  0  0  0  0
   10.2616    8.0662   -9.9110 N   0  0  0  0  0  0  0  0  0  0  0  0
   10.4530    8.8915  -10.4872 H   0  0  0  0  0  0  0  0  0  0  0  0
   11.7440    8.0286   -4.4892 C   0  0  0  0  0  0  0  0  0  0  0  0
   12.0906    9.2075   -3.8761 C   0  0  0  0  0  0  0  0  0  0  0  0
   12.4577    9.1915   -2.5448 C   0  0  0  0  0  0  0  0  0  0  0  0
   12.4906    8.0327   -1.8014 C   0  0  0  0  0  0  0  0  0  0  0  0
   12.1423    6.8515   -2.4194 C   0  0  0  0  0  0  0  0  0  0  0  0
   11.7707    6.8595   -3.7626 C   0  0  0  0  0  0  0  0  0  0  0  0
  1  2  1  0
  2  3  1  0
  3  4  2  0
  4  5  1  0
  5  6  2  0
  5  7  1  0
  7  8  1  0
  8  9  2  0
  9 10  1  0
 10 11  2  0
 11 12  1  0
 12 13  2  0
 11 14  1  0
 14 15  1  0
 15 16  1  0
 15 17  1  0
 17 18  2  0
 18 19  1  0
 19 23  1  0
 23 24  2  0
 24 25  1  0
 25 26  2  0
 26 27  1  0
 27 28  2  0
 28 29  1  0
 29 35  1  0
 35 36  2  0
 36 37  1  0
 37 38  2  0
 38 39  1  0
 39 40  2  0
 29 30  2  0
 30 31  1  0
 31 32  2  0
 32 33  1  0
 33 34  1  0
 19 20  2  0
 20 21  1  0
 21 22  2  0
 13  3  1  0
 22 17  1  0
 13  8  1  0
 33 24  1  0
 22 10  1  0
 32 27  1  0
 40 35  1  0
M  CHG  1   7  -1
M  END
>  <minimizedAffinity>  (585) 
-16.77114

$$$$
Mol: 145_61 - SminaDock
     RDKit          3D

 43 49  0  0  0  0  0  0  0  0999 V2000
    5.4201   -2.7557  -16.9717 N   0  0  1  0  0  0  0  0  0  0  0  0
    4.6790   -1.4838  -16.9893 C   0  0  1  0  0  0  0  0  0  0  0  0
    4.6340   -0.9811  -15.5997 C   0  0  0  0  0  0  0  0  0  0  0  0
    5.5550    0.1230  -15.2600 C   0  0  0  0  0  0  0  0  0  0  0  0
    5.0218    0.8074  -14.1945 C   0  0  0  0  0  0  0  0  0  0  0  0
    5.6639    1.8980  -13.6432 C   0  0  0  0  0  0  0  0  0  0  0  0
    6.8672    2.3162  -14.1737 C   0  0  0  0  0  0  0  0  0  0  0  0
    7.4466    1.6622  -15.2426 C   0  0  0  0  0  0  0  0  0  0  0  0
    6.7508    0.5694  -15.7518 C   0  0  0  0  0  0  0  0  0  0  0  0
    7.5049   -0.0076  -16.8949 C   0  0  0  0  0  0  0  0  0  0  0  0
    6.5760   -0.0763  -17.9980 N   0  0  0  0  0  0  0  0  0  0  0  0
    5.2456   -0.5616  -17.9949 C   0  0  0  0  0  0  0  0  0  0  0  0
    4.4729   -0.1703  -18.9392 O   0  0  0  0  0  0  0  0  0  0  0  0
    7.4871    3.5596  -13.6638 C   0  0  0  0  0  0  0  0  0  0  0  0
    8.7570    3.9325  -14.0841 C   0  0  0  0  0  0  0  0  0  0  0  0
    9.3631    5.0358  -13.5056 C   0  0  0  0  0  0  0  0  0  0  0  0
    8.7572    5.7821  -12.5270 C   0  0  0  0  0  0  0  0  0  0  0  0
    7.5003    5.4035  -12.1218 C   0  0  0  0  0  0  0  0  0  0  0  0
    6.8571    4.2921  -12.6886 C   0  0  0  0  0  0  0  0  0  0  0  0
    5.4666    3.9847  -12.3125 C   0  0  0  0  0  0  0  0  0  0  0  0
    5.1412    2.5535  -12.4370 C   0  0  0  0  0  0  0  0  0  0  0  0
    4.7785   -3.5700  -16.8486 H   0  0  0  0  0  0  0  0  0  0  0  0
    5.9378   -2.8044  -17.8732 H   0  0  0  0  0  0  0  0  0  0  0  0
    6.0611   -2.7671  -16.1374 H   0  0  0  0  0  0  0  0  0  0  0  0
    6.9225    0.2716  -18.9030 H   0  0  0  0  0  0  0  0  0  0  0  0
    9.3669    6.9128  -11.9208 N   0  0  0  0  0  0  0  0  0  0  0  0
    9.5538    7.7408  -12.5187 H   0  0  0  0  0  0  0  0  0  0  0  0
    9.7237    6.9518  -10.5511 C   0  0  0  0  0  0  0  0  0  0  0  0
    9.4559    5.8601   -9.7803 N   0  0  0  0  0  0  0  0  0  0  0  0
    9.7911    5.8834   -8.4796 C   0  0  0  0  0  0  0  0  0  0  0  0
   10.3983    6.9657   -7.8793 C   0  0  0  0  0  0  0  0  0  0  0  0
   10.7380    6.9741   -6.5381 C   0  0  0  0  0  0  0  0  0  0  0  0
   11.3460    8.0606   -5.9441 C   0  0  0  0  0  0  0  0  0  0  0  0
   11.6037    9.1492   -6.7508 C   0  0  0  0  0  0  0  0  0  0  0  0
   11.2651    9.1441   -8.0928 C   0  0  0  0  0  0  0  0  0  0  0  0
   10.6616    8.0613   -8.6751 C   0  0  0  0  0  0  0  0  0  0  0  0
   10.3167    8.0147   -9.9743 N   0  0  0  0  0  0  0  0  0  0  0  0
   11.7058    8.0782   -4.5317 C   0  0  0  0  0  0  0  0  0  0  0  0
   11.8044    6.8802   -3.8574 C   0  0  0  0  0  0  0  0  0  0  0  0
   12.1395    6.8182   -2.5204 C   0  0  0  0  0  0  0  0  0  0  0  0
   12.3920    7.9850   -1.8022 C   0  0  0  0  0  0  0  0  0  0  0  0
   12.2948    9.1700   -2.4682 C   0  0  0  0  0  0  0  0  0  0  0  0
   11.9562    9.2216   -3.8165 C   0  0  0  0  0  0  0  0  0  0  0  0
  1  2  1  0
  2  3  1  1
  3  4  1  0
  4  5  2  0
  5  6  1  0
  6  7  2  0
  7  8  1  0
  8  9  2  0
  9 10  1  0
 10 11  1  0
 11 12  1  0
 12 13  2  0
  7 14  1  0
 14 15  2  0
 15 16  1  0
 16 17  2  0
 17 26  1  0
 26 28  1  0
 28 29  2  0
 29 30  1  0
 30 31  2  0
 31 32  1  0
 32 33  2  0
 33 38  1  0
 38 39  2  0
 39 40  1  0
 40 41  2  0
 41 42  1  0
 42 43  2  0
 33 34  1  0
 34 35  2  0
 35 36  1  0
 36 37  2  0
 17 18  1  0
 18 19  2  0
 19 20  1  0
 20 21  1  0
 12  2  1  0
 19 14  1  0
  9  4  1  0
 37 28  1  0
 21  6  1  0
 36 31  1  0
 43 38  1  0
  1 22  1  1
  1 23  1  0
  1 24  1  0
 11 25  1  0
 26 27  1  0
M  CHG  1   1   1
M  END
>  <minimizedAffinity>  (586) 
-16.80052

$$$$
Mol: 172_13 - SminaDock
     RDKit          3D

 38 44  0  0  0  0  0  0  0  0999 V2000
    9.0807    6.2249  -12.2019 C   0  0  0  0  0  0  0  0  0  0  0  0
    9.8361    5.5616  -13.1689 C   0  0  0  0  0  0  0  0  0  0  0  0
    9.3322    4.4345  -13.7798 C   0  0  0  0  0  0  0  0  0  0  0  0
    8.0941    3.9030  -13.4906 C   0  0  0  0  0  0  0  0  0  0  0  0
    7.3468    4.5804  -12.5175 C   0  0  0  0  0  0  0  0  0  0  0  0
    7.8450    5.7056  -11.9048 C   0  0  0  0  0  0  0  0  0  0  0  0
    6.1077    3.8098  -12.4130 C   0  0  0  0  0  0  0  0  0  0  0  0
    5.1517    4.1085  -11.6219 O   0  0  0  0  0  0  0  0  0  0  0  0
    6.1239    2.6744  -13.3261 C   0  0  0  0  0  0  0  0  0  0  0  0
    5.2320    1.6623  -13.6123 C   0  0  0  0  0  0  0  0  0  0  0  0
    5.5184    0.6717  -14.5661 C   0  0  0  0  0  0  0  0  0  0  0  0
    6.7242    0.7389  -15.2115 C   0  0  0  0  0  0  0  0  0  0  0  0
    7.5982    1.7668  -14.9022 C   0  0  0  0  0  0  0  0  0  0  0  0
    7.3405    2.7497  -13.9725 C   0  0  0  0  0  0  0  0  0  0  0  0
    7.0603   -0.2838  -16.1931 C   0  0  0  0  0  0  0  0  0  0  0  0
    8.1484   -0.2453  -16.7966 O   0  0  0  0  0  0  0  0  0  0  0  0
    6.1169   -1.3188  -16.4398 N   0  0  0  0  0  0  0  0  0  0  0  0
    6.0363   -1.8153  -17.3433 H   0  0  0  0  0  0  0  0  0  0  0  0
    5.2524   -1.6487  -15.3243 C   0  0  0  0  0  0  0  0  0  0  0  0
    4.5576   -0.3903  -14.8791 C   0  0  0  0  0  0  0  0  0  0  0  0
   11.4255    8.3032   -5.7295 C   0  0  0  0  0  0  0  0  0  0  0  0
   11.6097    9.4781   -6.4326 C   0  0  0  0  0  0  0  0  0  0  0  0
   11.2717    9.5313   -7.7674 C   0  0  0  0  0  0  0  0  0  0  0  0
   10.7530    8.4404   -8.4228 C   0  0  0  0  0  0  0  0  0  0  0  0
   10.4117    8.4376   -9.7211 N   0  0  0  0  0  0  0  0  0  0  0  0
    9.9087    7.3382  -10.3251 C   0  0  0  0  0  0  0  0  0  0  0  0
    9.6075    7.3733  -11.5641 N   0  0  0  0  0  0  0  0  0  0  0  0
    9.7405    6.2187   -9.6230 N   0  0  0  0  0  0  0  0  0  0  0  0
    9.3518    5.3398  -10.0577 H   0  0  0  0  0  0  0  0  0  0  0  0
   10.0617    6.1359   -8.2997 C   0  0  0  0  0  0  0  0  0  0  0  0
   10.5756    7.2762   -7.7056 C   0  0  0  0  0  0  0  0  0  0  0  0
   10.9097    7.2023   -6.3596 C   0  0  0  0  0  0  0  0  0  0  0  0
   12.4174    7.8655   -1.6678 C   0  0  0  0  0  0  0  0  0  0  0  0
   12.4129    9.1352   -2.2520 C   0  0  0  0  0  0  0  0  0  0  0  0
   12.0890    9.2804   -3.5764 C   0  0  0  0  0  0  0  0  0  0  0  0
   11.7716    8.1821   -4.3202 C   0  0  0  0  0  0  0  0  0  0  0  0
   11.7758    6.9359   -3.7473 C   0  0  0  0  0  0  0  0  0  0  0  0
   12.0962    6.7512   -2.4196 C   0  0  0  0  0  0  0  0  0  0  0  0
 33 34  2  0
 34 35  1  0
 35 36  2  0
 36 21  1  0
 21 22  1  0
 22 23  2  0
 23 24  1  0
 24 25  2  0
 25 26  1  0
 26 27  2  0
 27  1  1  0
  1  2  2  0
  2  3  1  0
  3  4  2  0
  4  5  1  0
  5  6  2  0
  5  7  1  0
  7  8  2  0
  7  9  1  0
  9 10  2  0
 10 11  1  0
 11 12  2  0
 12 13  1  0
 13 14  2  0
 12 15  1  0
 15 16  2  0
 15 17  1  0
 17 18  1  0
 17 19  1  0
 19 20  1  0
 26 28  1  0
 28 29  1  0
 28 30  1  0
 30 31  2  0
 31 32  1  0
 36 37  1  0
 37 38  2  0
 38 33  1  0
 32 21  2  0
 31 24  1  0
  6  1  1  0
 14  9  1  0
 14  4  1  0
 20 11  1  0
M  END
>  <minimizedAffinity>  (587) 
-16.84746

$$$$
Mol: 172_15 - SminaDock
     RDKit          3D

 38 44  0  0  0  0  0  0  0  0999 V2000
    8.7614    5.9065  -12.3852 C   0  0  0  0  0  0  0  0  0  0  0  0
    9.4125    5.1936  -13.3632 C   0  0  0  0  0  0  0  0  0  0  0  0
    8.8425    4.0594  -13.9688 C   0  0  0  0  0  0  0  0  0  0  0  0
    7.5938    3.6169  -13.5979 C   0  0  0  0  0  0  0  0  0  0  0  0
    6.9427    4.3318  -12.6198 C   0  0  0  0  0  0  0  0  0  0  0  0
    7.5133    5.4634  -12.0159 C   0  0  0  0  0  0  0  0  0  0  0  0
    5.5834    3.9527  -12.1786 C   0  0  0  0  0  0  0  0  0  0  0  0
    5.0656    2.6864  -12.6683 C   0  0  0  0  0  0  0  0  0  0  0  0
    5.7742    2.0134  -13.7602 C   0  0  0  0  0  0  0  0  0  0  0  0
    5.2039    0.8909  -14.3681 C   0  0  0  0  0  0  0  0  0  0  0  0
    5.8594    0.2276  -15.3648 C   0  0  0  0  0  0  0  0  0  0  0  0
    7.1066    0.6387  -15.8091 C   0  0  0  0  0  0  0  0  0  0  0  0
    7.6763    1.7401  -15.2199 C   0  0  0  0  0  0  0  0  0  0  0  0
    7.0033    2.4206  -14.1980 C   0  0  0  0  0  0  0  0  0  0  0  0
    7.7045   -0.1199  -16.8512 N   0  0  0  0  0  0  0  0  0  0  0  0
    8.6548    0.1759  -17.2047 H   0  0  0  0  0  0  0  0  0  0  0  0
    7.0686   -1.2416  -17.4163 N   0  0  0  0  0  0  0  0  0  0  0  0
    5.8998   -1.6060  -16.9819 C   0  0  0  0  0  0  0  0  0  0  0  0
    5.2465   -2.8029  -17.6010 C   0  0  0  0  0  0  0  0  0  0  0  0
    5.2857   -0.8885  -15.9649 O   0  0  0  0  0  0  0  0  0  0  0  0
   11.3014    8.0815   -5.9863 C   0  0  0  0  0  0  0  0  0  0  0  0
   11.5278    9.2075   -6.7456 C   0  0  0  0  0  0  0  0  0  0  0  0
   11.1925    9.2650   -8.0812 C   0  0  0  0  0  0  0  0  0  0  0  0
   10.6114    8.1678   -8.6895 C   0  0  0  0  0  0  0  0  0  0  0  0
   10.2641    8.1676   -9.9887 N   0  0  0  0  0  0  0  0  0  0  0  0
    9.7021    7.0772  -10.5360 C   0  0  0  0  0  0  0  0  0  0  0  0
    9.3608    7.0570  -11.7830 N   0  0  0  0  0  0  0  0  0  0  0  0
    9.4731    5.9699   -9.8133 N   0  0  0  0  0  0  0  0  0  0  0  0
    9.0355    5.1062  -10.2180 H   0  0  0  0  0  0  0  0  0  0  0  0
    9.8032    5.9250   -8.5142 C   0  0  0  0  0  0  0  0  0  0  0  0
   10.3857    7.0418   -7.9277 C   0  0  0  0  0  0  0  0  0  0  0  0
   10.7255    6.9944   -6.5891 C   0  0  0  0  0  0  0  0  0  0  0  0
   12.3388    7.9600   -1.9163 C   0  0  0  0  0  0  0  0  0  0  0  0
   12.3561    9.1658   -2.5812 C   0  0  0  0  0  0  0  0  0  0  0  0
   12.0131    9.1858   -3.9148 C   0  0  0  0  0  0  0  0  0  0  0  0
   11.6571    8.0314   -4.5863 C   0  0  0  0  0  0  0  0  0  0  0  0
   11.6552    6.8563   -3.8808 C   0  0  0  0  0  0  0  0  0  0  0  0
   11.9899    6.7813   -2.5461 C   0  0  0  0  0  0  0  0  0  0  0  0
 33 34  2  0
 34 35  1  0
 35 36  2  0
 36 21  1  0
 21 22  1  0
 22 23  2  0
 23 24  1  0
 24 25  2  0
 25 26  1  0
 26 27  2  0
 27  1  1  0
  1  2  2  0
  2  3  1  0
  3  4  2  0
  4  5  1  0
  5  6  2  0
  5  7  1  0
  7  8  1  0
  8  9  1  0
  9 10  2  0
 10 11  1  0
 11 12  2  0
 12 13  1  0
 13 14  2  0
 12 15  1  0
 15 16  1  0
 15 17  1  0
 17 18  2  0
 18 19  1  0
 18 20  1  0
 26 28  1  0
 28 29  1  0
 28 30  1  0
 30 31  2  0
 31 32  1  0
 36 37  1  0
 37 38  2  0
 38 33  1  0
 32 21  2  0
 31 24  1  0
  6  1  1  0
 14  9  1  0
 14  4  1  0
 20 11  1  0
M  END
>  <minimizedAffinity>  (588) 
-16.79709

$$$$
Mol: 102_50 - SminaDock
     RDKit          3D

 40 46  0  0  0  0  0  0  0  0999 V2000
    8.5754    5.5447  -12.6130 C   0  0  0  0  0  0  0  0  0  0  0  0
    7.4208    5.0855  -12.0391 C   0  0  0  0  0  0  0  0  0  0  0  0
    6.7778    3.9632  -12.5397 C   0  0  0  0  0  0  0  0  0  0  0  0
    7.3262    3.3183  -13.6292 C   0  0  0  0  0  0  0  0  0  0  0  0
    8.4780    3.7394  -14.2334 C   0  0  0  0  0  0  0  0  0  0  0  0
    9.0811    4.8782  -13.6839 C   0  0  0  0  0  0  0  0  0  0  0  0
    9.0901    3.0275  -15.3380 C   0  0  2  0  0  0  0  0  0  0  0  0
   10.2935    2.2336  -14.8671 C   0  0  0  0  0  0  0  0  0  0  0  0
   10.5152    2.1393  -13.6351 O   0  0  0  0  0  0  0  0  0  0  0  0
   11.1170    1.6324  -15.8250 N   0  0  0  0  0  0  0  0  0  0  0  0
   11.2452    2.1963  -17.1380 C   0  0  0  0  0  0  0  0  0  0  0  0
   11.9806    1.6750  -18.0200 O   0  0  0  0  0  0  0  0  0  0  0  0
   10.4842    3.3773  -17.3614 N   0  0  0  0  0  0  0  0  0  0  0  0
    9.6607    3.9575  -16.3687 C   0  0  0  0  0  0  0  0  0  0  0  0
    9.4558    5.1868  -16.4019 O   0  0  0  0  0  0  0  0  0  0  0  0
    8.2148    2.0874  -16.0542 C   0  0  0  0  0  0  0  0  0  0  0  0
    7.0691    1.5495  -15.3041 C   0  0  0  0  0  0  0  0  0  0  0  0
    6.4309    0.4047  -15.8191 C   0  0  0  0  0  0  0  0  0  0  0  0
    5.3199   -0.1137  -15.2166 C   0  0  0  0  0  0  0  0  0  0  0  0
    4.8578    0.5297  -14.0923 C   0  0  0  0  0  0  0  0  0  0  0  0
    5.4651    1.6465  -13.5721 C   0  0  0  0  0  0  0  0  0  0  0  0
    6.6024    2.1751  -14.1888 C   0  0  0  0  0  0  0  0  0  0  0  0
   11.1929    7.9518   -6.2210 C   0  0  0  0  0  0  0  0  0  0  0  0
   11.4189    9.0174   -7.0522 C   0  0  0  0  0  0  0  0  0  0  0  0
   11.0613    8.9839   -8.4019 C   0  0  0  0  0  0  0  0  0  0  0  0
   10.4633    7.8684   -8.9500 C   0  0  0  0  0  0  0  0  0  0  0  0
   10.2281    6.7930   -8.1388 C   0  0  0  0  0  0  0  0  0  0  0  0
   10.5847    6.8368   -6.8098 C   0  0  0  0  0  0  0  0  0  0  0  0
    9.6257    5.6711   -8.6944 C   0  0  0  0  0  0  0  0  0  0  0  0
    9.2810    5.6602  -10.0297 C   0  0  0  0  0  0  0  0  0  0  0  0
    9.5323    6.7597  -10.8164 C   0  0  0  0  0  0  0  0  0  0  0  0
    9.1944    6.7059  -12.0563 N   0  0  0  0  0  0  0  0  0  0  0  0
   10.1134    7.8321  -10.2653 N   0  0  0  0  0  0  0  0  0  0  0  0
   10.3127    8.6693  -10.8331 H   0  0  0  0  0  0  0  0  0  0  0  0
   12.2003    9.2237   -2.9256 C   0  0  0  0  0  0  0  0  0  0  0  0
   11.8589    9.1307   -4.2196 N   0  0  0  0  0  0  0  0  0  0  0  0
   11.5500    7.9489   -4.8146 C   0  0  0  0  0  0  0  0  0  0  0  0
   11.5972    6.8252   -4.0387 C   0  0  0  0  0  0  0  0  0  0  0  0
   11.9490    6.8860   -2.6863 C   0  0  0  0  0  0  0  0  0  0  0  0
   12.2484    8.1049   -2.1488 C   0  0  0  0  0  0  0  0  0  0  0  0
 35 36  2  0
 36 37  1  0
 37 23  1  0
 23 24  2  0
 24 25  1  0
 25 26  2  0
 26 27  1  0
 27 28  2  0
 27 29  1  0
 29 30  2  0
 30 31  1  0
 31 32  2  0
 32  1  1  0
  1  2  2  0
  2  3  1  0
  3  4  2  0
  4  5  1  0
  5  6  2  0
  5  7  1  0
  7  8  1  0
  8  9  2  0
  8 10  1  0
 10 11  1  0
 11 12  2  0
 11 13  1  0
 13 14  1  0
 14 15  2  0
  7 16  1  6
 16 17  1  0
 17 18  2  0
 18 19  1  0
 19 20  2  0
 20 21  1  0
 21 22  2  0
 31 33  1  0
 33 34  1  0
 37 38  2  0
 38 39  1  0
 39 40  2  0
 40 35  1  0
 28 23  1  0
  6  1  1  0
 14  7  1  0
 22 17  1  0
 33 26  1  0
 22  4  1  0
M  CHG  2  10  -1  13  -1
M  END
>  <minimizedAffinity>  (589) 
-16.82490

$$$$
Mol: 197_27 - SminaDock
     RDKit          3D

 47 54  0  0  0  0  0  0  0  0999 V2000
    6.1063    4.0609  -13.4695 C   0  0  0  0  0  0  0  0  0  0  0  0
    6.6603    2.7471  -13.7397 C   0  0  0  0  0  0  0  0  0  0  0  0
    5.8721    1.5801  -13.8454 C   0  0  0  0  0  0  0  0  0  0  0  0
    6.4240    0.3917  -14.2622 C   0  0  0  0  0  0  0  0  0  0  0  0
    7.7192    0.2835  -14.5891 N   0  0  0  0  0  0  0  0  0  0  0  0
    8.5320    1.3405  -14.5180 C   0  0  0  0  0  0  0  0  0  0  0  0
    7.9639    2.5393  -14.0818 C   0  0  0  0  0  0  0  0  0  0  0  0
    8.7633    3.7116  -13.7106 C   0  0  0  0  0  0  0  0  0  0  0  0
    8.2243    4.3008  -12.6015 C   0  0  0  0  0  0  0  0  0  0  0  0
    8.8206    5.4606  -12.1376 C   0  0  0  0  0  0  0  0  0  0  0  0
    9.9190    6.0209  -12.7459 C   0  0  0  0  0  0  0  0  0  0  0  0
   10.4470    5.3818  -13.8758 C   0  0  0  0  0  0  0  0  0  0  0  0
    9.9005    4.2541  -14.3605 C   0  0  0  0  0  0  0  0  0  0  0  0
   10.5669    3.5272  -15.4531 C   0  0  2  0  0  0  0  0  0  0  0  0
   11.9741    4.0135  -15.6171 C   0  0  0  0  0  0  0  0  0  0  0  0
   12.1680    5.0237  -16.7200 C   0  0  0  0  0  0  0  0  0  0  0  0
   11.7408    4.3451  -17.8974 O   0  0  0  0  0  0  0  0  0  0  0  0
   10.3467    4.4011  -17.8275 C   0  0  0  0  0  0  0  0  0  0  0  0
    9.8899    3.4851  -16.7414 C   0  0  0  0  0  0  0  0  0  0  0  0
   10.7624    2.1260  -14.9796 O   0  0  0  0  0  0  0  0  0  0  0  0
    9.7723    1.1365  -14.9542 C   0  0  0  0  0  0  0  0  0  0  0  0
   10.0465   -0.1437  -15.3895 O   0  0  0  0  0  0  0  0  0  0  0  0
    5.5770   -0.7792  -14.3437 C   0  0  0  0  0  0  0  0  0  0  0  0
    6.0753   -1.9529  -14.4215 O   0  0  0  0  0  0  0  0  0  0  0  0
    4.0961   -0.6225  -14.3368 C   0  0  0  0  0  0  0  0  0  0  0  0
    3.7167    0.5939  -13.6043 N   0  0  0  0  0  0  0  0  0  0  0  0
    4.5928    1.7122  -13.5291 C   0  0  0  0  0  0  0  0  0  0  0  0
   10.1339   -0.3299  -16.4012 H   0  0  0  0  0  0  0  0  0  0  0  0
    2.7838    0.5834  -13.1530 H   0  0  0  0  0  0  0  0  0  0  0  0
   10.5533    7.2113  -12.2705 N   0  0  0  0  0  0  0  0  0  0  0  0
   10.7593    7.9650  -12.9959 H   0  0  0  0  0  0  0  0  0  0  0  0
   10.9029    7.4009  -10.9154 C   0  0  0  0  0  0  0  0  0  0  0  0
   12.0843    7.9803  -10.5833 N   0  0  0  0  0  0  0  0  0  0  0  0
   12.4756    8.1753   -9.3367 C   0  0  0  0  0  0  0  0  0  0  0  0
   11.6218    7.7590   -8.3154 C   0  0  0  0  0  0  0  0  0  0  0  0
   11.9646    7.9265   -6.9903 C   0  0  0  0  0  0  0  0  0  0  0  0
   11.1539    7.5266   -5.9523 C   0  0  0  0  0  0  0  0  0  0  0  0
    9.9562    6.9384   -6.2659 C   0  0  0  0  0  0  0  0  0  0  0  0
    9.5815    6.7557   -7.6012 C   0  0  0  0  0  0  0  0  0  0  0  0
   10.4137    7.1660   -8.6221 C   0  0  0  0  0  0  0  0  0  0  0  0
   10.0868    7.0033   -9.9383 N   0  0  0  0  0  0  0  0  0  0  0  0
   11.5739    7.7364   -4.5802 C   0  0  0  0  0  0  0  0  0  0  0  0
   11.7555    6.7118   -3.6750 C   0  0  0  0  0  0  0  0  0  0  0  0
   12.1637    6.9022   -2.3734 C   0  0  0  0  0  0  0  0  0  0  0  0
   12.4086    8.1899   -1.9366 C   0  0  0  0  0  0  0  0  0  0  0  0
   12.2356    9.2199   -2.8122 C   0  0  0  0  0  0  0  0  0  0  0  0
   11.8276    9.0327   -4.1132 C   0  0  0  0  0  0  0  0  0  0  0  0
  1  2  1  0
  2  3  1  0
  3  4  1  0
  4  5  2  0
  5  6  1  0
  6  7  1  0
  7  8  1  0
  8  9  2  0
  9 10  1  0
 10 11  2  0
 11 30  1  0
 30 32  1  0
 32 33  2  0
 33 34  1  0
 34 35  2  0
 35 36  1  0
 36 37  2  0
 37 42  1  0
 42 43  2  0
 43 44  1  0
 44 45  2  0
 45 46  1  0
 46 47  2  0
 37 38  1  0
 38 39  2  0
 39 40  1  0
 40 41  2  0
 11 12  1  0
 12 13  2  0
 13 14  1  0
 14 15  1  6
 15 16  1  0
 16 17  1  0
 17 18  1  0
 18 19  1  0
 14 20  1  0
 20 21  1  0
 21 22  1  0
  4 23  1  0
 23 24  2  0
 23 25  1  0
 25 26  1  0
 26 27  1  0
  7  2  2  0
 13  8  1  0
 19 14  1  0
 27  3  2  0
 21  6  2  0
 41 32  1  0
 40 35  1  0
 47 42  1  0
 30 31  1  0
 22 28  1  0
 26 29  1  0
M  END
>  <minimizedAffinity>  (590) 
-16.84339

$$$$
Mol: 197_33 - SminaDock
     RDKit          3D

 38 44  0  0  0  0  0  0  0  0999 V2000
    8.9453    6.7300  -12.3813 C   0  0  0  0  0  0  0  0  0  0  0  0
    7.8235    7.4241  -11.9895 C   0  0  0  0  0  0  0  0  0  0  0  0
    6.5909    6.8464  -12.2027 C   0  0  0  0  0  0  0  0  0  0  0  0
    6.4290    5.6093  -12.7882 C   0  0  0  0  0  0  0  0  0  0  0  0
    7.5784    4.9284  -13.1751 C   0  0  0  0  0  0  0  0  0  0  0  0
    8.8242    5.4655  -12.9823 C   0  0  0  0  0  0  0  0  0  0  0  0
    9.8483    4.5413  -13.4801 C   0  0  0  0  0  0  0  0  0  0  0  0
    9.1036    3.3765  -14.0008 C   0  0  0  0  0  0  0  0  0  0  0  0
    9.5384    2.1839  -14.5967 C   0  0  0  0  0  0  0  0  0  0  0  0
    8.6380    1.2167  -15.0143 C   0  0  0  0  0  0  0  0  0  0  0  0
    7.3040    1.4579  -14.8287 C   0  0  0  0  0  0  0  0  0  0  0  0
    6.8733    2.6550  -14.2308 C   0  0  0  0  0  0  0  0  0  0  0  0
    7.7677    3.6191  -13.8143 C   0  0  0  0  0  0  0  0  0  0  0  0
    6.5496    0.3067  -15.3426 C   0  0  1  0  0  0  0  0  0  0  0  0
    5.6579   -0.2812  -14.2677 C   0  0  0  0  0  0  0  0  0  0  0  0
    5.7285    0.7889  -16.5274 C   0  0  0  0  0  0  0  0  0  0  0  0
    7.5042   -0.6259  -15.8409 N   0  0  0  0  0  0  0  0  0  0  0  0
    7.3420   -1.5691  -16.2858 H   0  0  0  0  0  0  0  0  0  0  0  0
    8.7985   -0.0882  -15.6501 C   0  0  0  0  0  0  0  0  0  0  0  0
    9.9194   -0.5952  -15.9524 O   0  0  0  0  0  0  0  0  0  0  0  0
   11.1956    7.5833   -5.9994 C   0  0  0  0  0  0  0  0  0  0  0  0
    9.9614    7.0450   -6.2928 C   0  0  0  0  0  0  0  0  0  0  0  0
    9.5093    6.8738   -7.5820 C   0  0  0  0  0  0  0  0  0  0  0  0
   10.3010    7.2460   -8.6339 C   0  0  0  0  0  0  0  0  0  0  0  0
   11.5592    7.7958   -8.3903 C   0  0  0  0  0  0  0  0  0  0  0  0
   12.3297    8.1590   -9.4608 C   0  0  0  0  0  0  0  0  0  0  0  0
   11.8799    7.9878  -10.7066 N   0  0  0  0  0  0  0  0  0  0  0  0
   10.6636    7.4565  -10.9482 C   0  0  0  0  0  0  0  0  0  0  0  0
   10.2378    7.2958  -12.1758 N   0  0  0  0  0  0  0  0  0  0  0  0
    9.8955    7.0951   -9.9123 N   0  0  0  0  0  0  0  0  0  0  0  0
    8.9412    6.6775  -10.0869 H   0  0  0  0  0  0  0  0  0  0  0  0
   11.9725    7.9495   -7.0784 C   0  0  0  0  0  0  0  0  0  0  0  0
   12.4130    8.0580   -1.9364 C   0  0  0  0  0  0  0  0  0  0  0  0
   12.3191    9.1432   -2.7945 C   0  0  0  0  0  0  0  0  0  0  0  0
   11.9238    8.9816   -4.1110 C   0  0  0  0  0  0  0  0  0  0  0  0
   11.6100    7.7367   -4.6140 C   0  0  0  0  0  0  0  0  0  0  0  0
   11.7043    6.6565   -3.7571 C   0  0  0  0  0  0  0  0  0  0  0  0
   12.1012    6.8167   -2.4342 C   0  0  0  0  0  0  0  0  0  0  0  0
 33 34  2  0
 34 35  1  0
 35 36  2  0
 36 21  1  0
 21 22  2  0
 22 23  1  0
 23 24  2  0
 24 25  1  0
 25 26  1  0
 26 27  2  0
 27 28  1  0
 28 29  2  0
 29  1  1  0
  1  2  2  0
  2  3  1  0
  3  4  2  0
  4  5  1  0
  5  6  2  0
  6  7  1  0
  7  8  1  0
  8  9  2  0
  9 10  1  0
 10 11  2  0
 11 12  1  0
 12 13  2  0
 11 14  1  0
 14 15  1  1
 14 16  1  0
 14 17  1  0
 17 18  1  0
 17 19  1  0
 19 20  2  0
 28 30  1  0
 30 31  1  0
 25 32  2  0
 36 37  1  0
 37 38  2  0
 38 33  1  0
 32 21  1  0
 30 24  1  0
  6  1  1  0
 13  8  1  0
 13  5  1  0
 19 10  1  0
M  END
>  <minimizedAffinity>  (591) 
-16.78232

$$$$
Mol: 160_31 - SminaDock
     RDKit          3D

 39 45  0  0  0  0  0  0  0  0999 V2000
    6.0154    5.4153  -11.7821 O   0  0  0  0  0  0  0  0  0  0  0  0
    6.5749    4.5150  -12.4590 C   0  0  0  0  0  0  0  0  0  0  0  0
    5.7679    3.3311  -12.8341 C   0  0  0  0  0  0  0  0  0  0  0  0
    6.5286    2.3494  -13.6234 C   0  0  0  0  0  0  0  0  0  0  0  0
    7.8480    2.5603  -13.9492 C   0  0  0  0  0  0  0  0  0  0  0  0
    8.5096    1.6303  -14.6770 N   0  0  0  0  0  0  0  0  0  0  0  0
    7.8666    0.5062  -15.0750 C   0  0  0  0  0  0  0  0  0  0  0  0
    8.5338   -0.4540  -15.8212 O   0  0  0  0  0  0  0  0  0  0  0  0
    6.5450    0.2738  -14.7604 C   0  0  0  0  0  0  0  0  0  0  0  0
    5.9295   -0.8860  -15.1872 C   0  0  0  0  0  0  0  0  0  0  0  0
    4.6083   -1.1092  -14.8679 C   0  0  0  0  0  0  0  0  0  0  0  0
    3.8760   -0.1956  -14.1253 C   0  0  0  0  0  0  0  0  0  0  0  0
    4.5358    0.9617  -13.7146 C   0  0  0  0  0  0  0  0  0  0  0  0
    5.8469    1.2046  -14.0199 C   0  0  0  0  0  0  0  0  0  0  0  0
    8.6033    3.7504  -13.5530 C   0  0  0  0  0  0  0  0  0  0  0  0
    9.9184    3.9344  -13.8929 C   0  0  0  0  0  0  0  0  0  0  0  0
   10.6563    5.0662  -13.5235 C   0  0  0  0  0  0  0  0  0  0  0  0
   10.0239    6.0249  -12.7892 C   0  0  0  0  0  0  0  0  0  0  0  0
    8.6724    5.8390  -12.4384 C   0  0  0  0  0  0  0  0  0  0  0  0
    7.9747    4.7061  -12.8224 C   0  0  0  0  0  0  0  0  0  0  0  0
    8.3051   -0.6822  -16.7759 H   0  0  0  0  0  0  0  0  0  0  0  0
   10.6043    7.2168  -12.3122 N   0  0  0  0  0  0  0  0  0  0  0  0
   10.7801    8.0355  -12.9872 H   0  0  0  0  0  0  0  0  0  0  0  0
   10.9875    7.4250  -10.9884 C   0  0  0  0  0  0  0  0  0  0  0  0
   12.1099    8.0186  -10.6359 N   0  0  0  0  0  0  0  0  0  0  0  0
   12.4700    8.2159   -9.3395 C   0  0  0  0  0  0  0  0  0  0  0  0
   11.6516    7.7904   -8.3237 C   0  0  0  0  0  0  0  0  0  0  0  0
   11.9919    7.9776   -7.0106 C   0  0  0  0  0  0  0  0  0  0  0  0
   11.1645    7.5479   -5.9716 C   0  0  0  0  0  0  0  0  0  0  0  0
    9.9914    6.9274   -6.3347 C   0  0  0  0  0  0  0  0  0  0  0  0
    9.6424    6.7355   -7.6690 C   0  0  0  0  0  0  0  0  0  0  0  0
   10.4787    7.1701   -8.6862 C   0  0  0  0  0  0  0  0  0  0  0  0
   10.1546    6.9918   -9.9859 N   0  0  0  0  0  0  0  0  0  0  0  0
   11.5751    7.7728   -4.5966 C   0  0  0  0  0  0  0  0  0  0  0  0
   11.7245    6.7343   -3.7017 C   0  0  0  0  0  0  0  0  0  0  0  0
   12.1143    6.9224   -2.3876 C   0  0  0  0  0  0  0  0  0  0  0  0
   12.3696    8.1955   -1.9319 C   0  0  0  0  0  0  0  0  0  0  0  0
   12.2258    9.2492   -2.8122 C   0  0  0  0  0  0  0  0  0  0  0  0
   11.8361    9.0493   -4.1218 C   0  0  0  0  0  0  0  0  0  0  0  0
  1  2  2  0
  2  3  1  0
  3  4  1  0
  4  5  2  0
  5  6  1  0
  6  7  2  0
  7  8  1  0
  7  9  1  0
  9 10  2  0
 10 11  1  0
 11 12  2  0
 12 13  1  0
 13 14  2  0
  5 15  1  0
 15 16  2  0
 16 17  1  0
 17 18  2  0
 18 22  1  0
 22 24  1  0
 24 25  2  0
 25 26  1  0
 26 27  2  0
 27 28  1  0
 28 29  2  0
 29 34  1  0
 34 35  2  0
 35 36  1  0
 36 37  2  0
 37 38  1  0
 38 39  2  0
 29 30  1  0
 30 31  2  0
 31 32  1  0
 32 33  2  0
 18 19  1  0
 19 20  2  0
 20  2  1  0
 14  4  1  0
 20 15  1  0
 14  9  1  0
 33 24  1  0
 32 27  1  0
 39 34  1  0
  8 21  1  0
 22 23  1  0
M  END
>  <minimizedAffinity>  (592) 
-16.80040

$$$$
Mol: 145_37 - SminaDock
     RDKit          3D

 42 48  0  0  0  0  0  0  0  0999 V2000
    7.1709    5.7700  -12.7151 C   0  0  0  0  0  0  0  0  0  0  0  0
    6.3275    6.8580  -12.7854 C   0  0  0  0  0  0  0  0  0  0  0  0
    6.7287    8.1554  -12.5444 C   0  0  0  0  0  0  0  0  0  0  0  0
    8.0561    8.3563  -12.2149 C   0  0  0  0  0  0  0  0  0  0  0  0
    8.9592    7.3045  -12.1270 C   0  0  0  0  0  0  0  0  0  0  0  0
    8.4986    6.0294  -12.3792 C   0  0  0  0  0  0  0  0  0  0  0  0
    4.2982   -1.1224  -14.2107 H   0  0  0  0  0  0  0  0  0  0  0  0
    4.6890   -0.4491  -13.5333 O   0  0  0  0  0  0  0  0  0  0  0  0
    5.7368    0.4022  -13.9326 C   0  0  0  0  0  0  0  0  0  0  0  0
    6.6747    0.0825  -14.7460 N   0  0  0  0  0  0  0  0  0  0  0  0
    7.5666    1.1677  -14.9335 C   0  0  2  0  0  0  0  0  0  0  0  0
    7.0102    2.2509  -14.0757 C   0  0  0  0  0  0  0  0  0  0  0  0
    7.4157    3.5573  -13.8194 C   0  0  0  0  0  0  0  0  0  0  0  0
    6.7314    4.3947  -12.9714 C   0  0  0  0  0  0  0  0  0  0  0  0
    5.5906    3.8837  -12.3605 C   0  0  0  0  0  0  0  0  0  0  0  0
    5.1816    2.5910  -12.6088 C   0  0  0  0  0  0  0  0  0  0  0  0
    5.8955    1.7712  -13.4709 C   0  0  0  0  0  0  0  0  0  0  0  0
    7.5175    1.5912  -16.3890 C   0  0  0  0  0  0  0  0  0  0  0  0
    8.2743    0.5512  -17.1872 C   0  0  0  0  0  0  0  0  0  0  0  0
    9.6810    0.6999  -16.8143 N   0  0  2  0  0  0  0  0  0  0  0  0
    9.8789    1.7242  -16.8415 H   0  0  0  0  0  0  0  0  0  0  0  0
   10.5097   -0.0487  -17.7101 C   0  0  0  0  0  0  0  0  0  0  0  0
    9.8018    0.1516  -15.4777 C   0  0  0  0  0  0  0  0  0  0  0  0
    8.9745    0.8732  -14.4717 C   0  0  0  0  0  0  0  0  0  0  0  0
   10.3027    7.5990  -11.7842 N   0  0  0  0  0  0  0  0  0  0  0  0
   10.7335    7.6834  -10.5595 C   0  0  0  0  0  0  0  0  0  0  0  0
   12.0226    7.9664  -10.2963 N   0  0  0  0  0  0  0  0  0  0  0  0
   12.4913    8.0562   -9.0402 C   0  0  0  0  0  0  0  0  0  0  0  0
   11.6637    7.8602   -7.9553 C   0  0  0  0  0  0  0  0  0  0  0  0
   12.1192    7.9442   -6.6489 C   0  0  0  0  0  0  0  0  0  0  0  0
   11.2554    7.7386   -5.6044 C   0  0  0  0  0  0  0  0  0  0  0  0
    9.9269    7.4470   -5.8518 C   0  0  0  0  0  0  0  0  0  0  0  0
    9.4761    7.3640   -7.1630 C   0  0  0  0  0  0  0  0  0  0  0  0
   10.3422    7.5702   -8.2169 C   0  0  0  0  0  0  0  0  0  0  0  0
    9.9196    7.4913   -9.5066 N   0  0  0  0  0  0  0  0  0  0  0  0
    8.9195    7.2730   -9.6509 H   0  0  0  0  0  0  0  0  0  0  0  0
   11.7143    7.8213   -4.2280 C   0  0  0  0  0  0  0  0  0  0  0  0
   11.9759    9.0720   -3.6897 C   0  0  0  0  0  0  0  0  0  0  0  0
   12.4135    9.1622   -2.3820 C   0  0  0  0  0  0  0  0  0  0  0  0
   12.5993    8.0522   -1.5934 C   0  0  0  0  0  0  0  0  0  0  0  0
   12.3358    6.8030   -2.1375 C   0  0  0  0  0  0  0  0  0  0  0  0
   11.9014    6.7129   -3.4353 C   0  0  0  0  0  0  0  0  0  0  0  0
  7  8  1  0
  8  9  1  0
  9 10  2  0
 10 11  1  0
 11 12  1  0
 12 13  2  0
 13 14  1  0
 14  1  1  0
  1  2  2  0
  2  3  1  0
  3  4  2  0
  4  5  1  0
  5 25  1  0
 25 26  2  0
 26 27  1  0
 27 28  2  0
 28 29  1  0
 29 30  2  0
 30 31  1  0
 31 37  1  0
 37 38  2  0
 38 39  1  0
 39 40  2  0
 40 41  1  0
 41 42  2  0
 31 32  2  0
 32 33  1  0
 33 34  2  0
 34 35  1  0
 35 36  1  0
  5  6  2  0
 14 15  2  0
 15 16  1  0
 16 17  2  0
 11 18  1  6
 18 19  1  0
 19 20  1  0
 20 21  1  1
 20 22  1  0
 20 23  1  0
 23 24  1  0
 17  9  1  0
 24 11  1  0
 17 12  1  0
  6  1  1  0
 35 26  1  0
 34 29  1  0
 42 37  1  0
M  CHG  1  20   1
M  END
>  <minimizedAffinity>  (593) 
-16.75986

$$$$
Mol: 186_58 - SminaDock
     RDKit          3D

 41 47  0  0  0  0  0  0  0  0999 V2000
    4.6913   -1.5691  -15.7567 C   0  0  0  0  0  0  0  0  0  0  0  0
    5.8330   -1.4993  -16.4069 C   0  0  0  0  0  0  0  0  0  0  0  0
    6.0801   -2.5420  -17.3768 N   0  0  0  0  0  0  0  0  0  0  0  0
    5.6093   -2.5683  -18.3034 H   0  0  0  0  0  0  0  0  0  0  0  0
    6.7564   -3.2946  -17.1356 H   0  0  0  0  0  0  0  0  0  0  0  0
    6.7738   -0.4854  -16.1932 N   0  0  2  0  0  0  0  0  0  0  0  0
    6.8773    0.0266  -17.1231 H   0  0  0  0  0  0  0  0  0  0  0  0
    7.7239   -0.8735  -15.9583 H   0  0  0  0  0  0  0  0  0  0  0  0
    6.3929    0.4486  -15.2251 C   0  0  0  0  0  0  0  0  0  0  0  0
    7.2654    1.5135  -14.9291 C   0  0  0  0  0  0  0  0  0  0  0  0
    6.9591    2.4646  -13.9941 C   0  0  0  0  0  0  0  0  0  0  0  0
    5.7765    2.4308  -13.2904 C   0  0  0  0  0  0  0  0  0  0  0  0
    4.9099    1.3959  -13.5667 C   0  0  0  0  0  0  0  0  0  0  0  0
    5.2245    0.4284  -14.5196 C   0  0  0  0  0  0  0  0  0  0  0  0
    4.3103   -0.6298  -14.7848 N   0  0  0  0  0  0  0  0  0  0  0  0
    3.0712   -0.6702  -14.0512 C   0  0  0  0  0  0  0  0  0  0  0  0
    5.7186    3.5768  -12.3563 C   0  0  0  0  0  0  0  0  0  0  0  0
    6.9871    4.3110  -12.5643 C   0  0  0  0  0  0  0  0  0  0  0  0
    7.5055    5.4725  -11.9740 C   0  0  0  0  0  0  0  0  0  0  0  0
    8.7379    5.9129  -12.3900 C   0  0  0  0  0  0  0  0  0  0  0  0
    9.4487    5.2228  -13.3696 C   0  0  0  0  0  0  0  0  0  0  0  0
    8.9596    4.0955  -13.9509 C   0  0  0  0  0  0  0  0  0  0  0  0
    7.7104    3.6532  -13.5263 C   0  0  0  0  0  0  0  0  0  0  0  0
    9.2816    7.1000  -11.7947 N   0  0  0  0  0  0  0  0  0  0  0  0
    9.6181    7.0537  -10.5689 C   0  0  0  0  0  0  0  0  0  0  0  0
    9.4778    5.9409   -9.8371 N   0  0  0  0  0  0  0  0  0  0  0  0
    9.8329    5.8860   -8.5398 C   0  0  0  0  0  0  0  0  0  0  0  0
   10.3620    6.9870   -7.9038 C   0  0  0  0  0  0  0  0  0  0  0  0
   10.7399    6.9763   -6.5756 C   0  0  0  0  0  0  0  0  0  0  0  0
   11.2695    8.0854   -5.9473 C   0  0  0  0  0  0  0  0  0  0  0  0
   11.4055    9.2209   -6.7189 C   0  0  0  0  0  0  0  0  0  0  0  0
   11.0302    9.2396   -8.0467 C   0  0  0  0  0  0  0  0  0  0  0  0
   10.5023    8.1300   -8.6689 C   0  0  0  0  0  0  0  0  0  0  0  0
   10.1306    8.1363   -9.9707 N   0  0  0  0  0  0  0  0  0  0  0  0
   10.2498    9.0242  -10.5308 H   0  0  0  0  0  0  0  0  0  0  0  0
   11.6681    8.0664   -4.5396 C   0  0  0  0  0  0  0  0  0  0  0  0
   11.6725    6.8665   -3.8653 C   0  0  0  0  0  0  0  0  0  0  0  0
   12.0431    6.8002   -2.5272 C   0  0  0  0  0  0  0  0  0  0  0  0
   12.4176    7.9265   -1.8307 C   0  0  0  0  0  0  0  0  0  0  0  0
   12.4147    9.1327   -2.5027 C   0  0  0  0  0  0  0  0  0  0  0  0
   12.0435    9.1922   -3.8390 C   0  0  0  0  0  0  0  0  0  0  0  0
  1  2  2  0
  2  3  1  0
  3  4  1  0
  3  5  1  0
  2  6  1  0
  6  7  1  6
  6  8  1  0
  6  9  1  0
  9 10  2  0
 10 11  1  0
 11 12  2  0
 12 13  1  0
 13 14  2  0
 14 15  1  0
 15 16  1  0
 12 17  1  0
 17 18  1  0
 18 19  2  0
 19 20  1  0
 20 24  1  0
 24 25  2  0
 25 26  1  0
 26 27  2  0
 27 28  1  0
 28 29  2  0
 29 30  1  0
 30 36  1  0
 36 37  2  0
 37 38  1  0
 38 39  2  0
 39 40  1  0
 40 41  2  0
 30 31  2  0
 31 32  1  0
 32 33  2  0
 33 34  1  0
 34 35  1  0
 20 21  2  0
 21 22  1  0
 22 23  2  0
 15  1  1  0
 23 18  1  0
 14  9  1  0
 34 25  1  0
 23 11  1  0
 33 28  1  0
 41 36  1  0
M  CHG  1   6   1
M  END
>  <minimizedAffinity>  (594) 
-16.84550

$$$$
Mol: 187_23 - SminaDock
     RDKit          3D

 36 42  0  0  0  0  0  0  0  0999 V2000
   11.2523    8.0113   -5.9900 C   0  0  0  0  0  0  0  0  0  0  0  0
   11.4411    9.0976   -6.8008 C   0  0  0  0  0  0  0  0  0  0  0  0
   11.0684    9.1012   -8.1370 C   0  0  0  0  0  0  0  0  0  0  0  0
   10.4833    7.9782   -8.6913 C   0  0  0  0  0  0  0  0  0  0  0  0
   10.2893    6.8868   -7.8920 C   0  0  0  0  0  0  0  0  0  0  0  0
    9.7050    5.7715   -8.4565 C   0  0  0  0  0  0  0  0  0  0  0  0
    9.3414    5.7672   -9.7514 N   0  0  0  0  0  0  0  0  0  0  0  0
    9.5347    6.8408  -10.5290 C   0  0  0  0  0  0  0  0  0  0  0  0
    9.2001    6.8727  -11.7763 N   0  0  0  0  0  0  0  0  0  0  0  0
   10.1038    7.9287   -9.9817 N   0  0  0  0  0  0  0  0  0  0  0  0
   10.2836    8.8066  -10.5399 H   0  0  0  0  0  0  0  0  0  0  0  0
   10.6673    6.8930   -6.5504 C   0  0  0  0  0  0  0  0  0  0  0  0
    8.5892    5.7333  -12.4106 C   0  0  0  0  0  0  0  0  0  0  0  0
    9.1962    5.1566  -13.5101 C   0  0  0  0  0  0  0  0  0  0  0  0
    8.5835    4.0638  -14.0940 C   0  0  0  0  0  0  0  0  0  0  0  0
    7.3930    3.5556  -13.5951 C   0  0  0  0  0  0  0  0  0  0  0  0
    6.7698    4.1104  -12.5040 C   0  0  0  0  0  0  0  0  0  0  0  0
    7.4125    5.2165  -11.9322 C   0  0  0  0  0  0  0  0  0  0  0  0
    5.5264    3.3850  -12.1798 C   0  0  0  0  0  0  0  0  0  0  0  0
    5.4546    2.3128  -13.1998 C   0  0  0  0  0  0  0  0  0  0  0  0
    4.5327    1.2982  -13.4381 C   0  0  0  0  0  0  0  0  0  0  0  0
    4.7548    0.4246  -14.5077 C   0  0  0  0  0  0  0  0  0  0  0  0
    5.8391    0.5314  -15.3233 C   0  0  0  0  0  0  0  0  0  0  0  0
    6.7524    1.5604  -15.0633 C   0  0  0  0  0  0  0  0  0  0  0  0
    6.5512    2.4355  -14.0099 C   0  0  0  0  0  0  0  0  0  0  0  0
    6.0799   -0.3866  -16.4578 C   0  0  0  0  0  0  0  0  0  0  0  0
    5.2996   -1.6566  -16.2212 C   0  0  0  0  0  0  0  0  0  0  0  0
    3.8900   -1.3322  -15.9832 N   0  0  0  0  0  0  0  0  0  0  0  0
    3.5262   -0.7688  -16.7671 H   0  0  0  0  0  0  0  0  0  0  0  0
    3.7413   -0.6519  -14.7253 C   0  0  0  0  0  0  0  0  0  0  0  0
   12.4098    7.9963   -1.9112 C   0  0  0  0  0  0  0  0  0  0  0  0
   12.0863    6.8120   -2.5551 C   0  0  0  0  0  0  0  0  0  0  0  0
   11.7123    6.8391   -3.8817 C   0  0  0  0  0  0  0  0  0  0  0  0
   11.6498    8.0305   -4.5987 C   0  0  0  0  0  0  0  0  0  0  0  0
   11.9826    9.1775   -3.9063 C   0  0  0  0  0  0  0  0  0  0  0  0
   12.3590    9.1935   -2.5893 C   0  0  0  0  0  0  0  0  0  0  0  0
 31 32  2  0
 32 33  1  0
 33 34  2  0
 34  1  1  0
  1  2  2  0
  2  3  1  0
  3  4  2  0
  4  5  1  0
  5  6  1  0
  6  7  2  0
  7  8  1  0
  8  9  2  0
  9 13  1  0
 13 14  2  0
 14 15  1  0
 15 16  2  0
 16 17  1  0
 17 18  2  0
 17 19  1  0
 19 20  1  0
 20 21  2  0
 21 22  1  0
 22 23  2  0
 23 24  1  0
 24 25  2  0
 23 26  1  0
 26 27  1  0
 27 28  1  0
 28 29  1  0
 28 30  1  0
  8 10  1  0
 10 11  1  0
  5 12  2  0
 34 35  1  0
 35 36  2  0
 36 31  1  0
 12  1  1  0
 10  4  1  0
 18 13  1  0
 25 20  1  0
 25 16  1  0
 30 22  1  0
M  END
>  <minimizedAffinity>  (595) 
-16.82292

$$$$
Mol: 59_20 - SminaDock
     RDKit          3D

 51 60  0  0  0  0  0  0  0  0999 V2000
   10.5528    7.1124   -9.0598 C   0  0  0  0  0  0  0  0  0  0  0  0
    9.4647    6.2772   -9.1455 C   0  0  0  0  0  0  0  0  0  0  0  0
    9.0496    5.6879  -10.3465 C   0  0  0  0  0  0  0  0  0  0  0  0
    9.7762    5.9715  -11.4749 C   0  0  0  0  0  0  0  0  0  0  0  0
    9.4070    5.4076  -12.6690 C   0  0  0  0  0  0  0  0  0  0  0  0
   10.1613    5.6976  -13.7968 C   0  0  0  0  0  0  0  0  0  0  0  0
   11.2630    6.5264  -13.7741 C   0  0  0  0  0  0  0  0  0  0  0  0
   11.6315    7.0908  -12.5836 C   0  0  0  0  0  0  0  0  0  0  0  0
   10.8959    6.8149  -11.4523 C   0  0  0  0  0  0  0  0  0  0  0  0
   11.2530    7.3663  -10.2272 C   0  0  0  0  0  0  0  0  0  0  0  0
    8.2399    4.5547  -12.8003 C   0  0  0  0  0  0  0  0  0  0  0  0
    7.0038    4.8404  -12.2601 C   0  0  0  0  0  0  0  0  0  0  0  0
    5.9245    3.9966  -12.3971 C   0  0  0  0  0  0  0  0  0  0  0  0
    6.0260    2.8088  -13.0900 C   0  0  0  0  0  0  0  0  0  0  0  0
    7.2450    2.4930  -13.6425 C   0  0  0  0  0  0  0  0  0  0  0  0
    8.3197    3.3433  -13.5001 C   0  0  0  0  0  0  0  0  0  0  0  0
    7.0952    1.1956  -14.3232 C   0  0  1  0  0  0  0  0  0  0  0  0
    6.0023    0.5238  -13.5562 C   0  0  0  0  0  0  0  0  0  0  0  0
    5.0377    1.7105  -13.3912 C   0  0  0  0  0  0  0  0  0  0  0  0
    6.6183    1.3439  -15.7509 C   0  0  0  0  0  0  0  0  0  0  0  0
    7.9175    1.3672  -16.5017 C   0  0  0  0  0  0  0  0  0  0  0  0
    8.2482    1.8196  -17.7617 C   0  0  0  0  0  0  0  0  0  0  0  0
    9.5298    1.7473  -18.2680 C   0  0  0  0  0  0  0  0  0  0  0  0
   10.5467    1.2065  -17.5108 C   0  0  0  0  0  0  0  0  0  0  0  0
   10.2221    0.7526  -16.2507 C   0  0  0  0  0  0  0  0  0  0  0  0
    8.9217    0.8253  -15.7353 C   0  0  0  0  0  0  0  0  0  0  0  0
    8.3457    0.4067  -14.4362 C   0  0  0  0  0  0  0  0  0  0  0  0
   11.9463    1.1139  -18.0338 C   0  0  2  0  0  0  0  0  0  0  0  0
   12.0217    1.6011  -19.4647 C   0  0  0  0  0  0  0  0  0  0  0  0
   12.3004    0.1597  -19.8424 C   0  0  0  0  0  0  0  0  0  0  0  0
   12.1548   -0.1759  -18.5186 O   0  0  0  0  0  0  0  0  0  0  0  0
   11.5912    6.5223   -2.0678 O   0  0  0  0  0  0  0  0  0  0  0  0
   11.6046    7.2226   -3.1178 C   0  0  0  0  0  0  0  0  0  0  0  0
   11.9925    8.5478   -2.9983 C   0  0  0  0  0  0  0  0  0  0  0  0
   12.0314    9.3767   -4.1074 C   0  0  0  0  0  0  0  0  0  0  0  0
   11.6793    8.8713   -5.3400 C   0  0  0  0  0  0  0  0  0  0  0  0
   11.6845    9.6039   -6.4893 C   0  0  0  0  0  0  0  0  0  0  0  0
   12.0640   10.9360   -6.4297 O   0  0  0  0  0  0  0  0  0  0  0  0
   11.3112    9.0125   -7.7064 C   0  0  0  0  0  0  0  0  0  0  0  0
   10.9314    7.6922   -7.7874 C   0  0  0  0  0  0  0  0  0  0  0  0
   10.9307    6.9774   -6.6404 N   0  0  0  0  0  0  0  0  0  0  0  0
   11.2761    7.4765   -5.4373 C   0  0  0  0  0  0  0  0  0  0  0  0
   11.2627    6.7383   -4.3254 N   0  0  0  0  0  0  0  0  0  0  0  0
   13.0237   11.2503   -6.4508 H   0  0  0  0  0  0  0  0  0  0  0  0
   10.6514    5.9874   -6.6699 H   0  0  0  0  0  0  0  0  0  0  0  0
   12.0271    6.8023  -14.9919 C   0  0  0  0  0  0  0  0  0  0  0  0
   12.7543    7.9050  -15.2256 N   0  0  0  0  0  0  0  0  0  0  0  0
   13.2807    7.7540  -16.4406 N   0  0  0  0  0  0  0  0  0  0  0  0
   12.9085    6.6019  -16.9672 N   0  0  0  0  0  0  0  0  0  0  0  0
   12.1243    6.0095  -16.0581 N   0  0  0  0  0  0  0  0  0  0  0  0
   11.6747    5.0787  -16.1873 H   0  0  0  0  0  0  0  0  0  0  0  0
 32 33  2  0
 33 34  1  0
 34 35  2  0
 35 36  1  0
 36 37  2  0
 37 38  1  0
 37 39  1  0
 39 40  2  0
 40  1  1  0
  1  2  2  0
  2  3  1  0
  3  4  2  0
  4  5  1  0
  5 11  1  0
 11 12  2  0
 12 13  1  0
 13 14  2  0
 14 15  1  0
 15 16  2  0
 15 17  1  0
 17 18  1  1
 18 19  1  0
 17 20  1  0
 20 21  1  0
 21 22  2  0
 22 23  1  0
 23 24  2  0
 28 24  1  6
 28 29  1  0
 29 30  1  0
 30 31  1  0
 24 25  1  0
 25 26  2  0
 26 27  1  0
  5  6  2  0
  6  7  1  0
  7 46  1  0
 46 47  2  0
 47 48  1  0
 48 49  2  0
 49 50  1  0
  7  8  2  0
  8  9  1  0
  9 10  2  0
 40 41  1  0
 41 42  1  0
 42 43  2  0
 43 33  1  0
 42 36  1  0
 10  1  1  0
  9  4  1  0
 16 11  1  0
 27 17  1  0
 50 46  1  0
 19 14  1  0
 26 21  1  0
 31 28  1  0
 38 44  1  0
 50 51  1  0
 41 45  1  0
M  END
>  <minimizedAffinity>  (596) 
-16.76568

$$$$
Mol: 89_11 - SminaDock
     RDKit          3D

 40 46  0  0  0  0  0  0  0  0999 V2000
   10.1884   -0.6785  -16.1036 O   0  0  0  0  0  0  0  0  0  0  0  0
   10.1932    0.5793  -15.9612 C   0  0  0  0  0  0  0  0  0  0  0  0
   10.0481    1.3709  -14.7036 C   0  0  0  0  0  0  0  0  0  0  0  0
    9.0741    2.4231  -15.2004 C   0  0  1  0  0  0  0  0  0  0  0  0
    7.8872    1.7417  -15.7289 C   0  0  0  0  0  0  0  0  0  0  0  0
    6.7480    1.4335  -14.8842 C   0  0  0  0  0  0  0  0  0  0  0  0
    6.1914    0.1775  -15.0944 C   0  0  0  0  0  0  0  0  0  0  0  0
    5.1021   -0.2775  -14.3960 C   0  0  0  0  0  0  0  0  0  0  0  0
    4.5402    0.5486  -13.4479 C   0  0  0  0  0  0  0  0  0  0  0  0
    5.0381    1.8062  -13.1853 C   0  0  0  0  0  0  0  0  0  0  0  0
    6.1515    2.2201  -13.9271 C   0  0  0  0  0  0  0  0  0  0  0  0
    6.5918    3.5599  -13.5531 C   0  0  0  0  0  0  0  0  0  0  0  0
    5.6868    4.3273  -13.0814 O   0  0  0  0  0  0  0  0  0  0  0  0
    7.9394    4.1233  -13.6532 C   0  0  0  0  0  0  0  0  0  0  0  0
    8.0881    5.2793  -12.9182 C   0  0  0  0  0  0  0  0  0  0  0  0
    9.3330    5.9378  -12.8896 C   0  0  0  0  0  0  0  0  0  0  0  0
   10.3714    5.3919  -13.6096 C   0  0  0  0  0  0  0  0  0  0  0  0
   10.2168    4.2345  -14.3429 C   0  0  0  0  0  0  0  0  0  0  0  0
    8.9902    3.5857  -14.3720 C   0  0  0  0  0  0  0  0  0  0  0  0
    9.8528    2.8343  -16.4470 C   0  0  0  0  0  0  0  0  0  0  0  0
   10.0234    3.9737  -16.9132 O   0  0  0  0  0  0  0  0  0  0  0  0
   10.3370    1.5955  -16.9503 N   0  0  0  0  0  0  0  0  0  0  0  0
    9.3782    7.1125  -12.1310 N   0  0  0  0  0  0  0  0  0  0  0  0
    9.1571    8.0496  -12.5846 H   0  0  0  0  0  0  0  0  0  0  0  0
    9.7201    7.0943  -10.7437 C   0  0  0  0  0  0  0  0  0  0  0  0
    9.4198    5.9366  -10.0034 C   0  0  0  0  0  0  0  0  0  0  0  0
    9.7516    5.8953   -8.6812 C   0  0  0  0  0  0  0  0  0  0  0  0
   10.3736    6.9564   -8.0464 C   0  0  0  0  0  0  0  0  0  0  0  0
   10.7087    6.9195   -6.7135 C   0  0  0  0  0  0  0  0  0  0  0  0
   11.3297    7.9889   -6.0918 C   0  0  0  0  0  0  0  0  0  0  0  0
   11.6032    9.1014   -6.8592 C   0  0  0  0  0  0  0  0  0  0  0  0
   11.2720    9.1442   -8.1877 C   0  0  0  0  0  0  0  0  0  0  0  0
   10.6530    8.0812   -8.8121 C   0  0  0  0  0  0  0  0  0  0  0  0
   10.3172    8.0898  -10.0976 N   0  0  0  0  0  0  0  0  0  0  0  0
   11.6845    7.9484   -4.6746 C   0  0  0  0  0  0  0  0  0  0  0  0
   11.6551    6.7810   -3.9545 C   0  0  0  0  0  0  0  0  0  0  0  0
   11.9904    6.7436   -2.6127 C   0  0  0  0  0  0  0  0  0  0  0  0
   12.3657    7.9064   -1.9718 C   0  0  0  0  0  0  0  0  0  0  0  0
   12.4005    9.0893   -2.6814 C   0  0  0  0  0  0  0  0  0  0  0  0
   12.0584    9.1110   -4.0394 C   0  0  0  0  0  0  0  0  0  0  0  0
  1  2  2  0
  2  3  1  0
  4  3  1  1
  4  5  1  0
  5  6  1  0
  6  7  2  0
  7  8  1  0
  8  9  2  0
  9 10  1  0
 10 11  2  0
 11 12  1  0
 12 13  2  0
 12 14  1  0
 14 15  2  0
 15 16  1  0
 16 23  1  0
 23 25  1  0
 25 26  2  0
 26 27  1  0
 27 28  2  0
 28 29  1  0
 29 30  2  0
 30 35  1  0
 35 36  2  0
 36 37  1  0
 37 38  2  0
 38 39  1  0
 39 40  2  0
 30 31  1  0
 31 32  2  0
 32 33  1  0
 33 34  2  0
 16 17  2  0
 17 18  1  0
 18 19  2  0
  4 20  1  0
 20 21  2  0
 20 22  1  0
 22  2  1  0
 19  4  1  0
 11  6  1  0
 19 14  1  0
 34 25  1  0
 33 28  1  0
 40 35  1  0
 23 24  1  0
M  CHG  1  22  -1
M  END
>  <minimizedAffinity>  (597) 
-16.75984

$$$$
Mol: 147_45 - SminaDock
     RDKit          3D

 38 44  0  0  0  0  0  0  0  0999 V2000
    8.9376    4.1548  -13.9728 C   0  0  0  0  0  0  0  0  0  0  0  0
    9.4015    5.2333  -13.3336 N   0  0  0  0  0  0  0  0  0  0  0  0
    8.7001    5.8135  -12.3262 C   0  0  0  0  0  0  0  0  0  0  0  0
    7.4938    5.3329  -11.9128 C   0  0  0  0  0  0  0  0  0  0  0  0
    6.9849    4.2023  -12.5664 C   0  0  0  0  0  0  0  0  0  0  0  0
    7.7135    3.6358  -13.5818 C   0  0  0  0  0  0  0  0  0  0  0  0
    7.1453    2.4636  -14.2663 C   0  0  0  0  0  0  0  0  0  0  0  0
    7.8533    1.8560  -15.2737 C   0  0  0  0  0  0  0  0  0  0  0  0
    7.3399    0.7225  -15.9325 C   0  0  0  0  0  0  0  0  0  0  0  0
    6.1169    0.2039  -15.5760 C   0  0  0  0  0  0  0  0  0  0  0  0
    5.4102    0.8096  -14.5713 C   0  0  0  0  0  0  0  0  0  0  0  0
    5.9233    1.9416  -13.9141 C   0  0  0  0  0  0  0  0  0  0  0  0
    5.0959    2.5404  -12.8614 C   0  0  0  0  0  0  0  0  0  0  0  0
    5.6951    3.6490  -12.1291 C   0  0  0  0  0  0  0  0  0  0  0  0
    4.1040    0.2833  -14.1647 C   0  0  0  0  0  0  0  0  0  0  0  0
    3.5342   -0.7851  -15.0235 C   0  0  0  0  0  0  0  0  0  0  0  0
    4.5421   -1.6739  -15.5716 N   0  0  2  0  0  0  0  0  0  0  0  0
    4.0452   -2.2821  -16.2723 H   0  0  0  0  0  0  0  0  0  0  0  0
    4.8973   -2.3248  -14.8323 H   0  0  0  0  0  0  0  0  0  0  0  0
    5.5783   -0.9747  -16.2593 C   0  0  0  0  0  0  0  0  0  0  0  0
    9.2697    6.9512  -11.7085 N   0  0  0  0  0  0  0  0  0  0  0  0
    9.6212    6.9519  -10.4635 C   0  0  0  0  0  0  0  0  0  0  0  0
    9.4362    5.8423   -9.7527 N   0  0  0  0  0  0  0  0  0  0  0  0
    9.7995    5.8352   -8.4564 C   0  0  0  0  0  0  0  0  0  0  0  0
   10.3549    6.9458   -7.8558 C   0  0  0  0  0  0  0  0  0  0  0  0
   10.7394    6.9819   -6.5379 C   0  0  0  0  0  0  0  0  0  0  0  0
   11.2945    8.1008   -5.9490 C   0  0  0  0  0  0  0  0  0  0  0  0
   11.4526    9.2139   -6.7596 C   0  0  0  0  0  0  0  0  0  0  0  0
   11.0749    9.2096   -8.0926 C   0  0  0  0  0  0  0  0  0  0  0  0
   10.5215    8.0744   -8.6553 C   0  0  0  0  0  0  0  0  0  0  0  0
   10.1559    8.0738   -9.9500 N   0  0  0  0  0  0  0  0  0  0  0  0
   10.2862    8.9259  -10.5382 H   0  0  0  0  0  0  0  0  0  0  0  0
   11.6863    8.0886   -4.5455 C   0  0  0  0  0  0  0  0  0  0  0  0
   11.6988    6.8908   -3.8270 C   0  0  0  0  0  0  0  0  0  0  0  0
   12.0656    6.8522   -2.4986 C   0  0  0  0  0  0  0  0  0  0  0  0
   12.4335    8.0181   -1.8434 C   0  0  0  0  0  0  0  0  0  0  0  0
   12.4277    9.2098   -2.5337 C   0  0  0  0  0  0  0  0  0  0  0  0
   12.0581    9.2113   -3.8517 C   0  0  0  0  0  0  0  0  0  0  0  0
  1  2  2  0
  2  3  1  0
  3 21  1  0
 21 22  2  0
 22 23  1  0
 23 24  2  0
 24 25  1  0
 25 26  2  0
 26 27  1  0
 27 33  1  0
 33 34  2  0
 34 35  1  0
 35 36  2  0
 36 37  1  0
 37 38  2  0
 27 28  2  0
 28 29  1  0
 29 30  2  0
 30 31  1  0
 31 32  1  0
  3  4  2  0
  4  5  1  0
  5  6  2  0
  6  7  1  0
  7  8  2  0
  8  9  1  0
  9 10  2  0
 10 11  1  0
 11 12  2  0
 12 13  1  0
 13 14  1  0
 11 15  1  0
 15 16  1  0
 16 17  1  0
 17 18  1  6
 17 19  1  0
 17 20  1  0
  6  1  1  0
 12  7  1  0
 31 22  1  0
 14  5  1  0
 30 25  1  0
 20 10  1  0
 38 33  1  0
M  CHG  1  17   1
M  END
>  <minimizedAffinity>  (598) 
-16.80087

$$$$
Mol: 139_2 - SminaDock
     RDKit          3D

 43 50  0  0  0  0  0  0  0  0999 V2000
    5.2894    1.9683  -13.4347 C   0  0  0  0  0  0  0  0  0  0  0  0
    4.6413    0.9181  -13.9621 N   0  0  0  0  0  0  0  0  0  0  0  0
    5.1850    0.2801  -15.0341 C   0  0  0  0  0  0  0  0  0  0  0  0
    4.5086   -0.8176  -15.5850 C   0  0  0  0  0  0  0  0  0  0  0  0
    4.9838   -1.5211  -16.6664 C   0  0  0  0  0  0  0  0  0  0  0  0
    6.1791   -1.0877  -17.1925 C   0  0  0  0  0  0  0  0  0  0  0  0
    6.8597   -0.0069  -16.6618 C   0  0  0  0  0  0  0  0  0  0  0  0
    6.3768    0.6876  -15.5834 C   0  0  0  0  0  0  0  0  0  0  0  0
    7.0703    1.7801  -15.0504 C   0  0  0  0  0  0  0  0  0  0  0  0
    6.5051    2.4122  -13.9669 C   0  0  0  0  0  0  0  0  0  0  0  0
    7.2203    3.5476  -13.3991 C   0  0  0  0  0  0  0  0  0  0  0  0
    6.6903    4.2140  -12.3154 C   0  0  0  0  0  0  0  0  0  0  0  0
    7.3593    5.2918  -11.7740 C   0  0  0  0  0  0  0  0  0  0  0  0
    8.5565    5.6775  -12.3404 C   0  0  0  0  0  0  0  0  0  0  0  0
    9.0752    5.0026  -13.4236 C   0  0  0  0  0  0  0  0  0  0  0  0
    8.4028    3.9152  -13.9718 C   0  0  0  0  0  0  0  0  0  0  0  0
    9.0756    3.2858  -15.1264 C   0  0  2  0  0  0  0  0  0  0  0  0
    8.3218    2.1274  -15.7156 C   0  0  0  0  0  0  0  0  0  0  0  0
   10.4017    2.7962  -14.6135 C   0  0  0  0  0  0  0  0  0  0  0  0
   11.5180    2.8584  -15.5876 C   0  0  0  0  0  0  0  0  0  0  0  0
   11.0811    3.0126  -16.9568 N   0  0  1  0  0  0  0  0  0  0  0  0
   11.9461    3.1256  -17.5481 H   0  0  0  0  0  0  0  0  0  0  0  0
   10.4756    2.2391  -17.2463 H   0  0  0  0  0  0  0  0  0  0  0  0
   10.4141    4.3073  -17.0008 C   0  0  0  0  0  0  0  0  0  0  0  0
    9.1801    4.3516  -16.1783 C   0  0  0  0  0  0  0  0  0  0  0  0
    9.2200    6.7927  -11.7577 N   0  0  0  0  0  0  0  0  0  0  0  0
    9.5461    6.7791  -10.4998 C   0  0  0  0  0  0  0  0  0  0  0  0
    9.2818    5.7340   -9.6921 N   0  0  0  0  0  0  0  0  0  0  0  0
    9.6292    5.7423   -8.3915 C   0  0  0  0  0  0  0  0  0  0  0  0
   10.2749    6.8340   -7.8366 C   0  0  0  0  0  0  0  0  0  0  0  0
   10.6439    6.8744   -6.5100 C   0  0  0  0  0  0  0  0  0  0  0  0
   11.2899    7.9658   -5.9533 C   0  0  0  0  0  0  0  0  0  0  0  0
   11.5545    9.0303   -6.7937 C   0  0  0  0  0  0  0  0  0  0  0  0
   11.1813    8.9806   -8.1201 C   0  0  0  0  0  0  0  0  0  0  0  0
   10.5391    7.8967   -8.6751 C   0  0  0  0  0  0  0  0  0  0  0  0
   10.1729    7.8462   -9.9737 N   0  0  0  0  0  0  0  0  0  0  0  0
   10.3822    8.6569  -10.5845 H   0  0  0  0  0  0  0  0  0  0  0  0
   11.6771    8.0002   -4.5475 C   0  0  0  0  0  0  0  0  0  0  0  0
   11.6897    6.8473   -3.8172 C   0  0  0  0  0  0  0  0  0  0  0  0
   12.0555    6.8702   -2.4838 C   0  0  0  0  0  0  0  0  0  0  0  0
   12.4079    8.0806   -1.9036 C   0  0  0  0  0  0  0  0  0  0  0  0
   12.3888    9.2272   -2.6542 C   0  0  0  0  0  0  0  0  0  0  0  0
   12.0249    9.2318   -3.9971 C   0  0  0  0  0  0  0  0  0  0  0  0
  1  2  2  0
  2  3  1  0
  3  4  2  0
  4  5  1  0
  5  6  2  0
  6  7  1  0
  7  8  2  0
  8  9  1  0
  9 10  2  0
 10 11  1  0
 11 12  2  0
 12 13  1  0
 13 14  2  0
 14 26  1  0
 26 27  2  0
 27 28  1  0
 28 29  2  0
 29 30  1  0
 30 31  2  0
 31 32  1  0
 32 38  1  0
 38 39  2  0
 39 40  1  0
 40 41  2  0
 41 42  1  0
 42 43  2  0
 32 33  2  0
 33 34  1  0
 34 35  2  0
 35 36  1  0
 36 37  1  0
 14 15  1  0
 15 16  2  0
 16 17  1  0
 17 18  1  6
 17 19  1  0
 19 20  1  0
 20 21  1  0
 21 22  1  6
 21 23  1  0
 21 24  1  0
 24 25  1  0
 10  1  1  0
 16 11  1  0
 25 17  1  0
  8  3  1  0
 18  9  1  0
 36 27  1  0
 35 30  1  0
 43 38  1  0
M  CHG  1  21   1
M  END
>  <minimizedAffinity>  (599) 
-16.77658

$$$$
Mol: 190_42 - SminaDock
     RDKit          3D

 43 50  0  0  0  0  0  0  0  0999 V2000
    8.4510   -0.2297  -16.5440 C   0  0  0  0  0  0  0  0  0  0  0  0
    6.9907   -0.3519  -16.6301 N   0  0  0  0  0  0  0  0  0  0  0  0
    6.4521   -0.8409  -17.7290 C   0  0  0  0  0  0  0  0  0  0  0  0
    7.1315   -1.2697  -18.8603 O   0  0  0  0  0  0  0  0  0  0  0  0
    4.9843   -0.8445  -17.5183 C   0  0  0  0  0  0  0  0  0  0  0  0
    4.8578    0.2245  -16.6439 O   0  0  0  0  0  0  0  0  0  0  0  0
    5.9374   -0.0671  -15.7668 C   0  0  1  0  0  0  0  0  0  0  0  0
    5.4389   -1.2682  -14.9983 C   0  0  0  0  0  0  0  0  0  0  0  0
    6.0838   -2.3319  -14.9712 O   0  0  0  0  0  0  0  0  0  0  0  0
    4.2355   -1.0777  -14.3486 O   0  0  0  0  0  0  0  0  0  0  0  0
    3.7415    0.1967  -13.9891 C   0  0  0  0  0  0  0  0  0  0  0  0
    4.9275    1.1306  -13.9456 C   0  0  0  0  0  0  0  0  0  0  0  0
    4.9168    2.1546  -12.9933 C   0  0  0  0  0  0  0  0  0  0  0  0
    5.9749    3.0323  -12.9370 C   0  0  0  0  0  0  0  0  0  0  0  0
    7.0452    2.9113  -13.8106 C   0  0  0  0  0  0  0  0  0  0  0  0
    7.0556    1.9004  -14.7503 C   0  0  0  0  0  0  0  0  0  0  0  0
    6.0018    1.0236  -14.8081 C   0  0  0  0  0  0  0  0  0  0  0  0
    8.0163    3.9788  -13.5228 C   0  0  0  0  0  0  0  0  0  0  0  0
    9.2345    4.3005  -14.0981 C   0  0  0  0  0  0  0  0  0  0  0  0
    9.9600    5.3680  -13.6380 C   0  0  0  0  0  0  0  0  0  0  0  0
    9.4874    6.1621  -12.5734 C   0  0  0  0  0  0  0  0  0  0  0  0
    8.2845    5.8217  -12.0267 C   0  0  0  0  0  0  0  0  0  0  0  0
    7.5413    4.7407  -12.4859 C   0  0  0  0  0  0  0  0  0  0  0  0
    6.2526    4.1911  -12.0656 C   0  0  0  0  0  0  0  0  0  0  0  0
    8.0844   -0.9436  -19.0642 H   0  0  0  0  0  0  0  0  0  0  0  0
   10.2791    7.2526  -12.1709 N   0  0  0  0  0  0  0  0  0  0  0  0
   10.5493    7.9957  -12.9134 H   0  0  0  0  0  0  0  0  0  0  0  0
   10.7502    7.4641  -10.8729 C   0  0  0  0  0  0  0  0  0  0  0  0
   11.9208    8.0265  -10.5670 N   0  0  0  0  0  0  0  0  0  0  0  0
   12.3542    8.2135   -9.3161 C   0  0  0  0  0  0  0  0  0  0  0  0
   11.5219    7.7909   -8.2932 C   0  0  0  0  0  0  0  0  0  0  0  0
   11.9743    7.9838   -7.0149 C   0  0  0  0  0  0  0  0  0  0  0  0
   11.1615    7.5678   -5.9848 C   0  0  0  0  0  0  0  0  0  0  0  0
    9.9353    6.9776   -6.2222 C   0  0  0  0  0  0  0  0  0  0  0  0
    9.5258    6.8057   -7.5168 C   0  0  0  0  0  0  0  0  0  0  0  0
   10.3259    7.2162   -8.5895 C   0  0  0  0  0  0  0  0  0  0  0  0
    9.9207    7.0431   -9.8547 N   0  0  0  0  0  0  0  0  0  0  0  0
   11.5928    7.7435   -4.6194 C   0  0  0  0  0  0  0  0  0  0  0  0
   11.9100    9.0181   -4.1498 C   0  0  0  0  0  0  0  0  0  0  0  0
   12.3221    9.2236   -2.8644 C   0  0  0  0  0  0  0  0  0  0  0  0
   12.4232    8.1243   -2.0139 C   0  0  0  0  0  0  0  0  0  0  0  0
   12.1156    6.8501   -2.4515 C   0  0  0  0  0  0  0  0  0  0  0  0
   11.7047    6.6902   -3.7536 C   0  0  0  0  0  0  0  0  0  0  0  0
  1  2  1  0
  2  3  2  0
  3  4  1  0
  3  5  1  0
  5  6  1  0
  7  6  1  6
  7  8  1  0
  8  9  2  0
  8 10  1  0
 10 11  1  0
 11 12  1  0
 12 13  2  0
 13 14  1  0
 14 15  2  0
 15 16  1  0
 16 17  2  0
 15 18  1  0
 18 19  2  0
 19 20  1  0
 20 21  2  0
 21 26  1  0
 26 28  1  0
 28 29  2  0
 29 30  1  0
 30 31  2  0
 31 32  1  0
 32 33  2  0
 33 38  1  0
 38 39  2  0
 39 40  1  0
 40 41  2  0
 41 42  1  0
 42 43  2  0
 33 34  1  0
 34 35  2  0
 35 36  1  0
 36 37  2  0
 21 22  1  0
 22 23  2  0
 23 24  1  0
  7  2  1  0
 17 12  1  0
 23 18  1  0
 17  7  1  0
 37 28  1  0
 24 14  1  0
 36 31  1  0
 43 38  1  0
  4 25  1  0
 26 27  1  0
M  CHG  1   2   1
M  END
>  <minimizedAffinity>  (600) 
-16.80468

$$$$
Mol: 191_13 - SminaDock
     RDKit          3D

 38 44  0  0  0  0  0  0  0  0999 V2000
    8.5999    5.6520  -12.3130 C   0  0  0  0  0  0  0  0  0  0  0  0
    7.2789    5.5120  -12.0267 C   0  0  0  0  0  0  0  0  0  0  0  0
    6.6332    4.4019  -12.5178 C   0  0  0  0  0  0  0  0  0  0  0  0
    7.3116    3.4520  -13.2839 C   0  0  0  0  0  0  0  0  0  0  0  0
    8.6220    3.6154  -13.5541 C   0  0  0  0  0  0  0  0  0  0  0  0
    9.2910    4.7411  -13.0594 C   0  0  0  0  0  0  0  0  0  0  0  0
    9.4172    2.7049  -14.3635 C   0  0  0  0  0  0  0  0  0  0  0  0
    8.7421    1.4672  -14.7616 C   0  0  0  0  0  0  0  0  0  0  0  0
    7.3141    1.3656  -14.4794 C   0  0  0  0  0  0  0  0  0  0  0  0
    6.6058    2.2807  -13.7614 C   0  0  0  0  0  0  0  0  0  0  0  0
    5.3235    1.9352  -13.6337 N   0  0  0  0  0  0  0  0  0  0  0  0
    4.6053    2.4784  -13.1300 H   0  0  0  0  0  0  0  0  0  0  0  0
    5.1859    0.7652  -14.2845 C   0  0  0  0  0  0  0  0  0  0  0  0
    4.0683   -0.0589  -14.4809 C   0  0  0  0  0  0  0  0  0  0  0  0
    4.2657   -1.2091  -15.2068 C   0  0  0  0  0  0  0  0  0  0  0  0
    5.4938   -1.5437  -15.7189 C   0  0  0  0  0  0  0  0  0  0  0  0
    5.5922   -2.6048  -16.3671 O   0  0  0  0  0  0  0  0  0  0  0  0
    6.5594   -0.7554  -15.5302 N   0  0  0  0  0  0  0  0  0  0  0  0
    7.5027   -1.0063  -15.9199 H   0  0  0  0  0  0  0  0  0  0  0  0
    6.3856    0.3749  -14.8220 C   0  0  0  0  0  0  0  0  0  0  0  0
   11.2895    8.0059   -5.9683 C   0  0  0  0  0  0  0  0  0  0  0  0
   11.5258    9.0729   -6.8114 C   0  0  0  0  0  0  0  0  0  0  0  0
   11.1576    9.0337   -8.1406 C   0  0  0  0  0  0  0  0  0  0  0  0
   10.5377    7.9306   -8.6900 C   0  0  0  0  0  0  0  0  0  0  0  0
   10.2960    6.8549   -7.8534 C   0  0  0  0  0  0  0  0  0  0  0  0
   10.6680    6.9036   -6.5248 C   0  0  0  0  0  0  0  0  0  0  0  0
    9.6754    5.7600   -8.4191 C   0  0  0  0  0  0  0  0  0  0  0  0
    9.3077    5.7293   -9.7598 C   0  0  0  0  0  0  0  0  0  0  0  0
    9.5684    6.8206  -10.5501 C   0  0  0  0  0  0  0  0  0  0  0  0
    9.2435    6.8227  -11.7833 N   0  0  0  0  0  0  0  0  0  0  0  0
   10.1726    7.8790   -9.9871 N   0  0  0  0  0  0  0  0  0  0  0  0
   10.3723    8.7144  -10.5918 H   0  0  0  0  0  0  0  0  0  0  0  0
   12.3994    7.9937   -1.8772 C   0  0  0  0  0  0  0  0  0  0  0  0
   12.3759    9.2129   -2.5600 C   0  0  0  0  0  0  0  0  0  0  0  0
   12.0136    9.1891   -3.8817 C   0  0  0  0  0  0  0  0  0  0  0  0
   11.6758    8.0414   -4.5628 C   0  0  0  0  0  0  0  0  0  0  0  0
   11.7094    6.8558   -3.8593 C   0  0  0  0  0  0  0  0  0  0  0  0
   12.0672    6.8246   -2.5277 C   0  0  0  0  0  0  0  0  0  0  0  0
 33 34  2  0
 34 35  1  0
 35 36  2  0
 36 21  1  0
 21 22  2  0
 22 23  1  0
 23 24  2  0
 24 25  1  0
 25 26  2  0
 25 27  1  0
 27 28  2  0
 28 29  1  0
 29 30  2  0
 30  1  1  0
  1  2  2  0
  2  3  1  0
  3  4  2  0
  4  5  1  0
  5  6  2  0
  5  7  1  0
  7  8  1  0
  8  9  1  0
  9 10  2  0
 10 11  1  0
 11 12  1  0
 11 13  1  0
 13 14  1  0
 14 15  2  0
 15 16  1  0
 16 17  2  0
 16 18  1  0
 18 19  1  0
 18 20  1  0
 29 31  1  0
 31 32  1  0
 36 37  1  0
 37 38  2  0
 38 33  1  0
 26 21  1  0
  6  1  1  0
 20  9  1  0
 31 24  1  0
 10  4  1  0
 20 13  2  0
M  END
>  <minimizedAffinity>  (601) 
-16.78806

$$$$
Mol: 135_16 - SminaDock
     RDKit          3D

 39 45  0  0  0  0  0  0  0  0999 V2000
    1.9278   -2.0963  -14.6893 H   0  0  0  0  0  0  0  0  0  0  0  0
    2.3288   -1.2389  -14.2866 N   0  0  0  0  0  0  0  0  0  0  0  0
    3.5201   -0.8417  -14.5398 C   0  0  0  0  0  0  0  0  0  0  0  0
    3.9821    0.2957  -13.9751 N   0  0  0  0  0  0  0  0  0  0  0  0
    5.2256    0.7492  -14.2135 C   0  0  0  0  0  0  0  0  0  0  0  0
    5.7179    1.9168  -13.6402 C   0  0  0  0  0  0  0  0  0  0  0  0
    7.0131    2.2867  -13.9575 C   0  0  0  0  0  0  0  0  0  0  0  0
    7.8086    1.5684  -14.7949 C   0  0  0  0  0  0  0  0  0  0  0  0
    7.2993    0.3878  -15.3668 C   0  0  0  0  0  0  0  0  0  0  0  0
    6.0267    0.0124  -15.0608 C   0  0  0  0  0  0  0  0  0  0  0  0
    5.5155   -1.1612  -15.6283 C   0  0  0  0  0  0  0  0  0  0  0  0
    4.2761   -1.5834  -15.3706 N   0  0  0  0  0  0  0  0  0  0  0  0
    3.8939   -2.4612  -15.7951 H   0  0  0  0  0  0  0  0  0  0  0  0
    9.1590    2.0067  -15.2068 C   0  0  0  0  0  0  0  0  0  0  0  0
    9.8343    2.9170  -14.2985 C   0  0  0  0  0  0  0  0  0  0  0  0
    8.9128    3.7724  -13.5309 C   0  0  0  0  0  0  0  0  0  0  0  0
    9.4713    4.9332  -12.9691 C   0  0  0  0  0  0  0  0  0  0  0  0
    8.7001    5.7419  -12.1854 C   0  0  0  0  0  0  0  0  0  0  0  0
    7.3859    5.4204  -11.9489 C   0  0  0  0  0  0  0  0  0  0  0  0
    6.8060    4.2743  -12.4956 C   0  0  0  0  0  0  0  0  0  0  0  0
    7.5852    3.4752  -13.2773 C   0  0  0  0  0  0  0  0  0  0  0  0
    9.3075    6.9100  -11.6351 N   0  0  0  0  0  0  0  0  0  0  0  0
    9.6637    6.9327  -10.3878 C   0  0  0  0  0  0  0  0  0  0  0  0
    9.4812    5.8759   -9.5684 N   0  0  0  0  0  0  0  0  0  0  0  0
    9.8296    5.8667   -8.3045 N   0  0  0  0  0  0  0  0  0  0  0  0
   10.4096    6.9584   -7.7460 C   0  0  0  0  0  0  0  0  0  0  0  0
   10.7950    7.0030   -6.4254 C   0  0  0  0  0  0  0  0  0  0  0  0
   11.3867    8.1308   -5.8758 C   0  0  0  0  0  0  0  0  0  0  0  0
   11.5965    9.2382   -6.6682 C   0  0  0  0  0  0  0  0  0  0  0  0
   11.2079    9.1905   -7.9961 C   0  0  0  0  0  0  0  0  0  0  0  0
   10.6140    8.0610   -8.5508 C   0  0  0  0  0  0  0  0  0  0  0  0
   10.2381    8.0180   -9.8405 N   0  0  0  0  0  0  0  0  0  0  0  0
   10.3981    8.8673  -10.4510 H   0  0  0  0  0  0  0  0  0  0  0  0
   11.7613    8.0831   -4.4634 C   0  0  0  0  0  0  0  0  0  0  0  0
   11.7532    6.8946   -3.7631 C   0  0  0  0  0  0  0  0  0  0  0  0
   12.1104    6.8614   -2.4249 C   0  0  0  0  0  0  0  0  0  0  0  0
   12.4853    7.9996   -1.7415 C   0  0  0  0  0  0  0  0  0  0  0  0
   12.4928    9.1882   -2.4442 C   0  0  0  0  0  0  0  0  0  0  0  0
   12.1389    9.2321   -3.7764 C   0  0  0  0  0  0  0  0  0  0  0  0
  1  2  1  0
  2  3  2  0
  3  4  1  0
  4  5  2  0
  5  6  1  0
  6  7  2  0
  7  8  1  0
  8  9  2  0
  9 10  1  0
 10 11  2  0
 11 12  1  0
 12 13  1  0
  8 14  1  0
 14 15  1  0
 15 16  1  0
 16 17  2  0
 17 18  1  0
 18 22  1  0
 22 23  2  0
 23 24  1  0
 24 25  2  0
 25 26  1  0
 26 27  2  0
 27 28  1  0
 28 34  1  0
 34 35  2  0
 35 36  1  0
 36 37  2  0
 37 38  1  0
 38 39  2  0
 28 29  2  0
 29 30  1  0
 30 31  2  0
 31 32  1  0
 32 33  1  0
 18 19  2  0
 19 20  1  0
 20 21  2  0
 12  3  1  0
 21 16  1  0
 10  5  1  0
 32 23  1  0
 21  7  1  0
 31 26  1  0
 39 34  1  0
M  END
>  <minimizedAffinity>  (602) 
-16.83311

$$$$
Mol: 190_21 - SminaDock
     RDKit          3D

 44 51  0  0  0  0  0  0  0  0999 V2000
    6.6587   -2.0759  -19.0441 H   0  0  0  0  0  0  0  0  0  0  0  0
    6.3936   -2.3485  -18.1093 O   0  0  0  0  0  0  0  0  0  0  0  0
    6.0154   -1.4407  -17.1193 C   0  0  0  0  0  0  0  0  0  0  0  0
    4.7187   -1.5626  -16.6336 C   0  0  0  0  0  0  0  0  0  0  0  0
    4.2960   -0.6968  -15.6612 C   0  0  0  0  0  0  0  0  0  0  0  0
    5.1774    0.2722  -15.1945 C   0  0  0  0  0  0  0  0  0  0  0  0
    5.0582    1.2404  -14.2822 N   0  0  0  0  0  0  0  0  0  0  0  0
    6.2218    1.9328  -14.2005 C   0  0  0  0  0  0  0  0  0  0  0  0
    7.1618    1.4358  -15.0673 C   0  0  0  0  0  0  0  0  0  0  0  0
    6.5419    0.3765  -15.7260 C   0  0  0  0  0  0  0  0  0  0  0  0
    6.8696   -0.5053  -16.6702 N   0  0  0  0  0  0  0  0  0  0  0  0
    7.8159   -0.4805  -17.0997 H   0  0  0  0  0  0  0  0  0  0  0  0
    8.4486    2.1715  -14.9753 C   0  0  1  0  0  0  0  0  0  0  0  0
    8.1336    3.2601  -13.9700 C   0  0  0  0  0  0  0  0  0  0  0  0
    8.9094    4.2957  -13.4832 C   0  0  0  0  0  0  0  0  0  0  0  0
    8.3995    5.1745  -12.5242 C   0  0  0  0  0  0  0  0  0  0  0  0
    7.1204    4.9628  -12.0999 C   0  0  0  0  0  0  0  0  0  0  0  0
    6.3380    3.9205  -12.5896 C   0  0  0  0  0  0  0  0  0  0  0  0
    6.8684    3.0593  -13.5444 C   0  0  0  0  0  0  0  0  0  0  0  0
    9.4953    1.3395  -14.3187 C   0  0  0  0  0  0  0  0  0  0  0  0
   10.1808    0.4383  -15.2702 C   0  0  0  0  0  0  0  0  0  0  0  0
   10.6881    1.1006  -16.4971 C   0  0  1  0  0  0  0  0  0  0  0  0
   10.3968    0.3062  -17.6133 O   0  0  0  0  0  0  0  0  0  0  0  0
   10.3773   -0.6495  -17.2895 H   0  0  0  0  0  0  0  0  0  0  0  0
   10.2564    2.5280  -16.6765 C   0  0  0  0  0  0  0  0  0  0  0  0
    8.8339    2.7707  -16.2860 C   0  0  0  0  0  0  0  0  0  0  0  0
    9.1464    6.2484  -11.9929 N   0  0  0  0  0  0  0  0  0  0  0  0
    9.4479    6.3664  -10.7477 C   0  0  0  0  0  0  0  0  0  0  0  0
   10.1585    7.4173  -10.3366 N   0  0  0  0  0  0  0  0  0  0  0  0
   10.5193    7.6238   -9.0618 C   0  0  0  0  0  0  0  0  0  0  0  0
   11.2503    8.7009   -8.6271 C   0  0  0  0  0  0  0  0  0  0  0  0
   11.6089    8.8885   -7.3032 C   0  0  0  0  0  0  0  0  0  0  0  0
   11.2228    7.9631   -6.3703 C   0  0  0  0  0  0  0  0  0  0  0  0
   10.4808    6.8694   -6.8104 C   0  0  0  0  0  0  0  0  0  0  0  0
   10.1231    6.6786   -8.1180 C   0  0  0  0  0  0  0  0  0  0  0  0
    9.3888    5.5975   -8.5584 C   0  0  0  0  0  0  0  0  0  0  0  0
    9.0537    5.4403   -9.8555 N   0  0  0  0  0  0  0  0  0  0  0  0
    8.4966    4.5973  -10.1147 H   0  0  0  0  0  0  0  0  0  0  0  0
   11.5438    8.0530   -4.9315 C   0  0  0  0  0  0  0  0  0  0  0  0
   11.7391    9.2778   -4.3873 N   0  0  0  0  0  0  0  0  0  0  0  0
   12.0279    9.3584   -3.0919 C   0  0  0  0  0  0  0  0  0  0  0  0
   12.1372    8.2510   -2.2791 C   0  0  0  0  0  0  0  0  0  0  0  0
   11.9429    6.9998   -2.8121 C   0  0  0  0  0  0  0  0  0  0  0  0
   11.6389    6.9117   -4.1742 C   0  0  0  0  0  0  0  0  0  0  0  0
  1  2  1  0
  2  3  1  0
  3  4  2  0
  4  5  1  0
  5  6  2  0
  6  7  1  0
  7  8  2  0
  8  9  1  0
  9 10  2  0
 10 11  1  0
 11 12  1  0
  9 13  1  0
 13 14  1  0
 14 15  2  0
 15 16  1  0
 16 27  1  0
 27 28  2  0
 28 29  1  0
 29 30  2  0
 30 31  1  0
 31 32  2  0
 32 33  1  0
 33 39  1  0
 39 40  2  0
 40 41  1  0
 41 42  2  0
 42 43  1  0
 43 44  2  0
 33 34  2  0
 34 35  1  0
 35 36  2  0
 36 37  1  0
 37 38  1  0
 16 17  2  0
 17 18  1  0
 18 19  2  0
 13 20  1  1
 20 21  1  0
 21 22  1  0
 22 23  1  6
 23 24  1  0
 22 25  1  0
 25 26  1  0
 11  3  1  0
 26 13  1  0
 10  6  1  0
 19 14  1  0
 19  8  1  0
 37 28  1  0
 35 30  1  0
 44 39  1  0
M  END
>  <minimizedAffinity>  (603) 
-16.77562

$$$$
Mol: 135_43 - SminaDock
     RDKit          3D

 43 50  0  0  0  0  0  0  0  0999 V2000
    8.5646    5.8005  -12.3086 C   0  0  0  0  0  0  0  0  0  0  0  0
    7.3286    5.4057  -11.8783 C   0  0  0  0  0  0  0  0  0  0  0  0
    6.6901    4.3264  -12.4296 C   0  0  0  0  0  0  0  0  0  0  0  0
    7.3114    3.6149  -13.4501 C   0  0  0  0  0  0  0  0  0  0  0  0
    8.5568    3.9981  -13.8969 C   0  0  0  0  0  0  0  0  0  0  0  0
    9.1605    5.0815  -13.3198 C   0  0  0  0  0  0  0  0  0  0  0  0
    9.2725    3.2970  -14.9740 C   0  0  2  0  0  0  0  0  0  0  0  0
    8.5886    2.1199  -15.5466 C   0  0  0  0  0  0  0  0  0  0  0  0
    7.2756    1.7691  -15.0405 C   0  0  0  0  0  0  0  0  0  0  0  0
    6.6193    0.6656  -15.5989 C   0  0  0  0  0  0  0  0  0  0  0  0
    5.3758    0.2794  -15.1618 C   0  0  0  0  0  0  0  0  0  0  0  0
    4.7318    0.9683  -14.1560 C   0  0  0  0  0  0  0  0  0  0  0  0
    5.3724    2.0578  -13.6003 C   0  0  0  0  0  0  0  0  0  0  0  0
    6.6424    2.4580  -14.0417 C   0  0  0  0  0  0  0  0  0  0  0  0
    3.5266    0.3196  -13.9731 O   0  0  0  0  0  0  0  0  0  0  0  0
    3.4737   -0.8686  -14.7481 C   0  0  0  0  0  0  0  0  0  0  0  0
    4.5881   -0.7797  -15.5992 O   0  0  0  0  0  0  0  0  0  0  0  0
   10.6238    2.8874  -14.4119 C   0  0  0  0  0  0  0  0  0  0  0  0
   11.5813    2.5623  -15.4455 N   0  0  0  0  0  0  0  0  0  0  0  0
   12.4103    2.0005  -15.1851 H   0  0  0  0  0  0  0  0  0  0  0  0
   11.4399    2.9749  -16.7955 C   0  0  0  0  0  0  0  0  0  0  0  0
   12.2286    2.5843  -17.7187 O   0  0  0  0  0  0  0  0  0  0  0  0
   10.3680    3.8580  -17.1004 N   0  0  0  0  0  0  0  0  0  0  0  0
   10.2497    4.1503  -18.1117 H   0  0  0  0  0  0  0  0  0  0  0  0
    9.4782    4.3394  -16.0893 C   0  0  0  0  0  0  0  0  0  0  0  0
   11.3136    8.0790   -6.0013 C   0  0  0  0  0  0  0  0  0  0  0  0
   11.5707    9.1631   -6.8048 C   0  0  0  0  0  0  0  0  0  0  0  0
   11.2042    9.1764   -8.1522 C   0  0  0  0  0  0  0  0  0  0  0  0
   10.5671    8.0639   -8.6787 C   0  0  0  0  0  0  0  0  0  0  0  0
   10.1929    8.0378   -9.9915 N   0  0  0  0  0  0  0  0  0  0  0  0
    9.5760    6.9536  -10.4898 C   0  0  0  0  0  0  0  0  0  0  0  0
    9.2209    6.9234  -11.7292 N   0  0  0  0  0  0  0  0  0  0  0  0
    9.3259    5.8938   -9.6996 N   0  0  0  0  0  0  0  0  0  0  0  0
    8.8465    5.0768  -10.1282 H   0  0  0  0  0  0  0  0  0  0  0  0
    9.6671    5.8566   -8.4052 C   0  0  0  0  0  0  0  0  0  0  0  0
   10.3111    6.9793   -7.8702 C   0  0  0  0  0  0  0  0  0  0  0  0
   10.6809    6.9854   -6.5414 C   0  0  0  0  0  0  0  0  0  0  0  0
   12.4185    7.9719   -1.9008 C   0  0  0  0  0  0  0  0  0  0  0  0
   12.4304    9.1551   -2.5918 C   0  0  0  0  0  0  0  0  0  0  0  0
   12.0750    9.2159   -3.9269 C   0  0  0  0  0  0  0  0  0  0  0  0
   11.6946    8.0658   -4.6013 C   0  0  0  0  0  0  0  0  0  0  0  0
   11.6889    6.8743   -3.8822 C   0  0  0  0  0  0  0  0  0  0  0  0
   12.0417    6.8073   -2.5526 C   0  0  0  0  0  0  0  0  0  0  0  0
 38 39  2  0
 39 40  1  0
 40 41  2  0
 41 26  1  0
 26 27  1  0
 27 28  2  0
 28 29  1  0
 29 30  2  0
 30 31  1  0
 31 32  2  0
 32  1  1  0
  1  2  2  0
  2  3  1  0
  3  4  2  0
  4  5  1  0
  5  6  2  0
  5  7  1  0
  7  8  1  6
  8  9  1  0
  9 10  2  0
 10 11  1  0
 11 12  2  0
 12 13  1  0
 13 14  2  0
 12 15  1  0
 15 16  1  0
 16 17  1  0
  7 18  1  0
 18 19  1  0
 19 20  1  0
 19 21  1  0
 21 22  2  0
 21 23  1  0
 23 24  1  0
 23 25  1  0
 31 33  1  0
 33 34  1  0
 33 35  1  0
 35 36  2  0
 36 37  1  0
 41 42  1  0
 42 43  2  0
 43 38  1  0
 37 26  2  0
 36 29  1  0
  6  1  1  0
 25  7  1  0
 14  4  1  0
 14  9  1  0
 17 11  1  0
M  END
>  <minimizedAffinity>  (604) 
-16.84761

$$$$
Mol: 135_46 - SminaDock
     RDKit          3D

 40 46  0  0  0  0  0  0  0  0999 V2000
    1.6542   -1.0415  -13.5668 H   0  0  0  0  0  0  0  0  0  0  0  0
    2.3396   -0.9731  -14.3260 O   0  0  0  0  0  0  0  0  0  0  0  0
    3.4334   -0.1256  -14.2574 C   0  0  0  0  0  0  0  0  0  0  0  0
    4.4802   -0.3492  -15.0227 C   0  0  0  0  0  0  0  0  0  0  0  0
    5.6714    0.4931  -15.0126 C   0  0  0  0  0  0  0  0  0  0  0  0
    6.0906    1.6218  -14.3403 C   0  0  0  0  0  0  0  0  0  0  0  0
    7.3427    2.1661  -14.6041 C   0  0  0  0  0  0  0  0  0  0  0  0
    8.1907    1.6021  -15.5323 C   0  0  0  0  0  0  0  0  0  0  0  0
    7.7601    0.4553  -16.2128 C   0  0  0  0  0  0  0  0  0  0  0  0
    6.5249   -0.0720  -15.9448 C   0  0  0  0  0  0  0  0  0  0  0  0
    5.8985   -1.2556  -16.5454 C   0  0  0  0  0  0  0  0  0  0  0  0
    6.3959   -2.0015  -17.4236 O   0  0  0  0  0  0  0  0  0  0  0  0
    4.6260   -1.4037  -15.9521 N   0  0  0  0  0  0  0  0  0  0  0  0
    3.8953   -2.1319  -16.1283 H   0  0  0  0  0  0  0  0  0  0  0  0
    9.5166    2.1265  -15.8512 C   0  0  0  0  0  0  0  0  0  0  0  0
    9.9627    3.3353  -15.1477 C   0  0  0  0  0  0  0  0  0  0  0  0
    9.0547    3.9216  -14.1595 C   0  0  0  0  0  0  0  0  0  0  0  0
    9.4830    5.0707  -13.4752 C   0  0  0  0  0  0  0  0  0  0  0  0
    8.6917    5.6831  -12.5356 C   0  0  0  0  0  0  0  0  0  0  0  0
    7.4572    5.1339  -12.2818 C   0  0  0  0  0  0  0  0  0  0  0  0
    7.0318    3.9842  -12.9681 C   0  0  0  0  0  0  0  0  0  0  0  0
    7.8204    3.3589  -13.9167 C   0  0  0  0  0  0  0  0  0  0  0  0
    9.1261    6.8582  -11.8332 N   0  0  0  0  0  0  0  0  0  0  0  0
    9.4960    6.8158  -10.5993 C   0  0  0  0  0  0  0  0  0  0  0  0
    9.4816    5.6526   -9.9367 N   0  0  0  0  0  0  0  0  0  0  0  0
    9.8760    5.6505   -8.6514 C   0  0  0  0  0  0  0  0  0  0  0  0
   10.2912    6.8058   -8.0041 C   0  0  0  0  0  0  0  0  0  0  0  0
   10.6950    6.8041   -6.6895 C   0  0  0  0  0  0  0  0  0  0  0  0
   11.1027    7.9815   -6.0816 C   0  0  0  0  0  0  0  0  0  0  0  0
   11.1134    9.1724   -6.7735 C   0  0  0  0  0  0  0  0  0  0  0  0
   10.7035    9.1450   -8.0897 C   0  0  0  0  0  0  0  0  0  0  0  0
   10.2891    7.9784   -8.7259 C   0  0  0  0  0  0  0  0  0  0  0  0
    9.8941    7.9480   -9.9932 N   0  0  0  0  0  0  0  0  0  0  0  0
    9.9044    8.8619  -10.5176 H   0  0  0  0  0  0  0  0  0  0  0  0
   11.5340    8.0084   -4.6957 C   0  0  0  0  0  0  0  0  0  0  0  0
   11.7374    6.8324   -4.0153 C   0  0  0  0  0  0  0  0  0  0  0  0
   12.1483    6.8170   -2.6931 C   0  0  0  0  0  0  0  0  0  0  0  0
   12.3588    8.0359   -2.0431 C   0  0  0  0  0  0  0  0  0  0  0  0
   12.1614    9.2217   -2.7047 C   0  0  0  0  0  0  0  0  0  0  0  0
   11.7560    9.1981   -4.0086 C   0  0  0  0  0  0  0  0  0  0  0  0
  1  2  1  0
  2  3  1  0
  3  4  2  0
  4  5  1  0
  5  6  2  0
  6  7  1  0
  7  8  2  0
  8  9  1  0
  9 10  2  0
 10 11  1  0
 11 12  2  0
 11 13  1  0
 13 14  1  0
  8 15  1  0
 15 16  1  0
 16 17  1  0
 17 18  2  0
 18 19  1  0
 19 23  1  0
 23 24  2  0
 24 25  1  0
 25 26  2  0
 26 27  1  0
 27 28  2  0
 28 29  1  0
 29 35  1  0
 35 36  2  0
 36 37  1  0
 37 38  2  0
 38 39  1  0
 39 40  2  0
 29 30  2  0
 30 31  1  0
 31 32  2  0
 32 33  1  0
 33 34  1  0
 19 20  2  0
 20 21  1  0
 21 22  2  0
 13  4  1  0
 22 17  1  0
 10  5  1  0
 33 24  1  0
 22  7  1  0
 32 27  1  0
 40 35  1  0
M  END
>  <minimizedAffinity>  (605) 
-16.78352

$$$$
Mol: 194_62 - SminaDock
     RDKit          3D

 38 44  0  0  0  0  0  0  0  0999 V2000
    3.7538   -2.4678  -17.8291 H   0  0  0  0  0  0  0  0  0  0  0  0
    4.6867   -2.5551  -17.4767 O   0  0  0  0  0  0  0  0  0  0  0  0
    5.3367   -1.4728  -16.8993 C   0  0  0  0  0  0  0  0  0  0  0  0
    4.8510   -0.8198  -15.8410 N   0  0  0  0  0  0  0  0  0  0  0  0
    5.4831    0.2442  -15.2678 C   0  0  0  0  0  0  0  0  0  0  0  0
    4.9168    0.8560  -14.1844 C   0  0  0  0  0  0  0  0  0  0  0  0
    5.5661    1.9519  -13.5922 C   0  0  0  0  0  0  0  0  0  0  0  0
    6.7472    2.3705  -14.1271 C   0  0  0  0  0  0  0  0  0  0  0  0
    7.3470    1.7784  -15.2146 C   0  0  0  0  0  0  0  0  0  0  0  0
    6.6823    0.6901  -15.7835 C   0  0  0  0  0  0  0  0  0  0  0  0
    7.1961    0.0261  -16.8758 C   0  0  0  0  0  0  0  0  0  0  0  0
    6.5239   -1.0633  -17.4421 C   0  0  0  0  0  0  0  0  0  0  0  0
    7.3633    3.5840  -13.5505 C   0  0  0  0  0  0  0  0  0  0  0  0
    8.6013    3.9833  -14.0014 C   0  0  0  0  0  0  0  0  0  0  0  0
    9.2542    5.0743  -13.4269 C   0  0  0  0  0  0  0  0  0  0  0  0
    8.6131    5.7285  -12.3988 C   0  0  0  0  0  0  0  0  0  0  0  0
    7.3849    5.3539  -11.9336 C   0  0  0  0  0  0  0  0  0  0  0  0
    6.7416    4.2597  -12.5198 C   0  0  0  0  0  0  0  0  0  0  0  0
    5.3867    3.9222  -12.0630 C   0  0  0  0  0  0  0  0  0  0  0  0
    4.9845    2.5423  -12.3794 C   0  0  0  0  0  0  0  0  0  0  0  0
    9.3185    6.8438  -11.8352 N   0  0  0  0  0  0  0  0  0  0  0  0
    9.6003    6.7951  -10.5984 C   0  0  0  0  0  0  0  0  0  0  0  0
    9.2925    5.7827   -9.7679 N   0  0  0  0  0  0  0  0  0  0  0  0
    9.6244    5.7998   -8.4644 C   0  0  0  0  0  0  0  0  0  0  0  0
   10.3029    6.8715   -7.9220 C   0  0  0  0  0  0  0  0  0  0  0  0
   10.6562    6.9107   -6.5766 C   0  0  0  0  0  0  0  0  0  0  0  0
   11.3342    7.9837   -6.0376 C   0  0  0  0  0  0  0  0  0  0  0  0
   11.6490    9.0220   -6.8935 C   0  0  0  0  0  0  0  0  0  0  0  0
   11.2982    8.9820   -8.2273 C   0  0  0  0  0  0  0  0  0  0  0  0
   10.6202    7.9126   -8.7736 C   0  0  0  0  0  0  0  0  0  0  0  0
   10.2634    7.8423  -10.0683 N   0  0  0  0  0  0  0  0  0  0  0  0
   10.5267    8.6636  -10.6880 H   0  0  0  0  0  0  0  0  0  0  0  0
   11.7120    8.0401   -4.6265 C   0  0  0  0  0  0  0  0  0  0  0  0
   11.6900    6.8831   -3.8756 C   0  0  0  0  0  0  0  0  0  0  0  0
   12.0355    6.8673   -2.5356 C   0  0  0  0  0  0  0  0  0  0  0  0
   12.4173    8.0308   -1.9080 C   0  0  0  0  0  0  0  0  0  0  0  0
   12.4401    9.1938   -2.6604 C   0  0  0  0  0  0  0  0  0  0  0  0
   12.0957    9.1929   -3.9837 C   0  0  0  0  0  0  0  0  0  0  0  0
  1  2  1  0
  2  3  1  0
  3  4  2  0
  4  5  1  0
  5  6  2  0
  6  7  1  0
  7  8  2  0
  8  9  1  0
  9 10  2  0
 10 11  1  0
 11 12  2  0
  8 13  1  0
 13 14  2  0
 14 15  1  0
 15 16  2  0
 16 21  1  0
 21 22  2  0
 22 23  1  0
 23 24  2  0
 24 25  1  0
 25 26  2  0
 26 27  1  0
 27 33  1  0
 33 34  2  0
 34 35  1  0
 35 36  2  0
 36 37  1  0
 37 38  2  0
 27 28  2  0
 28 29  1  0
 29 30  2  0
 30 31  1  0
 31 32  1  0
 16 17  1  0
 17 18  2  0
 18 19  1  0
 19 20  1  0
 12  3  1  0
 18 13  1  0
 10  5  1  0
 31 22  1  0
 20  7  1  0
 30 25  1  0
 38 33  1  0
M  END
>  <minimizedAffinity>  (606) 
-16.83288

$$$$
Mol: 150_38 - SminaDock
     RDKit          3D

 39 45  0  0  0  0  0  0  0  0999 V2000
    5.8705   -0.5507  -19.4779 H   0  0  0  0  0  0  0  0  0  0  0  0
    5.9812   -1.1741  -18.7170 O   0  0  0  0  0  0  0  0  0  0  0  0
    6.1614   -0.8795  -17.4051 C   0  0  0  0  0  0  0  0  0  0  0  0
    5.0300   -0.9769  -16.6528 C   0  0  0  0  0  0  0  0  0  0  0  0
    4.9522   -0.9469  -15.2109 C   0  0  0  0  0  0  0  0  0  0  0  0
    3.9348   -0.2394  -14.8104 C   0  0  0  0  0  0  0  0  0  0  0  0
    3.9032    0.6774  -13.5742 C   0  0  0  0  0  0  0  0  0  0  0  0
    5.1889    1.4738  -13.4921 C   0  0  0  0  0  0  0  0  0  0  0  0
    6.4599    1.0936  -13.9803 C   0  0  0  0  0  0  0  0  0  0  0  0
    7.5626    1.9179  -13.9690 C   0  0  0  0  0  0  0  0  0  0  0  0
    7.4512    3.1834  -13.4563 C   0  0  0  0  0  0  0  0  0  0  0  0
    8.5159    4.0597  -13.4177 C   0  0  0  0  0  0  0  0  0  0  0  0
    8.4249    5.3347  -12.9104 C   0  0  0  0  0  0  0  0  0  0  0  0
    7.1781    5.7317  -12.4173 C   0  0  0  0  0  0  0  0  0  0  0  0
    6.1142    4.8620  -12.4537 C   0  0  0  0  0  0  0  0  0  0  0  0
    6.2089    3.5894  -12.9614 C   0  0  0  0  0  0  0  0  0  0  0  0
    5.1009    2.7310  -12.9872 C   0  0  0  0  0  0  0  0  0  0  0  0
    6.8592   -0.1383  -14.6060 C   0  0  0  0  0  0  0  0  0  0  0  0
    7.7320    0.0177  -15.5127 N   0  0  0  0  0  0  0  0  0  0  0  0
    7.4535   -0.4979  -16.8906 N   0  0  0  0  0  0  0  0  0  0  0  0
    6.0869   -1.4576  -14.3150 C   0  0  0  0  0  0  0  0  0  0  0  0
    9.5188    6.2341  -12.8721 N   0  0  0  0  0  0  0  0  0  0  0  0
    9.9831    6.6028  -11.7361 C   0  0  0  0  0  0  0  0  0  0  0  0
    9.4288    6.1338  -10.6075 N   0  0  0  0  0  0  0  0  0  0  0  0
    9.8727    6.4837   -9.3788 C   0  0  0  0  0  0  0  0  0  0  0  0
    9.3063    6.0042   -8.2134 C   0  0  0  0  0  0  0  0  0  0  0  0
    9.7926    6.3883   -6.9710 C   0  0  0  0  0  0  0  0  0  0  0  0
   10.8567    7.2608   -6.8513 C   0  0  0  0  0  0  0  0  0  0  0  0
   11.4164    7.7348   -8.0205 C   0  0  0  0  0  0  0  0  0  0  0  0
   10.9358    7.3555   -9.2700 C   0  0  0  0  0  0  0  0  0  0  0  0
   11.4853    7.8211  -10.4398 C   0  0  0  0  0  0  0  0  0  0  0  0
   11.0375    7.4678  -11.6580 N   0  0  0  0  0  0  0  0  0  0  0  0
   11.4526    7.8198  -12.5530 H   0  0  0  0  0  0  0  0  0  0  0  0
   11.3939    7.6863   -5.5605 C   0  0  0  0  0  0  0  0  0  0  0  0
   11.3479    6.8562   -4.4580 C   0  0  0  0  0  0  0  0  0  0  0  0
   11.8476    7.2298   -3.2271 C   0  0  0  0  0  0  0  0  0  0  0  0
   12.4218    8.4710   -3.0529 C   0  0  0  0  0  0  0  0  0  0  0  0
   12.4766    9.3128   -4.1418 C   0  0  0  0  0  0  0  0  0  0  0  0
   11.9683    8.9258   -5.3835 C   0  0  0  0  0  0  0  0  0  0  0  0
  1  2  1  0
  2  3  1  0
  3  4  2  0
  4  5  1  0
  5  6  2  0
  6  7  1  0
  7  8  1  0
  8  9  1  0
  9 10  2  0
 10 11  1  0
 11 12  2  0
 12 13  1  0
 13 22  1  0
 22 23  2  0
 23 24  1  0
 24 25  2  0
 25 26  1  0
 26 27  2  0
 27 28  1  0
 28 34  1  0
 34 35  2  0
 35 36  1  0
 36 37  2  0
 37 38  1  0
 38 39  2  0
 28 29  2  0
 29 30  1  0
 30 31  2  0
 31 32  1  0
 32 33  1  0
 13 14  2  0
 14 15  1  0
 15 16  2  0
 16 17  1  0
  9 18  1  0
 18 19  2  0
 19 20  1  0
 18 21  1  0
 20  3  1  0
 21  5  1  0
 17  8  2  0
 16 11  1  0
 32 23  1  0
 30 25  1  0
 39 34  1  0
M  CHG  1  20  -1
M  END
>  <minimizedAffinity>  (607) 
-16.84161

$$$$
Mol: 190_14 - SminaDock
     RDKit          3D

 48 56  0  0  0  0  0  0  0  0999 V2000
    9.0767   -0.1256  -17.9565 C   0  0  0  0  0  0  0  0  0  0  0  0
    7.9441   -0.8550  -18.0067 N   0  0  0  0  0  0  0  0  0  0  0  0
    6.9055   -0.5811  -17.2113 C   0  0  0  0  0  0  0  0  0  0  0  0
    5.6956   -1.3264  -17.2341 N   0  0  0  0  0  0  0  0  0  0  0  0
    5.4028   -1.9067  -16.4184 H   0  0  0  0  0  0  0  0  0  0  0  0
    5.0707   -1.3110  -18.0673 H   0  0  0  0  0  0  0  0  0  0  0  0
    7.0481    0.4849  -16.3352 C   0  0  0  0  0  0  0  0  0  0  0  0
    5.9801    0.7792  -15.5078 C   0  0  0  0  0  0  0  0  0  0  0  0
    6.1286    1.8329  -14.6477 C   0  0  0  0  0  0  0  0  0  0  0  0
    7.2744    2.5860  -14.5833 C   0  0  0  0  0  0  0  0  0  0  0  0
    8.3264    2.2814  -15.4112 C   0  0  0  0  0  0  0  0  0  0  0  0
    8.1965    1.2193  -16.2888 C   0  0  0  0  0  0  0  0  0  0  0  0
    9.2056    0.9023  -17.1072 N   0  0  0  0  0  0  0  0  0  0  0  0
    9.4544    3.2104  -15.1762 C   0  0  2  0  0  0  0  0  0  0  0  0
    8.9154    4.1098  -14.0972 C   0  0  0  0  0  0  0  0  0  0  0  0
    9.4373    5.1958  -13.4122 C   0  0  0  0  0  0  0  0  0  0  0  0
    8.7373    5.8806  -12.4369 C   0  0  0  0  0  0  0  0  0  0  0  0
    7.4578    5.4815  -12.1143 C   0  0  0  0  0  0  0  0  0  0  0  0
    6.9200    4.4162  -12.7724 C   0  0  0  0  0  0  0  0  0  0  0  0
    7.6314    3.7267  -13.7580 C   0  0  0  0  0  0  0  0  0  0  0  0
    9.8662    3.9596  -16.3635 C   0  0  0  0  0  0  0  0  0  0  0  0
    9.2420    4.9064  -17.1591 C   0  0  0  0  0  0  0  0  0  0  0  0
    9.9041    5.4631  -18.2570 C   0  0  0  0  0  0  0  0  0  0  0  0
   11.1888    5.0889  -18.5785 C   0  0  0  0  0  0  0  0  0  0  0  0
   11.8017    5.5896  -19.5770 O   0  0  0  0  0  0  0  0  0  0  0  0
   11.7785    4.1699  -17.7965 N   0  0  0  0  0  0  0  0  0  0  0  0
   12.7626    3.8964  -18.0587 H   0  0  0  0  0  0  0  0  0  0  0  0
   11.1518    3.6165  -16.7244 C   0  0  0  0  0  0  0  0  0  0  0  0
   11.7056    2.6042  -15.8026 C   0  0  0  0  0  0  0  0  0  0  0  0
   10.6954    2.4959  -14.7076 C   0  0  0  0  0  0  0  0  0  0  0  0
    9.2836    6.9994  -11.7357 N   0  0  0  0  0  0  0  0  0  0  0  0
    9.6147    6.9366  -10.4988 C   0  0  0  0  0  0  0  0  0  0  0  0
    9.4768    5.8001   -9.7401 C   0  0  0  0  0  0  0  0  0  0  0  0
    9.8539    5.8238   -8.4327 N   0  0  0  0  0  0  0  0  0  0  0  0
   10.3618    6.9248   -7.8444 C   0  0  0  0  0  0  0  0  0  0  0  0
   10.7452    6.9499   -6.5175 C   0  0  0  0  0  0  0  0  0  0  0  0
   11.2675    8.0844   -5.9175 C   0  0  0  0  0  0  0  0  0  0  0  0
   11.3952    9.2097   -6.6994 C   0  0  0  0  0  0  0  0  0  0  0  0
   11.0097    9.1942   -8.0437 C   0  0  0  0  0  0  0  0  0  0  0  0
   10.4927    8.0558   -8.6224 C   0  0  0  0  0  0  0  0  0  0  0  0
   10.1216    8.0458   -9.9235 N   0  0  0  0  0  0  0  0  0  0  0  0
   10.2369    8.9219  -10.4777 H   0  0  0  0  0  0  0  0  0  0  0  0
   11.6725    8.0773   -4.4953 C   0  0  0  0  0  0  0  0  0  0  0  0
   12.0406    9.2227   -3.8470 C   0  0  0  0  0  0  0  0  0  0  0  0
   12.4137    9.2021   -2.5292 C   0  0  0  0  0  0  0  0  0  0  0  0
   12.4117    7.9942   -1.8597 C   0  0  0  0  0  0  0  0  0  0  0  0
   12.0433    6.8048   -2.4845 C   0  0  0  0  0  0  0  0  0  0  0  0
   11.6770    6.8860   -3.8132 C   0  0  0  0  0  0  0  0  0  0  0  0
  1  2  2  0
  2  3  1  0
  3  4  1  0
  4  5  1  0
  4  6  1  0
  3  7  2  0
  7  8  1  0
  8  9  2  0
  9 10  1  0
 10 11  2  0
 11 12  1  0
 12 13  2  0
 11 14  1  0
 14 15  1  0
 15 16  2  0
 16 17  1  0
 17 31  1  0
 31 32  2  0
 32 33  1  0
 33 34  2  0
 34 35  1  0
 35 36  2  0
 36 37  1  0
 37 43  1  0
 43 44  2  0
 44 45  1  0
 45 46  2  0
 46 47  1  0
 47 48  2  0
 37 38  2  0
 38 39  1  0
 39 40  2  0
 40 41  1  0
 41 42  1  0
 17 18  2  0
 18 19  1  0
 19 20  2  0
 14 21  1  0
 21 22  1  0
 22 23  2  0
 23 24  1  0
 24 25  2  0
 24 26  1  0
 26 27  1  0
 26 28  1  0
 28 29  1  0
 29 30  1  0
 13  1  1  0
 14 30  1  1
 12  7  1  0
 20 15  1  0
 28 21  2  0
 20 10  1  0
 41 32  1  0
 40 35  1  0
 48 43  1  0
M  END
>  <minimizedAffinity>  (608) 
-16.84503

$$$$
Mol: 97_15 - SminaDock
     RDKit          3D

 47 53  0  0  0  0  0  0  0  0999 V2000
    6.8119    1.4281  -13.5613 C   0  0  0  0  0  0  0  0  0  0  0  0
    5.4857    1.5745  -13.2238 C   0  0  0  0  0  0  0  0  0  0  0  0
    4.9320    2.8342  -12.9672 C   0  0  0  0  0  0  0  0  0  0  0  0
    5.7222    3.9554  -13.0515 C   0  0  0  0  0  0  0  0  0  0  0  0
    7.0479    3.7996  -13.3896 C   0  0  0  0  0  0  0  0  0  0  0  0
    7.6078    2.5710  -13.6448 C   0  0  0  0  0  0  0  0  0  0  0  0
    7.9002    4.9599  -13.4835 N   0  0  0  0  0  0  0  0  0  0  0  0
    8.4684    5.4725  -12.4559 C   0  0  0  0  0  0  0  0  0  0  0  0
    9.2559    6.5669  -12.6353 N   0  0  0  0  0  0  0  0  0  0  0  0
    9.8899    7.1687  -11.6102 C   0  0  0  0  0  0  0  0  0  0  0  0
    9.7498    6.6794  -10.3448 C   0  0  0  0  0  0  0  0  0  0  0  0
   10.3904    7.2856   -9.3004 C   0  0  0  0  0  0  0  0  0  0  0  0
   10.2352    6.7745   -8.0265 C   0  0  0  0  0  0  0  0  0  0  0  0
    9.4458    5.6658   -7.7976 C   0  0  0  0  0  0  0  0  0  0  0  0
    8.8073    5.0704   -8.8751 C   0  0  0  0  0  0  0  0  0  0  0  0
    8.9550    5.5683  -10.1362 C   0  0  0  0  0  0  0  0  0  0  0  0
    8.3447    5.0081  -11.2023 N   0  0  0  0  0  0  0  0  0  0  0  0
    7.7536    4.1769  -11.0272 H   0  0  0  0  0  0  0  0  0  0  0  0
   10.9147    7.4175   -6.9202 C   0  0  0  0  0  0  0  0  0  0  0  0
   11.5724    8.6105   -7.1177 C   0  0  0  0  0  0  0  0  0  0  0  0
   12.2247    9.2279   -6.0498 C   0  0  0  0  0  0  0  0  0  0  0  0
   12.2243    8.6657   -4.7959 C   0  0  0  0  0  0  0  0  0  0  0  0
   12.8663    9.2632   -3.7206 C   0  0  0  0  0  0  0  0  0  0  0  0
   12.8688    8.7005   -2.4526 C   0  0  0  0  0  0  0  0  0  0  0  0
   12.2169    7.5170   -2.2546 C   0  0  0  0  0  0  0  0  0  0  0  0
   11.5644    6.8960   -3.3174 C   0  0  0  0  0  0  0  0  0  0  0  0
   11.5696    7.4697   -4.5801 C   0  0  0  0  0  0  0  0  0  0  0  0
   10.9292    6.8740   -5.6519 C   0  0  0  0  0  0  0  0  0  0  0  0
    7.1328   -1.8971  -13.6388 H   0  0  0  0  0  0  0  0  0  0  0  0
    6.7666   -1.0026  -13.3234 O   0  0  0  0  0  0  0  0  0  0  0  0
    7.4406    0.1358  -13.8424 C   0  0  0  0  0  0  0  0  0  0  0  0
    8.4804    0.0032  -14.4805 N   0  0  0  0  0  0  0  0  0  0  0  0
    9.4487    0.7106  -15.1463 C   0  0  0  0  0  0  0  0  0  0  0  0
   10.0171    1.8530  -14.6560 N   0  0  0  0  0  0  0  0  0  0  0  0
   10.9518    2.5417  -15.3181 C   0  0  0  0  0  0  0  0  0  0  0  0
   11.5121    3.7041  -14.7929 C   0  0  0  0  0  0  0  0  0  0  0  0
   12.4728    4.4138  -15.4736 C   0  0  0  0  0  0  0  0  0  0  0  0
   12.9249    4.0040  -16.7102 C   0  0  0  0  0  0  0  0  0  0  0  0
   12.3838    2.8686  -17.2330 C   0  0  0  0  0  0  0  0  0  0  0  0
   11.4154    2.1497  -16.5514 C   0  0  0  0  0  0  0  0  0  0  0  0
   10.8819    1.0025  -17.1042 C   0  0  0  0  0  0  0  0  0  0  0  0
    9.9263    0.3154  -16.4065 C   0  0  0  0  0  0  0  0  0  0  0  0
   13.9403    4.7417  -17.4472 C   0  0  0  0  0  0  0  0  0  0  0  0
   15.0997    4.7777  -16.9692 O   0  0  0  0  0  0  0  0  0  0  0  0
   13.6072    5.3900  -18.6621 N   0  0  0  0  0  0  0  0  0  0  0  0
   13.4515    6.4178  -18.7370 H   0  0  0  0  0  0  0  0  0  0  0  0
   13.5067    4.8352  -19.5392 H   0  0  0  0  0  0  0  0  0  0  0  0
 29 30  1  0
 30 31  1  0
 31 32  2  0
 32 33  1  0
 33 34  2  0
 34 35  1  0
 35 36  2  0
 36 37  1  0
 37 38  2  0
 38 43  1  0
 43 44  2  0
 43 45  1  0
 45 46  1  0
 45 47  1  0
 38 39  1  0
 39 40  2  0
 40 41  1  0
 41 42  2  0
 31  1  1  0
  1  2  2  0
  2  3  1  0
  3  4  2  0
  4  5  1  0
  5  7  1  0
  7  8  2  0
  8  9  1  0
  9 10  2  0
 10 11  1  0
 11 12  2  0
 12 13  1  0
 13 19  1  0
 19 20  2  0
 20 21  1  0
 21 22  2  0
 22 23  1  0
 23 24  2  0
 24 25  1  0
 25 26  2  0
 26 27  1  0
 27 28  2  0
 13 14  2  0
 14 15  1  0
 15 16  2  0
 16 17  1  0
 17 18  1  0
  5  6  2  0
 42 33  1  0
  6  1  1  0
 40 35  1  0
 17  8  1  0
 16 11  1  0
 28 19  1  0
 27 22  1  0
M  END
>  <minimizedAffinity>  (609) 
-16.82559

$$$$
Mol: 168_15 - SminaDock
     RDKit          3D

 37 43  0  0  0  0  0  0  0  0999 V2000
    8.3248   -1.1922  -16.4607 H   0  0  0  0  0  0  0  0  0  0  0  0
    7.4736   -0.8529  -16.8917 O   0  0  0  0  0  0  0  0  0  0  0  0
    6.4062   -0.5619  -16.0422 C   0  0  0  0  0  0  0  0  0  0  0  0
    5.3318   -1.3428  -16.0170 O   0  0  0  0  0  0  0  0  0  0  0  0
    4.2970   -1.1389  -15.2537 C   0  0  0  0  0  0  0  0  0  0  0  0
    4.2965   -0.0488  -14.4104 C   0  0  0  0  0  0  0  0  0  0  0  0
    5.3606    0.8232  -14.3591 C   0  0  0  0  0  0  0  0  0  0  0  0
    5.7030    1.9676  -13.6747 C   0  0  0  0  0  0  0  0  0  0  0  0
    6.9521    2.3920  -14.0789 C   0  0  0  0  0  0  0  0  0  0  0  0
    7.4144    1.5299  -15.0155 N   0  0  0  0  0  0  0  0  0  0  0  0
    6.5117    0.5567  -15.2389 C   0  0  0  0  0  0  0  0  0  0  0  0
    7.5541    3.5972  -13.5220 C   0  0  0  0  0  0  0  0  0  0  0  0
    8.8204    4.0211  -13.9031 C   0  0  0  0  0  0  0  0  0  0  0  0
    9.4015    5.1513  -13.3607 C   0  0  0  0  0  0  0  0  0  0  0  0
    8.7166    5.8774  -12.4222 C   0  0  0  0  0  0  0  0  0  0  0  0
    7.4676    5.4850  -12.0271 C   0  0  0  0  0  0  0  0  0  0  0  0
    6.8764    4.3223  -12.5894 C   0  0  0  0  0  0  0  0  0  0  0  0
    5.5221    3.9473  -12.1523 C   0  0  0  0  0  0  0  0  0  0  0  0
    4.9378    2.6932  -12.6430 C   0  0  0  0  0  0  0  0  0  0  0  0
    9.3025    7.0272  -11.8658 N   0  0  0  0  0  0  0  0  0  0  0  0
    9.6375    7.0246  -10.6244 C   0  0  0  0  0  0  0  0  0  0  0  0
    9.4281    5.9327   -9.8710 N   0  0  0  0  0  0  0  0  0  0  0  0
    9.7633    5.8773   -8.5561 C   0  0  0  0  0  0  0  0  0  0  0  0
   10.3448    6.9776   -7.9480 C   0  0  0  0  0  0  0  0  0  0  0  0
   10.7092    6.9873   -6.6174 C   0  0  0  0  0  0  0  0  0  0  0  0
   11.2898    8.0912   -6.0177 C   0  0  0  0  0  0  0  0  0  0  0  0
   11.4954    9.2012   -6.8102 C   0  0  0  0  0  0  0  0  0  0  0  0
   11.1305    9.1910   -8.1422 C   0  0  0  0  0  0  0  0  0  0  0  0
   10.5515    8.0893   -8.7389 C   0  0  0  0  0  0  0  0  0  0  0  0
   10.2096    8.1205  -10.0448 N   0  0  0  0  0  0  0  0  0  0  0  0
   10.3725    8.9802  -10.6452 H   0  0  0  0  0  0  0  0  0  0  0  0
   11.6573    8.0464   -4.5988 C   0  0  0  0  0  0  0  0  0  0  0  0
   12.0349    9.1888   -3.9418 C   0  0  0  0  0  0  0  0  0  0  0  0
   12.3817    9.1485   -2.6015 C   0  0  0  0  0  0  0  0  0  0  0  0
   12.3620    7.9705   -1.8794 C   0  0  0  0  0  0  0  0  0  0  0  0
   11.9834    6.8159   -2.5319 C   0  0  0  0  0  0  0  0  0  0  0  0
   11.6357    6.8647   -3.8810 C   0  0  0  0  0  0  0  0  0  0  0  0
  1  2  1  0
  2  3  1  0
  3  4  1  0
  4  5  1  0
  5  6  2  0
  6  7  1  0
  7  8  2  0
  8  9  1  0
  9 10  2  0
 10 11  1  0
  9 12  1  0
 12 13  2  0
 13 14  1  0
 14 15  2  0
 15 20  1  0
 20 21  2  0
 21 22  1  0
 22 23  2  0
 23 24  1  0
 24 25  2  0
 25 26  1  0
 26 32  1  0
 32 33  2  0
 33 34  1  0
 34 35  2  0
 35 36  1  0
 36 37  2  0
 26 27  2  0
 27 28  1  0
 28 29  2  0
 29 30  1  0
 30 31  1  0
 15 16  1  0
 16 17  2  0
 17 18  1  0
 18 19  1  0
 11  3  2  0
 17 12  1  0
 11  7  1  0
 30 21  1  0
 19  8  1  0
 29 24  1  0
 37 32  1  0
M  END
>  <minimizedAffinity>  (610) 
-16.76904

$$$$
Mol: 136_7 - SminaDock
     RDKit          3D

 39 46  0  0  0  0  0  0  0  0999 V2000
    8.4235    5.4146  -12.7652 C   0  0  0  0  0  0  0  0  0  0  0  0
    7.1023    5.1311  -12.4659 C   0  0  0  0  0  0  0  0  0  0  0  0
    6.4967    3.9911  -12.9640 C   0  0  0  0  0  0  0  0  0  0  0  0
    7.2733    3.1835  -13.7480 C   0  0  0  0  0  0  0  0  0  0  0  0
    8.6231    3.4531  -14.0662 C   0  0  0  0  0  0  0  0  0  0  0  0
    9.2071    4.5795  -13.5728 C   0  0  0  0  0  0  0  0  0  0  0  0
    9.5773    2.6800  -14.8909 C   0  0  1  0  0  0  0  0  0  0  0  0
   10.2685    3.4506  -15.9676 C   0  0  0  0  0  0  0  0  0  0  0  0
   11.4648    2.8859  -15.6058 O   0  0  0  0  0  0  0  0  0  0  0  0
   10.9695    2.5317  -14.3630 C   0  0  0  0  0  0  0  0  0  0  0  0
    8.9934    1.3953  -15.4385 C   0  0  0  0  0  0  0  0  0  0  0  0
    8.2940    1.4159  -16.6507 N   0  0  0  0  0  0  0  0  0  0  0  0
    8.7752    0.3717  -17.5311 C   0  0  0  0  0  0  0  0  0  0  0  0
    6.8960    1.4422  -16.6475 C   0  0  2  0  0  0  0  0  0  0  0  0
    6.2986    1.4095  -15.2997 C   0  0  0  0  0  0  0  0  0  0  0  0
    6.3790    2.0949  -14.1062 C   0  0  0  0  0  0  0  0  0  0  0  0
    5.6371    1.8453  -12.9951 C   0  0  0  0  0  0  0  0  0  0  0  0
    4.7484    0.7960  -13.1700 C   0  0  0  0  0  0  0  0  0  0  0  0
    4.6422    0.0751  -14.3722 C   0  0  0  0  0  0  0  0  0  0  0  0
    5.4366    0.3746  -15.4847 C   0  0  0  0  0  0  0  0  0  0  0  0
    6.0167    0.2606  -16.8520 C   0  0  0  0  0  0  0  0  0  0  0  0
   11.2151    7.8291   -6.5749 C   0  0  0  0  0  0  0  0  0  0  0  0
   11.4428    8.9029   -7.4107 C   0  0  0  0  0  0  0  0  0  0  0  0
   11.0484    8.8537   -8.7289 C   0  0  0  0  0  0  0  0  0  0  0  0
   10.4232    7.7405   -9.2383 C   0  0  0  0  0  0  0  0  0  0  0  0
   10.0487    7.7292  -10.5480 N   0  0  0  0  0  0  0  0  0  0  0  0
    9.4347    6.6311  -11.0431 C   0  0  0  0  0  0  0  0  0  0  0  0
    9.0605    6.5659  -12.2704 N   0  0  0  0  0  0  0  0  0  0  0  0
    9.2071    5.5820  -10.2436 N   0  0  0  0  0  0  0  0  0  0  0  0
    8.7386    4.7509  -10.6296 H   0  0  0  0  0  0  0  0  0  0  0  0
    9.5648    5.5609   -8.9440 C   0  0  0  0  0  0  0  0  0  0  0  0
   10.1952    6.6683   -8.4052 C   0  0  0  0  0  0  0  0  0  0  0  0
   10.5887    6.7156   -7.0870 C   0  0  0  0  0  0  0  0  0  0  0  0
   12.4425    7.9643   -2.4810 C   0  0  0  0  0  0  0  0  0  0  0  0
   12.7485    8.9801   -3.3579 C   0  0  0  0  0  0  0  0  0  0  0  0
   12.3508    8.9405   -4.6898 C   0  0  0  0  0  0  0  0  0  0  0  0
   11.6291    7.8693   -5.1780 C   0  0  0  0  0  0  0  0  0  0  0  0
   11.3291    6.8570   -4.2869 C   0  0  0  0  0  0  0  0  0  0  0  0
   11.7233    6.8977   -2.9689 C   0  0  0  0  0  0  0  0  0  0  0  0
 34 35  2  0
 35 36  1  0
 36 37  2  0
 37 22  1  0
 22 23  1  0
 23 24  2  0
 24 25  1  0
 25 26  2  0
 26 27  1  0
 27 28  2  0
 28  1  1  0
  1  2  2  0
  2  3  1  0
  3  4  2  0
  4  5  1  0
  5  6  2  0
  5  7  1  0
  7  8  1  6
  8  9  1  0
  9 10  1  0
  7 11  1  0
 11 12  1  0
 12 13  1  0
 12 14  1  0
 14 15  1  0
 15 16  2  0
 16 17  1  0
 17 18  2  0
 18 19  1  0
 19 20  2  0
 20 21  1  0
 27 29  1  0
 29 30  1  0
 29 31  1  0
 31 32  2  0
 32 33  1  0
 37 38  1  0
 38 39  2  0
 39 34  1  0
 33 22  2  0
 32 25  1  0
  6  1  1  0
 10  7  1  0
 14 21  1  6
 16  4  1  0
 20 15  1  0
M  END
>  <minimizedAffinity>  (611) 
-16.84038

$$$$
Mol: 180_52 - SminaDock
     RDKit          3D

 41 47  0  0  0  0  0  0  0  0999 V2000
    6.1603   -2.6887  -17.5999 H   0  0  0  0  0  0  0  0  0  0  0  0
    6.6733   -1.8604  -17.8880 O   0  0  0  0  0  0  0  0  0  0  0  0
    6.7966   -0.7355  -17.0966 C   0  0  0  0  0  0  0  0  0  0  0  0
    7.7529    0.2406  -17.4756 N   0  0  0  0  0  0  0  0  0  0  0  0
    7.5516    1.1590  -17.8829 H   0  0  0  0  0  0  0  0  0  0  0  0
    8.7659   -0.0133  -17.3189 H   0  0  0  0  0  0  0  0  0  0  0  0
    6.0725   -0.5796  -16.0565 N   0  0  0  0  0  0  0  0  0  0  0  0
    6.0766    0.5085  -15.1464 C   0  0  0  0  0  0  0  0  0  0  0  0
    7.0419    1.5005  -14.9130 C   0  0  0  0  0  0  0  0  0  0  0  0
    6.8665    2.4808  -13.9851 C   0  0  0  0  0  0  0  0  0  0  0  0
    5.6935    2.4831  -13.2591 C   0  0  0  0  0  0  0  0  0  0  0  0
    4.7307    1.5162  -13.4731 C   0  0  0  0  0  0  0  0  0  0  0  0
    4.9125    0.5052  -14.4304 C   0  0  0  0  0  0  0  0  0  0  0  0
    4.0746   -0.6311  -14.8582 C   0  0  0  0  0  0  0  0  0  0  0  0
    5.0705   -1.5119  -15.5861 C   0  0  0  0  0  0  0  0  0  0  0  0
    5.7963    3.6341  -12.3597 C   0  0  0  0  0  0  0  0  0  0  0  0
    4.9381    3.9891  -11.5332 O   0  0  0  0  0  0  0  0  0  0  0  0
    7.0760    4.3218  -12.5743 C   0  0  0  0  0  0  0  0  0  0  0  0
    7.6652    5.4398  -12.0020 C   0  0  0  0  0  0  0  0  0  0  0  0
    8.9175    5.8810  -12.4051 C   0  0  0  0  0  0  0  0  0  0  0  0
    9.5371    5.1619  -13.3893 C   0  0  0  0  0  0  0  0  0  0  0  0
    8.9613    4.0524  -13.9628 C   0  0  0  0  0  0  0  0  0  0  0  0
    7.7203    3.6120  -13.5658 C   0  0  0  0  0  0  0  0  0  0  0  0
    9.4943    7.0302  -11.7973 N   0  0  0  0  0  0  0  0  0  0  0  0
    9.7789    6.9544  -10.5466 C   0  0  0  0  0  0  0  0  0  0  0  0
   10.3238    8.0302   -9.9570 N   0  0  0  0  0  0  0  0  0  0  0  0
   10.6705    8.0908   -8.6619 C   0  0  0  0  0  0  0  0  0  0  0  0
   11.2286    9.1976   -8.0650 C   0  0  0  0  0  0  0  0  0  0  0  0
   11.5699    9.2091   -6.7190 C   0  0  0  0  0  0  0  0  0  0  0  0
   11.3641    8.1056   -5.9142 C   0  0  0  0  0  0  0  0  0  0  0  0
   10.8014    6.9952   -6.5238 C   0  0  0  0  0  0  0  0  0  0  0  0
   10.4621    6.9851   -7.8639 C   0  0  0  0  0  0  0  0  0  0  0  0
    9.9010    5.8814   -8.4768 C   0  0  0  0  0  0  0  0  0  0  0  0
    9.5691    5.8687   -9.7831 N   0  0  0  0  0  0  0  0  0  0  0  0
    9.1382    5.0001  -10.2223 H   0  0  0  0  0  0  0  0  0  0  0  0
   11.7192    8.1075   -4.4971 C   0  0  0  0  0  0  0  0  0  0  0  0
   11.6848    6.9206   -3.8015 C   0  0  0  0  0  0  0  0  0  0  0  0
   12.0138    6.8696   -2.4502 C   0  0  0  0  0  0  0  0  0  0  0  0
   12.3823    8.0187   -1.7824 C   0  0  0  0  0  0  0  0  0  0  0  0
   12.4216    9.2062   -2.4583 C   0  0  0  0  0  0  0  0  0  0  0  0
   12.0919    9.2348   -3.7969 C   0  0  0  0  0  0  0  0  0  0  0  0
  1  2  1  0
  2  3  1  0
  3  4  1  0
  4  5  1  0
  4  6  1  0
  3  7  2  0
  7  8  1  0
  8  9  2  0
  9 10  1  0
 10 11  2  0
 11 12  1  0
 12 13  2  0
 13 14  1  0
 14 15  1  0
 11 16  1  0
 16 17  2  0
 16 18  1  0
 18 19  2  0
 19 20  1  0
 20 24  1  0
 24 25  2  0
 25 26  1  0
 26 27  2  0
 27 28  1  0
 28 29  2  0
 29 30  1  0
 30 36  1  0
 36 37  2  0
 37 38  1  0
 38 39  2  0
 39 40  1  0
 40 41  2  0
 30 31  2  0
 31 32  1  0
 32 33  2  0
 33 34  1  0
 34 35  1  0
 20 21  2  0
 21 22  1  0
 22 23  2  0
 15  7  1  0
 23 18  1  0
 13  8  1  0
 34 25  1  0
 23 10  1  0
 32 27  1  0
 41 36  1  0
M  CHG  1   7   1
M  END
>  <minimizedAffinity>  (612) 
-16.79134

$$$$
Mol: 189_42 - SminaDock
     RDKit          3D

 45 52  0  0  0  0  0  0  0  0999 V2000
    9.3732   -1.2469  -16.5208 H   0  0  0  0  0  0  0  0  0  0  0  0
    9.0001   -0.2864  -16.5552 O   0  0  0  0  0  0  0  0  0  0  0  0
    7.6510   -0.1783  -16.7918 C   0  0  0  0  0  0  0  0  0  0  0  0
    7.0967   -0.8335  -17.8912 C   0  0  0  0  0  0  0  0  0  0  0  0
    5.7761   -1.2266  -18.0883 C   0  0  0  0  0  0  0  0  0  0  0  0
    5.4231   -1.6701  -19.3872 N   0  0  0  0  0  0  0  0  0  0  0  0
    5.2188   -0.9559  -20.1103 H   0  0  0  0  0  0  0  0  0  0  0  0
    5.3595   -2.6699  -19.6483 H   0  0  0  0  0  0  0  0  0  0  0  0
    4.7745   -1.2187  -17.1108 C   0  0  0  0  0  0  0  0  0  0  0  0
    4.6603   -0.4764  -15.9363 C   0  0  0  0  0  0  0  0  0  0  0  0
    5.5739    0.4727  -15.4670 C   0  0  0  0  0  0  0  0  0  0  0  0
    5.3071    1.4221  -14.5691 N   0  0  0  0  0  0  0  0  0  0  0  0
    6.4563    2.1417  -14.3908 C   0  0  0  0  0  0  0  0  0  0  0  0
    7.4832    1.6683  -15.1698 C   0  0  0  0  0  0  0  0  0  0  0  0
    6.9673    0.5929  -15.8831 C   0  0  0  0  0  0  0  0  0  0  0  0
    8.6530    2.4589  -14.9460 C   0  0  2  0  0  0  0  0  0  0  0  0
    8.2237    3.4981  -13.9309 C   0  0  0  0  0  0  0  0  0  0  0  0
    8.9441    4.5384  -13.3397 C   0  0  0  0  0  0  0  0  0  0  0  0
    8.3547    5.3772  -12.4217 C   0  0  0  0  0  0  0  0  0  0  0  0
    7.0250    5.1444  -12.1139 C   0  0  0  0  0  0  0  0  0  0  0  0
    6.2880    4.1185  -12.6872 C   0  0  0  0  0  0  0  0  0  0  0  0
    6.9358    3.2854  -13.6222 C   0  0  0  0  0  0  0  0  0  0  0  0
    8.9324    3.3176  -16.1684 C   0  0  0  0  0  0  0  0  0  0  0  0
    9.7854    2.7127  -17.2162 C   0  0  0  0  0  0  0  0  0  0  0  0
   10.8889    2.0423  -16.7202 O   0  0  0  0  0  0  0  0  0  0  0  0
   11.0440    2.3745  -15.3808 C   0  0  0  0  0  0  0  0  0  0  0  0
    9.9307    1.8746  -14.5028 C   0  0  0  0  0  0  0  0  0  0  0  0
    9.1279    6.4166  -11.8526 N   0  0  0  0  0  0  0  0  0  0  0  0
    9.4640    6.5323  -10.6316 C   0  0  0  0  0  0  0  0  0  0  0  0
   10.2009    7.5614  -10.1970 N   0  0  0  0  0  0  0  0  0  0  0  0
   10.5597    7.6807   -8.8900 C   0  0  0  0  0  0  0  0  0  0  0  0
   11.3104    8.7321   -8.4527 C   0  0  0  0  0  0  0  0  0  0  0  0
   11.6650    8.8328   -7.1083 C   0  0  0  0  0  0  0  0  0  0  0  0
   11.2688    7.8769   -6.1877 C   0  0  0  0  0  0  0  0  0  0  0  0
   10.5153    6.8253   -6.6377 C   0  0  0  0  0  0  0  0  0  0  0  0
   10.1569    6.7179   -7.9793 C   0  0  0  0  0  0  0  0  0  0  0  0
    9.3993    5.6673   -8.4483 C   0  0  0  0  0  0  0  0  0  0  0  0
    9.0737    5.6001   -9.7520 N   0  0  0  0  0  0  0  0  0  0  0  0
    8.5031    4.8009  -10.0868 H   0  0  0  0  0  0  0  0  0  0  0  0
   11.6402    7.9864   -4.7926 C   0  0  0  0  0  0  0  0  0  0  0  0
   11.6114    6.8673   -3.9978 C   0  0  0  0  0  0  0  0  0  0  0  0
   11.9502    6.8884   -2.6610 C   0  0  0  0  0  0  0  0  0  0  0  0
   12.3329    8.0924   -2.1104 C   0  0  0  0  0  0  0  0  0  0  0  0
   12.3655    9.2258   -2.9011 C   0  0  0  0  0  0  0  0  0  0  0  0
   12.0222    9.1913   -4.2452 C   0  0  0  0  0  0  0  0  0  0  0  0
  1  2  1  0
  2  3  1  0
  3  4  2  0
  4  5  1  0
  5  6  1  0
  6  7  1  0
  6  8  1  0
  5  9  2  0
  9 10  1  0
 10 11  2  0
 11 12  1  0
 12 13  2  0
 13 14  1  0
 14 15  2  0
 14 16  1  0
 16 17  1  0
 17 18  2  0
 18 19  1  0
 19 28  1  0
 28 29  2  0
 29 30  1  0
 30 31  2  0
 31 32  1  0
 32 33  2  0
 33 34  1  0
 34 40  1  0
 40 41  2  0
 41 42  1  0
 42 43  2  0
 43 44  1  0
 44 45  2  0
 34 35  2  0
 35 36  1  0
 36 37  2  0
 37 38  1  0
 38 39  1  0
 19 20  2  0
 20 21  1  0
 21 22  2  0
 16 23  1  6
 23 24  1  0
 24 25  1  0
 25 26  1  0
 26 27  1  0
 15  3  1  0
 27 16  1  0
 15 11  1  0
 22 17  1  0
 22 13  1  0
 38 29  1  0
 36 31  1  0
 45 40  1  0
M  END
>  <minimizedAffinity>  (613) 
-16.77418

$$$$
Mol: 113_39 - SminaDock
     RDKit          3D

 50 57  0  0  0  0  0  0  0  0999 V2000
    7.0503    2.5318  -14.0187 C   0  0  0  0  0  0  0  0  0  0  0  0
    5.7964    2.0541  -13.6671 C   0  0  0  0  0  0  0  0  0  0  0  0
    4.9405    2.6878  -12.8115 C   0  0  0  0  0  0  0  0  0  0  0  0
    5.3302    3.8700  -12.2581 C   0  0  0  0  0  0  0  0  0  0  0  0
    6.5648    4.3905  -12.5730 C   0  0  0  0  0  0  0  0  0  0  0  0
    6.9542    5.5845  -12.0247 C   0  0  0  0  0  0  0  0  0  0  0  0
    8.1875    6.1536  -12.3216 C   0  0  0  0  0  0  0  0  0  0  0  0
    9.0292    5.5140  -13.1753 C   0  0  0  0  0  0  0  0  0  0  0  0
    8.6425    4.3028  -13.7358 C   0  0  0  0  0  0  0  0  0  0  0  0
    7.4334    3.7467  -13.4422 C   0  0  0  0  0  0  0  0  0  0  0  0
   12.0742    1.1329  -18.4141 C   0  0  0  0  0  0  0  0  0  0  0  0
   12.0857    2.1141  -17.4550 C   0  0  0  0  0  0  0  0  0  0  0  0
   11.1367    2.3157  -16.4499 C   0  0  0  0  0  0  0  0  0  0  0  0
    9.9767    1.6413  -16.1732 C   0  0  0  0  0  0  0  0  0  0  0  0
    9.1280    2.3193  -15.2953 C   0  0  0  0  0  0  0  0  0  0  0  0
    7.9224    1.7882  -14.9088 C   0  0  0  0  0  0  0  0  0  0  0  0
    7.5463    0.5661  -15.3974 C   0  0  0  0  0  0  0  0  0  0  0  0
    8.3845   -0.1202  -16.2737 C   0  0  0  0  0  0  0  0  0  0  0  0
    9.5931    0.4111  -16.6616 C   0  0  0  0  0  0  0  0  0  0  0  0
   10.2897   -0.4225  -17.5433 C   0  0  0  0  0  0  0  0  0  0  0  0
    9.8290   -1.5803  -17.6943 O   0  0  0  0  0  0  0  0  0  0  0  0
   11.4242   -0.1049  -18.2595 C   0  0  0  0  0  0  0  0  0  0  0  0
   17.0875    1.7139  -20.5819 H   0  0  0  0  0  0  0  0  0  0  0  0
   16.2357    2.1960  -20.3224 O   0  0  0  0  0  0  0  0  0  0  0  0
   14.9805    1.5724  -20.3750 C   0  0  0  0  0  0  0  0  0  0  0  0
   14.8688    0.4441  -20.9467 N   0  0  0  0  0  0  0  0  0  0  0  0
   13.6377   -0.3130  -21.0752 C   0  0  0  0  0  0  0  0  0  0  0  0
   12.4616    0.6431  -20.8579 C   0  0  0  0  0  0  0  0  0  0  0  0
   12.7442    1.3392  -19.6358 N   0  0  0  0  0  0  0  0  0  0  0  0
   13.8494    2.3199  -19.7300 C   0  0  0  0  0  0  0  0  0  0  0  0
   10.3212    6.0809  -13.5084 C   0  0  0  0  0  0  0  0  0  0  0  0
   11.1363    6.6775  -12.7853 N   0  0  0  0  0  0  0  0  0  0  0  0
   10.7525    5.9473  -14.8788 O   0  0  0  0  0  0  0  0  0  0  0  0
   11.4566    6.5837  -15.2257 H   0  0  0  0  0  0  0  0  0  0  0  0
   11.2234    7.0649  -11.4453 C   0  0  0  0  0  0  0  0  0  0  0  0
   12.3239    7.7871  -10.9698 C   0  0  0  0  0  0  0  0  0  0  0  0
   12.4102    8.1441   -9.6568 C   0  0  0  0  0  0  0  0  0  0  0  0
   11.4374    7.8215   -8.7363 C   0  0  0  0  0  0  0  0  0  0  0  0
   10.3598    7.1116   -9.2134 C   0  0  0  0  0  0  0  0  0  0  0  0
   10.2386    6.7365  -10.5206 C   0  0  0  0  0  0  0  0  0  0  0  0
   11.5461    8.2131   -7.3256 C   0  0  0  0  0  0  0  0  0  0  0  0
   11.6537    9.5428   -6.9722 C   0  0  0  0  0  0  0  0  0  0  0  0
   11.7581    9.9154   -5.6427 C   0  0  0  0  0  0  0  0  0  0  0  0
   11.7584    8.9785   -4.6306 C   0  0  0  0  0  0  0  0  0  0  0  0
   11.8615    9.3219   -3.2956 C   0  0  0  0  0  0  0  0  0  0  0  0
   11.8589    8.3569   -2.3066 C   0  0  0  0  0  0  0  0  0  0  0  0
   11.7524    7.0120   -2.6227 C   0  0  0  0  0  0  0  0  0  0  0  0
   11.6507    6.6956   -3.9613 C   0  0  0  0  0  0  0  0  0  0  0  0
   11.6518    7.6500   -4.9650 C   0  0  0  0  0  0  0  0  0  0  0  0
   11.5476    7.2905   -6.3046 C   0  0  0  0  0  0  0  0  0  0  0  0
 23 24  1  0
 24 25  1  0
 25 26  2  0
 26 27  1  0
 27 28  1  0
 28 29  1  0
 29 11  1  0
 11 12  1  0
 12 13  2  0
 13 14  1  0
 14 15  2  0
 15 16  1  0
 16  1  1  0
  1  2  2  0
  2  3  1  0
  3  4  2  0
  4  5  1  0
  5  6  2  0
  6  7  1  0
  7  8  2  0
  8 31  1  0
 31 32  2  0
 32 35  1  0
 35 36  2  0
 36 37  1  0
 37 38  2  0
 38 41  1  0
 41 42  2  0
 42 43  1  0
 43 44  2  0
 44 45  1  0
 45 46  2  0
 46 47  1  0
 47 48  2  0
 48 49  1  0
 49 50  2  0
 38 39  1  0
 39 40  2  0
 31 33  1  0
 33 34  1  0
  8  9  1  0
  9 10  2  0
 16 17  2  0
 17 18  1  0
 18 19  2  0
 19 20  1  0
 20 21  2  0
 20 22  1  0
 29 30  1  0
 30 25  1  0
 22 11  2  0
 19 14  1  0
 10  1  1  0
 10  5  1  0
 40 35  1  0
 50 41  1  0
 49 44  1  0
M  END
>  <minimizedAffinity>  (614) 
-16.81168

$$$$
Mol: 153_26 - SminaDock
     RDKit          3D

 39 45  0  0  0  0  0  0  0  0999 V2000
    8.9104    6.2020  -12.3650 C   0  0  0  0  0  0  0  0  0  0  0  0
    9.7150    5.6893  -13.3559 C   0  0  0  0  0  0  0  0  0  0  0  0
    9.2992    4.5390  -14.0292 C   0  0  0  0  0  0  0  0  0  0  0  0
    8.1080    3.9453  -13.6954 C   0  0  0  0  0  0  0  0  0  0  0  0
    7.2880    4.4348  -12.7117 C   0  0  0  0  0  0  0  0  0  0  0  0
    7.7241    5.5936  -12.0461 C   0  0  0  0  0  0  0  0  0  0  0  0
    6.0196    3.8239  -12.2996 C   0  0  0  0  0  0  0  0  0  0  0  0
    5.5582    2.7160  -13.1137 C   0  0  0  0  0  0  0  0  0  0  0  0
    6.4575    2.1758  -14.1126 C   0  0  0  0  0  0  0  0  0  0  0  0
    7.6602    2.7504  -14.4270 C   0  0  0  0  0  0  0  0  0  0  0  0
    8.4627    2.1918  -15.4158 C   0  0  0  0  0  0  0  0  0  0  0  0
    8.0330    1.0388  -16.0860 C   0  0  0  0  0  0  0  0  0  0  0  0
    6.8270    0.4887  -15.7480 C   0  0  0  0  0  0  0  0  0  0  0  0
    6.4291   -0.6583  -16.4357 C   0  0  0  0  0  0  0  0  0  0  0  0
    5.2124   -1.2660  -16.1406 C   0  0  0  0  0  0  0  0  0  0  0  0
    4.8263   -2.4352  -16.8543 N   0  0  0  0  0  0  0  0  0  0  0  0
    3.9806   -2.3709  -17.4563 H   0  0  0  0  0  0  0  0  0  0  0  0
    5.3341   -3.3333  -16.8073 H   0  0  0  0  0  0  0  0  0  0  0  0
    4.4391   -0.6912  -15.1586 C   0  0  0  0  0  0  0  0  0  0  0  0
    4.8014    0.4396  -14.4611 C   0  0  0  0  0  0  0  0  0  0  0  0
    6.0131    1.0155  -14.7788 C   0  0  0  0  0  0  0  0  0  0  0  0
   11.2849    8.1126   -5.7810 C   0  0  0  0  0  0  0  0  0  0  0  0
   11.3223    9.3340   -6.4482 C   0  0  0  0  0  0  0  0  0  0  0  0
   10.9333    9.4010   -7.7705 C   0  0  0  0  0  0  0  0  0  0  0  0
   10.5022    8.2914   -8.4709 C   0  0  0  0  0  0  0  0  0  0  0  0
   10.4714    7.0896   -7.7945 C   0  0  0  0  0  0  0  0  0  0  0  0
   10.0399    5.9831   -8.4993 C   0  0  0  0  0  0  0  0  0  0  0  0
    9.6737    6.0906   -9.7742 N   0  0  0  0  0  0  0  0  0  0  0  0
    9.6976    7.2532  -10.4479 C   0  0  0  0  0  0  0  0  0  0  0  0
    9.3518    7.3921  -11.6782 N   0  0  0  0  0  0  0  0  0  0  0  0
   10.1226    8.3514   -9.7592 N   0  0  0  0  0  0  0  0  0  0  0  0
   10.1600    9.2797  -10.2366 H   0  0  0  0  0  0  0  0  0  0  0  0
   10.8618    7.0134   -6.4616 C   0  0  0  0  0  0  0  0  0  0  0  0
   12.4911    7.9214   -1.7044 C   0  0  0  0  0  0  0  0  0  0  0  0
   12.1751    6.7816   -2.3907 C   0  0  0  0  0  0  0  0  0  0  0  0
   11.7841    6.8462   -3.7125 C   0  0  0  0  0  0  0  0  0  0  0  0
   11.6935    8.0559   -4.4024 C   0  0  0  0  0  0  0  0  0  0  0  0
   12.0204    9.1902   -3.6781 C   0  0  0  0  0  0  0  0  0  0  0  0
   12.4123    9.1363   -2.3563 C   0  0  0  0  0  0  0  0  0  0  0  0
 34 35  2  0
 35 36  1  0
 36 37  2  0
 37 22  1  0
 22 23  2  0
 23 24  1  0
 24 25  2  0
 25 26  1  0
 26 27  1  0
 27 28  2  0
 28 29  1  0
 29 30  2  0
 30  1  1  0
  1  2  2  0
  2  3  1  0
  3  4  2  0
  4  5  1  0
  5  6  2  0
  5  7  1  0
  7  8  1  0
  8  9  1  0
  9 10  2  0
 10 11  1  0
 11 12  2  0
 12 13  1  0
 13 14  2  0
 14 15  1  0
 15 16  1  0
 16 17  1  0
 16 18  1  0
 15 19  2  0
 19 20  1  0
 20 21  2  0
 29 31  1  0
 31 32  1  0
 26 33  2  0
 37 38  1  0
 38 39  2  0
 39 34  1  0
 33 22  1  0
 31 25  1  0
  6  1  1  0
 21  9  1  0
 10  4  1  0
 21 13  1  0
M  END
>  <minimizedAffinity>  (615) 
-16.80499

$$$$
Mol: 153_2 - SminaDock
     RDKit          3D

 38 44  0  0  0  0  0  0  0  0999 V2000
    8.8381    5.7417  -12.3613 C   0  0  0  0  0  0  0  0  0  0  0  0
    9.5824    5.0189  -13.2774 C   0  0  0  0  0  0  0  0  0  0  0  0
    9.0737    3.8829  -13.8730 C   0  0  0  0  0  0  0  0  0  0  0  0
    7.8008    3.4144  -13.5838 C   0  0  0  0  0  0  0  0  0  0  0  0
    7.0573    4.1297  -12.6737 C   0  0  0  0  0  0  0  0  0  0  0  0
    7.5695    5.2729  -12.0745 C   0  0  0  0  0  0  0  0  0  0  0  0
    5.7286    3.6464  -12.3681 C   0  0  0  0  0  0  0  0  0  0  0  0
    5.0604    4.3314  -11.5221 O   0  0  0  0  0  0  0  0  0  0  0  0
    5.1604    2.4495  -12.9760 C   0  0  0  0  0  0  0  0  0  0  0  0
    6.0224    1.7439  -13.9399 C   0  0  0  0  0  0  0  0  0  0  0  0
    7.2987    2.2128  -14.2313 C   0  0  0  0  0  0  0  0  0  0  0  0
    8.0658    1.5407  -15.1218 N   0  0  0  0  0  0  0  0  0  0  0  0
    7.6050    0.4386  -15.7162 C   0  0  0  0  0  0  0  0  0  0  0  0
    8.2905   -0.2210  -16.5563 O   0  0  0  0  0  0  0  0  0  0  0  0
    6.3398   -0.0506  -15.4457 C   0  0  0  0  0  0  0  0  0  0  0  0
    5.5411    0.6057  -14.5511 C   0  0  0  0  0  0  0  0  0  0  0  0
    4.1981    0.0760  -14.2723 C   0  0  0  0  0  0  0  0  0  0  0  0
    3.7167   -0.5726  -15.5775 C   0  0  0  0  0  0  0  0  0  0  0  0
    4.5671   -1.6212  -15.8191 O   0  0  0  0  0  0  0  0  0  0  0  0
    5.8561   -1.2842  -16.1273 C   0  0  0  0  0  0  0  0  0  0  0  0
   11.2991    8.0853   -5.9549 C   0  0  0  0  0  0  0  0  0  0  0  0
   11.4305    9.2202   -6.7263 C   0  0  0  0  0  0  0  0  0  0  0  0
   11.0645    9.2296   -8.0730 C   0  0  0  0  0  0  0  0  0  0  0  0
   10.5622    8.0807   -8.6402 C   0  0  0  0  0  0  0  0  0  0  0  0
   10.4187    6.9265   -7.8916 C   0  0  0  0  0  0  0  0  0  0  0  0
    9.9133    5.7782   -8.4717 C   0  0  0  0  0  0  0  0  0  0  0  0
    9.5709    5.8326   -9.7826 N   0  0  0  0  0  0  0  0  0  0  0  0
    9.7100    6.9522  -10.5086 C   0  0  0  0  0  0  0  0  0  0  0  0
    9.3584    6.9097  -11.7475 N   0  0  0  0  0  0  0  0  0  0  0  0
   10.1991    8.0707   -9.9555 N   0  0  0  0  0  0  0  0  0  0  0  0
   10.2905    8.9199  -10.5585 H   0  0  0  0  0  0  0  0  0  0  0  0
   10.7933    6.9531   -6.5534 C   0  0  0  0  0  0  0  0  0  0  0  0
   12.4239    8.0604   -1.8319 C   0  0  0  0  0  0  0  0  0  0  0  0
   12.0906    6.8887   -2.5064 C   0  0  0  0  0  0  0  0  0  0  0  0
   11.7275    6.8990   -3.8385 C   0  0  0  0  0  0  0  0  0  0  0  0
   11.6833    8.0804   -4.5484 C   0  0  0  0  0  0  0  0  0  0  0  0
   12.0119    9.2456   -3.8882 C   0  0  0  0  0  0  0  0  0  0  0  0
   12.3792    9.2394   -2.5424 C   0  0  0  0  0  0  0  0  0  0  0  0
 33 34  2  0
 34 35  1  0
 35 36  2  0
 36 21  1  0
 21 22  2  0
 22 23  1  0
 23 24  2  0
 24 25  1  0
 25 26  1  0
 26 27  2  0
 27 28  1  0
 28 29  2  0
 29  1  1  0
  1  2  2  0
  2  3  1  0
  3  4  2  0
  4  5  1  0
  5  6  2  0
  5  7  1  0
  7  8  2  0
  7  9  1  0
  9 10  1  0
 10 11  2  0
 11 12  1  0
 12 13  1  0
 13 14  2  0
 13 15  1  0
 15 16  2  0
 16 17  1  0
 17 18  1  0
 18 19  1  0
 19 20  1  0
 28 30  1  0
 30 31  1  0
 25 32  2  0
 36 37  1  0
 37 38  2  0
 38 33  1  0
 32 21  1  0
 30 24  1  0
  6  1  1  0
 16 10  1  0
 11  4  1  0
 20 15  1  0
M  CHG  1  12  -1
M  END
>  <minimizedAffinity>  (616) 
-16.80824

$$$$
Mol: 117_42 - SminaDock
     RDKit          3D

 38 44  0  0  0  0  0  0  0  0999 V2000
    7.6397    4.5267  -12.8133 C   0  0  0  0  0  0  0  0  0  0  0  0
    6.5207    4.0997  -12.0925 C   0  0  0  0  0  0  0  0  0  0  0  0
    5.9469    2.9150  -12.4859 C   0  0  0  0  0  0  0  0  0  0  0  0
    6.4187    2.1357  -13.5479 C   0  0  0  0  0  0  0  0  0  0  0  0
    7.5240    2.6053  -14.2215 C   0  0  0  0  0  0  0  0  0  0  0  0
    8.1340    3.7853  -13.8660 C   0  0  0  0  0  0  0  0  0  0  0  0
    8.1719    1.9283  -15.3715 C   0  0  1  0  0  0  0  0  0  0  0  0
    7.1280    1.9437  -16.4710 C   0  0  0  0  0  0  0  0  0  0  0  0
    6.0105    1.0306  -16.2661 C   0  0  0  0  0  0  0  0  0  0  0  0
    5.5630    0.5489  -17.4867 C   0  0  0  0  0  0  0  0  0  0  0  0
    4.5093   -0.3351  -17.5862 C   0  0  0  0  0  0  0  0  0  0  0  0
    3.8454   -0.7855  -16.4657 C   0  0  0  0  0  0  0  0  0  0  0  0
    4.2870   -0.3088  -15.2446 C   0  0  0  0  0  0  0  0  0  0  0  0
    5.3410    0.5753  -15.1491 C   0  0  0  0  0  0  0  0  0  0  0  0
    5.5748    0.8999  -13.7261 C   0  0  0  0  0  0  0  0  0  0  0  0
    9.4495    2.5565  -15.8178 C   0  0  0  0  0  0  0  0  0  0  0  0
   10.0958    1.7282  -16.8927 C   0  0  0  0  0  0  0  0  0  0  0  0
   10.5507    0.3895  -16.4047 C   0  0  0  0  0  0  0  0  0  0  0  0
    9.9858    0.2031  -15.0209 C   0  0  0  0  0  0  0  0  0  0  0  0
    8.4798    0.4903  -15.0108 C   0  0  0  0  0  0  0  0  0  0  0  0
   10.9064    7.6803   -7.1201 C   0  0  0  0  0  0  0  0  0  0  0  0
   10.9192    8.6843   -8.0750 C   0  0  0  0  0  0  0  0  0  0  0  0
   10.3880    8.5035   -9.3354 C   0  0  0  0  0  0  0  0  0  0  0  0
    9.8157    7.2748   -9.6745 C   0  0  0  0  0  0  0  0  0  0  0  0
    9.7877    6.2592   -8.7497 C   0  0  0  0  0  0  0  0  0  0  0  0
    9.2179    5.0546   -9.1021 C   0  0  0  0  0  0  0  0  0  0  0  0
    8.7066    4.8952  -10.3258 N   0  0  0  0  0  0  0  0  0  0  0  0
    8.7384    5.8881  -11.2173 C   0  0  0  0  0  0  0  0  0  0  0  0
    8.2313    5.7377  -12.4249 N   0  0  0  0  0  0  0  0  0  0  0  0
    9.2872    7.0544  -10.8846 N   0  0  0  0  0  0  0  0  0  0  0  0
    9.3112    7.8387  -11.5930 H   0  0  0  0  0  0  0  0  0  0  0  0
   10.3312    6.4863   -7.5019 C   0  0  0  0  0  0  0  0  0  0  0  0
   12.5229    8.2099   -3.2186 C   0  0  0  0  0  0  0  0  0  0  0  0
   11.8121    7.0750   -3.5273 C   0  0  0  0  0  0  0  0  0  0  0  0
   11.3076    6.9431   -4.7962 C   0  0  0  0  0  0  0  0  0  0  0  0
   11.4756    7.8908   -5.7830 C   0  0  0  0  0  0  0  0  0  0  0  0
   12.1897    9.0304   -5.4723 C   0  0  0  0  0  0  0  0  0  0  0  0
   12.7037    9.1716   -4.1899 C   0  0  0  0  0  0  0  0  0  0  0  0
 33 34  2  0
 34 35  1  0
 35 36  2  0
 36 21  1  0
 21 22  2  0
 22 23  1  0
 23 24  2  0
 24 25  1  0
 25 26  1  0
 26 27  2  0
 27 28  1  0
 28 29  2  0
 29  1  1  0
  1  2  2  0
  2  3  1  0
  3  4  2  0
  4  5  1  0
  5  6  2  0
  5  7  1  0
  7  8  1  6
  8  9  1  0
  9 10  2  0
 10 11  1  0
 11 12  2  0
 12 13  1  0
 13 14  2  0
 14 15  1  0
  7 16  1  0
 16 17  1  0
 17 18  1  0
 18 19  1  0
 19 20  1  0
 28 30  1  0
 30 31  1  0
 25 32  2  0
 36 37  1  0
 37 38  2  0
 38 33  1  0
 32 21  1  0
 30 24  1  0
  6  1  1  0
 20  7  1  0
 15  4  1  0
 14  9  1  0
M  END
>  <minimizedAffinity>  (617) 
-16.77204

$$$$
Mol: 196_13 - SminaDock
     RDKit          3D

 38 44  0  0  0  0  0  0  0  0999 V2000
    8.6886    5.6342  -12.2244 C   0  0  0  0  0  0  0  0  0  0  0  0
    7.3330    5.4087  -12.1011 C   0  0  0  0  0  0  0  0  0  0  0  0
    6.7302    4.2708  -12.6065 C   0  0  0  0  0  0  0  0  0  0  0  0
    7.5280    3.3554  -13.2451 C   0  0  0  0  0  0  0  0  0  0  0  0
    7.0400    2.1761  -13.7943 C   0  0  0  0  0  0  0  0  0  0  0  0
    5.7043    1.8739  -13.7160 C   0  0  0  0  0  0  0  0  0  0  0  0
    5.2144    0.7015  -14.2612 C   0  0  0  0  0  0  0  0  0  0  0  0
    3.8685    0.3896  -14.1870 C   0  0  0  0  0  0  0  0  0  0  0  0
    3.4250   -0.7913  -14.7458 C   0  0  0  0  0  0  0  0  0  0  0  0
    4.2670   -1.6865  -15.3820 C   0  0  0  0  0  0  0  0  0  0  0  0
    5.6029   -1.3544  -15.4435 C   0  0  0  0  0  0  0  0  0  0  0  0
    6.0704   -0.1666  -14.8854 C   0  0  0  0  0  0  0  0  0  0  0  0
    7.4162    0.1047  -14.9821 C   0  0  0  0  0  0  0  0  0  0  0  0
    7.8906    1.2794  -14.4328 C   0  0  0  0  0  0  0  0  0  0  0  0
    9.2293    1.5600  -14.5233 C   0  0  0  0  0  0  0  0  0  0  0  0
    9.9797    0.7304  -15.1075 O   0  0  0  0  0  0  0  0  0  0  0  0
    9.7031    2.6886  -13.9990 N   0  0  0  0  0  0  0  0  0  0  0  0
   10.7368    2.8749  -14.0856 H   0  0  0  0  0  0  0  0  0  0  0  0
    8.9023    3.5732  -13.3761 C   0  0  0  0  0  0  0  0  0  0  0  0
    9.4721    4.7110  -12.8647 C   0  0  0  0  0  0  0  0  0  0  0  0
   11.3030    8.0043   -5.8706 C   0  0  0  0  0  0  0  0  0  0  0  0
   11.5341    9.0891   -6.6891 C   0  0  0  0  0  0  0  0  0  0  0  0
   11.1709    9.0435   -8.0201 C   0  0  0  0  0  0  0  0  0  0  0  0
   10.5642    7.9151   -8.5841 C   0  0  0  0  0  0  0  0  0  0  0  0
   10.3491    6.8465   -7.7292 C   0  0  0  0  0  0  0  0  0  0  0  0
   10.7066    6.8772   -6.3963 C   0  0  0  0  0  0  0  0  0  0  0  0
    9.7440    5.7212   -8.2902 C   0  0  0  0  0  0  0  0  0  0  0  0
    9.4010    5.7282   -9.6251 C   0  0  0  0  0  0  0  0  0  0  0  0
    9.6359    6.8195  -10.4392 C   0  0  0  0  0  0  0  0  0  0  0  0
    9.3016    6.8038  -11.7036 N   0  0  0  0  0  0  0  0  0  0  0  0
   10.2194    7.8959   -9.8844 N   0  0  0  0  0  0  0  0  0  0  0  0
   10.4058    8.7310  -10.4817 H   0  0  0  0  0  0  0  0  0  0  0  0
   12.4520    8.1386   -1.7495 C   0  0  0  0  0  0  0  0  0  0  0  0
   12.3576    9.2949   -2.4956 C   0  0  0  0  0  0  0  0  0  0  0  0
   11.9879    9.2687   -3.8283 C   0  0  0  0  0  0  0  0  0  0  0  0
   11.6965    8.0816   -4.4712 C   0  0  0  0  0  0  0  0  0  0  0  0
   11.7915    6.9246   -3.7224 C   0  0  0  0  0  0  0  0  0  0  0  0
   12.1609    6.9472   -2.3898 C   0  0  0  0  0  0  0  0  0  0  0  0
 33 34  2  0
 34 35  1  0
 35 36  2  0
 36 21  1  0
 21 22  2  0
 22 23  1  0
 23 24  2  0
 24 25  1  0
 25 26  2  0
 25 27  1  0
 27 28  2  0
 28 29  1  0
 29 30  2  0
 30  1  1  0
  1  2  2  0
  2  3  1  0
  3  4  2  0
  4  5  1  0
  5  6  2  0
  6  7  1  0
  7  8  2  0
  8  9  1  0
  9 10  2  0
 10 11  1  0
 11 12  2  0
 12 13  1  0
 13 14  2  0
 14 15  1  0
 15 16  2  0
 15 17  1  0
 17 18  1  0
 17 19  1  0
 19 20  2  0
 29 31  1  0
 31 32  1  0
 36 37  1  0
 37 38  2  0
 38 33  1  0
 26 21  1  0
 20  1  1  0
 31 24  1  0
 19  4  1  0
 14  5  1  0
 12  7  1  0
M  END
>  <minimizedAffinity>  (618) 
-16.80298

$$$$
Mol: 129_19 - SminaDock
     RDKit          3D

 41 47  0  0  0  0  0  0  0  0999 V2000
   11.9413    1.9088  -14.0594 H   0  0  0  0  0  0  0  0  0  0  0  0
   10.9452    1.8018  -13.9368 O   0  0  0  0  0  0  0  0  0  0  0  0
   10.0529    1.9678  -14.9715 C   0  0  0  0  0  0  0  0  0  0  0  0
   10.3684    2.2918  -16.1675 N   0  0  0  0  0  0  0  0  0  0  0  0
    9.2517    2.3894  -17.0131 C   0  0  0  0  0  0  0  0  0  0  0  0
    9.2168    2.6895  -18.2513 O   0  0  0  0  0  0  0  0  0  0  0  0
    8.1006    2.0898  -16.2519 N   0  0  0  0  0  0  0  0  0  0  0  0
    7.0979    2.0538  -16.5070 H   0  0  0  0  0  0  0  0  0  0  0  0
    8.5743    1.8019  -14.8876 C   0  0  2  0  0  0  0  0  0  0  0  0
    7.9873    2.7895  -13.9517 C   0  0  0  0  0  0  0  0  0  0  0  0
    8.7159    3.8665  -13.5640 C   0  0  0  0  0  0  0  0  0  0  0  0
    8.1317    4.8096  -12.7889 C   0  0  0  0  0  0  0  0  0  0  0  0
    6.8187    4.6578  -12.4085 C   0  0  0  0  0  0  0  0  0  0  0  0
    6.0267    3.5462  -12.7881 C   0  0  0  0  0  0  0  0  0  0  0  0
    4.6891    3.4143  -12.2204 C   0  0  0  0  0  0  0  0  0  0  0  0
    6.6460    2.6101  -13.5769 C   0  0  0  0  0  0  0  0  0  0  0  0
    5.9689    1.3401  -13.8862 C   0  0  0  0  0  0  0  0  0  0  0  0
    4.6183    1.2350  -13.7296 C   0  0  0  0  0  0  0  0  0  0  0  0
    3.9681    0.0794  -14.2051 C   0  0  0  0  0  0  0  0  0  0  0  0
    4.6833   -0.9150  -14.8161 C   0  0  0  0  0  0  0  0  0  0  0  0
    6.0420   -0.7971  -14.9711 C   0  0  0  0  0  0  0  0  0  0  0  0
    6.7010    0.3251  -14.5095 C   0  0  0  0  0  0  0  0  0  0  0  0
    8.1806    0.3937  -14.6022 C   0  0  0  0  0  0  0  0  0  0  0  0
    8.7940    5.9653  -12.3347 N   0  0  0  0  0  0  0  0  0  0  0  0
    9.2040    6.1400  -11.1323 C   0  0  0  0  0  0  0  0  0  0  0  0
    9.8332    7.2507  -10.7224 N   0  0  0  0  0  0  0  0  0  0  0  0
   10.2610    7.4215   -9.4477 C   0  0  0  0  0  0  0  0  0  0  0  0
   10.9078    8.5750   -9.0471 C   0  0  0  0  0  0  0  0  0  0  0  0
   11.3226    8.6973   -7.7371 C   0  0  0  0  0  0  0  0  0  0  0  0
   11.1199    7.7096   -6.7953 C   0  0  0  0  0  0  0  0  0  0  0  0
   10.4726    6.5664   -7.2161 C   0  0  0  0  0  0  0  0  0  0  0  0
   10.0397    6.4113   -8.5358 C   0  0  0  0  0  0  0  0  0  0  0  0
    9.4006    5.2811   -8.9483 C   0  0  0  0  0  0  0  0  0  0  0  0
    8.9958    5.1656  -10.2334 N   0  0  0  0  0  0  0  0  0  0  0  0
    8.5034    4.2653  -10.5000 H   0  0  0  0  0  0  0  0  0  0  0  0
   11.5726    7.8709   -5.4138 C   0  0  0  0  0  0  0  0  0  0  0  0
   11.3308    6.8986   -4.4658 C   0  0  0  0  0  0  0  0  0  0  0  0
   11.7542    7.0341   -3.1447 C   0  0  0  0  0  0  0  0  0  0  0  0
   12.4373    8.1637   -2.7463 C   0  0  0  0  0  0  0  0  0  0  0  0
   12.6780    9.1339   -3.6945 C   0  0  0  0  0  0  0  0  0  0  0  0
   12.2589    8.9994   -5.0014 C   0  0  0  0  0  0  0  0  0  0  0  0
  1  2  1  0
  2  3  1  0
  3  4  2  0
  4  5  1  0
  5  6  2  0
  5  7  1  0
  7  8  1  0
  9  7  1  0
  9 10  1  0
 10 11  2  0
 11 12  1  0
 12 24  1  0
 24 25  2  0
 25 26  1  0
 26 27  2  0
 27 28  1  0
 28 29  2  0
 29 30  1  0
 30 36  1  0
 36 37  2  0
 37 38  1  0
 38 39  2  0
 39 40  1  0
 40 41  2  0
 30 31  2  0
 31 32  1  0
 32 33  2  0
 33 34  1  0
 34 35  1  0
 12 13  2  0
 13 14  1  0
 14 15  1  0
 14 16  2  0
 16 17  1  0
 17 18  2  0
 18 19  1  0
 19 20  2  0
 20 21  1  0
 21 22  2  0
 22 23  1  0
  9  3  1  0
 16 10  1  0
 22 17  1  0
  9 23  1  1
 34 25  1  0
 32 27  1  0
 41 36  1  0
M  END
>  <minimizedAffinity>  (619) 
-16.82469

$$$$
Mol: 184_36 - SminaDock
     RDKit          3D

 44 51  0  0  0  0  0  0  0  0999 V2000
    8.6386   -2.9270  -18.8858 H   0  0  0  0  0  0  0  0  0  0  0  0
    8.2551   -1.9901  -18.9468 O   0  0  0  0  0  0  0  0  0  0  0  0
    7.3181   -1.5246  -18.0058 C   0  0  0  0  0  0  0  0  0  0  0  0
    6.0812   -2.1222  -17.9080 C   0  0  0  0  0  0  0  0  0  0  0  0
    5.1521   -1.6800  -16.9935 C   0  0  0  0  0  0  0  0  0  0  0  0
    5.4525   -0.6350  -16.1676 C   0  0  0  0  0  0  0  0  0  0  0  0
    4.8266    0.0484  -15.1978 N   0  0  0  0  0  0  0  0  0  0  0  0
    5.6368    1.0103  -14.7282 C   0  0  0  0  0  0  0  0  0  0  0  0
    6.8466    1.0354  -15.3427 C   0  0  0  0  0  0  0  0  0  0  0  0
    6.7768   -0.0084  -16.2840 C   0  0  0  0  0  0  0  0  0  0  0  0
    7.6091   -0.4964  -17.1908 N   0  0  0  0  0  0  0  0  0  0  0  0
    8.5482   -0.0538  -17.2912 H   0  0  0  0  0  0  0  0  0  0  0  0
    7.9661    1.9771  -15.0246 C   0  0  1  0  0  0  0  0  0  0  0  0
    7.5346    2.9682  -14.0090 C   0  0  0  0  0  0  0  0  0  0  0  0
    8.4350    3.9759  -13.6386 C   0  0  0  0  0  0  0  0  0  0  0  0
    8.1246    4.9224  -12.6831 C   0  0  0  0  0  0  0  0  0  0  0  0
    6.8933    4.8927  -12.0608 C   0  0  0  0  0  0  0  0  0  0  0  0
    5.9931    3.9137  -12.4076 C   0  0  0  0  0  0  0  0  0  0  0  0
    6.3345    2.9731  -13.3752 C   0  0  0  0  0  0  0  0  0  0  0  0
    5.3354    1.9962  -13.7048 C   0  0  0  0  0  0  0  0  0  0  0  0
    4.2149    1.9911  -13.1183 O   0  0  0  0  0  0  0  0  0  0  0  0
    9.0715    1.2160  -14.3269 C   0  0  0  0  0  0  0  0  0  0  0  0
   10.2086    0.7702  -15.1348 C   0  0  0  0  0  0  0  0  0  0  0  0
   10.6555    1.6249  -16.2558 C   0  0  0  0  0  0  0  0  0  0  0  0
    9.8194    2.7970  -16.5711 C   0  0  0  0  0  0  0  0  0  0  0  0
    8.3933    2.7502  -16.2264 C   0  0  0  0  0  0  0  0  0  0  0  0
    9.0731    5.9439  -12.3266 N   0  0  0  0  0  0  0  0  0  0  0  0
    9.3770    6.1213  -11.0840 C   0  0  0  0  0  0  0  0  0  0  0  0
   10.2468    7.0477  -10.6775 N   0  0  0  0  0  0  0  0  0  0  0  0
   10.5743    7.2449   -9.3844 C   0  0  0  0  0  0  0  0  0  0  0  0
   11.4774    8.2107   -8.9925 C   0  0  0  0  0  0  0  0  0  0  0  0
   11.8076    8.4069   -7.6677 C   0  0  0  0  0  0  0  0  0  0  0  0
   11.2178    7.6119   -6.6872 C   0  0  0  0  0  0  0  0  0  0  0  0
   10.3148    6.6457   -7.0759 C   0  0  0  0  0  0  0  0  0  0  0  0
    9.9908    6.4593   -8.4220 C   0  0  0  0  0  0  0  0  0  0  0  0
    9.0928    5.4997   -8.8175 C   0  0  0  0  0  0  0  0  0  0  0  0
    8.8080    5.3548  -10.1420 N   0  0  0  0  0  0  0  0  0  0  0  0
    8.1231    4.6147  -10.3827 H   0  0  0  0  0  0  0  0  0  0  0  0
   11.5723    7.8241   -5.2763 C   0  0  0  0  0  0  0  0  0  0  0  0
   12.0982    9.0159   -4.8248 C   0  0  0  0  0  0  0  0  0  0  0  0
   12.4356    9.2202   -3.4856 C   0  0  0  0  0  0  0  0  0  0  0  0
   12.2400    8.2088   -2.5890 C   0  0  0  0  0  0  0  0  0  0  0  0
   11.7205    7.0143   -3.0020 C   0  0  0  0  0  0  0  0  0  0  0  0
   11.3905    6.8223   -4.3276 C   0  0  0  0  0  0  0  0  0  0  0  0
  1  2  1  0
  2  3  1  0
  3  4  2  0
  4  5  1  0
  5  6  2  0
  6  7  1  0
  7  8  2  0
  8  9  1  0
  9 10  2  0
 10 11  1  0
 11 12  1  0
  9 13  1  0
 13 14  1  0
 14 15  2  0
 15 16  1  0
 16 27  1  0
 27 28  2  0
 28 29  1  0
 29 30  2  0
 30 31  1  0
 31 32  2  0
 32 33  1  0
 33 39  1  0
 39 40  2  0
 40 41  1  0
 41 42  2  0
 42 43  1  0
 43 44  2  0
 33 34  2  0
 34 35  1  0
 35 36  2  0
 36 37  1  0
 37 38  1  0
 16 17  2  0
 17 18  1  0
 18 19  2  0
 19 20  1  0
 20 21  2  0
 13 22  1  1
 22 23  1  0
 23 24  1  0
 24 25  1  0
 25 26  1  0
 11  3  1  0
 26 13  1  0
 10  6  1  0
 19 14  1  0
 20  8  1  0
 37 28  1  0
 35 30  1  0
 44 39  1  0
M  END
>  <minimizedAffinity>  (620) 
-16.84176

$$$$
Mol: 182_53 - SminaDock
     RDKit          3D

 42 49  0  0  0  0  0  0  0  0999 V2000
    5.5059   -0.8771  -16.5206 N   0  0  0  0  0  0  0  0  0  0  0  0
    6.6436   -0.0471  -16.6128 C   0  0  0  0  0  0  0  0  0  0  0  0
    7.5595   -0.1539  -17.4533 O   0  0  0  0  0  0  0  0  0  0  0  0
    6.5792    0.9693  -15.5560 C   0  0  0  0  0  0  0  0  0  0  0  0
    7.4319    2.0003  -15.2202 C   0  0  0  0  0  0  0  0  0  0  0  0
    7.1742    2.8570  -14.1661 C   0  0  0  0  0  0  0  0  0  0  0  0
    6.0303    2.6588  -13.4446 C   0  0  0  0  0  0  0  0  0  0  0  0
    5.1535    1.6320  -13.7569 C   0  0  0  0  0  0  0  0  0  0  0  0
    5.4261    0.7774  -14.8206 C   0  0  0  0  0  0  0  0  0  0  0  0
    4.7346   -0.3706  -15.4011 C   0  0  0  0  0  0  0  0  0  0  0  0
    3.6482   -0.8060  -14.9599 O   0  0  0  0  0  0  0  0  0  0  0  0
    5.9637    3.6824  -12.3788 C   0  0  0  0  0  0  0  0  0  0  0  0
    7.1968    4.4905  -12.5667 C   0  0  0  0  0  0  0  0  0  0  0  0
    7.7269    5.5831  -11.9086 C   0  0  0  0  0  0  0  0  0  0  0  0
    8.9115    6.1653  -12.2812 C   0  0  0  0  0  0  0  0  0  0  0  0
    9.6204    5.6657  -13.3454 C   0  0  0  0  0  0  0  0  0  0  0  0
    9.1234    4.5781  -14.0247 C   0  0  0  0  0  0  0  0  0  0  0  0
    7.9341    4.0093  -13.6346 C   0  0  0  0  0  0  0  0  0  0  0  0
    9.3948    7.2835  -11.5600 N   0  0  0  0  0  0  0  0  0  0  0  0
    9.7458    7.2181  -10.3196 C   0  0  0  0  0  0  0  0  0  0  0  0
   10.1887    8.3498   -9.7459 N   0  0  0  0  0  0  0  0  0  0  0  0
   10.5673    8.3232   -8.4410 C   0  0  0  0  0  0  0  0  0  0  0  0
   11.0279    9.4388   -7.7921 C   0  0  0  0  0  0  0  0  0  0  0  0
   11.4067    9.3749   -6.4541 C   0  0  0  0  0  0  0  0  0  0  0  0
   11.3281    8.1920   -5.7514 C   0  0  0  0  0  0  0  0  0  0  0  0
   10.8617    7.0856   -6.4283 C   0  0  0  0  0  0  0  0  0  0  0  0
   10.4860    7.1368   -7.7453 C   0  0  0  0  0  0  0  0  0  0  0  0
   10.0222    5.9897   -8.3776 C   0  0  0  0  0  0  0  0  0  0  0  0
    9.6638    6.0609   -9.6504 N   0  0  0  0  0  0  0  0  0  0  0  0
    9.3010    5.2331  -10.2027 H   0  0  0  0  0  0  0  0  0  0  0  0
   11.7157    8.0946   -4.3527 C   0  0  0  0  0  0  0  0  0  0  0  0
   11.7327    6.8722   -3.7186 C   0  0  0  0  0  0  0  0  0  0  0  0
   12.0956    6.7381   -2.3916 C   0  0  0  0  0  0  0  0  0  0  0  0
   12.4492    7.8836   -1.6987 C   0  0  0  0  0  0  0  0  0  0  0  0
   12.4459    9.1232   -2.2928 C   0  0  0  0  0  0  0  0  0  0  0  0
   12.0728    9.2164   -3.6359 C   0  0  0  0  0  0  0  0  0  0  0  0
    4.3334   -4.1526  -18.8132 C   0  0  0  0  0  0  0  0  0  0  0  0
    3.7029   -2.9811  -18.9826 N   0  0  0  0  0  0  0  0  0  0  0  0
    4.0966   -1.9137  -18.2245 C   0  0  0  0  0  0  0  0  0  0  0  0
    5.1076   -1.9876  -17.2985 C   0  0  0  0  0  0  0  0  0  0  0  0
    5.7360   -3.1924  -17.1432 N   0  0  0  0  0  0  0  0  0  0  0  0
    5.3496   -4.2408  -17.8874 C   0  0  0  0  0  0  0  0  0  0  0  0
 37 38  2  0
 38 39  1  0
 39 40  2  0
 40  1  1  0
  1  2  1  0
  2  3  2  0
  2  4  1  0
  4  5  2  0
  5  6  1  0
  6  7  2  0
  7  8  1  0
  8  9  2  0
  9 10  1  0
 10 11  2  0
  7 12  1  0
 12 13  1  0
 13 14  2  0
 14 15  1  0
 15 19  1  0
 19 20  2  0
 20 21  1  0
 21 22  2  0
 22 23  1  0
 23 24  2  0
 24 25  1  0
 25 31  1  0
 31 32  2  0
 32 33  1  0
 33 34  2  0
 34 35  1  0
 35 36  2  0
 25 26  2  0
 26 27  1  0
 27 28  2  0
 28 29  1  0
 29 30  1  0
 15 16  2  0
 16 17  1  0
 17 18  2  0
 40 41  1  0
 41 42  2  0
 42 37  1  0
 10  1  1  0
 18 13  1  0
  9  4  1  0
 29 20  1  0
 18  6  1  0
 27 22  1  0
 36 31  1  0
M  END
>  <minimizedAffinity>  (621) 
-16.77065

$$$$
Mol: 165_37 - SminaDock
     RDKit          3D

 44 50  0  0  0  0  0  0  0  0999 V2000
    5.8834    4.9843  -12.5249 N   0  0  0  0  0  0  0  0  0  0  0  0
    7.2708    4.9403  -12.8054 C   0  0  0  0  0  0  0  0  0  0  0  0
    8.0878    5.9935  -12.4075 C   0  0  0  0  0  0  0  0  0  0  0  0
    9.4444    6.0119  -12.5935 C   0  0  0  0  0  0  0  0  0  0  0  0
   10.0009    4.8968  -13.2248 C   0  0  0  0  0  0  0  0  0  0  0  0
    9.2360    3.8444  -13.6363 C   0  0  0  0  0  0  0  0  0  0  0  0
    7.8446    3.8477  -13.4245 C   0  0  0  0  0  0  0  0  0  0  0  0
    6.9750    2.9301  -13.8381 C   0  0  0  0  0  0  0  0  0  0  0  0
    5.6769    3.3397  -13.5772 O   0  0  0  0  0  0  0  0  0  0  0  0
    7.2123    1.6472  -14.4666 C   0  0  0  0  0  0  0  0  0  0  0  0
    8.3702    1.1906  -15.1076 C   0  0  0  0  0  0  0  0  0  0  0  0
    8.3048   -0.0032  -15.7861 C   0  0  0  0  0  0  0  0  0  0  0  0
    9.3771   -0.3962  -16.3694 O   0  0  0  0  0  0  0  0  0  0  0  0
    7.2165   -0.7445  -15.8630 N   0  0  0  0  0  0  0  0  0  0  0  0
    6.1051   -0.3318  -15.2488 C   0  0  0  0  0  0  0  0  0  0  0  0
    4.9727   -1.1329  -15.2620 C   0  0  0  0  0  0  0  0  0  0  0  0
    3.8354   -0.7716  -14.5839 C   0  0  0  0  0  0  0  0  0  0  0  0
    3.8107    0.4021  -13.8750 C   0  0  0  0  0  0  0  0  0  0  0  0
    4.9431    1.2337  -13.8461 C   0  0  0  0  0  0  0  0  0  0  0  0
    6.0542    0.8743  -14.5237 C   0  0  0  0  0  0  0  0  0  0  0  0
    9.7120    1.7525  -15.0564 C   0  0  0  0  0  0  0  0  0  0  0  0
    9.9316    2.9828  -14.3651 C   0  0  0  0  0  0  0  0  0  0  0  0
    5.3984    4.4605  -11.7585 H   0  0  0  0  0  0  0  0  0  0  0  0
    5.2655    5.6161  -13.1074 H   0  0  0  0  0  0  0  0  0  0  0  0
    5.1460    3.7843  -14.4023 H   0  0  0  0  0  0  0  0  0  0  0  0
    7.2057   -1.6335  -16.3858 H   0  0  0  0  0  0  0  0  0  0  0  0
   10.2944    7.0693  -12.1945 N   0  0  0  0  0  0  0  0  0  0  0  0
   10.6220    7.7456  -12.9499 H   0  0  0  0  0  0  0  0  0  0  0  0
   10.7607    7.3302  -10.8964 C   0  0  0  0  0  0  0  0  0  0  0  0
   11.9049    7.9501  -10.5796 N   0  0  0  0  0  0  0  0  0  0  0  0
   12.3194    8.1815   -9.3212 C   0  0  0  0  0  0  0  0  0  0  0  0
   11.5508    7.7729   -8.2502 C   0  0  0  0  0  0  0  0  0  0  0  0
   11.9583    8.0004   -6.9540 C   0  0  0  0  0  0  0  0  0  0  0  0
   11.1792    7.5857   -5.8862 C   0  0  0  0  0  0  0  0  0  0  0  0
    9.9967    6.9452   -6.1901 C   0  0  0  0  0  0  0  0  0  0  0  0
    9.5918    6.7192   -7.4900 C   0  0  0  0  0  0  0  0  0  0  0  0
   10.3696    7.1333   -8.5527 C   0  0  0  0  0  0  0  0  0  0  0  0
   10.0133    6.9332   -9.8273 N   0  0  0  0  0  0  0  0  0  0  0  0
   11.6173    7.8297   -4.5140 C   0  0  0  0  0  0  0  0  0  0  0  0
   11.7558    6.7809   -3.6445 C   0  0  0  0  0  0  0  0  0  0  0  0
   12.1661    6.9671   -2.3422 C   0  0  0  0  0  0  0  0  0  0  0  0
   12.4411    8.2446   -1.9152 C   0  0  0  0  0  0  0  0  0  0  0  0
   12.3061    9.3010   -2.7760 C   0  0  0  0  0  0  0  0  0  0  0  0
   11.9003    9.1034   -4.0585 C   0  0  0  0  0  0  0  0  0  0  0  0
  1  2  1  0
  2  3  2  0
  3  4  1  0
  4 27  1  0
 27 29  1  0
 29 30  2  0
 30 31  1  0
 31 32  2  0
 32 33  1  0
 33 34  2  0
 34 39  1  0
 39 40  2  0
 40 41  1  0
 41 42  2  0
 42 43  1  0
 43 44  2  0
 34 35  1  0
 35 36  2  0
 36 37  1  0
 37 38  2  0
  4  5  2  0
  5  6  1  0
  6  7  1  0
  7  8  2  0
  8  9  1  0
  8 10  1  0
 10 11  2  0
 11 12  1  0
 12 13  2  0
 12 14  1  0
 14 15  1  0
 15 16  2  0
 16 17  1  0
 17 18  2  0
 18 19  1  0
 19 20  2  0
 11 21  1  0
 21 22  1  0
  7  2  1  0
 20 10  1  0
 38 29  1  0
 22  6  2  0
 37 32  1  0
 20 15  1  0
 44 39  1  0
  1 23  1  0
  1 24  1  0
 27 28  1  0
  9 25  1  0
 14 26  1  0
M  END
>  <minimizedAffinity>  (622) 
-16.78139

$$$$
Mol: 164_28 - SminaDock
     RDKit          3D

 39 45  0  0  0  0  0  0  0  0999 V2000
    8.1032    1.0828  -17.7256 H   0  0  0  0  0  0  0  0  0  0  0  0
    8.1234    0.3354  -17.0284 O   0  0  0  0  0  0  0  0  0  0  0  0
    6.9611   -0.3386  -16.6848 C   0  0  0  0  0  0  0  0  0  0  0  0
    6.5832   -1.4301  -17.3689 N   0  0  0  0  0  0  0  0  0  0  0  0
    5.4447   -2.1087  -17.0489 C   0  0  0  0  0  0  0  0  0  0  0  0
    5.0904   -3.1329  -17.6910 O   0  0  0  0  0  0  0  0  0  0  0  0
    4.6664   -1.7039  -16.0378 N   0  0  0  0  0  0  0  0  0  0  0  0
    3.7858   -2.1777  -15.7439 H   0  0  0  0  0  0  0  0  0  0  0  0
    5.0385   -0.6003  -15.3380 C   0  0  0  0  0  0  0  0  0  0  0  0
    4.2428   -0.1615  -14.2812 C   0  0  0  0  0  0  0  0  0  0  0  0
    4.5862    0.9463  -13.5536 C   0  0  0  0  0  0  0  0  0  0  0  0
    5.7454    1.6313  -13.8846 C   0  0  0  0  0  0  0  0  0  0  0  0
    6.5541    1.2247  -14.9228 C   0  0  0  0  0  0  0  0  0  0  0  0
    6.1846    0.0925  -15.6510 C   0  0  0  0  0  0  0  0  0  0  0  0
    7.6953    2.1377  -15.0308 C   0  0  0  0  0  0  0  0  0  0  0  0
    7.4648    3.1057  -13.9559 C   0  0  0  0  0  0  0  0  0  0  0  0
    8.2256    4.1993  -13.5840 C   0  0  0  0  0  0  0  0  0  0  0  0
    7.8084    4.9861  -12.5208 C   0  0  0  0  0  0  0  0  0  0  0  0
    6.6485    4.7102  -11.8163 C   0  0  0  0  0  0  0  0  0  0  0  0
    5.9071    3.6241  -12.1975 C   0  0  0  0  0  0  0  0  0  0  0  0
    6.3178    2.8289  -13.2628 C   0  0  0  0  0  0  0  0  0  0  0  0
    8.6430    6.0890  -12.2005 N   0  0  0  0  0  0  0  0  0  0  0  0
    9.0538    6.2263  -11.0016 C   0  0  0  0  0  0  0  0  0  0  0  0
    8.7027    5.3416  -10.0551 N   0  0  0  0  0  0  0  0  0  0  0  0
    9.1198    5.4585   -8.7830 C   0  0  0  0  0  0  0  0  0  0  0  0
    9.9335    6.4967   -8.3803 C   0  0  0  0  0  0  0  0  0  0  0  0
   10.3800    6.6459   -7.0808 C   0  0  0  0  0  0  0  0  0  0  0  0
   11.1951    7.6892   -6.6866 C   0  0  0  0  0  0  0  0  0  0  0  0
   11.5502    8.5930   -7.6667 C   0  0  0  0  0  0  0  0  0  0  0  0
   11.1060    8.4477   -8.9669 C   0  0  0  0  0  0  0  0  0  0  0  0
   10.2923    7.4048   -9.3567 C   0  0  0  0  0  0  0  0  0  0  0  0
    9.8480    7.2427  -10.6154 N   0  0  0  0  0  0  0  0  0  0  0  0
   10.1501    7.9667  -11.3337 H   0  0  0  0  0  0  0  0  0  0  0  0
   11.6610    7.8357   -5.3080 C   0  0  0  0  0  0  0  0  0  0  0  0
   11.3883    6.8404   -4.3984 C   0  0  0  0  0  0  0  0  0  0  0  0
   11.8050    6.9277   -3.0833 C   0  0  0  0  0  0  0  0  0  0  0  0
   12.5135    8.0189   -2.6262 C   0  0  0  0  0  0  0  0  0  0  0  0
   12.7877    9.0185   -3.5378 C   0  0  0  0  0  0  0  0  0  0  0  0
   12.3681    8.9224   -4.8469 C   0  0  0  0  0  0  0  0  0  0  0  0
  1  2  1  0
  2  3  1  0
  3  4  2  0
  4  5  1  0
  5  6  2  0
  5  7  1  0
  7  8  1  0
  7  9  1  0
  9 10  2  0
 10 11  1  0
 11 12  2  0
 12 13  1  0
 13 14  2  0
 13 15  1  0
 15 16  1  0
 16 17  2  0
 17 18  1  0
 18 22  1  0
 22 23  2  0
 23 24  1  0
 24 25  2  0
 25 26  1  0
 26 27  2  0
 27 28  1  0
 28 34  1  0
 34 35  2  0
 35 36  1  0
 36 37  2  0
 37 38  1  0
 38 39  2  0
 28 29  2  0
 29 30  1  0
 30 31  2  0
 31 32  1  0
 32 33  1  0
 18 19  2  0
 19 20  1  0
 20 21  2  0
 14  3  1  0
 21 16  1  0
 14  9  1  0
 32 23  1  0
 21 12  1  0
 31 26  1  0
 39 34  1  0
M  END
>  <minimizedAffinity>  (623) 
-16.80045

$$$$
Mol: 163_27 - SminaDock
     RDKit          3D

 36 42  0  0  0  0  0  0  0  0999 V2000
   11.3150    8.0927   -5.9883 C   0  0  0  0  0  0  0  0  0  0  0  0
   11.5155    9.1963   -6.7910 C   0  0  0  0  0  0  0  0  0  0  0  0
   11.1526    9.1860   -8.1213 C   0  0  0  0  0  0  0  0  0  0  0  0
   10.5727    8.0760   -8.7156 C   0  0  0  0  0  0  0  0  0  0  0  0
   10.3726    6.9732   -7.9126 C   0  0  0  0  0  0  0  0  0  0  0  0
    9.7965    5.8688   -8.5012 C   0  0  0  0  0  0  0  0  0  0  0  0
    9.4645    5.9194   -9.8023 N   0  0  0  0  0  0  0  0  0  0  0  0
    9.6567    6.9911  -10.5907 C   0  0  0  0  0  0  0  0  0  0  0  0
    9.3169    6.9807  -11.8353 N   0  0  0  0  0  0  0  0  0  0  0  0
   10.2232    8.0785  -10.0139 N   0  0  0  0  0  0  0  0  0  0  0  0
   10.3794    8.9269  -10.6231 H   0  0  0  0  0  0  0  0  0  0  0  0
   10.7386    6.9846   -6.5723 C   0  0  0  0  0  0  0  0  0  0  0  0
    8.7308    5.8003  -12.3548 C   0  0  0  0  0  0  0  0  0  0  0  0
    9.5037    4.9693  -13.1350 C   0  0  0  0  0  0  0  0  0  0  0  0
    8.9560    3.8063  -13.6571 C   0  0  0  0  0  0  0  0  0  0  0  0
    7.6429    3.5037  -13.3833 C   0  0  0  0  0  0  0  0  0  0  0  0
    6.8755    4.3344  -12.6061 C   0  0  0  0  0  0  0  0  0  0  0  0
    7.4177    5.5106  -12.0735 C   0  0  0  0  0  0  0  0  0  0  0  0
    5.4539    4.0812  -12.2960 C   0  0  0  0  0  0  0  0  0  0  0  0
    4.9119    2.7847  -12.7540 C   0  0  0  0  0  0  0  0  0  0  0  0
    5.7600    1.9661  -13.6086 C   0  0  0  0  0  0  0  0  0  0  0  0
    7.0490    2.2704  -13.9030 C   0  0  0  0  0  0  0  0  0  0  0  0
    7.5346    1.2878  -14.6967 N   0  0  0  0  0  0  0  0  0  0  0  0
    6.6337    0.3491  -14.9438 C   0  0  0  0  0  0  0  0  0  0  0  0
    6.5680   -0.8126  -15.6430 N   0  0  0  0  0  0  0  0  0  0  0  0
    7.4243   -1.1123  -16.1506 H   0  0  0  0  0  0  0  0  0  0  0  0
    5.4508   -1.5672  -15.6945 C   0  0  0  0  0  0  0  0  0  0  0  0
    4.2917   -1.2099  -15.0375 C   0  0  0  0  0  0  0  0  0  0  0  0
    4.2891   -0.0260  -14.2990 C   0  0  0  0  0  0  0  0  0  0  0  0
    5.4275    0.7448  -14.2454 C   0  0  0  0  0  0  0  0  0  0  0  0
   12.3841    7.8941   -1.9139 C   0  0  0  0  0  0  0  0  0  0  0  0
   12.3883    9.1149   -2.5551 C   0  0  0  0  0  0  0  0  0  0  0  0
   12.0457    9.2207   -3.8835 C   0  0  0  0  0  0  0  0  0  0  0  0
   11.6963    8.0894   -4.5713 C   0  0  0  0  0  0  0  0  0  0  0  0
   11.6903    6.8527   -3.9280 C   0  0  0  0  0  0  0  0  0  0  0  0
   12.0331    6.7516   -2.6018 C   0  0  0  0  0  0  0  0  0  0  0  0
 31 32  2  0
 32 33  1  0
 33 34  2  0
 34  1  1  0
  1  2  2  0
  2  3  1  0
  3  4  2  0
  4  5  1  0
  5  6  1  0
  6  7  2  0
  7  8  1  0
  8  9  2  0
  9 13  1  0
 13 14  2  0
 14 15  1  0
 15 16  2  0
 16 17  1  0
 17 18  2  0
 17 19  1  0
 19 20  1  0
 20 21  1  0
 21 22  2  0
 22 23  1  0
 23 24  2  0
 24 25  1  0
 25 26  1  0
 25 27  1  0
 27 28  2  0
 28 29  1  0
 29 30  2  0
  8 10  1  0
 10 11  1  0
  5 12  2  0
 34 35  1  0
 35 36  2  0
 36 31  1  0
 12  1  1  0
 10  4  1  0
 18 13  1  0
 30 21  1  0
 22 16  1  0
 30 24  1  0
M  END
>  <minimizedAffinity>  (624) 
-16.84556

$$$$
Mol: 78_35 - SminaDock
     RDKit          3D

 36 42  0  0  0  0  0  0  0  0999 V2000
    8.2988    7.9798  -12.4054 C   0  0  0  0  0  0  0  0  0  0  0  0
    9.7182    7.4514  -12.1929 C   0  0  1  0  0  0  0  0  0  0  0  0
   10.0601    7.4292  -10.7538 C   0  0  0  0  0  0  0  0  0  0  0  0
   10.8109    8.5330  -10.4136 C   0  0  0  0  0  0  0  0  0  0  0  0
   11.2331    8.7137   -9.1237 C   0  0  0  0  0  0  0  0  0  0  0  0
   10.9322    7.8137   -8.1181 C   0  0  0  0  0  0  0  0  0  0  0  0
   10.1814    6.7235   -8.4928 C   0  0  0  0  0  0  0  0  0  0  0  0
    9.7467    6.5190   -9.7744 C   0  0  0  0  0  0  0  0  0  0  0  0
    8.9628    5.2597   -9.8562 C   0  0  0  0  0  0  0  0  0  0  0  0
    8.4898    4.9629  -11.2751 C   0  0  0  0  0  0  0  0  0  0  0  0
    9.6699    4.9167  -12.1613 C   0  0  1  0  0  0  0  0  0  0  0  0
    9.6813    3.8379  -13.1771 C   0  0  0  0  0  0  0  0  0  0  0  0
    8.6390    2.9938  -13.4385 C   0  0  0  0  0  0  0  0  0  0  0  0
    8.7689    2.0101  -14.4289 C   0  0  0  0  0  0  0  0  0  0  0  0
    9.9643    1.9357  -15.1091 C   0  0  0  0  0  0  0  0  0  0  0  0
   11.0153    2.7858  -14.8467 C   0  0  0  0  0  0  0  0  0  0  0  0
   10.8736    3.7330  -13.8846 C   0  0  0  0  0  0  0  0  0  0  0  0
   11.9429    4.7226  -13.5120 C   0  0  0  0  0  0  0  0  0  0  0  0
   11.3956    6.1249  -13.3851 C   0  0  0  0  0  0  0  0  0  0  0  0
    9.9684    6.1862  -12.9246 C   0  0  2  0  0  0  0  0  0  0  0  0
   11.4092    8.0679   -6.7691 C   0  0  0  0  0  0  0  0  0  0  0  0
   12.1541    9.1932   -6.4931 C   0  0  0  0  0  0  0  0  0  0  0  0
   12.6246    9.4655   -5.2070 C   0  0  0  0  0  0  0  0  0  0  0  0
   12.3481    8.5981   -4.1676 C   0  0  0  0  0  0  0  0  0  0  0  0
   12.8119    8.8631   -2.8813 C   0  0  0  0  0  0  0  0  0  0  0  0
   12.5323    7.9901   -1.8349 C   0  0  0  0  0  0  0  0  0  0  0  0
   11.7936    6.8649   -2.0872 C   0  0  0  0  0  0  0  0  0  0  0  0
   11.3437    6.6210   -3.3667 C   0  0  0  0  0  0  0  0  0  0  0  0
   11.6031    7.4654   -4.4252 C   0  0  0  0  0  0  0  0  0  0  0  0
   11.1437    7.2126   -5.7149 C   0  0  0  0  0  0  0  0  0  0  0  0
    7.6668    1.0965  -14.7236 C   0  0  0  0  0  0  0  0  0  0  0  0
    7.4088    0.0200  -13.8922 C   0  0  0  0  0  0  0  0  0  0  0  0
    6.3788   -0.8637  -14.1334 C   0  0  0  0  0  0  0  0  0  0  0  0
    5.5521   -0.7110  -15.2259 C   0  0  0  0  0  0  0  0  0  0  0  0
    5.7977    0.3660  -16.0719 C   0  0  0  0  0  0  0  0  0  0  0  0
    6.8392    1.2486  -15.8165 C   0  0  0  0  0  0  0  0  0  0  0  0
  2  1  1  1
  2  3  1  0
  3  4  2  0
  4  5  1  0
  5  6  2  0
  6 21  1  0
 21 22  2  0
 22 23  1  0
 23 24  2  0
 24 25  1  0
 25 26  2  0
 26 27  1  0
 27 28  2  0
 28 29  1  0
 29 30  2  0
  6  7  1  0
  7  8  2  0
  8  9  1  0
  9 10  1  0
 11 10  1  6
 11 12  1  0
 12 13  2  0
 13 14  1  0
 14 31  1  0
 31 32  2  0
 32 33  1  0
 33 34  2  0
 34 35  1  0
 35 36  2  0
 14 15  2  0
 15 16  1  0
 16 17  2  0
 17 18  1  0
 18 19  1  0
 20 19  1  1
 20  2  1  0
  8  3  1  0
 20 11  1  0
 30 21  1  0
 17 12  1  0
 29 24  1  0
 36 31  1  0
M  END
>  <minimizedAffinity>  (625) 
-16.81012

$$$$
Mol: 129_29 - SminaDock
     RDKit          3D

 38 44  0  0  0  0  0  0  0  0999 V2000
    8.0733    4.8779  -12.8605 C   0  0  0  0  0  0  0  0  0  0  0  0
    6.8126    4.5752  -12.4426 C   0  0  0  0  0  0  0  0  0  0  0  0
    6.0637    3.4616  -12.8741 C   0  0  0  0  0  0  0  0  0  0  0  0
    4.6704    3.3474  -12.4441 C   0  0  0  0  0  0  0  0  0  0  0  0
    6.6704    2.6322  -13.7764 C   0  0  0  0  0  0  0  0  0  0  0  0
    7.9802    2.9286  -14.2227 C   0  0  0  0  0  0  0  0  0  0  0  0
    8.6568    4.0321  -13.7689 C   0  0  0  0  0  0  0  0  0  0  0  0
    8.6184    1.9391  -15.1113 C   0  0  2  0  0  0  0  0  0  0  0  0
    7.6603    1.4728  -16.1494 C   0  0  0  0  0  0  0  0  0  0  0  0
    6.4701    0.8739  -15.4937 C   0  0  0  0  0  0  0  0  0  0  0  0
    5.8843   -0.2549  -15.9818 C   0  0  0  0  0  0  0  0  0  0  0  0
    4.7253   -0.7269  -15.4156 C   0  0  0  0  0  0  0  0  0  0  0  0
    4.1569   -0.0669  -14.3580 C   0  0  0  0  0  0  0  0  0  0  0  0
    4.7483    1.0961  -13.8384 C   0  0  0  0  0  0  0  0  0  0  0  0
    5.9030    1.5557  -14.4166 C   0  0  0  0  0  0  0  0  0  0  0  0
    9.0419    0.6965  -14.3273 C   0  0  0  0  0  0  0  0  0  0  0  0
   10.1245    0.1163  -15.0996 N   0  0  0  0  0  0  0  0  0  0  0  0
   10.8649   -0.1876  -14.4366 H   0  0  0  0  0  0  0  0  0  0  0  0
   10.5425    1.0532  -16.0905 C   0  0  0  0  0  0  0  0  0  0  0  0
    9.9144    2.4110  -15.7324 C   0  0  0  0  0  0  0  0  0  0  0  0
   11.1006    7.6959   -6.8636 C   0  0  0  0  0  0  0  0  0  0  0  0
   11.3150    8.6694   -7.8142 C   0  0  0  0  0  0  0  0  0  0  0  0
   10.8928    8.5379   -9.1200 C   0  0  0  0  0  0  0  0  0  0  0  0
   10.2214    7.3756   -9.5001 C   0  0  0  0  0  0  0  0  0  0  0  0
    9.9955    6.3919   -8.5729 C   0  0  0  0  0  0  0  0  0  0  0  0
    9.3302    5.2666   -8.9931 C   0  0  0  0  0  0  0  0  0  0  0  0
    8.9010    5.0985  -10.2555 N   0  0  0  0  0  0  0  0  0  0  0  0
    9.1347    6.0739  -11.1387 C   0  0  0  0  0  0  0  0  0  0  0  0
    8.7732    6.0329  -12.3751 N   0  0  0  0  0  0  0  0  0  0  0  0
    9.7863    7.1929  -10.7581 N   0  0  0  0  0  0  0  0  0  0  0  0
    9.9764    7.9720  -11.4529 H   0  0  0  0  0  0  0  0  0  0  0  0
   10.4361    6.5549   -7.2562 C   0  0  0  0  0  0  0  0  0  0  0  0
   12.4239    8.1433   -2.8164 C   0  0  0  0  0  0  0  0  0  0  0  0
   11.7548    7.0131   -3.2414 C   0  0  0  0  0  0  0  0  0  0  0  0
   11.3310    6.8772   -4.5505 C   0  0  0  0  0  0  0  0  0  0  0  0
   11.5610    7.8743   -5.4950 C   0  0  0  0  0  0  0  0  0  0  0  0
   12.2302    8.9978   -5.0572 C   0  0  0  0  0  0  0  0  0  0  0  0
   12.6525    9.1322   -3.7513 C   0  0  0  0  0  0  0  0  0  0  0  0
 33 34  2  0
 34 35  1  0
 35 36  2  0
 36 21  1  0
 21 22  2  0
 22 23  1  0
 23 24  2  0
 24 25  1  0
 25 26  1  0
 26 27  2  0
 27 28  1  0
 28 29  2  0
 29  1  1  0
  1  2  2  0
  2  3  1  0
  3  4  1  0
  3  5  2  0
  5  6  1  0
  6  7  2  0
  6  8  1  0
  8  9  1  6
  9 10  1  0
 10 11  2  0
 11 12  1  0
 12 13  2  0
 13 14  1  0
 14 15  2  0
  8 16  1  0
 16 17  1  0
 17 18  1  0
 17 19  1  0
 19 20  1  0
 28 30  1  0
 30 31  1  0
 25 32  2  0
 36 37  1  0
 37 38  2  0
 38 33  1  0
 32 21  1  0
 30 24  1  0
  7  1  1  0
 20  8  1  0
 15  5  1  0
 15 10  1  0
M  END
>  <minimizedAffinity>  (626) 
-16.79710

$$$$
Mol: 118_20 - SminaDock
     RDKit          3D

 40 46  0  0  0  0  0  0  0  0999 V2000
   11.0499    7.6313   -7.0701 C   0  0  0  0  0  0  0  0  0  0  0  0
   11.3592    8.5008   -8.1023 C   0  0  0  0  0  0  0  0  0  0  0  0
   10.9220    8.2325   -9.3821 C   0  0  0  0  0  0  0  0  0  0  0  0
   10.1753    7.1116   -9.6792 C   0  0  0  0  0  0  0  0  0  0  0  0
    9.7391    6.8302  -10.9177 N   0  0  0  0  0  0  0  0  0  0  0  0
    9.0138    5.7470  -11.2229 C   0  0  0  0  0  0  0  0  0  0  0  0
    8.6386    5.5475  -12.4085 N   0  0  0  0  0  0  0  0  0  0  0  0
    8.6909    4.8785  -10.2572 N   0  0  0  0  0  0  0  0  0  0  0  0
    8.1280    4.0122  -10.4206 H   0  0  0  0  0  0  0  0  0  0  0  0
    9.1142    5.1260   -8.9824 C   0  0  0  0  0  0  0  0  0  0  0  0
    9.8632    6.2474   -8.6758 C   0  0  0  0  0  0  0  0  0  0  0  0
   10.3008    6.5111   -7.3808 C   0  0  0  0  0  0  0  0  0  0  0  0
    7.8758    4.4656  -12.8920 C   0  0  0  0  0  0  0  0  0  0  0  0
    6.6731    4.1077  -12.3444 C   0  0  0  0  0  0  0  0  0  0  0  0
    5.9190    3.0305  -12.8322 C   0  0  0  0  0  0  0  0  0  0  0  0
    6.3771    2.2962  -13.8890 C   0  0  0  0  0  0  0  0  0  0  0  0
    7.5827    2.6230  -14.4645 C   0  0  0  0  0  0  0  0  0  0  0  0
    8.3240    3.7196  -13.9506 C   0  0  0  0  0  0  0  0  0  0  0  0
    8.1542    1.8154  -15.5388 C   0  0  2  0  0  0  0  0  0  0  0  0
    7.1827    1.0080  -16.2952 C   0  0  0  0  0  0  0  0  0  0  0  0
    5.9806    0.5636  -15.5760 C   0  0  0  0  0  0  0  0  0  0  0  0
    5.2626   -0.4867  -16.0875 C   0  0  0  0  0  0  0  0  0  0  0  0
    4.0930   -0.8855  -15.4807 C   0  0  0  0  0  0  0  0  0  0  0  0
    3.6708   -0.2138  -14.3664 C   0  0  0  0  0  0  0  0  0  0  0  0
    4.3656    0.8454  -13.8223 C   0  0  0  0  0  0  0  0  0  0  0  0
    5.5343    1.2389  -14.4318 C   0  0  0  0  0  0  0  0  0  0  0  0
    9.1226    0.8329  -14.8702 C   0  0  0  0  0  0  0  0  0  0  0  0
    9.8927    0.0089  -15.8612 C   0  0  0  0  0  0  0  0  0  0  0  0
   10.3329    0.7607  -17.0591 C   0  0  0  0  0  0  0  0  0  0  0  0
   11.4378    0.5238  -17.5113 O   0  0  0  0  0  0  0  0  0  0  0  0
    9.4124    1.7640  -17.6520 C   0  0  0  0  0  0  0  0  0  0  0  0
    8.9298    2.6762  -16.5342 C   0  0  0  0  0  0  0  0  0  0  0  0
   12.1767    9.0777   -5.4264 C   0  0  0  0  0  0  0  0  0  0  0  0
   12.5888    9.3131   -4.1723 N   0  0  0  0  0  0  0  0  0  0  0  0
   12.3852    8.4712   -3.1755 N   0  0  0  0  0  0  0  0  0  0  0  0
   12.8416    8.7510   -1.8288 C   0  0  0  0  0  0  0  0  0  0  0  0
   11.7292    7.3151   -3.4319 C   0  0  0  0  0  0  0  0  0  0  0  0
   11.5340    6.5159   -2.4938 O   0  0  0  0  0  0  0  0  0  0  0  0
   11.2761    7.0045   -4.6964 C   0  0  0  0  0  0  0  0  0  0  0  0
   11.5042    7.8953   -5.6955 C   0  0  0  0  0  0  0  0  0  0  0  0
 33 34  2  0
 34 35  1  0
 35 36  1  0
 35 37  1  0
 37 38  2  0
 37 39  1  0
 39 40  2  0
 40  1  1  0
  1  2  1  0
  2  3  2  0
  3  4  1  0
  4  5  2  0
  5  6  1  0
  6  7  2  0
  7 13  1  0
 13 14  2  0
 14 15  1  0
 15 16  2  0
 16 17  1  0
 17 18  2  0
 17 19  1  0
 19 20  1  6
 20 21  1  0
 21 22  2  0
 22 23  1  0
 23 24  2  0
 24 25  1  0
 25 26  2  0
 19 27  1  0
 27 28  1  0
 28 29  1  0
 29 30  2  0
 29 31  1  0
 31 32  1  0
  6  8  1  0
  8  9  1  0
  8 10  1  0
 10 11  2  0
 11 12  1  0
 40 33  1  0
 12  1  2  0
 11  4  1  0
 18 13  1  0
 32 19  1  0
 26 16  1  0
 26 21  1  0
M  END
>  <minimizedAffinity>  (627) 
-16.83566

$$$$
Mol: 118_21 - SminaDock
     RDKit          3D

 40 46  0  0  0  0  0  0  0  0999 V2000
   10.4049   -1.1642  -15.2985 H   0  0  0  0  0  0  0  0  0  0  0  0
   10.1461   -0.5344  -16.0853 N   0  0  0  0  0  0  0  0  0  0  0  0
    9.3736    0.4775  -15.8048 C   0  0  0  0  0  0  0  0  0  0  0  0
    8.9001    1.4694  -16.7584 C   0  0  0  0  0  0  0  0  0  0  0  0
    9.5071    1.7093  -18.1150 C   0  0  0  0  0  0  0  0  0  0  0  0
    7.9043    2.0684  -16.2270 N   0  0  0  0  0  0  0  0  0  0  0  0
    7.6393    1.5463  -14.9228 C   0  0  2  0  0  0  0  0  0  0  0  0
    6.4561    0.6598  -14.9642 C   0  0  0  0  0  0  0  0  0  0  0  0
    6.1937   -0.4911  -15.7163 C   0  0  0  0  0  0  0  0  0  0  0  0
    4.9925   -1.1406  -15.5636 C   0  0  0  0  0  0  0  0  0  0  0  0
    4.0778   -0.6316  -14.6657 C   0  0  0  0  0  0  0  0  0  0  0  0
    4.3290    0.4994  -13.9228 C   0  0  0  0  0  0  0  0  0  0  0  0
    5.5445    1.1629  -14.0726 C   0  0  0  0  0  0  0  0  0  0  0  0
    6.0757    2.3596  -13.4322 C   0  0  0  0  0  0  0  0  0  0  0  0
    5.5768    3.2315  -12.4798 C   0  0  0  0  0  0  0  0  0  0  0  0
    6.2940    4.3184  -12.0267 C   0  0  0  0  0  0  0  0  0  0  0  0
    7.5564    4.5720  -12.5215 C   0  0  0  0  0  0  0  0  0  0  0  0
    8.0523    3.7031  -13.4699 C   0  0  0  0  0  0  0  0  0  0  0  0
    7.3303    2.6013  -13.9319 C   0  0  0  0  0  0  0  0  0  0  0  0
    8.8353    0.8218  -14.5157 N   0  0  1  0  0  0  0  0  0  0  0  0
    8.6426   -0.0088  -13.9480 H   0  0  0  0  0  0  0  0  0  0  0  0
    9.5311    1.4426  -14.0495 H   0  0  0  0  0  0  0  0  0  0  0  0
    8.3589    5.6461  -12.1257 N   0  0  0  0  0  0  0  0  0  0  0  0
    8.8189    5.8523  -10.9565 C   0  0  0  0  0  0  0  0  0  0  0  0
    8.5612    5.0103   -9.9402 N   0  0  0  0  0  0  0  0  0  0  0  0
    9.0371    5.2076   -8.6952 C   0  0  0  0  0  0  0  0  0  0  0  0
    9.8207    6.3052   -8.4219 C   0  0  0  0  0  0  0  0  0  0  0  0
   10.3324    6.5478   -7.1535 C   0  0  0  0  0  0  0  0  0  0  0  0
   11.1147    7.6568   -6.9123 C   0  0  0  0  0  0  0  0  0  0  0  0
   11.3729    8.5114   -7.9558 C   0  0  0  0  0  0  0  0  0  0  0  0
   10.8721    8.2824   -9.2160 C   0  0  0  0  0  0  0  0  0  0  0  0
   10.0937    7.1765   -9.4506 C   0  0  0  0  0  0  0  0  0  0  0  0
    9.5839    6.9245  -10.6915 N   0  0  0  0  0  0  0  0  0  0  0  0
    9.7857    7.5747  -11.4658 H   0  0  0  0  0  0  0  0  0  0  0  0
   11.6461    7.8931   -5.5611 C   0  0  0  0  0  0  0  0  0  0  0  0
   12.3064    9.0515   -5.2312 C   0  0  0  0  0  0  0  0  0  0  0  0
   12.7863    9.2116   -3.9265 C   0  0  0  0  0  0  0  0  0  0  0  0
   12.6193    8.2465   -2.9602 C   0  0  0  0  0  0  0  0  0  0  0  0
   11.9589    7.0935   -3.2995 C   0  0  0  0  0  0  0  0  0  0  0  0
   11.4832    6.9351   -4.5927 C   0  0  0  0  0  0  0  0  0  0  0  0
  1  2  1  0
  2  3  2  0
  3  4  1  0
  4  5  1  0
  4  6  2  0
  7  6  1  6
  7  8  1  0
  8  9  2  0
  9 10  1  0
 10 11  2  0
 11 12  1  0
 12 13  2  0
 13 14  1  0
 14 15  2  0
 15 16  1  0
 16 17  2  0
 17 23  1  0
 23 24  2  0
 24 25  1  0
 25 26  2  0
 26 27  1  0
 27 28  2  0
 28 29  1  0
 29 35  1  0
 35 36  2  0
 36 37  1  0
 37 38  2  0
 38 39  1  0
 39 40  2  0
 29 30  2  0
 30 31  1  0
 31 32  2  0
 32 33  1  0
 33 34  1  0
 17 18  1  0
 18 19  2  0
  7 20  1  0
 20 21  1  1
 20 22  1  0
 20  3  1  0
 19  7  1  0
 13  8  1  0
 19 14  1  0
 33 24  1  0
 32 27  1  0
 40 35  1  0
M  CHG  1  20   1
M  END
>  <minimizedAffinity>  (628) 
-16.78786

$$$$
Mol: 185_12 - SminaDock
     RDKit          3D

 36 42  0  0  0  0  0  0  0  0999 V2000
   11.2683    7.9801   -5.9969 C   0  0  0  0  0  0  0  0  0  0  0  0
   11.5440    9.0740   -6.7982 C   0  0  0  0  0  0  0  0  0  0  0  0
   11.1583    8.9996   -8.1180 C   0  0  0  0  0  0  0  0  0  0  0  0
   10.5231    7.9084   -8.6689 C   0  0  0  0  0  0  0  0  0  0  0  0
   10.2569    6.8280   -7.8542 C   0  0  0  0  0  0  0  0  0  0  0  0
    9.6253    5.7462   -8.4095 C   0  0  0  0  0  0  0  0  0  0  0  0
    9.2676    5.7292   -9.7250 N   0  0  0  0  0  0  0  0  0  0  0  0
    9.5347    6.7913  -10.5053 C   0  0  0  0  0  0  0  0  0  0  0  0
    9.1898    6.7592  -11.7554 N   0  0  0  0  0  0  0  0  0  0  0  0
   10.1514    7.8432   -9.9555 N   0  0  0  0  0  0  0  0  0  0  0  0
   10.3529    8.6543  -10.5606 H   0  0  0  0  0  0  0  0  0  0  0  0
   10.6346    6.8736   -6.5159 C   0  0  0  0  0  0  0  0  0  0  0  0
    8.5443    5.6667  -12.3528 C   0  0  0  0  0  0  0  0  0  0  0  0
    9.1135    5.0878  -13.4615 C   0  0  0  0  0  0  0  0  0  0  0  0
    8.5181    4.0115  -14.0829 C   0  0  0  0  0  0  0  0  0  0  0  0
    7.3239    3.4965  -13.5885 C   0  0  0  0  0  0  0  0  0  0  0  0
    6.7327    4.0565  -12.4810 C   0  0  0  0  0  0  0  0  0  0  0  0
    7.3606    5.1302  -11.8905 C   0  0  0  0  0  0  0  0  0  0  0  0
    5.5093    3.2983  -12.2188 C   0  0  0  0  0  0  0  0  0  0  0  0
    5.4352    2.2590  -13.2511 C   0  0  0  0  0  0  0  0  0  0  0  0
    4.4942    1.2770  -13.4673 C   0  0  0  0  0  0  0  0  0  0  0  0
    4.7093    0.4273  -14.5509 C   0  0  0  0  0  0  0  0  0  0  0  0
    5.7923    0.5299  -15.3861 C   0  0  0  0  0  0  0  0  0  0  0  0
    6.7190    1.5248  -15.1441 C   0  0  0  0  0  0  0  0  0  0  0  0
    6.5293    2.3847  -14.0717 C   0  0  0  0  0  0  0  0  0  0  0  0
    6.0483   -0.3604  -16.5456 C   0  0  0  0  0  0  0  0  0  0  0  0
    4.8210   -1.1124  -16.9095 C   0  0  0  0  0  0  0  0  0  0  0  0
    4.8381   -1.8933  -17.8970 O   0  0  0  0  0  0  0  0  0  0  0  0
    3.6550   -0.9751  -16.1865 O   0  0  0  0  0  0  0  0  0  0  0  0
    3.7125   -0.6447  -14.8138 C   0  0  0  0  0  0  0  0  0  0  0  0
   12.4096    8.0546   -1.9141 C   0  0  0  0  0  0  0  0  0  0  0  0
   12.1060    6.8482   -2.5118 C   0  0  0  0  0  0  0  0  0  0  0  0
   11.7385    6.8560   -3.8407 C   0  0  0  0  0  0  0  0  0  0  0  0
   11.6651    8.0247   -4.5873 C   0  0  0  0  0  0  0  0  0  0  0  0
   11.9787    9.1930   -3.9377 C   0  0  0  0  0  0  0  0  0  0  0  0
   12.3524    9.2524   -2.6142 C   0  0  0  0  0  0  0  0  0  0  0  0
 31 32  2  0
 32 33  1  0
 33 34  2  0
 34  1  1  0
  1  2  2  0
  2  3  1  0
  3  4  2  0
  4  5  1  0
  5  6  1  0
  6  7  2  0
  7  8  1  0
  8  9  2  0
  9 13  1  0
 13 14  2  0
 14 15  1  0
 15 16  2  0
 16 17  1  0
 17 18  2  0
 17 19  1  0
 19 20  1  0
 20 21  2  0
 21 22  1  0
 22 23  2  0
 23 24  1  0
 24 25  2  0
 23 26  1  0
 26 27  1  0
 27 28  2  0
 27 29  1  0
 29 30  1  0
  8 10  1  0
 10 11  1  0
  5 12  2  0
 34 35  1  0
 35 36  2  0
 36 31  1  0
 12  1  1  0
 10  4  1  0
 18 13  1  0
 25 20  1  0
 25 16  1  0
 30 22  1  0
M  END
>  <minimizedAffinity>  (629) 
-16.78123

$$$$
Mol: 188_40 - SminaDock
     RDKit          3D

 45 52  0  0  0  0  0  0  0  0999 V2000
    3.8854   -0.0140  -13.9461 C   0  0  0  0  0  0  0  0  0  0  0  0
    4.3761   -0.8655  -14.8295 O   0  0  0  0  0  0  0  0  0  0  0  0
    5.5475   -0.6715  -15.3831 C   0  0  0  0  0  0  0  0  0  0  0  0
    5.9496   -1.5225  -16.2139 O   0  0  0  0  0  0  0  0  0  0  0  0
    6.3031    0.4382  -15.0528 C   0  0  0  0  0  0  0  0  0  0  0  0
    5.8322    1.3541  -14.1361 C   0  0  0  0  0  0  0  0  0  0  0  0
    4.6036    1.1148  -13.5804 C   0  0  0  0  0  0  0  0  0  0  0  0
    6.7858    2.3377  -14.0096 C   0  0  0  0  0  0  0  0  0  0  0  0
    7.8317    2.0402  -14.8347 C   0  0  0  0  0  0  0  0  0  0  0  0
    7.5066    0.8685  -15.4608 N   0  0  0  0  0  0  0  0  0  0  0  0
    8.0636    0.3343  -16.1599 H   0  0  0  0  0  0  0  0  0  0  0  0
    9.0631    2.8527  -15.0344 C   0  0  1  0  0  0  0  0  0  0  0  0
    9.0894    3.9900  -14.1234 C   0  0  0  0  0  0  0  0  0  0  0  0
   10.2406    4.7996  -14.1316 C   0  0  0  0  0  0  0  0  0  0  0  0
   10.3014    5.8987  -13.3053 C   0  0  0  0  0  0  0  0  0  0  0  0
    9.2707    6.2446  -12.4591 C   0  0  0  0  0  0  0  0  0  0  0  0
    8.1527    5.4462  -12.4586 C   0  0  0  0  0  0  0  0  0  0  0  0
    8.0594    4.3151  -13.2914 C   0  0  0  0  0  0  0  0  0  0  0  0
    6.8470    3.5254  -13.1735 C   0  0  0  0  0  0  0  0  0  0  0  0
    5.9004    3.8151  -12.4164 O   0  0  0  0  0  0  0  0  0  0  0  0
   10.2147    1.9050  -14.8228 C   0  0  0  0  0  0  0  0  0  0  0  0
   11.3095    1.9355  -15.8069 C   0  0  0  0  0  0  0  0  0  0  0  0
   10.9396    2.2207  -17.2217 C   0  0  2  0  0  0  0  0  0  0  0  0
   10.2446    1.0783  -17.8916 C   0  0  0  0  0  0  0  0  0  0  0  0
   12.2554    2.4864  -17.9624 C   0  0  0  0  0  0  0  0  0  0  0  0
   10.1541    3.4896  -17.2606 C   0  0  0  0  0  0  0  0  0  0  0  0
    8.9400    3.3906  -16.4371 C   0  0  0  0  0  0  0  0  0  0  0  0
    9.3535    7.3846  -11.6151 N   0  0  0  0  0  0  0  0  0  0  0  0
    9.7644    7.2569  -10.4050 C   0  0  0  0  0  0  0  0  0  0  0  0
   10.1301    6.0918   -9.8696 N   0  0  0  0  0  0  0  0  0  0  0  0
   10.5542    5.9606   -8.6202 C   0  0  0  0  0  0  0  0  0  0  0  0
   10.6295    7.0740   -7.8130 C   0  0  0  0  0  0  0  0  0  0  0  0
   11.0617    6.9839   -6.5167 C   0  0  0  0  0  0  0  0  0  0  0  0
   11.1181    8.1281   -5.7523 C   0  0  0  0  0  0  0  0  0  0  0  0
   10.7419    9.3453   -6.2934 C   0  0  0  0  0  0  0  0  0  0  0  0
   10.3130    9.4177   -7.5884 C   0  0  0  0  0  0  0  0  0  0  0  0
   10.2520    8.2909   -8.3586 C   0  0  0  0  0  0  0  0  0  0  0  0
    9.8291    8.3567   -9.6380 N   0  0  0  0  0  0  0  0  0  0  0  0
    9.5423    9.2924  -10.0470 H   0  0  0  0  0  0  0  0  0  0  0  0
   11.5739    8.0636   -4.3690 C   0  0  0  0  0  0  0  0  0  0  0  0
   11.8953    9.2428   -3.7138 C   0  0  0  0  0  0  0  0  0  0  0  0
   12.3305    9.2003   -2.3985 C   0  0  0  0  0  0  0  0  0  0  0  0
   12.4578    8.0134   -1.7070 C   0  0  0  0  0  0  0  0  0  0  0  0
   12.1323    6.8531   -2.3792 C   0  0  0  0  0  0  0  0  0  0  0  0
   11.6908    6.8669   -3.7061 C   0  0  0  0  0  0  0  0  0  0  0  0
  1  2  1  0
  2  3  1  0
  3  4  2  0
  3  5  1  0
  5  6  2  0
  6  7  1  0
  6  8  1  0
  8  9  2  0
  9 10  1  0
 10 11  1  0
  9 12  1  0
 12 13  1  0
 13 14  2  0
 14 15  1  0
 15 16  2  0
 16 28  1  0
 28 29  2  0
 29 30  1  0
 30 31  2  0
 31 32  1  0
 32 33  2  0
 33 34  1  0
 34 40  1  0
 40 41  2  0
 41 42  1  0
 42 43  2  0
 43 44  1  0
 44 45  2  0
 34 35  2  0
 35 36  1  0
 36 37  2  0
 37 38  1  0
 38 39  1  0
 16 17  1  0
 17 18  2  0
 18 19  1  0
 19 20  2  0
 12 21  1  6
 21 22  1  0
 22 23  1  0
 23 24  1  6
 23 25  1  0
 23 26  1  0
 26 27  1  0
  7  1  2  0
 19  8  1  0
 10  5  1  0
 27 12  1  0
 18 13  1  0
 38 29  1  0
 37 32  1  0
 45 40  1  0
M  END
>  <minimizedAffinity>  (630) 
-16.81079

$$$$
Mol: 186_49 - SminaDock
     RDKit          3D

 41 48  0  0  0  0  0  0  0  0999 V2000
    6.3107   -3.2107  -18.3417 H   0  0  0  0  0  0  0  0  0  0  0  0
    6.8237   -2.3714  -18.0893 O   0  0  0  0  0  0  0  0  0  0  0  0
    6.3255   -1.4942  -17.1452 C   0  0  0  0  0  0  0  0  0  0  0  0
    7.1186   -0.5146  -16.6902 N   0  0  0  0  0  0  0  0  0  0  0  0
    6.7056    0.3738  -15.7746 C   0  0  0  0  0  0  0  0  0  0  0  0
    7.2585    1.4745  -15.1192 C   0  0  0  0  0  0  0  0  0  0  0  0
    6.3033    1.9782  -14.2855 C   0  0  0  0  0  0  0  0  0  0  0  0
    5.1750    1.2434  -14.3855 N   0  0  0  0  0  0  0  0  0  0  0  0
    5.3459    0.2557  -15.2683 C   0  0  0  0  0  0  0  0  0  0  0  0
    4.5375   -0.7673  -15.7522 C   0  0  0  0  0  0  0  0  0  0  0  0
    5.0454   -1.6203  -16.6805 C   0  0  0  0  0  0  0  0  0  0  0  0
    6.7974    3.1517  -13.5708 C   0  0  0  0  0  0  0  0  0  0  0  0
    6.2311    4.0133  -12.6387 C   0  0  0  0  0  0  0  0  0  0  0  0
    6.9818    5.0734  -12.1436 C   0  0  0  0  0  0  0  0  0  0  0  0
    8.2791    5.2992  -12.5502 C   0  0  0  0  0  0  0  0  0  0  0  0
    8.8024    4.4206  -13.4759 C   0  0  0  0  0  0  0  0  0  0  0  0
    8.0853    3.3617  -13.9850 C   0  0  0  0  0  0  0  0  0  0  0  0
    8.4739    2.2937  -14.9831 C   0  0  2  0  0  0  0  0  0  0  0  0
    8.8464    2.8888  -16.2914 C   0  0  0  0  0  0  0  0  0  0  0  0
    9.9977    2.3016  -17.0065 C   0  0  0  0  0  0  0  0  0  0  0  0
   10.2709    0.8607  -16.6972 C   0  0  0  0  0  0  0  0  0  0  0  0
   10.1266    0.5090  -15.2577 C   0  0  0  0  0  0  0  0  0  0  0  0
    9.6494    1.6028  -14.3675 C   0  0  0  0  0  0  0  0  0  0  0  0
    9.0379    6.3836  -12.0400 N   0  0  0  0  0  0  0  0  0  0  0  0
    9.3963    6.4529  -10.7949 C   0  0  0  0  0  0  0  0  0  0  0  0
    9.0704    5.4831   -9.8704 C   0  0  0  0  0  0  0  0  0  0  0  0
    9.4630    5.5884   -8.5763 N   0  0  0  0  0  0  0  0  0  0  0  0
   10.1833    6.6385   -8.1425 C   0  0  0  0  0  0  0  0  0  0  0  0
   10.5874    6.7543   -6.8264 C   0  0  0  0  0  0  0  0  0  0  0  0
   11.3253    7.8246   -6.3687 C   0  0  0  0  0  0  0  0  0  0  0  0
   11.6572    8.8078   -7.3003 C   0  0  0  0  0  0  0  0  0  0  0  0
   11.2538    8.6926   -8.6147 C   0  0  0  0  0  0  0  0  0  0  0  0
   10.5155    7.6165   -9.0611 C   0  0  0  0  0  0  0  0  0  0  0  0
   10.1164    7.4970  -10.3484 N   0  0  0  0  0  0  0  0  0  0  0  0
   10.3678    8.2409  -11.0517 H   0  0  0  0  0  0  0  0  0  0  0  0
   11.7400    7.9230   -4.9721 C   0  0  0  0  0  0  0  0  0  0  0  0
   11.3900    6.9076   -4.1077 C   0  0  0  0  0  0  0  0  0  0  0  0
   11.7571    6.9510   -2.7718 C   0  0  0  0  0  0  0  0  0  0  0  0
   12.4889    8.0581   -2.3492 C   0  0  0  0  0  0  0  0  0  0  0  0
   12.8398    9.0787   -3.2213 C   0  0  0  0  0  0  0  0  0  0  0  0
   12.4688    9.0193   -4.5376 C   0  0  0  0  0  0  0  0  0  0  0  0
  1  2  1  0
  2  3  1  0
  3  4  1  0
  4  5  1  0
  5  6  2  0
  6  7  1  0
  7  8  2  0
  8  9  1  0
  9 10  2  0
 10 11  1  0
  7 12  1  0
 12 13  2  0
 13 14  1  0
 14 15  2  0
 15 24  1  0
 24 25  2  0
 25 26  1  0
 26 27  2  0
 27 28  1  0
 28 29  2  0
 29 30  1  0
 30 36  1  0
 36 37  2  0
 37 38  1  0
 38 39  2  0
 39 40  1  0
 40 41  2  0
 30 31  2  0
 31 32  1  0
 32 33  2  0
 33 34  1  0
 34 35  1  0
 15 16  1  0
 16 17  2  0
 17 18  1  0
 18 19  1  6
 19 20  1  0
 20 21  1  0
 21 22  1  0
 22 23  1  0
 11  3  2  0
 17 12  1  0
 23 18  1  0
  9  5  1  0
 34 25  1  0
 18  6  1  0
 33 28  1  0
 41 36  1  0
M  CHG  1   4  -1
M  END
>  <minimizedAffinity>  (631) 
-16.75263

$$$$
Mol: 126_19 - SminaDock
     RDKit          3D

 40 46  0  0  0  0  0  0  0  0999 V2000
    8.3621    5.2571  -12.6701 C   0  0  0  0  0  0  0  0  0  0  0  0
    7.0095    5.0253  -12.6220 C   0  0  0  0  0  0  0  0  0  0  0  0
    6.4487    3.8389  -13.1269 C   0  0  0  0  0  0  0  0  0  0  0  0
    7.2808    2.9108  -13.6708 C   0  0  0  0  0  0  0  0  0  0  0  0
    8.6700    3.1132  -13.7397 C   0  0  0  0  0  0  0  0  0  0  0  0
    9.1654    4.2949  -13.2290 C   0  0  0  0  0  0  0  0  0  0  0  0
    9.7759    2.2984  -14.3139 C   0  0  0  0  0  0  0  0  0  0  0  0
    9.3866    1.5905  -15.5489 C   0  0  0  0  0  0  0  0  0  0  0  0
   10.5276    1.1034  -16.1695 C   0  0  0  0  0  0  0  0  0  0  0  0
   10.4809    0.4051  -17.3472 C   0  0  0  0  0  0  0  0  0  0  0  0
    9.2532    0.1850  -17.9259 C   0  0  0  0  0  0  0  0  0  0  0  0
    8.1094    0.6718  -17.3060 C   0  0  0  0  0  0  0  0  0  0  0  0
    8.1545    1.3706  -16.1276 C   0  0  0  0  0  0  0  0  0  0  0  0
    6.8314    1.7651  -15.6911 C   0  0  0  0  0  0  0  0  0  0  0  0
    6.6491    1.6908  -14.1751 C   0  0  2  0  0  0  0  0  0  0  0  0
    5.2454    1.4698  -13.8762 C   0  0  0  0  0  0  0  0  0  0  0  0
    4.4993    2.0165  -13.0874 O   0  0  0  0  0  0  0  0  0  0  0  0
    4.6564    0.3831  -14.6852 N   0  0  0  0  0  0  0  0  0  0  0  0
    5.4897   -0.7956  -14.8582 C   0  0  0  0  0  0  0  0  0  0  0  0
    5.0756   -1.8114  -15.4667 O   0  0  0  0  0  0  0  0  0  0  0  0
    6.8356   -0.7941  -14.3117 C   0  0  0  0  0  0  0  0  0  0  0  0
    7.3321    0.4239  -13.6395 C   0  0  0  0  0  0  0  0  0  0  0  0
   11.1704    7.9297   -6.4893 C   0  0  0  0  0  0  0  0  0  0  0  0
   11.3103    9.0010   -7.3671 C   0  0  0  0  0  0  0  0  0  0  0  0
   10.8855    8.8881   -8.6678 C   0  0  0  0  0  0  0  0  0  0  0  0
   10.3113    7.7396   -9.1685 C   0  0  0  0  0  0  0  0  0  0  0  0
   10.1726    6.6728   -8.2923 C   0  0  0  0  0  0  0  0  0  0  0  0
    9.5979    5.5259   -8.7987 C   0  0  0  0  0  0  0  0  0  0  0  0
    9.2084    5.4941  -10.0835 N   0  0  0  0  0  0  0  0  0  0  0  0
    9.3439    6.5310  -10.9326 C   0  0  0  0  0  0  0  0  0  0  0  0
    8.9483    6.4410  -12.1684 N   0  0  0  0  0  0  0  0  0  0  0  0
    9.9029    7.6556  -10.4517 N   0  0  0  0  0  0  0  0  0  0  0  0
   10.0102    8.4660  -11.1105 H   0  0  0  0  0  0  0  0  0  0  0  0
   10.5952    6.7780   -6.9895 C   0  0  0  0  0  0  0  0  0  0  0  0
   12.3846    7.9935   -2.4203 C   0  0  0  0  0  0  0  0  0  0  0  0
   12.6295    9.0742   -3.2394 C   0  0  0  0  0  0  0  0  0  0  0  0
   12.2464    9.0819   -4.5656 C   0  0  0  0  0  0  0  0  0  0  0  0
   11.6004    7.9933   -5.1114 C   0  0  0  0  0  0  0  0  0  0  0  0
   11.3570    6.9155   -4.2923 C   0  0  0  0  0  0  0  0  0  0  0  0
   11.7393    6.9020   -2.9596 C   0  0  0  0  0  0  0  0  0  0  0  0
 35 36  2  0
 36 37  1  0
 37 38  2  0
 38 23  1  0
 23 24  2  0
 24 25  1  0
 25 26  2  0
 26 27  1  0
 27 28  1  0
 28 29  2  0
 29 30  1  0
 30 31  2  0
 31  1  1  0
  1  2  2  0
  2  3  1  0
  3  4  2  0
  4  5  1  0
  5  6  2  0
  5  7  1  0
  7  8  1  0
  8  9  2  0
  9 10  1  0
 10 11  2  0
 11 12  1  0
 12 13  2  0
 13 14  1  0
 15 14  1  6
 15 16  1  0
 16 17  2  0
 16 18  1  0
 18 19  1  0
 19 20  2  0
 19 21  1  0
 21 22  1  0
 30 32  1  0
 32 33  1  0
 27 34  2  0
 38 39  1  0
 39 40  2  0
 40 35  1  0
 34 23  1  0
 32 26  1  0
  6  1  1  0
 13  8  1  0
 22 15  1  0
 15  4  1  0
M  CHG  1  18  -1
M  END
>  <minimizedAffinity>  (632) 
-16.77927

$$$$
Mol: 127_0 - SminaDock
     RDKit          3D

 37 43  0  0  0  0  0  0  0  0999 V2000
    8.5256    5.4085  -13.4517 N   0  0  0  0  0  0  0  0  0  0  0  0
    9.0531    5.8677  -12.3697 C   0  0  0  0  0  0  0  0  0  0  0  0
   10.0231    6.8193  -12.4703 N   0  0  0  0  0  0  0  0  0  0  0  0
   10.5951    7.3235  -11.3634 C   0  0  0  0  0  0  0  0  0  0  0  0
   10.2268    6.9023  -10.1021 C   0  0  0  0  0  0  0  0  0  0  0  0
   10.8006    7.4076   -8.9559 C   0  0  0  0  0  0  0  0  0  0  0  0
   10.3954    6.9530   -7.7218 C   0  0  0  0  0  0  0  0  0  0  0  0
    9.4147    5.9914   -7.6327 C   0  0  0  0  0  0  0  0  0  0  0  0
    8.8327    5.4780   -8.7777 C   0  0  0  0  0  0  0  0  0  0  0  0
    9.2539    5.9479  -10.0053 C   0  0  0  0  0  0  0  0  0  0  0  0
    8.6915    5.4545  -11.1404 N   0  0  0  0  0  0  0  0  0  0  0  0
    7.9658    4.7397  -11.0169 H   0  0  0  0  0  0  0  0  0  0  0  0
    6.0254   -3.5659  -16.0411 H   0  0  0  0  0  0  0  0  0  0  0  0
    5.3560   -2.7913  -16.0945 O   0  0  0  0  0  0  0  0  0  0  0  0
    5.6926   -1.5161  -15.5868 C   0  0  0  0  0  0  0  0  0  0  0  0
    6.8399   -0.9236  -15.9570 N   0  0  0  0  0  0  0  0  0  0  0  0
    7.2319    0.2627  -15.5329 N   0  0  0  0  0  0  0  0  0  0  0  0
    6.4447    0.9573  -14.6626 C   0  0  0  0  0  0  0  0  0  0  0  0
    5.2648    0.3966  -14.2545 C   0  0  0  0  0  0  0  0  0  0  0  0
    4.8593   -0.8644  -14.7120 C   0  0  0  0  0  0  0  0  0  0  0  0
    4.6157    1.3423  -13.3285 C   0  0  0  0  0  0  0  0  0  0  0  0
    5.5279    2.5009  -13.2391 C   0  0  0  0  0  0  0  0  0  0  0  0
    5.4385    3.7019  -12.5139 C   0  0  0  0  0  0  0  0  0  0  0  0
    6.4185    4.6601  -12.5784 C   0  0  0  0  0  0  0  0  0  0  0  0
    7.5069    4.4109  -13.3833 C   0  0  0  0  0  0  0  0  0  0  0  0
    7.5986    3.2357  -14.0954 C   0  0  0  0  0  0  0  0  0  0  0  0
    6.6144    2.2595  -14.0384 C   0  0  0  0  0  0  0  0  0  0  0  0
   11.0288    7.5173   -6.5425 C   0  0  0  0  0  0  0  0  0  0  0  0
   11.6855    8.7311   -6.6440 C   0  0  0  0  0  0  0  0  0  0  0  0
   12.3004    9.3126   -5.5691 C   0  0  0  0  0  0  0  0  0  0  0  0
   12.2478    8.6402   -4.3486 C   0  0  0  0  0  0  0  0  0  0  0  0
   12.8636    9.2173   -3.2597 C   0  0  0  0  0  0  0  0  0  0  0  0
   12.8478    8.6041   -2.0241 C   0  0  0  0  0  0  0  0  0  0  0  0
   12.2065    7.3944   -1.8736 C   0  0  0  0  0  0  0  0  0  0  0  0
   11.5928    6.8225   -2.9663 C   0  0  0  0  0  0  0  0  0  0  0  0
   11.6061    7.4387   -4.2170 C   0  0  0  0  0  0  0  0  0  0  0  0
   10.9968    6.8809   -5.3214 C   0  0  0  0  0  0  0  0  0  0  0  0
 13 14  1  0
 14 15  1  0
 15 16  2  0
 16 17  1  0
 17 18  2  0
 18 19  1  0
 19 20  2  0
 19 21  1  0
 21 22  1  0
 22 23  2  0
 23 24  1  0
 24 25  2  0
 25  1  1  0
  1  2  2  0
  2  3  1  0
  3  4  2  0
  4  5  1  0
  5  6  2  0
  6  7  1  0
  7 28  1  0
 28 29  2  0
 29 30  1  0
 30 31  2  0
 31 32  1  0
 32 33  2  0
 33 34  1  0
 34 35  2  0
 35 36  1  0
 36 37  2  0
  7  8  2  0
  8  9  1  0
  9 10  2  0
 10 11  1  0
 11 12  1  0
 25 26  1  0
 26 27  2  0
 20 15  1  0
 27 22  1  0
 27 18  1  0
 11  2  1  0
 10  5  1  0
 37 28  1  0
 36 31  1  0
M  END
>  <minimizedAffinity>  (633) 
-16.81104

$$$$
Mol: 127_30 - SminaDock
     RDKit          3D

 38 44  0  0  0  0  0  0  0  0999 V2000
    7.8543    4.6465  -12.9183 C   0  0  0  0  0  0  0  0  0  0  0  0
    6.5873    4.6148  -12.3490 C   0  0  0  0  0  0  0  0  0  0  0  0
    5.6849    3.6157  -12.5976 C   0  0  0  0  0  0  0  0  0  0  0  0
    6.0484    2.5925  -13.4522 C   0  0  0  0  0  0  0  0  0  0  0  0
    7.3009    2.6102  -14.0243 C   0  0  0  0  0  0  0  0  0  0  0  0
    8.2080    3.6172  -13.7725 C   0  0  0  0  0  0  0  0  0  0  0  0
    7.4283    1.3906  -14.9020 C   0  0  2  0  0  0  0  0  0  0  0  0
    8.5404    0.6029  -14.3253 C   0  0  0  0  0  0  0  0  0  0  0  0
    8.3261   -0.1225  -13.3400 O   0  0  0  0  0  0  0  0  0  0  0  0
    9.8339    0.6793  -14.8950 N   0  0  0  0  0  0  0  0  0  0  0  0
    9.9070    0.9816  -16.2835 C   0  0  0  0  0  0  0  0  0  0  0  0
   10.9360    1.3159  -16.8972 O   0  0  0  0  0  0  0  0  0  0  0  0
    8.6278    0.8792  -17.0313 C   0  0  0  0  0  0  0  0  0  0  0  0
    7.6436    1.7927  -16.3346 C   0  0  0  0  0  0  0  0  0  0  0  0
    6.1242    0.7204  -14.7402 C   0  0  0  0  0  0  0  0  0  0  0  0
    5.6262   -0.4456  -15.2875 C   0  0  0  0  0  0  0  0  0  0  0  0
    4.3614   -0.9273  -15.0195 C   0  0  0  0  0  0  0  0  0  0  0  0
    3.5554   -0.2095  -14.1635 C   0  0  0  0  0  0  0  0  0  0  0  0
    4.0153    0.9551  -13.5994 C   0  0  0  0  0  0  0  0  0  0  0  0
    5.3033    1.4218  -13.8884 C   0  0  0  0  0  0  0  0  0  0  0  0
   11.0799    7.5288   -7.2144 C   0  0  0  0  0  0  0  0  0  0  0  0
   11.5843    8.3189   -8.2300 C   0  0  0  0  0  0  0  0  0  0  0  0
   11.2170    8.1090   -9.5427 C   0  0  0  0  0  0  0  0  0  0  0  0
   10.3348    7.1037   -9.8818 C   0  0  0  0  0  0  0  0  0  0  0  0
    9.8159    6.2992   -8.8833 C   0  0  0  0  0  0  0  0  0  0  0  0
    8.9464    5.3058   -9.2021 N   0  0  0  0  0  0  0  0  0  0  0  0
    8.6203    5.1342  -10.4516 N   0  0  0  0  0  0  0  0  0  0  0  0
    9.1176    5.9083  -11.4265 C   0  0  0  0  0  0  0  0  0  0  0  0
    8.7639    5.6962  -12.6394 N   0  0  0  0  0  0  0  0  0  0  0  0
    9.9805    6.9035  -11.1611 N   0  0  0  0  0  0  0  0  0  0  0  0
   10.3932    7.5305  -11.8833 H   0  0  0  0  0  0  0  0  0  0  0  0
   10.1999    6.5300   -7.5758 C   0  0  0  0  0  0  0  0  0  0  0  0
   12.2577    8.2138   -3.1514 C   0  0  0  0  0  0  0  0  0  0  0  0
   12.4193    9.1796   -4.1224 C   0  0  0  0  0  0  0  0  0  0  0  0
   12.0430    8.9746   -5.4455 C   0  0  0  0  0  0  0  0  0  0  0  0
   11.4848    7.7712   -5.8305 C   0  0  0  0  0  0  0  0  0  0  0  0
   11.3262    6.8103   -4.8548 C   0  0  0  0  0  0  0  0  0  0  0  0
   11.6999    7.0092   -3.5329 C   0  0  0  0  0  0  0  0  0  0  0  0
 33 34  2  0
 34 35  1  0
 35 36  2  0
 36 21  1  0
 21 22  2  0
 22 23  1  0
 23 24  2  0
 24 25  1  0
 25 26  1  0
 26 27  2  0
 27 28  1  0
 28 29  2  0
 29  1  1  0
  1  2  2  0
  2  3  1  0
  3  4  2  0
  4  5  1  0
  5  6  2  0
  5  7  1  0
  7  8  1  0
  8  9  2  0
  8 10  1  0
 10 11  1  0
 11 12  2  0
 11 13  1  0
 13 14  1  0
  7 15  1  0
 15 16  2  0
 16 17  1  0
 17 18  2  0
 18 19  1  0
 19 20  2  0
 28 30  1  0
 30 31  1  0
 25 32  2  0
 36 37  1  0
 37 38  2  0
 38 33  1  0
 32 21  1  0
 30 24  1  0
  6  1  1  0
  7 14  1  6
 20 15  1  0
 20  4  1  0
M  CHG  1  10  -1
M  END
>  <minimizedAffinity>  (634) 
-16.77033

$$$$
Mol: 188_61 - SminaDock
     RDKit          3D

 43 50  0  0  0  0  0  0  0  0999 V2000
    5.2583    0.4211  -18.2114 C   0  0  0  0  0  0  0  0  0  0  0  0
    6.4533    1.0658  -18.3561 N   0  0  0  0  0  0  0  0  0  0  0  0
    7.1746    1.7147  -17.4336 C   0  0  0  0  0  0  0  0  0  0  0  0
    7.1069    1.7143  -16.0385 C   0  0  0  0  0  0  0  0  0  0  0  0
    6.0125    1.2204  -15.3146 C   0  0  0  0  0  0  0  0  0  0  0  0
    5.1443    0.2271  -15.6792 C   0  0  0  0  0  0  0  0  0  0  0  0
    4.4708   -0.5865  -14.8112 C   0  0  0  0  0  0  0  0  0  0  0  0
    3.7002   -1.4388  -15.5744 C   0  0  0  0  0  0  0  0  0  0  0  0
    3.8865   -1.1671  -16.9254 C   0  0  0  0  0  0  0  0  0  0  0  0
    4.7699   -0.1468  -17.0675 C   0  0  0  0  0  0  0  0  0  0  0  0
    5.6849    1.7445  -14.0058 C   0  0  0  0  0  0  0  0  0  0  0  0
    4.7152    1.3587  -13.3390 O   0  0  0  0  0  0  0  0  0  0  0  0
    6.5982    2.7912  -13.5135 C   0  0  0  0  0  0  0  0  0  0  0  0
    6.2024    3.4924  -12.3823 C   0  0  0  0  0  0  0  0  0  0  0  0
    6.9080    4.6069  -11.9999 C   0  0  0  0  0  0  0  0  0  0  0  0
    7.9921    5.0056  -12.7457 C   0  0  0  0  0  0  0  0  0  0  0  0
    8.4183    4.3216  -13.8857 C   0  0  0  0  0  0  0  0  0  0  0  0
    7.7040    3.2101  -14.2480 C   0  0  0  0  0  0  0  0  0  0  0  0
    8.2089    2.2988  -15.3249 C   0  0  2  0  0  0  0  0  0  0  0  0
    9.3435    2.8218  -16.0944 C   0  0  0  0  0  0  0  0  0  0  0  0
   10.0677    1.6220  -16.7141 C   0  0  0  0  0  0  0  0  0  0  0  0
   10.9811    1.1092  -15.6699 N   0  0  0  0  0  0  0  0  0  0  0  0
   11.2561    0.1284  -15.8961 H   0  0  0  0  0  0  0  0  0  0  0  0
   10.2969    1.2152  -14.3919 C   0  0  0  0  0  0  0  0  0  0  0  0
    8.8119    1.1152  -14.5040 C   0  0  0  0  0  0  0  0  0  0  0  0
    8.7167    6.1452  -12.3647 N   0  0  0  0  0  0  0  0  0  0  0  0
    9.1267    6.2359  -11.1231 C   0  0  0  0  0  0  0  0  0  0  0  0
    8.8639    5.2554  -10.2116 C   0  0  0  0  0  0  0  0  0  0  0  0
    9.2993    5.3595   -8.9086 C   0  0  0  0  0  0  0  0  0  0  0  0
   10.0216    6.4956   -8.5290 C   0  0  0  0  0  0  0  0  0  0  0  0
   10.4709    6.6233   -7.2218 C   0  0  0  0  0  0  0  0  0  0  0  0
   11.1747    7.7434   -6.8773 C   0  0  0  0  0  0  0  0  0  0  0  0
   11.4153    8.7096   -7.8385 C   0  0  0  0  0  0  0  0  0  0  0  0
   10.9757    8.5912   -9.1297 C   0  0  0  0  0  0  0  0  0  0  0  0
   10.2550    7.4510   -9.4949 C   0  0  0  0  0  0  0  0  0  0  0  0
    9.8195    7.3318  -10.7711 N   0  0  0  0  0  0  0  0  0  0  0  0
   10.0402    8.0991  -11.4328 H   0  0  0  0  0  0  0  0  0  0  0  0
   11.6516    7.8878   -5.5058 C   0  0  0  0  0  0  0  0  0  0  0  0
   12.3493    9.0220   -5.1064 C   0  0  0  0  0  0  0  0  0  0  0  0
   12.7901    9.1382   -3.8087 C   0  0  0  0  0  0  0  0  0  0  0  0
   12.5339    8.1235   -2.9136 C   0  0  0  0  0  0  0  0  0  0  0  0
   11.8499    7.0005   -3.2860 C   0  0  0  0  0  0  0  0  0  0  0  0
   11.4083    6.8836   -4.5853 C   0  0  0  0  0  0  0  0  0  0  0  0
  1  2  2  0
  2  3  1  0
  3  4  2  0
  4  5  1  0
  5  6  2  0
  6  7  1  0
  7  8  2  0
  8  9  1  0
  9 10  2  0
  5 11  1  0
 11 12  2  0
 11 13  1  0
 13 14  2  0
 14 15  1  0
 15 16  2  0
 16 26  1  0
 26 27  2  0
 27 28  1  0
 28 29  2  0
 29 30  1  0
 30 31  2  0
 31 32  1  0
 32 38  1  0
 38 39  2  0
 39 40  1  0
 40 41  2  0
 41 42  1  0
 42 43  2  0
 32 33  2  0
 33 34  1  0
 34 35  2  0
 35 36  1  0
 36 37  1  0
 16 17  1  0
 17 18  2  0
 18 19  1  0
 19 20  1  6
 20 21  1  0
 21 22  1  0
 22 23  1  0
 22 24  1  0
 24 25  1  0
 10  1  1  0
 18 13  1  0
 25 19  1  0
 19  4  1  0
 10  6  1  0
 36 27  1  0
 35 30  1  0
 43 38  1  0
M  END
>  <minimizedAffinity>  (635) 
-16.84609

$$$$
Mol: 167_38 - SminaDock
     RDKit          3D

 39 45  0  0  0  0  0  0  0  0999 V2000
   10.4203    2.6919  -14.1822 C   0  0  0  0  0  0  0  0  0  0  0  0
    9.5817    3.7918  -13.7126 C   0  0  0  0  0  0  0  0  0  0  0  0
   10.2005    4.9918  -13.2826 C   0  0  0  0  0  0  0  0  0  0  0  0
    9.5062    6.0198  -12.6990 C   0  0  0  0  0  0  0  0  0  0  0  0
    8.1641    5.8987  -12.5189 C   0  0  0  0  0  0  0  0  0  0  0  0
    7.5179    4.7594  -12.9223 C   0  0  0  0  0  0  0  0  0  0  0  0
    8.2266    3.7127  -13.5179 C   0  0  0  0  0  0  0  0  0  0  0  0
    7.4998    2.4589  -13.8049 C   0  0  0  0  0  0  0  0  0  0  0  0
    8.0941    1.4870  -14.5576 C   0  0  0  0  0  0  0  0  0  0  0  0
    7.3156    0.3778  -14.9367 C   0  0  0  0  0  0  0  0  0  0  0  0
    6.0083    0.2320  -14.5949 C   0  0  0  0  0  0  0  0  0  0  0  0
    5.4260    1.2183  -13.8433 C   0  0  0  0  0  0  0  0  0  0  0  0
    4.1406    0.8180  -13.6517 N   0  0  0  0  0  0  0  0  0  0  0  0
    3.9433   -0.3630  -14.2597 C   0  0  0  0  0  0  0  0  0  0  0  0
    2.7610   -1.1009  -14.2940 O   0  0  0  0  0  0  0  0  0  0  0  0
    5.0868   -0.7442  -14.8498 N   0  0  0  0  0  0  0  0  0  0  0  0
    5.3108   -1.9580  -15.6123 C   0  0  0  0  0  0  0  0  0  0  0  0
    6.1478    2.3158  -13.4486 C   0  0  0  0  0  0  0  0  0  0  0  0
    5.5013    3.3228  -12.5894 C   0  0  0  0  0  0  0  0  0  0  0  0
    6.0425    4.6731  -12.7820 C   0  0  0  0  0  0  0  0  0  0  0  0
    2.7575   -2.1144  -14.3911 H   0  0  0  0  0  0  0  0  0  0  0  0
   10.1974    7.1861  -12.3064 N   0  0  0  0  0  0  0  0  0  0  0  0
   10.3974    7.9765  -12.9814 H   0  0  0  0  0  0  0  0  0  0  0  0
   10.6783    7.3926  -10.9792 C   0  0  0  0  0  0  0  0  0  0  0  0
   11.8786    7.9340  -10.7057 N   0  0  0  0  0  0  0  0  0  0  0  0
   12.3408    8.1245   -9.4580 C   0  0  0  0  0  0  0  0  0  0  0  0
   11.5624    7.7538   -8.3823 C   0  0  0  0  0  0  0  0  0  0  0  0
   11.9674    7.9149   -7.0758 C   0  0  0  0  0  0  0  0  0  0  0  0
   11.1903    7.5416   -5.9991 C   0  0  0  0  0  0  0  0  0  0  0  0
    9.9564    6.9849   -6.2924 C   0  0  0  0  0  0  0  0  0  0  0  0
    9.5351    6.8165   -7.5872 C   0  0  0  0  0  0  0  0  0  0  0  0
   10.3300    7.1974   -8.6502 C   0  0  0  0  0  0  0  0  0  0  0  0
    9.9099    7.0264   -9.9173 N   0  0  0  0  0  0  0  0  0  0  0  0
   11.6067    7.7096   -4.6047 C   0  0  0  0  0  0  0  0  0  0  0  0
   11.6719    6.6826   -3.6970 C   0  0  0  0  0  0  0  0  0  0  0  0
   12.0687    6.8753   -2.3806 C   0  0  0  0  0  0  0  0  0  0  0  0
   12.4136    8.1353   -1.9497 C   0  0  0  0  0  0  0  0  0  0  0  0
   12.3566    9.1774   -2.8378 C   0  0  0  0  0  0  0  0  0  0  0  0
   11.9634    8.9798   -4.1378 C   0  0  0  0  0  0  0  0  0  0  0  0
  1  2  1  0
  2  3  2  0
  3  4  1  0
  4 22  1  0
 22 24  1  0
 24 25  2  0
 25 26  1  0
 26 27  2  0
 27 28  1  0
 28 29  2  0
 29 34  1  0
 34 35  2  0
 35 36  1  0
 36 37  2  0
 37 38  1  0
 38 39  2  0
 29 30  1  0
 30 31  2  0
 31 32  1  0
 32 33  2  0
  4  5  2  0
  5  6  1  0
  6  7  2  0
  7  8  1  0
  8  9  2  0
  9 10  1  0
 10 11  2  0
 11 12  1  0
 12 13  1  0
 13 14  2  0
 14 15  1  0
 14 16  1  0
 16 17  1  0
 12 18  2  0
 18 19  1  0
 19 20  1  0
  7  2  1  0
 18  8  1  0
 33 24  1  0
 20  6  1  0
 32 27  1  0
 16 11  1  0
 39 34  1  0
 22 23  1  0
 15 21  1  0
M  END
>  <minimizedAffinity>  (636) 
-16.77788

$$$$
Mol: 150_54 - SminaDock
     RDKit          3D

 40 46  0  0  0  0  0  0  0  0999 V2000
    3.1898   -1.6833  -14.0090 H   0  0  0  0  0  0  0  0  0  0  0  0
    3.0514   -1.1858  -14.9003 O   0  0  0  0  0  0  0  0  0  0  0  0
    4.1460   -0.7933  -15.6469 C   0  0  0  0  0  0  0  0  0  0  0  0
    4.4642   -1.3758  -16.7841 C   0  0  0  0  0  0  0  0  0  0  0  0
    5.5985   -1.0171  -17.6307 C   0  0  1  0  0  0  0  0  0  0  0  0
    6.4827   -2.2700  -17.8159 C   0  0  0  0  0  0  0  0  0  0  0  0
    5.0904   -0.6503  -19.0324 C   0  0  0  0  0  0  0  0  0  0  0  0
    6.4483    0.0770  -17.1338 C   0  0  0  0  0  0  0  0  0  0  0  0
    6.0726    0.7220  -15.8677 C   0  0  0  0  0  0  0  0  0  0  0  0
    6.8524    1.7657  -15.3987 C   0  0  0  0  0  0  0  0  0  0  0  0
    6.5629    2.4117  -14.2215 C   0  0  0  0  0  0  0  0  0  0  0  0
    5.4468    1.9881  -13.4933 C   0  0  0  0  0  0  0  0  0  0  0  0
    4.6758    0.9511  -13.9638 C   0  0  0  0  0  0  0  0  0  0  0  0
    4.9772    0.3069  -15.1527 C   0  0  0  0  0  0  0  0  0  0  0  0
    5.0535    2.6068  -12.2268 C   0  0  0  0  0  0  0  0  0  0  0  0
    5.8639    3.7252  -11.7322 C   0  0  0  0  0  0  0  0  0  0  0  0
    7.0419    4.1397  -12.5272 C   0  0  0  0  0  0  0  0  0  0  0  0
    7.8181    5.1993  -12.0326 C   0  0  0  0  0  0  0  0  0  0  0  0
    8.9089    5.6094  -12.7409 C   0  0  0  0  0  0  0  0  0  0  0  0
    9.2282    4.9845  -13.9172 C   0  0  0  0  0  0  0  0  0  0  0  0
    8.4563    3.9473  -14.3874 C   0  0  0  0  0  0  0  0  0  0  0  0
    7.3479    3.5056  -13.7000 C   0  0  0  0  0  0  0  0  0  0  0  0
    9.7261    6.6969  -12.2566 N   0  0  0  0  0  0  0  0  0  0  0  0
    9.9485    6.7531  -10.9993 C   0  0  0  0  0  0  0  0  0  0  0  0
    9.4324    5.8282  -10.1882 N   0  0  0  0  0  0  0  0  0  0  0  0
    9.6105    5.8065   -8.8671 C   0  0  0  0  0  0  0  0  0  0  0  0
   10.3774    6.8043   -8.3034 C   0  0  0  0  0  0  0  0  0  0  0  0
   10.6004    6.8375   -6.9300 C   0  0  0  0  0  0  0  0  0  0  0  0
   11.3588    7.8228   -6.3631 C   0  0  0  0  0  0  0  0  0  0  0  0
   11.8946    8.7794   -7.1888 C   0  0  0  0  0  0  0  0  0  0  0  0
   11.7034    8.7906   -8.5534 C   0  0  0  0  0  0  0  0  0  0  0  0
   10.9320    7.7836   -9.1074 C   0  0  0  0  0  0  0  0  0  0  0  0
   10.6932    7.7180  -10.4332 N   0  0  0  0  0  0  0  0  0  0  0  0
   11.0987    8.4418  -11.0581 H   0  0  0  0  0  0  0  0  0  0  0  0
   11.6080    7.8807   -4.9263 C   0  0  0  0  0  0  0  0  0  0  0  0
   11.9092    9.1046   -4.3230 C   0  0  0  0  0  0  0  0  0  0  0  0
   12.1547    9.2423   -2.9878 C   0  0  0  0  0  0  0  0  0  0  0  0
   12.1015    8.1066   -2.1920 C   0  0  0  0  0  0  0  0  0  0  0  0
   11.8064    6.8859   -2.7619 C   0  0  0  0  0  0  0  0  0  0  0  0
   11.5613    6.7714   -4.1178 C   0  0  0  0  0  0  0  0  0  0  0  0
  1  2  1  0
  2  3  1  0
  3  4  2  0
  4  5  1  0
  5  6  1  6
  5  7  1  0
  5  8  1  0
  8  9  1  0
  9 10  2  0
 10 11  1  0
 11 12  2  0
 12 13  1  0
 13 14  2  0
 12 15  1  0
 15 16  1  0
 16 17  1  0
 17 18  2  0
 18 19  1  0
 19 23  1  0
 23 24  2  0
 24 25  1  0
 25 26  2  0
 26 27  1  0
 27 28  2  0
 28 29  1  0
 29 35  1  0
 35 36  2  0
 36 37  1  0
 37 38  2  0
 38 39  1  0
 39 40  2  0
 29 30  2  0
 30 31  1  0
 31 32  2  0
 32 33  1  0
 33 34  1  0
 19 20  2  0
 20 21  1  0
 21 22  2  0
 14  3  1  0
 22 17  1  0
 14  9  1  0
 33 24  1  0
 22 11  1  0
 32 27  1  0
 40 35  1  0
M  END
>  <minimizedAffinity>  (637) 
-16.77628

$$$$
Mol: 181_29 - SminaDock
     RDKit          3D

 37 43  0  0  0  0  0  0  0  0999 V2000
    5.5855   -1.8075  -18.7606 H   0  0  0  0  0  0  0  0  0  0  0  0
    5.6040   -2.1104  -17.7996 O   0  0  0  0  0  0  0  0  0  0  0  0
    5.3733   -1.2650  -16.7424 C   0  0  0  0  0  0  0  0  0  0  0  0
    6.2474   -0.3078  -16.4978 C   0  0  0  0  0  0  0  0  0  0  0  0
    6.0049    0.5872  -15.3806 C   0  0  0  0  0  0  0  0  0  0  0  0
    6.9230    1.6050  -15.1111 C   0  0  0  0  0  0  0  0  0  0  0  0
    6.7382    2.4846  -14.0582 C   0  0  0  0  0  0  0  0  0  0  0  0
    5.6160    2.3191  -13.2863 C   0  0  0  0  0  0  0  0  0  0  0  0
    4.6936    1.2994  -13.5541 C   0  0  0  0  0  0  0  0  0  0  0  0
    4.8782    0.4239  -14.6026 C   0  0  0  0  0  0  0  0  0  0  0  0
    3.8705   -0.6643  -14.8688 C   0  0  0  0  0  0  0  0  0  0  0  0
    4.2580   -1.4203  -15.9652 O   0  0  0  0  0  0  0  0  0  0  0  0
    5.6437    3.3644  -12.2424 C   0  0  0  0  0  0  0  0  0  0  0  0
    6.8953    4.1256  -12.5156 C   0  0  0  0  0  0  0  0  0  0  0  0
    7.4435    5.2208  -11.8579 C   0  0  0  0  0  0  0  0  0  0  0  0
    8.6219    5.7754  -12.2802 C   0  0  0  0  0  0  0  0  0  0  0  0
    9.2757    5.2466  -13.3678 C   0  0  0  0  0  0  0  0  0  0  0  0
    8.7533    4.1617  -14.0366 C   0  0  0  0  0  0  0  0  0  0  0  0
    7.5585    3.6064  -13.6013 C   0  0  0  0  0  0  0  0  0  0  0  0
    9.1772    6.8771  -11.6220 N   0  0  0  0  0  0  0  0  0  0  0  0
    9.5464    6.8909  -10.3916 C   0  0  0  0  0  0  0  0  0  0  0  0
    9.4079    5.7615   -9.6130 C   0  0  0  0  0  0  0  0  0  0  0  0
    9.7984    5.7497   -8.2814 C   0  0  0  0  0  0  0  0  0  0  0  0
   10.3371    6.8842   -7.7153 C   0  0  0  0  0  0  0  0  0  0  0  0
   10.7442    6.9354   -6.3968 C   0  0  0  0  0  0  0  0  0  0  0  0
   11.2820    8.0813   -5.8459 C   0  0  0  0  0  0  0  0  0  0  0  0
   11.4210    9.2214   -6.6351 C   0  0  0  0  0  0  0  0  0  0  0  0
   11.0077    9.1450   -7.9466 C   0  0  0  0  0  0  0  0  0  0  0  0
   10.4678    8.0042   -8.5105 C   0  0  0  0  0  0  0  0  0  0  0  0
   10.0742    7.9825   -9.8150 N   0  0  0  0  0  0  0  0  0  0  0  0
   10.1862    8.8408  -10.3842 H   0  0  0  0  0  0  0  0  0  0  0  0
   11.6966    8.0866   -4.4499 C   0  0  0  0  0  0  0  0  0  0  0  0
   11.7450    6.9033   -3.7436 C   0  0  0  0  0  0  0  0  0  0  0  0
   12.1324    6.8622   -2.4178 C   0  0  0  0  0  0  0  0  0  0  0  0
   12.4824    8.0366   -1.7752 C   0  0  0  0  0  0  0  0  0  0  0  0
   12.4400    9.2182   -2.4599 C   0  0  0  0  0  0  0  0  0  0  0  0
   12.0495    9.2424   -3.7891 C   0  0  0  0  0  0  0  0  0  0  0  0
  1  2  1  0
  2  3  1  0
  3  4  2  0
  4  5  1  0
  5  6  2  0
  6  7  1  0
  7  8  2  0
  8  9  1  0
  9 10  2  0
 10 11  1  0
 11 12  1  0
  8 13  1  0
 13 14  1  0
 14 15  2  0
 15 16  1  0
 16 20  1  0
 20 21  2  0
 21 22  1  0
 22 23  2  0
 23 24  1  0
 24 25  2  0
 25 26  1  0
 26 32  1  0
 32 33  2  0
 33 34  1  0
 34 35  2  0
 35 36  1  0
 36 37  2  0
 26 27  2  0
 27 28  1  0
 28 29  2  0
 29 30  1  0
 30 31  1  0
 16 17  2  0
 17 18  1  0
 18 19  2  0
 12  3  1  0
 19 14  1  0
 10  5  1  0
 30 21  1  0
 19  7  1  0
 29 24  1  0
 37 32  1  0
M  END
>  <minimizedAffinity>  (638) 
-16.75435

$$$$
Mol: 134_11 - SminaDock
     RDKit          3D

 44 51  0  0  0  0  0  0  0  0999 V2000
    7.6137    4.7508  -12.5665 C   0  0  0  0  0  0  0  0  0  0  0  0
    6.4822    4.5853  -11.7939 C   0  0  0  0  0  0  0  0  0  0  0  0
    5.6123    3.5748  -12.0753 C   0  0  0  0  0  0  0  0  0  0  0  0
    5.8675    2.7204  -13.1338 C   0  0  0  0  0  0  0  0  0  0  0  0
    7.0087    2.8918  -13.9030 C   0  0  0  0  0  0  0  0  0  0  0  0
    7.8977    3.9090  -13.6332 C   0  0  0  0  0  0  0  0  0  0  0  0
    9.0319    4.1773  -14.2901 F   0  0  0  0  0  0  0  0  0  0  0  0
    7.3311    1.9020  -14.9482 C   0  0  0  0  0  0  0  0  0  0  0  0
    8.3826    2.1343  -15.7927 C   0  0  0  0  0  0  0  0  0  0  0  0
    8.5817    1.2284  -16.8501 C   0  0  0  0  0  0  0  0  0  0  0  0
    7.7320    0.1578  -17.0044 C   0  0  0  0  0  0  0  0  0  0  0  0
    6.6988   -0.0517  -16.1539 C   0  0  0  0  0  0  0  0  0  0  0  0
    6.4924    0.8326  -15.1048 C   0  0  0  0  0  0  0  0  0  0  0  0
    5.4361    0.5256  -14.1342 C   0  0  0  0  0  0  0  0  0  0  0  0
    4.8774    1.7155  -13.4809 C   0  0  0  0  0  0  0  0  0  0  0  0
    7.9509   -0.7563  -18.1422 C   0  0  0  0  0  0  0  0  0  0  0  0
    7.1950   -1.7373  -18.3021 O   0  0  0  0  0  0  0  0  0  0  0  0
    9.0274   -0.4846  -19.0252 N   0  0  0  0  0  0  0  0  0  0  0  0
    9.5337   -1.2171  -19.5443 H   0  0  0  0  0  0  0  0  0  0  0  0
    9.3902    0.9078  -19.1692 C   0  0  0  0  0  0  0  0  0  0  0  0
    9.6987    1.4075  -17.7684 C   0  0  1  0  0  0  0  0  0  0  0  0
   10.2971    2.7910  -17.8137 C   0  0  0  0  0  0  0  0  0  0  0  0
   11.5072    2.5716  -18.6075 N   0  0  0  0  0  0  0  0  0  0  0  0
   12.2257    3.2912  -18.4505 H   0  0  0  0  0  0  0  0  0  0  0  0
   12.0066    1.2740  -18.1968 C   0  0  0  0  0  0  0  0  0  0  0  0
   10.9513    0.6137  -17.3463 C   0  0  0  0  0  0  0  0  0  0  0  0
   11.1403    7.6834   -6.8632 C   0  0  0  0  0  0  0  0  0  0  0  0
   11.5049    8.5219   -7.9090 C   0  0  0  0  0  0  0  0  0  0  0  0
   11.0478    8.3227   -9.2005 C   0  0  0  0  0  0  0  0  0  0  0  0
   10.2012    7.2646   -9.4877 C   0  0  0  0  0  0  0  0  0  0  0  0
    9.8262    6.4189   -8.4628 C   0  0  0  0  0  0  0  0  0  0  0  0
    9.0030    5.3970   -8.7630 N   0  0  0  0  0  0  0  0  0  0  0  0
    8.5647    5.2032   -9.9937 N   0  0  0  0  0  0  0  0  0  0  0  0
    8.9102    6.0092  -11.0193 C   0  0  0  0  0  0  0  0  0  0  0  0
    8.4703    5.8071  -12.2313 N   0  0  0  0  0  0  0  0  0  0  0  0
    9.7309    7.0311  -10.7290 N   0  0  0  0  0  0  0  0  0  0  0  0
   10.0288    7.6848  -11.4875 H   0  0  0  0  0  0  0  0  0  0  0  0
   10.2879    6.6344   -7.2016 C   0  0  0  0  0  0  0  0  0  0  0  0
   12.4943    8.2174   -2.8769 C   0  0  0  0  0  0  0  0  0  0  0  0
   12.7819    9.1577   -3.8253 C   0  0  0  0  0  0  0  0  0  0  0  0
   12.3363    8.9802   -5.1338 C   0  0  0  0  0  0  0  0  0  0  0  0
   11.6065    7.8719   -5.5012 C   0  0  0  0  0  0  0  0  0  0  0  0
   11.3262    6.9346   -4.5317 C   0  0  0  0  0  0  0  0  0  0  0  0
   11.7726    7.1094   -3.2143 C   0  0  0  0  0  0  0  0  0  0  0  0
 39 40  2  0
 40 41  1  0
 41 42  2  0
 42 27  1  0
 27 28  2  0
 28 29  1  0
 29 30  2  0
 30 31  1  0
 31 32  1  0
 32 33  2  0
 33 34  1  0
 34 35  2  0
 35  1  1  0
  1  2  2  0
  2  3  1  0
  3  4  2  0
  4  5  1  0
  5  6  2  0
  6  7  1  0
  5  8  1  0
  8  9  2  0
  9 10  1  0
 10 11  2  0
 11 12  1  0
 12 13  2  0
 13 14  1  0
 14 15  1  0
 11 16  1  0
 16 17  2  0
 16 18  1  0
 18 19  1  0
 18 20  1  0
 21 20  1  6
 21 22  1  0
 22 23  1  0
 23 24  1  0
 23 25  1  0
 25 26  1  0
 34 36  1  0
 36 37  1  0
 31 38  2  0
 42 43  1  0
 43 44  2  0
 44 39  1  0
 38 27  1  0
 36 30  1  0
  6  1  1  0
 13  8  1  0
 26 21  1  0
 15  4  1  0
 21 10  1  0
M  END
>  <minimizedAffinity>  (639) 
-16.81088

$$$$
Mol: 177_43 - SminaDock
     RDKit          3D

 38 44  0  0  0  0  0  0  0  0999 V2000
    8.6930    6.0343  -12.2576 C   0  0  0  0  0  0  0  0  0  0  0  0
    7.3585    5.7773  -11.9727 C   0  0  0  0  0  0  0  0  0  0  0  0
    6.8060    4.6331  -12.5040 C   0  0  0  0  0  0  0  0  0  0  0  0
    7.4959    3.7374  -13.2949 C   0  0  0  0  0  0  0  0  0  0  0  0
    8.8278    4.0178  -13.5643 C   0  0  0  0  0  0  0  0  0  0  0  0
    9.4046    5.1519  -13.0474 C   0  0  0  0  0  0  0  0  0  0  0  0
    9.2994    2.9193  -14.4088 C   0  0  0  0  0  0  0  0  0  0  0  0
   10.4803    2.8066  -14.8736 O   0  0  0  0  0  0  0  0  0  0  0  0
    8.2105    1.9746  -14.6359 C   0  0  0  0  0  0  0  0  0  0  0  0
    7.1251    2.4883  -13.9523 C   0  0  0  0  0  0  0  0  0  0  0  0
    5.9387    1.7882  -13.9938 C   0  0  0  0  0  0  0  0  0  0  0  0
    5.7952    0.6048  -14.6859 C   0  0  0  0  0  0  0  0  0  0  0  0
    4.5995   -0.0819  -14.7158 C   0  0  0  0  0  0  0  0  0  0  0  0
    3.6365    0.4311  -14.0735 O   0  0  0  0  0  0  0  0  0  0  0  0
    4.4947   -1.2238  -15.3947 N   0  0  0  0  0  0  0  0  0  0  0  0
    5.6036   -1.6744  -16.0469 C   0  0  0  0  0  0  0  0  0  0  0  0
    5.4879   -2.7632  -16.6891 O   0  0  0  0  0  0  0  0  0  0  0  0
    6.7340   -1.0125  -16.0105 O   0  0  0  0  0  0  0  0  0  0  0  0
    6.8868    0.1140  -15.3572 C   0  0  0  0  0  0  0  0  0  0  0  0
    8.1004    0.7869  -15.3418 C   0  0  0  0  0  0  0  0  0  0  0  0
   11.3287    8.1950   -5.9292 C   0  0  0  0  0  0  0  0  0  0  0  0
   11.5197    9.3362   -6.6680 C   0  0  0  0  0  0  0  0  0  0  0  0
   11.1378    9.3569   -7.9926 C   0  0  0  0  0  0  0  0  0  0  0  0
   10.5611    8.2678   -8.6293 C   0  0  0  0  0  0  0  0  0  0  0  0
   10.3784    7.1257   -7.8607 C   0  0  0  0  0  0  0  0  0  0  0  0
    9.8101    6.0119   -8.4382 C   0  0  0  0  0  0  0  0  0  0  0  0
    9.4617    6.0965   -9.7251 N   0  0  0  0  0  0  0  0  0  0  0  0
    9.6343    7.1953  -10.4755 C   0  0  0  0  0  0  0  0  0  0  0  0
    9.2682    7.1983  -11.7207 N   0  0  0  0  0  0  0  0  0  0  0  0
   10.1899    8.2748   -9.8996 N   0  0  0  0  0  0  0  0  0  0  0  0
   10.3351    9.1377  -10.4560 H   0  0  0  0  0  0  0  0  0  0  0  0
   10.7570    7.0980   -6.5393 C   0  0  0  0  0  0  0  0  0  0  0  0
   12.4182    7.8841   -1.7982 C   0  0  0  0  0  0  0  0  0  0  0  0
   12.0296    6.7727   -2.5162 C   0  0  0  0  0  0  0  0  0  0  0  0
   11.6740    6.8551   -3.8533 C   0  0  0  0  0  0  0  0  0  0  0  0
   11.6964    8.0696   -4.5234 C   0  0  0  0  0  0  0  0  0  0  0  0
   12.0865    9.1745   -3.7960 C   0  0  0  0  0  0  0  0  0  0  0  0
   12.4418    9.0933   -2.4607 C   0  0  0  0  0  0  0  0  0  0  0  0
 33 34  2  0
 34 35  1  0
 35 36  2  0
 36 21  1  0
 21 22  2  0
 22 23  1  0
 23 24  2  0
 24 25  1  0
 25 26  1  0
 26 27  2  0
 27 28  1  0
 28 29  2  0
 29  1  1  0
  1  2  2  0
  2  3  1  0
  3  4  2  0
  4  5  1  0
  5  6  2  0
  5  7  1  0
  7  8  2  0
  7  9  1  0
  9 10  2  0
 10 11  1  0
 11 12  2  0
 12 13  1  0
 13 14  2  0
 13 15  1  0
 15 16  1  0
 16 17  2  0
 16 18  1  0
 18 19  1  0
 19 20  2  0
 28 30  1  0
 30 31  1  0
 25 32  2  0
 36 37  1  0
 37 38  2  0
 38 33  1  0
 32 21  1  0
 30 24  1  0
  6  1  1  0
 20  9  1  0
 10  4  1  0
 19 12  1  0
M  CHG  1  15  -1
M  END
>  <minimizedAffinity>  (640) 
-16.80358

$$$$
Mol: 147_40 - SminaDock
     RDKit          3D

 40 46  0  0  0  0  0  0  0  0999 V2000
    7.7199   -0.3463  -19.1236 H   0  0  0  0  0  0  0  0  0  0  0  0
    6.8295   -0.7680  -18.7816 N   0  0  0  0  0  0  0  0  0  0  0  0
    6.6499   -0.8734  -17.5052 C   0  0  0  0  0  0  0  0  0  0  0  0
    5.4362   -1.4472  -17.0833 O   0  0  0  0  0  0  0  0  0  0  0  0
    5.0554   -1.2058  -15.7438 C   0  0  0  0  0  0  0  0  0  0  0  0
    5.7202   -0.0007  -15.1764 C   0  0  0  0  0  0  0  0  0  0  0  0
    5.0558    0.7363  -14.2357 C   0  0  0  0  0  0  0  0  0  0  0  0
    5.6625    1.8859  -13.6795 C   0  0  0  0  0  0  0  0  0  0  0  0
    6.9174    2.2451  -14.0965 C   0  0  0  0  0  0  0  0  0  0  0  0
    7.6024    1.5020  -15.0535 C   0  0  0  0  0  0  0  0  0  0  0  0
    6.9967    0.3837  -15.5859 C   0  0  0  0  0  0  0  0  0  0  0  0
    7.6205   -0.4361  -16.5686 N   0  0  2  0  0  0  0  0  0  0  0  0
    8.3727    0.0476  -17.0820 H   0  0  0  0  0  0  0  0  0  0  0  0
    8.0514   -1.2449  -16.0549 H   0  0  0  0  0  0  0  0  0  0  0  0
    7.5299    3.4349  -13.5160 C   0  0  0  0  0  0  0  0  0  0  0  0
    8.7799    3.8548  -13.8792 C   0  0  0  0  0  0  0  0  0  0  0  0
    9.3947    4.9874  -13.3401 C   0  0  0  0  0  0  0  0  0  0  0  0
    8.7274    5.7253  -12.4007 C   0  0  0  0  0  0  0  0  0  0  0  0
    7.4715    5.3137  -12.0280 C   0  0  0  0  0  0  0  0  0  0  0  0
    6.8641    4.1920  -12.5627 C   0  0  0  0  0  0  0  0  0  0  0  0
    5.5101    3.8439  -12.0902 C   0  0  0  0  0  0  0  0  0  0  0  0
    4.9190    2.6425  -12.6761 C   0  0  0  0  0  0  0  0  0  0  0  0
    9.2822    6.8930  -11.8006 N   0  0  0  0  0  0  0  0  0  0  0  0
    9.5920    6.8096  -10.5503 C   0  0  0  0  0  0  0  0  0  0  0  0
    9.4192    5.7011   -9.8094 N   0  0  0  0  0  0  0  0  0  0  0  0
    9.7795    5.7187   -8.5000 C   0  0  0  0  0  0  0  0  0  0  0  0
   10.3184    6.8409   -7.9051 C   0  0  0  0  0  0  0  0  0  0  0  0
   10.6916    6.8751   -6.5697 C   0  0  0  0  0  0  0  0  0  0  0  0
   11.2295    8.0029   -5.9868 C   0  0  0  0  0  0  0  0  0  0  0  0
   11.3840    9.1196   -6.8050 C   0  0  0  0  0  0  0  0  0  0  0  0
   11.0137    9.0793   -8.1220 C   0  0  0  0  0  0  0  0  0  0  0  0
   10.4821    7.9585   -8.6909 C   0  0  0  0  0  0  0  0  0  0  0  0
   10.1188    7.9220   -9.9877 N   0  0  0  0  0  0  0  0  0  0  0  0
   10.2663    8.7967  -10.5306 H   0  0  0  0  0  0  0  0  0  0  0  0
   11.6312    8.0694   -4.5863 C   0  0  0  0  0  0  0  0  0  0  0  0
   12.0029    9.2283   -3.9564 C   0  0  0  0  0  0  0  0  0  0  0  0
   12.3732    9.2456   -2.6377 C   0  0  0  0  0  0  0  0  0  0  0  0
   12.3763    8.0720   -1.9130 C   0  0  0  0  0  0  0  0  0  0  0  0
   12.0070    6.9008   -2.5270 C   0  0  0  0  0  0  0  0  0  0  0  0
   11.6323    6.8768   -3.8573 C   0  0  0  0  0  0  0  0  0  0  0  0
  1  2  1  0
  2  3  2  0
  3  4  1  0
  4  5  1  0
  5  6  1  0
  6  7  2  0
  7  8  1  0
  8  9  2  0
  9 10  1  0
 10 11  2  0
 11 12  1  0
 12 13  1  6
 12 14  1  0
  9 15  1  0
 15 16  2  0
 16 17  1  0
 17 18  2  0
 18 23  1  0
 23 24  2  0
 24 25  1  0
 25 26  2  0
 26 27  1  0
 27 28  2  0
 28 29  1  0
 29 35  1  0
 35 36  2  0
 36 37  1  0
 37 38  2  0
 38 39  1  0
 39 40  2  0
 29 30  2  0
 30 31  1  0
 31 32  2  0
 32 33  1  0
 33 34  1  0
 18 19  1  0
 19 20  2  0
 20 21  1  0
 21 22  1  0
 12  3  1  0
 20 15  1  0
 11  6  1  0
 33 24  1  0
 22  8  1  0
 32 27  1  0
 40 35  1  0
M  CHG  1  12   1
M  END
>  <minimizedAffinity>  (641) 
-16.76721

$$$$
Mol: 172_3 - SminaDock
     RDKit          3D

 37 43  0  0  0  0  0  0  0  0999 V2000
    8.8667    5.7869  -12.5586 C   0  0  0  0  0  0  0  0  0  0  0  0
    9.4987    5.0330  -13.5293 C   0  0  0  0  0  0  0  0  0  0  0  0
    8.8615    3.9010  -14.0344 C   0  0  0  0  0  0  0  0  0  0  0  0
    7.5963    3.5437  -13.5550 C   0  0  0  0  0  0  0  0  0  0  0  0
    6.9758    4.3041  -12.5860 C   0  0  0  0  0  0  0  0  0  0  0  0
    7.6207    5.4351  -12.0864 C   0  0  0  0  0  0  0  0  0  0  0  0
    5.6970    3.6917  -12.2985 C   0  0  0  0  0  0  0  0  0  0  0  0
    4.8703    4.1239  -11.4632 O   0  0  0  0  0  0  0  0  0  0  0  0
    5.5911    2.5188  -13.1547 C   0  0  0  0  0  0  0  0  0  0  0  0
    4.6178    1.5556  -13.3256 C   0  0  0  0  0  0  0  0  0  0  0  0
    4.7793    0.5236  -14.2317 C   0  0  0  0  0  0  0  0  0  0  0  0
    5.9230    0.4231  -14.9975 C   0  0  0  0  0  0  0  0  0  0  0  0
    6.9009    1.3730  -14.8398 C   0  0  0  0  0  0  0  0  0  0  0  0
    6.7510    2.4172  -13.9309 C   0  0  0  0  0  0  0  0  0  0  0  0
    6.0098   -0.7155  -15.9440 C   0  0  0  0  0  0  0  0  0  0  0  0
    4.6768   -0.7511  -16.6755 C   0  0  0  0  0  0  0  0  0  0  0  0
    3.5440   -0.8653  -15.8159 N   0  0  0  0  0  0  0  0  0  0  0  0
    2.7399   -0.3301  -16.2550 H   0  0  0  0  0  0  0  0  0  0  0  0
    3.7572   -0.5320  -14.4442 C   0  0  0  0  0  0  0  0  0  0  0  0
   11.3291    8.0309   -6.1189 C   0  0  0  0  0  0  0  0  0  0  0  0
   11.6142    9.1079   -6.9334 C   0  0  0  0  0  0  0  0  0  0  0  0
   11.3080    9.1156   -8.2790 C   0  0  0  0  0  0  0  0  0  0  0  0
   10.6934    8.0274   -8.8769 C   0  0  0  0  0  0  0  0  0  0  0  0
   10.4076    6.9499   -8.0650 C   0  0  0  0  0  0  0  0  0  0  0  0
    9.7922    5.8620   -8.6675 C   0  0  0  0  0  0  0  0  0  0  0  0
    9.5097    5.9050   -9.9801 N   0  0  0  0  0  0  0  0  0  0  0  0
    9.7886    6.9558  -10.7710 C   0  0  0  0  0  0  0  0  0  0  0  0
    9.4955    6.9450  -12.0286 N   0  0  0  0  0  0  0  0  0  0  0  0
   10.3876    8.0158  -10.1865 N   0  0  0  0  0  0  0  0  0  0  0  0
   10.6157    8.8534  -10.7917 H   0  0  0  0  0  0  0  0  0  0  0  0
   10.7172    6.9478   -6.7143 C   0  0  0  0  0  0  0  0  0  0  0  0
   12.2826    7.9551   -1.9514 C   0  0  0  0  0  0  0  0  0  0  0  0
   12.3007    9.1330   -2.6684 C   0  0  0  0  0  0  0  0  0  0  0  0
   11.9955    9.1826   -4.0194 C   0  0  0  0  0  0  0  0  0  0  0  0
   11.6594    8.0377   -4.6975 C   0  0  0  0  0  0  0  0  0  0  0  0
   11.6404    6.8584   -3.9831 C   0  0  0  0  0  0  0  0  0  0  0  0
   11.9450    6.8055   -2.6327 C   0  0  0  0  0  0  0  0  0  0  0  0
 32 33  2  0
 33 34  1  0
 34 35  2  0
 35 20  1  0
 20 21  2  0
 21 22  1  0
 22 23  2  0
 23 24  1  0
 24 25  1  0
 25 26  2  0
 26 27  1  0
 27 28  2  0
 28  1  1  0
  1  2  2  0
  2  3  1  0
  3  4  2  0
  4  5  1  0
  5  6  2  0
  5  7  1  0
  7  8  2  0
  7  9  1  0
  9 10  2  0
 10 11  1  0
 11 12  2  0
 12 13  1  0
 13 14  2  0
 12 15  1  0
 15 16  1  0
 16 17  1  0
 17 18  1  0
 17 19  1  0
 27 29  1  0
 29 30  1  0
 24 31  2  0
 35 36  1  0
 36 37  2  0
 37 32  1  0
 31 20  1  0
 29 23  1  0
  6  1  1  0
 14  9  1  0
 14  4  1  0
 19 11  1  0
M  END
>  <minimizedAffinity>  (642) 
-16.78240

$$$$
Mol: 140_9 - SminaDock
     RDKit          3D

 44 51  0  0  0  0  0  0  0  0999 V2000
   12.9885    6.4501  -16.5249 H   0  0  0  0  0  0  0  0  0  0  0  0
   13.1632    5.6206  -15.9493 O   0  0  0  0  0  0  0  0  0  0  0  0
   12.0526    4.8500  -15.5377 C   0  0  0  0  0  0  0  0  0  0  0  0
   10.8184    5.0979  -15.7404 N   0  0  0  0  0  0  0  0  0  0  0  0
    9.9689    4.0671  -15.1616 C   0  0  1  0  0  0  0  0  0  0  0  0
   10.9645    3.1062  -14.5429 C   0  0  0  0  0  0  0  0  0  0  0  0
   10.6733    2.0507  -13.9246 O   0  0  0  0  0  0  0  0  0  0  0  0
   12.2351    3.6476  -14.8105 N   0  0  0  0  0  0  0  0  0  0  0  0
   13.1563    3.2141  -14.5105 H   0  0  0  0  0  0  0  0  0  0  0  0
    9.1367    4.6470  -14.0765 C   0  0  0  0  0  0  0  0  0  0  0  0
    9.6033    5.7971  -13.4290 C   0  0  0  0  0  0  0  0  0  0  0  0
    8.9225    6.2754  -12.3458 C   0  0  0  0  0  0  0  0  0  0  0  0
    7.7935    5.6238  -11.9086 C   0  0  0  0  0  0  0  0  0  0  0  0
    7.3204    4.4925  -12.5366 C   0  0  0  0  0  0  0  0  0  0  0  0
    8.0049    4.0074  -13.6330 C   0  0  0  0  0  0  0  0  0  0  0  0
    7.4286    2.9011  -14.4100 C   0  0  0  0  0  0  0  0  0  0  0  0
    8.0664    2.5808  -15.5845 C   0  0  0  0  0  0  0  0  0  0  0  0
    7.4136    1.4759  -16.0648 N   0  0  0  0  0  0  0  0  0  0  0  0
    7.7664    0.7947  -17.3004 C   0  0  0  0  0  0  0  0  0  0  0  0
    6.4220    1.1205  -15.2475 C   0  0  0  0  0  0  0  0  0  0  0  0
    5.4895    0.1054  -15.2671 C   0  0  0  0  0  0  0  0  0  0  0  0
    4.5386   -0.0853  -14.2954 C   0  0  0  0  0  0  0  0  0  0  0  0
    4.5400    0.8087  -13.2465 C   0  0  0  0  0  0  0  0  0  0  0  0
    5.4559    1.8435  -13.1829 C   0  0  0  0  0  0  0  0  0  0  0  0
    6.3988    2.0166  -14.1673 C   0  0  0  0  0  0  0  0  0  0  0  0
    9.1550    3.3755  -16.1741 C   0  0  0  0  0  0  0  0  0  0  0  0
    9.3944    7.4581  -11.6713 N   0  0  0  0  0  0  0  0  0  0  0  0
    9.7535    7.3871  -10.4102 C   0  0  0  0  0  0  0  0  0  0  0  0
   10.1967    8.4870   -9.7673 N   0  0  0  0  0  0  0  0  0  0  0  0
   10.5657    8.4183   -8.4755 C   0  0  0  0  0  0  0  0  0  0  0  0
   11.0240    9.4999   -7.7681 C   0  0  0  0  0  0  0  0  0  0  0  0
   11.3934    9.3910   -6.4445 C   0  0  0  0  0  0  0  0  0  0  0  0
   11.3181    8.1882   -5.7726 C   0  0  0  0  0  0  0  0  0  0  0  0
   10.8557    7.1054   -6.4923 C   0  0  0  0  0  0  0  0  0  0  0  0
   10.4766    7.1829   -7.8244 C   0  0  0  0  0  0  0  0  0  0  0  0
   10.0210    6.0716   -8.4996 C   0  0  0  0  0  0  0  0  0  0  0  0
    9.6664    6.1976   -9.7875 N   0  0  0  0  0  0  0  0  0  0  0  0
    9.3092    5.3682  -10.3494 H   0  0  0  0  0  0  0  0  0  0  0  0
   11.7125    8.0882   -4.3731 C   0  0  0  0  0  0  0  0  0  0  0  0
   12.0918    9.2130   -3.6847 C   0  0  0  0  0  0  0  0  0  0  0  0
   12.4590    9.0832   -2.3620 C   0  0  0  0  0  0  0  0  0  0  0  0
   12.4653    7.8831   -1.6938 C   0  0  0  0  0  0  0  0  0  0  0  0
   12.0817    6.7493   -2.3920 C   0  0  0  0  0  0  0  0  0  0  0  0
   11.7138    6.8755   -3.7153 C   0  0  0  0  0  0  0  0  0  0  0  0
  1  2  1  0
  2  3  1  0
  3  4  2  0
  4  5  1  0
  5  6  1  0
  6  7  2  0
  6  8  1  0
  8  9  1  0
  5 10  1  0
 10 11  2  0
 11 12  1  0
 12 27  1  0
 27 28  2  0
 28 29  1  0
 29 30  2  0
 30 31  1  0
 31 32  2  0
 32 33  1  0
 33 39  1  0
 39 40  2  0
 40 41  1  0
 41 42  2  0
 42 43  1  0
 43 44  2  0
 33 34  2  0
 34 35  1  0
 35 36  2  0
 36 37  1  0
 37 38  1  0
 12 13  2  0
 13 14  1  0
 14 15  2  0
 15 16  1  0
 16 17  2  0
 17 18  1  0
 18 19  1  0
 18 20  1  0
 20 21  2  0
 21 22  1  0
 22 23  2  0
 23 24  1  0
 24 25  2  0
 17 26  1  0
  8  3  1  0
 15 10  1  0
 25 16  1  0
  5 26  1  6
 37 28  1  0
 25 20  1  0
 35 30  1  0
 44 39  1  0
M  END
>  <minimizedAffinity>  (643) 
-16.83487

$$$$
Mol: 171_16 - SminaDock
     RDKit          3D

 40 46  0  0  0  0  0  0  0  0999 V2000
    5.1204   -3.1854  -16.9546 H   0  0  0  0  0  0  0  0  0  0  0  0
    4.5640   -2.3378  -17.0756 O   0  0  0  0  0  0  0  0  0  0  0  0
    4.9624   -1.2457  -16.3152 C   0  0  0  0  0  0  0  0  0  0  0  0
    4.2873   -0.8052  -15.2630 N   0  0  0  0  0  0  0  0  0  0  0  0
    4.6713    0.2697  -14.5072 C   0  0  0  0  0  0  0  0  0  0  0  0
    3.9455    0.5887  -13.5341 O   0  0  0  0  0  0  0  0  0  0  0  0
    5.8222    0.9394  -14.8493 C   0  0  0  0  0  0  0  0  0  0  0  0
    6.2681    2.0439  -14.1187 C   0  0  0  0  0  0  0  0  0  0  0  0
    7.4402    2.6377  -14.5579 C   0  0  0  0  0  0  0  0  0  0  0  0
    8.1302    2.1624  -15.6588 C   0  0  0  0  0  0  0  0  0  0  0  0
    7.6795    1.0696  -16.3730 C   0  0  0  0  0  0  0  0  0  0  0  0
    6.5260    0.4680  -15.9586 C   0  0  0  0  0  0  0  0  0  0  0  0
    6.0899   -0.6029  -16.6639 N   0  0  0  0  0  0  0  0  0  0  0  0
    6.8584   -1.0491  -17.8050 C   0  0  0  0  0  0  0  0  0  0  0  0
    7.9285    3.7995  -13.8152 C   0  0  0  0  0  0  0  0  0  0  0  0
    9.0806    4.4242  -14.1998 C   0  0  0  0  0  0  0  0  0  0  0  0
    9.5193    5.5215  -13.4734 C   0  0  0  0  0  0  0  0  0  0  0  0
    8.8371    5.9996  -12.3845 C   0  0  0  0  0  0  0  0  0  0  0  0
    7.6856    5.3393  -12.0365 C   0  0  0  0  0  0  0  0  0  0  0  0
    7.2033    4.2451  -12.7211 C   0  0  0  0  0  0  0  0  0  0  0  0
    5.9626    3.6618  -12.2209 C   0  0  0  0  0  0  0  0  0  0  0  0
    5.4655    2.4587  -12.9720 C   0  0  0  0  0  0  0  0  0  0  0  0
    9.2739    7.1223  -11.6307 N   0  0  0  0  0  0  0  0  0  0  0  0
    9.6384    7.0314  -10.3962 C   0  0  0  0  0  0  0  0  0  0  0  0
    9.6421    5.8805   -9.7059 N   0  0  0  0  0  0  0  0  0  0  0  0
   10.0348    5.8300   -8.4034 C   0  0  0  0  0  0  0  0  0  0  0  0
   10.4445    6.9731   -7.7487 C   0  0  0  0  0  0  0  0  0  0  0  0
   10.8498    6.9574   -6.4249 C   0  0  0  0  0  0  0  0  0  0  0  0
   11.2598    8.1106   -5.7750 C   0  0  0  0  0  0  0  0  0  0  0  0
   11.2425    9.2755   -6.5175 C   0  0  0  0  0  0  0  0  0  0  0  0
   10.8411    9.3052   -7.8369 C   0  0  0  0  0  0  0  0  0  0  0  0
   10.4355    8.1486   -8.4706 C   0  0  0  0  0  0  0  0  0  0  0  0
   10.0366    8.1483   -9.7635 N   0  0  0  0  0  0  0  0  0  0  0  0
   10.0387    9.0557  -10.2914 H   0  0  0  0  0  0  0  0  0  0  0  0
   11.6878    8.0940   -4.3776 C   0  0  0  0  0  0  0  0  0  0  0  0
   11.7456    6.9004   -3.6887 C   0  0  0  0  0  0  0  0  0  0  0  0
   12.1492    6.8383   -2.3513 C   0  0  0  0  0  0  0  0  0  0  0  0
   12.5048    7.9888   -1.6790 C   0  0  0  0  0  0  0  0  0  0  0  0
   12.4503    9.1836   -2.3577 C   0  0  0  0  0  0  0  0  0  0  0  0
   12.0465    9.2349   -3.6911 C   0  0  0  0  0  0  0  0  0  0  0  0
  1  2  1  0
  2  3  1  0
  3  4  2  0
  4  5  1  0
  5  6  2  0
  5  7  1  0
  7  8  2  0
  8  9  1  0
  9 10  2  0
 10 11  1  0
 11 12  2  0
 12 13  1  0
 13 14  1  0
  9 15  1  0
 15 16  2  0
 16 17  1  0
 17 18  2  0
 18 23  1  0
 23 24  2  0
 24 25  1  0
 25 26  2  0
 26 27  1  0
 27 28  2  0
 28 29  1  0
 29 35  1  0
 35 36  2  0
 36 37  1  0
 37 38  2  0
 38 39  1  0
 39 40  2  0
 29 30  2  0
 30 31  1  0
 31 32  2  0
 32 33  1  0
 33 34  1  0
 18 19  1  0
 19 20  2  0
 20 21  1  0
 21 22  1  0
 13  3  1  0
 20 15  1  0
 12  7  1  0
 33 24  1  0
 22  8  1  0
 32 27  1  0
 40 35  1  0
M  END
>  <minimizedAffinity>  (644) 
-16.79017

$$$$
Mol: 146_17 - SminaDock
     RDKit          3D

 37 43  0  0  0  0  0  0  0  0999 V2000
    5.0278   -1.5996  -15.5927 C   0  0  0  0  0  0  0  0  0  0  0  0
    6.2691   -1.1109  -15.7766 N   0  0  0  0  0  0  0  0  0  0  0  0
    6.6786    0.0333  -15.1916 C   0  0  0  0  0  0  0  0  0  0  0  0
    7.9701    0.4715  -15.4230 C   0  0  0  0  0  0  0  0  0  0  0  0
    8.3418    1.6130  -14.8206 N   0  0  0  0  0  0  0  0  0  0  0  0
    7.5245    2.3358  -14.0130 C   0  0  0  0  0  0  0  0  0  0  0  0
    6.2318    1.9382  -13.7542 C   0  0  0  0  0  0  0  0  0  0  0  0
    5.8320    0.7490  -14.3783 C   0  0  0  0  0  0  0  0  0  0  0  0
    4.5431    0.2869  -14.1586 C   0  0  0  0  0  0  0  0  0  0  0  0
    4.1655   -0.8960  -14.7805 C   0  0  0  0  0  0  0  0  0  0  0  0
    5.2814    2.6554  -12.8768 C   0  0  0  0  0  0  0  0  0  0  0  0
    5.8130    3.9239  -12.3327 C   0  0  0  0  0  0  0  0  0  0  0  0
    5.0953    4.6854  -11.6209 O   0  0  0  0  0  0  0  0  0  0  0  0
    7.1664    4.3426  -12.5937 C   0  0  0  0  0  0  0  0  0  0  0  0
    7.6728    5.5223  -12.0322 C   0  0  0  0  0  0  0  0  0  0  0  0
    8.9676    5.9375  -12.2669 C   0  0  0  0  0  0  0  0  0  0  0  0
    9.7699    5.1673  -13.0723 C   0  0  0  0  0  0  0  0  0  0  0  0
    9.2792    3.9875  -13.6421 C   0  0  0  0  0  0  0  0  0  0  0  0
    7.9799    3.5805  -13.3996 C   0  0  0  0  0  0  0  0  0  0  0  0
    9.3926    7.1291  -11.6515 N   0  0  0  0  0  0  0  0  0  0  0  0
    9.7508    7.0869  -10.3958 C   0  0  0  0  0  0  0  0  0  0  0  0
    9.7224    5.9493   -9.6949 N   0  0  0  0  0  0  0  0  0  0  0  0
   10.0847    5.8976   -8.4094 C   0  0  0  0  0  0  0  0  0  0  0  0
   10.5145    7.0404   -7.7290 C   0  0  0  0  0  0  0  0  0  0  0  0
   10.8872    6.9851   -6.4018 C   0  0  0  0  0  0  0  0  0  0  0  0
   11.3008    8.1418   -5.7812 C   0  0  0  0  0  0  0  0  0  0  0  0
   11.3272    9.3116   -6.5102 C   0  0  0  0  0  0  0  0  0  0  0  0
   10.9511    9.3410   -7.8320 C   0  0  0  0  0  0  0  0  0  0  0  0
   10.5311    8.1966   -8.4830 C   0  0  0  0  0  0  0  0  0  0  0  0
   10.1607    8.2075   -9.7690 N   0  0  0  0  0  0  0  0  0  0  0  0
   10.1958    9.1256  -10.2913 H   0  0  0  0  0  0  0  0  0  0  0  0
   11.6966    8.0983   -4.3948 C   0  0  0  0  0  0  0  0  0  0  0  0
   12.0622    9.2648   -3.7288 C   0  0  0  0  0  0  0  0  0  0  0  0
   12.4465    9.2255   -2.4048 C   0  0  0  0  0  0  0  0  0  0  0  0
   12.4919    8.0567   -1.6727 C   0  0  0  0  0  0  0  0  0  0  0  0
   12.1298    6.8997   -2.3301 C   0  0  0  0  0  0  0  0  0  0  0  0
   11.7411    6.9204   -3.6603 C   0  0  0  0  0  0  0  0  0  0  0  0
  1  2  2  0
  2  3  1  0
  3  4  2  0
  4  5  1  0
  5  6  2  0
  6  7  1  0
  7  8  2  0
  8  9  1  0
  9 10  2  0
  7 11  1  0
 11 12  1  0
 12 13  2  0
 12 14  1  0
 14 15  2  0
 15 16  1  0
 16 20  1  0
 20 21  2  0
 21 22  1  0
 22 23  2  0
 23 24  1  0
 24 25  2  0
 25 26  1  0
 26 32  1  0
 32 33  2  0
 33 34  1  0
 34 35  2  0
 35 36  1  0
 36 37  2  0
 26 27  2  0
 27 28  1  0
 28 29  2  0
 29 30  1  0
 30 31  1  0
 16 17  2  0
 17 18  1  0
 18 19  2  0
 10  1  1  0
 19 14  1  0
  8  3  1  0
 30 21  1  0
 19  6  1  0
 29 24  1  0
 37 32  1  0
M  END
>  <minimizedAffinity>  (645) 
-16.77029

$$$$
Mol: 139_29 - SminaDock
     RDKit          3D

 44 50  0  0  0  0  0  0  0  0999 V2000
    8.8806   -0.9389  -17.5484 H   0  0  0  0  0  0  0  0  0  0  0  0
    8.4207   -0.2224  -16.9684 O   0  0  0  0  0  0  0  0  0  0  0  0
    7.1164   -0.5178  -16.5027 C   0  0  0  0  0  0  0  0  0  0  0  0
    6.4670   -1.5153  -16.9213 N   0  0  0  0  0  0  0  0  0  0  0  0
    5.1674   -1.8783  -16.5099 C   0  0  2  0  0  0  0  0  0  0  0  0
    4.3500   -2.0889  -17.7158 N   0  0  2  0  0  0  0  0  0  0  0  0
    4.4715   -3.0526  -18.0987 H   0  0  0  0  0  0  0  0  0  0  0  0
    4.5845   -1.3840  -18.4228 H   0  0  0  0  0  0  0  0  0  0  0  0
    3.3668   -1.9991  -17.4243 H   0  0  0  0  0  0  0  0  0  0  0  0
    4.4647   -1.0577  -15.5053 C   0  0  0  0  0  0  0  0  0  0  0  0
    5.2447    0.1019  -15.0356 C   0  0  0  0  0  0  0  0  0  0  0  0
    6.5123    0.3692  -15.5038 C   0  0  0  0  0  0  0  0  0  0  0  0
    7.2033    1.4659  -15.0329 C   0  0  0  0  0  0  0  0  0  0  0  0
    6.6630    2.3199  -14.0945 C   0  0  0  0  0  0  0  0  0  0  0  0
    7.3366    3.4201  -13.6114 C   0  0  0  0  0  0  0  0  0  0  0  0
    8.5928    3.7084  -14.0571 C   0  0  0  0  0  0  0  0  0  0  0  0
    9.2597    4.8327  -13.5520 C   0  0  0  0  0  0  0  0  0  0  0  0
    8.7018    5.6654  -12.6201 C   0  0  0  0  0  0  0  0  0  0  0  0
    7.4423    5.3845  -12.1669 C   0  0  0  0  0  0  0  0  0  0  0  0
    6.7725    4.2768  -12.6579 C   0  0  0  0  0  0  0  0  0  0  0  0
    5.5019    3.9584  -12.2274 C   0  0  0  0  0  0  0  0  0  0  0  0
    4.9718    4.7227  -11.3624 O   0  0  0  0  0  0  0  0  0  0  0  0
    4.8409    2.8898  -12.6930 N   0  0  0  0  0  0  0  0  0  0  0  0
    3.8896    2.6996  -12.3336 H   0  0  0  0  0  0  0  0  0  0  0  0
    5.3754    2.0564  -13.6130 C   0  0  0  0  0  0  0  0  0  0  0  0
    4.6850    0.9619  -14.0824 C   0  0  0  0  0  0  0  0  0  0  0  0
    9.4444    6.8004  -12.1467 N   0  0  0  0  0  0  0  0  0  0  0  0
    9.7275    6.8531  -10.9086 C   0  0  0  0  0  0  0  0  0  0  0  0
   10.4235    7.8759  -10.3507 N   0  0  0  0  0  0  0  0  0  0  0  0
   10.7111    7.9067   -9.0299 C   0  0  0  0  0  0  0  0  0  0  0  0
   11.4186    8.9452   -8.4602 C   0  0  0  0  0  0  0  0  0  0  0  0
   11.7124    8.9772   -7.1125 C   0  0  0  0  0  0  0  0  0  0  0  0
   11.3091    7.9648   -6.2670 C   0  0  0  0  0  0  0  0  0  0  0  0
   10.5982    6.9216   -6.8407 C   0  0  0  0  0  0  0  0  0  0  0  0
   10.3048    6.8907   -8.1890 C   0  0  0  0  0  0  0  0  0  0  0  0
    9.5977    5.8543   -8.7639 C   0  0  0  0  0  0  0  0  0  0  0  0
    9.3334    5.8673  -10.0924 N   0  0  0  0  0  0  0  0  0  0  0  0
    8.7848    5.0397  -10.4732 H   0  0  0  0  0  0  0  0  0  0  0  0
   11.6179    7.9949   -4.8415 C   0  0  0  0  0  0  0  0  0  0  0  0
   11.7140    6.8344   -4.1004 C   0  0  0  0  0  0  0  0  0  0  0  0
   12.0029    6.8201   -2.7577 C   0  0  0  0  0  0  0  0  0  0  0  0
   12.2105    8.0131   -2.0989 C   0  0  0  0  0  0  0  0  0  0  0  0
   12.1215    9.1872   -2.8102 C   0  0  0  0  0  0  0  0  0  0  0  0
   11.8303    9.1803   -4.1585 C   0  0  0  0  0  0  0  0  0  0  0  0
  1  2  1  0
  2  3  1  0
  3  4  2  0
  4  5  1  0
  5  6  1  0
  6  7  1  6
  6  8  1  0
  6  9  1  0
  5 10  1  1
 10 11  1  0
 11 12  2  0
 12 13  1  0
 13 14  2  0
 14 15  1  0
 15 16  2  0
 16 17  1  0
 17 18  2  0
 18 27  1  0
 27 28  2  0
 28 29  1  0
 29 30  2  0
 30 31  1  0
 31 32  2  0
 32 33  1  0
 33 39  1  0
 39 40  2  0
 40 41  1  0
 41 42  2  0
 42 43  1  0
 43 44  2  0
 33 34  2  0
 34 35  1  0
 35 36  2  0
 36 37  1  0
 37 38  1  0
 18 19  1  0
 19 20  2  0
 20 21  1  0
 21 22  2  0
 21 23  1  0
 23 24  1  0
 23 25  1  0
 25 26  2  0
 12  3  1  0
 25 14  1  0
 26 11  1  0
 20 15  1  0
 37 28  1  0
 35 30  1  0
 44 39  1  0
M  CHG  1   6   1
M  END
>  <minimizedAffinity>  (646) 
-16.81034

$$$$
Mol: 171_36 - SminaDock
     RDKit          3D

 39 45  0  0  0  0  0  0  0  0999 V2000
    9.2314    3.9083  -13.5809 C   0  0  0  0  0  0  0  0  0  0  0  0
    9.7062    5.0309  -13.0301 N   0  0  0  0  0  0  0  0  0  0  0  0
    8.9770    5.8401  -12.2470 C   0  0  0  0  0  0  0  0  0  0  0  0
    7.6694    5.4847  -12.0044 C   0  0  0  0  0  0  0  0  0  0  0  0
    7.1378    4.3284  -12.5564 C   0  0  0  0  0  0  0  0  0  0  0  0
    7.9231    3.5207  -13.3586 C   0  0  0  0  0  0  0  0  0  0  0  0
    7.3326    2.3099  -13.9222 C   0  0  0  0  0  0  0  0  0  0  0  0
    6.0166    1.9377  -13.6851 C   0  0  0  0  0  0  0  0  0  0  0  0
    5.4708    0.7767  -14.2330 C   0  0  0  0  0  0  0  0  0  0  0  0
    4.1724    0.3732  -14.0220 C   0  0  0  0  0  0  0  0  0  0  0  0
    3.6773   -0.7990  -14.5951 C   0  0  0  0  0  0  0  0  0  0  0  0
    4.4788   -1.5467  -15.3650 N   0  0  0  0  0  0  0  0  0  0  0  0
    5.7544   -1.1932  -15.5997 C   0  0  0  0  0  0  0  0  0  0  0  0
    6.2591   -0.0180  -15.0282 C   0  0  0  0  0  0  0  0  0  0  0  0
    7.5533    0.3713  -15.2465 C   0  0  0  0  0  0  0  0  0  0  0  0
    8.2809   -0.3558  -15.9766 O   0  0  0  0  0  0  0  0  0  0  0  0
    8.0791    1.5142  -14.7030 N   0  0  0  0  0  0  0  0  0  0  0  0
    9.0713    1.7558  -14.9068 H   0  0  0  0  0  0  0  0  0  0  0  0
    5.1139    2.7497  -12.8372 C   0  0  0  0  0  0  0  0  0  0  0  0
    5.7648    3.9386  -12.3137 C   0  0  0  0  0  0  0  0  0  0  0  0
    5.0745    4.7131  -11.5743 O   0  0  0  0  0  0  0  0  0  0  0  0
    9.5293    7.0327  -11.6796 N   0  0  0  0  0  0  0  0  0  0  0  0
    9.8370    6.9953  -10.4218 C   0  0  0  0  0  0  0  0  0  0  0  0
    9.6541    5.9001   -9.6699 N   0  0  0  0  0  0  0  0  0  0  0  0
    9.9663    5.8421   -8.3657 C   0  0  0  0  0  0  0  0  0  0  0  0
   10.5026    6.9584   -7.7575 C   0  0  0  0  0  0  0  0  0  0  0  0
   10.8489    6.9835   -6.4295 C   0  0  0  0  0  0  0  0  0  0  0  0
   11.3796    8.1042   -5.8479 C   0  0  0  0  0  0  0  0  0  0  0  0
   11.5689    9.2421   -6.6318 C   0  0  0  0  0  0  0  0  0  0  0  0
   11.2208    9.2109   -7.9586 C   0  0  0  0  0  0  0  0  0  0  0  0
   10.6786    8.0770   -8.5672 C   0  0  0  0  0  0  0  0  0  0  0  0
   10.3538    8.0949   -9.8675 N   0  0  0  0  0  0  0  0  0  0  0  0
   10.5034    8.9519  -10.4294 H   0  0  0  0  0  0  0  0  0  0  0  0
   11.7301    8.0824   -4.4433 C   0  0  0  0  0  0  0  0  0  0  0  0
   12.0968    9.2061   -3.7347 C   0  0  0  0  0  0  0  0  0  0  0  0
   12.4277    9.1682   -2.3992 C   0  0  0  0  0  0  0  0  0  0  0  0
   12.4013    7.9760   -1.7157 C   0  0  0  0  0  0  0  0  0  0  0  0
   12.0332    6.8428   -2.4237 C   0  0  0  0  0  0  0  0  0  0  0  0
   11.6991    6.8730   -3.7664 C   0  0  0  0  0  0  0  0  0  0  0  0
  1  2  2  0
  2  3  1  0
  3 22  1  0
 22 23  2  0
 23 24  1  0
 24 25  2  0
 25 26  1  0
 26 27  2  0
 27 28  1  0
 28 34  1  0
 34 35  2  0
 35 36  1  0
 36 37  2  0
 37 38  1  0
 38 39  2  0
 28 29  2  0
 29 30  1  0
 30 31  2  0
 31 32  1  0
 32 33  1  0
  3  4  2  0
  4  5  1  0
  5  6  2  0
  6  7  1  0
  7  8  2  0
  8  9  1  0
  9 10  2  0
 10 11  1  0
 11 12  2  0
 12 13  1  0
 13 14  2  0
 14 15  1  0
 15 16  2  0
 15 17  1  0
 17 18  1  0
  8 19  1  0
 19 20  1  0
 20 21  2  0
  6  1  1  0
 17  7  1  0
 32 23  1  0
 20  5  1  0
 31 26  1  0
 14  9  1  0
 39 34  1  0
M  END
>  <minimizedAffinity>  (647) 
-16.76833

$$$$
Mol: 167_52 - SminaDock
     RDKit          3D

 42 48  0  0  0  0  0  0  0  0999 V2000
   12.2890    3.0109  -14.5213 H   0  0  0  0  0  0  0  0  0  0  0  0
   11.5099    3.3586  -13.9758 O   0  0  0  0  0  0  0  0  0  0  0  0
   10.2443    3.2791  -14.5169 C   0  0  0  0  0  0  0  0  0  0  0  0
   10.0412    2.5954  -15.6090 N   0  0  0  0  0  0  0  0  0  0  0  0
    8.8570    2.3299  -16.4033 C   0  0  0  0  0  0  0  0  0  0  0  0
    7.6565    2.0096  -15.5939 C   0  0  0  0  0  0  0  0  0  0  0  0
    7.1998    2.6101  -14.4088 C   0  0  0  0  0  0  0  0  0  0  0  0
    6.0900    2.1966  -13.7390 C   0  0  0  0  0  0  0  0  0  0  0  0
    5.3766    1.1191  -14.2735 C   0  0  0  0  0  0  0  0  0  0  0  0
    4.2313    0.6510  -13.6350 C   0  0  0  0  0  0  0  0  0  0  0  0
    3.4936   -0.4077  -14.1211 C   0  0  0  0  0  0  0  0  0  0  0  0
    3.9410   -0.9960  -15.2851 C   0  0  0  0  0  0  0  0  0  0  0  0
    5.0785   -0.5538  -15.9465 C   0  0  0  0  0  0  0  0  0  0  0  0
    5.5411   -1.1562  -17.1419 N   0  0  0  0  0  0  0  0  0  0  0  0
    6.1031   -2.0143  -17.1615 H   0  0  0  0  0  0  0  0  0  0  0  0
    5.2827   -0.6817  -18.0398 H   0  0  0  0  0  0  0  0  0  0  0  0
    5.8045    0.5130  -15.4384 C   0  0  0  0  0  0  0  0  0  0  0  0
    6.9442    0.9552  -16.1012 C   0  0  0  0  0  0  0  0  0  0  0  0
    7.8421    3.7388  -13.7616 C   0  0  0  0  0  0  0  0  0  0  0  0
    6.9424    4.5049  -13.0857 C   0  0  0  0  0  0  0  0  0  0  0  0
    7.4448    5.5999  -12.3943 C   0  0  0  0  0  0  0  0  0  0  0  0
    8.8132    5.8982  -12.3972 C   0  0  0  0  0  0  0  0  0  0  0  0
    9.6745    5.0823  -13.1054 C   0  0  0  0  0  0  0  0  0  0  0  0
    9.2000    3.9930  -13.7971 C   0  0  0  0  0  0  0  0  0  0  0  0
    9.3262    7.0066  -11.6917 N   0  0  0  0  0  0  0  0  0  0  0  0
    9.6739    6.9657  -10.4343 C   0  0  0  0  0  0  0  0  0  0  0  0
   10.1570    8.0593   -9.8201 N   0  0  0  0  0  0  0  0  0  0  0  0
   10.5357    8.0831   -8.5194 C   0  0  0  0  0  0  0  0  0  0  0  0
   11.0249    9.2021   -7.9117 C   0  0  0  0  0  0  0  0  0  0  0  0
   11.4037    9.2056   -6.5939 C   0  0  0  0  0  0  0  0  0  0  0  0
   11.3066    8.0606   -5.8076 C   0  0  0  0  0  0  0  0  0  0  0  0
   10.8069    6.9399   -6.4497 C   0  0  0  0  0  0  0  0  0  0  0  0
   10.4262    6.9330   -7.7713 C   0  0  0  0  0  0  0  0  0  0  0  0
    9.9321    5.8040   -8.3888 C   0  0  0  0  0  0  0  0  0  0  0  0
    9.5683    5.8437   -9.6998 N   0  0  0  0  0  0  0  0  0  0  0  0
    9.2016    4.9760  -10.1298 H   0  0  0  0  0  0  0  0  0  0  0  0
   11.7085    8.0767   -4.4204 C   0  0  0  0  0  0  0  0  0  0  0  0
   11.7523    6.8884   -3.7243 C   0  0  0  0  0  0  0  0  0  0  0  0
   12.1181    6.8020   -2.4140 C   0  0  0  0  0  0  0  0  0  0  0  0
   12.4661    7.9466   -1.7301 C   0  0  0  0  0  0  0  0  0  0  0  0
   12.4346    9.1572   -2.3941 C   0  0  0  0  0  0  0  0  0  0  0  0
   12.0594    9.2142   -3.7232 C   0  0  0  0  0  0  0  0  0  0  0  0
  1  2  1  0
  2  3  1  0
  3  4  2  0
  4  5  1  0
  5  6  1  0
  6  7  2  0
  7  8  1  0
  8  9  2  0
  9 10  1  0
 10 11  2  0
 11 12  1  0
 12 13  2  0
 13 14  1  0
 14 15  1  0
 14 16  1  0
 13 17  1  0
 17 18  2  0
  7 19  1  0
 19 20  2  0
 20 21  1  0
 21 22  2  0
 22 25  1  0
 25 26  2  0
 26 27  1  0
 27 28  2  0
 28 29  1  0
 29 30  2  0
 30 31  1  0
 31 37  1  0
 37 38  2  0
 38 39  1  0
 39 40  2  0
 40 41  1  0
 41 42  2  0
 31 32  2  0
 32 33  1  0
 33 34  2  0
 34 35  1  0
 35 36  1  0
 22 23  1  0
 23 24  2  0
 24  3  1  0
 18  6  1  0
 24 19  1  0
 17  9  1  0
 35 26  1  0
 33 28  1  0
 42 37  1  0
M  END
>  <minimizedAffinity>  (648) 
-16.79905

$$$$
Mol: 151_22 - SminaDock
     RDKit          3D

 37 43  0  0  0  0  0  0  0  0999 V2000
    8.7318    5.7749  -12.5489 C   0  0  0  0  0  0  0  0  0  0  0  0
    9.4437    5.1349  -13.5264 C   0  0  0  0  0  0  0  0  0  0  0  0
    8.9697    3.9944  -14.1468 C   0  0  0  0  0  0  0  0  0  0  0  0
    7.7505    3.4844  -13.7763 C   0  0  0  0  0  0  0  0  0  0  0  0
    6.9897    4.1019  -12.7865 C   0  0  0  0  0  0  0  0  0  0  0  0
    7.5168    5.2340  -12.2065 C   0  0  0  0  0  0  0  0  0  0  0  0
    5.6803    3.6572  -12.3226 C   0  0  0  0  0  0  0  0  0  0  0  0
    5.1942    2.3774  -12.9024 C   0  0  0  0  0  0  0  0  0  0  0  0
    6.0145    1.8027  -13.9749 C   0  0  0  0  0  0  0  0  0  0  0  0
    5.5227    0.6602  -14.6053 C   0  0  0  0  0  0  0  0  0  0  0  0
    6.2317    0.0341  -15.6111 C   0  0  0  0  0  0  0  0  0  0  0  0
    7.4354    0.5192  -16.0149 C   0  0  0  0  0  0  0  0  0  0  0  0
    7.9505    1.6504  -15.4108 C   0  0  0  0  0  0  0  0  0  0  0  0
    7.2398    2.2745  -14.4062 C   0  0  0  0  0  0  0  0  0  0  0  0
    5.5985   -1.1851  -16.2078 C   0  0  0  0  0  0  0  0  0  0  0  0
    4.2688   -0.8648  -16.4382 O   0  0  0  0  0  0  0  0  0  0  0  0
    3.5307   -0.7255  -15.2894 C   0  0  0  0  0  0  0  0  0  0  0  0
    4.2334    0.0680  -14.2462 C   0  0  0  0  0  0  0  0  0  0  0  0
    3.7820    0.2476  -13.1006 O   0  0  0  0  0  0  0  0  0  0  0  0
   11.1532    8.0637   -6.1273 C   0  0  0  0  0  0  0  0  0  0  0  0
   11.2489    9.2099   -6.8871 C   0  0  0  0  0  0  0  0  0  0  0  0
   10.8691    9.1961   -8.2244 C   0  0  0  0  0  0  0  0  0  0  0  0
   10.3959    8.0380   -8.7960 C   0  0  0  0  0  0  0  0  0  0  0  0
   10.2901    6.8762   -8.0578 C   0  0  0  0  0  0  0  0  0  0  0  0
    9.8065    5.7192   -8.6703 C   0  0  0  0  0  0  0  0  0  0  0  0
    9.4504    5.7561   -9.9751 N   0  0  0  0  0  0  0  0  0  0  0  0
    9.5596    6.8910  -10.6759 C   0  0  0  0  0  0  0  0  0  0  0  0
    9.2336    6.9641  -11.9057 N   0  0  0  0  0  0  0  0  0  0  0  0
   10.0288    8.0216  -10.0891 N   0  0  0  0  0  0  0  0  0  0  0  0
   10.1039    8.9068  -10.6714 H   0  0  0  0  0  0  0  0  0  0  0  0
   10.6728    6.9190   -6.7373 C   0  0  0  0  0  0  0  0  0  0  0  0
   12.2955    7.9355   -2.0235 C   0  0  0  0  0  0  0  0  0  0  0  0
   12.2003    9.1364   -2.6969 C   0  0  0  0  0  0  0  0  0  0  0  0
   11.8349    9.2293   -4.0256 C   0  0  0  0  0  0  0  0  0  0  0  0
   11.5495    8.0592   -4.7175 C   0  0  0  0  0  0  0  0  0  0  0  0
   11.6504    6.8557   -4.0232 C   0  0  0  0  0  0  0  0  0  0  0  0
   12.0150    6.7806   -2.7023 C   0  0  0  0  0  0  0  0  0  0  0  0
 32 33  2  0
 33 34  1  0
 34 35  2  0
 35 20  1  0
 20 21  2  0
 21 22  1  0
 22 23  2  0
 23 24  1  0
 24 25  1  0
 25 26  2  0
 26 27  1  0
 27 28  2  0
 28  1  1  0
  1  2  2  0
  2  3  1  0
  3  4  2  0
  4  5  1  0
  5  6  2  0
  5  7  1  0
  7  8  1  0
  8  9  1  0
  9 10  2  0
 10 11  1  0
 11 12  2  0
 12 13  1  0
 13 14  2  0
 11 15  1  0
 15 16  1  0
 16 17  1  0
 17 18  1  0
 18 19  2  0
 27 29  1  0
 29 30  1  0
 24 31  2  0
 35 36  1  0
 36 37  2  0
 37 32  1  0
 31 20  1  0
 29 23  1  0
  6  1  1  0
 14  9  1  0
 14  4  1  0
 18 10  1  0
M  END
>  <minimizedAffinity>  (649) 
-16.78159

$$$$
Mol: 171_10 - SminaDock
     RDKit          3D

 37 43  0  0  0  0  0  0  0  0999 V2000
    8.0149    5.2965  -12.2967 C   0  0  0  0  0  0  0  0  0  0  0  0
    6.7320    5.4072  -11.7972 C   0  0  0  0  0  0  0  0  0  0  0  0
    5.7834    4.4918  -12.1231 C   0  0  0  0  0  0  0  0  0  0  0  0
    6.0847    3.4314  -12.9617 C   0  0  0  0  0  0  0  0  0  0  0  0
    7.3731    3.3346  -13.4534 C   0  0  0  0  0  0  0  0  0  0  0  0
    8.3351    4.2516  -13.1306 C   0  0  0  0  0  0  0  0  0  0  0  0
    7.0250    2.1127  -14.1906 C   0  0  0  0  0  0  0  0  0  0  0  0
    5.7433    2.2177  -13.6953 C   0  0  0  0  0  0  0  0  0  0  0  0
    4.7706    1.2947  -14.0181 C   0  0  0  0  0  0  0  0  0  0  0  0
    5.0851    0.2333  -14.8614 C   0  0  0  0  0  0  0  0  0  0  0  0
    4.1619   -0.7127  -15.2162 C   0  0  0  0  0  0  0  0  0  0  0  0
    2.9829   -0.6330  -14.7723 O   0  0  0  0  0  0  0  0  0  0  0  0
    4.4617   -1.7385  -16.0294 N   0  0  0  0  0  0  0  0  0  0  0  0
    3.7634   -2.4716  -16.3098 H   0  0  0  0  0  0  0  0  0  0  0  0
    5.7242   -1.8080  -16.4936 C   0  0  0  0  0  0  0  0  0  0  0  0
    6.0359   -2.7592  -17.2587 O   0  0  0  0  0  0  0  0  0  0  0  0
    6.6644   -0.9054  -16.1747 N   0  0  0  0  0  0  0  0  0  0  0  0
    6.3717    0.1226  -15.3623 C   0  0  0  0  0  0  0  0  0  0  0  0
    7.3325    1.0621  -15.0241 C   0  0  0  0  0  0  0  0  0  0  0  0
   11.3131    7.7652   -6.3096 C   0  0  0  0  0  0  0  0  0  0  0  0
   11.8715    8.5696   -7.2783 C   0  0  0  0  0  0  0  0  0  0  0  0
   11.5180    8.4415   -8.6175 C   0  0  0  0  0  0  0  0  0  0  0  0
   10.5859    7.4929   -9.0214 C   0  0  0  0  0  0  0  0  0  0  0  0
   10.2143    7.3316  -10.2967 N   0  0  0  0  0  0  0  0  0  0  0  0
    9.3041    6.4053  -10.6945 C   0  0  0  0  0  0  0  0  0  0  0  0
    8.9662    6.2738  -11.9272 N   0  0  0  0  0  0  0  0  0  0  0  0
    8.7402    5.6045   -9.7763 N   0  0  0  0  0  0  0  0  0  0  0  0
    8.0433    4.8970  -10.0942 H   0  0  0  0  0  0  0  0  0  0  0  0
    9.1024    5.7531   -8.4885 C   0  0  0  0  0  0  0  0  0  0  0  0
   10.0267    6.6903   -8.0663 C   0  0  0  0  0  0  0  0  0  0  0  0
   10.3846    6.8252   -6.7364 C   0  0  0  0  0  0  0  0  0  0  0  0
   12.3463    8.0233   -2.1770 C   0  0  0  0  0  0  0  0  0  0  0  0
   12.4306    9.1378   -2.9840 C   0  0  0  0  0  0  0  0  0  0  0  0
   12.0996    9.0698   -4.3250 C   0  0  0  0  0  0  0  0  0  0  0  0
   11.6762    7.8863   -4.8927 C   0  0  0  0  0  0  0  0  0  0  0  0
   11.5956    6.7895   -4.0888 C   0  0  0  0  0  0  0  0  0  0  0  0
   11.9225    6.8423   -2.7494 C   0  0  0  0  0  0  0  0  0  0  0  0
 32 33  2  0
 33 34  1  0
 34 35  2  0
 35 20  1  0
 20 21  1  0
 21 22  2  0
 22 23  1  0
 23 24  2  0
 24 25  1  0
 25 26  2  0
 26  1  1  0
  1  2  2  0
  2  3  1  0
  3  4  2  0
  4  5  1  0
  5  6  2  0
  5  7  1  0
  7  8  2  0
  8  9  1  0
  9 10  2  0
 10 11  1  0
 11 12  2  0
 11 13  1  0
 13 14  1  0
 13 15  1  0
 15 16  2  0
 15 17  1  0
 17 18  1  0
 18 19  2  0
 25 27  1  0
 27 28  1  0
 27 29  1  0
 29 30  2  0
 30 31  1  0
 35 36  1  0
 36 37  2  0
 37 32  1  0
 31 20  2  0
 30 23  1  0
  6  1  1  0
 19  7  1  0
  8  4  1  0
 18 10  1  0
M  CHG  1  17  -1
M  END
>  <minimizedAffinity>  (650) 
-16.80876

$$$$
Mol: 132_62 - SminaDock
     RDKit          3D

 42 49  0  0  0  0  0  0  0  0999 V2000
    8.7374    6.0150  -12.4076 C   0  0  0  0  0  0  0  0  0  0  0  0
    7.5405    5.5244  -11.9504 C   0  0  0  0  0  0  0  0  0  0  0  0
    7.0071    4.3937  -12.5626 C   0  0  0  0  0  0  0  0  0  0  0  0
    7.6734    3.7888  -13.6026 C   0  0  0  0  0  0  0  0  0  0  0  0
    8.8679    4.2507  -14.0808 C   0  0  0  0  0  0  0  0  0  0  0  0
    9.3835    5.3705  -13.4664 C   0  0  0  0  0  0  0  0  0  0  0  0
    9.5667    3.5558  -15.1436 C   0  0  1  0  0  0  0  0  0  0  0  0
    8.8254    2.5790  -15.9440 C   0  0  0  0  0  0  0  0  0  0  0  0
    7.6219    2.0298  -15.3205 C   0  0  0  0  0  0  0  0  0  0  0  0
    7.0303    0.9180  -15.8513 N   0  0  0  0  0  0  0  0  0  0  0  0
    5.9032    0.4613  -15.3104 C   0  0  0  0  0  0  0  0  0  0  0  0
    5.2675   -0.6779  -15.8299 C   0  0  0  0  0  0  0  0  0  0  0  0
    4.1052   -1.1733  -15.2956 C   0  0  0  0  0  0  0  0  0  0  0  0
    3.5050   -0.5672  -14.2140 C   0  0  0  0  0  0  0  0  0  0  0  0
    4.1112    0.5467  -13.6926 C   0  0  0  0  0  0  0  0  0  0  0  0
    5.2877    1.0538  -14.2283 C   0  0  0  0  0  0  0  0  0  0  0  0
    5.8744    2.1443  -13.7111 N   0  0  0  0  0  0  0  0  0  0  0  0
    7.0243    2.6236  -14.2490 C   0  0  0  0  0  0  0  0  0  0  0  0
   10.2736    4.5522  -16.0944 C   0  0  0  0  0  0  0  0  0  0  0  0
   11.1318    3.5203  -16.8489 C   0  0  0  0  0  0  0  0  0  0  0  0
   11.5638    2.5944  -15.8201 N   0  0  1  0  0  0  0  0  0  0  0  0
   11.5216    1.6131  -16.1732 H   0  0  0  0  0  0  0  0  0  0  0  0
   12.6095    2.7762  -15.6928 H   0  0  0  0  0  0  0  0  0  0  0  0
   10.8291    2.8491  -14.6245 C   0  0  0  0  0  0  0  0  0  0  0  0
   11.2985    8.0171   -5.9605 C   0  0  0  0  0  0  0  0  0  0  0  0
   11.5161    9.1817   -6.6901 C   0  0  0  0  0  0  0  0  0  0  0  0
   11.1582    9.2344   -8.0189 C   0  0  0  0  0  0  0  0  0  0  0  0
   10.5846    8.1771   -8.6813 C   0  0  0  0  0  0  0  0  0  0  0  0
   10.3684    7.0194   -7.9555 C   0  0  0  0  0  0  0  0  0  0  0  0
    9.8061    5.9846   -8.6068 N   0  0  0  0  0  0  0  0  0  0  0  0
    9.4641    6.0339   -9.8746 N   0  0  0  0  0  0  0  0  0  0  0  0
    9.6671    7.1413  -10.5821 C   0  0  0  0  0  0  0  0  0  0  0  0
    9.3252    7.1670  -11.8187 N   0  0  0  0  0  0  0  0  0  0  0  0
   10.2334    8.2243   -9.9791 N   0  0  0  0  0  0  0  0  0  0  0  0
   10.3913    9.0896  -10.5342 H   0  0  0  0  0  0  0  0  0  0  0  0
   10.7209    6.9504   -6.6246 C   0  0  0  0  0  0  0  0  0  0  0  0
   12.4171    7.9463   -1.8450 C   0  0  0  0  0  0  0  0  0  0  0  0
   12.0485    6.7713   -2.4717 C   0  0  0  0  0  0  0  0  0  0  0  0
   11.6815    6.7920   -3.8203 C   0  0  0  0  0  0  0  0  0  0  0  0
   11.6743    7.9526   -4.5533 C   0  0  0  0  0  0  0  0  0  0  0  0
   12.0411    9.1173   -3.9266 C   0  0  0  0  0  0  0  0  0  0  0  0
   12.4073    9.1151   -2.5921 C   0  0  0  0  0  0  0  0  0  0  0  0
 37 38  2  0
 38 39  1  0
 39 40  2  0
 40 25  1  0
 25 26  2  0
 26 27  1  0
 27 28  2  0
 28 29  1  0
 29 30  1  0
 30 31  2  0
 31 32  1  0
 32 33  2  0
 33  1  1  0
  1  2  2  0
  2  3  1  0
  3  4  2  0
  4  5  1  0
  5  6  2  0
  5  7  1  0
  7  8  1  6
  8  9  1  0
  9 10  2  0
 10 11  1  0
 11 12  2  0
 12 13  1  0
 13 14  2  0
 14 15  1  0
 15 16  2  0
 16 17  1  0
 17 18  2  0
  7 19  1  0
 19 20  1  0
 20 21  1  0
 21 22  1  6
 21 23  1  0
 21 24  1  0
 32 34  1  0
 34 35  1  0
 29 36  2  0
 40 41  1  0
 41 42  2  0
 42 37  1  0
 36 25  1  0
 34 28  1  0
  6  1  1  0
 24  7  1  0
 18  4  1  0
 18  9  1  0
 16 11  1  0
M  CHG  1  21   1
M  END
>  <minimizedAffinity>  (651) 
-16.77690

$$$$
Mol: 133_63 - SminaDock
     RDKit          3D

 44 51  0  0  0  0  0  0  0  0999 V2000
    9.6653    5.7720  -13.0933 C   0  0  0  0  0  0  0  0  0  0  0  0
    9.8953    4.9139  -14.1455 C   0  0  0  0  0  0  0  0  0  0  0  0
    8.9939    3.8922  -14.4685 C   0  0  0  0  0  0  0  0  0  0  0  0
    7.8642    3.7744  -13.6945 C   0  0  0  0  0  0  0  0  0  0  0  0
    7.6137    4.6296  -12.6293 C   0  0  0  0  0  0  0  0  0  0  0  0
    8.5190    5.6312  -12.3296 C   0  0  0  0  0  0  0  0  0  0  0  0
    6.4244    4.5574  -11.7609 C   0  0  0  0  0  0  0  0  0  0  0  0
    5.4538    3.4995  -12.0740 C   0  0  0  0  0  0  0  0  0  0  0  0
    5.7598    2.6135  -13.2056 C   0  0  0  0  0  0  0  0  0  0  0  0
    4.8090    1.6057  -13.4681 C   0  0  0  0  0  0  0  0  0  0  0  0
    5.0159    0.7494  -14.4938 C   0  0  0  0  0  0  0  0  0  0  0  0
    6.1540    0.8611  -15.2830 C   0  0  0  0  0  0  0  0  0  0  0  0
    7.1043    1.8579  -15.0303 C   0  0  0  0  0  0  0  0  0  0  0  0
    6.8809    2.7218  -13.9831 C   0  0  0  0  0  0  0  0  0  0  0  0
    6.3111   -0.0762  -16.3887 C   0  0  1  0  0  0  0  0  0  0  0  0
    5.6961   -1.4368  -16.0848 C   0  0  0  0  0  0  0  0  0  0  0  0
    4.2884   -1.2057  -15.7919 N   0  0  0  0  0  0  0  0  0  0  0  0
    3.4914   -1.6304  -16.2839 H   0  0  0  0  0  0  0  0  0  0  0  0
    4.0133   -0.3041  -14.7149 C   0  0  0  0  0  0  0  0  0  0  0  0
    3.0008   -0.3757  -13.9902 O   0  0  0  0  0  0  0  0  0  0  0  0
    5.5942    0.4059  -17.6583 C   0  0  0  0  0  0  0  0  0  0  0  0
    6.2257   -0.4968  -18.6971 C   0  0  0  0  0  0  0  0  0  0  0  0
    7.4740   -0.9885  -18.1673 N   0  0  2  0  0  0  0  0  0  0  0  0
    8.2247   -0.7403  -18.8643 H   0  0  0  0  0  0  0  0  0  0  0  0
    7.5175   -1.9999  -18.0151 H   0  0  0  0  0  0  0  0  0  0  0  0
    7.7027   -0.2430  -16.9286 C   0  0  0  0  0  0  0  0  0  0  0  0
   11.0950    7.4819   -6.5328 C   0  0  0  0  0  0  0  0  0  0  0  0
   10.2034    6.4737   -6.8442 C   0  0  0  0  0  0  0  0  0  0  0  0
    9.9278    6.1443   -8.1564 C   0  0  0  0  0  0  0  0  0  0  0  0
   10.5245    6.8006   -9.2128 C   0  0  0  0  0  0  0  0  0  0  0  0
   11.4159    7.8085   -8.9083 C   0  0  0  0  0  0  0  0  0  0  0  0
   12.0063    8.4569   -9.9737 C   0  0  0  0  0  0  0  0  0  0  0  0
   11.7153    8.1100  -11.2420 N   0  0  0  0  0  0  0  0  0  0  0  0
   10.8456    7.1265  -11.5329 C   0  0  0  0  0  0  0  0  0  0  0  0
   10.5762    6.8025  -12.7657 N   0  0  0  0  0  0  0  0  0  0  0  0
   10.2658    6.4897  -10.4998 N   0  0  0  0  0  0  0  0  0  0  0  0
    9.5871    5.7233  -10.6861 H   0  0  0  0  0  0  0  0  0  0  0  0
   11.6891    8.1352   -7.5940 C   0  0  0  0  0  0  0  0  0  0  0  0
   11.9801    8.4360   -2.4524 C   0  0  0  0  0  0  0  0  0  0  0  0
   11.8105    9.4316   -3.4061 C   0  0  0  0  0  0  0  0  0  0  0  0
   11.5245    9.1451   -4.7273 C   0  0  0  0  0  0  0  0  0  0  0  0
   11.3968    7.8409   -5.1456 C   0  0  0  0  0  0  0  0  0  0  0  0
   11.5651    6.8493   -4.1991 C   0  0  0  0  0  0  0  0  0  0  0  0
   11.8514    7.1336   -2.8760 C   0  0  0  0  0  0  0  0  0  0  0  0
 39 40  2  0
 40 41  1  0
 41 42  2  0
 42 27  1  0
 27 28  2  0
 28 29  1  0
 29 30  2  0
 30 31  1  0
 31 32  1  0
 32 33  2  0
 33 34  1  0
 34 35  2  0
 35  1  1  0
  1  2  2  0
  2  3  1  0
  3  4  2  0
  4  5  1  0
  5  6  2  0
  5  7  1  0
  7  8  1  0
  8  9  1  0
  9 10  2  0
 10 11  1  0
 11 12  2  0
 12 13  1  0
 13 14  2  0
 12 15  1  0
 15 16  1  1
 16 17  1  0
 17 18  1  0
 17 19  1  0
 19 20  2  0
 15 21  1  0
 21 22  1  0
 22 23  1  0
 23 24  1  6
 23 25  1  0
 23 26  1  0
 34 36  1  0
 36 37  1  0
 31 38  2  0
 42 43  1  0
 43 44  2  0
 44 39  1  0
 38 27  1  0
 36 30  1  0
  6  1  1  0
 14  9  1  0
 26 15  1  0
 14  4  1  0
 19 11  1  0
M  CHG  1  23   1
M  END
>  <minimizedAffinity>  (652) 
-16.77000

$$$$
Mol: 151_56 - SminaDock
     RDKit          3D

 37 43  0  0  0  0  0  0  0  0999 V2000
    8.8203    5.9756  -12.3167 C   0  0  0  0  0  0  0  0  0  0  0  0
    9.4010    5.4115  -13.4321 C   0  0  0  0  0  0  0  0  0  0  0  0
    8.8055    4.3032  -14.0619 C   0  0  0  0  0  0  0  0  0  0  0  0
    7.6355    3.7482  -13.5930 C   0  0  0  0  0  0  0  0  0  0  0  0
    7.0678    4.3251  -12.4722 C   0  0  0  0  0  0  0  0  0  0  0  0
    7.6523    5.4213  -11.8460 C   0  0  0  0  0  0  0  0  0  0  0  0
    5.8631    3.7656  -11.9572 N   0  0  0  0  0  0  0  0  0  0  0  0
    5.4883    4.2377  -11.0740 H   0  0  0  0  0  0  0  0  0  0  0  0
    5.1753    2.6540  -12.5435 C   0  0  0  0  0  0  0  0  0  0  0  0
    5.8378    2.1116  -13.7389 C   0  0  0  0  0  0  0  0  0  0  0  0
    7.0103    2.6042  -14.2577 C   0  0  0  0  0  0  0  0  0  0  0  0
    7.5995    2.0524  -15.3926 C   0  0  0  0  0  0  0  0  0  0  0  0
    6.9954    0.9863  -16.0174 C   0  0  0  0  0  0  0  0  0  0  0  0
    5.8089    0.4553  -15.5312 C   0  0  0  0  0  0  0  0  0  0  0  0
    5.1909   -0.6111  -16.1499 C   0  0  0  0  0  0  0  0  0  0  0  0
    4.0191   -1.0920  -15.6239 C   0  0  0  0  0  0  0  0  0  0  0  0
    3.4539   -0.5272  -14.4925 C   0  0  0  0  0  0  0  0  0  0  0  0
    4.0701    0.5344  -13.8782 C   0  0  0  0  0  0  0  0  0  0  0  0
    5.2506    1.0207  -14.4069 C   0  0  0  0  0  0  0  0  0  0  0  0
   11.3642    8.1062   -5.8353 C   0  0  0  0  0  0  0  0  0  0  0  0
   11.5953    9.2140   -6.6421 C   0  0  0  0  0  0  0  0  0  0  0  0
   11.2568    9.2371   -7.9822 C   0  0  0  0  0  0  0  0  0  0  0  0
   10.6678    8.1440   -8.5770 C   0  0  0  0  0  0  0  0  0  0  0  0
   10.3292    8.1417   -9.8798 N   0  0  0  0  0  0  0  0  0  0  0  0
    9.7504    7.0748  -10.4794 C   0  0  0  0  0  0  0  0  0  0  0  0
    9.4278    7.1026  -11.6987 N   0  0  0  0  0  0  0  0  0  0  0  0
    9.5175    5.9957   -9.7280 N   0  0  0  0  0  0  0  0  0  0  0  0
    9.0731    5.1043  -10.0970 H   0  0  0  0  0  0  0  0  0  0  0  0
    9.8412    5.9452   -8.4004 C   0  0  0  0  0  0  0  0  0  0  0  0
   10.4305    7.0299   -7.7850 C   0  0  0  0  0  0  0  0  0  0  0  0
   10.7709    7.0149   -6.4485 C   0  0  0  0  0  0  0  0  0  0  0  0
   12.4451    7.9701   -1.6987 C   0  0  0  0  0  0  0  0  0  0  0  0
   12.1518    6.8298   -2.4156 C   0  0  0  0  0  0  0  0  0  0  0  0
   11.8023    6.8898   -3.7552 C   0  0  0  0  0  0  0  0  0  0  0  0
   11.7353    8.0999   -4.4217 C   0  0  0  0  0  0  0  0  0  0  0  0
   12.0280    9.2430   -3.7081 C   0  0  0  0  0  0  0  0  0  0  0  0
   12.3786    9.1764   -2.3622 C   0  0  0  0  0  0  0  0  0  0  0  0
 32 33  2  0
 33 34  1  0
 34 35  2  0
 35 20  1  0
 20 21  1  0
 21 22  2  0
 22 23  1  0
 23 24  2  0
 24 25  1  0
 25 26  2  0
 26  1  1  0
  1  2  2  0
  2  3  1  0
  3  4  2  0
  4  5  1  0
  5  6  2  0
  5  7  1  0
  7  8  1  0
  7  9  1  0
  9 10  1  0
 10 11  2  0
 11 12  1  0
 12 13  2  0
 13 14  1  0
 14 15  2  0
 15 16  1  0
 16 17  2  0
 17 18  1  0
 18 19  2  0
 25 27  1  0
 27 28  1  0
 27 29  1  0
 29 30  2  0
 30 31  1  0
 35 36  1  0
 36 37  2  0
 37 32  1  0
 31 20  2  0
 30 23  1  0
  6  1  1  0
 19 10  1  0
 11  4  1  0
 19 14  1  0
M  END
>  <minimizedAffinity>  (653) 
-16.77004

$$$$
Mol: 151_58 - SminaDock
     RDKit          3D

 38 44  0  0  0  0  0  0  0  0999 V2000
    1.8871   -1.9548  -14.8771 H   0  0  0  0  0  0  0  0  0  0  0  0
    2.3213   -1.2243  -14.3238 O   0  0  0  0  0  0  0  0  0  0  0  0
    3.5988   -0.7800  -14.5956 C   0  0  0  0  0  0  0  0  0  0  0  0
    4.0613    0.3158  -14.0202 C   0  0  0  0  0  0  0  0  0  0  0  0
    5.4231    0.7874  -14.3137 C   0  0  0  0  0  0  0  0  0  0  0  0
    5.9000    1.9340  -13.7044 C   0  0  0  0  0  0  0  0  0  0  0  0
    7.1875    2.4120  -13.9545 C   0  0  0  0  0  0  0  0  0  0  0  0
    7.9491    1.6781  -14.8384 C   0  0  0  0  0  0  0  0  0  0  0  0
    7.4524    0.5205  -15.4465 C   0  0  0  0  0  0  0  0  0  0  0  0
    6.1745    0.0562  -15.1912 C   0  0  0  0  0  0  0  0  0  0  0  0
    5.6734   -1.1776  -15.8562 C   0  0  0  0  0  0  0  0  0  0  0  0
    4.3883   -1.4857  -15.4699 O   0  0  0  0  0  0  0  0  0  0  0  0
    9.3222    2.0851  -15.1785 C   0  0  0  0  0  0  0  0  0  0  0  0
    9.8434    3.2996  -14.5430 C   0  0  0  0  0  0  0  0  0  0  0  0
    8.9753    4.0211  -13.6196 C   0  0  0  0  0  0  0  0  0  0  0  0
    9.4759    5.1767  -13.0179 C   0  0  0  0  0  0  0  0  0  0  0  0
    8.7123    5.9027  -12.1406 C   0  0  0  0  0  0  0  0  0  0  0  0
    7.4302    5.4660  -11.8619 C   0  0  0  0  0  0  0  0  0  0  0  0
    6.8960    4.3309  -12.4333 C   0  0  0  0  0  0  0  0  0  0  0  0
    7.6968    3.6168  -13.3193 C   0  0  0  0  0  0  0  0  0  0  0  0
    9.2542    7.0735  -11.5484 N   0  0  0  0  0  0  0  0  0  0  0  0
    9.6139    7.0435  -10.3178 C   0  0  0  0  0  0  0  0  0  0  0  0
    9.4731    5.9117   -9.6131 N   0  0  0  0  0  0  0  0  0  0  0  0
    9.8604    5.8951   -8.3036 C   0  0  0  0  0  0  0  0  0  0  0  0
   10.3901    7.0145   -7.6980 C   0  0  0  0  0  0  0  0  0  0  0  0
   10.7826    6.9816   -6.3550 C   0  0  0  0  0  0  0  0  0  0  0  0
   11.3103    8.1138   -5.7696 C   0  0  0  0  0  0  0  0  0  0  0  0
   11.4341    9.2505   -6.5369 C   0  0  0  0  0  0  0  0  0  0  0  0
   11.0393    9.2742   -7.8779 C   0  0  0  0  0  0  0  0  0  0  0  0
   10.5155    8.1550   -8.4628 C   0  0  0  0  0  0  0  0  0  0  0  0
   10.1324    8.1691   -9.7560 N   0  0  0  0  0  0  0  0  0  0  0  0
   10.2292    9.0251  -10.3214 H   0  0  0  0  0  0  0  0  0  0  0  0
   11.7262    8.0985   -4.3651 C   0  0  0  0  0  0  0  0  0  0  0  0
   11.7581    6.9056   -3.6894 C   0  0  0  0  0  0  0  0  0  0  0  0
   12.1414    6.8700   -2.3843 C   0  0  0  0  0  0  0  0  0  0  0  0
   12.5006    8.0195   -1.7256 C   0  0  0  0  0  0  0  0  0  0  0  0
   12.4634    9.2102   -2.4182 C   0  0  0  0  0  0  0  0  0  0  0  0
   12.0828    9.2917   -3.7354 C   0  0  0  0  0  0  0  0  0  0  0  0
  1  2  1  0
  2  3  1  0
  3  4  2  0
  4  5  1  0
  5  6  2  0
  6  7  1  0
  7  8  2  0
  8  9  1  0
  9 10  2  0
 10 11  1  0
 11 12  1  0
  8 13  1  0
 13 14  1  0
 14 15  1  0
 15 16  2  0
 16 17  1  0
 17 21  1  0
 21 22  2  0
 22 23  1  0
 23 24  2  0
 24 25  1  0
 25 26  2  0
 26 27  1  0
 27 33  1  0
 33 34  2  0
 34 35  1  0
 35 36  2  0
 36 37  1  0
 37 38  2  0
 27 28  2  0
 28 29  1  0
 29 30  2  0
 30 31  1  0
 31 32  1  0
 17 18  2  0
 18 19  1  0
 19 20  2  0
 12  3  1  0
 20 15  1  0
 10  5  1  0
 31 22  1  0
 20  7  1  0
 30 25  1  0
 38 33  1  0
M  END
>  <minimizedAffinity>  (654) 
-16.80382

$$$$
Mol: 167_28 - SminaDock
     RDKit          3D

 39 45  0  0  0  0  0  0  0  0999 V2000
    5.3896    4.4631  -11.7192 O   0  0  0  0  0  0  0  0  0  0  0  0
    6.1711    3.8435  -12.4868 C   0  0  0  0  0  0  0  0  0  0  0  0
    5.7617    2.5908  -13.0602 C   0  0  0  0  0  0  0  0  0  0  0  0
    6.6411    2.0575  -14.0875 C   0  0  0  0  0  0  0  0  0  0  0  0
    7.8634    2.6450  -14.3314 C   0  0  0  0  0  0  0  0  0  0  0  0
    8.6869    2.0573  -15.3023 C   0  0  0  0  0  0  0  0  0  0  0  0
    8.2995    0.9284  -16.0005 C   0  0  0  0  0  0  0  0  0  0  0  0
    7.0734    0.3867  -15.7192 C   0  0  0  0  0  0  0  0  0  0  0  0
    6.6546   -0.7284  -16.3906 N   0  0  0  0  0  0  0  0  0  0  0  0
    5.4717   -1.3157  -16.1745 C   0  0  0  0  0  0  0  0  0  0  0  0
    5.1872   -2.3441  -16.8538 O   0  0  0  0  0  0  0  0  0  0  0  0
    4.6294   -0.7997  -15.2507 N   0  0  0  0  0  0  0  0  0  0  0  0
    4.9853    0.3067  -14.5493 C   0  0  0  0  0  0  0  0  0  0  0  0
    4.1959    0.7502  -13.7171 O   0  0  0  0  0  0  0  0  0  0  0  0
    6.1970    0.9042  -14.7735 C   0  0  0  0  0  0  0  0  0  0  0  0
    8.3310    3.8633  -13.6706 C   0  0  0  0  0  0  0  0  0  0  0  0
    9.5566    4.4122  -13.9355 C   0  0  0  0  0  0  0  0  0  0  0  0
    9.8750    5.5688  -13.2358 C   0  0  0  0  0  0  0  0  0  0  0  0
    9.0399    6.1633  -12.3212 C   0  0  0  0  0  0  0  0  0  0  0  0
    7.8223    5.5908  -12.0787 C   0  0  0  0  0  0  0  0  0  0  0  0
    7.4587    4.4218  -12.7629 C   0  0  0  0  0  0  0  0  0  0  0  0
    9.4103    7.3602  -11.6189 N   0  0  0  0  0  0  0  0  0  0  0  0
    9.7787    7.2920  -10.3635 C   0  0  0  0  0  0  0  0  0  0  0  0
    9.8215    6.1302   -9.7065 N   0  0  0  0  0  0  0  0  0  0  0  0
   10.1898    5.9954   -8.4216 C   0  0  0  0  0  0  0  0  0  0  0  0
   10.5488    7.1638   -7.7458 C   0  0  0  0  0  0  0  0  0  0  0  0
   10.9338    7.1028   -6.4399 C   0  0  0  0  0  0  0  0  0  0  0  0
   11.2881    8.2595   -5.7757 C   0  0  0  0  0  0  0  0  0  0  0  0
   11.2558    9.4751   -6.4218 C   0  0  0  0  0  0  0  0  0  0  0  0
   10.8625    9.5021   -7.7401 C   0  0  0  0  0  0  0  0  0  0  0  0
   10.4983    8.3536   -8.4410 C   0  0  0  0  0  0  0  0  0  0  0  0
   10.1178    8.4303   -9.7402 N   0  0  0  0  0  0  0  0  0  0  0  0
    9.5539    5.2547  -10.2085 H   0  0  0  0  0  0  0  0  0  0  0  0
   11.6936    8.1480   -4.3800 C   0  0  0  0  0  0  0  0  0  0  0  0
   12.0398    9.2515   -3.6297 C   0  0  0  0  0  0  0  0  0  0  0  0
   12.4232    9.1388   -2.3040 C   0  0  0  0  0  0  0  0  0  0  0  0
   12.4638    7.9003   -1.7096 C   0  0  0  0  0  0  0  0  0  0  0  0
   12.1243    6.7812   -2.4322 C   0  0  0  0  0  0  0  0  0  0  0  0
   11.7398    6.9148   -3.7689 C   0  0  0  0  0  0  0  0  0  0  0  0
  1  2  2  0
  2  3  1  0
  3  4  1  0
  4  5  2  0
  5  6  1  0
  6  7  2  0
  7  8  1  0
  8  9  1  0
  9 10  1  0
 10 11  2  0
 10 12  1  0
 12 13  1  0
 13 14  2  0
 13 15  1  0
  5 16  1  0
 16 17  2  0
 17 18  1  0
 18 19  2  0
 19 22  1  0
 22 23  2  0
 23 24  1  0
 24 25  1  0
 25 26  2  0
 26 27  1  0
 27 28  2  0
 28 34  1  0
 34 35  2  0
 35 36  1  0
 36 37  2  0
 37 38  1  0
 38 39  2  0
 28 29  1  0
 29 30  2  0
 30 31  1  0
 31 32  2  0
 19 20  1  0
 20 21  2  0
 21  2  1  0
 15  4  1  0
 21 16  1  0
 15  8  2  0
 32 23  1  0
 31 26  1  0
 39 34  1  0
 24 33  1  0
M  CHG  2   9  -1  12  -1
M  END
>  <minimizedAffinity>  (655) 
-16.77247

$$$$
Mol: 161_12 - SminaDock
     RDKit          3D

 37 43  0  0  0  0  0  0  0  0999 V2000
    8.7265    5.7369  -12.3692 C   0  0  0  0  0  0  0  0  0  0  0  0
    9.4727    4.9055  -13.1752 C   0  0  0  0  0  0  0  0  0  0  0  0
    8.9750    3.7488  -13.7175 C   0  0  0  0  0  0  0  0  0  0  0  0
    7.6722    3.3899  -13.4526 C   0  0  0  0  0  0  0  0  0  0  0  0
    6.9010    4.1868  -12.6595 C   0  0  0  0  0  0  0  0  0  0  0  0
    7.4333    5.3627  -12.1179 C   0  0  0  0  0  0  0  0  0  0  0  0
    5.5018    3.8684  -12.3424 C   0  0  0  0  0  0  0  0  0  0  0  0
    4.9394    2.6172  -12.8679 C   0  0  0  0  0  0  0  0  0  0  0  0
    5.7997    1.8063  -13.7260 C   0  0  0  0  0  0  0  0  0  0  0  0
    7.0924    2.1716  -13.9931 C   0  0  0  0  0  0  0  0  0  0  0  0
    7.8779    1.4131  -14.7787 N   0  0  0  0  0  0  0  0  0  0  0  0
    7.3705    0.2884  -15.2979 C   0  0  0  0  0  0  0  0  0  0  0  0
    8.0896   -0.4480  -16.0437 O   0  0  0  0  0  0  0  0  0  0  0  0
    6.0848   -0.1228  -15.0628 C   0  0  0  0  0  0  0  0  0  0  0  0
    5.2657    0.6367  -14.2635 C   0  0  0  0  0  0  0  0  0  0  0  0
    4.0599   -0.0226  -14.2170 C   0  0  0  0  0  0  0  0  0  0  0  0
    4.1667   -1.1379  -14.9677 N   0  0  0  0  0  0  0  0  0  0  0  0
    5.3949   -1.2197  -15.4940 N   0  0  0  0  0  0  0  0  0  0  0  0
    5.7334   -1.9910  -16.1150 H   0  0  0  0  0  0  0  0  0  0  0  0
   11.2719    8.0000   -5.9486 C   0  0  0  0  0  0  0  0  0  0  0  0
   11.4422    9.1356   -6.7399 C   0  0  0  0  0  0  0  0  0  0  0  0
   11.0728    9.1280   -8.0699 C   0  0  0  0  0  0  0  0  0  0  0  0
   10.5238    8.0087   -8.6721 C   0  0  0  0  0  0  0  0  0  0  0  0
   10.3511    6.8790   -7.8965 C   0  0  0  0  0  0  0  0  0  0  0  0
    9.8031    5.7657   -8.5023 C   0  0  0  0  0  0  0  0  0  0  0  0
    9.4565    5.7996   -9.8019 N   0  0  0  0  0  0  0  0  0  0  0  0
    9.6209    6.8994  -10.5702 C   0  0  0  0  0  0  0  0  0  0  0  0
    9.2894    6.9397  -11.8219 N   0  0  0  0  0  0  0  0  0  0  0  0
   10.1614    7.9931   -9.9668 N   0  0  0  0  0  0  0  0  0  0  0  0
   10.2978    8.8590  -10.5473 H   0  0  0  0  0  0  0  0  0  0  0  0
   10.7228    6.9011   -6.5761 C   0  0  0  0  0  0  0  0  0  0  0  0
   12.4180    8.0240   -1.8595 C   0  0  0  0  0  0  0  0  0  0  0  0
   12.0540    6.8399   -2.4745 C   0  0  0  0  0  0  0  0  0  0  0  0
   11.6885    6.8727   -3.8020 C   0  0  0  0  0  0  0  0  0  0  0  0
   11.6652    8.0279   -4.5573 C   0  0  0  0  0  0  0  0  0  0  0  0
   12.0309    9.1959   -3.9270 C   0  0  0  0  0  0  0  0  0  0  0  0
   12.4003    9.1784   -2.5940 C   0  0  0  0  0  0  0  0  0  0  0  0
 32 33  2  0
 33 34  1  0
 34 35  2  0
 35 20  1  0
 20 21  2  0
 21 22  1  0
 22 23  2  0
 23 24  1  0
 24 25  1  0
 25 26  2  0
 26 27  1  0
 27 28  2  0
 28  1  1  0
  1  2  2  0
  2  3  1  0
  3  4  2  0
  4  5  1  0
  5  6  2  0
  5  7  1  0
  7  8  1  0
  8  9  1  0
  9 10  2  0
 10 11  1  0
 11 12  1  0
 12 13  2  0
 12 14  1  0
 14 15  2  0
 15 16  1  0
 16 17  2  0
 17 18  1  0
 18 19  1  0
 27 29  1  0
 29 30  1  0
 24 31  2  0
 35 36  1  0
 36 37  2  0
 37 32  1  0
 31 20  1  0
 29 23  1  0
  6  1  1  0
 15  9  1  0
 10  4  1  0
 18 14  1  0
M  CHG  1  11  -1
M  END
>  <minimizedAffinity>  (656) 
-16.79265

$$$$
Mol: 159_19 - SminaDock
     RDKit          3D

 42 48  0  0  0  0  0  0  0  0999 V2000
    9.0480    6.3534  -12.3620 C   0  0  0  0  0  0  0  0  0  0  0  0
    9.9511    5.7907  -13.2445 C   0  0  0  0  0  0  0  0  0  0  0  0
    9.6324    4.6840  -13.9946 C   0  0  0  0  0  0  0  0  0  0  0  0
    8.3620    4.1471  -13.8335 C   0  0  0  0  0  0  0  0  0  0  0  0
    7.4625    4.6796  -12.9819 C   0  0  0  0  0  0  0  0  0  0  0  0
    7.8048    5.8075  -12.2234 C   0  0  0  0  0  0  0  0  0  0  0  0
    6.1122    4.2044  -12.8707 C   0  0  0  0  0  0  0  0  0  0  0  0
    5.7751    2.8041  -13.3182 C   0  0  0  0  0  0  0  0  0  0  0  0
    6.7472    2.3106  -14.2844 C   0  0  0  0  0  0  0  0  0  0  0  0
    7.9743    2.9101  -14.5150 C   0  0  0  0  0  0  0  0  0  0  0  0
    8.8345    2.3927  -15.4236 N   0  0  0  0  0  0  0  0  0  0  0  0
    8.5849    1.3009  -16.1538 C   0  0  0  0  0  0  0  0  0  0  0  0
    9.3856    0.8255  -16.9959 O   0  0  0  0  0  0  0  0  0  0  0  0
    7.3732    0.6597  -15.9684 C   0  0  0  0  0  0  0  0  0  0  0  0
    6.4656    1.1793  -15.0238 C   0  0  0  0  0  0  0  0  0  0  0  0
    5.2472    0.4578  -14.7708 N   0  0  0  0  0  0  0  0  0  0  0  0
    4.7580    0.4505  -13.4411 C   0  0  0  0  0  0  0  0  0  0  0  0
    4.6246   -0.2728  -15.9055 C   0  0  0  0  0  0  0  0  0  0  0  0
    5.6775   -1.0367  -16.5652 N   0  0  0  0  0  0  0  0  0  0  0  0
    5.3723   -2.3216  -16.9973 N   0  0  0  0  0  0  0  0  0  0  0  0
    4.4961   -2.3453  -17.5803 H   0  0  0  0  0  0  0  0  0  0  0  0
    6.1297   -2.6798  -17.6493 H   0  0  0  0  0  0  0  0  0  0  0  0
    6.9731   -0.4814  -16.7615 C   0  0  0  0  0  0  0  0  0  0  0  0
    7.7761   -0.9525  -17.6008 O   0  0  0  0  0  0  0  0  0  0  0  0
   11.2868    8.2124   -5.7324 C   0  0  0  0  0  0  0  0  0  0  0  0
   11.2708    9.4380   -6.3670 C   0  0  0  0  0  0  0  0  0  0  0  0
   10.8864    9.5093   -7.6875 C   0  0  0  0  0  0  0  0  0  0  0  0
   10.5092    8.3923   -8.4211 C   0  0  0  0  0  0  0  0  0  0  0  0
   10.5265    7.1696   -7.7829 C   0  0  0  0  0  0  0  0  0  0  0  0
   10.1513    6.0651   -8.5169 C   0  0  0  0  0  0  0  0  0  0  0  0
    9.7749    6.1446   -9.8173 N   0  0  0  0  0  0  0  0  0  0  0  0
    9.7751    7.3579  -10.3924 C   0  0  0  0  0  0  0  0  0  0  0  0
    9.4296    7.4883  -11.6163 N   0  0  0  0  0  0  0  0  0  0  0  0
   10.1368    8.4569   -9.7008 N   0  0  0  0  0  0  0  0  0  0  0  0
   10.1418    9.4226  -10.1417 H   0  0  0  0  0  0  0  0  0  0  0  0
   10.9118    7.0896   -6.4549 C   0  0  0  0  0  0  0  0  0  0  0  0
   12.4664    7.9355   -1.6727 C   0  0  0  0  0  0  0  0  0  0  0  0
   12.1538    6.8047   -2.4047 C   0  0  0  0  0  0  0  0  0  0  0  0
   11.7673    6.8836   -3.7304 C   0  0  0  0  0  0  0  0  0  0  0  0
   11.6951    8.1249   -4.3277 C   0  0  0  0  0  0  0  0  0  0  0  0
   12.0072    9.2481   -3.5951 C   0  0  0  0  0  0  0  0  0  0  0  0
   12.3918    9.1763   -2.2779 C   0  0  0  0  0  0  0  0  0  0  0  0
 37 38  2  0
 38 39  1  0
 39 40  2  0
 40 25  1  0
 25 26  2  0
 26 27  1  0
 27 28  2  0
 28 29  1  0
 29 30  1  0
 30 31  2  0
 31 32  1  0
 32 33  2  0
 33  1  1  0
  1  2  2  0
  2  3  1  0
  3  4  2  0
  4  5  1  0
  5  6  2  0
  5  7  1  0
  7  8  1  0
  8  9  1  0
  9 10  2  0
 10 11  1  0
 11 12  1  0
 12 13  2  0
 12 14  1  0
 14 15  2  0
 15 16  1  0
 16 17  1  0
 16 18  1  0
 18 19  1  0
 19 20  1  0
 20 21  1  0
 20 22  1  0
 19 23  1  0
 23 24  2  0
 32 34  1  0
 34 35  1  0
 29 36  2  0
 40 41  1  0
 41 42  2  0
 42 37  1  0
 36 25  1  0
 34 28  1  0
  6  1  1  0
 15  9  1  0
 10  4  1  0
 23 14  1  0
M  CHG  1  11  -1
M  END
>  <minimizedAffinity>  (657) 
-16.77215

$$$$
Mol: 198_16 - SminaDock
     RDKit          3D

 38 44  0  0  0  0  0  0  0  0999 V2000
    8.4110    5.6483  -12.3231 C   0  0  0  0  0  0  0  0  0  0  0  0
    7.2411    5.2315  -11.7358 C   0  0  0  0  0  0  0  0  0  0  0  0
    6.5829    4.1300  -12.2679 C   0  0  0  0  0  0  0  0  0  0  0  0
    7.0835    3.4692  -13.3542 C   0  0  0  0  0  0  0  0  0  0  0  0
    6.4330    2.3587  -13.9019 C   0  0  0  0  0  0  0  0  0  0  0  0
    5.2645    1.9191  -13.3389 C   0  0  0  0  0  0  0  0  0  0  0  0
    4.6416    0.8284  -13.8910 C   0  0  0  0  0  0  0  0  0  0  0  0
    5.1475    0.1693  -14.9801 C   0  0  0  0  0  0  0  0  0  0  0  0
    4.4804   -0.9295  -15.5023 C   0  0  0  0  0  0  0  0  0  0  0  0
    5.0185   -1.5613  -16.5917 C   0  0  0  0  0  0  0  0  0  0  0  0
    6.1899   -1.1204  -17.1559 C   0  0  0  0  0  0  0  0  0  0  0  0
    6.8680   -0.0123  -16.6338 C   0  0  0  0  0  0  0  0  0  0  0  0
    6.3459    0.6270  -15.5508 C   0  0  0  0  0  0  0  0  0  0  0  0
    7.0195    1.7377  -15.0222 C   0  0  0  0  0  0  0  0  0  0  0  0
    8.1780    2.2009  -15.5533 C   0  0  0  0  0  0  0  0  0  0  0  0
    8.7375    1.6994  -16.5316 O   0  0  0  0  0  0  0  0  0  0  0  0
    8.7868    3.2676  -15.0136 N   0  0  0  0  0  0  0  0  0  0  0  0
   10.0445    3.7867  -15.5740 C   0  0  0  0  0  0  0  0  0  0  0  0
    8.2670    3.8861  -13.9531 C   0  0  0  0  0  0  0  0  0  0  0  0
    8.9140    4.9879  -13.4110 C   0  0  0  0  0  0  0  0  0  0  0  0
   11.2788    7.8925   -6.0475 C   0  0  0  0  0  0  0  0  0  0  0  0
   11.5956    8.9221   -6.9178 C   0  0  0  0  0  0  0  0  0  0  0  0
   11.2425    8.9215   -8.2412 C   0  0  0  0  0  0  0  0  0  0  0  0
   10.5338    7.8487   -8.7557 C   0  0  0  0  0  0  0  0  0  0  0  0
   10.1933    6.7879   -7.9120 C   0  0  0  0  0  0  0  0  0  0  0  0
   10.5742    6.8355   -6.5776 C   0  0  0  0  0  0  0  0  0  0  0  0
    9.4884    5.7055   -8.3931 C   0  0  0  0  0  0  0  0  0  0  0  0
    9.1401    5.7184   -9.7260 C   0  0  0  0  0  0  0  0  0  0  0  0
    9.4677    6.7549  -10.5689 C   0  0  0  0  0  0  0  0  0  0  0  0
    9.1464    6.7804  -11.8268 N   0  0  0  0  0  0  0  0  0  0  0  0
   10.1601    7.7923  -10.0453 N   0  0  0  0  0  0  0  0  0  0  0  0
   10.4061    8.5842  -10.7060 H   0  0  0  0  0  0  0  0  0  0  0  0
   12.4495    7.9918   -1.9260 C   0  0  0  0  0  0  0  0  0  0  0  0
   12.3977    9.1426   -2.6884 C   0  0  0  0  0  0  0  0  0  0  0  0
   12.0238    9.1270   -4.0121 C   0  0  0  0  0  0  0  0  0  0  0  0
   11.6812    7.9433   -4.6386 C   0  0  0  0  0  0  0  0  0  0  0  0
   11.7342    6.7862   -3.8685 C   0  0  0  0  0  0  0  0  0  0  0  0
   12.1099    6.8096   -2.5419 C   0  0  0  0  0  0  0  0  0  0  0  0
 33 34  2  0
 34 35  1  0
 35 36  2  0
 36 21  1  0
 21 22  2  0
 22 23  1  0
 23 24  2  0
 24 25  1  0
 25 26  2  0
 25 27  1  0
 27 28  2  0
 28 29  1  0
 29 30  2  0
 30  1  1  0
  1  2  2  0
  2  3  1  0
  3  4  2  0
  4  5  1  0
  5  6  2  0
  6  7  1  0
  7  8  2  0
  8  9  1  0
  9 10  2  0
 10 11  1  0
 11 12  2  0
 12 13  1  0
 13 14  2  0
 14 15  1  0
 15 16  2  0
 15 17  1  0
 17 18  1  0
 17 19  1  0
 19 20  2  0
 29 31  1  0
 31 32  1  0
 36 37  1  0
 37 38  2  0
 38 33  1  0
 26 21  1  0
 20  1  1  0
 31 24  1  0
 19  4  1  0
 14  5  1  0
 13  8  1  0
M  END
>  <minimizedAffinity>  (658) 
-16.82921

$$$$
Mol: 199_13 - SminaDock
     RDKit          3D

 39 45  0  0  0  0  0  0  0  0999 V2000
    2.8551   -2.0796  -16.2327 H   0  0  0  0  0  0  0  0  0  0  0  0
    3.2262   -1.3935  -15.5630 O   0  0  0  0  0  0  0  0  0  0  0  0
    4.4918   -0.8485  -15.7138 C   0  0  0  0  0  0  0  0  0  0  0  0
    5.3966   -1.2594  -16.5205 N   0  0  0  0  0  0  0  0  0  0  0  0
    5.3236   -2.3785  -17.4612 C   0  0  0  0  0  0  0  0  0  0  0  0
    6.5676   -0.4265  -16.3733 C   0  0  0  0  0  0  0  0  0  0  0  0
    7.6457   -0.5233  -16.9920 O   0  0  0  0  0  0  0  0  0  0  0  0
    6.2745    0.5660  -15.3613 C   0  0  0  0  0  0  0  0  0  0  0  0
    4.9936    0.3131  -14.9483 C   0  0  0  0  0  0  0  0  0  0  0  0
    4.4155    1.1002  -13.9776 C   0  0  0  0  0  0  0  0  0  0  0  0
    5.0955    2.1626  -13.3872 C   0  0  0  0  0  0  0  0  0  0  0  0
    6.3855    2.3873  -13.8273 C   0  0  0  0  0  0  0  0  0  0  0  0
    6.9918    1.6341  -14.7861 C   0  0  0  0  0  0  0  0  0  0  0  0
    8.3243    1.8934  -15.3294 C   0  0  0  0  0  0  0  0  0  0  0  0
    9.1976    2.6744  -14.4440 C   0  0  0  0  0  0  0  0  0  0  0  0
    8.4900    3.6075  -13.5526 C   0  0  0  0  0  0  0  0  0  0  0  0
    9.1893    4.6781  -12.9848 C   0  0  0  0  0  0  0  0  0  0  0  0
    8.6231    5.5399  -12.0880 C   0  0  0  0  0  0  0  0  0  0  0  0
    7.3128    5.3560  -11.7221 C   0  0  0  0  0  0  0  0  0  0  0  0
    6.5865    4.3118  -12.2608 C   0  0  0  0  0  0  0  0  0  0  0  0
    7.1805    3.4432  -13.1759 C   0  0  0  0  0  0  0  0  0  0  0  0
    9.4087    6.6202  -11.5467 N   0  0  0  0  0  0  0  0  0  0  0  0
    9.6972    6.6514  -10.3104 C   0  0  0  0  0  0  0  0  0  0  0  0
    9.2685    5.6589   -9.4602 C   0  0  0  0  0  0  0  0  0  0  0  0
    9.6173    5.7497   -8.1197 C   0  0  0  0  0  0  0  0  0  0  0  0
   10.3771    6.8348   -7.7156 C   0  0  0  0  0  0  0  0  0  0  0  0
   10.7229    6.9218   -6.3801 C   0  0  0  0  0  0  0  0  0  0  0  0
   11.4835    7.9712   -5.8730 C   0  0  0  0  0  0  0  0  0  0  0  0
   11.8797    8.9323   -6.7826 C   0  0  0  0  0  0  0  0  0  0  0  0
   11.5483    8.8701   -8.1220 C   0  0  0  0  0  0  0  0  0  0  0  0
   10.7918    7.8084   -8.5759 C   0  0  0  0  0  0  0  0  0  0  0  0
   10.4396    7.6959   -9.8699 N   0  0  0  0  0  0  0  0  0  0  0  0
   10.7526    8.4391  -10.5428 H   0  0  0  0  0  0  0  0  0  0  0  0
   11.8331    8.0425   -4.4739 C   0  0  0  0  0  0  0  0  0  0  0  0
   11.8109    6.8940   -3.7194 C   0  0  0  0  0  0  0  0  0  0  0  0
   12.1405    6.9384   -2.3839 C   0  0  0  0  0  0  0  0  0  0  0  0
   12.4875    8.1513   -1.8373 C   0  0  0  0  0  0  0  0  0  0  0  0
   12.5248    9.3207   -2.5448 C   0  0  0  0  0  0  0  0  0  0  0  0
   12.1852    9.2342   -3.8906 C   0  0  0  0  0  0  0  0  0  0  0  0
  1  2  1  0
  2  3  1  0
  3  4  2  0
  4  5  1  0
  4  6  1  0
  6  7  2  0
  6  8  1  0
  8  9  2  0
  9 10  1  0
 10 11  2  0
 11 12  1  0
 12 13  2  0
 13 14  1  0
 14 15  1  0
 15 16  1  0
 16 17  2  0
 17 18  1  0
 18 22  1  0
 22 23  2  0
 23 24  1  0
 24 25  2  0
 25 26  1  0
 26 27  2  0
 27 28  1  0
 28 34  1  0
 34 35  2  0
 35 36  1  0
 36 37  2  0
 37 38  1  0
 38 39  2  0
 28 29  2  0
 29 30  1  0
 30 31  2  0
 31 32  1  0
 32 33  1  0
 18 19  2  0
 19 20  1  0
 20 21  2  0
  9  3  1  0
 21 12  1  0
 13  8  1  0
 21 16  1  0
 32 23  1  0
 31 26  1  0
 39 34  1  0
M  CHG  1   4   1
M  END
>  <minimizedAffinity>  (659) 
-16.78282

$$$$
Mol: 157_45 - SminaDock
     RDKit          3D

 46 53  0  0  0  0  0  0  0  0999 V2000
    7.7982    1.2055  -18.3658 H   0  0  0  0  0  0  0  0  0  0  0  0
    7.0505    1.2958  -17.6928 O   0  0  0  0  0  0  0  0  0  0  0  0
    7.3801    1.7800  -16.4372 C   0  0  0  0  0  0  0  0  0  0  0  0
    8.5160    2.3680  -16.3301 N   0  0  0  0  0  0  0  0  0  0  0  0
    9.2537    3.0053  -15.2607 C   0  0  1  0  0  0  0  0  0  0  0  0
    8.4476    3.6627  -14.2451 C   0  0  0  0  0  0  0  0  0  0  0  0
    9.0548    4.7656  -13.6834 C   0  0  0  0  0  0  0  0  0  0  0  0
    8.4453    5.5329  -12.6843 C   0  0  0  0  0  0  0  0  0  0  0  0
    7.2048    5.2059  -12.2256 C   0  0  0  0  0  0  0  0  0  0  0  0
    6.5634    4.1117  -12.7601 C   0  0  0  0  0  0  0  0  0  0  0  0
    7.1818    3.3651  -13.7474 C   0  0  0  0  0  0  0  0  0  0  0  0
    6.3024    2.2727  -14.1433 C   0  0  0  0  0  0  0  0  0  0  0  0
    5.3080    1.7669  -13.4881 O   0  0  0  0  0  0  0  0  0  0  0  0
    4.7443    0.7899  -14.1600 C   0  0  0  0  0  0  0  0  0  0  0  0
    3.6669   -0.0731  -13.9261 C   0  0  0  0  0  0  0  0  0  0  0  0
    3.2965   -1.0315  -14.8451 C   0  0  0  0  0  0  0  0  0  0  0  0
    4.0130   -1.1354  -16.0249 C   0  0  0  0  0  0  0  0  0  0  0  0
    5.0827   -0.2946  -16.2816 C   0  0  0  0  0  0  0  0  0  0  0  0
    5.4287    0.6458  -15.3550 C   0  0  0  0  0  0  0  0  0  0  0  0
    6.4235    1.5851  -15.3558 C   0  0  0  0  0  0  0  0  0  0  0  0
   10.1267    1.9197  -14.6577 C   0  0  0  0  0  0  0  0  0  0  0  0
   10.9537    1.2738  -15.5951 N   0  0  0  0  0  0  0  0  0  0  0  0
   11.7915    0.8086  -15.2215 H   0  0  0  0  0  0  0  0  0  0  0  0
   11.1412    1.7862  -16.8760 C   0  0  0  0  0  0  0  0  0  0  0  0
   10.7173    3.1804  -17.1679 C   0  0  0  0  0  0  0  0  0  0  0  0
   10.2666    3.9412  -15.9367 C   0  0  0  0  0  0  0  0  0  0  0  0
    9.1036    6.6630  -12.1290 N   0  0  0  0  0  0  0  0  0  0  0  0
    9.4077    6.6505  -10.8869 C   0  0  0  0  0  0  0  0  0  0  0  0
    9.1123    5.5730  -10.0828 C   0  0  0  0  0  0  0  0  0  0  0  0
    9.4566    5.5941   -8.7439 C   0  0  0  0  0  0  0  0  0  0  0  0
   10.0943    6.7240   -8.2747 C   0  0  0  0  0  0  0  0  0  0  0  0
   10.3871    7.8063   -9.0981 C   0  0  0  0  0  0  0  0  0  0  0  0
   10.0382    7.7534  -10.3967 N   0  0  0  0  0  0  0  0  0  0  0  0
   10.2660    8.5797  -11.0081 H   0  0  0  0  0  0  0  0  0  0  0  0
   11.0447    8.9243   -8.5277 N   0  0  0  0  0  0  0  0  0  0  0  0
   11.3904    9.7111   -9.1398 H   0  0  0  0  0  0  0  0  0  0  0  0
   11.2583    9.0223   -7.1298 C   0  0  0  0  0  0  0  0  0  0  0  0
   11.3712   10.2287   -6.4786 C   0  0  0  0  0  0  0  0  0  0  0  0
   11.5788   10.2632   -5.1137 C   0  0  0  0  0  0  0  0  0  0  0  0
   11.6777    9.0928   -4.3720 C   0  0  0  0  0  0  0  0  0  0  0  0
   11.8868    9.1480   -2.9984 C   0  0  0  0  0  0  0  0  0  0  0  0
   11.9806    7.9771   -2.2899 C   0  0  0  0  0  0  0  0  0  0  0  0
   11.8689    6.7686   -2.9339 C   0  0  0  0  0  0  0  0  0  0  0  0
   11.6615    6.7354   -4.2972 C   0  0  0  0  0  0  0  0  0  0  0  0
   11.5610    7.8994   -5.0490 C   0  0  0  0  0  0  0  0  0  0  0  0
   11.3560    7.8647   -6.3965 C   0  0  0  0  0  0  0  0  0  0  0  0
  1  2  1  0
  2  3  1  0
  3  4  2  0
  4  5  1  0
  5  6  1  0
  6  7  2  0
  7  8  1  0
  8 27  1  0
 27 28  2  0
 28 29  1  0
 29 30  2  0
 30 31  1  0
 31 32  2  0
 32 35  1  0
 35 36  1  0
 35 37  1  0
 37 38  2  0
 38 39  1  0
 39 40  2  0
 40 41  1  0
 41 42  2  0
 42 43  1  0
 43 44  2  0
 44 45  1  0
 45 46  2  0
 32 33  1  0
 33 34  1  0
  8  9  2  0
  9 10  1  0
 10 11  2  0
 11 12  1  0
 12 13  1  0
 13 14  1  0
 14 15  2  0
 15 16  1  0
 16 17  2  0
 17 18  1  0
 18 19  2  0
 19 20  1  0
  5 21  1  1
 21 22  1  0
 22 23  1  0
 22 24  1  0
 24 25  1  0
 25 26  1  0
 20  3  1  0
 26  5  1  0
 11  6  1  0
 20 12  2  0
 33 28  1  0
 19 14  1  0
 46 37  1  0
 45 40  1  0
M  END
>  <minimizedAffinity>  (660) 
-16.76477

$$$$
Mol: 199_21 - SminaDock
     RDKit          3D

 38 44  0  0  0  0  0  0  0  0999 V2000
    8.7852    5.8585  -12.3524 C   0  0  0  0  0  0  0  0  0  0  0  0
    9.4741    5.3644  -13.4477 C   0  0  0  0  0  0  0  0  0  0  0  0
    8.9980    4.2794  -14.1533 C   0  0  0  0  0  0  0  0  0  0  0  0
    7.8199    3.6848  -13.7562 C   0  0  0  0  0  0  0  0  0  0  0  0
    7.1093    4.1490  -12.6730 C   0  0  0  0  0  0  0  0  0  0  0  0
    7.6136    5.2342  -11.9913 C   0  0  0  0  0  0  0  0  0  0  0  0
    5.8575    3.5631  -12.2010 C   0  0  0  0  0  0  0  0  0  0  0  0
    5.3217    2.4108  -12.9389 C   0  0  0  0  0  0  0  0  0  0  0  0
    6.1054    1.9297  -14.0923 C   0  0  0  0  0  0  0  0  0  0  0  0
    5.5938    0.8347  -14.7749 C   0  0  0  0  0  0  0  0  0  0  0  0
    6.2497    0.3125  -15.8671 C   0  0  0  0  0  0  0  0  0  0  0  0
    7.4113    0.9186  -16.2384 C   0  0  0  0  0  0  0  0  0  0  0  0
    7.9302    2.0025  -15.5726 C   0  0  0  0  0  0  0  0  0  0  0  0
    7.2726    2.5412  -14.4618 C   0  0  0  0  0  0  0  0  0  0  0  0
    7.9997    0.0643  -17.6473 S   0  0  1  0  0  0  0  0  0  0  0  0
    8.4070    0.9860  -18.7382 O   0  0  0  0  0  0  0  0  0  0  0  0
    9.0224   -0.9585  -17.3066 O   0  0  0  0  0  0  0  0  0  0  0  0
    6.4626   -0.7480  -18.0252 C   0  0  0  0  0  0  0  0  0  0  0  0
    6.0845   -1.1009  -19.1128 O   0  0  0  0  0  0  0  0  0  0  0  0
    5.8479   -0.8433  -16.6844 C   0  0  0  0  0  0  0  0  0  0  0  0
   11.2417    8.0421   -5.8710 C   0  0  0  0  0  0  0  0  0  0  0  0
   11.3051    9.1766   -6.6437 C   0  0  0  0  0  0  0  0  0  0  0  0
   10.9227    9.1996   -7.9685 C   0  0  0  0  0  0  0  0  0  0  0  0
   10.4546    8.0156   -8.5331 C   0  0  0  0  0  0  0  0  0  0  0  0
   10.3728    6.8514   -7.7975 C   0  0  0  0  0  0  0  0  0  0  0  0
   10.7733    6.8882   -6.4628 C   0  0  0  0  0  0  0  0  0  0  0  0
    9.9070    5.6853   -8.3696 C   0  0  0  0  0  0  0  0  0  0  0  0
    9.5299    5.7301   -9.6951 C   0  0  0  0  0  0  0  0  0  0  0  0
    9.6239    6.9048  -10.3984 C   0  0  0  0  0  0  0  0  0  0  0  0
    9.2778    6.9672  -11.6357 N   0  0  0  0  0  0  0  0  0  0  0  0
   10.0793    8.0353   -9.8307 N   0  0  0  0  0  0  0  0  0  0  0  0
   10.1376    8.9106  -10.3948 H   0  0  0  0  0  0  0  0  0  0  0  0
   12.4354    8.0321   -1.7933 C   0  0  0  0  0  0  0  0  0  0  0  0
   12.3216    9.2199   -2.4972 C   0  0  0  0  0  0  0  0  0  0  0  0
   11.9304    9.2324   -3.8363 C   0  0  0  0  0  0  0  0  0  0  0  0
   11.6506    8.0426   -4.4752 C   0  0  0  0  0  0  0  0  0  0  0  0
   11.7663    6.8661   -3.7677 C   0  0  0  0  0  0  0  0  0  0  0  0
   12.1532    6.8442   -2.4411 C   0  0  0  0  0  0  0  0  0  0  0  0
 33 34  2  0
 34 35  1  0
 35 36  2  0
 36 21  1  0
 21 22  2  0
 22 23  1  0
 23 24  2  0
 24 25  1  0
 25 26  2  0
 25 27  1  0
 27 28  2  0
 28 29  1  0
 29 30  2  0
 30  1  1  0
  1  2  2  0
  2  3  1  0
  3  4  2  0
  4  5  1  0
  5  6  2  0
  5  7  1  0
  7  8  1  0
  8  9  1  0
  9 10  2  0
 10 11  1  0
 11 12  2  0
 12 13  1  0
 13 14  2  0
 12 15  1  0
 15 16  2  0
 15 17  2  0
 15 18  1  6
 18 19  2  0
 18 20  1  0
 29 31  1  0
 31 32  1  0
 36 37  1  0
 37 38  2  0
 38 33  1  0
 26 21  1  0
  6  1  1  0
 14  9  1  0
 31 24  1  0
 14  4  1  0
 20 11  1  0
M  END
>  <minimizedAffinity>  (661) 
-16.82921

$$$$
Mol: 199_45 - SminaDock
     RDKit          3D

 43 50  0  0  0  0  0  0  0  0999 V2000
    9.8478    2.9509  -18.7581 H   0  0  0  0  0  0  0  0  0  0  0  0
   10.4152    2.4207  -18.0909 N   0  0  0  0  0  0  0  0  0  0  0  0
   10.4677    2.6944  -16.8307 C   0  0  0  0  0  0  0  0  0  0  0  0
   11.1960    2.0494  -15.8439 O   0  0  0  0  0  0  0  0  0  0  0  0
   10.7234    2.4425  -14.5477 C   0  0  0  0  0  0  0  0  0  0  0  0
    9.4038    3.0838  -14.9162 C   0  0  1  0  0  0  0  0  0  0  0  0
    8.3714    2.0717  -15.0991 C   0  0  0  0  0  0  0  0  0  0  0  0
    8.3299    0.9948  -15.8965 N   0  0  0  0  0  0  0  0  0  0  0  0
    7.2623    0.2027  -15.8917 C   0  0  0  0  0  0  0  0  0  0  0  0
    6.1649    0.4361  -15.0879 C   0  0  0  0  0  0  0  0  0  0  0  0
    5.0708   -0.4425  -15.1341 C   0  0  0  0  0  0  0  0  0  0  0  0
    3.9663   -0.2311  -14.3432 C   0  0  0  0  0  0  0  0  0  0  0  0
    3.9859    0.8676  -13.5165 C   0  0  0  0  0  0  0  0  0  0  0  0
    5.0722    1.7305  -13.4777 C   0  0  0  0  0  0  0  0  0  0  0  0
    6.1849    1.5386  -14.2585 C   0  0  0  0  0  0  0  0  0  0  0  0
    7.2901    2.3601  -14.2624 C   0  0  0  0  0  0  0  0  0  0  0  0
    7.6223    3.5771  -13.5239 C   0  0  0  0  0  0  0  0  0  0  0  0
    6.9188    4.2818  -12.5855 C   0  0  0  0  0  0  0  0  0  0  0  0
    7.4877    5.4316  -12.0336 C   0  0  0  0  0  0  0  0  0  0  0  0
    8.7350    5.8476  -12.4278 C   0  0  0  0  0  0  0  0  0  0  0  0
    9.4481    5.1440  -13.3707 C   0  0  0  0  0  0  0  0  0  0  0  0
    8.8915    4.0113  -13.9165 C   0  0  0  0  0  0  0  0  0  0  0  0
    9.7681    3.7459  -16.1749 N   0  0  1  0  0  0  0  0  0  0  0  0
   10.4362    4.5181  -15.8792 H   0  0  0  0  0  0  0  0  0  0  0  0
    8.9486    4.0892  -16.6848 H   0  0  0  0  0  0  0  0  0  0  0  0
    9.2788    7.0338  -11.8344 N   0  0  0  0  0  0  0  0  0  0  0  0
    9.6285    7.0342  -10.5931 C   0  0  0  0  0  0  0  0  0  0  0  0
   10.1450    8.1428  -10.0095 N   0  0  0  0  0  0  0  0  0  0  0  0
   10.4954    8.0915   -8.7079 C   0  0  0  0  0  0  0  0  0  0  0  0
   11.0259    9.2225   -8.0991 C   0  0  0  0  0  0  0  0  0  0  0  0
   11.3753    9.1480   -6.7744 C   0  0  0  0  0  0  0  0  0  0  0  0
   11.2267    8.0001   -6.0075 C   0  0  0  0  0  0  0  0  0  0  0  0
   10.6997    6.8856   -6.6224 C   0  0  0  0  0  0  0  0  0  0  0  0
   10.3430    6.9447   -7.9558 C   0  0  0  0  0  0  0  0  0  0  0  0
    9.8087    5.8174   -8.5814 C   0  0  0  0  0  0  0  0  0  0  0  0
    9.4749    5.9136   -9.8751 N   0  0  0  0  0  0  0  0  0  0  0  0
    9.0769    5.0507  -10.3150 H   0  0  0  0  0  0  0  0  0  0  0  0
   11.6272    8.0164   -4.6033 C   0  0  0  0  0  0  0  0  0  0  0  0
   11.9818    9.1675   -3.9645 C   0  0  0  0  0  0  0  0  0  0  0  0
   12.3600    9.1702   -2.6316 C   0  0  0  0  0  0  0  0  0  0  0  0
   12.3903    8.0141   -1.9101 C   0  0  0  0  0  0  0  0  0  0  0  0
   12.0298    6.8453   -2.5604 C   0  0  0  0  0  0  0  0  0  0  0  0
   11.6577    6.8406   -3.8703 C   0  0  0  0  0  0  0  0  0  0  0  0
  1  2  1  0
  2  3  2  0
  3  4  1  0
  4  5  1  0
  6  5  1  1
  6  7  1  0
  7  8  2  0
  8  9  1  0
  9 10  2  0
 10 11  1  0
 11 12  2  0
 12 13  1  0
 13 14  2  0
 14 15  1  0
 15 16  2  0
 16 17  1  0
 17 18  2  0
 18 19  1  0
 19 20  2  0
 20 26  1  0
 26 27  2  0
 27 28  1  0
 28 29  2  0
 29 30  1  0
 30 31  2  0
 31 32  1  0
 32 38  1  0
 38 39  2  0
 39 40  1  0
 40 41  2  0
 41 42  1  0
 42 43  2  0
 32 33  2  0
 33 34  1  0
 34 35  2  0
 35 36  1  0
 36 37  1  0
 20 21  1  0
 21 22  2  0
  6 23  1  0
 23 24  1  1
 23 25  1  0
 23  3  1  0
 22  6  1  0
 16  7  1  0
 22 17  1  0
 15 10  1  0
 36 27  1  0
 34 29  1  0
 43 38  1  0
M  CHG  1  23   1
M  END
>  <minimizedAffinity>  (662) 
-16.78395

$$$$
Mol: 187_43 - SminaDock
     RDKit          3D

 35 41  0  0  0  0  0  0  0  0999 V2000
    9.2900    6.9556  -11.7982 N   0  0  0  0  0  0  0  0  0  0  0  0
    9.6260    6.9346  -10.5363 C   0  0  0  0  0  0  0  0  0  0  0  0
    9.4595    5.8488   -9.7609 N   0  0  0  0  0  0  0  0  0  0  0  0
    9.8030    5.8326   -8.4759 C   0  0  0  0  0  0  0  0  0  0  0  0
   10.3514    6.9594   -7.8974 C   0  0  0  0  0  0  0  0  0  0  0  0
   10.7230    6.9775   -6.5524 C   0  0  0  0  0  0  0  0  0  0  0  0
   11.2724    8.0933   -5.9553 C   0  0  0  0  0  0  0  0  0  0  0  0
   11.4416    9.2056   -6.7548 C   0  0  0  0  0  0  0  0  0  0  0  0
   11.0802    9.2074   -8.0882 C   0  0  0  0  0  0  0  0  0  0  0  0
   10.5314    8.0850   -8.6741 C   0  0  0  0  0  0  0  0  0  0  0  0
   10.1652    8.0338   -9.9567 N   0  0  0  0  0  0  0  0  0  0  0  0
   10.3063    8.8923  -10.5354 H   0  0  0  0  0  0  0  0  0  0  0  0
    3.8756   -0.9954  -14.7537 C   0  0  0  0  0  0  0  0  0  0  0  0
    5.0737   -1.1347  -15.2527 O   0  0  0  0  0  0  0  0  0  0  0  0
    5.8465   -0.1215  -14.9044 C   0  0  0  0  0  0  0  0  0  0  0  0
    7.1604    0.1889  -15.1701 C   0  0  0  0  0  0  0  0  0  0  0  0
    7.7613    1.3372  -14.6805 C   0  0  0  0  0  0  0  0  0  0  0  0
    7.0472    2.2216  -13.8966 C   0  0  0  0  0  0  0  0  0  0  0  0
    5.7233    1.9107  -13.6276 C   0  0  0  0  0  0  0  0  0  0  0  0
    5.1182    0.7436  -14.1273 C   0  0  0  0  0  0  0  0  0  0  0  0
    3.8628    0.1851  -14.0324 C   0  0  0  0  0  0  0  0  0  0  0  0
    4.8896    2.7798  -12.8081 C   0  0  0  0  0  0  0  0  0  0  0  0
    5.4696    4.0196  -12.2735 C   0  0  0  0  0  0  0  0  0  0  0  0
    6.8829    4.2842  -12.5942 C   0  0  0  0  0  0  0  0  0  0  0  0
    7.4140    5.4552  -12.0662 C   0  0  0  0  0  0  0  0  0  0  0  0
    8.7305    5.7636  -12.3301 C   0  0  0  0  0  0  0  0  0  0  0  0
    9.4954    4.9175  -13.1051 C   0  0  0  0  0  0  0  0  0  0  0  0
    8.9657    3.7342  -13.6409 C   0  0  0  0  0  0  0  0  0  0  0  0
    7.6620    3.4307  -13.3783 C   0  0  0  0  0  0  0  0  0  0  0  0
   11.6556    8.0910   -4.5408 C   0  0  0  0  0  0  0  0  0  0  0  0
   12.0113    9.2255   -3.8760 C   0  0  0  0  0  0  0  0  0  0  0  0
   12.3644    9.1499   -2.5351 C   0  0  0  0  0  0  0  0  0  0  0  0
   12.3721    7.9688   -1.8381 C   0  0  0  0  0  0  0  0  0  0  0  0
   12.0078    6.8225   -2.5278 C   0  0  0  0  0  0  0  0  0  0  0  0
   11.6577    6.9037   -3.8606 C   0  0  0  0  0  0  0  0  0  0  0  0
 13 14  1  0
 14 15  1  0
 15 16  2  0
 16 17  1  0
 17 18  2  0
 18 19  1  0
 19 20  2  0
 20 21  1  0
 19 22  1  0
 22 23  1  0
 23 24  1  0
 24 25  2  0
 25 26  1  0
 26  1  1  0
  1  2  2  0
  2  3  1  0
  3  4  2  0
  4  5  1  0
  5  6  2  0
  6  7  1  0
  7 30  1  0
 30 31  2  0
 31 32  1  0
 32 33  2  0
 33 34  1  0
 34 35  2  0
  7  8  2  0
  8  9  1  0
  9 10  2  0
 10 11  1  0
 11 12  1  0
 26 27  2  0
 27 28  1  0
 28 29  2  0
 21 13  2  0
 29 24  1  0
 20 15  1  0
 11  2  1  0
 29 18  1  0
 10  5  1  0
 35 30  1  0
M  END
>  <minimizedAffinity>  (663) 
-16.75138

$$$$
Mol: 138_4 - SminaDock
     RDKit          3D

 39 45  0  0  0  0  0  0  0  0999 V2000
    8.9983    6.0160  -12.3228 C   0  0  0  0  0  0  0  0  0  0  0  0
    9.8468    5.4625  -13.2554 C   0  0  0  0  0  0  0  0  0  0  0  0
    9.4946    4.3691  -14.0124 C   0  0  0  0  0  0  0  0  0  0  0  0
    8.2262    3.8132  -13.8146 C   0  0  0  0  0  0  0  0  0  0  0  0
    7.3688    4.3349  -12.9094 C   0  0  0  0  0  0  0  0  0  0  0  0
    7.7705    5.4504  -12.1576 C   0  0  0  0  0  0  0  0  0  0  0  0
    6.0389    3.8678  -12.7175 C   0  0  0  0  0  0  0  0  0  0  0  0
    5.6783    2.4824  -13.2288 C   0  0  0  0  0  0  0  0  0  0  0  0
    6.5858    1.9552  -14.2468 C   0  0  0  0  0  0  0  0  0  0  0  0
    7.8073    2.5797  -14.5083 C   0  0  0  0  0  0  0  0  0  0  0  0
    8.6452    2.0452  -15.4625 C   0  0  0  0  0  0  0  0  0  0  0  0
    8.3383    0.9163  -16.1797 C   0  0  0  0  0  0  0  0  0  0  0  0
    7.1373    0.2963  -15.9266 C   0  0  0  0  0  0  0  0  0  0  0  0
    6.2484    0.8124  -14.9538 C   0  0  0  0  0  0  0  0  0  0  0  0
    5.0579    0.1544  -14.7205 C   0  0  0  0  0  0  0  0  0  0  0  0
    4.1127    0.6020  -13.7279 C   0  0  0  0  0  0  0  0  0  0  0  0
    4.8227   -1.0061  -15.4972 C   0  0  0  0  0  0  0  0  0  0  0  0
    5.7000   -1.4788  -16.4315 C   0  0  0  0  0  0  0  0  0  0  0  0
    5.4457   -2.4997  -17.0856 O   0  0  0  0  0  0  0  0  0  0  0  0
    6.8352   -0.8167  -16.6230 N   0  0  0  0  0  0  0  0  0  0  0  0
    7.5612   -1.1334  -17.3358 H   0  0  0  0  0  0  0  0  0  0  0  0
   11.3251    8.1523   -5.7544 C   0  0  0  0  0  0  0  0  0  0  0  0
   11.3662    9.3335   -6.4666 C   0  0  0  0  0  0  0  0  0  0  0  0
   10.9926    9.3403   -7.7744 C   0  0  0  0  0  0  0  0  0  0  0  0
   10.5692    8.1811   -8.4121 C   0  0  0  0  0  0  0  0  0  0  0  0
   10.1986    8.1740   -9.6996 N   0  0  0  0  0  0  0  0  0  0  0  0
    9.7851    7.0635  -10.3368 C   0  0  0  0  0  0  0  0  0  0  0  0
    9.4461    7.1468  -11.5800 N   0  0  0  0  0  0  0  0  0  0  0  0
    9.7524    5.9249   -9.6267 N   0  0  0  0  0  0  0  0  0  0  0  0
    9.4336    5.0594  -10.1123 H   0  0  0  0  0  0  0  0  0  0  0  0
   10.1108    5.8525   -8.3237 C   0  0  0  0  0  0  0  0  0  0  0  0
   10.5322    7.0061   -7.6896 C   0  0  0  0  0  0  0  0  0  0  0  0
   10.9123    6.9946   -6.3556 C   0  0  0  0  0  0  0  0  0  0  0  0
   12.4653    7.9692   -1.6682 C   0  0  0  0  0  0  0  0  0  0  0  0
   12.1051    6.8484   -2.3555 C   0  0  0  0  0  0  0  0  0  0  0  0
   11.7308    6.9172   -3.7016 C   0  0  0  0  0  0  0  0  0  0  0  0
   11.7225    8.1300   -4.3518 C   0  0  0  0  0  0  0  0  0  0  0  0
   12.0869    9.2550   -3.6519 C   0  0  0  0  0  0  0  0  0  0  0  0
   12.4596    9.1865   -2.3119 C   0  0  0  0  0  0  0  0  0  0  0  0
 34 35  2  0
 35 36  1  0
 36 37  2  0
 37 22  1  0
 22 23  1  0
 23 24  2  0
 24 25  1  0
 25 26  2  0
 26 27  1  0
 27 28  2  0
 28  1  1  0
  1  2  2  0
  2  3  1  0
  3  4  2  0
  4  5  1  0
  5  6  2  0
  5  7  1  0
  7  8  1  0
  8  9  1  0
  9 10  2  0
 10 11  1  0
 11 12  2  0
 12 13  1  0
 13 14  2  0
 14 15  1  0
 15 16  1  0
 15 17  2  0
 17 18  1  0
 18 19  2  0
 18 20  1  0
 20 21  1  0
 27 29  1  0
 29 30  1  0
 29 31  1  0
 31 32  2  0
 32 33  1  0
 37 38  1  0
 38 39  2  0
 39 34  1  0
 33 22  2  0
 32 25  1  0
  6  1  1  0
 14  9  1  0
 10  4  1  0
 20 13  1  0
M  END
>  <minimizedAffinity>  (664) 
-16.79918

$$$$
Mol: 137_50 - SminaDock
     RDKit          3D

 45 52  0  0  0  0  0  0  0  0999 V2000
   14.2994    4.7597  -14.8002 H   0  0  0  0  0  0  0  0  0  0  0  0
   13.6497    5.1721  -15.4705 O   0  0  0  0  0  0  0  0  0  0  0  0
   12.3220    4.6695  -15.4417 C   0  0  0  0  0  0  0  0  0  0  0  0
   11.7937    3.9634  -14.5202 N   0  0  0  0  0  0  0  0  0  0  0  0
   10.4178    3.6529  -14.8687 C   0  0  2  0  0  0  0  0  0  0  0  0
   10.2085    4.3215  -16.2094 C   0  0  0  0  0  0  0  0  0  0  0  0
    9.1312    4.2856  -16.8552 O   0  0  0  0  0  0  0  0  0  0  0  0
   11.4374    4.9418  -16.5147 N   0  0  0  0  0  0  0  0  0  0  0  0
    9.4860    4.3088  -13.9333 C   0  0  0  0  0  0  0  0  0  0  0  0
    9.8483    5.4907  -13.2800 C   0  0  0  0  0  0  0  0  0  0  0  0
    8.9480    6.1436  -12.4742 C   0  0  0  0  0  0  0  0  0  0  0  0
    7.6749    5.6514  -12.2924 C   0  0  0  0  0  0  0  0  0  0  0  0
    7.2983    4.4774  -12.9325 C   0  0  0  0  0  0  0  0  0  0  0  0
    8.2241    3.8405  -13.7359 C   0  0  0  0  0  0  0  0  0  0  0  0
    7.8771    2.5365  -14.3432 C   0  0  0  0  0  0  0  0  0  0  0  0
    6.5813    2.0725  -14.2637 C   0  0  0  0  0  0  0  0  0  0  0  0
    6.2169    0.8812  -14.9187 C   0  0  0  0  0  0  0  0  0  0  0  0
    7.1604    0.1874  -15.6355 C   0  0  0  0  0  0  0  0  0  0  0  0
    8.4614    0.6218  -15.7335 C   0  0  0  0  0  0  0  0  0  0  0  0
    8.7874    1.8167  -15.0630 C   0  0  0  0  0  0  0  0  0  0  0  0
   10.2073    2.2079  -15.0975 C   0  0  0  0  0  0  0  0  0  0  0  0
    6.7379   -1.0206  -16.2868 N   0  0  0  0  0  0  0  0  0  0  0  0
    7.4563   -1.5648  -16.8429 H   0  0  0  0  0  0  0  0  0  0  0  0
    5.3965   -1.4328  -16.1632 C   0  0  0  0  0  0  0  0  0  0  0  0
    4.8968   -2.1752  -17.0251 O   0  0  0  0  0  0  0  0  0  0  0  0
    4.6392   -0.9361  -14.9688 C   0  0  0  0  0  0  0  0  0  0  0  0
    4.9033    0.4645  -14.8036 O   0  0  0  0  0  0  0  0  0  0  0  0
    9.3928    7.3472  -11.8393 N   0  0  0  0  0  0  0  0  0  0  0  0
    9.7264    7.2559  -10.5871 C   0  0  0  0  0  0  0  0  0  0  0  0
   10.1562    8.3773   -9.9405 N   0  0  0  0  0  0  0  0  0  0  0  0
   10.5037    8.3138   -8.6604 C   0  0  0  0  0  0  0  0  0  0  0  0
   10.9420    9.4439   -7.9905 C   0  0  0  0  0  0  0  0  0  0  0  0
   11.2952    9.3681   -6.6797 C   0  0  0  0  0  0  0  0  0  0  0  0
   11.2368    8.1955   -5.9710 C   0  0  0  0  0  0  0  0  0  0  0  0
   10.7986    7.0657   -6.6406 C   0  0  0  0  0  0  0  0  0  0  0  0
   10.4391    7.1304   -7.9652 C   0  0  0  0  0  0  0  0  0  0  0  0
   10.0042    5.9788   -8.6060 C   0  0  0  0  0  0  0  0  0  0  0  0
    9.6653    6.1021   -9.9028 N   0  0  0  0  0  0  0  0  0  0  0  0
    9.3316    5.2578  -10.4262 H   0  0  0  0  0  0  0  0  0  0  0  0
   11.6128    8.1175   -4.5774 C   0  0  0  0  0  0  0  0  0  0  0  0
   11.9713    9.2460   -3.8691 C   0  0  0  0  0  0  0  0  0  0  0  0
   12.3291    9.1459   -2.5299 C   0  0  0  0  0  0  0  0  0  0  0  0
   12.3256    7.9046   -1.9029 C   0  0  0  0  0  0  0  0  0  0  0  0
   11.9708    6.7652   -2.5925 C   0  0  0  0  0  0  0  0  0  0  0  0
   11.6212    6.9016   -3.9204 C   0  0  0  0  0  0  0  0  0  0  0  0
  1  2  1  0
  2  3  1  0
  3  4  2  0
  4  5  1  0
  5  6  1  0
  6  7  2  0
  6  8  1  0
  5  9  1  0
  9 10  2  0
 10 11  1  0
 11 28  1  0
 28 29  2  0
 29 30  1  0
 30 31  2  0
 31 32  1  0
 32 33  2  0
 33 34  1  0
 34 40  1  0
 40 41  2  0
 41 42  1  0
 42 43  2  0
 43 44  1  0
 44 45  2  0
 34 35  2  0
 35 36  1  0
 36 37  2  0
 37 38  1  0
 38 39  1  0
 11 12  2  0
 12 13  1  0
 13 14  2  0
 14 15  1  0
 15 16  2  0
 16 17  1  0
 17 18  2  0
 18 19  1  0
 19 20  2  0
 20 21  1  0
 18 22  1  0
 22 23  1  0
 22 24  1  0
 24 25  2  0
 24 26  1  0
 26 27  1  0
  8  3  1  0
 14  9  1  0
 20 15  1  0
  5 21  1  6
 38 29  1  0
 27 17  1  0
 36 31  1  0
 45 40  1  0
M  CHG  1   8  -1
M  END
>  <minimizedAffinity>  (665) 
-16.83968

$$$$
Mol: 168_39 - SminaDock
     RDKit          3D

 44 50  0  0  0  0  0  0  0  0999 V2000
    8.9458   -0.8590  -18.8312 H   0  0  0  0  0  0  0  0  0  0  0  0
    8.0944   -1.2481  -18.4534 O   0  0  0  0  0  0  0  0  0  0  0  0
    7.4047   -0.6199  -17.4287 C   0  0  0  0  0  0  0  0  0  0  0  0
    7.9497    0.4358  -16.8471 C   0  0  0  0  0  0  0  0  0  0  0  0
    7.2950    1.1622  -15.7578 C   0  0  0  0  0  0  0  0  0  0  0  0
    7.9103    2.2670  -15.1824 C   0  0  0  0  0  0  0  0  0  0  0  0
    7.2332    2.9027  -14.1610 C   0  0  0  0  0  0  0  0  0  0  0  0
    6.0104    2.4579  -13.7365 C   0  0  0  0  0  0  0  0  0  0  0  0
    5.4183    1.3351  -14.3460 C   0  0  0  0  0  0  0  0  0  0  0  0
    6.0684    0.6854  -15.3641 C   0  0  0  0  0  0  0  0  0  0  0  0
    5.5019   -0.4271  -15.9819 O   0  0  0  0  0  0  0  0  0  0  0  0
    6.1453   -1.0854  -17.0027 N   0  0  0  0  0  0  0  0  0  0  0  0
    5.3033    3.0647  -12.6087 C   0  0  0  0  0  0  0  0  0  0  0  0
    5.7263    4.4201  -12.2515 C   0  0  0  0  0  0  0  0  0  0  0  0
    7.0878    4.7790  -12.6211 C   0  0  0  0  0  0  0  0  0  0  0  0
    7.6706    5.9046  -12.0098 C   0  0  0  0  0  0  0  0  0  0  0  0
    8.9291    6.3287  -12.3639 C   0  0  0  0  0  0  0  0  0  0  0  0
    9.6317    5.6333  -13.3396 C   0  0  0  0  0  0  0  0  0  0  0  0
    9.0697    4.5163  -13.9537 C   0  0  0  0  0  0  0  0  0  0  0  0
    7.8131    4.1006  -13.5919 C   0  0  0  0  0  0  0  0  0  0  0  0
    9.5057    7.4689  -11.7357 N   0  0  0  0  0  0  0  0  0  0  0  0
    9.8133    7.3461  -10.4669 C   0  0  0  0  0  0  0  0  0  0  0  0
   10.3635    8.3761   -9.7931 N   0  0  0  0  0  0  0  0  0  0  0  0
   10.6868    8.2741   -8.4933 C   0  0  0  0  0  0  0  0  0  0  0  0
   11.2551    9.3424   -7.7982 C   0  0  0  0  0  0  0  0  0  0  0  0
   11.5967    9.2707   -6.4668 C   0  0  0  0  0  0  0  0  0  0  0  0
   11.3661    8.0831   -5.7836 C   0  0  0  0  0  0  0  0  0  0  0  0
   10.8069    7.0193   -6.4519 C   0  0  0  0  0  0  0  0  0  0  0  0
   10.4718    7.1116   -7.7862 C   0  0  0  0  0  0  0  0  0  0  0  0
    9.9072    6.0668   -8.4938 C   0  0  0  0  0  0  0  0  0  0  0  0
    9.5973    6.2069   -9.7932 N   0  0  0  0  0  0  0  0  0  0  0  0
    9.1756    5.4082  -10.2972 H   0  0  0  0  0  0  0  0  0  0  0  0
   11.7360    8.0447   -4.3824 C   0  0  0  0  0  0  0  0  0  0  0  0
   11.7393    6.8478   -3.6887 C   0  0  0  0  0  0  0  0  0  0  0  0
   12.0839    6.7657   -2.3590 C   0  0  0  0  0  0  0  0  0  0  0  0
   12.4446    7.9074   -1.6659 C   0  0  0  0  0  0  0  0  0  0  0  0
   12.4495    9.1159   -2.3354 C   0  0  0  0  0  0  0  0  0  0  0  0
   12.0976    9.1729   -3.6779 C   0  0  0  0  0  0  0  0  0  0  0  0
    5.4019   -2.4536  -17.7312 S   0  0  2  0  0  0  0  0  0  0  0  0
    5.6831   -3.6577  -16.8593 O   0  0  0  0  0  0  0  0  0  0  0  0
    5.9948   -2.6903  -19.0953 O   0  0  0  0  0  0  0  0  0  0  0  0
    3.6972   -2.2954  -17.8443 N   0  0  0  0  0  0  0  0  0  0  0  0
    3.4014   -1.2959  -17.9414 H   0  0  0  0  0  0  0  0  0  0  0  0
    3.3305   -2.8969  -18.6335 H   0  0  0  0  0  0  0  0  0  0  0  0
  1  2  1  0
  2  3  1  0
  3  4  2  0
  4  5  1  0
  5  6  2  0
  6  7  1  0
  7  8  2  0
  8  9  1  0
  9 10  2  0
 10 11  1  0
 11 12  1  0
 12 39  1  0
 39 40  2  0
 39 41  2  0
 39 42  1  6
 42 43  1  0
 42 44  1  0
  8 13  1  0
 13 14  1  0
 14 15  1  0
 15 16  2  0
 16 17  1  0
 17 21  1  0
 21 22  2  0
 22 23  1  0
 23 24  2  0
 24 25  1  0
 25 26  2  0
 26 27  1  0
 27 33  1  0
 33 34  2  0
 34 35  1  0
 35 36  2  0
 36 37  1  0
 37 38  2  0
 27 28  2  0
 28 29  1  0
 29 30  2  0
 30 31  1  0
 31 32  1  0
 17 18  2  0
 18 19  1  0
 19 20  2  0
 12  3  1  0
 20 15  1  0
 10  5  1  0
 31 22  1  0
 20  7  1  0
 29 24  1  0
 38 33  1  0
M  END
>  <minimizedAffinity>  (666) 
-16.84108

$$$$
Mol: 149_46 - SminaDock
     RDKit          3D

 36 42  0  0  0  0  0  0  0  0999 V2000
   11.2870    7.9096   -6.0694 C   0  0  0  0  0  0  0  0  0  0  0  0
   11.6032    8.9850   -6.8663 C   0  0  0  0  0  0  0  0  0  0  0  0
   11.2997    8.9736   -8.2318 C   0  0  0  0  0  0  0  0  0  0  0  0
   10.6788    7.8759   -8.7825 C   0  0  0  0  0  0  0  0  0  0  0  0
   10.3591    7.8000  -10.0875 N   0  0  0  0  0  0  0  0  0  0  0  0
    9.7530    6.7321  -10.6319 C   0  0  0  0  0  0  0  0  0  0  0  0
    9.4785    6.7388  -11.9027 N   0  0  0  0  0  0  0  0  0  0  0  0
    9.4453    5.6835   -9.8508 N   0  0  0  0  0  0  0  0  0  0  0  0
    8.9690    4.8669  -10.3261 H   0  0  0  0  0  0  0  0  0  0  0  0
    9.7320    5.6945   -8.5616 C   0  0  0  0  0  0  0  0  0  0  0  0
   10.3514    6.7852   -8.0040 C   0  0  0  0  0  0  0  0  0  0  0  0
   10.6682    6.8301   -6.6478 C   0  0  0  0  0  0  0  0  0  0  0  0
    8.8325    5.5898  -12.4606 C   0  0  0  0  0  0  0  0  0  0  0  0
    9.5112    4.7660  -13.3215 C   0  0  0  0  0  0  0  0  0  0  0  0
    8.9037    3.6372  -13.8791 C   0  0  0  0  0  0  0  0  0  0  0  0
    7.6104    3.3298  -13.5747 C   0  0  0  0  0  0  0  0  0  0  0  0
    6.9332    4.1546  -12.7163 C   0  0  0  0  0  0  0  0  0  0  0  0
    7.5258    5.2770  -12.1559 C   0  0  0  0  0  0  0  0  0  0  0  0
    5.5160    3.8996  -12.4118 C   0  0  0  0  0  0  0  0  0  0  0  0
    5.0073    2.5552  -12.7041 C   0  0  0  0  0  0  0  0  0  0  0  0
    5.7133    1.7930  -13.7249 C   0  0  0  0  0  0  0  0  0  0  0  0
    6.9936    2.1071  -14.1108 C   0  0  0  0  0  0  0  0  0  0  0  0
    7.6645    1.3246  -15.0371 C   0  0  0  0  0  0  0  0  0  0  0  0
    7.0294    0.2258  -15.5699 C   0  0  0  0  0  0  0  0  0  0  0  0
    5.7456   -0.1272  -15.2156 C   0  0  0  0  0  0  0  0  0  0  0  0
    5.0990    0.6545  -14.2999 C   0  0  0  0  0  0  0  0  0  0  0  0
    3.7233    0.1225  -14.0373 C   0  0  0  0  0  0  0  0  0  0  0  0
    3.4604   -0.6923  -15.2732 C   0  0  0  0  0  0  0  0  0  0  0  0
    4.8241   -1.2463  -15.6270 C   0  0  0  0  0  0  0  0  0  0  0  0
   12.2794    6.7704   -2.6597 C   0  0  0  0  0  0  0  0  0  0  0  0
   12.2894    7.9252   -1.9045 C   0  0  0  0  0  0  0  0  0  0  0  0
   11.9613    9.0947   -2.5557 C   0  0  0  0  0  0  0  0  0  0  0  0
   11.6376    9.1050   -3.9049 C   0  0  0  0  0  0  0  0  0  0  0  0
   11.3112   10.4057   -4.5118 C   0  0  0  0  0  0  0  0  0  0  0  0
   11.6265    7.9623   -4.6558 C   0  0  0  0  0  0  0  0  0  0  0  0
   11.9603    6.7731   -3.9940 C   0  0  0  0  0  0  0  0  0  0  0  0
 30 31  2  0
 31 32  1  0
 32 33  2  0
 33 34  1  0
 33 35  1  0
 35  1  1  0
  1  2  1  0
  2  3  2  0
  3  4  1  0
  4  5  2  0
  5  6  1  0
  6  7  2  0
  7 13  1  0
 13 14  2  0
 14 15  1  0
 15 16  2  0
 16 17  1  0
 17 18  2  0
 17 19  1  0
 19 20  1  0
 20 21  1  0
 21 22  2  0
 22 23  1  0
 23 24  2  0
 24 25  1  0
 25 26  2  0
 26 27  1  0
 27 28  1  0
 28 29  1  0
  6  8  1  0
  8  9  1  0
  8 10  1  0
 10 11  2  0
 11 12  1  0
 35 36  2  0
 36 30  1  0
 12  1  2  0
 11  4  1  0
 18 13  1  0
 26 21  1  0
 22 16  1  0
 29 25  1  0
M  END
>  <minimizedAffinity>  (667) 
-16.82861

$$$$
Mol: 196_39 - SminaDock
     RDKit          3D

 39 45  0  0  0  0  0  0  0  0999 V2000
    8.9577    6.3768  -12.2861 C   0  0  0  0  0  0  0  0  0  0  0  0
    9.6722    5.8575  -13.3365 C   0  0  0  0  0  0  0  0  0  0  0  0
    9.2330    4.7205  -14.0384 C   0  0  0  0  0  0  0  0  0  0  0  0
    8.0608    4.0924  -13.6847 C   0  0  0  0  0  0  0  0  0  0  0  0
    7.3596    4.6215  -12.6354 C   0  0  0  0  0  0  0  0  0  0  0  0
    7.7856    5.7500  -11.9309 C   0  0  0  0  0  0  0  0  0  0  0  0
    6.1001    4.0181  -12.1784 C   0  0  0  0  0  0  0  0  0  0  0  0
    5.6067    2.8488  -12.9213 C   0  0  0  0  0  0  0  0  0  0  0  0
    6.4142    2.3358  -14.0190 C   0  0  0  0  0  0  0  0  0  0  0  0
    7.5974    2.9054  -14.4241 C   0  0  0  0  0  0  0  0  0  0  0  0
    8.3297    2.3886  -15.4760 C   0  0  0  0  0  0  0  0  0  0  0  0
    7.8871    1.2776  -16.1515 C   0  0  0  0  0  0  0  0  0  0  0  0
    6.6995    0.6832  -15.7655 C   0  0  0  0  0  0  0  0  0  0  0  0
    5.9710    1.2029  -14.7141 C   0  0  0  0  0  0  0  0  0  0  0  0
    4.6895    0.6213  -14.2417 C   0  0  0  0  0  0  0  0  0  0  0  0
    4.2827   -0.5650  -15.0170 C   0  0  0  0  0  0  0  0  0  0  0  0
    3.2072   -1.1473  -14.7100 O   0  0  0  0  0  0  0  0  0  0  0  0
    5.0495   -1.1090  -16.1207 C   0  0  0  0  0  0  0  0  0  0  0  0
    4.6820   -2.1288  -16.7714 O   0  0  0  0  0  0  0  0  0  0  0  0
    6.2654   -0.4767  -16.4934 N   0  0  0  0  0  0  0  0  0  0  0  0
    7.0844   -0.9663  -17.5880 C   0  0  0  0  0  0  0  0  0  0  0  0
   11.3605    8.1953   -5.6847 C   0  0  0  0  0  0  0  0  0  0  0  0
   11.4398    9.3858   -6.3734 C   0  0  0  0  0  0  0  0  0  0  0  0
   11.0821    9.5148   -7.6763 C   0  0  0  0  0  0  0  0  0  0  0  0
   10.6081    8.3963   -8.3690 C   0  0  0  0  0  0  0  0  0  0  0  0
   10.5170    7.1840   -7.7016 C   0  0  0  0  0  0  0  0  0  0  0  0
   10.8913    7.0974   -6.3773 C   0  0  0  0  0  0  0  0  0  0  0  0
   10.0494    6.0769   -8.3820 C   0  0  0  0  0  0  0  0  0  0  0  0
    9.6840    6.1999   -9.7062 C   0  0  0  0  0  0  0  0  0  0  0  0
    9.7786    7.4107  -10.3600 C   0  0  0  0  0  0  0  0  0  0  0  0
    9.4393    7.5354  -11.5986 N   0  0  0  0  0  0  0  0  0  0  0  0
   10.2411    8.4522   -9.6443 N   0  0  0  0  0  0  0  0  0  0  0  0
   10.3102    9.3682  -10.1469 H   0  0  0  0  0  0  0  0  0  0  0  0
   12.4915    7.7971   -1.6185 C   0  0  0  0  0  0  0  0  0  0  0  0
   12.4420    9.0442   -2.1922 C   0  0  0  0  0  0  0  0  0  0  0  0
   12.0770    9.1934   -3.5114 C   0  0  0  0  0  0  0  0  0  0  0  0
   11.7563    8.0877   -4.2722 C   0  0  0  0  0  0  0  0  0  0  0  0
   11.8157    6.8498   -3.6673 C   0  0  0  0  0  0  0  0  0  0  0  0
   12.1753    6.6834   -2.3614 C   0  0  0  0  0  0  0  0  0  0  0  0
 34 35  2  0
 35 36  1  0
 36 37  2  0
 37 22  1  0
 22 23  2  0
 23 24  1  0
 24 25  2  0
 25 26  1  0
 26 27  2  0
 26 28  1  0
 28 29  2  0
 29 30  1  0
 30 31  2  0
 31  1  1  0
  1  2  2  0
  2  3  1  0
  3  4  2  0
  4  5  1  0
  5  6  2  0
  5  7  1  0
  7  8  1  0
  8  9  1  0
  9 10  2  0
 10 11  1  0
 11 12  2  0
 12 13  1  0
 13 14  2  0
 14 15  1  0
 15 16  1  0
 16 17  2  0
 16 18  1  0
 18 19  2  0
 18 20  1  0
 20 21  1  0
 30 32  1  0
 32 33  1  0
 37 38  1  0
 38 39  2  0
 39 34  1  0
 27 22  1  0
  6  1  1  0
 14  9  1  0
 32 25  1  0
 10  4  1  0
 20 13  1  0
M  END
>  <minimizedAffinity>  (668) 
-16.83810

$$$$
Mol: 164_19 - SminaDock
     RDKit          3D

 38 44  0  0  0  0  0  0  0  0999 V2000
    4.3868   -3.2273  -16.7093 H   0  0  0  0  0  0  0  0  0  0  0  0
    5.3289   -2.7961  -16.6500 N   0  0  0  0  0  0  0  0  0  0  0  0
    5.4353   -1.6708  -16.0114 C   0  0  0  0  0  0  0  0  0  0  0  0
    4.3196   -1.0917  -15.4420 C   0  0  0  0  0  0  0  0  0  0  0  0
    4.4527    0.0987  -14.7709 C   0  0  0  0  0  0  0  0  0  0  0  0
    5.7068    0.6926  -14.6806 C   0  0  0  0  0  0  0  0  0  0  0  0
    5.8154    1.8870  -14.0026 C   0  0  0  0  0  0  0  0  0  0  0  0
    7.0509    2.5093  -13.8923 C   0  0  0  0  0  0  0  0  0  0  0  0
    8.1396    1.9090  -14.4686 C   0  0  0  0  0  0  0  0  0  0  0  0
    8.0534    0.6946  -15.1629 C   0  0  0  0  0  0  0  0  0  0  0  0
    6.8119    0.1027  -15.2542 C   0  0  0  0  0  0  0  0  0  0  0  0
    6.6317   -1.0681  -15.9040 N   0  0  0  0  0  0  0  0  0  0  0  0
    7.4781   -1.5098  -16.3374 H   0  0  0  0  0  0  0  0  0  0  0  0
    9.3101    2.7609  -14.2103 C   0  0  0  0  0  0  0  0  0  0  0  0
    8.7722    3.8963  -13.4352 C   0  0  0  0  0  0  0  0  0  0  0  0
    9.4190    5.0253  -12.9082 C   0  0  0  0  0  0  0  0  0  0  0  0
    8.7332    5.9899  -12.2024 C   0  0  0  0  0  0  0  0  0  0  0  0
    7.3719    5.8401  -12.0091 C   0  0  0  0  0  0  0  0  0  0  0  0
    6.7344    4.7262  -12.5290 C   0  0  0  0  0  0  0  0  0  0  0  0
    7.4190    3.7595  -13.2360 C   0  0  0  0  0  0  0  0  0  0  0  0
    9.4202    7.1365  -11.6747 N   0  0  0  0  0  0  0  0  0  0  0  0
    9.7427    7.1226  -10.4035 C   0  0  0  0  0  0  0  0  0  0  0  0
   10.3860    8.1643   -9.8506 N   0  0  0  0  0  0  0  0  0  0  0  0
   10.7121    8.1412   -8.5472 C   0  0  0  0  0  0  0  0  0  0  0  0
   11.3747    9.2068   -7.9642 C   0  0  0  0  0  0  0  0  0  0  0  0
   11.7211    9.1998   -6.6128 C   0  0  0  0  0  0  0  0  0  0  0  0
   11.4039    8.1189   -5.8333 C   0  0  0  0  0  0  0  0  0  0  0  0
   10.7479    7.0480   -6.3811 C   0  0  0  0  0  0  0  0  0  0  0  0
   10.4046    7.0626   -7.7349 C   0  0  0  0  0  0  0  0  0  0  0  0
    9.7450    6.0060   -8.3234 C   0  0  0  0  0  0  0  0  0  0  0  0
    9.4383    6.0708   -9.6284 N   0  0  0  0  0  0  0  0  0  0  0  0
    8.9304    5.2534  -10.0733 H   0  0  0  0  0  0  0  0  0  0  0  0
   11.7641    8.1143   -4.4345 C   0  0  0  0  0  0  0  0  0  0  0  0
   12.1237    9.2494   -3.7244 C   0  0  0  0  0  0  0  0  0  0  0  0
   12.4507    9.1273   -2.3830 C   0  0  0  0  0  0  0  0  0  0  0  0
   12.4329    7.9142   -1.7206 C   0  0  0  0  0  0  0  0  0  0  0  0
   12.0771    6.8004   -2.4287 C   0  0  0  0  0  0  0  0  0  0  0  0
   11.7501    6.8988   -3.7560 C   0  0  0  0  0  0  0  0  0  0  0  0
  1  2  1  0
  2  3  2  0
  3  4  1  0
  4  5  2  0
  5  6  1  0
  6  7  2  0
  7  8  1  0
  8  9  2  0
  9 10  1  0
 10 11  2  0
 11 12  1  0
 12 13  1  0
  9 14  1  0
 14 15  1  0
 15 16  2  0
 16 17  1  0
 17 21  1  0
 21 22  2  0
 22 23  1  0
 23 24  2  0
 24 25  1  0
 25 26  2  0
 26 27  1  0
 27 33  1  0
 33 34  2  0
 34 35  1  0
 35 36  2  0
 36 37  1  0
 37 38  2  0
 27 28  2  0
 28 29  1  0
 29 30  2  0
 30 31  1  0
 31 32  1  0
 17 18  2  0
 18 19  1  0
 19 20  2  0
 12  3  1  0
 20 15  1  0
 11  6  1  0
 31 22  1  0
 20  8  1  0
 29 24  1  0
 38 33  1  0
M  END
>  <minimizedAffinity>  (669) 
-16.82479

$$$$
Mol: 162_24 - SminaDock
     RDKit          3D

 38 44  0  0  0  0  0  0  0  0999 V2000
    1.8335   -0.3838  -14.4254 H   0  0  0  0  0  0  0  0  0  0  0  0
    2.7031   -0.7240  -14.0241 O   0  0  0  0  0  0  0  0  0  0  0  0
    3.9331   -0.1366  -14.2773 C   0  0  0  0  0  0  0  0  0  0  0  0
    4.3757    0.9608  -13.6794 N   0  0  0  0  0  0  0  0  0  0  0  0
    5.5852    1.5306  -13.9344 C   0  0  0  0  0  0  0  0  0  0  0  0
    6.4494    0.9858  -14.8566 C   0  0  0  0  0  0  0  0  0  0  0  0
    6.0673   -0.1758  -15.5392 C   0  0  0  0  0  0  0  0  0  0  0  0
    6.6318   -0.9484  -16.4657 N   0  0  0  0  0  0  0  0  0  0  0  0
    5.7668   -1.9555  -16.7496 C   0  0  0  0  0  0  0  0  0  0  0  0
    5.9321   -2.8942  -17.5746 O   0  0  0  0  0  0  0  0  0  0  0  0
    4.6504   -1.8306  -16.0082 N   0  0  0  0  0  0  0  0  0  0  0  0
    3.7975   -2.4324  -15.9840 H   0  0  0  0  0  0  0  0  0  0  0  0
    4.7580   -0.7327  -15.2167 C   0  0  0  0  0  0  0  0  0  0  0  0
    7.6937    1.7719  -14.9635 C   0  0  0  0  0  0  0  0  0  0  0  0
    7.5010    2.8746  -13.9947 C   0  0  0  0  0  0  0  0  0  0  0  0
    8.3229    3.9561  -13.6279 C   0  0  0  0  0  0  0  0  0  0  0  0
    7.9172    4.8690  -12.6841 C   0  0  0  0  0  0  0  0  0  0  0  0
    6.6674    4.7063  -12.0894 C   0  0  0  0  0  0  0  0  0  0  0  0
    5.8779    3.6408  -12.4624 C   0  0  0  0  0  0  0  0  0  0  0  0
    6.2711    2.7067  -13.4157 C   0  0  0  0  0  0  0  0  0  0  0  0
    8.7669    5.9437  -12.3388 N   0  0  0  0  0  0  0  0  0  0  0  0
    9.1447    6.0931  -11.1257 C   0  0  0  0  0  0  0  0  0  0  0  0
    9.9626    7.1236  -10.7807 N   0  0  0  0  0  0  0  0  0  0  0  0
   10.3757    7.3060   -9.5160 C   0  0  0  0  0  0  0  0  0  0  0  0
   11.2049    8.3379   -9.1258 C   0  0  0  0  0  0  0  0  0  0  0  0
   11.6194    8.5067   -7.8119 C   0  0  0  0  0  0  0  0  0  0  0  0
   11.1956    7.6156   -6.8388 C   0  0  0  0  0  0  0  0  0  0  0  0
   10.3705    6.5916   -7.2361 C   0  0  0  0  0  0  0  0  0  0  0  0
    9.9514    6.4129   -8.5384 C   0  0  0  0  0  0  0  0  0  0  0  0
    9.1223    5.3765   -8.9152 C   0  0  0  0  0  0  0  0  0  0  0  0
    8.7250    5.2210  -10.1956 N   0  0  0  0  0  0  0  0  0  0  0  0
    8.0931    4.4321  -10.4852 H   0  0  0  0  0  0  0  0  0  0  0  0
   11.6253    7.7848   -5.4589 C   0  0  0  0  0  0  0  0  0  0  0  0
   11.3631    6.8458   -4.4933 C   0  0  0  0  0  0  0  0  0  0  0  0
   11.7586    6.9820   -3.1817 C   0  0  0  0  0  0  0  0  0  0  0  0
   12.4529    8.0970   -2.7738 C   0  0  0  0  0  0  0  0  0  0  0  0
   12.7298    9.0559   -3.7230 C   0  0  0  0  0  0  0  0  0  0  0  0
   12.3275    8.9064   -5.0331 C   0  0  0  0  0  0  0  0  0  0  0  0
  1  2  1  0
  2  3  1  0
  3  4  1  0
  4  5  1  0
  5  6  2  0
  6  7  1  0
  7  8  2  0
  8  9  1  0
  9 10  2  0
  9 11  1  0
 11 12  1  0
 11 13  1  0
  6 14  1  0
 14 15  1  0
 15 16  2  0
 16 17  1  0
 17 21  1  0
 21 22  2  0
 22 23  1  0
 23 24  2  0
 24 25  1  0
 25 26  2  0
 26 27  1  0
 27 33  1  0
 33 34  2  0
 34 35  1  0
 35 36  2  0
 36 37  1  0
 37 38  2  0
 27 28  2  0
 28 29  1  0
 29 30  2  0
 30 31  1  0
 31 32  1  0
 17 18  2  0
 18 19  1  0
 19 20  2  0
 13  3  2  0
 20 15  1  0
 20  5  1  0
 13  7  1  0
 31 22  1  0
 29 24  1  0
 38 33  1  0
M  CHG  1   4  -1
M  END
>  <minimizedAffinity>  (670) 
-16.76624

$$$$
Mol: 169_52 - SminaDock
     RDKit          3D

 41 47  0  0  0  0  0  0  0  0999 V2000
    9.1568    0.4480  -18.2180 H   0  0  0  0  0  0  0  0  0  0  0  0
    8.9336    0.2769  -17.2444 O   0  0  0  0  0  0  0  0  0  0  0  0
    7.6541   -0.0170  -16.8101 C   0  0  0  0  0  0  0  0  0  0  0  0
    7.0219   -1.0682  -17.3609 N   0  0  0  0  0  0  0  0  0  0  0  0
    5.7776   -1.3822  -16.9626 C   0  0  0  0  0  0  0  0  0  0  0  0
    5.2174   -2.3696  -17.4976 O   0  0  0  0  0  0  0  0  0  0  0  0
    5.1801   -0.6519  -16.0271 N   0  0  0  0  0  0  0  0  0  0  0  0
    3.8399   -1.0050  -15.6101 C   0  0  0  0  0  0  0  0  0  0  0  0
    5.7901    0.4036  -15.4609 C   0  0  0  0  0  0  0  0  0  0  0  0
    5.1129    1.1154  -14.4989 C   0  0  0  0  0  0  0  0  0  0  0  0
    5.7314    2.2286  -13.8889 C   0  0  0  0  0  0  0  0  0  0  0  0
    7.0068    2.5828  -14.2698 C   0  0  0  0  0  0  0  0  0  0  0  0
    7.6879    1.8538  -15.2484 C   0  0  0  0  0  0  0  0  0  0  0  0
    7.0731    0.7671  -15.8381 C   0  0  0  0  0  0  0  0  0  0  0  0
    7.6365    3.7363  -13.6404 C   0  0  0  0  0  0  0  0  0  0  0  0
    8.9118    4.1357  -13.9781 C   0  0  0  0  0  0  0  0  0  0  0  0
    9.5556    5.2294  -13.4023 C   0  0  0  0  0  0  0  0  0  0  0  0
    8.8970    5.9532  -12.4500 C   0  0  0  0  0  0  0  0  0  0  0  0
    7.6254    5.5727  -12.0984 C   0  0  0  0  0  0  0  0  0  0  0  0
    6.9891    4.4886  -12.6702 C   0  0  0  0  0  0  0  0  0  0  0  0
    5.6364    4.1084  -12.2774 C   0  0  0  0  0  0  0  0  0  0  0  0
    5.0854    4.8345  -11.4048 O   0  0  0  0  0  0  0  0  0  0  0  0
    4.9428    2.9479  -12.8572 C   0  0  0  0  0  0  0  0  0  0  0  0
    9.5436    7.0761  -11.8515 N   0  0  0  0  0  0  0  0  0  0  0  0
    9.8172    7.0228  -10.6034 C   0  0  0  0  0  0  0  0  0  0  0  0
   10.4298    8.0944  -10.0453 N   0  0  0  0  0  0  0  0  0  0  0  0
   10.7291    8.0583   -8.7248 C   0  0  0  0  0  0  0  0  0  0  0  0
   11.3489    9.1468   -8.1618 C   0  0  0  0  0  0  0  0  0  0  0  0
   11.6572    9.1212   -6.8170 C   0  0  0  0  0  0  0  0  0  0  0  0
   11.3608    8.0263   -6.0071 C   0  0  0  0  0  0  0  0  0  0  0  0
   10.7390    6.9646   -6.6292 C   0  0  0  0  0  0  0  0  0  0  0  0
   10.4173    6.9528   -7.9601 C   0  0  0  0  0  0  0  0  0  0  0  0
    9.7861    5.8578   -8.5534 C   0  0  0  0  0  0  0  0  0  0  0  0
    9.5190    5.9554   -9.8547 N   0  0  0  0  0  0  0  0  0  0  0  0
    9.0535    5.1500  -10.3102 H   0  0  0  0  0  0  0  0  0  0  0  0
   11.6896    8.0112   -4.5886 C   0  0  0  0  0  0  0  0  0  0  0  0
   11.6326    6.8587   -3.8357 C   0  0  0  0  0  0  0  0  0  0  0  0
   11.9454    6.8546   -2.4892 C   0  0  0  0  0  0  0  0  0  0  0  0
   12.3262    8.0207   -1.8639 C   0  0  0  0  0  0  0  0  0  0  0  0
   12.3894    9.1712   -2.5869 C   0  0  0  0  0  0  0  0  0  0  0  0
   12.0719    9.1722   -3.9514 C   0  0  0  0  0  0  0  0  0  0  0  0
  1  2  1  0
  2  3  1  0
  3  4  2  0
  4  5  1  0
  5  6  2  0
  5  7  1  0
  7  8  1  0
  7  9  1  0
  9 10  2  0
 10 11  1  0
 11 12  2  0
 12 13  1  0
 13 14  2  0
 12 15  1  0
 15 16  2  0
 16 17  1  0
 17 18  2  0
 18 24  1  0
 24 25  2  0
 25 26  1  0
 26 27  2  0
 27 28  1  0
 28 29  2  0
 29 30  1  0
 30 36  1  0
 36 37  2  0
 37 38  1  0
 38 39  2  0
 39 40  1  0
 40 41  2  0
 30 31  2  0
 31 32  1  0
 32 33  2  0
 33 34  1  0
 34 35  1  0
 18 19  1  0
 19 20  2  0
 20 21  1  0
 21 22  2  0
 21 23  1  0
 14  3  1  0
 20 15  1  0
 14  9  1  0
 34 25  1  0
 23 11  1  0
 32 27  1  0
 41 36  1  0
M  END
>  <minimizedAffinity>  (671) 
-16.81767

$$$$
Mol: 106_32 - SminaDock
     RDKit          3D

 43 49  0  0  0  0  0  0  0  0999 V2000
    9.2930    1.5248  -15.2988 N   0  0  0  0  0  0  0  0  0  0  0  0
    8.3141    0.5082  -14.9334 C   0  0  0  0  0  0  0  0  0  0  0  0
    6.9176    1.0510  -14.8400 C   0  0  1  0  0  0  0  0  0  0  0  0
    6.7944    2.5008  -14.5507 C   0  0  0  0  0  0  0  0  0  0  0  0
    8.0172    3.2154  -14.1753 C   0  0  0  0  0  0  0  0  0  0  0  0
    7.9413    4.3774  -13.4499 C   0  0  0  0  0  0  0  0  0  0  0  0
    9.1217    5.0589  -13.1061 C   0  0  0  0  0  0  0  0  0  0  0  0
   10.3428    4.5678  -13.4930 C   0  0  0  0  0  0  0  0  0  0  0  0
   10.4320    3.3848  -14.2313 C   0  0  0  0  0  0  0  0  0  0  0  0
    9.2479    2.7475  -14.5473 C   0  0  0  0  0  0  0  0  0  0  0  0
    6.2404    0.6905  -16.1083 C   0  0  0  0  0  0  0  0  0  0  0  0
    5.9292    1.5832  -16.9145 O   0  0  0  0  0  0  0  0  0  0  0  0
    5.9545   -0.6589  -16.3929 N   0  0  0  0  0  0  0  0  0  0  0  0
    5.7507   -1.5617  -15.3232 C   0  0  0  0  0  0  0  0  0  0  0  0
    5.4914   -2.7803  -15.4769 O   0  0  0  0  0  0  0  0  0  0  0  0
    5.8483   -1.0439  -13.9842 N   0  0  0  0  0  0  0  0  0  0  0  0
    6.1405    0.3332  -13.7583 C   0  0  0  0  0  0  0  0  0  0  0  0
    5.7636    0.9041  -12.7081 O   0  0  0  0  0  0  0  0  0  0  0  0
   13.1805    0.6838  -19.4298 C   0  0  0  0  0  0  0  0  0  0  0  0
   12.1702    0.9048  -18.3578 C   0  0  0  0  0  0  0  0  0  0  0  0
   12.1012    2.1162  -17.7060 C   0  0  0  0  0  0  0  0  0  0  0  0
   11.1637    2.3142  -16.7152 C   0  0  0  0  0  0  0  0  0  0  0  0
   10.2647    1.3592  -16.3185 C   0  0  0  0  0  0  0  0  0  0  0  0
   10.3477    0.1399  -16.9874 C   0  0  0  0  0  0  0  0  0  0  0  0
   11.2816   -0.0775  -17.9848 C   0  0  0  0  0  0  0  0  0  0  0  0
    9.0508    6.2702  -12.3856 N   0  0  0  0  0  0  0  0  0  0  0  0
    8.7296    7.1699  -12.8440 H   0  0  0  0  0  0  0  0  0  0  0  0
    9.4101    6.3239  -11.0177 C   0  0  0  0  0  0  0  0  0  0  0  0
    9.0709    5.3541  -10.1176 C   0  0  0  0  0  0  0  0  0  0  0  0
    9.4339    5.4204   -8.7629 C   0  0  0  0  0  0  0  0  0  0  0  0
   10.1573    6.5083   -8.3377 C   0  0  0  0  0  0  0  0  0  0  0  0
   10.5512    6.6477   -7.0082 C   0  0  0  0  0  0  0  0  0  0  0  0
   11.2730    7.7271   -6.5473 C   0  0  0  0  0  0  0  0  0  0  0  0
   11.6023    8.6928   -7.4742 C   0  0  0  0  0  0  0  0  0  0  0  0
   11.2221    8.5698   -8.7885 C   0  0  0  0  0  0  0  0  0  0  0  0
   10.4899    7.4746   -9.2532 C   0  0  0  0  0  0  0  0  0  0  0  0
   10.1322    7.3873  -10.5408 N   0  0  0  0  0  0  0  0  0  0  0  0
   11.6620    7.8293   -5.1397 C   0  0  0  0  0  0  0  0  0  0  0  0
   11.3448    6.8404   -4.2341 C   0  0  0  0  0  0  0  0  0  0  0  0
   11.7138    6.9351   -2.8983 C   0  0  0  0  0  0  0  0  0  0  0  0
   12.4126    8.0384   -2.4588 C   0  0  0  0  0  0  0  0  0  0  0  0
   12.7264    9.0237   -3.3707 C   0  0  0  0  0  0  0  0  0  0  0  0
   12.3596    8.9293   -4.6984 C   0  0  0  0  0  0  0  0  0  0  0  0
 19 20  1  0
 20 21  2  0
 21 22  1  0
 22 23  2  0
 23  1  1  0
  1  2  1  0
  3  2  1  6
  3  4  1  0
  4  5  1  0
  5  6  2  0
  6  7  1  0
  7 26  1  0
 26 28  1  0
 28 29  2  0
 29 30  1  0
 30 31  2  0
 31 32  1  0
 32 33  2  0
 33 38  1  0
 38 39  2  0
 39 40  1  0
 40 41  2  0
 41 42  1  0
 42 43  2  0
 33 34  1  0
 34 35  2  0
 35 36  1  0
 36 37  2  0
  7  8  2  0
  8  9  1  0
  9 10  2  0
  3 11  1  0
 11 12  2  0
 11 13  1  0
 13 14  1  0
 14 15  2  0
 14 16  1  0
 16 17  1  0
 17 18  2  0
 23 24  1  0
 24 25  2  0
 25 20  1  0
 10  1  1  0
 17  3  1  0
 10  5  1  0
 37 28  1  0
 36 31  1  0
 43 38  1  0
 26 27  1  0
M  CHG  2  13  -1  16  -1
M  END
>  <minimizedAffinity>  (672) 
-16.82669

$$$$
Mol: 59_15 - SminaDock
     RDKit          3D

 49 57  0  0  0  0  0  0  0  0999 V2000
   10.9253    5.5278  -12.7479 C   0  0  1  0  0  0  0  0  0  0  0  0
    7.3453   -0.4802  -15.9102 O   0  0  0  0  0  0  0  0  0  0  0  0
    8.0843    0.3957  -15.4132 C   0  0  0  0  0  0  0  0  0  0  0  0
    9.4393    0.1163  -15.3168 C   0  0  0  0  0  0  0  0  0  0  0  0
   10.2402    1.0984  -14.7641 C   0  0  0  0  0  0  0  0  0  0  0  0
    9.7282    2.3037  -14.3255 C   0  0  0  0  0  0  0  0  0  0  0  0
   10.5384    3.2958  -13.7667 C   0  0  0  0  0  0  0  0  0  0  0  0
   10.0223    4.4878  -13.3344 C   0  0  0  0  0  0  0  0  0  0  0  0
    8.6618    4.7099  -13.4564 C   0  0  0  0  0  0  0  0  0  0  0  0
    7.8554    3.7445  -14.0028 C   0  0  0  0  0  0  0  0  0  0  0  0
    8.3811    2.5388  -14.4398 C   0  0  0  0  0  0  0  0  0  0  0  0
    7.6012    1.5805  -14.9787 N   0  0  0  0  0  0  0  0  0  0  0  0
    6.5810    1.7881  -15.0525 H   0  0  0  0  0  0  0  0  0  0  0  0
   11.7123    6.0411  -13.8969 C   0  0  0  0  0  0  0  0  0  0  0  0
   12.1183    7.3519  -14.0251 C   0  0  0  0  0  0  0  0  0  0  0  0
   12.8288    7.7403  -15.1261 C   0  0  0  0  0  0  0  0  0  0  0  0
   13.1316    6.8123  -16.0981 C   0  0  0  0  0  0  0  0  0  0  0  0
   12.7480    5.4936  -16.0136 C   0  0  0  0  0  0  0  0  0  0  0  0
   12.0341    5.1180  -14.9006 C   0  0  0  0  0  0  0  0  0  0  0  0
   13.0474    4.4890  -17.0262 C   0  0  0  0  0  0  0  0  0  0  0  0
   14.0519    4.6356  -17.9593 C   0  0  0  0  0  0  0  0  0  0  0  0
   14.3001    3.6469  -18.9016 C   0  0  0  0  0  0  0  0  0  0  0  0
   13.5618    2.4822  -18.9496 C   0  0  0  0  0  0  0  0  0  0  0  0
   13.8246    1.5071  -19.8954 C   0  0  0  0  0  0  0  0  0  0  0  0
   13.0880    0.3419  -19.9433 C   0  0  0  0  0  0  0  0  0  0  0  0
   12.0754    0.1864  -19.0080 C   0  0  0  0  0  0  0  0  0  0  0  0
   11.8213    1.1659  -18.0681 C   0  0  0  0  0  0  0  0  0  0  0  0
   12.5561    2.3330  -18.0169 C   0  0  0  0  0  0  0  0  0  0  0  0
   12.3115    3.3173  -17.0816 C   0  0  0  0  0  0  0  0  0  0  0  0
   10.1016    6.5421  -12.0442 C   0  0  0  0  0  0  0  0  0  0  0  0
    9.7588    6.2557  -10.6851 N   0  0  0  0  0  0  0  0  0  0  0  0
    8.9730    5.1608  -10.1904 C   0  0  0  0  0  0  0  0  0  0  0  0
    9.1791    5.0925   -8.7042 C   0  0  0  0  0  0  0  0  0  0  0  0
    9.8207    6.3793   -8.3761 C   0  0  0  0  0  0  0  0  0  0  0  0
   10.1277    6.9930   -7.1554 C   0  0  0  0  0  0  0  0  0  0  0  0
   10.7361    8.2123   -7.0636 C   0  0  0  0  0  0  0  0  0  0  0  0
   11.0574    8.8580   -8.2585 C   0  0  0  0  0  0  0  0  0  0  0  0
   10.7617    8.2674   -9.4720 C   0  0  0  0  0  0  0  0  0  0  0  0
   10.1436    7.0281   -9.5387 C   0  0  0  0  0  0  0  0  0  0  0  0
   11.0641    8.8596   -5.7994 C   0  0  0  0  0  0  0  0  0  0  0  0
   10.9928   10.1844   -5.5771 N   0  0  0  0  0  0  0  0  0  0  0  0
   11.3592   10.4575   -4.3216 N   0  0  0  0  0  0  0  0  0  0  0  0
   11.6837    9.3248   -3.6748 C   0  0  0  0  0  0  0  0  0  0  0  0
   12.1169    9.0459   -2.3958 C   0  0  0  0  0  0  0  0  0  0  0  0
   12.3691    7.7380   -2.0407 C   0  0  0  0  0  0  0  0  0  0  0  0
   12.1815    6.7462   -2.9719 C   0  0  0  0  0  0  0  0  0  0  0  0
   11.7506    7.0127   -4.2475 C   0  0  0  0  0  0  0  0  0  0  0  0
   11.4969    8.3038   -4.6134 C   0  0  0  0  0  0  0  0  0  0  0  0
   11.4009   11.4127   -3.8645 H   0  0  0  0  0  0  0  0  0  0  0  0
  2  3  2  0
  3  4  1  0
  4  5  2  0
  5  6  1  0
  6  7  2  0
  7  8  1  0
  8  1  1  0
  1 30  1  6
 30 31  1  0
 31 32  1  0
 32 33  1  0
 33 34  1  0
 34 35  2  0
 35 36  1  0
 36 40  1  0
 40 41  2  0
 41 42  1  0
 42 43  1  0
 43 44  2  0
 44 45  1  0
 45 46  2  0
 46 47  1  0
 47 48  2  0
 36 37  2  0
 37 38  1  0
 38 39  2  0
  1 14  1  0
 14 15  2  0
 15 16  1  0
 16 17  2  0
 17 18  1  0
 18 20  1  0
 20 21  2  0
 21 22  1  0
 22 23  2  0
 23 24  1  0
 24 25  2  0
 25 26  1  0
 26 27  2  0
 27 28  1  0
 28 29  2  0
 18 19  2  0
  8  9  2  0
  9 10  1  0
 10 11  2  0
 11 12  1  0
 12  3  1  0
 11  6  1  0
 39 31  1  0
 19 14  1  0
 39 34  1  0
 29 20  1  0
 48 40  1  0
 28 23  1  0
 48 43  1  0
 42 49  1  0
 12 13  1  0
M  END
>  <minimizedAffinity>  (673) 
-16.77771

$$$$
Mol: 122_54 - SminaDock
     RDKit          3D

 40 46  0  0  0  0  0  0  0  0999 V2000
    9.0538    6.5546  -12.3233 C   0  0  0  0  0  0  0  0  0  0  0  0
    7.9000    7.2566  -12.0433 C   0  0  0  0  0  0  0  0  0  0  0  0
    6.6978    6.6293  -12.2746 C   0  0  0  0  0  0  0  0  0  0  0  0
    6.6146    5.3454  -12.7685 C   0  0  0  0  0  0  0  0  0  0  0  0
    5.3630    4.7537  -12.9751 C   0  0  0  0  0  0  0  0  0  0  0  0
    5.2871    3.4642  -13.4590 C   0  0  0  0  0  0  0  0  0  0  0  0
    6.4613    2.8165  -13.7158 C   0  0  0  0  0  0  0  0  0  0  0  0
    7.7185    3.3633  -13.5312 C   0  0  0  0  0  0  0  0  0  0  0  0
    7.7898    4.6743  -13.0375 C   0  0  0  0  0  0  0  0  0  0  0  0
    9.0157    5.2688  -12.8181 C   0  0  0  0  0  0  0  0  0  0  0  0
    9.0435    2.8411  -13.8302 C   0  0  0  0  0  0  0  0  0  0  0  0
    9.2357    1.6972  -14.5988 N   0  0  0  0  0  0  0  0  0  0  0  0
   10.5810    1.5625  -15.1237 C   0  0  0  0  0  0  0  0  0  0  0  0
    8.3382    1.1648  -15.5261 C   0  0  0  0  0  0  0  0  0  0  0  0
    7.0467    0.7392  -15.0181 C   0  0  0  0  0  0  0  0  0  0  0  0
    6.2201    1.4558  -14.1649 C   0  0  0  0  0  0  0  0  0  0  0  0
    5.0526    0.9531  -13.6687 C   0  0  0  0  0  0  0  0  0  0  0  0
    4.7260   -0.3486  -14.0809 C   0  0  0  0  0  0  0  0  0  0  0  0
    3.6395   -0.8123  -13.6196 O   0  0  0  0  0  0  0  0  0  0  0  0
    5.5052   -1.0667  -14.9096 N   0  0  0  0  0  0  0  0  0  0  0  0
    5.2105   -2.0316  -15.1833 H   0  0  0  0  0  0  0  0  0  0  0  0
    6.6722   -0.5177  -15.3792 C   0  0  0  0  0  0  0  0  0  0  0  0
   11.2017    7.5882   -6.0349 C   0  0  0  0  0  0  0  0  0  0  0  0
    9.9648    7.0546   -6.3004 C   0  0  0  0  0  0  0  0  0  0  0  0
    9.5270    6.8439   -7.5864 C   0  0  0  0  0  0  0  0  0  0  0  0
   10.3700    7.1852   -8.6193 C   0  0  0  0  0  0  0  0  0  0  0  0
    9.9979    7.0028   -9.8942 N   0  0  0  0  0  0  0  0  0  0  0  0
   10.7739    7.3152  -10.9392 C   0  0  0  0  0  0  0  0  0  0  0  0
   10.3475    7.1113  -12.1198 N   0  0  0  0  0  0  0  0  0  0  0  0
   11.9887    7.8389  -10.7018 N   0  0  0  0  0  0  0  0  0  0  0  0
   12.6174    8.0929  -11.5050 H   0  0  0  0  0  0  0  0  0  0  0  0
   12.4307    8.0510   -9.4383 C   0  0  0  0  0  0  0  0  0  0  0  0
   11.6068    7.7183   -8.3786 C   0  0  0  0  0  0  0  0  0  0  0  0
   12.0270    7.9217   -7.0817 C   0  0  0  0  0  0  0  0  0  0  0  0
   12.2587    9.2782   -2.9736 C   0  0  0  0  0  0  0  0  0  0  0  0
   11.8912    9.0391   -4.2339 N   0  0  0  0  0  0  0  0  0  0  0  0
   11.5981    7.7833   -4.6404 C   0  0  0  0  0  0  0  0  0  0  0  0
   11.6644    6.7189   -3.7893 C   0  0  0  0  0  0  0  0  0  0  0  0
   12.0462    6.9284   -2.4584 C   0  0  0  0  0  0  0  0  0  0  0  0
   12.3347    8.2192   -2.0895 C   0  0  0  0  0  0  0  0  0  0  0  0
 35 36  2  0
 36 37  1  0
 37 23  1  0
 23 24  1  0
 24 25  2  0
 25 26  1  0
 26 27  2  0
 27 28  1  0
 28 29  2  0
 29  1  1  0
  1  2  2  0
  2  3  1  0
  3  4  2  0
  4  5  1  0
  5  6  2  0
  6  7  1  0
  7  8  2  0
  8  9  1  0
  9 10  2  0
  8 11  1  0
 11 12  1  0
 12 13  1  0
 12 14  1  0
 14 15  1  0
 15 16  1  0
 16 17  2  0
 17 18  1  0
 18 19  2  0
 18 20  1  0
 20 21  1  0
 20 22  1  0
 28 30  1  0
 30 31  1  0
 30 32  1  0
 32 33  2  0
 33 34  1  0
 37 38  2  0
 38 39  1  0
 39 40  2  0
 40 35  1  0
 34 23  2  0
 33 26  1  0
 10  1  1  0
 22 15  2  0
  9  4  1  0
 16  7  1  0
M  END
>  <minimizedAffinity>  (674) 
-16.76053

$$$$
Mol: 173_42 - SminaDock
     RDKit          3D

 41 48  0  0  0  0  0  0  0  0999 V2000
    4.9305    0.4102  -19.9206 C   0  0  0  0  0  0  0  0  0  0  0  0
    3.8404   -0.0536  -19.2829 N   0  0  0  0  0  0  0  0  0  0  0  0
    3.8979   -0.5275  -18.0246 C   0  0  0  0  0  0  0  0  0  0  0  0
    5.0962   -0.5603  -17.3188 C   0  0  0  0  0  0  0  0  0  0  0  0
    6.2091   -0.0900  -17.9621 C   0  0  0  0  0  0  0  0  0  0  0  0
    6.1293    0.3936  -19.2565 C   0  0  0  0  0  0  0  0  0  0  0  0
    7.6255    0.0579  -17.6192 C   0  0  0  0  0  0  0  0  0  0  0  0
    7.9933   -0.1001  -16.1926 C   0  0  0  0  0  0  0  0  0  0  0  0
    7.2472    0.7804  -15.2609 C   0  0  0  0  0  0  0  0  0  0  0  0
    8.0485    1.8151  -14.8751 C   0  0  0  0  0  0  0  0  0  0  0  0
    7.5915    2.7992  -13.9912 C   0  0  0  0  0  0  0  0  0  0  0  0
    6.3137    2.7541  -13.4809 C   0  0  0  0  0  0  0  0  0  0  0  0
    5.5087    1.6974  -13.8804 C   0  0  0  0  0  0  0  0  0  0  0  0
    5.9603    0.7331  -14.7483 C   0  0  0  0  0  0  0  0  0  0  0  0
    4.9150   -0.1891  -14.9522 O   0  0  0  0  0  0  0  0  0  0  0  0
    4.7042   -1.1376  -16.0193 C   0  0  0  0  0  0  0  0  0  0  0  0
    6.0741    3.9201  -12.5623 C   0  0  0  0  0  0  0  0  0  0  0  0
    7.3573    4.6449  -12.5977 C   0  0  0  0  0  0  0  0  0  0  0  0
    7.7214    5.7980  -11.9432 C   0  0  0  0  0  0  0  0  0  0  0  0
    9.0176    6.2834  -12.1523 C   0  0  0  0  0  0  0  0  0  0  0  0
    9.8862    5.6356  -12.9750 C   0  0  0  0  0  0  0  0  0  0  0  0
    9.5223    4.4812  -13.6306 C   0  0  0  0  0  0  0  0  0  0  0  0
    8.2350    3.9881  -13.4307 C   0  0  0  0  0  0  0  0  0  0  0  0
    9.3820    7.4719  -11.4705 N   0  0  0  0  0  0  0  0  0  0  0  0
    9.7566    7.4069  -10.2543 C   0  0  0  0  0  0  0  0  0  0  0  0
    9.8068    6.2345   -9.6264 N   0  0  0  0  0  0  0  0  0  0  0  0
   10.1815    6.0719   -8.3635 C   0  0  0  0  0  0  0  0  0  0  0  0
   10.5488    7.2145   -7.6454 C   0  0  0  0  0  0  0  0  0  0  0  0
   10.9391    7.0786   -6.3408 C   0  0  0  0  0  0  0  0  0  0  0  0
   11.2982    8.2098   -5.6399 C   0  0  0  0  0  0  0  0  0  0  0  0
   11.2541    9.4364   -6.2701 C   0  0  0  0  0  0  0  0  0  0  0  0
   10.8606    9.5570   -7.5792 C   0  0  0  0  0  0  0  0  0  0  0  0
   10.4958    8.4250   -8.2972 C   0  0  0  0  0  0  0  0  0  0  0  0
   10.1089    8.5244   -9.5735 N   0  0  0  0  0  0  0  0  0  0  0  0
   10.0676    9.4405  -10.0706 H   0  0  0  0  0  0  0  0  0  0  0  0
   11.7308    8.1523   -4.2449 C   0  0  0  0  0  0  0  0  0  0  0  0
   12.0741    9.2915   -3.5765 C   0  0  0  0  0  0  0  0  0  0  0  0
   12.4740    9.1622   -2.2675 C   0  0  0  0  0  0  0  0  0  0  0  0
   12.5286    7.9424   -1.6508 C   0  0  0  0  0  0  0  0  0  0  0  0
   12.1830    6.8017   -2.3261 C   0  0  0  0  0  0  0  0  0  0  0  0
   11.7795    6.9158   -3.6409 C   0  0  0  0  0  0  0  0  0  0  0  0
  1  2  2  0
  2  3  1  0
  3  4  2  0
  4  5  1  0
  5  6  2  0
  5  7  1  0
  7  8  1  0
  8  9  1  0
  9 10  2  0
 10 11  1  0
 11 12  2  0
 12 13  1  0
 13 14  2  0
 14 15  1  0
 15 16  1  0
 12 17  1  0
 17 18  1  0
 18 19  2  0
 19 20  1  0
 20 24  1  0
 24 25  2  0
 25 26  1  0
 26 27  2  0
 27 28  1  0
 28 29  2  0
 29 30  1  0
 30 36  1  0
 36 37  2  0
 37 38  1  0
 38 39  2  0
 39 40  1  0
 40 41  2  0
 30 31  2  0
 31 32  1  0
 32 33  2  0
 33 34  1  0
 34 35  1  0
 20 21  2  0
 21 22  1  0
 22 23  2  0
  6  1  1  0
 14  9  1  0
 23 18  1  0
 16  4  1  0
 34 25  1  0
 23 11  1  0
 33 28  1  0
 41 36  1  0
M  END
>  <minimizedAffinity>  (675) 
-16.75866

$$$$
Mol: 161_37 - SminaDock
     RDKit          3D

 40 46  0  0  0  0  0  0  0  0999 V2000
    9.0370    6.2185  -12.1253 C   0  0  0  0  0  0  0  0  0  0  0  0
    9.7948    5.4449  -12.9763 C   0  0  0  0  0  0  0  0  0  0  0  0
    9.2412    4.3360  -13.5587 C   0  0  0  0  0  0  0  0  0  0  0  0
    7.9319    3.9943  -13.2956 C   0  0  0  0  0  0  0  0  0  0  0  0
    7.1528    4.7352  -12.4599 C   0  0  0  0  0  0  0  0  0  0  0  0
    7.7274    5.8494  -11.8818 C   0  0  0  0  0  0  0  0  0  0  0  0
    5.7522    4.4446  -12.1247 C   0  0  0  0  0  0  0  0  0  0  0  0
    5.1646    3.2487  -12.7550 C   0  0  0  0  0  0  0  0  0  0  0  0
    6.0579    2.5016  -13.6396 C   0  0  0  0  0  0  0  0  0  0  0  0
    7.3518    2.8041  -13.9255 C   0  0  0  0  0  0  0  0  0  0  0  0
    7.8808    1.9148  -14.7708 N   0  0  0  0  0  0  0  0  0  0  0  0
    8.8528    1.9444  -15.1277 H   0  0  0  0  0  0  0  0  0  0  0  0
    6.9179    0.9970  -15.0561 C   0  0  0  0  0  0  0  0  0  0  0  0
    5.7807    1.3487  -14.3608 C   0  0  0  0  0  0  0  0  0  0  0  0
    4.6628    0.5574  -14.4948 C   0  0  0  0  0  0  0  0  0  0  0  0
    4.6567   -0.5723  -15.3048 C   0  0  0  0  0  0  0  0  0  0  0  0
    3.5119   -1.3930  -15.4497 N   0  0  0  0  0  0  0  0  0  0  0  0
    2.9090   -1.2918  -16.2879 H   0  0  0  0  0  0  0  0  0  0  0  0
    3.2225   -2.1184  -14.7468 H   0  0  0  0  0  0  0  0  0  0  0  0
    5.8329   -0.8530  -15.9642 C   0  0  0  0  0  0  0  0  0  0  0  0
    6.9297   -0.0917  -15.8435 N   0  0  0  0  0  0  0  0  0  0  0  0
    8.0735   -0.4025  -16.5118 O   0  0  0  0  0  0  0  0  0  0  0  0
   11.4553    8.2918   -5.6907 C   0  0  0  0  0  0  0  0  0  0  0  0
   11.6524    9.4550   -6.3956 C   0  0  0  0  0  0  0  0  0  0  0  0
   11.3038    9.4882   -7.7337 C   0  0  0  0  0  0  0  0  0  0  0  0
   10.7671    8.3930   -8.3763 C   0  0  0  0  0  0  0  0  0  0  0  0
   10.4239    8.4070   -9.6708 N   0  0  0  0  0  0  0  0  0  0  0  0
    9.8997    7.3115  -10.2673 C   0  0  0  0  0  0  0  0  0  0  0  0
    9.5860    7.3724  -11.5087 N   0  0  0  0  0  0  0  0  0  0  0  0
    9.7098    6.1789   -9.5737 N   0  0  0  0  0  0  0  0  0  0  0  0
    9.2985    5.3096  -10.0292 H   0  0  0  0  0  0  0  0  0  0  0  0
   10.0351    6.1136   -8.2816 C   0  0  0  0  0  0  0  0  0  0  0  0
   10.5777    7.2363   -7.6508 C   0  0  0  0  0  0  0  0  0  0  0  0
   10.9218    7.1956   -6.3204 C   0  0  0  0  0  0  0  0  0  0  0  0
   12.4313    7.8984   -1.5742 C   0  0  0  0  0  0  0  0  0  0  0  0
   12.4015    9.1494   -2.1874 C   0  0  0  0  0  0  0  0  0  0  0  0
   12.0829    9.2602   -3.5246 C   0  0  0  0  0  0  0  0  0  0  0  0
   11.7934    8.1566   -4.2662 C   0  0  0  0  0  0  0  0  0  0  0  0
   11.8171    6.9062   -3.6778 C   0  0  0  0  0  0  0  0  0  0  0  0
   12.1352    6.7928   -2.3417 C   0  0  0  0  0  0  0  0  0  0  0  0
 35 36  2  0
 36 37  1  0
 37 38  2  0
 38 23  1  0
 23 24  1  0
 24 25  2  0
 25 26  1  0
 26 27  2  0
 27 28  1  0
 28 29  2  0
 29  1  1  0
  1  2  2  0
  2  3  1  0
  3  4  2  0
  4  5  1  0
  5  6  2  0
  5  7  1  0
  7  8  1  0
  8  9  1  0
  9 10  2  0
 10 11  1  0
 11 12  1  0
 11 13  1  0
 13 14  2  0
 14 15  1  0
 15 16  2  0
 16 17  1  0
 17 18  1  0
 17 19  1  0
 16 20  1  0
 20 21  2  0
 21 22  1  0
 28 30  1  0
 30 31  1  0
 30 32  1  0
 32 33  2  0
 33 34  1  0
 38 39  1  0
 39 40  2  0
 40 35  1  0
 34 23  2  0
 33 26  1  0
  6  1  1  0
 14  9  1  0
 10  4  1  0
 21 13  1  0
M  CHG  2  21   1  22  -1
M  END
>  <minimizedAffinity>  (676) 
-16.78028

$$$$
Mol: 162_6 - SminaDock
     RDKit          3D

 41 47  0  0  0  0  0  0  0  0999 V2000
    2.6388   -0.7228  -14.1564 O   0  0  0  0  0  0  0  0  0  0  0  0
    3.9831   -0.3898  -14.2922 C   0  0  0  0  0  0  0  0  0  0  0  0
    4.8684   -1.2928  -14.8747 C   0  0  0  0  0  0  0  0  0  0  0  0
    6.1950   -0.9489  -15.0021 C   0  0  0  0  0  0  0  0  0  0  0  0
    6.6383    0.2932  -14.5496 C   0  0  0  0  0  0  0  0  0  0  0  0
    7.9625    0.6335  -14.6814 C   0  0  0  0  0  0  0  0  0  0  0  0
    8.7935   -0.1560  -15.2030 O   0  0  0  0  0  0  0  0  0  0  0  0
    8.4230    1.8311  -14.2564 N   0  0  0  0  0  0  0  0  0  0  0  0
    7.5447    2.6635  -13.7071 C   0  0  0  0  0  0  0  0  0  0  0  0
    6.2055    2.3733  -13.5495 C   0  0  0  0  0  0  0  0  0  0  0  0
    5.7189    1.1714  -13.9711 C   0  0  0  0  0  0  0  0  0  0  0  0
    4.4330    0.8065  -13.8612 N   0  0  0  0  0  0  0  0  0  0  0  0
    5.1265    3.2062  -12.9458 C   0  0  0  0  0  0  0  0  0  0  0  0
    5.6525    4.0149  -11.8588 N   0  0  0  0  0  0  0  0  0  0  0  0
    6.1953    5.2590  -12.3043 C   0  0  0  0  0  0  0  0  0  0  0  0
    7.6117    5.0616  -12.6880 C   0  0  0  0  0  0  0  0  0  0  0  0
    8.3917    6.1684  -12.3842 C   0  0  0  0  0  0  0  0  0  0  0  0
    9.7251    6.1280  -12.6954 C   0  0  0  0  0  0  0  0  0  0  0  0
   10.3077    5.0153  -13.3017 C   0  0  0  0  0  0  0  0  0  0  0  0
    9.5054    3.9346  -13.5889 C   0  0  0  0  0  0  0  0  0  0  0  0
    8.1500    3.9429  -13.2868 C   0  0  0  0  0  0  0  0  0  0  0  0
    2.4248   -1.6958  -13.9858 H   0  0  0  0  0  0  0  0  0  0  0  0
    4.8027    4.2361  -11.2557 H   0  0  0  0  0  0  0  0  0  0  0  0
   10.5850    7.2264  -12.4137 N   0  0  0  0  0  0  0  0  0  0  0  0
   10.9260    7.8711  -13.1530 H   0  0  0  0  0  0  0  0  0  0  0  0
   10.9699    7.4156  -11.0405 C   0  0  0  0  0  0  0  0  0  0  0  0
   12.1511    7.9785  -10.7322 N   0  0  0  0  0  0  0  0  0  0  0  0
   12.5149    8.1630   -9.4393 C   0  0  0  0  0  0  0  0  0  0  0  0
   11.6851    7.7785   -8.4095 C   0  0  0  0  0  0  0  0  0  0  0  0
   12.0677    7.9724   -7.0980 C   0  0  0  0  0  0  0  0  0  0  0  0
   11.2424    7.5896   -6.0560 C   0  0  0  0  0  0  0  0  0  0  0  0
   10.0307    7.0099   -6.4091 C   0  0  0  0  0  0  0  0  0  0  0  0
    9.6426    6.8141   -7.7121 C   0  0  0  0  0  0  0  0  0  0  0  0
   10.4803    7.2035   -8.7440 C   0  0  0  0  0  0  0  0  0  0  0  0
   10.1662    7.0431  -10.0326 N   0  0  0  0  0  0  0  0  0  0  0  0
   11.5846    7.7783   -4.6700 C   0  0  0  0  0  0  0  0  0  0  0  0
   11.8013    9.0433   -4.1296 C   0  0  0  0  0  0  0  0  0  0  0  0
   12.1350    9.1778   -2.8025 C   0  0  0  0  0  0  0  0  0  0  0  0
   12.2660    8.0885   -1.9679 C   0  0  0  0  0  0  0  0  0  0  0  0
   12.0536    6.8146   -2.4886 C   0  0  0  0  0  0  0  0  0  0  0  0
   11.7209    6.7112   -3.8204 C   0  0  0  0  0  0  0  0  0  0  0  0
  1  2  1  0
  2  3  2  0
  3  4  1  0
  4  5  2  0
  5  6  1  0
  6  7  2  0
  6  8  1  0
  8  9  1  0
  9 10  2  0
 10 11  1  0
 11 12  2  0
 10 13  1  0
 13 14  1  0
 14 15  1  0
 15 16  1  0
 16 17  2  0
 17 18  1  0
 18 24  1  0
 24 26  1  0
 26 27  2  0
 27 28  1  0
 28 29  2  0
 29 30  1  0
 30 31  2  0
 31 36  1  0
 36 37  2  0
 37 38  1  0
 38 39  2  0
 39 40  1  0
 40 41  2  0
 31 32  1  0
 32 33  2  0
 33 34  1  0
 34 35  2  0
 18 19  2  0
 19 20  1  0
 20 21  2  0
 12  2  1  0
 21 16  1  0
 11  5  1  0
 35 26  1  0
 21  9  1  0
 34 29  1  0
 41 36  1  0
  1 22  1  0
 14 23  1  0
 24 25  1  0
M  CHG  1   8  -1
M  END
>  <minimizedAffinity>  (677) 
-16.80143

$$$$
Mol: 198_30 - SminaDock
     RDKit          3D

 38 44  0  0  0  0  0  0  0  0999 V2000
    8.6196    5.8644  -12.2904 C   0  0  0  0  0  0  0  0  0  0  0  0
    7.4172    5.4012  -11.8044 C   0  0  0  0  0  0  0  0  0  0  0  0
    6.7954    4.2808  -12.3577 C   0  0  0  0  0  0  0  0  0  0  0  0
    7.4285    3.6551  -13.4078 C   0  0  0  0  0  0  0  0  0  0  0  0
    8.6180    4.0898  -13.9103 C   0  0  0  0  0  0  0  0  0  0  0  0
    9.2381    5.2346  -13.3333 C   0  0  0  0  0  0  0  0  0  0  0  0
    9.2979    3.4380  -15.0284 C   0  0  0  0  0  0  0  0  0  0  0  0
    8.6714    2.2514  -15.5983 C   0  0  0  0  0  0  0  0  0  0  0  0
    7.3774    1.8234  -15.0220 C   0  0  0  0  0  0  0  0  0  0  0  0
    6.7665    2.4852  -13.9660 C   0  0  0  0  0  0  0  0  0  0  0  0
    5.5803    2.0244  -13.4949 C   0  0  0  0  0  0  0  0  0  0  0  0
    5.0069    0.8967  -14.0859 C   0  0  0  0  0  0  0  0  0  0  0  0
    5.5892    0.2245  -15.1301 C   0  0  0  0  0  0  0  0  0  0  0  0
    4.9801   -0.9028  -15.6934 C   0  0  0  0  0  0  0  0  0  0  0  0
    5.6192   -1.5286  -16.7373 C   0  0  0  0  0  0  0  0  0  0  0  0
    5.1168   -2.5637  -17.2973 O   0  0  0  0  0  0  0  0  0  0  0  0
    6.7960   -1.0518  -17.1868 N   0  0  0  0  0  0  0  0  0  0  0  0
    7.2594   -1.5462  -17.9805 H   0  0  0  0  0  0  0  0  0  0  0  0
    7.3918    0.0339  -16.6510 C   0  0  0  0  0  0  0  0  0  0  0  0
    6.7920    0.7102  -15.5909 C   0  0  0  0  0  0  0  0  0  0  0  0
   11.3222    8.1024   -5.9674 C   0  0  0  0  0  0  0  0  0  0  0  0
   11.5455    9.2056   -6.7436 C   0  0  0  0  0  0  0  0  0  0  0  0
   11.1804    9.2327   -8.0627 C   0  0  0  0  0  0  0  0  0  0  0  0
   10.5689    8.1172   -8.6318 C   0  0  0  0  0  0  0  0  0  0  0  0
   10.3465    7.0085   -7.8447 C   0  0  0  0  0  0  0  0  0  0  0  0
   10.7212    7.0026   -6.5218 C   0  0  0  0  0  0  0  0  0  0  0  0
    9.7375    5.8806   -8.3881 C   0  0  0  0  0  0  0  0  0  0  0  0
    9.3626    5.8879   -9.7139 C   0  0  0  0  0  0  0  0  0  0  0  0
    9.6002    7.0061  -10.4608 C   0  0  0  0  0  0  0  0  0  0  0  0
    9.2510    7.0222  -11.7100 N   0  0  0  0  0  0  0  0  0  0  0  0
   10.1936    8.0961   -9.9190 N   0  0  0  0  0  0  0  0  0  0  0  0
   10.3812    8.9621  -10.4843 H   0  0  0  0  0  0  0  0  0  0  0  0
   12.4075    7.9241   -1.8932 C   0  0  0  0  0  0  0  0  0  0  0  0
   12.4340    9.1341   -2.5442 C   0  0  0  0  0  0  0  0  0  0  0  0
   12.0780    9.1731   -3.8691 C   0  0  0  0  0  0  0  0  0  0  0  0
   11.6950    8.0341   -4.5639 C   0  0  0  0  0  0  0  0  0  0  0  0
   11.6851    6.8501   -3.8680 C   0  0  0  0  0  0  0  0  0  0  0  0
   12.0328    6.7538   -2.5384 C   0  0  0  0  0  0  0  0  0  0  0  0
 33 34  2  0
 34 35  1  0
 35 36  2  0
 36 21  1  0
 21 22  2  0
 22 23  1  0
 23 24  2  0
 24 25  1  0
 25 26  2  0
 25 27  1  0
 27 28  2  0
 28 29  1  0
 29 30  2  0
 30  1  1  0
  1  2  2  0
  2  3  1  0
  3  4  2  0
  4  5  1  0
  5  6  2  0
  5  7  1  0
  7  8  1  0
  8  9  1  0
  9 10  2  0
 10 11  1  0
 11 12  2  0
 12 13  1  0
 13 14  2  0
 14 15  1  0
 15 16  2  0
 15 17  1  0
 17 18  1  0
 17 19  1  0
 19 20  2  0
 29 31  1  0
 31 32  1  0
 36 37  1  0
 37 38  2  0
 38 33  1  0
 26 21  1  0
  6  1  1  0
 20  9  1  0
 31 24  1  0
 10  4  1  0
 20 13  1  0
M  END
>  <minimizedAffinity>  (678) 
-16.81822

$$$$
Mol: 193_21 - SminaDock
     RDKit          3D

 35 41  0  0  0  0  0  0  0  0999 V2000
    9.3798    6.8778  -11.7156 N   0  0  0  0  0  0  0  0  0  0  0  0
    9.6941    6.8622  -10.4755 C   0  0  0  0  0  0  0  0  0  0  0  0
    9.4036    5.7555   -9.7190 C   0  0  0  0  0  0  0  0  0  0  0  0
    9.7714    5.8012   -8.3794 C   0  0  0  0  0  0  0  0  0  0  0  0
   10.3970    6.9022   -7.8353 C   0  0  0  0  0  0  0  0  0  0  0  0
   10.7765    6.9838   -6.5121 C   0  0  0  0  0  0  0  0  0  0  0  0
   11.4023    8.0868   -5.9709 C   0  0  0  0  0  0  0  0  0  0  0  0
   11.6579    9.1512   -6.7902 C   0  0  0  0  0  0  0  0  0  0  0  0
   11.2909    9.0938   -8.1062 C   0  0  0  0  0  0  0  0  0  0  0  0
   10.6564    7.9747   -8.6535 C   0  0  0  0  0  0  0  0  0  0  0  0
   10.3030    7.9372   -9.9515 N   0  0  0  0  0  0  0  0  0  0  0  0
   10.5233    8.7795  -10.5295 H   0  0  0  0  0  0  0  0  0  0  0  0
    2.5136   -2.0610  -15.2781 H   0  0  0  0  0  0  0  0  0  0  0  0
    2.6801   -1.2140  -14.7176 O   0  0  0  0  0  0  0  0  0  0  0  0
    3.8817   -0.5247  -14.7918 C   0  0  0  0  0  0  0  0  0  0  0  0
    4.9873   -0.6222  -15.4485 N   0  0  0  0  0  0  0  0  0  0  0  0
    5.6125    0.5150  -14.8608 C   0  0  0  0  0  0  0  0  0  0  0  0
    6.6184    1.4334  -14.6482 C   0  0  0  0  0  0  0  0  0  0  0  0
    6.5176    2.4773  -13.7559 C   0  0  0  0  0  0  0  0  0  0  0  0
    5.3535    2.6032  -13.0456 C   0  0  0  0  0  0  0  0  0  0  0  0
    4.3014    1.6844  -13.2342 C   0  0  0  0  0  0  0  0  0  0  0  0
    4.4267    0.6528  -14.1295 C   0  0  0  0  0  0  0  0  0  0  0  0
    5.4739    3.7762  -12.1651 C   0  0  0  0  0  0  0  0  0  0  0  0
    6.8151    4.3274  -12.4236 C   0  0  0  0  0  0  0  0  0  0  0  0
    7.4723    5.4438  -11.8700 C   0  0  0  0  0  0  0  0  0  0  0  0
    8.7395    5.7552  -12.2829 C   0  0  0  0  0  0  0  0  0  0  0  0
    9.3745    4.9885  -13.2316 C   0  0  0  0  0  0  0  0  0  0  0  0
    8.7146    3.8999  -13.7615 C   0  0  0  0  0  0  0  0  0  0  0  0
    7.4209    3.5468  -13.3684 C   0  0  0  0  0  0  0  0  0  0  0  0
   11.7573    8.0581   -4.5579 C   0  0  0  0  0  0  0  0  0  0  0  0
   12.1413    9.1943   -3.8772 C   0  0  0  0  0  0  0  0  0  0  0  0
   12.4701    9.1321   -2.5410 C   0  0  0  0  0  0  0  0  0  0  0  0
   12.4355    7.9554   -1.8208 C   0  0  0  0  0  0  0  0  0  0  0  0
   12.0517    6.8120   -2.4958 C   0  0  0  0  0  0  0  0  0  0  0  0
   11.7232    6.8796   -3.8345 C   0  0  0  0  0  0  0  0  0  0  0  0
 13 14  1  0
 14 15  1  0
 15 16  2  0
 16 17  1  0
 17 18  2  0
 18 19  1  0
 19 20  2  0
 20 21  1  0
 21 22  2  0
 20 23  1  0
 23 24  1  0
 24 25  2  0
 25 26  1  0
 26  1  1  0
  1  2  2  0
  2  3  1  0
  3  4  2  0
  4  5  1  0
  5  6  2  0
  6  7  1  0
  7 30  1  0
 30 31  2  0
 31 32  1  0
 32 33  2  0
 33 34  1  0
 34 35  2  0
  7  8  2  0
  8  9  1  0
  9 10  2  0
 10 11  1  0
 11 12  1  0
 26 27  2  0
 27 28  1  0
 28 29  2  0
 22 15  1  0
 29 24  1  0
 22 17  1  0
 11  2  1  0
 29 19  1  0
 10  5  1  0
 35 30  1  0
M  END
>  <minimizedAffinity>  (679) 
-16.76185

$$$$
Mol: 74_8 - SminaDock
     RDKit          3D

 40 47  0  0  0  0  0  0  0  0999 V2000
    8.9732    7.5321  -12.0211 C   0  0  0  0  0  0  0  0  0  0  0  0
    8.1387    8.6054  -12.2473 C   0  0  0  0  0  0  0  0  0  0  0  0
    6.8199    8.3999  -12.6679 C   0  0  0  0  0  0  0  0  0  0  0  0
    6.3436    7.0961  -12.8599 C   0  0  0  0  0  0  0  0  0  0  0  0
    7.1563    6.0141  -12.6402 C   0  0  0  0  0  0  0  0  0  0  0  0
    8.4443    6.2753  -12.2278 C   0  0  0  0  0  0  0  0  0  0  0  0
    6.6762    4.6541  -12.8446 C   0  0  0  0  0  0  0  0  0  0  0  0
    5.4142    4.2419  -12.5017 C   0  0  0  0  0  0  0  0  0  0  0  0
    4.9890    2.9248  -12.7086 C   0  0  0  0  0  0  0  0  0  0  0  0
    5.8190    1.9779  -13.2674 C   0  0  0  0  0  0  0  0  0  0  0  0
    7.0904    2.3915  -13.6134 C   0  0  0  0  0  0  0  0  0  0  0  0
    7.5081    3.6859  -13.4105 C   0  0  0  0  0  0  0  0  0  0  0  0
    7.9933    1.3753  -14.2167 C   0  0  1  0  0  0  0  0  0  0  0  0
    8.3507    1.6363  -15.6562 C   0  0  0  0  0  0  0  0  0  0  0  0
    8.6451    1.8671  -16.9704 C   0  0  0  0  0  0  0  0  0  0  0  0
    9.9131    2.2175  -17.3567 C   0  0  0  0  0  0  0  0  0  0  0  0
   10.8837    2.3321  -16.3885 C   0  0  0  0  0  0  0  0  0  0  0  0
   10.5778    2.0971  -15.0609 C   0  0  0  0  0  0  0  0  0  0  0  0
    9.3273    1.7473  -14.6477 C   0  0  0  0  0  0  0  0  0  0  0  0
    7.6116   -0.0338  -13.9201 C   0  0  0  0  0  0  0  0  0  0  0  0
    6.5314   -0.1980  -13.0839 O   0  0  0  0  0  0  0  0  0  0  0  0
    5.4132    0.5554  -13.5050 C   0  0  0  0  0  0  0  0  0  0  0  0
   11.1475    7.8353   -5.5180 C   0  0  0  0  0  0  0  0  0  0  0  0
    9.8074    7.6636   -5.7529 C   0  0  0  0  0  0  0  0  0  0  0  0
    9.3976    7.6172   -7.0865 C   0  0  0  0  0  0  0  0  0  0  0  0
   10.2920    7.7384   -8.1268 C   0  0  0  0  0  0  0  0  0  0  0  0
   11.6453    7.9126   -7.8683 C   0  0  0  0  0  0  0  0  0  0  0  0
   12.0503    7.9581   -6.5612 C   0  0  0  0  0  0  0  0  0  0  0  0
   12.5556    8.0269   -8.9105 C   0  0  0  0  0  0  0  0  0  0  0  0
   12.0851    7.9633  -10.1965 C   0  0  0  0  0  0  0  0  0  0  0  0
   10.7418    7.7907  -10.4054 C   0  0  0  0  0  0  0  0  0  0  0  0
   10.3203    7.7091  -11.6023 N   0  0  0  0  0  0  0  0  0  0  0  0
    9.8610    7.6806   -9.4006 N   0  0  0  0  0  0  0  0  0  0  0  0
    8.8340    7.5481   -9.5562 H   0  0  0  0  0  0  0  0  0  0  0  0
   12.3977    9.1874   -2.3172 C   0  0  0  0  0  0  0  0  0  0  0  0
   11.9070    9.0832   -3.5516 N   0  0  0  0  0  0  0  0  0  0  0  0
   11.6840    7.8846   -4.1576 C   0  0  0  0  0  0  0  0  0  0  0  0
   11.9802    6.7569   -3.4596 C   0  0  0  0  0  0  0  0  0  0  0  0
   12.5013    6.8276   -2.1511 C   0  0  0  0  0  0  0  0  0  0  0  0
   12.7081    8.0638   -1.5833 C   0  0  0  0  0  0  0  0  0  0  0  0
 35 36  2  0
 36 37  1  0
 37 23  1  0
 23 24  2  0
 24 25  1  0
 25 26  2  0
 26 27  1  0
 27 28  2  0
 27 29  1  0
 29 30  2  0
 30 31  1  0
 31 32  2  0
 32  1  1  0
  1  2  2  0
  2  3  1  0
  3  4  2  0
  4  5  1  0
  5  7  1  0
  7  8  2  0
  8  9  1  0
  9 10  2  0
 10 11  1  0
 11 12  2  0
 11 13  1  0
 13 14  1  0
 14 15  2  0
 15 16  1  0
 16 17  2  0
 17 18  1  0
 18 19  2  0
 13 20  1  6
 20 21  1  0
 21 22  1  0
  5  6  2  0
 31 33  1  0
 33 34  1  0
 37 38  2  0
 38 39  1  0
 39 40  2  0
 40 35  1  0
 28 23  1  0
  6  1  1  0
 33 26  1  0
 12  7  1  0
 19 13  1  0
 22 10  1  0
 19 14  1  0
M  END
>  <minimizedAffinity>  (680) 
-16.75446

$$$$
Mol: 200_53 - SminaDock
     RDKit          3D

 40 46  0  0  0  0  0  0  0  0999 V2000
    7.5392   -1.2629  -18.6311 H   0  0  0  0  0  0  0  0  0  0  0  0
    7.9317   -1.2779  -17.7061 O   0  0  0  0  0  0  0  0  0  0  0  0
    7.9022   -0.2264  -16.8277 N   0  0  0  0  0  0  0  0  0  0  0  0
    6.8668   -0.1080  -16.0634 C   0  0  0  0  0  0  0  0  0  0  0  0
    5.7473   -0.9289  -16.0128 C   0  0  0  0  0  0  0  0  0  0  0  0
    5.5967   -1.9395  -16.7416 O   0  0  0  0  0  0  0  0  0  0  0  0
    4.8700   -0.4581  -15.0627 C   0  0  0  0  0  0  0  0  0  0  0  0
    3.7442   -0.9524  -14.7411 O   0  0  0  0  0  0  0  0  0  0  0  0
    5.4272    0.6882  -14.4850 C   0  0  0  0  0  0  0  0  0  0  0  0
    5.0005    1.5521  -13.5027 C   0  0  0  0  0  0  0  0  0  0  0  0
    5.8397    2.6243  -13.1668 C   0  0  0  0  0  0  0  0  0  0  0  0
    7.0518    2.8017  -13.8064 C   0  0  0  0  0  0  0  0  0  0  0  0
    7.4654    1.9424  -14.7750 C   0  0  0  0  0  0  0  0  0  0  0  0
    6.6377    0.8719  -15.1151 C   0  0  0  0  0  0  0  0  0  0  0  0
    7.9048    3.9666  -13.4868 C   0  0  0  0  0  0  0  0  0  0  0  0
    9.1539    4.1081  -14.0769 C   0  0  0  0  0  0  0  0  0  0  0  0
    9.9449    5.1842  -13.6947 C   0  0  0  0  0  0  0  0  0  0  0  0
    9.5164    6.0983  -12.7545 C   0  0  0  0  0  0  0  0  0  0  0  0
    8.2841    5.9566  -12.1755 C   0  0  0  0  0  0  0  0  0  0  0  0
    7.4656    4.8668  -12.5545 C   0  0  0  0  0  0  0  0  0  0  0  0
    6.1234    4.7708  -11.9648 C   0  0  0  0  0  0  0  0  0  0  0  0
    5.3870    3.4995  -12.0806 C   0  0  0  0  0  0  0  0  0  0  0  0
   10.3302    7.2045  -12.3564 N   0  0  0  0  0  0  0  0  0  0  0  0
   10.6765    7.9112  -13.0522 H   0  0  0  0  0  0  0  0  0  0  0  0
   10.6923    7.3757  -10.9982 C   0  0  0  0  0  0  0  0  0  0  0  0
   11.8732    7.9685  -10.7475 N   0  0  0  0  0  0  0  0  0  0  0  0
   12.2952    8.1742   -9.5013 C   0  0  0  0  0  0  0  0  0  0  0  0
   11.5155    7.7766   -8.4290 C   0  0  0  0  0  0  0  0  0  0  0  0
   11.9261    7.9775   -7.1271 C   0  0  0  0  0  0  0  0  0  0  0  0
   11.1480    7.5823   -6.0590 C   0  0  0  0  0  0  0  0  0  0  0  0
    9.9417    6.9775   -6.3577 C   0  0  0  0  0  0  0  0  0  0  0  0
    9.5151    6.7682   -7.6464 C   0  0  0  0  0  0  0  0  0  0  0  0
   10.3100    7.1718   -8.7238 C   0  0  0  0  0  0  0  0  0  0  0  0
    9.8980    6.9710   -9.9920 N   0  0  0  0  0  0  0  0  0  0  0  0
   11.5912    7.7966   -4.6761 C   0  0  0  0  0  0  0  0  0  0  0  0
   11.6790    6.7097   -3.8261 C   0  0  0  0  0  0  0  0  0  0  0  0
   12.0905    6.8579   -2.5196 C   0  0  0  0  0  0  0  0  0  0  0  0
   12.4148    8.1169   -2.0727 C   0  0  0  0  0  0  0  0  0  0  0  0
   12.3308    9.2063   -2.9117 C   0  0  0  0  0  0  0  0  0  0  0  0
   11.9179    9.0347   -4.2110 C   0  0  0  0  0  0  0  0  0  0  0  0
  1  2  1  0
  2  3  1  0
  3  4  2  0
  4  5  1  0
  5  6  2  0
  5  7  1  0
  7  8  2  0
  7  9  1  0
  9 10  2  0
 10 11  1  0
 11 12  2  0
 12 13  1  0
 13 14  2  0
 12 15  1  0
 15 16  2  0
 16 17  1  0
 17 18  2  0
 18 23  1  0
 23 24  1  0
 23 25  1  0
 25 26  2  0
 26 27  1  0
 27 28  2  0
 28 29  1  0
 29 30  2  0
 30 35  1  0
 35 36  2  0
 36 37  1  0
 37 38  2  0
 38 39  1  0
 39 40  2  0
 30 31  1  0
 31 32  2  0
 32 33  1  0
 33 34  2  0
 18 19  1  0
 19 20  2  0
 20 21  1  0
 21 22  1  0
 14  4  1  0
 20 15  1  0
 14  9  1  0
 34 25  1  0
 22 11  1  0
 33 28  1  0
 40 35  1  0
M  END
>  <minimizedAffinity>  (681) 
-16.82207

$$$$
Mol: 200_22 - SminaDock
     RDKit          3D

 40 46  0  0  0  0  0  0  0  0999 V2000
    4.0236   -2.9836  -16.5252 H   0  0  0  0  0  0  0  0  0  0  0  0
    4.9948   -2.6299  -16.5491 N   0  0  0  0  0  0  0  0  0  0  0  0
    5.3328   -1.5340  -15.9617 C   0  0  0  0  0  0  0  0  0  0  0  0
    4.3630   -0.8190  -15.2840 C   0  0  0  0  0  0  0  0  0  0  0  0
    4.6859    0.3580  -14.6432 C   0  0  0  0  0  0  0  0  0  0  0  0
    6.0041    0.7745  -14.7144 C   0  0  0  0  0  0  0  0  0  0  0  0
    6.3823    1.9518  -14.0872 C   0  0  0  0  0  0  0  0  0  0  0  0
    7.6802    2.3737  -14.1500 C   0  0  0  0  0  0  0  0  0  0  0  0
    8.6398    1.6375  -14.8382 C   0  0  0  0  0  0  0  0  0  0  0  0
    8.2421    0.4507  -15.4665 C   0  0  0  0  0  0  0  0  0  0  0  0
    6.9396    0.0310  -15.4011 C   0  0  0  0  0  0  0  0  0  0  0  0
    6.5933   -1.1126  -16.0156 N   0  0  0  0  0  0  0  0  0  0  0  0
    7.3129   -1.6601  -16.5289 H   0  0  0  0  0  0  0  0  0  0  0  0
   10.0554    2.0014  -14.9653 C   0  0  0  0  0  0  0  0  0  0  0  0
   10.3918    3.2548  -14.2825 C   0  0  0  0  0  0  0  0  0  0  0  0
   11.5919    3.7038  -14.3060 O   0  0  0  0  0  0  0  0  0  0  0  0
    9.3992    4.0160  -13.5707 C   0  0  0  0  0  0  0  0  0  0  0  0
    9.7867    5.2081  -12.9370 C   0  0  0  0  0  0  0  0  0  0  0  0
    8.8795    5.9731  -12.2439 C   0  0  0  0  0  0  0  0  0  0  0  0
    7.5795    5.5444  -12.1842 C   0  0  0  0  0  0  0  0  0  0  0  0
    7.1505    4.3722  -12.7954 C   0  0  0  0  0  0  0  0  0  0  0  0
    8.0688    3.6216  -13.4825 C   0  0  0  0  0  0  0  0  0  0  0  0
    9.3230    7.1648  -11.6241 N   0  0  0  0  0  0  0  0  0  0  0  0
    9.6899    7.1383  -10.3802 C   0  0  0  0  0  0  0  0  0  0  0  0
    9.6494    5.9879   -9.6850 N   0  0  0  0  0  0  0  0  0  0  0  0
   10.0219    5.9211   -8.3937 C   0  0  0  0  0  0  0  0  0  0  0  0
   10.4663    7.0408   -7.7189 C   0  0  0  0  0  0  0  0  0  0  0  0
   10.8582    7.0198   -6.3951 C   0  0  0  0  0  0  0  0  0  0  0  0
   11.3000    8.1472   -5.7344 C   0  0  0  0  0  0  0  0  0  0  0  0
   11.3349    9.3221   -6.4661 C   0  0  0  0  0  0  0  0  0  0  0  0
   10.9449    9.3484   -7.7874 C   0  0  0  0  0  0  0  0  0  0  0  0
   10.5042    8.2175   -8.4418 C   0  0  0  0  0  0  0  0  0  0  0  0
   10.1204    8.2383   -9.7375 N   0  0  0  0  0  0  0  0  0  0  0  0
   10.1547    9.1470  -10.2793 H   0  0  0  0  0  0  0  0  0  0  0  0
   11.7144    8.1272   -4.3347 C   0  0  0  0  0  0  0  0  0  0  0  0
   11.7571    6.9210   -3.6662 C   0  0  0  0  0  0  0  0  0  0  0  0
   12.1398    6.8274   -2.3414 C   0  0  0  0  0  0  0  0  0  0  0  0
   12.4941    7.9979   -1.6628 C   0  0  0  0  0  0  0  0  0  0  0  0
   12.4609    9.2176   -2.3057 C   0  0  0  0  0  0  0  0  0  0  0  0
   12.0714    9.2555   -3.6292 C   0  0  0  0  0  0  0  0  0  0  0  0
  1  2  1  0
  2  3  2  0
  3  4  1  0
  4  5  2  0
  5  6  1  0
  6  7  2  0
  7  8  1  0
  8  9  2  0
  9 10  1  0
 10 11  2  0
 11 12  1  0
 12 13  1  0
  9 14  1  0
 14 15  1  0
 15 16  2  0
 15 17  1  0
 17 18  2  0
 18 19  1  0
 19 23  1  0
 23 24  2  0
 24 25  1  0
 25 26  2  0
 26 27  1  0
 27 28  2  0
 28 29  1  0
 29 35  1  0
 35 36  2  0
 36 37  1  0
 37 38  2  0
 38 39  1  0
 39 40  2  0
 29 30  2  0
 30 31  1  0
 31 32  2  0
 32 33  1  0
 33 34  1  0
 19 20  2  0
 20 21  1  0
 21 22  2  0
 12  3  1  0
 22 17  1  0
 11  6  1  0
 33 24  1  0
 22  8  1  0
 32 27  1  0
 40 35  1  0
M  END
>  <minimizedAffinity>  (682) 
-16.77814

$$$$
Mol: 143_56 - SminaDock
     RDKit          3D

 37 43  0  0  0  0  0  0  0  0999 V2000
    8.7537    5.9730  -12.4999 C   0  0  0  0  0  0  0  0  0  0  0  0
    9.4055    5.1419  -13.3554 C   0  0  0  0  0  0  0  0  0  0  0  0
    8.7972    4.0299  -13.9642 C   0  0  0  0  0  0  0  0  0  0  0  0
    7.4771    3.7735  -13.6879 C   0  0  0  0  0  0  0  0  0  0  0  0
    6.7958    4.6194  -12.8065 C   0  0  0  0  0  0  0  0  0  0  0  0
    7.4373    5.6790  -12.2430 C   0  0  0  0  0  0  0  0  0  0  0  0
    5.3409    4.3845  -12.5108 C   0  0  0  0  0  0  0  0  0  0  0  0
    5.0374    2.9468  -12.3658 C   0  0  0  0  0  0  0  0  0  0  0  0
    5.7233    2.0998  -13.3821 C   0  0  0  0  0  0  0  0  0  0  0  0
    5.1477    0.9009  -13.6645 C   0  0  0  0  0  0  0  0  0  0  0  0
    5.7042    0.0488  -14.5672 C   0  0  0  0  0  0  0  0  0  0  0  0
    6.8658    0.4330  -15.2020 C   0  0  0  0  0  0  0  0  0  0  0  0
    7.3791   -0.3514  -16.2205 C   0  0  0  0  0  0  0  0  0  0  0  0
    8.4512    0.0728  -16.9575 C   0  0  0  0  0  0  0  0  0  0  0  0
    8.8930   -0.6757  -17.8773 O   0  0  0  0  0  0  0  0  0  0  0  0
    9.0099    1.2495  -16.7036 N   0  0  0  0  0  0  0  0  0  0  0  0
    8.5494    2.0508  -15.7179 C   0  0  0  0  0  0  0  0  0  0  0  0
    7.4965    1.6635  -14.9493 C   0  0  0  0  0  0  0  0  0  0  0  0
    6.9064    2.4786  -14.0189 C   0  0  0  0  0  0  0  0  0  0  0  0
   11.3131    7.9385   -6.0142 C   0  0  0  0  0  0  0  0  0  0  0  0
   11.5945    9.0439   -6.8072 C   0  0  0  0  0  0  0  0  0  0  0  0
   11.2638    9.0873   -8.1454 C   0  0  0  0  0  0  0  0  0  0  0  0
   10.6339    8.0239   -8.7554 C   0  0  0  0  0  0  0  0  0  0  0  0
   10.3446    6.9134   -7.9833 C   0  0  0  0  0  0  0  0  0  0  0  0
    9.7114    5.8535   -8.6146 C   0  0  0  0  0  0  0  0  0  0  0  0
    9.4068    5.9450   -9.9368 N   0  0  0  0  0  0  0  0  0  0  0  0
    9.7038    7.0380  -10.6513 C   0  0  0  0  0  0  0  0  0  0  0  0
    9.4073    7.1002  -11.8983 N   0  0  0  0  0  0  0  0  0  0  0  0
   10.3172    8.0834  -10.0709 N   0  0  0  0  0  0  0  0  0  0  0  0
   10.5355    8.9279  -10.6646 H   0  0  0  0  0  0  0  0  0  0  0  0
   10.6828    6.8867   -6.6458 C   0  0  0  0  0  0  0  0  0  0  0  0
   12.3927    8.0208   -1.8888 C   0  0  0  0  0  0  0  0  0  0  0  0
   12.0458    6.8235   -2.4822 C   0  0  0  0  0  0  0  0  0  0  0  0
   11.6983    6.8002   -3.8152 C   0  0  0  0  0  0  0  0  0  0  0  0
   11.6778    7.9279   -4.6033 C   0  0  0  0  0  0  0  0  0  0  0  0
   12.0274    9.1136   -3.9922 C   0  0  0  0  0  0  0  0  0  0  0  0
   12.3821    9.1706   -2.6525 C   0  0  0  0  0  0  0  0  0  0  0  0
 32 33  2  0
 33 34  1  0
 34 35  2  0
 35 20  1  0
 20 21  2  0
 21 22  1  0
 22 23  2  0
 23 24  1  0
 24 25  1  0
 25 26  2  0
 26 27  1  0
 27 28  2  0
 28  1  1  0
  1  2  2  0
  2  3  1  0
  3  4  2  0
  4  5  1  0
  5  6  2  0
  5  7  1  0
  7  8  1  0
  8  9  1  0
  9 10  1  0
 10 11  2  0
 11 12  1  0
 12 13  2  0
 13 14  1  0
 14 15  2  0
 14 16  1  0
 16 17  1  0
 17 18  2  0
 18 19  1  0
 27 29  1  0
 29 30  1  0
 24 31  2  0
 35 36  1  0
 36 37  2  0
 37 32  1  0
 31 20  1  0
 29 23  1  0
  6  1  1  0
 19  9  2  0
 19  4  1  0
 18 12  1  0
M  CHG  1  16  -1
M  END
>  <minimizedAffinity>  (683) 
-16.78722

$$$$
Mol: 158_3 - SminaDock
     RDKit          3D

 37 43  0  0  0  0  0  0  0  0999 V2000
    8.7816    5.8213  -12.2902 C   0  0  0  0  0  0  0  0  0  0  0  0
    9.4962    5.0611  -13.1840 C   0  0  0  0  0  0  0  0  0  0  0  0
    9.0000    3.9009  -13.7659 C   0  0  0  0  0  0  0  0  0  0  0  0
    7.7290    3.5361  -13.3994 C   0  0  0  0  0  0  0  0  0  0  0  0
    6.9821    4.2741  -12.5056 C   0  0  0  0  0  0  0  0  0  0  0  0
    7.4974    5.4214  -11.9421 C   0  0  0  0  0  0  0  0  0  0  0  0
    5.6719    3.8762  -12.1413 N   0  0  0  0  0  0  0  0  0  0  0  0
    5.1407    4.4889  -11.4315 H   0  0  0  0  0  0  0  0  0  0  0  0
    5.0040    2.7230  -12.6455 C   0  0  0  0  0  0  0  0  0  0  0  0
    5.8246    1.9507  -13.5967 C   0  0  0  0  0  0  0  0  0  0  0  0
    7.1047    2.3335  -13.9517 C   0  0  0  0  0  0  0  0  0  0  0  0
    7.8165    1.5686  -14.8467 C   0  0  0  0  0  0  0  0  0  0  0  0
    7.2280    0.4191  -15.3779 C   0  0  0  0  0  0  0  0  0  0  0  0
    5.9501    0.0484  -15.0154 C   0  0  0  0  0  0  0  0  0  0  0  0
    5.2198    0.7906  -14.1276 C   0  0  0  0  0  0  0  0  0  0  0  0
    3.8722    0.2035  -13.8851 C   0  0  0  0  0  0  0  0  0  0  0  0
    3.7885   -0.9472  -14.8632 C   0  0  0  0  0  0  0  0  0  0  0  0
    5.1340   -1.0981  -15.4344 C   0  0  0  0  0  0  0  0  0  0  0  0
    5.5408   -2.0241  -16.1515 O   0  0  0  0  0  0  0  0  0  0  0  0
   11.3216    8.1110   -5.9088 C   0  0  0  0  0  0  0  0  0  0  0  0
   11.4880    9.2343   -6.6909 C   0  0  0  0  0  0  0  0  0  0  0  0
   11.1200    9.2365   -8.0259 C   0  0  0  0  0  0  0  0  0  0  0  0
   10.5733    8.1161   -8.6244 C   0  0  0  0  0  0  0  0  0  0  0  0
   10.2157    8.1168   -9.9220 N   0  0  0  0  0  0  0  0  0  0  0  0
    9.6775    7.0034  -10.5003 C   0  0  0  0  0  0  0  0  0  0  0  0
    9.3320    6.9866  -11.7327 N   0  0  0  0  0  0  0  0  0  0  0  0
    9.5127    5.9069   -9.7456 N   0  0  0  0  0  0  0  0  0  0  0  0
    9.1103    5.0409  -10.1365 H   0  0  0  0  0  0  0  0  0  0  0  0
    9.8612    5.8727   -8.4396 C   0  0  0  0  0  0  0  0  0  0  0  0
   10.4058    6.9947   -7.8488 C   0  0  0  0  0  0  0  0  0  0  0  0
   10.7718    6.9912   -6.5192 C   0  0  0  0  0  0  0  0  0  0  0  0
   12.4128    8.0191   -1.7875 C   0  0  0  0  0  0  0  0  0  0  0  0
   12.0750    6.8450   -2.4376 C   0  0  0  0  0  0  0  0  0  0  0  0
   11.7237    6.8846   -3.7701 C   0  0  0  0  0  0  0  0  0  0  0  0
   11.6902    8.0472   -4.4998 C   0  0  0  0  0  0  0  0  0  0  0  0
   12.0334    9.2126   -3.8247 C   0  0  0  0  0  0  0  0  0  0  0  0
   12.3891    9.2028   -2.4913 C   0  0  0  0  0  0  0  0  0  0  0  0
 32 33  2  0
 33 34  1  0
 34 35  2  0
 35 20  1  0
 20 21  1  0
 21 22  2  0
 22 23  1  0
 23 24  2  0
 24 25  1  0
 25 26  2  0
 26  1  1  0
  1  2  2  0
  2  3  1  0
  3  4  2  0
  4  5  1  0
  5  6  2  0
  5  7  1  0
  7  8  1  0
  7  9  1  0
  9 10  1  0
 10 11  2  0
 11 12  1  0
 12 13  2  0
 13 14  1  0
 14 15  2  0
 15 16  1  0
 16 17  1  0
 17 18  1  0
 18 19  2  0
 25 27  1  0
 27 28  1  0
 27 29  1  0
 29 30  2  0
 30 31  1  0
 35 36  1  0
 36 37  2  0
 37 32  1  0
 31 20  2  0
 30 23  1  0
  6  1  1  0
 15 10  1  0
 11  4  1  0
 18 14  1  0
M  END
>  <minimizedAffinity>  (684) 
-16.65232

$$$$
Mol: 82_18 - SminaDock
     RDKit          3D

 39 45  0  0  0  0  0  0  0  0999 V2000
    9.0459    5.6635  -13.5930 N   0  0  0  0  0  0  0  0  0  0  0  0
    9.4405    6.1527  -12.4574 C   0  0  0  0  0  0  0  0  0  0  0  0
   10.2544    7.2728  -12.4660 C   0  0  0  0  0  0  0  0  0  0  0  0
   10.6704    7.7872  -11.2532 C   0  0  0  0  0  0  0  0  0  0  0  0
   10.2908    7.2079  -10.0614 C   0  0  0  0  0  0  0  0  0  0  0  0
   10.6861    7.6929   -8.8347 C   0  0  0  0  0  0  0  0  0  0  0  0
   10.3000    7.1045   -7.6469 C   0  0  0  0  0  0  0  0  0  0  0  0
    9.4921    5.9934   -7.6617 C   0  0  0  0  0  0  0  0  0  0  0  0
    9.0963    5.5080   -8.8885 C   0  0  0  0  0  0  0  0  0  0  0  0
    9.4773    6.0896  -10.0799 C   0  0  0  0  0  0  0  0  0  0  0  0
    9.0917    5.6162  -11.2754 N   0  0  0  0  0  0  0  0  0  0  0  0
    8.4764    4.7729  -11.2970 H   0  0  0  0  0  0  0  0  0  0  0  0
   10.3767   -1.5592  -18.5298 H   0  0  0  0  0  0  0  0  0  0  0  0
   10.2098   -1.5292  -17.5238 O   0  0  0  0  0  0  0  0  0  0  0  0
    9.7767   -0.3277  -17.0164 C   0  0  0  0  0  0  0  0  0  0  0  0
    9.1778    0.6016  -17.6677 N   0  0  0  0  0  0  0  0  0  0  0  0
    8.8000    1.8104  -16.9307 C   0  0  0  0  0  0  0  0  0  0  0  0
    7.9785    1.3710  -15.7512 C   0  0  1  0  0  0  0  0  0  0  0  0
    7.7207    2.4397  -14.7597 C   0  0  0  0  0  0  0  0  0  0  0  0
    8.5130    3.5596  -14.6461 C   0  0  0  0  0  0  0  0  0  0  0  0
    8.2101    4.5181  -13.6891 C   0  0  0  0  0  0  0  0  0  0  0  0
    7.1107    4.3187  -12.8694 C   0  0  0  0  0  0  0  0  0  0  0  0
    6.3254    3.1914  -12.9946 C   0  0  0  0  0  0  0  0  0  0  0  0
    6.6289    2.2535  -13.9372 C   0  0  0  0  0  0  0  0  0  0  0  0
    5.7504    1.0569  -14.0302 C   0  0  0  0  0  0  0  0  0  0  0  0
    6.0077    0.2781  -15.1216 O   0  0  0  0  0  0  0  0  0  0  0  0
    6.5869    0.9080  -16.1921 C   0  0  0  0  0  0  0  0  0  0  0  0
    8.6103    0.2257  -14.9991 C   0  0  0  0  0  0  0  0  0  0  0  0
   10.0099   -0.0377  -15.5564 C   0  0  0  0  0  0  0  0  0  0  0  0
   10.7672    7.6877   -6.3891 C   0  0  0  0  0  0  0  0  0  0  0  0
   10.7530    9.0622   -6.2739 C   0  0  0  0  0  0  0  0  0  0  0  0
   11.1930    9.6436   -5.0859 C   0  0  0  0  0  0  0  0  0  0  0  0
   11.6368    8.8549   -4.0395 C   0  0  0  0  0  0  0  0  0  0  0  0
   12.0750    9.4182   -2.8587 C   0  0  0  0  0  0  0  0  0  0  0  0
   12.5069    8.6212   -1.8433 C   0  0  0  0  0  0  0  0  0  0  0  0
   12.5325    7.2510   -1.9288 C   0  0  0  0  0  0  0  0  0  0  0  0
   12.0991    6.6761   -3.0988 C   0  0  0  0  0  0  0  0  0  0  0  0
   11.6572    7.4761   -4.1393 C   0  0  0  0  0  0  0  0  0  0  0  0
   11.2125    6.9113   -5.3370 C   0  0  0  0  0  0  0  0  0  0  0  0
 13 14  1  0
 14 15  1  0
 15 16  2  0
 16 17  1  0
 18 17  1  6
 18 19  1  0
 19 20  2  0
 20 21  1  0
 21  1  1  0
  1  2  2  0
  2  3  1  0
  3  4  2  0
  4  5  1  0
  5  6  2  0
  6  7  1  0
  7 30  1  0
 30 31  2  0
 31 32  1  0
 32 33  2  0
 33 34  1  0
 34 35  2  0
 35 36  1  0
 36 37  2  0
 37 38  1  0
 38 39  2  0
  7  8  2  0
  8  9  1  0
  9 10  2  0
 10 11  1  0
 11 12  1  0
 21 22  2  0
 22 23  1  0
 23 24  2  0
 24 25  1  0
 25 26  1  0
 26 27  1  0
 18 28  1  0
 28 29  1  0
 29 15  1  0
 27 18  1  0
 24 19  1  0
 11  2  1  0
 10  5  1  0
 39 30  1  0
 38 33  1  0
M  END
>  <minimizedAffinity>  (685) 
-16.70099

$$$$
Mol: 198_45 - SminaDock
     RDKit          3D

 38 44  0  0  0  0  0  0  0  0999 V2000
    8.1781    5.1220  -12.6464 C   0  0  0  0  0  0  0  0  0  0  0  0
    6.8660    4.7728  -12.3944 C   0  0  0  0  0  0  0  0  0  0  0  0
    6.2649    3.6933  -13.0471 C   0  0  0  0  0  0  0  0  0  0  0  0
    7.0273    3.0021  -13.9374 C   0  0  0  0  0  0  0  0  0  0  0  0
    8.3566    3.3273  -14.2208 C   0  0  0  0  0  0  0  0  0  0  0  0
    9.1665    2.7145  -15.1385 N   0  0  0  0  0  0  0  0  0  0  0  0
    8.6980    2.3190  -16.3697 C   0  0  0  0  0  0  0  0  0  0  0  0
    9.4636    2.4423  -17.3477 O   0  0  0  0  0  0  0  0  0  0  0  0
    7.4532    1.7820  -16.7002 C   0  0  0  0  0  0  0  0  0  0  0  0
    7.1298    1.5951  -17.8788 O   0  0  0  0  0  0  0  0  0  0  0  0
    6.4896    1.4143  -15.7856 C   0  0  0  0  0  0  0  0  0  0  0  0
    5.6840    0.3894  -16.2090 C   0  0  0  0  0  0  0  0  0  0  0  0
    4.7285   -0.1070  -15.3619 C   0  0  0  0  0  0  0  0  0  0  0  0
    3.7667   -1.1198  -15.4715 C   0  0  0  0  0  0  0  0  0  0  0  0
    3.1331   -1.1277  -14.3036 N   0  0  0  0  0  0  0  0  0  0  0  0
    3.6269   -0.2075  -13.4953 O   0  0  0  0  0  0  0  0  0  0  0  0
    4.5913    0.4267  -14.1028 C   0  0  0  0  0  0  0  0  0  0  0  0
    5.3838    1.4610  -13.6380 C   0  0  0  0  0  0  0  0  0  0  0  0
    6.3314    1.9487  -14.4968 C   0  0  0  0  0  0  0  0  0  0  0  0
    8.9212    4.3816  -13.5741 C   0  0  0  0  0  0  0  0  0  0  0  0
   11.1253    7.7214   -6.4924 C   0  0  0  0  0  0  0  0  0  0  0  0
   11.3435    8.7442   -7.3993 C   0  0  0  0  0  0  0  0  0  0  0  0
   10.9267    8.6475   -8.7103 C   0  0  0  0  0  0  0  0  0  0  0  0
   10.2800    7.4927   -9.0973 C   0  0  0  0  0  0  0  0  0  0  0  0
   10.0454    6.4613   -8.2336 C   0  0  0  0  0  0  0  0  0  0  0  0
    9.3976    5.3197   -8.6498 C   0  0  0  0  0  0  0  0  0  0  0  0
    8.9935    5.2408   -9.9481 N   0  0  0  0  0  0  0  0  0  0  0  0
    9.2192    6.2498  -10.8066 C   0  0  0  0  0  0  0  0  0  0  0  0
    8.8548    6.2032  -12.0230 N   0  0  0  0  0  0  0  0  0  0  0  0
    9.8545    7.3496  -10.3665 N   0  0  0  0  0  0  0  0  0  0  0  0
   10.0350    8.1383  -11.0233 H   0  0  0  0  0  0  0  0  0  0  0  0
   10.4791    6.5864   -6.9097 C   0  0  0  0  0  0  0  0  0  0  0  0
   12.4900    8.1738   -2.4616 C   0  0  0  0  0  0  0  0  0  0  0  0
   11.8366    7.0290   -2.8835 C   0  0  0  0  0  0  0  0  0  0  0  0
   11.4034    6.8980   -4.1819 C   0  0  0  0  0  0  0  0  0  0  0  0
   11.5990    7.8908   -5.1100 C   0  0  0  0  0  0  0  0  0  0  0  0
   12.2507    9.0262   -4.6784 C   0  0  0  0  0  0  0  0  0  0  0  0
   12.6969    9.1801   -3.3715 C   0  0  0  0  0  0  0  0  0  0  0  0
 33 34  2  0
 34 35  1  0
 35 36  2  0
 36 21  1  0
 21 22  2  0
 22 23  1  0
 23 24  2  0
 24 25  1  0
 25 26  1  0
 26 27  2  0
 27 28  1  0
 28 29  2  0
 29  1  1  0
  1  2  2  0
  2  3  1  0
  3  4  2  0
  4  5  1  0
  5  6  1  0
  6  7  1  0
  7  8  2  0
  7  9  1  0
  9 10  2  0
  9 11  1  0
 11 12  2  0
 12 13  1  0
 13 14  1  0
 14 15  2  0
 15 16  1  0
 16 17  1  0
 17 18  1  0
 18 19  2  0
  5 20  2  0
 28 30  1  0
 30 31  1  0
 25 32  2  0
 36 37  1  0
 37 38  2  0
 38 33  1  0
 32 21  1  0
 30 24  1  0
 20  1  1  0
 19  4  1  0
 19 11  1  0
 17 13  2  0
M  CHG  1   6  -1
M  END
>  <minimizedAffinity>  (686) 
-16.72974

$$$$
Mol: 138_2 - SminaDock
     RDKit          3D

 37 43  0  0  0  0  0  0  0  0999 V2000
    9.2784    6.4268  -12.4866 C   0  0  0  0  0  0  0  0  0  0  0  0
    7.9028    6.2550  -12.4191 C   0  0  0  0  0  0  0  0  0  0  0  0
    7.1688    5.1495  -12.8562 C   0  0  0  0  0  0  0  0  0  0  0  0
    7.6686    4.0967  -13.6166 C   0  0  0  0  0  0  0  0  0  0  0  0
    8.8192    4.0541  -14.3889 C   0  0  0  0  0  0  0  0  0  0  0  0
   10.0186    4.6901  -14.0746 C   0  0  0  0  0  0  0  0  0  0  0  0
   10.9984    4.2822  -14.7265 O   0  0  0  0  0  0  0  0  0  0  0  0
   10.2627    5.6905  -13.1582 C   0  0  0  0  0  0  0  0  0  0  0  0
    6.9450    2.8396  -13.6939 C   0  0  0  0  0  0  0  0  0  0  0  0
    7.4368    1.7915  -14.4305 C   0  0  0  0  0  0  0  0  0  0  0  0
    6.6948    0.6126  -14.4536 C   0  0  0  0  0  0  0  0  0  0  0  0
    5.5099    0.4949  -13.7643 C   0  0  0  0  0  0  0  0  0  0  0  0
    5.0488    1.5745  -13.0326 C   0  0  0  0  0  0  0  0  0  0  0  0
    5.7572    2.7594  -12.9865 C   0  0  0  0  0  0  0  0  0  0  0  0
    5.1752    3.8347  -12.1808 C   0  0  0  0  0  0  0  0  0  0  0  0
    5.7748    5.1862  -12.4320 C   0  0  0  0  0  0  0  0  0  0  0  0
    4.9647   -0.7675  -13.9448 O   0  0  0  0  0  0  0  0  0  0  0  0
    5.9921   -1.5540  -14.5607 C   0  0  0  0  0  0  0  0  0  0  0  0
    6.9068   -0.5976  -15.0837 O   0  0  0  0  0  0  0  0  0  0  0  0
   11.4379    8.2562   -5.8079 C   0  0  0  0  0  0  0  0  0  0  0  0
   11.6456    9.4533   -6.4563 C   0  0  0  0  0  0  0  0  0  0  0  0
   11.3464    9.5434   -7.8165 C   0  0  0  0  0  0  0  0  0  0  0  0
   10.8492    8.4576   -8.5153 C   0  0  0  0  0  0  0  0  0  0  0  0
   10.5500    8.5030   -9.8178 N   0  0  0  0  0  0  0  0  0  0  0  0
   10.0656    7.4500  -10.5027 C   0  0  0  0  0  0  0  0  0  0  0  0
    9.7852    7.5224  -11.7618 N   0  0  0  0  0  0  0  0  0  0  0  0
    9.8570    6.2759   -9.8881 N   0  0  0  0  0  0  0  0  0  0  0  0
    9.4829    5.4431  -10.3924 H   0  0  0  0  0  0  0  0  0  0  0  0
   10.1480    6.1857   -8.5631 C   0  0  0  0  0  0  0  0  0  0  0  0
   10.6409    7.2556   -7.8635 C   0  0  0  0  0  0  0  0  0  0  0  0
   10.9421    7.1767   -6.5092 C   0  0  0  0  0  0  0  0  0  0  0  0
   12.3138    7.8647   -1.6747 C   0  0  0  0  0  0  0  0  0  0  0  0
   12.0201    6.7320   -2.4243 C   0  0  0  0  0  0  0  0  0  0  0  0
   11.7416    6.8873   -3.7547 C   0  0  0  0  0  0  0  0  0  0  0  0
   11.7400    8.1302   -4.3887 C   0  0  0  0  0  0  0  0  0  0  0  0
   12.0326    9.2497   -3.6378 C   0  0  0  0  0  0  0  0  0  0  0  0
   12.3152    9.0946   -2.2885 C   0  0  0  0  0  0  0  0  0  0  0  0
 32 33  2  0
 33 34  1  0
 34 35  2  0
 35 20  1  0
 20 21  1  0
 21 22  2  0
 22 23  1  0
 23 24  2  0
 24 25  1  0
 25 26  2  0
 26  1  1  0
  1  2  1  0
  2  3  2  0
  3  4  1  0
  4  5  2  0
  5  6  1  0
  6  7  2  0
  6  8  1  0
  4  9  1  0
  9 10  2  0
 10 11  1  0
 11 12  2  0
 12 13  1  0
 13 14  2  0
 14 15  1  0
 15 16  1  0
 12 17  1  0
 17 18  1  0
 18 19  1  0
 25 27  1  0
 27 28  1  0
 27 29  1  0
 29 30  2  0
 30 31  1  0
 35 36  1  0
 36 37  2  0
 37 32  1  0
 31 20  2  0
 30 23  1  0
  8  1  2  0
 14  9  1  0
 16  3  1  0
 19 11  1  0
M  END
>  <minimizedAffinity>  (687) 
-16.73839

$$$$
Mol: 194_22 - SminaDock
     RDKit          3D

 41 48  0  0  0  0  0  0  0  0999 V2000
    9.1306   -0.2236  -18.6601 H   0  0  0  0  0  0  0  0  0  0  0  0
    8.6142    0.3272  -17.9606 O   0  0  0  0  0  0  0  0  0  0  0  0
    7.4008   -0.2075  -17.4971 C   0  0  0  0  0  0  0  0  0  0  0  0
    6.7713   -1.2025  -18.0038 N   0  0  0  0  0  0  0  0  0  0  0  0
    5.5878   -1.4237  -17.2393 C   0  0  1  0  0  0  0  0  0  0  0  0
    5.5693   -0.4160  -16.1746 C   0  0  0  0  0  0  0  0  0  0  0  0
    4.6926   -0.1321  -15.1425 C   0  0  0  0  0  0  0  0  0  0  0  0
    4.9140    0.8975  -14.2573 C   0  0  0  0  0  0  0  0  0  0  0  0
    6.0776    1.6553  -14.4466 C   0  0  0  0  0  0  0  0  0  0  0  0
    6.9569    1.3855  -15.4661 C   0  0  0  0  0  0  0  0  0  0  0  0
    6.7008    0.3444  -16.3341 C   0  0  0  0  0  0  0  0  0  0  0  0
    8.0918    2.3193  -15.4480 C   0  0  0  0  0  0  0  0  0  0  0  0
    7.8151    3.2081  -14.2909 C   0  0  0  0  0  0  0  0  0  0  0  0
    8.5262    4.2959  -13.7571 C   0  0  0  0  0  0  0  0  0  0  0  0
    8.0563    4.9753  -12.6559 C   0  0  0  0  0  0  0  0  0  0  0  0
    6.8667    4.5403  -12.1091 C   0  0  0  0  0  0  0  0  0  0  0  0
    6.1580    3.4753  -12.6212 C   0  0  0  0  0  0  0  0  0  0  0  0
    6.6355    2.7962  -13.7283 C   0  0  0  0  0  0  0  0  0  0  0  0
    4.3894   -1.3065  -18.1648 C   0  0  0  0  0  0  0  0  0  0  0  0
    4.5572   -2.4000  -19.2212 C   0  0  0  0  0  0  0  0  0  0  0  0
    4.3631   -3.6127  -18.5671 O   0  0  0  0  0  0  0  0  0  0  0  0
    5.3652   -3.8759  -17.6660 C   0  0  0  0  0  0  0  0  0  0  0  0
    5.5350   -2.8004  -16.6164 C   0  0  0  0  0  0  0  0  0  0  0  0
    8.7057    6.0674  -12.0667 N   0  0  0  0  0  0  0  0  0  0  0  0
    9.1159    6.1424  -10.8547 C   0  0  0  0  0  0  0  0  0  0  0  0
    8.9279    5.0754   -9.9998 C   0  0  0  0  0  0  0  0  0  0  0  0
    9.3985    5.2359   -8.7066 C   0  0  0  0  0  0  0  0  0  0  0  0
   10.0201    6.4122   -8.3177 C   0  0  0  0  0  0  0  0  0  0  0  0
   10.4968    6.5953   -7.0353 C   0  0  0  0  0  0  0  0  0  0  0  0
   11.1153    7.7677   -6.6504 C   0  0  0  0  0  0  0  0  0  0  0  0
   11.2831    8.8122   -7.5405 C   0  0  0  0  0  0  0  0  0  0  0  0
   10.8073    8.6324   -8.8241 C   0  0  0  0  0  0  0  0  0  0  0  0
   10.1899    7.4578   -9.2025 C   0  0  0  0  0  0  0  0  0  0  0  0
    9.7282    7.2884  -10.4542 N   0  0  0  0  0  0  0  0  0  0  0  0
    9.8638    8.0918  -11.1172 H   0  0  0  0  0  0  0  0  0  0  0  0
   11.5958    7.8892   -5.2694 C   0  0  0  0  0  0  0  0  0  0  0  0
   11.3406    6.9017   -4.3444 C   0  0  0  0  0  0  0  0  0  0  0  0
   11.7818    6.9899   -3.0349 C   0  0  0  0  0  0  0  0  0  0  0  0
   12.5040    8.0899   -2.6081 C   0  0  0  0  0  0  0  0  0  0  0  0
   12.7666    9.0910   -3.5327 C   0  0  0  0  0  0  0  0  0  0  0  0
   12.3170    8.9886   -4.8447 C   0  0  0  0  0  0  0  0  0  0  0  0
  1  2  1  0
  2  3  1  0
  3  4  2  0
  4  5  1  0
  5  6  1  0
  6  7  2  0
  7  8  1  0
  8  9  2  0
  9 10  1  0
 10 11  2  0
 10 12  1  0
 12 13  1  0
 13 14  2  0
 14 15  1  0
 15 24  1  0
 24 25  2  0
 25 26  1  0
 26 27  2  0
 27 28  1  0
 28 29  2  0
 29 30  1  0
 30 36  1  0
 36 37  2  0
 37 38  1  0
 38 39  2  0
 39 40  1  0
 40 41  2  0
 30 31  2  0
 31 32  1  0
 32 33  2  0
 33 34  1  0
 34 35  1  0
 15 16  2  0
 16 17  1  0
 17 18  2  0
  5 19  1  6
 19 20  1  0
 20 21  1  0
 21 22  1  0
 22 23  1  0
 11  3  1  0
 18 13  1  0
 23  5  1  0
 11  6  1  0
 34 25  1  0
 18  9  1  0
 33 28  1  0
 41 36  1  0
M  END
>  <minimizedAffinity>  (688) 
-16.73366

$$$$
Mol: 99_4 - SminaDock
     RDKit          3D

 46 53  0  0  0  0  0  0  0  0999 V2000
    8.3487    4.4341  -13.7275 C   0  0  0  0  0  0  0  0  0  0  0  0
    7.1842    4.2874  -13.0380 C   0  0  0  0  0  0  0  0  0  0  0  0
    6.3726    3.1701  -13.2236 C   0  0  0  0  0  0  0  0  0  0  0  0
    6.7293    2.1617  -14.1265 C   0  0  0  0  0  0  0  0  0  0  0  0
    5.7984    1.1266  -14.1805 C   0  0  0  0  0  0  0  0  0  0  0  0
    5.7364    0.0811  -15.0840 C   0  0  0  0  0  0  0  0  0  0  0  0
    6.5489   -0.1916  -16.1746 C   0  0  0  0  0  0  0  0  0  0  0  0
    6.0501   -1.1505  -16.9753 N   0  0  0  0  0  0  0  0  0  0  0  0
    6.6933   -1.5679  -18.1058 C   0  0  0  0  0  0  0  0  0  0  0  0
    7.8926   -0.9682  -18.4103 C   0  0  0  0  0  0  0  0  0  0  0  0
    8.4095    0.0258  -17.5804 C   0  0  0  0  0  0  0  0  0  0  0  0
    7.7472    0.4336  -16.4462 C   0  0  0  0  0  0  0  0  0  0  0  0
    8.4083    1.4349  -15.7494 C   0  0  0  0  0  0  0  0  0  0  0  0
    9.6152    1.5497  -15.9965 O   0  0  0  0  0  0  0  0  0  0  0  0
    7.9100    2.3292  -14.8135 C   0  0  0  0  0  0  0  0  0  0  0  0
    8.7038    3.4250  -14.6295 C   0  0  0  0  0  0  0  0  0  0  0  0
   10.4211    7.2043   -7.7444 C   0  0  0  0  0  0  0  0  0  0  0  0
    9.6198    6.0871   -7.7446 C   0  0  0  0  0  0  0  0  0  0  0  0
    9.1875    5.4964   -8.9317 C   0  0  0  0  0  0  0  0  0  0  0  0
    9.5902    6.0707  -10.1291 C   0  0  0  0  0  0  0  0  0  0  0  0
   10.3930    7.1889  -10.1592 C   0  0  0  0  0  0  0  0  0  0  0  0
   10.7921    7.7328   -8.9596 C   0  0  0  0  0  0  0  0  0  0  0  0
   10.7891    7.7622  -11.3426 C   0  0  0  0  0  0  0  0  0  0  0  0
   10.3502    7.1727  -12.5023 C   0  0  0  0  0  0  0  0  0  0  0  0
    9.5398    6.0442  -12.4416 C   0  0  0  0  0  0  0  0  0  0  0  0
    9.1630    5.5588  -13.5554 N   0  0  0  0  0  0  0  0  0  0  0  0
    9.1633    5.4979  -11.2916 N   0  0  0  0  0  0  0  0  0  0  0  0
    8.5524    4.6423  -11.2491 H   0  0  0  0  0  0  0  0  0  0  0  0
   12.4730    8.4510   -1.7475 C   0  0  0  0  0  0  0  0  0  0  0  0
   12.4474    7.0817   -1.9453 C   0  0  0  0  0  0  0  0  0  0  0  0
   12.0293    6.6401   -3.1736 C   0  0  0  0  0  0  0  0  0  0  0  0
   11.6396    7.4541   -4.2077 C   0  0  0  0  0  0  0  0  0  0  0  0
   11.2274    6.9717   -5.4304 C   0  0  0  0  0  0  0  0  0  0  0  0
   10.8358    7.7846   -6.4762 C   0  0  0  0  0  0  0  0  0  0  0  0
   10.8730    9.1562   -6.2444 C   0  0  0  0  0  0  0  0  0  0  0  0
   11.2860    9.6430   -5.0188 C   0  0  0  0  0  0  0  0  0  0  0  0
   11.6738    8.8264   -3.9851 C   0  0  0  0  0  0  0  0  0  0  0  0
   12.0914    9.3073   -2.7545 C   0  0  0  0  0  0  0  0  0  0  0  0
    6.1400   -2.5795  -18.9232 N   0  0  0  0  0  0  0  0  0  0  0  0
    5.5634   -3.7848  -18.4026 C   0  0  0  0  0  0  0  0  0  0  0  0
    4.1276   -3.9415  -18.8662 C   0  0  0  0  0  0  0  0  0  0  0  0
    3.8831   -3.3450  -20.1367 N   0  0  2  0  0  0  0  0  0  0  0  0
    3.3451   -2.4601  -20.0362 H   0  0  0  0  0  0  0  0  0  0  0  0
    2.9868   -4.2407  -20.8868 C   0  0  0  0  0  0  0  0  0  0  0  0
    5.0519   -3.1931  -20.9639 C   0  0  0  0  0  0  0  0  0  0  0  0
    6.1542   -2.3908  -20.3579 C   0  0  0  0  0  0  0  0  0  0  0  0
 29 30  2  0
 30 31  1  0
 31 32  2  0
 32 33  1  0
 33 34  2  0
 34 17  1  0
 17 18  2  0
 18 19  1  0
 19 20  2  0
 20 21  1  0
 21 22  2  0
 21 23  1  0
 23 24  2  0
 24 25  1  0
 25 26  2  0
 26  1  1  0
  1  2  2  0
  2  3  1  0
  3  4  2  0
  4  5  1  0
  5  6  2  0
  6  7  1  0
  7  8  2  0
  8  9  1  0
  9 39  1  0
 39 40  1  0
 40 41  1  0
 41 42  1  0
 42 43  1  1
 42 44  1  0
 42 45  1  0
 45 46  1  0
  9 10  2  0
 10 11  1  0
 11 12  2  0
 12 13  1  0
 13 14  2  0
 13 15  1  0
 15 16  2  0
 25 27  1  0
 27 28  1  0
 34 35  1  0
 35 36  2  0
 36 37  1  0
 37 38  2  0
 38 29  1  0
 37 32  1  0
 22 17  1  0
 16  1  1  0
 27 20  1  0
 15  4  1  0
 12  7  1  0
 46 39  1  0
M  CHG  1  42   1
M  END
>  <minimizedAffinity>  (689) 
-16.69724

$$$$
Mol: 180_18 - SminaDock
     RDKit          3D

 39 45  0  0  0  0  0  0  0  0999 V2000
    1.6936   -0.4685  -13.8990 H   0  0  0  0  0  0  0  0  0  0  0  0
    2.3351   -0.9684  -14.4653 O   0  0  0  0  0  0  0  0  0  0  0  0
    3.6669   -0.6228  -14.6537 C   0  0  0  0  0  0  0  0  0  0  0  0
    4.1553    0.5122  -14.0938 N   0  0  0  0  0  0  0  0  0  0  0  0
    5.4296    0.9050  -14.2354 C   0  0  0  0  0  0  0  0  0  0  0  0
    5.9279    2.0585  -13.6676 C   0  0  0  0  0  0  0  0  0  0  0  0
    7.2492    2.4103  -13.8498 C   0  0  0  0  0  0  0  0  0  0  0  0
    8.1002    1.6045  -14.6109 C   0  0  0  0  0  0  0  0  0  0  0  0
    7.5699    0.4686  -15.1580 C   0  0  0  0  0  0  0  0  0  0  0  0
    6.2532    0.0867  -14.9961 C   0  0  0  0  0  0  0  0  0  0  0  0
    5.7966   -1.0875  -15.5901 C   0  0  0  0  0  0  0  0  0  0  0  0
    4.4758   -1.4431  -15.4112 C   0  0  0  0  0  0  0  0  0  0  0  0
    9.4164    1.9804  -14.7771 C   0  0  0  0  0  0  0  0  0  0  0  0
   10.1398    1.2156  -15.4737 O   0  0  0  0  0  0  0  0  0  0  0  0
    9.9157    3.1004  -14.2312 N   0  0  0  0  0  0  0  0  0  0  0  0
    9.1266    3.9133  -13.4846 C   0  0  0  0  0  0  0  0  0  0  0  0
    9.6295    5.0649  -12.9207 C   0  0  0  0  0  0  0  0  0  0  0  0
    8.8421    5.8979  -12.1625 C   0  0  0  0  0  0  0  0  0  0  0  0
    7.5315    5.5699  -11.9681 C   0  0  0  0  0  0  0  0  0  0  0  0
    7.0346    4.4018  -12.5442 C   0  0  0  0  0  0  0  0  0  0  0  0
    7.8066    3.5535  -13.3071 C   0  0  0  0  0  0  0  0  0  0  0  0
    9.4185    7.0849  -11.5990 N   0  0  0  0  0  0  0  0  0  0  0  0
    9.7418    7.0571  -10.3589 C   0  0  0  0  0  0  0  0  0  0  0  0
    9.5470    5.9599   -9.6222 N   0  0  0  0  0  0  0  0  0  0  0  0
    9.8814    5.9176   -8.3189 C   0  0  0  0  0  0  0  0  0  0  0  0
   10.4374    7.0444   -7.7487 C   0  0  0  0  0  0  0  0  0  0  0  0
   10.7819    7.0110   -6.4176 C   0  0  0  0  0  0  0  0  0  0  0  0
   11.3388    8.0992   -5.7901 C   0  0  0  0  0  0  0  0  0  0  0  0
   11.5379    9.2288   -6.5536 C   0  0  0  0  0  0  0  0  0  0  0  0
   11.2005    9.2802   -7.8826 C   0  0  0  0  0  0  0  0  0  0  0  0
   10.6447    8.1823   -8.4928 C   0  0  0  0  0  0  0  0  0  0  0  0
   10.2851    8.1534   -9.7956 N   0  0  0  0  0  0  0  0  0  0  0  0
   10.4569    9.0387  -10.3356 H   0  0  0  0  0  0  0  0  0  0  0  0
   11.7208    8.1144   -4.3844 C   0  0  0  0  0  0  0  0  0  0  0  0
   11.7715    6.9104   -3.6849 C   0  0  0  0  0  0  0  0  0  0  0  0
   12.1247    6.8624   -2.3572 C   0  0  0  0  0  0  0  0  0  0  0  0
   12.4416    8.0051   -1.6696 C   0  0  0  0  0  0  0  0  0  0  0  0
   12.3921    9.2055   -2.3631 C   0  0  0  0  0  0  0  0  0  0  0  0
   12.0370    9.2471   -3.6952 C   0  0  0  0  0  0  0  0  0  0  0  0
  1  2  1  0
  2  3  1  0
  3  4  2  0
  4  5  1  0
  5  6  2  0
  6  7  1  0
  7  8  2  0
  8  9  1  0
  9 10  2  0
 10 11  1  0
 11 12  2  0
  8 13  1  0
 13 14  2  0
 13 15  1  0
 15 16  1  0
 16 17  2  0
 17 18  1  0
 18 22  1  0
 22 23  2  0
 23 24  1  0
 24 25  2  0
 25 26  1  0
 26 27  2  0
 27 28  1  0
 28 34  1  0
 34 35  2  0
 35 36  1  0
 36 37  2  0
 37 38  1  0
 38 39  2  0
 28 29  2  0
 29 30  1  0
 30 31  2  0
 31 32  1  0
 32 33  1  0
 18 19  2  0
 19 20  1  0
 20 21  2  0
 12  3  1  0
 21 16  1  0
 10  5  1  0
 32 23  1  0
 21  7  1  0
 31 26  1  0
 39 34  1  0
M  CHG  1  15  -1
M  END
>  <minimizedAffinity>  (690) 
-16.72220

$$$$
Mol: 99_55 - SminaDock
     RDKit          3D

 41 48  0  0  0  0  0  0  0  0999 V2000
    9.0836    5.2440  -13.7873 N   0  0  0  0  0  0  0  0  0  0  0  0
    9.4611    5.7388  -12.6656 C   0  0  0  0  0  0  0  0  0  0  0  0
   10.3980    6.7837  -12.6624 C   0  0  0  0  0  0  0  0  0  0  0  0
   10.8282    7.3415  -11.4801 C   0  0  0  0  0  0  0  0  0  0  0  0
   10.3532    6.8927  -10.2652 C   0  0  0  0  0  0  0  0  0  0  0  0
   10.7702    7.4410   -9.0672 C   0  0  0  0  0  0  0  0  0  0  0  0
   10.2922    6.9939   -7.8532 C   0  0  0  0  0  0  0  0  0  0  0  0
    9.3735    5.9680   -7.8852 C   0  0  0  0  0  0  0  0  0  0  0  0
    8.9498    5.4114   -9.0812 C   0  0  0  0  0  0  0  0  0  0  0  0
    9.4331    5.8656  -10.2892 C   0  0  0  0  0  0  0  0  0  0  0  0
    9.0185    5.3249  -11.4669 N   0  0  0  0  0  0  0  0  0  0  0  0
    8.3195    4.5426  -11.4507 H   0  0  0  0  0  0  0  0  0  0  0  0
    3.9797    0.0997  -12.9708 H   0  0  0  0  0  0  0  0  0  0  0  0
    4.3072    1.0035  -13.3120 O   0  0  0  0  0  0  0  0  0  0  0  0
    5.3610    1.0585  -14.2136 C   0  0  0  0  0  0  0  0  0  0  0  0
    5.4706    0.2123  -15.1892 C   0  0  0  0  0  0  0  0  0  0  0  0
    6.5157    0.2946  -16.2435 C   0  0  2  0  0  0  0  0  0  0  0  0
    5.8985    1.0336  -17.4506 C   0  0  0  0  0  0  0  0  0  0  0  0
    4.8794   -0.0265  -17.8777 C   0  0  0  0  0  0  0  0  0  0  0  0
    5.6020   -1.3409  -17.6953 C   0  0  0  0  0  0  0  0  0  0  0  0
    6.7779   -1.0730  -16.7701 C   0  0  0  0  0  0  0  0  0  0  0  0
    7.7033    1.0841  -15.8453 C   0  0  1  0  0  0  0  0  0  0  0  0
    7.4316    2.1616  -14.8877 C   0  0  0  0  0  0  0  0  0  0  0  0
    8.3280    3.2268  -14.7821 C   0  0  0  0  0  0  0  0  0  0  0  0
    8.1431    4.1935  -13.8303 C   0  0  0  0  0  0  0  0  0  0  0  0
    7.0629    4.1010  -12.9794 C   0  0  0  0  0  0  0  0  0  0  0  0
    6.1539    3.0680  -13.0496 C   0  0  0  0  0  0  0  0  0  0  0  0
    6.3681    2.0930  -14.0373 C   0  0  0  0  0  0  0  0  0  0  0  0
    8.9295    0.2511  -15.4718 C   0  0  0  0  0  0  0  0  0  0  0  0
    9.7016    1.1499  -16.1935 O   0  0  0  0  0  0  0  0  0  0  0  0
    8.5998    1.4482  -16.9981 C   0  0  0  0  0  0  0  0  0  0  0  0
   10.7644    7.6128   -6.5972 C   0  0  0  0  0  0  0  0  0  0  0  0
   10.8122    8.9848   -6.4721 C   0  0  0  0  0  0  0  0  0  0  0  0
   11.2329    9.6061   -5.3177 C   0  0  0  0  0  0  0  0  0  0  0  0
   11.6294    8.8741   -4.2243 C   0  0  0  0  0  0  0  0  0  0  0  0
   12.0494    9.4863   -3.0615 C   0  0  0  0  0  0  0  0  0  0  0  0
   12.4435    8.7482   -1.9646 C   0  0  0  0  0  0  0  0  0  0  0  0
   12.3997    7.3743   -2.0801 C   0  0  0  0  0  0  0  0  0  0  0  0
   11.9791    6.7545   -3.2449 C   0  0  0  0  0  0  0  0  0  0  0  0
   11.5829    7.4869   -4.3467 C   0  0  0  0  0  0  0  0  0  0  0  0
   11.1581    6.8640   -5.5119 C   0  0  0  0  0  0  0  0  0  0  0  0
 13 14  1  0
 14 15  1  0
 15 16  2  0
 16 17  1  0
 17 18  1  6
 18 19  1  0
 19 20  1  0
 20 21  1  0
 17 22  1  0
 22 23  1  0
 23 24  2  0
 24 25  1  0
 25  1  1  0
  1  2  2  0
  2  3  1  0
  3  4  2  0
  4  5  1  0
  5  6  2  0
  6  7  1  0
  7 32  1  0
 32 33  2  0
 33 34  1  0
 34 35  2  0
 35 36  1  0
 36 37  2  0
 37 38  1  0
 38 39  2  0
 39 40  1  0
 40 41  2  0
  7  8  2  0
  8  9  1  0
  9 10  2  0
 10 11  1  0
 11 12  1  0
 25 26  2  0
 26 27  1  0
 27 28  2  0
 22 29  1  1
 29 30  1  0
 30 31  1  0
 28 15  1  0
 21 17  1  0
 31 22  1  0
 28 23  1  0
 11  2  1  0
 10  5  1  0
 41 32  1  0
 40 35  1  0
M  END
>  <minimizedAffinity>  (691) 
-16.70152

$$$$
Mol: 179_20 - SminaDock
     RDKit          3D

 38 44  0  0  0  0  0  0  0  0999 V2000
    8.7303    5.8208  -12.1799 C   0  0  0  0  0  0  0  0  0  0  0  0
    7.4076    5.5201  -11.9762 C   0  0  0  0  0  0  0  0  0  0  0  0
    6.8485    4.3617  -12.5289 C   0  0  0  0  0  0  0  0  0  0  0  0
    7.6252    3.5149  -13.2832 C   0  0  0  0  0  0  0  0  0  0  0  0
    7.0417    2.3757  -13.8117 C   0  0  0  0  0  0  0  0  0  0  0  0
    5.7135    2.0579  -13.6142 C   0  0  0  0  0  0  0  0  0  0  0  0
    5.2173    0.9011  -14.1770 C   0  0  0  0  0  0  0  0  0  0  0  0
    3.8918    0.5209  -14.0149 C   0  0  0  0  0  0  0  0  0  0  0  0
    3.3890   -0.6347  -14.5721 C   0  0  0  0  0  0  0  0  0  0  0  0
    4.1823   -1.4738  -15.3215 C   0  0  0  0  0  0  0  0  0  0  0  0
    5.5037   -1.1140  -15.4951 C   0  0  0  0  0  0  0  0  0  0  0  0
    6.0129    0.0580  -14.9295 C   0  0  0  0  0  0  0  0  0  0  0  0
    7.3343    0.3995  -15.1107 C   0  0  0  0  0  0  0  0  0  0  0  0
    7.8649    1.5419  -14.5665 C   0  0  0  0  0  0  0  0  0  0  0  0
    9.1922    1.8936  -14.7411 C   0  0  0  0  0  0  0  0  0  0  0  0
    9.9139    1.1176  -15.4320 O   0  0  0  0  0  0  0  0  0  0  0  0
    9.7122    3.0035  -14.2116 N   0  0  0  0  0  0  0  0  0  0  0  0
   11.1157    3.3685  -14.4011 C   0  0  0  0  0  0  0  0  0  0  0  0
    8.9508    3.8348  -13.4767 C   0  0  0  0  0  0  0  0  0  0  0  0
    9.5259    4.9884  -12.9315 C   0  0  0  0  0  0  0  0  0  0  0  0
   11.3219    8.1061   -5.8612 C   0  0  0  0  0  0  0  0  0  0  0  0
   11.4877    9.2307   -6.6529 C   0  0  0  0  0  0  0  0  0  0  0  0
   11.1104    9.2128   -7.9787 C   0  0  0  0  0  0  0  0  0  0  0  0
   10.5567    8.0870   -8.5722 C   0  0  0  0  0  0  0  0  0  0  0  0
   10.3845    6.9468   -7.7851 C   0  0  0  0  0  0  0  0  0  0  0  0
    9.8378    5.8110   -8.3302 C   0  0  0  0  0  0  0  0  0  0  0  0
    9.4882    5.8561   -9.6234 N   0  0  0  0  0  0  0  0  0  0  0  0
    9.6572    6.9575  -10.3716 C   0  0  0  0  0  0  0  0  0  0  0  0
    9.3147    7.0088  -11.6061 N   0  0  0  0  0  0  0  0  0  0  0  0
   10.1946    8.0892   -9.8562 N   0  0  0  0  0  0  0  0  0  0  0  0
   10.3285    8.9537  -10.4425 H   0  0  0  0  0  0  0  0  0  0  0  0
   10.7709    6.9937   -6.4614 C   0  0  0  0  0  0  0  0  0  0  0  0
   12.4557    8.0394   -1.7427 C   0  0  0  0  0  0  0  0  0  0  0  0
   12.0928    6.8819   -2.3974 C   0  0  0  0  0  0  0  0  0  0  0  0
   11.7244    6.9191   -3.7414 C   0  0  0  0  0  0  0  0  0  0  0  0
   11.7144    8.1096   -4.4442 C   0  0  0  0  0  0  0  0  0  0  0  0
   12.0754    9.2576   -3.7899 C   0  0  0  0  0  0  0  0  0  0  0  0
   12.4364    9.2116   -2.4672 C   0  0  0  0  0  0  0  0  0  0  0  0
 33 34  2  0
 34 35  1  0
 35 36  2  0
 36 21  1  0
 21 22  2  0
 22 23  1  0
 23 24  2  0
 24 25  1  0
 25 26  1  0
 26 27  2  0
 27 28  1  0
 28 29  2  0
 29  1  1  0
  1  2  2  0
  2  3  1  0
  3  4  2  0
  4  5  1  0
  5  6  2  0
  6  7  1  0
  7  8  2  0
  8  9  1  0
  9 10  2  0
 10 11  1  0
 11 12  2  0
 12 13  1  0
 13 14  2  0
 14 15  1  0
 15 16  2  0
 15 17  1  0
 17 18  1  0
 17 19  1  0
 19 20  2  0
 28 30  1  0
 30 31  1  0
 25 32  2  0
 36 37  1  0
 37 38  2  0
 38 33  1  0
 32 21  1  0
 30 24  1  0
 20  1  1  0
 19  4  1  0
 14  5  1  0
 12  7  1  0
M  END
>  <minimizedAffinity>  (692) 
-16.66652

$$$$
Mol: 137_33 - SminaDock
     RDKit          3D

 39 45  0  0  0  0  0  0  0  0999 V2000
    8.6752    5.7578  -12.2389 C   0  0  0  0  0  0  0  0  0  0  0  0
    7.3862    5.4337  -11.9352 C   0  0  0  0  0  0  0  0  0  0  0  0
    6.7476    4.2968  -12.4430 C   0  0  0  0  0  0  0  0  0  0  0  0
    7.5036    3.4904  -13.2929 C   0  0  0  0  0  0  0  0  0  0  0  0
    8.7976    3.8124  -13.6031 C   0  0  0  0  0  0  0  0  0  0  0  0
    9.4095    4.9604  -13.0755 C   0  0  0  0  0  0  0  0  0  0  0  0
    9.5854    3.0286  -14.5504 C   0  0  0  0  0  0  0  0  0  0  0  0
    9.0783    1.6594  -14.7586 C   0  0  0  0  0  0  0  0  0  0  0  0
    7.6521    1.4240  -14.5314 C   0  0  0  0  0  0  0  0  0  0  0  0
    7.0279    0.2798  -15.0450 C   0  0  0  0  0  0  0  0  0  0  0  0
    5.7190   -0.0109  -14.8065 C   0  0  0  0  0  0  0  0  0  0  0  0
    4.9356    0.8152  -14.0398 C   0  0  0  0  0  0  0  0  0  0  0  0
    5.5346    1.9515  -13.5245 C   0  0  0  0  0  0  0  0  0  0  0  0
    6.8679    2.2553  -13.7642 C   0  0  0  0  0  0  0  0  0  0  0  0
    3.5790    0.5073  -13.7948 N   0  0  0  0  0  0  0  0  0  0  0  0
    3.0829    1.0101  -13.0489 H   0  0  0  0  0  0  0  0  0  0  0  0
    2.8664   -0.4543  -14.5194 N   0  0  0  0  0  0  0  0  0  0  0  0
    2.4262    0.0359  -15.3299 H   0  0  0  0  0  0  0  0  0  0  0  0
    3.7160   -1.4292  -15.0498 N   0  0  0  0  0  0  0  0  0  0  0  0
    5.0705   -1.2212  -15.3541 C   0  0  0  0  0  0  0  0  0  0  0  0
    5.7711   -1.9800  -16.0524 O   0  0  0  0  0  0  0  0  0  0  0  0
   11.3093    8.0025   -5.8688 C   0  0  0  0  0  0  0  0  0  0  0  0
   11.5076    9.1061   -6.6706 C   0  0  0  0  0  0  0  0  0  0  0  0
   11.1308    9.0916   -8.0014 C   0  0  0  0  0  0  0  0  0  0  0  0
   10.5463    7.9841   -8.5793 C   0  0  0  0  0  0  0  0  0  0  0  0
   10.3497    6.8816   -7.7730 C   0  0  0  0  0  0  0  0  0  0  0  0
    9.7642    5.7825   -8.3664 C   0  0  0  0  0  0  0  0  0  0  0  0
    9.4146    5.8149   -9.6647 N   0  0  0  0  0  0  0  0  0  0  0  0
    9.6109    6.8953  -10.4417 C   0  0  0  0  0  0  0  0  0  0  0  0
    9.2716    6.9213  -11.6946 N   0  0  0  0  0  0  0  0  0  0  0  0
   10.1809    7.9726   -9.8739 N   0  0  0  0  0  0  0  0  0  0  0  0
   10.3280    8.8095  -10.4936 H   0  0  0  0  0  0  0  0  0  0  0  0
   10.7252    6.8926   -6.4415 C   0  0  0  0  0  0  0  0  0  0  0  0
   12.4752    8.0625   -1.7836 C   0  0  0  0  0  0  0  0  0  0  0  0
   12.1197    6.8747   -2.3848 C   0  0  0  0  0  0  0  0  0  0  0  0
   11.7430    6.8657   -3.7106 C   0  0  0  0  0  0  0  0  0  0  0  0
   11.7157    8.0301   -4.4493 C   0  0  0  0  0  0  0  0  0  0  0  0
   12.0739    9.2073   -3.8326 C   0  0  0  0  0  0  0  0  0  0  0  0
   12.4477    9.2289   -2.5240 C   0  0  0  0  0  0  0  0  0  0  0  0
 34 35  2  0
 35 36  1  0
 36 37  2  0
 37 22  1  0
 22 23  2  0
 23 24  1  0
 24 25  2  0
 25 26  1  0
 26 27  1  0
 27 28  2  0
 28 29  1  0
 29 30  2  0
 30  1  1  0
  1  2  2  0
  2  3  1  0
  3  4  2  0
  4  5  1  0
  5  6  2  0
  5  7  1  0
  7  8  1  0
  8  9  1  0
  9 10  2  0
 10 11  1  0
 11 12  2  0
 12 13  1  0
 13 14  2  0
 12 15  1  0
 15 16  1  0
 15 17  1  0
 17 18  1  0
 17 19  1  0
 19 20  1  0
 20 21  2  0
 29 31  1  0
 31 32  1  0
 26 33  2  0
 37 38  1  0
 38 39  2  0
 39 34  1  0
 33 22  1  0
 31 25  1  0
  6  1  1  0
 14  9  1  0
 14  4  1  0
 20 11  1  0
M  CHG  1  19  -1
M  END
>  <minimizedAffinity>  (693) 
-16.66370

$$$$
Mol: 136_16 - SminaDock
     RDKit          3D

 41 47  0  0  0  0  0  0  0  0999 V2000
    8.8467    6.1734  -12.2840 C   0  0  0  0  0  0  0  0  0  0  0  0
    9.5630    5.3687  -13.1391 C   0  0  0  0  0  0  0  0  0  0  0  0
    9.0194    4.2095  -13.7128 C   0  0  0  0  0  0  0  0  0  0  0  0
    7.7420    3.9016  -13.3920 C   0  0  0  0  0  0  0  0  0  0  0  0
    6.9854    4.6705  -12.5460 C   0  0  0  0  0  0  0  0  0  0  0  0
    7.5626    5.8194  -11.9928 C   0  0  0  0  0  0  0  0  0  0  0  0
    5.5971    4.4072  -12.1849 C   0  0  0  0  0  0  0  0  0  0  0  0
    5.0118    3.1371  -12.6051 C   0  0  0  0  0  0  0  0  0  0  0  0
    5.8294    2.3712  -13.5725 C   0  0  0  0  0  0  0  0  0  0  0  0
    5.2112    1.2338  -14.1094 C   0  0  0  0  0  0  0  0  0  0  0  0
    5.9176    0.4577  -14.9885 C   0  0  0  0  0  0  0  0  0  0  0  0
    7.2032    0.7799  -15.3412 C   0  0  0  0  0  0  0  0  0  0  0  0
    7.8165    1.9168  -14.8032 C   0  0  0  0  0  0  0  0  0  0  0  0
    7.1145    2.7011  -13.9210 C   0  0  0  0  0  0  0  0  0  0  0  0
    7.7631   -0.1773  -16.2850 C   0  0  0  0  0  0  0  0  0  0  0  0
    8.9376   -0.1488  -16.7982 N   0  0  0  0  0  0  0  0  0  0  0  0
    9.5829    0.6203  -16.5374 H   0  0  0  0  0  0  0  0  0  0  0  0
    6.7179   -1.1283  -16.4942 N   0  0  0  0  0  0  0  0  0  0  0  0
    6.8088   -1.9523  -17.1287 H   0  0  0  0  0  0  0  0  0  0  0  0
    5.5808   -0.7785  -15.7255 C   0  0  0  0  0  0  0  0  0  0  0  0
    4.4611   -1.3755  -15.6461 O   0  0  0  0  0  0  0  0  0  0  0  0
   11.4090    8.1977   -5.8345 C   0  0  0  0  0  0  0  0  0  0  0  0
   11.6283    9.3357   -6.5813 C   0  0  0  0  0  0  0  0  0  0  0  0
   11.2704    9.3722   -7.9119 C   0  0  0  0  0  0  0  0  0  0  0  0
   10.6848    8.2841   -8.5447 C   0  0  0  0  0  0  0  0  0  0  0  0
   10.3464    8.3503   -9.8455 N   0  0  0  0  0  0  0  0  0  0  0  0
    9.7741    7.2859  -10.4622 C   0  0  0  0  0  0  0  0  0  0  0  0
    9.4483    7.3541  -11.7187 N   0  0  0  0  0  0  0  0  0  0  0  0
    9.5674    6.1838   -9.7188 N   0  0  0  0  0  0  0  0  0  0  0  0
    9.1244    5.3420  -10.1730 H   0  0  0  0  0  0  0  0  0  0  0  0
    9.8898    6.0813   -8.4261 C   0  0  0  0  0  0  0  0  0  0  0  0
   10.4717    7.1544   -7.7869 C   0  0  0  0  0  0  0  0  0  0  0  0
   10.8251    7.1066   -6.4571 C   0  0  0  0  0  0  0  0  0  0  0  0
   12.4366    7.8948   -1.6976 C   0  0  0  0  0  0  0  0  0  0  0  0
   12.4305    9.1040   -2.3718 C   0  0  0  0  0  0  0  0  0  0  0  0
   12.1001    9.2144   -3.7091 C   0  0  0  0  0  0  0  0  0  0  0  0
   11.7561    8.0770   -4.4276 C   0  0  0  0  0  0  0  0  0  0  0  0
   11.7615    6.8805   -3.7628 C   0  0  0  0  0  0  0  0  0  0  0  0
   12.0918    6.7702   -2.4257 C   0  0  0  0  0  0  0  0  0  0  0  0
    9.3973   -1.0885  -17.6842 O   0  0  0  0  0  0  0  0  0  0  0  0
   10.5842   -0.9245  -18.4238 C   0  0  0  0  0  0  0  0  0  0  0  0
 34 35  2  0
 35 36  1  0
 36 37  2  0
 37 22  1  0
 22 23  1  0
 23 24  2  0
 24 25  1  0
 25 26  2  0
 26 27  1  0
 27 28  2  0
 28  1  1  0
  1  2  2  0
  2  3  1  0
  3  4  2  0
  4  5  1  0
  5  6  2  0
  5  7  1  0
  7  8  1  0
  8  9  1  0
  9 10  2  0
 10 11  1  0
 11 12  2  0
 12 13  1  0
 13 14  2  0
 12 15  1  0
 15 16  2  0
 16 17  1  0
 16 40  1  0
 40 41  1  0
 15 18  1  0
 18 19  1  0
 18 20  1  0
 20 21  2  0
 27 29  1  0
 29 30  1  0
 29 31  1  0
 31 32  2  0
 32 33  1  0
 37 38  1  0
 38 39  2  0
 39 34  1  0
 33 22  2  0
 32 25  1  0
  6  1  1  0
 14  9  1  0
 14  4  1  0
 20 11  1  0
M  CHG  1  16   1
M  END
>  <minimizedAffinity>  (694) 
-16.73146

$$$$
Mol: 101_7 - SminaDock
     RDKit          3D

 43 49  0  0  0  0  0  0  0  0999 V2000
    9.3892    5.4843  -13.4523 N   0  0  0  0  0  0  0  0  0  0  0  0
    9.5469    5.7460  -12.2174 C   0  0  0  0  0  0  0  0  0  0  0  0
    8.8993    5.0899  -11.1948 C   0  0  0  0  0  0  0  0  0  0  0  0
    9.1438    5.4518   -9.8850 C   0  0  0  0  0  0  0  0  0  0  0  0
   10.0268    6.4610   -9.5736 C   0  0  0  0  0  0  0  0  0  0  0  0
   10.2833    6.8359   -8.2605 C   0  0  0  0  0  0  0  0  0  0  0  0
   11.1589    7.8372   -7.9350 C   0  0  0  0  0  0  0  0  0  0  0  0
   11.7973    8.4815   -8.9800 C   0  0  0  0  0  0  0  0  0  0  0  0
   11.5487    8.1160  -10.2869 C   0  0  0  0  0  0  0  0  0  0  0  0
   10.6629    7.1032  -10.6137 C   0  0  0  0  0  0  0  0  0  0  0  0
   10.4173    6.7428  -11.8823 N   0  0  0  0  0  0  0  0  0  0  0  0
   10.9333    7.2705  -12.6244 H   0  0  0  0  0  0  0  0  0  0  0  0
    6.4689   -1.9850  -17.9842 H   0  0  0  0  0  0  0  0  0  0  0  0
    5.5657   -1.9529  -17.5322 O   0  0  0  0  0  0  0  0  0  0  0  0
    5.3840   -1.3341  -16.3039 C   0  0  0  0  0  0  0  0  0  0  0  0
    4.2419   -0.7629  -15.9577 C   0  0  0  0  0  0  0  0  0  0  0  0
    4.0739   -0.1061  -14.6330 C   0  0  0  0  0  0  0  0  0  0  0  0
    5.4010    0.4063  -14.1867 C   0  0  1  0  0  0  0  0  0  0  0  0
    5.9562    1.3414  -15.2044 C   0  0  0  0  0  0  0  0  0  0  0  0
    6.7452    2.4667  -14.6433 C   0  0  0  0  0  0  0  0  0  0  0  0
    7.9858    2.6112  -15.2397 C   0  0  0  0  0  0  0  0  0  0  0  0
    8.8881    3.5997  -14.8710 C   0  0  0  0  0  0  0  0  0  0  0  0
    8.4986    4.4570  -13.8639 C   0  0  0  0  0  0  0  0  0  0  0  0
    7.2616    4.3134  -13.2688 C   0  0  0  0  0  0  0  0  0  0  0  0
    6.3819    3.3239  -13.6517 C   0  0  0  0  0  0  0  0  0  0  0  0
    5.1498    3.4232  -12.8385 C   0  0  0  0  0  0  0  0  0  0  0  0
    4.4942    2.1432  -12.6762 N   0  0  2  0  0  0  0  0  0  0  0  0
    3.6727    2.0707  -13.3174 H   0  0  0  0  0  0  0  0  0  0  0  0
    4.0807    2.0992  -11.7071 H   0  0  0  0  0  0  0  0  0  0  0  0
    5.3798    1.0335  -12.8244 C   0  0  0  0  0  0  0  0  0  0  0  0
    6.3333   -0.8093  -14.0838 C   0  0  0  0  0  0  0  0  0  0  0  0
    6.5141   -1.3427  -15.4095 N   0  0  0  0  0  0  0  0  0  0  0  0
    7.4445   -1.7181  -15.6901 H   0  0  0  0  0  0  0  0  0  0  0  0
   11.4203    8.2208   -6.5625 C   0  0  0  0  0  0  0  0  0  0  0  0
   11.5153    9.5418   -6.1752 C   0  0  0  0  0  0  0  0  0  0  0  0
   11.7655    9.9200   -4.8646 C   0  0  0  0  0  0  0  0  0  0  0  0
   11.9267    8.9551   -3.9064 C   0  0  0  0  0  0  0  0  0  0  0  0
   12.1761    9.3114   -2.5967 C   0  0  0  0  0  0  0  0  0  0  0  0
   12.3433    8.3686   -1.6073 C   0  0  0  0  0  0  0  0  0  0  0  0
   12.2533    7.0455   -1.9672 C   0  0  0  0  0  0  0  0  0  0  0  0
   12.0056    6.6734   -3.2665 C   0  0  0  0  0  0  0  0  0  0  0  0
   11.8398    7.6442   -4.2507 C   0  0  0  0  0  0  0  0  0  0  0  0
   11.5872    7.2702   -5.5754 C   0  0  0  0  0  0  0  0  0  0  0  0
 13 14  1  0
 14 15  1  0
 15 16  2  0
 16 17  1  0
 18 17  1  6
 18 19  1  0
 19 20  1  0
 20 21  2  0
 21 22  1  0
 22 23  2  0
 23  1  1  0
  1  2  2  0
  2  3  1  0
  3  4  2  0
  4  5  1  0
  5  6  2  0
  6  7  1  0
  7 34  1  0
 34 35  2  0
 35 36  1  0
 36 37  2  0
 37 38  1  0
 38 39  2  0
 39 40  1  0
 40 41  2  0
 41 42  1  0
 42 43  2  0
  7  8  2  0
  8  9  1  0
  9 10  2  0
 10 11  1  0
 11 12  1  0
 23 24  1  0
 24 25  2  0
 25 26  1  0
 26 27  1  0
 27 28  1  6
 27 29  1  0
 27 30  1  0
 18 31  1  0
 31 32  1  0
 32 33  1  0
 32 15  1  0
 30 18  1  0
 25 20  1  0
 11  2  1  0
 10  5  1  0
 43 34  1  0
 42 37  1  0
M  CHG  1  27   1
M  END
>  <minimizedAffinity>  (695) 
-16.68478

$$$$
Mol: 173_48 - SminaDock
     RDKit          3D

 40 46  0  0  0  0  0  0  0  0999 V2000
    9.5444   -1.6058  -16.4697 H   0  0  0  0  0  0  0  0  0  0  0  0
    9.6334   -0.7479  -15.9857 O   0  0  0  0  0  0  0  0  0  0  0  0
    9.0644    0.3121  -16.7067 C   0  0  1  0  0  0  0  0  0  0  0  0
   10.1976    1.1865  -17.1757 C   0  0  0  0  0  0  0  0  0  0  0  0
    8.2561   -0.2326  -17.8064 C   0  0  0  0  0  0  0  0  0  0  0  0
    8.6910   -0.2061  -18.9733 O   0  0  0  0  0  0  0  0  0  0  0  0
    7.0153   -0.7739  -17.5495 O   0  0  0  0  0  0  0  0  0  0  0  0
    6.4391   -0.7395  -16.2413 C   0  0  0  0  0  0  0  0  0  0  0  0
    6.9101    0.5215  -15.5567 C   0  0  0  0  0  0  0  0  0  0  0  0
    6.0573    1.1751  -14.6932 C   0  0  0  0  0  0  0  0  0  0  0  0
    6.4675    2.3514  -14.0414 C   0  0  0  0  0  0  0  0  0  0  0  0
    7.7248    2.8374  -14.2739 C   0  0  0  0  0  0  0  0  0  0  0  0
    8.5911    2.1882  -15.1420 C   0  0  0  0  0  0  0  0  0  0  0  0
    8.1596    1.0310  -15.7716 C   0  0  0  0  0  0  0  0  0  0  0  0
    8.2347    4.0239  -13.5633 C   0  0  0  0  0  0  0  0  0  0  0  0
    9.4698    4.5717  -13.8318 C   0  0  0  0  0  0  0  0  0  0  0  0
    9.8736    5.7187  -13.1875 C   0  0  0  0  0  0  0  0  0  0  0  0
    9.0443    6.3265  -12.2696 C   0  0  0  0  0  0  0  0  0  0  0  0
    7.8239    5.7753  -12.0105 C   0  0  0  0  0  0  0  0  0  0  0  0
    7.3760    4.6041  -12.6470 C   0  0  0  0  0  0  0  0  0  0  0  0
    6.0692    4.0481  -12.2553 C   0  0  0  0  0  0  0  0  0  0  0  0
    5.5045    3.0499  -13.1819 C   0  0  0  0  0  0  0  0  0  0  0  0
    9.4071    7.5119  -11.5757 N   0  0  0  0  0  0  0  0  0  0  0  0
    9.7768    7.4173  -10.3316 C   0  0  0  0  0  0  0  0  0  0  0  0
    9.8234    6.2357   -9.6920 N   0  0  0  0  0  0  0  0  0  0  0  0
   10.1995    6.0957   -8.4080 C   0  0  0  0  0  0  0  0  0  0  0  0
   10.5650    7.2097   -7.6756 C   0  0  0  0  0  0  0  0  0  0  0  0
   10.9536    7.0865   -6.3576 C   0  0  0  0  0  0  0  0  0  0  0  0
   11.3140    8.2142   -5.6475 C   0  0  0  0  0  0  0  0  0  0  0  0
   11.2703    9.4403   -6.2961 C   0  0  0  0  0  0  0  0  0  0  0  0
   10.8795    9.5459   -7.6139 C   0  0  0  0  0  0  0  0  0  0  0  0
   10.5163    8.4224   -8.3344 C   0  0  0  0  0  0  0  0  0  0  0  0
   10.1296    8.5094   -9.6317 N   0  0  0  0  0  0  0  0  0  0  0  0
   10.1114    9.4470  -10.0778 H   0  0  0  0  0  0  0  0  0  0  0  0
   11.7315    8.1466   -4.2584 C   0  0  0  0  0  0  0  0  0  0  0  0
   11.7651    6.9184   -3.6323 C   0  0  0  0  0  0  0  0  0  0  0  0
   12.1570    6.7788   -2.2967 C   0  0  0  0  0  0  0  0  0  0  0  0
   12.5167    7.9147   -1.6022 C   0  0  0  0  0  0  0  0  0  0  0  0
   12.4819    9.1500   -2.2353 C   0  0  0  0  0  0  0  0  0  0  0  0
   12.0971    9.2886   -3.5473 C   0  0  0  0  0  0  0  0  0  0  0  0
  1  2  1  0
  3  2  1  0
  3  4  1  6
  3  5  1  0
  5  6  2  0
  5  7  1  0
  7  8  1  0
  8  9  1  0
  9 10  2  0
 10 11  1  0
 11 12  2  0
 12 13  1  0
 13 14  2  0
 12 15  1  0
 15 16  2  0
 16 17  1  0
 17 18  2  0
 18 23  1  0
 23 24  2  0
 24 25  1  0
 25 26  2  0
 26 27  1  0
 27 28  2  0
 28 29  1  0
 29 35  1  0
 35 36  2  0
 36 37  1  0
 37 38  2  0
 38 39  1  0
 39 40  2  0
 29 30  2  0
 30 31  1  0
 31 32  2  0
 32 33  1  0
 33 34  1  0
 18 19  1  0
 19 20  2  0
 20 21  1  0
 21 22  1  0
 14  3  1  0
 20 15  1  0
 14  9  1  0
 33 24  1  0
 22 11  1  0
 32 27  1  0
 40 35  1  0
M  END
>  <minimizedAffinity>  (696) 
-16.69870

$$$$
Mol: 86_34 - SminaDock
     RDKit          3D

 58 66  0  0  0  0  0  0  0  0999 V2000
   10.3477    3.5757  -14.4559 C   0  0  2  0  0  0  0  0  0  0  0  0
   11.3926    4.5055  -14.7975 C   0  0  0  0  0  0  0  0  0  0  0  0
   11.4301    5.6075  -13.9729 C   0  0  0  0  0  0  0  0  0  0  0  0
   12.3345    6.6370  -14.0907 C   0  0  0  0  0  0  0  0  0  0  0  0
   13.2744    6.5629  -15.1096 C   0  0  0  0  0  0  0  0  0  0  0  0
   13.2760    5.4871  -15.9538 C   0  0  0  0  0  0  0  0  0  0  0  0
   12.3373    4.4647  -15.7952 C   0  0  0  0  0  0  0  0  0  0  0  0
   12.5007    3.4375  -16.7617 N   0  0  0  0  0  0  0  0  0  0  0  0
   13.3012    3.5771  -17.4379 H   0  0  0  0  0  0  0  0  0  0  0  0
   11.7541    2.2423  -16.9660 C   0  0  0  0  0  0  0  0  0  0  0  0
   11.9817    1.6716  -18.2163 C   0  0  0  0  0  0  0  0  0  0  0  0
   11.3324    0.5105  -18.5663 C   0  0  0  0  0  0  0  0  0  0  0  0
   10.4667   -0.0581  -17.6571 C   0  0  0  0  0  0  0  0  0  0  0  0
   10.2548    0.5194  -16.4275 C   0  0  0  0  0  0  0  0  0  0  0  0
   10.8927    1.6820  -16.0534 C   0  0  0  0  0  0  0  0  0  0  0  0
   10.5427    2.1344  -14.7194 C   0  0  0  0  0  0  0  0  0  0  0  0
    9.0160    3.9672  -14.8839 N   0  0  1  0  0  0  0  0  0  0  0  0
    8.8488    4.9104  -14.4333 H   0  0  0  0  0  0  0  0  0  0  0  0
    8.9437    4.1477  -15.9045 H   0  0  0  0  0  0  0  0  0  0  0  0
    6.7855    3.1506  -12.6506 H   0  0  0  0  0  0  0  0  0  0  0  0
    7.7330    3.1759  -13.0207 O   0  0  0  0  0  0  0  0  0  0  0  0
    7.9860    3.1237  -14.3814 C   0  0  0  0  0  0  0  0  0  0  0  0
    7.3069    2.3466  -15.1031 N   0  0  0  0  0  0  0  0  0  0  0  0
    6.2737    1.4694  -14.7447 C   0  0  0  0  0  0  0  0  0  0  0  0
    5.7586    1.5022  -13.4631 O   0  0  0  0  0  0  0  0  0  0  0  0
    4.7782    1.7474  -13.3510 H   0  0  0  0  0  0  0  0  0  0  0  0
    5.7708    0.5947  -15.6209 C   0  0  0  0  0  0  0  0  0  0  0  0
    4.7682   -0.2538  -15.2663 C   0  0  0  0  0  0  0  0  0  0  0  0
    4.2201   -1.1751  -16.1580 C   0  0  0  0  0  0  0  0  0  0  0  0
    4.7387   -1.2022  -17.4468 C   0  0  0  0  0  0  0  0  0  0  0  0
    5.7560   -0.3519  -17.8318 C   0  0  0  0  0  0  0  0  0  0  0  0
    6.2685    0.5430  -16.9191 C   0  0  0  0  0  0  0  0  0  0  0  0
    6.3512   -0.3306  -19.1916 C   0  0  0  0  0  0  0  0  0  0  0  0
    5.9321   -1.4702  -20.0576 C   0  0  0  0  0  0  0  0  0  0  0  0
    4.7308   -2.1216  -19.6088 N   0  0  0  0  0  0  0  0  0  0  0  0
    3.9849   -2.8906  -20.5966 C   0  0  0  0  0  0  0  0  0  0  0  0
    4.2244   -2.0718  -18.2946 C   0  0  0  0  0  0  0  0  0  0  0  0
   12.3318    7.7325  -13.2307 O   0  0  0  0  0  0  0  0  0  0  0  0
   11.8909    7.5957  -11.9113 C   0  0  0  0  0  0  0  0  0  0  0  0
   12.4312    8.2320  -10.8351 C   0  0  0  0  0  0  0  0  0  0  0  0
   11.9324    8.0398   -9.5545 C   0  0  0  0  0  0  0  0  0  0  0  0
   10.8685    7.1921   -9.3390 C   0  0  0  0  0  0  0  0  0  0  0  0
   10.3415    6.9822   -8.0831 C   0  0  0  0  0  0  0  0  0  0  0  0
    9.2701    6.1289   -7.9435 C   0  0  0  0  0  0  0  0  0  0  0  0
    8.7047    5.4744   -9.0179 C   0  0  0  0  0  0  0  0  0  0  0  0
    9.2221    5.6772  -10.2596 C   0  0  0  0  0  0  0  0  0  0  0  0
   10.2944    6.5271  -10.4250 C   0  0  0  0  0  0  0  0  0  0  0  0
   10.8325    6.7550  -11.6878 C   0  0  0  0  0  0  0  0  0  0  0  0
   10.8905    7.5992   -6.8873 C   0  0  0  0  0  0  0  0  0  0  0  0
   11.2474    8.9259   -6.8248 C   0  0  0  0  0  0  0  0  0  0  0  0
   11.7579    9.5107   -5.6731 C   0  0  0  0  0  0  0  0  0  0  0  0
   11.9308    8.7646   -4.5212 C   0  0  0  0  0  0  0  0  0  0  0  0
   12.4366    9.3178   -3.3610 C   0  0  0  0  0  0  0  0  0  0  0  0
   12.6162    8.5906   -2.2048 C   0  0  0  0  0  0  0  0  0  0  0  0
   12.2616    7.2554   -2.2555 C   0  0  0  0  0  0  0  0  0  0  0  0
   11.7560    6.6914   -3.4064 C   0  0  0  0  0  0  0  0  0  0  0  0
   11.5763    7.4325   -4.5739 C   0  0  0  0  0  0  0  0  0  0  0  0
   11.0694    6.8518   -5.7159 C   0  0  0  0  0  0  0  0  0  0  0  0
 20 21  1  0
 21 22  1  0
 22 23  2  0
 23 24  1  0
 24 25  1  0
 25 26  1  0
 24 27  2  0
 27 28  1  0
 28 29  2  0
 29 30  1  0
 30 31  1  0
 31 32  2  0
 31 33  1  0
 33 34  1  0
 34 35  1  0
 35 36  1  0
 35 37  1  0
 22 17  1  0
 17 18  1  1
 17 19  1  0
 17  1  1  0
  1  2  1  0
  2  3  2  0
  3  4  1  0
  4 38  1  0
 38 39  1  0
 39 40  2  0
 40 41  1  0
 41 42  2  0
 42 43  1  0
 43 49  1  0
 49 50  2  0
 50 51  1  0
 51 52  2  0
 52 53  1  0
 53 54  2  0
 54 55  1  0
 55 56  2  0
 56 57  1  0
 57 58  2  0
 43 44  2  0
 44 45  1  0
 45 46  2  0
 46 47  1  0
 47 48  2  0
  4  5  2  0
  5  6  1  0
  6  7  2  0
  7  8  1  0
  8  9  1  0
  8 10  1  0
 10 11  2  0
 11 12  1  0
 12 13  2  0
 13 14  1  0
 14 15  2  0
 15 16  1  0
 32 27  1  0
  1 16  1  6
 37 30  2  0
  7  2  1  0
 15 10  1  0
 48 39  1  0
 47 42  1  0
 58 49  1  0
 57 52  1  0
M  CHG  1  17   1
M  END
>  <minimizedAffinity>  (697) 
-16.73152

$$$$
Mol: 143_18 - SminaDock
     RDKit          3D

 38 44  0  0  0  0  0  0  0  0999 V2000
    4.2264    5.1350  -11.4867 H   0  0  0  0  0  0  0  0  0  0  0  0
    5.2308    5.1106  -11.4172 O   0  0  0  0  0  0  0  0  0  0  0  0
    5.6579    4.4291  -12.5779 C   0  0  1  0  0  0  0  0  0  0  0  0
    7.1008    4.6461  -12.7944 C   0  0  0  0  0  0  0  0  0  0  0  0
    7.7187    5.7640  -12.2318 C   0  0  0  0  0  0  0  0  0  0  0  0
    9.0278    6.0345  -12.5224 C   0  0  0  0  0  0  0  0  0  0  0  0
    9.7195    5.1970  -13.3686 C   0  0  0  0  0  0  0  0  0  0  0  0
    9.1255    4.0866  -13.9318 C   0  0  0  0  0  0  0  0  0  0  0  0
    7.8064    3.8175  -13.6338 C   0  0  0  0  0  0  0  0  0  0  0  0
    7.1821    2.5543  -14.1178 C   0  0  0  0  0  0  0  0  0  0  0  0
    7.8305    1.7888  -15.0580 C   0  0  0  0  0  0  0  0  0  0  0  0
    7.1765    0.6710  -15.5916 C   0  0  0  0  0  0  0  0  0  0  0  0
    5.8905    0.3791  -15.1468 C   0  0  0  0  0  0  0  0  0  0  0  0
    5.2650    1.1462  -14.2149 C   0  0  0  0  0  0  0  0  0  0  0  0
    5.9074    2.2547  -13.6791 C   0  0  0  0  0  0  0  0  0  0  0  0
    5.2616    3.0162  -12.5799 C   0  0  0  0  0  0  0  0  0  0  0  0
    4.0040    0.6700  -13.9286 O   0  0  0  0  0  0  0  0  0  0  0  0
    3.7569   -0.4474  -14.6789 C   0  0  0  0  0  0  0  0  0  0  0  0
    2.7055   -1.1717  -14.6997 O   0  0  0  0  0  0  0  0  0  0  0  0
    4.9423   -0.7167  -15.5101 C   0  0  0  0  0  0  0  0  0  0  0  0
    9.6056    7.1821  -11.9234 N   0  0  0  0  0  0  0  0  0  0  0  0
    9.8852    7.1256  -10.6548 C   0  0  0  0  0  0  0  0  0  0  0  0
   10.4423    8.2072  -10.0371 N   0  0  0  0  0  0  0  0  0  0  0  0
   10.7295    8.1496   -8.7335 C   0  0  0  0  0  0  0  0  0  0  0  0
   11.2906    9.2394   -8.1117 C   0  0  0  0  0  0  0  0  0  0  0  0
   11.5900    9.1884   -6.7664 C   0  0  0  0  0  0  0  0  0  0  0  0
   11.3481    8.0679   -5.9920 C   0  0  0  0  0  0  0  0  0  0  0  0
   10.7844    6.9706   -6.6124 C   0  0  0  0  0  0  0  0  0  0  0  0
   10.4877    7.0317   -7.9628 C   0  0  0  0  0  0  0  0  0  0  0  0
    9.9277    5.9493   -8.5915 C   0  0  0  0  0  0  0  0  0  0  0  0
    9.6486    6.0346   -9.9054 N   0  0  0  0  0  0  0  0  0  0  0  0
    9.2180    5.2086  -10.4000 H   0  0  0  0  0  0  0  0  0  0  0  0
   11.6794    8.0579   -4.5762 C   0  0  0  0  0  0  0  0  0  0  0  0
   11.6293    6.8729   -3.8577 C   0  0  0  0  0  0  0  0  0  0  0  0
   11.9350    6.8192   -2.5201 C   0  0  0  0  0  0  0  0  0  0  0  0
   12.3001    7.9646   -1.8727 C   0  0  0  0  0  0  0  0  0  0  0  0
   12.3655    9.1679   -2.5400 C   0  0  0  0  0  0  0  0  0  0  0  0
   12.0488    9.1905   -3.8997 C   0  0  0  0  0  0  0  0  0  0  0  0
  1  2  1  0
  3  2  1  1
  3  4  1  0
  4  5  2  0
  5  6  1  0
  6 21  1  0
 21 22  2  0
 22 23  1  0
 23 24  2  0
 24 25  1  0
 25 26  2  0
 26 27  1  0
 27 33  1  0
 33 34  2  0
 34 35  1  0
 35 36  2  0
 36 37  1  0
 37 38  2  0
 27 28  2  0
 28 29  1  0
 29 30  2  0
 30 31  1  0
 31 32  1  0
  6  7  2  0
  7  8  1  0
  8  9  2  0
  9 10  1  0
 10 11  2  0
 11 12  1  0
 12 13  2  0
 13 14  1  0
 14 15  2  0
 15 16  1  0
 14 17  1  0
 17 18  1  0
 18 19  2  0
 18 20  1  0
 16  3  1  0
  9  4  1  0
 15 10  1  0
 31 22  1  0
 20 13  1  0
 29 24  1  0
 38 33  1  0
M  END
>  <minimizedAffinity>  (698) 
-16.70996

$$$$
Mol: 192_23 - SminaDock
     RDKit          3D

 42 49  0  0  0  0  0  0  0  0999 V2000
    2.0359   -0.4010  -13.9938 H   0  0  0  0  0  0  0  0  0  0  0  0
    2.6988   -0.8378  -14.6237 O   0  0  0  0  0  0  0  0  0  0  0  0
    3.9366   -0.2252  -14.7757 C   0  0  0  0  0  0  0  0  0  0  0  0
    4.3098    0.8454  -14.0407 N   0  0  0  0  0  0  0  0  0  0  0  0
    5.5279    1.4247  -14.2216 C   0  0  0  0  0  0  0  0  0  0  0  0
    6.4336    0.9580  -15.1462 C   0  0  0  0  0  0  0  0  0  0  0  0
    6.0681   -0.1519  -15.9217 C   0  0  0  0  0  0  0  0  0  0  0  0
    6.9171   -0.6579  -16.8328 N   0  0  0  0  0  0  0  0  0  0  0  0
    6.5839   -1.7279  -17.5707 C   0  0  0  0  0  0  0  0  0  0  0  0
    5.3323   -2.3271  -17.3894 C   0  0  0  0  0  0  0  0  0  0  0  0
    4.4407   -1.8312  -16.4632 C   0  0  0  0  0  0  0  0  0  0  0  0
    4.8171   -0.7101  -15.7063 C   0  0  0  0  0  0  0  0  0  0  0  0
    7.6800    1.7496  -15.1477 C   0  0  1  0  0  0  0  0  0  0  0  0
    7.4366    2.7658  -14.0570 C   0  0  0  0  0  0  0  0  0  0  0  0
    8.2608    3.7854  -13.5654 C   0  0  0  0  0  0  0  0  0  0  0  0
    7.8557    4.6264  -12.5559 C   0  0  0  0  0  0  0  0  0  0  0  0
    6.5546    4.3813  -12.0558 C   0  0  0  0  0  0  0  0  0  0  0  0
    5.7661    3.3827  -12.5471 C   0  0  0  0  0  0  0  0  0  0  0  0
    6.1926    2.5445  -13.5674 C   0  0  0  0  0  0  0  0  0  0  0  0
    8.8732    0.8962  -14.7703 C   0  0  0  0  0  0  0  0  0  0  0  0
    9.9834    1.1573  -15.7256 C   0  0  0  0  0  0  0  0  0  0  0  0
    9.6366    1.0039  -17.0463 O   0  0  0  0  0  0  0  0  0  0  0  0
    8.6816    1.9060  -17.4687 C   0  0  0  0  0  0  0  0  0  0  0  0
    7.9046    2.5427  -16.3930 C   0  0  0  0  0  0  0  0  0  0  0  0
    8.6192    5.6383  -11.9910 N   0  0  0  0  0  0  0  0  0  0  0  0
    9.0282    5.8543  -10.8208 C   0  0  0  0  0  0  0  0  0  0  0  0
    8.7210    4.9999   -9.8167 N   0  0  0  0  0  0  0  0  0  0  0  0
    9.1567    5.2055   -8.5430 C   0  0  0  0  0  0  0  0  0  0  0  0
    9.9303    6.3135   -8.2772 C   0  0  0  0  0  0  0  0  0  0  0  0
   10.4159    6.5756   -6.9995 C   0  0  0  0  0  0  0  0  0  0  0  0
   11.2116    7.6912   -6.7224 C   0  0  0  0  0  0  0  0  0  0  0  0
   11.5097    8.5397   -7.7612 C   0  0  0  0  0  0  0  0  0  0  0  0
   11.0437    8.3124   -9.0469 C   0  0  0  0  0  0  0  0  0  0  0  0
   10.2563    7.2019   -9.3044 C   0  0  0  0  0  0  0  0  0  0  0  0
    9.7891    6.9248  -10.5141 N   0  0  0  0  0  0  0  0  0  0  0  0
   10.0050    7.5714  -11.3061 H   0  0  0  0  0  0  0  0  0  0  0  0
   11.6793    7.9070   -5.3606 C   0  0  0  0  0  0  0  0  0  0  0  0
   12.3675    9.0095   -4.9449 C   0  0  0  0  0  0  0  0  0  0  0  0
   12.7638    9.1348   -3.6266 C   0  0  0  0  0  0  0  0  0  0  0  0
   12.4611    8.1264   -2.7001 C   0  0  0  0  0  0  0  0  0  0  0  0
   11.7666    7.0083   -3.1150 C   0  0  0  0  0  0  0  0  0  0  0  0
   11.3847    6.9045   -4.4182 C   0  0  0  0  0  0  0  0  0  0  0  0
  1  2  1  0
  2  3  1  0
  3  4  2  0
  4  5  1  0
  5  6  2  0
  6  7  1  0
  7  8  2  0
  8  9  1  0
  9 10  2  0
 10 11  1  0
 11 12  2  0
  6 13  1  0
 13 14  1  0
 14 15  2  0
 15 16  1  0
 16 25  1  0
 25 26  2  0
 26 27  1  0
 27 28  2  0
 28 29  1  0
 29 30  2  0
 30 31  1  0
 31 37  1  0
 37 38  2  0
 38 39  1  0
 39 40  2  0
 40 41  1  0
 41 42  2  0
 31 32  2  0
 32 33  1  0
 33 34  2  0
 34 35  1  0
 35 36  1  0
 16 17  2  0
 17 18  1  0
 18 19  2  0
 13 20  1  1
 20 21  1  0
 21 22  1  0
 22 23  1  0
 23 24  1  0
 12  3  1  0
 24 13  1  0
 19  5  1  0
 12  7  1  0
 19 14  1  0
 35 26  1  0
 34 29  1  0
 42 37  1  0
M  END
>  <minimizedAffinity>  (699) 
-16.70684

$$$$
Mol: 192_22 - SminaDock
     RDKit          3D

 36 42  0  0  0  0  0  0  0  0999 V2000
   11.2642    8.0757   -5.8715 C   0  0  0  0  0  0  0  0  0  0  0  0
   11.3420    9.2236   -6.6304 C   0  0  0  0  0  0  0  0  0  0  0  0
   10.9496    9.2584   -7.9498 C   0  0  0  0  0  0  0  0  0  0  0  0
   10.4576    8.1049   -8.5464 C   0  0  0  0  0  0  0  0  0  0  0  0
   10.3680    6.9395   -7.8111 C   0  0  0  0  0  0  0  0  0  0  0  0
   10.7719    6.9452   -6.4896 C   0  0  0  0  0  0  0  0  0  0  0  0
    9.8800    5.7767   -8.3860 C   0  0  0  0  0  0  0  0  0  0  0  0
    9.4883    5.8177   -9.7085 C   0  0  0  0  0  0  0  0  0  0  0  0
    9.6038    6.9983  -10.3721 C   0  0  0  0  0  0  0  0  0  0  0  0
    9.2474    7.0681  -11.6039 N   0  0  0  0  0  0  0  0  0  0  0  0
   10.0768    8.1309   -9.8196 N   0  0  0  0  0  0  0  0  0  0  0  0
   10.1400    9.0162  -10.3945 H   0  0  0  0  0  0  0  0  0  0  0  0
    8.7230    5.9269  -12.3170 C   0  0  0  0  0  0  0  0  0  0  0  0
    9.3692    5.4387  -13.4317 C   0  0  0  0  0  0  0  0  0  0  0  0
    8.8177    4.3402  -14.0739 C   0  0  0  0  0  0  0  0  0  0  0  0
    7.6539    3.7517  -13.6098 C   0  0  0  0  0  0  0  0  0  0  0  0
    6.9889    4.2175  -12.5011 C   0  0  0  0  0  0  0  0  0  0  0  0
    7.5674    5.3277  -11.8718 C   0  0  0  0  0  0  0  0  0  0  0  0
    5.7778    3.4148  -12.2182 C   0  0  0  0  0  0  0  0  0  0  0  0
    5.7752    2.3925  -13.2895 C   0  0  0  0  0  0  0  0  0  0  0  0
    4.8811    1.3545  -13.5476 C   0  0  0  0  0  0  0  0  0  0  0  0
    5.1480    0.5499  -14.6412 C   0  0  0  0  0  0  0  0  0  0  0  0
    6.2404    0.7462  -15.4519 C   0  0  0  0  0  0  0  0  0  0  0  0
    7.1148    1.7868  -15.1728 C   0  0  0  0  0  0  0  0  0  0  0  0
    6.8680    2.6120  -14.0761 C   0  0  0  0  0  0  0  0  0  0  0  0
    6.2700   -0.2296  -16.5052 N   0  0  0  0  0  0  0  0  0  0  0  0
    7.2746   -0.3303  -17.5463 C   0  0  0  0  0  0  0  0  0  0  0  0
    5.1386   -1.0609  -16.3257 C   0  0  0  0  0  0  0  0  0  0  0  0
    4.7744   -2.0525  -17.0299 O   0  0  0  0  0  0  0  0  0  0  0  0
    4.3806   -0.6121  -15.1467 C   0  0  0  0  0  0  0  0  0  0  0  0
   12.4834    8.0165   -1.7995 C   0  0  0  0  0  0  0  0  0  0  0  0
   12.1778    6.8120   -2.4378 C   0  0  0  0  0  0  0  0  0  0  0  0
   11.7847    6.8511   -3.7574 C   0  0  0  0  0  0  0  0  0  0  0  0
   11.6817    8.0459   -4.4743 C   0  0  0  0  0  0  0  0  0  0  0  0
   11.9975    9.2069   -3.7882 C   0  0  0  0  0  0  0  0  0  0  0  0
   12.3918    9.2129   -2.4788 C   0  0  0  0  0  0  0  0  0  0  0  0
 31 32  2  0
 32 33  1  0
 33 34  2  0
 34  1  1  0
  1  2  2  0
  2  3  1  0
  3  4  2  0
  4  5  1  0
  5  6  2  0
  5  7  1  0
  7  8  2  0
  8  9  1  0
  9 10  2  0
 10 13  1  0
 13 14  2  0
 14 15  1  0
 15 16  2  0
 16 17  1  0
 17 18  2  0
 17 19  1  0
 19 20  1  0
 20 21  2  0
 21 22  1  0
 22 23  2  0
 23 24  1  0
 24 25  2  0
 23 26  1  0
 26 27  1  0
 26 28  1  0
 28 29  2  0
 28 30  1  0
  9 11  1  0
 11 12  1  0
 34 35  1  0
 35 36  2  0
 36 31  1  0
  6  1  1  0
 18 13  1  0
 25 20  1  0
 11  4  1  0
 25 16  1  0
 30 22  1  0
M  END
>  <minimizedAffinity>  (700) 
-16.70341

$$$$
Mol: 192_44 - SminaDock
     RDKit          3D

 40 47  0  0  0  0  0  0  0  0999 V2000
    7.9082    4.7651  -12.5604 C   0  0  0  0  0  0  0  0  0  0  0  0
    6.6686    4.5179  -12.0117 C   0  0  0  0  0  0  0  0  0  0  0  0
    5.9340    3.4517  -12.4821 C   0  0  0  0  0  0  0  0  0  0  0  0
    6.4516    2.6399  -13.5028 C   0  0  0  0  0  0  0  0  0  0  0  0
    7.6599    2.8631  -14.0509 C   0  0  0  0  0  0  0  0  0  0  0  0
    8.3946    3.9426  -13.5701 C   0  0  0  0  0  0  0  0  0  0  0  0
    7.9346    1.8134  -15.0730 C   0  0  2  0  0  0  0  0  0  0  0  0
    6.7031    1.0320  -15.1410 C   0  0  0  0  0  0  0  0  0  0  0  0
    5.8501    1.4976  -14.1792 C   0  0  0  0  0  0  0  0  0  0  0  0
    4.6059    0.8814  -14.0297 C   0  0  0  0  0  0  0  0  0  0  0  0
    4.2151   -0.1677  -14.8138 C   0  0  0  0  0  0  0  0  0  0  0  0
    5.1023   -0.6030  -15.7706 C   0  0  0  0  0  0  0  0  0  0  0  0
    5.0104   -1.6027  -16.7043 N   0  0  0  0  0  0  0  0  0  0  0  0
    6.1161   -1.6504  -17.4257 N   0  0  0  0  0  0  0  0  0  0  0  0
    6.2439   -2.3488  -18.1953 H   0  0  0  0  0  0  0  0  0  0  0  0
    6.9694   -0.7106  -17.0153 C   0  0  0  0  0  0  0  0  0  0  0  0
    6.3512   -0.0464  -15.9795 C   0  0  0  0  0  0  0  0  0  0  0  0
    9.0904    1.0396  -14.4801 C   0  0  0  0  0  0  0  0  0  0  0  0
    9.8734    0.2989  -15.4989 C   0  0  0  0  0  0  0  0  0  0  0  0
   10.1175    0.9357  -16.6819 O   0  0  0  0  0  0  0  0  0  0  0  0
    9.8479    2.3184  -16.6071 C   0  0  0  0  0  0  0  0  0  0  0  0
    8.3573    2.4152  -16.3775 C   0  0  0  0  0  0  0  0  0  0  0  0
   11.1812    7.7158   -6.7670 C   0  0  0  0  0  0  0  0  0  0  0  0
   11.4938    8.6511   -7.7274 C   0  0  0  0  0  0  0  0  0  0  0  0
   11.0362    8.4477   -9.0210 C   0  0  0  0  0  0  0  0  0  0  0  0
   10.2813    7.3219   -9.3248 C   0  0  0  0  0  0  0  0  0  0  0  0
    9.8127    7.0749  -10.5611 N   0  0  0  0  0  0  0  0  0  0  0  0
    9.0815    5.9959  -10.8825 C   0  0  0  0  0  0  0  0  0  0  0  0
    8.6772    5.8468  -12.0986 N   0  0  0  0  0  0  0  0  0  0  0  0
    8.7698    5.0758   -9.9533 N   0  0  0  0  0  0  0  0  0  0  0  0
    8.1940    4.2221  -10.1964 H   0  0  0  0  0  0  0  0  0  0  0  0
    9.2149    5.2770   -8.7024 C   0  0  0  0  0  0  0  0  0  0  0  0
    9.9643    6.3808   -8.3676 C   0  0  0  0  0  0  0  0  0  0  0  0
   10.4323    6.6026   -7.0769 C   0  0  0  0  0  0  0  0  0  0  0  0
   12.4803    8.1604   -2.8135 C   0  0  0  0  0  0  0  0  0  0  0  0
   11.7770    7.0127   -3.1577 C   0  0  0  0  0  0  0  0  0  0  0  0
   11.3621    6.9002   -4.4788 C   0  0  0  0  0  0  0  0  0  0  0  0
   11.6416    7.8899   -5.3976 C   0  0  0  0  0  0  0  0  0  0  0  0
   12.3364    9.0209   -5.0521 C   0  0  0  0  0  0  0  0  0  0  0  0
   12.7647    9.1573   -3.7289 C   0  0  0  0  0  0  0  0  0  0  0  0
 35 36  2  0
 36 37  1  0
 37 38  2  0
 38 23  1  0
 23 24  1  0
 24 25  2  0
 25 26  1  0
 26 27  2  0
 27 28  1  0
 28 29  2  0
 29  1  1  0
  1  2  2  0
  2  3  1  0
  3  4  2  0
  4  5  1  0
  5  6  2  0
  5  7  1  0
  7  8  1  0
  8  9  2  0
  9 10  1  0
 10 11  2  0
 11 12  1  0
 12 13  2  0
 13 14  1  0
 14 15  1  0
 14 16  1  0
 16 17  2  0
  7 18  1  1
 18 19  1  0
 19 20  1  0
 20 21  1  0
 21 22  1  0
 28 30  1  0
 30 31  1  0
 30 32  1  0
 32 33  2  0
 33 34  1  0
 38 39  1  0
 39 40  2  0
 40 35  1  0
 34 23  2  0
 33 26  1  0
  6  1  1  0
 22  7  1  0
  9  4  1  0
 17 12  1  0
 17  8  1  0
M  END
>  <minimizedAffinity>  (701) 
-16.72402

$$$$
Mol: 159_55 - SminaDock
     RDKit          3D

 38 44  0  0  0  0  0  0  0  0999 V2000
    8.7546    5.7848  -12.3165 C   0  0  0  0  0  0  0  0  0  0  0  0
    9.5710    5.0136  -13.1134 C   0  0  0  0  0  0  0  0  0  0  0  0
    9.0409    3.8291  -13.6368 C   0  0  0  0  0  0  0  0  0  0  0  0
    7.7485    3.4664  -13.3532 C   0  0  0  0  0  0  0  0  0  0  0  0
    6.9538    4.2501  -12.5555 C   0  0  0  0  0  0  0  0  0  0  0  0
    7.4721    5.4545  -12.0162 C   0  0  0  0  0  0  0  0  0  0  0  0
    5.5675    3.9135  -12.1694 C   0  0  0  0  0  0  0  0  0  0  0  0
    4.9950    2.7837  -12.8878 C   0  0  0  0  0  0  0  0  0  0  0  0
    5.9074    1.9412  -13.6762 C   0  0  0  0  0  0  0  0  0  0  0  0
    7.2231    2.2385  -13.9563 C   0  0  0  0  0  0  0  0  0  0  0  0
    8.0033    1.4634  -14.6987 N   0  0  0  0  0  0  0  0  0  0  0  0
    8.9758    1.6055  -14.9529 H   0  0  0  0  0  0  0  0  0  0  0  0
    7.4507    0.3156  -15.1991 C   0  0  0  0  0  0  0  0  0  0  0  0
    8.1332   -0.4656  -15.9109 O   0  0  0  0  0  0  0  0  0  0  0  0
    6.1488   -0.0417  -14.9587 C   0  0  0  0  0  0  0  0  0  0  0  0
    5.3807   -1.0936  -15.3246 N   0  0  0  0  0  0  0  0  0  0  0  0
    4.1622   -0.9163  -14.7902 C   0  0  0  0  0  0  0  0  0  0  0  0
    4.1542    0.2397  -14.0892 N   0  0  0  0  0  0  0  0  0  0  0  0
    3.3192    0.6128  -13.5713 H   0  0  0  0  0  0  0  0  0  0  0  0
    5.3710    0.7682  -14.1967 C   0  0  0  0  0  0  0  0  0  0  0  0
   11.2664    8.0650   -6.0015 C   0  0  0  0  0  0  0  0  0  0  0  0
   11.4277    9.1804   -6.7937 C   0  0  0  0  0  0  0  0  0  0  0  0
   11.0816    9.2277   -8.1099 C   0  0  0  0  0  0  0  0  0  0  0  0
   10.5358    8.0904   -8.6876 C   0  0  0  0  0  0  0  0  0  0  0  0
   10.3602    6.9580   -7.9258 C   0  0  0  0  0  0  0  0  0  0  0  0
    9.8126    5.8286   -8.5211 C   0  0  0  0  0  0  0  0  0  0  0  0
    9.4946    5.9314   -9.8048 N   0  0  0  0  0  0  0  0  0  0  0  0
    9.6541    7.0115  -10.5602 C   0  0  0  0  0  0  0  0  0  0  0  0
    9.3059    6.9841  -11.7929 N   0  0  0  0  0  0  0  0  0  0  0  0
   10.1875    8.1165   -9.9865 N   0  0  0  0  0  0  0  0  0  0  0  0
   10.3194    8.9812  -10.5758 H   0  0  0  0  0  0  0  0  0  0  0  0
   10.7225    6.9527   -6.6029 C   0  0  0  0  0  0  0  0  0  0  0  0
   12.3728    7.9489   -1.9083 C   0  0  0  0  0  0  0  0  0  0  0  0
   12.3669    9.1493   -2.5777 C   0  0  0  0  0  0  0  0  0  0  0  0
   12.0099    9.1982   -3.9043 C   0  0  0  0  0  0  0  0  0  0  0  0
   11.6547    8.0570   -4.5824 C   0  0  0  0  0  0  0  0  0  0  0  0
   11.6661    6.8584   -3.8943 C   0  0  0  0  0  0  0  0  0  0  0  0
   12.0238    6.8089   -2.5645 C   0  0  0  0  0  0  0  0  0  0  0  0
 33 34  2  0
 34 35  1  0
 35 36  2  0
 36 21  1  0
 21 22  2  0
 22 23  1  0
 23 24  2  0
 24 25  1  0
 25 26  1  0
 26 27  2  0
 27 28  1  0
 28 29  2  0
 29  1  1  0
  1  2  2  0
  2  3  1  0
  3  4  2  0
  4  5  1  0
  5  6  2  0
  5  7  1  0
  7  8  1  0
  8  9  1  0
  9 10  2  0
 10 11  1  0
 11 12  1  0
 11 13  1  0
 13 14  2  0
 13 15  1  0
 15 16  1  0
 16 17  2  0
 17 18  1  0
 18 19  1  0
 18 20  1  0
 28 30  1  0
 30 31  1  0
 25 32  2  0
 36 37  1  0
 37 38  2  0
 38 33  1  0
 32 21  1  0
 30 24  1  0
  6  1  1  0
 20  9  1  0
 10  4  1  0
 20 15  2  0
M  END
>  <minimizedAffinity>  (702) 
-16.73126

$$$$
Mol: 122_17 - SminaDock
     RDKit          3D

 38 44  0  0  0  0  0  0  0  0999 V2000
    8.2045    5.2203  -12.4474 C   0  0  0  0  0  0  0  0  0  0  0  0
    6.8885    5.3117  -12.0528 C   0  0  0  0  0  0  0  0  0  0  0  0
    5.9591    4.3839  -12.4592 C   0  0  0  0  0  0  0  0  0  0  0  0
    6.3620    3.3308  -13.2880 C   0  0  0  0  0  0  0  0  0  0  0  0
    7.6753    3.2165  -13.6975 C   0  0  0  0  0  0  0  0  0  0  0  0
    8.5728    4.1531  -13.2770 C   0  0  0  0  0  0  0  0  0  0  0  0
    8.2083    2.1532  -14.5597 C   0  0  2  0  0  0  0  0  0  0  0  0
    7.9194    0.8464  -13.8687 C   0  0  0  0  0  0  0  0  0  0  0  0
    6.5169    0.3770  -14.0759 C   0  0  0  0  0  0  0  0  0  0  0  0
    6.4473   -0.9471  -14.4461 C   0  0  0  0  0  0  0  0  0  0  0  0
    5.2140   -1.5049  -14.6665 C   0  0  0  0  0  0  0  0  0  0  0  0
    4.0351   -0.8027  -14.5353 C   0  0  0  0  0  0  0  0  0  0  0  0
    4.1470    0.5119  -14.1655 C   0  0  0  0  0  0  0  0  0  0  0  0
    5.3904    1.1214  -13.9303 C   0  0  0  0  0  0  0  0  0  0  0  0
    5.1666    2.5170  -13.5585 C   0  0  0  0  0  0  0  0  0  0  0  0
    9.6942    2.2677  -14.7984 C   0  0  0  0  0  0  0  0  0  0  0  0
   10.2208    1.1418  -15.6430 C   0  0  0  0  0  0  0  0  0  0  0  0
    9.2763    0.6090  -16.6481 C   0  0  0  0  0  0  0  0  0  0  0  0
    8.0961    1.4314  -16.9708 C   0  0  0  0  0  0  0  0  0  0  0  0
    7.5522    2.2991  -15.9067 C   0  0  0  0  0  0  0  0  0  0  0  0
   11.3053    7.8126   -6.3618 C   0  0  0  0  0  0  0  0  0  0  0  0
   11.8760    8.5855   -7.3273 C   0  0  0  0  0  0  0  0  0  0  0  0
   11.5687    8.4359   -8.6856 C   0  0  0  0  0  0  0  0  0  0  0  0
   10.6712    7.4934   -9.0929 C   0  0  0  0  0  0  0  0  0  0  0  0
   10.3365    7.3049  -10.3927 N   0  0  0  0  0  0  0  0  0  0  0  0
    9.4513    6.3731  -10.7801 C   0  0  0  0  0  0  0  0  0  0  0  0
    9.1251    6.1850  -12.0138 N   0  0  0  0  0  0  0  0  0  0  0  0
    8.8890    5.6106   -9.8232 N   0  0  0  0  0  0  0  0  0  0  0  0
    8.1930    4.8703  -10.0713 H   0  0  0  0  0  0  0  0  0  0  0  0
    9.1711    5.7399   -8.5173 C   0  0  0  0  0  0  0  0  0  0  0  0
   10.0877    6.7055   -8.1234 C   0  0  0  0  0  0  0  0  0  0  0  0
   10.3850    6.8467   -6.7837 C   0  0  0  0  0  0  0  0  0  0  0  0
   12.0631    9.2573   -3.0557 C   0  0  0  0  0  0  0  0  0  0  0  0
   11.8116    9.1269   -4.3639 N   0  0  0  0  0  0  0  0  0  0  0  0
   11.5772    7.9111   -4.9230 C   0  0  0  0  0  0  0  0  0  0  0  0
   11.5966    6.7856   -4.1377 C   0  0  0  0  0  0  0  0  0  0  0  0
   11.8523    6.9012   -2.7973 C   0  0  0  0  0  0  0  0  0  0  0  0
   12.0857    8.1411   -2.2578 C   0  0  0  0  0  0  0  0  0  0  0  0
 33 34  2  0
 34 35  1  0
 35 21  1  0
 21 22  1  0
 22 23  2  0
 23 24  1  0
 24 25  2  0
 25 26  1  0
 26 27  2  0
 27  1  1  0
  1  2  2  0
  2  3  1  0
  3  4  2  0
  4  5  1  0
  5  6  2  0
  5  7  1  0
  7  8  1  1
  8  9  1  0
  9 10  2  0
 10 11  1  0
 11 12  2  0
 12 13  1  0
 13 14  2  0
 14 15  1  0
  7 16  1  0
 16 17  1  0
 17 18  1  0
 18 19  1  0
 19 20  1  0
 26 28  1  0
 28 29  1  0
 28 30  1  0
 30 31  2  0
 31 32  1  0
 35 36  2  0
 36 37  1  0
 37 38  2  0
 38 33  1  0
 32 21  2  0
 31 24  1  0
  6  1  1  0
 20  7  1  0
 15  4  1  0
 14  9  1  0
M  END
>  <minimizedAffinity>  (703) 
-16.74183

$$$$
Mol: 196_32 - SminaDock
     RDKit          3D

 41 47  0  0  0  0  0  0  0  0999 V2000
    8.8580    5.8053  -12.3227 C   0  0  0  0  0  0  0  0  0  0  0  0
    9.7499    4.9801  -12.9282 C   0  0  0  0  0  0  0  0  0  0  0  0
    9.3488    3.8097  -13.5916 C   0  0  0  0  0  0  0  0  0  0  0  0
    8.0216    3.5000  -13.6293 C   0  0  0  0  0  0  0  0  0  0  0  0
    7.0904    4.3351  -13.0121 C   0  0  0  0  0  0  0  0  0  0  0  0
    7.5266    5.4783  -12.3657 C   0  0  0  0  0  0  0  0  0  0  0  0
    5.6247    4.0835  -13.0575 C   0  0  0  0  0  0  0  0  0  0  0  0
    5.3437    2.6491  -13.2090 C   0  0  0  0  0  0  0  0  0  0  0  0
    6.2787    1.8552  -14.0117 C   0  0  0  0  0  0  0  0  0  0  0  0
    5.7992    0.6821  -14.5768 C   0  0  0  0  0  0  0  0  0  0  0  0
    6.6186   -0.1458  -15.2995 C   0  0  0  0  0  0  0  0  0  0  0  0
    7.9293    0.2255  -15.4497 C   0  0  0  0  0  0  0  0  0  0  0  0
    8.4611    1.4164  -14.8946 C   0  0  0  0  0  0  0  0  0  0  0  0
    7.5973    2.1980  -14.1785 C   0  0  0  0  0  0  0  0  0  0  0  0
    5.8718   -1.2500  -15.7436 O   0  0  0  0  0  0  0  0  0  0  0  0
    4.4969   -0.9086  -15.7448 C   0  0  0  0  0  0  0  0  0  0  0  0
    4.4761    0.0490  -14.5815 C   0  0  0  0  0  0  0  0  0  0  0  0
    3.5559    0.2796  -13.7782 O   0  0  0  0  0  0  0  0  0  0  0  0
   11.2093    8.0914   -5.8839 C   0  0  0  0  0  0  0  0  0  0  0  0
   11.2253    9.2672   -6.6042 C   0  0  0  0  0  0  0  0  0  0  0  0
   10.8314    9.2866   -7.9459 C   0  0  0  0  0  0  0  0  0  0  0  0
   10.4246    8.0983   -8.5359 C   0  0  0  0  0  0  0  0  0  0  0  0
   10.4137    6.9204   -7.7975 C   0  0  0  0  0  0  0  0  0  0  0  0
   10.8058    6.9134   -6.4702 C   0  0  0  0  0  0  0  0  0  0  0  0
   10.0133    5.7581   -8.3830 C   0  0  0  0  0  0  0  0  0  0  0  0
    9.6266    5.8165   -9.7253 C   0  0  0  0  0  0  0  0  0  0  0  0
    9.6501    6.9960  -10.4227 C   0  0  0  0  0  0  0  0  0  0  0  0
    9.2907    7.0068  -11.6473 N   0  0  0  0  0  0  0  0  0  0  0  0
   10.0486    8.1307   -9.8255 N   0  0  0  0  0  0  0  0  0  0  0  0
   10.0527    9.0074  -10.3885 H   0  0  0  0  0  0  0  0  0  0  0  0
   12.3952    8.0235   -1.8624 C   0  0  0  0  0  0  0  0  0  0  0  0
   12.2901    9.2270   -2.5381 C   0  0  0  0  0  0  0  0  0  0  0  0
   11.9021    9.2674   -3.8588 C   0  0  0  0  0  0  0  0  0  0  0  0
   11.6207    8.0953   -4.4960 C   0  0  0  0  0  0  0  0  0  0  0  0
   11.7202    6.8827   -3.8370 C   0  0  0  0  0  0  0  0  0  0  0  0
   12.1084    6.8582   -2.5198 C   0  0  0  0  0  0  0  0  0  0  0  0
    9.8155    1.6967  -15.2744 C   0  0  0  0  0  0  0  0  0  0  0  0
   10.7548    1.2152  -14.5527 O   0  0  0  0  0  0  0  0  0  0  0  0
   10.2287    2.4636  -16.4167 N   0  0  0  0  0  0  0  0  0  0  0  0
   11.1500    2.9472  -16.4064 H   0  0  0  0  0  0  0  0  0  0  0  0
    9.5625    2.4940  -17.2162 H   0  0  0  0  0  0  0  0  0  0  0  0
 31 32  2  0
 32 33  1  0
 33 34  2  0
 34 19  1  0
 19 20  2  0
 20 21  1  0
 21 22  2  0
 22 23  1  0
 23 24  2  0
 23 25  1  0
 25 26  2  0
 26 27  1  0
 27 28  2  0
 28  1  1  0
  1  2  2  0
  2  3  1  0
  3  4  2  0
  4  5  1  0
  5  6  2  0
  5  7  1  0
  7  8  1  0
  8  9  1  0
  9 10  2  0
 10 11  1  0
 11 12  2  0
 12 13  1  0
 13 37  1  0
 37 38  2  0
 37 39  1  0
 39 40  1  0
 39 41  1  0
 13 14  2  0
 11 15  1  0
 15 16  1  0
 16 17  1  0
 17 18  2  0
 27 29  1  0
 29 30  1  0
 34 35  1  0
 35 36  2  0
 36 31  1  0
 24 19  1  0
  6  1  1  0
 14  9  1  0
 29 22  1  0
 14  4  1  0
 17 10  1  0
M  END
>  <minimizedAffinity>  (704) 
-16.70799

$$$$
Mol: 162_55 - SminaDock
     RDKit          3D

 37 43  0  0  0  0  0  0  0  0999 V2000
    8.7365    5.9542  -12.5458 C   0  0  0  0  0  0  0  0  0  0  0  0
    9.3021    5.2361  -13.5728 C   0  0  0  0  0  0  0  0  0  0  0  0
    8.6597    4.1169  -14.1311 C   0  0  0  0  0  0  0  0  0  0  0  0
    7.4482    3.7606  -13.6205 C   0  0  0  0  0  0  0  0  0  0  0  0
    6.8643    4.4794  -12.5864 C   0  0  0  0  0  0  0  0  0  0  0  0
    7.5113    5.5775  -12.0465 C   0  0  0  0  0  0  0  0  0  0  0  0
    5.4997    4.1383  -12.1508 C   0  0  0  0  0  0  0  0  0  0  0  0
    5.2621    2.6858  -12.1826 C   0  0  0  0  0  0  0  0  0  0  0  0
    5.7048    2.0865  -13.4670 C   0  0  0  0  0  0  0  0  0  0  0  0
    5.0214    0.9984  -13.9729 C   0  0  0  0  0  0  0  0  0  0  0  0
    5.4737    0.3557  -15.0854 C   0  0  0  0  0  0  0  0  0  0  0  0
    4.7913   -0.7532  -15.6124 C   0  0  0  0  0  0  0  0  0  0  0  0
    5.2560   -1.3989  -16.7382 C   0  0  0  0  0  0  0  0  0  0  0  0
    6.3967   -0.9287  -17.3238 C   0  0  0  0  0  0  0  0  0  0  0  0
    7.0692    0.1587  -16.8102 C   0  0  0  0  0  0  0  0  0  0  0  0
    6.6107    0.8234  -15.6701 C   0  0  0  0  0  0  0  0  0  0  0  0
    7.3063    1.9233  -15.1674 C   0  0  0  0  0  0  0  0  0  0  0  0
    8.3151    2.2361  -15.7967 O   0  0  0  0  0  0  0  0  0  0  0  0
    6.8353    2.5310  -14.0776 N   0  0  0  0  0  0  0  0  0  0  0  0
   11.2682    7.9559   -6.0862 C   0  0  0  0  0  0  0  0  0  0  0  0
   11.5897    9.0626   -6.8458 C   0  0  0  0  0  0  0  0  0  0  0  0
   11.2772    9.1174   -8.2030 C   0  0  0  0  0  0  0  0  0  0  0  0
   10.6310    8.0479   -8.8166 C   0  0  0  0  0  0  0  0  0  0  0  0
   10.3167    8.0701  -10.1200 N   0  0  0  0  0  0  0  0  0  0  0  0
    9.6939    7.0453  -10.7221 C   0  0  0  0  0  0  0  0  0  0  0  0
    9.3958    7.0823  -11.9885 N   0  0  0  0  0  0  0  0  0  0  0  0
    9.3815    5.9706   -9.9846 N   0  0  0  0  0  0  0  0  0  0  0  0
    8.8968    5.1507  -10.4094 H   0  0  0  0  0  0  0  0  0  0  0  0
    9.6719    5.8995   -8.6863 C   0  0  0  0  0  0  0  0  0  0  0  0
   10.3100    6.9433   -8.0587 C   0  0  0  0  0  0  0  0  0  0  0  0
   10.6282    6.9019   -6.7037 C   0  0  0  0  0  0  0  0  0  0  0  0
   12.3107    7.9948   -1.9662 C   0  0  0  0  0  0  0  0  0  0  0  0
   11.9713    6.8286   -2.6067 C   0  0  0  0  0  0  0  0  0  0  0  0
   11.6306    6.8081   -3.9481 C   0  0  0  0  0  0  0  0  0  0  0  0
   11.6250    7.9681   -4.6751 C   0  0  0  0  0  0  0  0  0  0  0  0
   11.9656    9.1737   -4.0542 C   0  0  0  0  0  0  0  0  0  0  0  0
   12.3027    9.1646   -2.7088 C   0  0  0  0  0  0  0  0  0  0  0  0
 32 33  2  0
 33 34  1  0
 34 35  2  0
 35 20  1  0
 20 21  1  0
 21 22  2  0
 22 23  1  0
 23 24  2  0
 24 25  1  0
 25 26  2  0
 26  1  1  0
  1  2  2  0
  2  3  1  0
  3  4  2  0
  4  5  1  0
  5  6  2  0
  5  7  1  0
  7  8  1  0
  8  9  1  0
  9 10  2  0
 10 11  1  0
 11 12  2  0
 12 13  1  0
 13 14  2  0
 14 15  1  0
 15 16  2  0
 16 17  1  0
 17 18  2  0
 17 19  1  0
 25 27  1  0
 27 28  1  0
 27 29  1  0
 29 30  2  0
 30 31  1  0
 35 36  1  0
 36 37  2  0
 37 32  1  0
 31 20  2  0
 30 23  1  0
  6  1  1  0
 19  9  1  0
 19  4  1  0
 16 11  1  0
M  END
>  <minimizedAffinity>  (705) 
-16.74027

$$$$
Mol: 163_9 - SminaDock
     RDKit          3D

 41 47  0  0  0  0  0  0  0  0999 V2000
    8.8029    5.8012  -12.4410 C   0  0  0  0  0  0  0  0  0  0  0  0
    7.4358    5.6236  -12.5127 C   0  0  0  0  0  0  0  0  0  0  0  0
    6.8473    4.5154  -13.0943 C   0  0  0  0  0  0  0  0  0  0  0  0
    7.7186    3.5875  -13.6003 C   0  0  0  0  0  0  0  0  0  0  0  0
    9.1132    3.7081  -13.5627 C   0  0  0  0  0  0  0  0  0  0  0  0
    9.6407    4.8256  -12.9765 C   0  0  0  0  0  0  0  0  0  0  0  0
   10.2282    2.8669  -14.0731 C   0  0  0  0  0  0  0  0  0  0  0  0
    9.6544    1.8298  -15.0312 C   0  0  0  0  0  0  0  0  0  0  0  0
    8.9504    2.4493  -16.1136 N   0  0  2  0  0  0  0  0  0  0  0  0
    9.5050    2.4818  -16.9995 H   0  0  0  0  0  0  0  0  0  0  0  0
    8.6334    3.4128  -15.8691 H   0  0  0  0  0  0  0  0  0  0  0  0
    7.7137    1.6916  -16.3889 C   0  0  0  0  0  0  0  0  0  0  0  0
    6.8294    1.7691  -15.2504 N   0  0  0  0  0  0  0  0  0  0  0  0
    6.8351    2.5304  -14.0991 C   0  0  0  0  0  0  0  0  0  0  0  0
    5.7867    2.2080  -13.2928 C   0  0  0  0  0  0  0  0  0  0  0  0
    5.4932    2.7309  -11.9565 C   0  0  0  0  0  0  0  0  0  0  0  0
    5.1113    1.1986  -14.0054 C   0  0  0  0  0  0  0  0  0  0  0  0
    4.0473    0.4017  -13.9134 N   0  0  0  0  0  0  0  0  0  0  0  0
    4.0398   -0.3407  -15.0392 C   0  0  0  0  0  0  0  0  0  0  0  0
    3.1623   -1.2053  -15.2807 O   0  0  0  0  0  0  0  0  0  0  0  0
    5.1032    0.0024  -15.8246 N   0  0  0  0  0  0  0  0  0  0  0  0
    5.4192   -0.5873  -17.1151 C   0  0  0  0  0  0  0  0  0  0  0  0
    5.7806    0.9619  -15.1917 C   0  0  0  0  0  0  0  0  0  0  0  0
   11.2616    8.1443   -6.0435 C   0  0  0  0  0  0  0  0  0  0  0  0
   11.4077    9.2445   -6.8413 C   0  0  0  0  0  0  0  0  0  0  0  0
   11.0621    9.2694   -8.1734 C   0  0  0  0  0  0  0  0  0  0  0  0
   10.5326    8.1141   -8.7531 C   0  0  0  0  0  0  0  0  0  0  0  0
   10.3826    7.0008   -7.9544 C   0  0  0  0  0  0  0  0  0  0  0  0
    9.8613    5.8640   -8.5260 C   0  0  0  0  0  0  0  0  0  0  0  0
    9.5254    5.8863   -9.8190 N   0  0  0  0  0  0  0  0  0  0  0  0
    9.6829    6.9868  -10.5740 C   0  0  0  0  0  0  0  0  0  0  0  0
    9.3475    6.9735  -11.8232 N   0  0  0  0  0  0  0  0  0  0  0  0
   10.1871    8.1176  -10.0591 N   0  0  0  0  0  0  0  0  0  0  0  0
   10.3237    8.9994  -10.6249 H   0  0  0  0  0  0  0  0  0  0  0  0
   10.7403    6.9985   -6.6041 C   0  0  0  0  0  0  0  0  0  0  0  0
   12.2999    7.8935   -1.9456 C   0  0  0  0  0  0  0  0  0  0  0  0
   12.2966    9.1372   -2.5846 C   0  0  0  0  0  0  0  0  0  0  0  0
   11.9588    9.2394   -3.9281 C   0  0  0  0  0  0  0  0  0  0  0  0
   11.6256    8.1152   -4.6364 C   0  0  0  0  0  0  0  0  0  0  0  0
   11.6343    6.8987   -3.9910 C   0  0  0  0  0  0  0  0  0  0  0  0
   11.9680    6.7752   -2.6525 C   0  0  0  0  0  0  0  0  0  0  0  0
 36 37  2  0
 37 38  1  0
 38 39  2  0
 39 24  1  0
 24 25  2  0
 25 26  1  0
 26 27  2  0
 27 28  1  0
 28 29  1  0
 29 30  2  0
 30 31  1  0
 31 32  2  0
 32  1  1  0
  1  2  2  0
  2  3  1  0
  3  4  2  0
  4  5  1  0
  5  6  2  0
  5  7  1  0
  7  8  1  0
  8  9  1  0
  9 10  1  6
  9 11  1  0
  9 12  1  0
 12 13  1  0
 13 14  1  0
 14 15  2  0
 15 16  1  0
 15 17  1  0
 17 18  1  0
 18 19  1  0
 19 20  2  0
 19 21  1  0
 21 22  1  0
 21 23  1  0
 31 33  1  0
 33 34  1  0
 28 35  2  0
 39 40  1  0
 40 41  2  0
 41 36  1  0
 35 24  1  0
 33 27  1  0
  6  1  1  0
 23 13  1  0
 14  4  1  0
 23 17  2  0
M  CHG  2   9   1  18  -1
M  END
>  <minimizedAffinity>  (706) 
-16.66055

$$$$
Mol: 162_34 - SminaDock
     RDKit          3D

 38 44  0  0  0  0  0  0  0  0999 V2000
    8.7455    5.8716  -12.4124 C   0  0  0  0  0  0  0  0  0  0  0  0
    9.4700    5.2063  -13.3928 C   0  0  0  0  0  0  0  0  0  0  0  0
    8.9922    4.0677  -14.0046 C   0  0  0  0  0  0  0  0  0  0  0  0
    7.7615    3.5867  -13.6246 C   0  0  0  0  0  0  0  0  0  0  0  0
    7.0079    4.2183  -12.6532 C   0  0  0  0  0  0  0  0  0  0  0  0
    7.5192    5.3561  -12.0628 C   0  0  0  0  0  0  0  0  0  0  0  0
    5.6861    3.7845  -12.1834 C   0  0  0  0  0  0  0  0  0  0  0  0
    5.1537    2.5717  -12.7963 C   0  0  0  0  0  0  0  0  0  0  0  0
    5.9402    1.9017  -13.8282 C   0  0  0  0  0  0  0  0  0  0  0  0
    5.4417    0.7422  -14.4441 C   0  0  0  0  0  0  0  0  0  0  0  0
    6.1459    0.0810  -15.4138 C   0  0  0  0  0  0  0  0  0  0  0  0
    7.3270    0.5730  -15.7591 N   0  0  0  0  0  0  0  0  0  0  0  0
    7.8761    1.6990  -15.2018 C   0  0  0  0  0  0  0  0  0  0  0  0
    8.9855    2.0742  -15.5957 O   0  0  0  0  0  0  0  0  0  0  0  0
    7.1874    2.3829  -14.2237 C   0  0  0  0  0  0  0  0  0  0  0  0
    8.1006   -0.0919  -16.7784 C   0  0  0  0  0  0  0  0  0  0  0  0
    7.1198   -0.5290  -17.8426 C   0  0  0  0  0  0  0  0  0  0  0  0
    6.1151   -1.4129  -17.3585 N   0  0  0  0  0  0  0  0  0  0  0  0
    5.0441   -1.4843  -18.3336 C   0  0  0  0  0  0  0  0  0  0  0  0
    5.5987   -1.1590  -16.0610 C   0  0  0  0  0  0  0  0  0  0  0  0
   11.1997    8.0680   -6.0069 C   0  0  0  0  0  0  0  0  0  0  0  0
   11.2720    9.2114   -6.7742 C   0  0  0  0  0  0  0  0  0  0  0  0
   10.8956    9.2466   -8.0874 C   0  0  0  0  0  0  0  0  0  0  0  0
   10.4259    8.0879   -8.6597 C   0  0  0  0  0  0  0  0  0  0  0  0
   10.3376    6.9187   -7.9242 C   0  0  0  0  0  0  0  0  0  0  0  0
    9.8582    5.7744   -8.5419 C   0  0  0  0  0  0  0  0  0  0  0  0
    9.5001    5.8479   -9.8259 N   0  0  0  0  0  0  0  0  0  0  0  0
    9.5862    6.9787  -10.5352 C   0  0  0  0  0  0  0  0  0  0  0  0
    9.2413    7.0552  -11.7758 N   0  0  0  0  0  0  0  0  0  0  0  0
   10.0485    8.0916   -9.9475 N   0  0  0  0  0  0  0  0  0  0  0  0
   10.1057    8.9723  -10.5346 H   0  0  0  0  0  0  0  0  0  0  0  0
   10.7258    6.9177   -6.6010 C   0  0  0  0  0  0  0  0  0  0  0  0
   12.3911    7.9802   -1.9317 C   0  0  0  0  0  0  0  0  0  0  0  0
   12.3021    9.1804   -2.5862 C   0  0  0  0  0  0  0  0  0  0  0  0
   11.9116    9.2323   -3.9287 C   0  0  0  0  0  0  0  0  0  0  0  0
   11.6128    8.0756   -4.6047 C   0  0  0  0  0  0  0  0  0  0  0  0
   11.7054    6.8826   -3.9400 C   0  0  0  0  0  0  0  0  0  0  0  0
   12.0956    6.8240   -2.5971 C   0  0  0  0  0  0  0  0  0  0  0  0
 33 34  2  0
 34 35  1  0
 35 36  2  0
 36 21  1  0
 21 22  2  0
 22 23  1  0
 23 24  2  0
 24 25  1  0
 25 26  1  0
 26 27  2  0
 27 28  1  0
 28 29  2  0
 29  1  1  0
  1  2  2  0
  2  3  1  0
  3  4  2  0
  4  5  1  0
  5  6  2  0
  5  7  1  0
  7  8  1  0
  8  9  1  0
  9 10  1  0
 10 11  2  0
 11 12  1  0
 12 13  1  0
 13 14  2  0
 13 15  1  0
 12 16  1  0
 16 17  1  0
 17 18  1  0
 18 19  1  0
 18 20  1  0
 28 30  1  0
 30 31  1  0
 25 32  2  0
 36 37  1  0
 37 38  2  0
 38 33  1  0
 32 21  1  0
 30 24  1  0
  6  1  1  0
 15  9  2  0
 15  4  1  0
 20 11  1  0
M  END
>  <minimizedAffinity>  (707) 
-16.66639

$$$$
Mol: 137_34 - SminaDock
     RDKit          3D

 45 52  0  0  0  0  0  0  0  0999 V2000
    8.0157   -2.3599  -20.6750 C   0  0  0  0  0  0  0  0  0  0  0  0
    6.8857   -2.4925  -19.7782 N   0  0  0  0  0  0  0  0  0  0  0  0
    6.7215   -1.6855  -18.6921 C   0  0  0  0  0  0  0  0  0  0  0  0
    5.6449   -1.8124  -17.8405 C   0  0  0  0  0  0  0  0  0  0  0  0
    4.6862   -2.7889  -18.0803 C   0  0  0  0  0  0  0  0  0  0  0  0
    4.8413   -3.6040  -19.1669 C   0  0  0  0  0  0  0  0  0  0  0  0
    5.9270   -3.4234  -19.9655 C   0  0  0  0  0  0  0  0  0  0  0  0
    6.0621   -4.1837  -20.9707 O   0  0  0  0  0  0  0  0  0  0  0  0
    5.2973   -1.1397  -16.7587 C   0  0  0  0  0  0  0  0  0  0  0  0
    4.1177   -1.5368  -16.1158 O   0  0  0  0  0  0  0  0  0  0  0  0
    5.9686   -0.0274  -16.1245 C   0  0  0  0  0  0  0  0  0  0  0  0
    5.2935    0.4425  -15.0100 C   0  0  0  0  0  0  0  0  0  0  0  0
    5.8236    1.5060  -14.3159 C   0  0  0  0  0  0  0  0  0  0  0  0
    7.0133    2.0890  -14.7350 C   0  0  0  0  0  0  0  0  0  0  0  0
    7.6733    1.6267  -15.8268 C   0  0  0  0  0  0  0  0  0  0  0  0
    7.1488    0.5443  -16.5465 C   0  0  0  0  0  0  0  0  0  0  0  0
    8.0781    0.2729  -17.6711 C   0  0  0  0  0  0  0  0  0  0  0  0
    7.6933   -0.8108  -18.5733 C   0  0  0  0  0  0  0  0  0  0  0  0
    7.5654    3.2454  -13.9976 C   0  0  0  0  0  0  0  0  0  0  0  0
    8.7540    3.8382  -14.3951 C   0  0  0  0  0  0  0  0  0  0  0  0
    9.2362    4.9072  -13.6836 C   0  0  0  0  0  0  0  0  0  0  0  0
    8.5833    5.4431  -12.5576 C   0  0  0  0  0  0  0  0  0  0  0  0
    7.4221    4.8186  -12.2161 C   0  0  0  0  0  0  0  0  0  0  0  0
    6.8817    3.7173  -12.9119 C   0  0  0  0  0  0  0  0  0  0  0  0
    5.6112    3.1395  -12.4414 C   0  0  0  0  0  0  0  0  0  0  0  0
    5.0854    1.9687  -13.1352 C   0  0  0  0  0  0  0  0  0  0  0  0
    3.2880   -0.9647  -16.1949 H   0  0  0  0  0  0  0  0  0  0  0  0
    9.1595    6.5422  -11.8766 N   0  0  0  0  0  0  0  0  0  0  0  0
    9.3605    7.3960  -12.4392 H   0  0  0  0  0  0  0  0  0  0  0  0
    9.4676    6.5307  -10.5085 C   0  0  0  0  0  0  0  0  0  0  0  0
    9.0664    5.6284   -9.6305 N   0  0  0  0  0  0  0  0  0  0  0  0
    9.3819    5.6747   -8.3464 C   0  0  0  0  0  0  0  0  0  0  0  0
   10.1679    6.7089   -7.8844 C   0  0  0  0  0  0  0  0  0  0  0  0
   10.5183    6.7976   -6.5500 C   0  0  0  0  0  0  0  0  0  0  0  0
   11.3007    7.8291   -6.0762 C   0  0  0  0  0  0  0  0  0  0  0  0
   11.7146    8.7647   -6.9989 C   0  0  0  0  0  0  0  0  0  0  0  0
   11.3738    8.6890   -8.3287 C   0  0  0  0  0  0  0  0  0  0  0  0
   10.5955    7.6573   -8.7816 C   0  0  0  0  0  0  0  0  0  0  0  0
   10.2435    7.5555  -10.0653 N   0  0  0  0  0  0  0  0  0  0  0  0
   11.6761    7.9384   -4.6736 C   0  0  0  0  0  0  0  0  0  0  0  0
   11.6337    6.8128   -3.8605 C   0  0  0  0  0  0  0  0  0  0  0  0
   11.9845    6.8830   -2.5170 C   0  0  0  0  0  0  0  0  0  0  0  0
   12.3786    8.1046   -2.0059 C   0  0  0  0  0  0  0  0  0  0  0  0
   12.4258    9.2262   -2.7962 C   0  0  0  0  0  0  0  0  0  0  0  0
   12.0713    9.1403   -4.1408 C   0  0  0  0  0  0  0  0  0  0  0  0
  1  2  1  0
  2  3  1  0
  3  4  1  0
  4  5  1  0
  5  6  2  0
  6  7  1  0
  7  8  2  0
  4  9  2  0
  9 10  1  0
  9 11  1  0
 11 12  2  0
 12 13  1  0
 13 14  2  0
 14 15  1  0
 15 16  2  0
 16 17  1  0
 17 18  1  0
 14 19  1  0
 19 20  2  0
 20 21  1  0
 21 22  2  0
 22 28  1  0
 28 30  1  0
 30 31  2  0
 31 32  1  0
 32 33  2  0
 33 34  1  0
 34 35  2  0
 35 40  1  0
 40 41  2  0
 41 42  1  0
 42 43  2  0
 43 44  1  0
 44 45  2  0
 35 36  1  0
 36 37  2  0
 37 38  1  0
 38 39  2  0
 22 23  1  0
 23 24  2  0
 24 25  1  0
 25 26  1  0
  7  2  1  0
 16 11  1  0
 24 19  1  0
 18  3  2  0
 39 30  1  0
 26 13  1  0
 38 33  1  0
 45 40  1  0
 10 27  1  0
 28 29  1  0
M  END
>  <minimizedAffinity>  (708) 
-16.67901

$$$$
Mol: 138_3 - SminaDock
     RDKit          3D

 42 49  0  0  0  0  0  0  0  0999 V2000
   12.0705    1.5865  -17.5429 H   0  0  0  0  0  0  0  0  0  0  0  0
   11.6947    1.5694  -16.6048 O   0  0  0  0  0  0  0  0  0  0  0  0
   10.6661    2.4262  -16.1962 C   0  0  0  0  0  0  0  0  0  0  0  0
   10.0377    3.2231  -16.9951 N   0  0  0  0  0  0  0  0  0  0  0  0
    9.0367    3.9752  -16.2835 C   0  0  0  0  0  0  0  0  0  0  0  0
    8.7590    3.0547  -15.0671 C   0  0  1  0  0  0  0  0  0  0  0  0
    8.3290    3.8484  -13.9205 C   0  0  0  0  0  0  0  0  0  0  0  0
    9.0765    4.9095  -13.4276 C   0  0  0  0  0  0  0  0  0  0  0  0
    8.6624    5.6662  -12.3552 C   0  0  0  0  0  0  0  0  0  0  0  0
    7.4633    5.3589  -11.7501 C   0  0  0  0  0  0  0  0  0  0  0  0
    6.6855    4.3164  -12.2008 C   0  0  0  0  0  0  0  0  0  0  0  0
    7.1461    3.5890  -13.2787 C   0  0  0  0  0  0  0  0  0  0  0  0
    6.3217    2.4744  -13.7354 C   0  0  0  0  0  0  0  0  0  0  0  0
    5.0861    1.9796  -13.3058 C   0  0  0  0  0  0  0  0  0  0  0  0
    4.7475    0.9102  -14.0968 C   0  0  0  0  0  0  0  0  0  0  0  0
    3.6478    0.0766  -14.0977 C   0  0  0  0  0  0  0  0  0  0  0  0
    3.5527   -0.9563  -15.0326 C   0  0  0  0  0  0  0  0  0  0  0  0
    4.5661   -1.1312  -15.9494 C   0  0  0  0  0  0  0  0  0  0  0  0
    5.6538   -0.2726  -15.9155 C   0  0  0  0  0  0  0  0  0  0  0  0
    5.7635    0.7457  -15.0056 C   0  0  0  0  0  0  0  0  0  0  0  0
    6.6960    1.7113  -14.7531 N   0  0  0  0  0  0  0  0  0  0  0  0
    7.9249    1.9115  -15.4437 C   0  0  0  0  0  0  0  0  0  0  0  0
   10.1467    2.5682  -14.8770 N   0  0  0  0  0  0  0  0  0  0  0  0
   10.6260    2.3760  -13.9833 H   0  0  0  0  0  0  0  0  0  0  0  0
    9.4639    6.7561  -11.8748 N   0  0  0  0  0  0  0  0  0  0  0  0
    9.7508    6.7970  -10.6218 C   0  0  0  0  0  0  0  0  0  0  0  0
    9.3163    5.8513   -9.7828 N   0  0  0  0  0  0  0  0  0  0  0  0
    9.5900    5.8497   -8.4621 C   0  0  0  0  0  0  0  0  0  0  0  0
   10.3546    6.8622   -7.9203 C   0  0  0  0  0  0  0  0  0  0  0  0
   10.6749    6.9259   -6.5779 C   0  0  0  0  0  0  0  0  0  0  0  0
   11.4377    7.9369   -6.0407 C   0  0  0  0  0  0  0  0  0  0  0  0
   11.8951    8.9254   -6.9012 C   0  0  0  0  0  0  0  0  0  0  0  0
   11.5715    8.8566   -8.2433 C   0  0  0  0  0  0  0  0  0  0  0  0
   10.8068    7.8424   -8.7801 C   0  0  0  0  0  0  0  0  0  0  0  0
   10.5022    7.7926  -10.0903 N   0  0  0  0  0  0  0  0  0  0  0  0
   10.8660    8.5536  -10.6963 H   0  0  0  0  0  0  0  0  0  0  0  0
   11.7595    7.9778   -4.6193 C   0  0  0  0  0  0  0  0  0  0  0  0
   12.1116    9.1388   -3.9636 C   0  0  0  0  0  0  0  0  0  0  0  0
   12.4143    9.1621   -2.6146 C   0  0  0  0  0  0  0  0  0  0  0  0
   12.3670    7.9957   -1.8885 C   0  0  0  0  0  0  0  0  0  0  0  0
   12.0136    6.8091   -2.5296 C   0  0  0  0  0  0  0  0  0  0  0  0
   11.7140    6.8131   -3.8869 C   0  0  0  0  0  0  0  0  0  0  0  0
  1  2  1  0
  2  3  1  0
  3  4  2  0
  4  5  1  0
  6  5  1  6
  6  7  1  0
  7  8  2  0
  8  9  1  0
  9 25  1  0
 25 26  2  0
 26 27  1  0
 27 28  2  0
 28 29  1  0
 29 30  2  0
 30 31  1  0
 31 37  1  0
 37 38  2  0
 38 39  1  0
 39 40  2  0
 40 41  1  0
 41 42  2  0
 31 32  2  0
 32 33  1  0
 33 34  2  0
 34 35  1  0
 35 36  1  0
  9 10  2  0
 10 11  1  0
 11 12  2  0
 12 13  1  0
 13 14  2  0
 14 15  1  0
 15 16  2  0
 16 17  1  0
 17 18  2  0
 18 19  1  0
 19 20  2  0
 20 21  1  0
 21 22  1  0
  6 23  1  0
 23 24  1  0
 23  3  1  0
 22  6  1  0
 12  7  1  0
 21 13  1  0
 35 26  1  0
 20 15  1  0
 34 29  1  0
 42 37  1  0
M  END
>  <minimizedAffinity>  (709) 
-16.70492

$$$$
Mol: 137_58 - SminaDock
     RDKit          3D

 38 44  0  0  0  0  0  0  0  0999 V2000
    3.8890   -1.8973  -15.0766 H   0  0  0  0  0  0  0  0  0  0  0  0
    4.3009   -1.6754  -15.9591 O   0  0  0  0  0  0  0  0  0  0  0  0
    5.4710   -0.9489  -16.1243 C   0  0  0  0  0  0  0  0  0  0  0  0
    6.4890   -1.1549  -16.9849 N   0  0  0  0  0  0  0  0  0  0  0  0
    7.4222   -0.2185  -16.8114 N   0  0  0  0  0  0  0  0  0  0  0  0
    8.6617   -0.1167  -17.5575 C   0  0  0  0  0  0  0  0  0  0  0  0
    7.0033    0.6002  -15.8295 C   0  0  0  0  0  0  0  0  0  0  0  0
    7.5445    1.7437  -15.2165 C   0  0  0  0  0  0  0  0  0  0  0  0
    6.8915    2.4120  -14.2061 C   0  0  0  0  0  0  0  0  0  0  0  0
    5.6693    1.9892  -13.7432 C   0  0  0  0  0  0  0  0  0  0  0  0
    5.1262    0.8500  -14.3528 C   0  0  0  0  0  0  0  0  0  0  0  0
    5.7772    0.1829  -15.3621 C   0  0  0  0  0  0  0  0  0  0  0  0
    4.9571    2.6500  -12.6361 C   0  0  0  0  0  0  0  0  0  0  0  0
    5.4450    3.9752  -12.2207 C   0  0  0  0  0  0  0  0  0  0  0  0
    6.8058    4.3543  -12.6398 C   0  0  0  0  0  0  0  0  0  0  0  0
    7.4017    5.4780  -12.0661 C   0  0  0  0  0  0  0  0  0  0  0  0
    8.6432    5.8689  -12.4790 C   0  0  0  0  0  0  0  0  0  0  0  0
    9.2903    5.1495  -13.4557 C   0  0  0  0  0  0  0  0  0  0  0  0
    8.7161    4.0375  -14.0313 C   0  0  0  0  0  0  0  0  0  0  0  0
    7.4655    3.6427  -13.6149 C   0  0  0  0  0  0  0  0  0  0  0  0
    9.2461    7.0301  -11.8787 N   0  0  0  0  0  0  0  0  0  0  0  0
    9.5881    7.0305  -10.6357 C   0  0  0  0  0  0  0  0  0  0  0  0
    9.3747    5.9289   -9.9008 N   0  0  0  0  0  0  0  0  0  0  0  0
    9.7061    5.8657   -8.6091 C   0  0  0  0  0  0  0  0  0  0  0  0
   10.2901    6.9623   -7.9891 C   0  0  0  0  0  0  0  0  0  0  0  0
   10.6436    6.9189   -6.6443 C   0  0  0  0  0  0  0  0  0  0  0  0
   11.2205    7.9981   -6.0263 C   0  0  0  0  0  0  0  0  0  0  0  0
   11.4410    9.1349   -6.7836 C   0  0  0  0  0  0  0  0  0  0  0  0
   11.0871    9.1749   -8.1256 C   0  0  0  0  0  0  0  0  0  0  0  0
   10.5069    8.0879   -8.7443 C   0  0  0  0  0  0  0  0  0  0  0  0
   10.1505    8.0979  -10.0544 N   0  0  0  0  0  0  0  0  0  0  0  0
   10.3346    8.9741  -10.5868 H   0  0  0  0  0  0  0  0  0  0  0  0
   11.6121    8.0060   -4.6129 C   0  0  0  0  0  0  0  0  0  0  0  0
   11.9046    9.1783   -3.9915 N   0  0  0  0  0  0  0  0  0  0  0  0
   12.2670    9.2768   -2.7176 C   0  0  0  0  0  0  0  0  0  0  0  0
   12.3593    8.1421   -1.9612 C   0  0  0  0  0  0  0  0  0  0  0  0
   12.0804    6.9144   -2.5130 C   0  0  0  0  0  0  0  0  0  0  0  0
   11.7068    6.8691   -3.8468 C   0  0  0  0  0  0  0  0  0  0  0  0
  1  2  1  0
  2  3  1  0
  3  4  2  0
  4  5  1  0
  5  6  1  0
  5  7  1  0
  7  8  2  0
  8  9  1  0
  9 10  2  0
 10 11  1  0
 11 12  2  0
 10 13  1  0
 13 14  1  0
 14 15  1  0
 15 16  2  0
 16 17  1  0
 17 21  1  0
 21 22  2  0
 22 23  1  0
 23 24  2  0
 24 25  1  0
 25 26  2  0
 26 27  1  0
 27 33  1  0
 33 34  2  0
 34 35  1  0
 35 36  2  0
 36 37  1  0
 37 38  2  0
 27 28  2  0
 28 29  1  0
 29 30  2  0
 30 31  1  0
 31 32  1  0
 17 18  2  0
 18 19  1  0
 19 20  2  0
 12  3  1  0
 20 15  1  0
 12  7  1  0
 31 22  1  0
 20  9  1  0
 30 25  1  0
 38 33  1  0
M  END
>  <minimizedAffinity>  (710) 
-16.69232

$$$$
Mol: 149_61 - SminaDock
     RDKit          3D

 36 42  0  0  0  0  0  0  0  0999 V2000
    3.4705   -0.5119  -14.5106 C   0  0  0  0  0  0  0  0  0  0  0  0
    3.9858    0.5873  -13.9627 N   0  0  0  0  0  0  0  0  0  0  0  0
    5.2444    0.9446  -14.2699 C   0  0  0  0  0  0  0  0  0  0  0  0
    5.8067    2.1021  -13.7014 C   0  0  0  0  0  0  0  0  0  0  0  0
    7.0973    2.4484  -14.0307 C   0  0  0  0  0  0  0  0  0  0  0  0
    7.8401    1.6825  -14.9028 C   0  0  0  0  0  0  0  0  0  0  0  0
    7.2500    0.5566  -15.4366 C   0  0  0  0  0  0  0  0  0  0  0  0
    5.9605    0.1770  -15.1313 C   0  0  0  0  0  0  0  0  0  0  0  0
    5.4340   -0.9633  -15.7035 C   0  0  0  0  0  0  0  0  0  0  0  0
    4.1398   -1.3371  -15.3920 C   0  0  0  0  0  0  0  0  0  0  0  0
    7.6875    3.6562  -13.4349 C   0  0  0  0  0  0  0  0  0  0  0  0
    8.9774    4.0048  -13.7668 C   0  0  0  0  0  0  0  0  0  0  0  0
    9.4973    5.1577  -13.1832 C   0  0  0  0  0  0  0  0  0  0  0  0
    8.7492    5.9175  -12.3090 C   0  0  0  0  0  0  0  0  0  0  0  0
    7.4708    5.5505  -11.9952 C   0  0  0  0  0  0  0  0  0  0  0  0
    6.9223    4.3933  -12.5692 C   0  0  0  0  0  0  0  0  0  0  0  0
    5.5492    4.0736  -12.1755 C   0  0  0  0  0  0  0  0  0  0  0  0
    4.9381    2.8633  -12.7804 C   0  0  0  0  0  0  0  0  0  0  0  0
    9.3307    7.0988  -11.7332 N   0  0  0  0  0  0  0  0  0  0  0  0
    9.6722    7.0491  -10.4705 C   0  0  0  0  0  0  0  0  0  0  0  0
    9.4854    5.9333   -9.7403 N   0  0  0  0  0  0  0  0  0  0  0  0
    9.8440    5.8977   -8.4373 C   0  0  0  0  0  0  0  0  0  0  0  0
   10.4091    6.9880   -7.8086 C   0  0  0  0  0  0  0  0  0  0  0  0
   10.7866    6.9857   -6.4816 C   0  0  0  0  0  0  0  0  0  0  0  0
   11.3514    8.0823   -5.8619 C   0  0  0  0  0  0  0  0  0  0  0  0
   11.5346    9.2159   -6.6266 C   0  0  0  0  0  0  0  0  0  0  0  0
   11.1591    9.2327   -7.9648 C   0  0  0  0  0  0  0  0  0  0  0  0
   10.5965    8.1268   -8.5651 C   0  0  0  0  0  0  0  0  0  0  0  0
   10.2207    8.1101   -9.8633 N   0  0  0  0  0  0  0  0  0  0  0  0
   10.3807    8.9932  -10.3984 H   0  0  0  0  0  0  0  0  0  0  0  0
   11.7407    8.0346   -4.4384 C   0  0  0  0  0  0  0  0  0  0  0  0
   12.0856    9.2081   -3.8094 C   0  0  0  0  0  0  0  0  0  0  0  0
   12.4542    9.2034   -2.4825 C   0  0  0  0  0  0  0  0  0  0  0  0
   12.4649    7.9938   -1.8154 C   0  0  0  0  0  0  0  0  0  0  0  0
   12.1267    6.8020   -2.4102 C   0  0  0  0  0  0  0  0  0  0  0  0
   11.7602    6.8402   -3.7468 C   0  0  0  0  0  0  0  0  0  0  0  0
  1  2  2  0
  2  3  1  0
  3  4  2  0
  4  5  1  0
  5  6  2  0
  6  7  1  0
  7  8  2  0
  8  9  1  0
  9 10  2  0
  5 11  1  0
 11 12  2  0
 12 13  1  0
 13 14  2  0
 14 19  1  0
 19 20  2  0
 20 21  1  0
 21 22  2  0
 22 23  1  0
 23 24  2  0
 24 25  1  0
 25 31  1  0
 31 32  2  0
 32 33  1  0
 33 34  2  0
 34 35  1  0
 35 36  2  0
 25 26  2  0
 26 27  1  0
 27 28  2  0
 28 29  1  0
 29 30  1  0
 14 15  1  0
 15 16  2  0
 16 17  1  0
 17 18  1  0
 10  1  1  0
 16 11  1  0
  8  3  1  0
 29 20  1  0
 18  4  1  0
 28 23  1  0
 36 31  1  0
M  END
>  <minimizedAffinity>  (711) 
-16.69913

$$$$
Mol: 120_21 - SminaDock
     RDKit          3D

 38 44  0  0  0  0  0  0  0  0999 V2000
    9.0624   -0.2988  -18.8674 H   0  0  0  0  0  0  0  0  0  0  0  0
    8.4856    0.4831  -18.5498 O   0  0  0  0  0  0  0  0  0  0  0  0
    8.2880    0.7372  -17.1793 C   0  0  0  0  0  0  0  0  0  0  0  0
    8.8441    0.0380  -16.2607 N   0  0  0  0  0  0  0  0  0  0  0  0
    8.4774    0.5052  -14.9636 C   0  0  0  0  0  0  0  0  0  0  0  0
    9.0866    0.1994  -13.8989 O   0  0  0  0  0  0  0  0  0  0  0  0
    7.3000    1.3686  -15.1569 C   0  0  1  0  0  0  0  0  0  0  0  0
    6.0380    0.6348  -14.9434 C   0  0  0  0  0  0  0  0  0  0  0  0
    5.5601   -0.4997  -15.5449 C   0  0  0  0  0  0  0  0  0  0  0  0
    4.3358   -1.0266  -15.1905 C   0  0  0  0  0  0  0  0  0  0  0  0
    3.5675   -0.4189  -14.2204 C   0  0  0  0  0  0  0  0  0  0  0  0
    4.0627    0.7202  -13.6261 C   0  0  0  0  0  0  0  0  0  0  0  0
    5.2860    1.2460  -13.9808 C   0  0  0  0  0  0  0  0  0  0  0  0
    6.0499    2.4114  -13.5354 C   0  0  0  0  0  0  0  0  0  0  0  0
    5.7192    3.3499  -12.5782 C   0  0  0  0  0  0  0  0  0  0  0  0
    6.5771    4.3840  -12.2968 C   0  0  0  0  0  0  0  0  0  0  0  0
    7.7935    4.5064  -12.9685 C   0  0  0  0  0  0  0  0  0  0  0  0
    8.0896    3.5515  -13.9167 C   0  0  0  0  0  0  0  0  0  0  0  0
    7.2449    2.5048  -14.2168 C   0  0  0  0  0  0  0  0  0  0  0  0
    7.4408    1.8085  -16.5939 C   0  0  0  0  0  0  0  0  0  0  0  0
    8.6551    5.5816  -12.6560 N   0  0  0  0  0  0  0  0  0  0  0  0
    9.0227    5.7863  -11.4225 C   0  0  0  0  0  0  0  0  0  0  0  0
    8.6076    5.0019  -10.4194 N   0  0  0  0  0  0  0  0  0  0  0  0
    8.9905    5.2182   -9.1501 C   0  0  0  0  0  0  0  0  0  0  0  0
    9.8282    6.2581   -8.8243 C   0  0  0  0  0  0  0  0  0  0  0  0
   10.2424    6.5081   -7.5205 C   0  0  0  0  0  0  0  0  0  0  0  0
   11.0888    7.5674   -7.2271 C   0  0  0  0  0  0  0  0  0  0  0  0
   11.4929    8.3512   -8.2907 C   0  0  0  0  0  0  0  0  0  0  0  0
   11.1098    8.1411   -9.5886 C   0  0  0  0  0  0  0  0  0  0  0  0
   10.2586    7.0706   -9.8606 C   0  0  0  0  0  0  0  0  0  0  0  0
    9.8448    6.8083  -11.1090 N   0  0  0  0  0  0  0  0  0  0  0  0
   10.1716    7.4275  -11.9026 H   0  0  0  0  0  0  0  0  0  0  0  0
   11.5148    7.8164   -5.8549 C   0  0  0  0  0  0  0  0  0  0  0  0
   11.2924    6.8535   -4.8899 C   0  0  0  0  0  0  0  0  0  0  0  0
   11.6766    7.0402   -3.5736 C   0  0  0  0  0  0  0  0  0  0  0  0
   12.3005    8.2015   -3.1701 C   0  0  0  0  0  0  0  0  0  0  0  0
   12.5258    9.1672   -4.1275 C   0  0  0  0  0  0  0  0  0  0  0  0
   12.1390    8.9779   -5.4497 C   0  0  0  0  0  0  0  0  0  0  0  0
  1  2  1  0
  2  3  1  0
  3  4  2  0
  4  5  1  0
  5  6  2  0
  5  7  1  0
  7  8  1  0
  8  9  2  0
  9 10  1  0
 10 11  2  0
 11 12  1  0
 12 13  2  0
 13 14  1  0
 14 15  2  0
 15 16  1  0
 16 17  2  0
 17 21  1  0
 21 22  2  0
 22 23  1  0
 23 24  2  0
 24 25  1  0
 25 26  2  0
 26 27  1  0
 27 33  1  0
 33 34  2  0
 34 35  1  0
 35 36  2  0
 36 37  1  0
 37 38  2  0
 27 28  2  0
 28 29  1  0
 29 30  2  0
 30 31  1  0
 31 32  1  0
 17 18  1  0
 18 19  2  0
  7 20  1  6
 20  3  1  0
 19  7  1  0
 13  8  1  0
 19 14  1  0
 31 22  1  0
 30 25  1  0
 38 33  1  0
M  END
>  <minimizedAffinity>  (712) 
-16.69337

$$$$
Mol: 200_37 - SminaDock
     RDKit          3D

 39 45  0  0  0  0  0  0  0  0999 V2000
    5.5849   -1.6635  -17.0734 C   0  0  0  0  0  0  0  0  0  0  0  0
    6.7773   -1.2551  -17.5344 N   0  0  0  0  0  0  0  0  0  0  0  0
    7.3689   -0.1888  -16.9784 C   0  0  0  0  0  0  0  0  0  0  0  0
    8.6351    0.2108  -17.4990 N   0  0  0  0  0  0  0  0  0  0  0  0
    9.4470   -0.4026  -17.2274 H   0  0  0  0  0  0  0  0  0  0  0  0
    8.7729    1.0453  -18.1065 H   0  0  0  0  0  0  0  0  0  0  0  0
    6.8101    0.5260  -15.9389 C   0  0  0  0  0  0  0  0  0  0  0  0
    7.4182    1.6228  -15.3665 C   0  0  0  0  0  0  0  0  0  0  0  0
    6.7713    2.2816  -14.3164 C   0  0  0  0  0  0  0  0  0  0  0  0
    5.5526    1.8544  -13.8540 C   0  0  0  0  0  0  0  0  0  0  0  0
    4.9378    0.7328  -14.4442 C   0  0  0  0  0  0  0  0  0  0  0  0
    5.5730    0.0840  -15.4771 C   0  0  0  0  0  0  0  0  0  0  0  0
    4.9946   -0.9977  -16.0564 N   0  0  0  0  0  0  0  0  0  0  0  0
    4.8528    2.5179  -12.7626 C   0  0  0  0  0  0  0  0  0  0  0  0
    5.4714    3.6853  -12.1344 C   0  0  0  0  0  0  0  0  0  0  0  0
    6.7783    4.1226  -12.6488 C   0  0  0  0  0  0  0  0  0  0  0  0
    7.4052    5.2295  -12.0808 C   0  0  0  0  0  0  0  0  0  0  0  0
    8.6259    5.6838  -12.5197 C   0  0  0  0  0  0  0  0  0  0  0  0
    9.2475    5.0235  -13.5531 C   0  0  0  0  0  0  0  0  0  0  0  0
    8.6205    3.9146  -14.1231 C   0  0  0  0  0  0  0  0  0  0  0  0
    7.3791    3.4447  -13.6840 C   0  0  0  0  0  0  0  0  0  0  0  0
    9.2035    6.8241  -11.8869 N   0  0  0  0  0  0  0  0  0  0  0  0
    9.5472    6.8279  -10.6445 C   0  0  0  0  0  0  0  0  0  0  0  0
    9.3974    5.7742   -9.8357 N   0  0  0  0  0  0  0  0  0  0  0  0
    9.7419    5.7467   -8.5495 C   0  0  0  0  0  0  0  0  0  0  0  0
   10.3033    6.9024   -7.9949 C   0  0  0  0  0  0  0  0  0  0  0  0
   10.6687    6.8992   -6.6641 C   0  0  0  0  0  0  0  0  0  0  0  0
   11.2226    8.0553   -6.1366 C   0  0  0  0  0  0  0  0  0  0  0  0
   11.3804    9.1440   -6.9614 C   0  0  0  0  0  0  0  0  0  0  0  0
   11.0132    9.1392   -8.2889 C   0  0  0  0  0  0  0  0  0  0  0  0
   10.4562    7.9874   -8.8323 C   0  0  0  0  0  0  0  0  0  0  0  0
   10.0834    7.9515  -10.1401 N   0  0  0  0  0  0  0  0  0  0  0  0
   10.2288    8.8076  -10.7113 H   0  0  0  0  0  0  0  0  0  0  0  0
   11.6095    8.0582   -4.7353 C   0  0  0  0  0  0  0  0  0  0  0  0
   11.9309    9.2112   -4.0492 C   0  0  0  0  0  0  0  0  0  0  0  0
   12.2878    9.1326   -2.7216 C   0  0  0  0  0  0  0  0  0  0  0  0
   12.3438    7.9417   -2.0232 C   0  0  0  0  0  0  0  0  0  0  0  0
   12.0218    6.7926   -2.7127 C   0  0  0  0  0  0  0  0  0  0  0  0
   11.6634    6.8648   -4.0432 C   0  0  0  0  0  0  0  0  0  0  0  0
  1  2  2  0
  2  3  1  0
  3  4  1  0
  4  5  1  0
  4  6  1  0
  3  7  2  0
  7  8  1  0
  8  9  2  0
  9 10  1  0
 10 11  2  0
 11 12  1  0
 12 13  2  0
 10 14  1  0
 14 15  1  0
 15 16  1  0
 16 17  2  0
 17 18  1  0
 18 22  1  0
 22 23  2  0
 23 24  1  0
 24 25  2  0
 25 26  1  0
 26 27  2  0
 27 28  1  0
 28 34  1  0
 34 35  2  0
 35 36  1  0
 36 37  2  0
 37 38  1  0
 38 39  2  0
 28 29  2  0
 29 30  1  0
 30 31  2  0
 31 32  1  0
 32 33  1  0
 18 19  2  0
 19 20  1  0
 20 21  2  0
 13  1  1  0
 21 16  1  0
 12  7  1  0
 32 23  1  0
 21  9  1  0
 31 26  1  0
 39 34  1  0
M  END
>  <minimizedAffinity>  (713) 
-16.65588

$$$$
Mol: 200_44 - SminaDock
     RDKit          3D

 44 51  0  0  0  0  0  0  0  0999 V2000
    5.9736   -2.0850  -17.4294 O   0  0  0  0  0  0  0  0  0  0  0  0
    5.6746   -1.3916  -16.4500 C   0  0  0  0  0  0  0  0  0  0  0  0
    4.5953   -1.5823  -15.5448 N   0  0  0  0  0  0  0  0  0  0  0  0
    4.6959   -0.5217  -14.6116 C   0  0  0  0  0  0  0  0  0  0  0  0
    3.8090   -0.3506  -13.5470 O   0  0  0  0  0  0  0  0  0  0  0  0
    5.7338    0.2598  -14.8991 C   0  0  0  0  0  0  0  0  0  0  0  0
    6.2252    1.4022  -14.2813 C   0  0  0  0  0  0  0  0  0  0  0  0
    7.3337    2.0729  -14.7461 C   0  0  0  0  0  0  0  0  0  0  0  0
    8.0168    1.6376  -15.8601 C   0  0  0  0  0  0  0  0  0  0  0  0
    7.5065    0.4824  -16.4717 C   0  0  0  0  0  0  0  0  0  0  0  0
    6.4002   -0.1912  -16.0124 C   0  0  0  0  0  0  0  0  0  0  0  0
    9.0747    2.2397  -16.3383 C   0  0  0  0  0  0  0  0  0  0  0  0
    9.6916    3.4430  -15.7834 C   0  0  1  0  0  0  0  0  0  0  0  0
   11.1136    3.0394  -15.3694 C   0  0  0  0  0  0  0  0  0  0  0  0
   11.7315    2.3189  -16.5274 C   0  0  0  0  0  0  0  0  0  0  0  0
   11.4966    2.9890  -17.7351 O   0  0  0  0  0  0  0  0  0  0  0  0
   11.1921    4.3315  -17.4983 C   0  0  0  0  0  0  0  0  0  0  0  0
    9.8475    4.5184  -16.8435 C   0  0  0  0  0  0  0  0  0  0  0  0
    8.9863    3.9295  -14.5985 C   0  0  0  0  0  0  0  0  0  0  0  0
    9.4507    5.0820  -13.9368 C   0  0  0  0  0  0  0  0  0  0  0  0
    8.8333    5.5693  -12.8356 C   0  0  0  0  0  0  0  0  0  0  0  0
    7.7150    4.8913  -12.3710 C   0  0  0  0  0  0  0  0  0  0  0  0
    7.2121    3.7584  -12.9742 C   0  0  0  0  0  0  0  0  0  0  0  0
    7.8778    3.2868  -14.1091 C   0  0  0  0  0  0  0  0  0  0  0  0
    3.8602   -2.3496  -15.5495 H   0  0  0  0  0  0  0  0  0  0  0  0
    4.2422   -0.2455  -12.6312 H   0  0  0  0  0  0  0  0  0  0  0  0
    9.2662    6.7300  -12.1455 N   0  0  0  0  0  0  0  0  0  0  0  0
    9.3168    7.6222  -12.7112 H   0  0  0  0  0  0  0  0  0  0  0  0
    9.6300    6.8135  -10.7951 C   0  0  0  0  0  0  0  0  0  0  0  0
    9.2579    5.7942   -9.9159 C   0  0  0  0  0  0  0  0  0  0  0  0
    9.5716    5.8266   -8.6120 N   0  0  0  0  0  0  0  0  0  0  0  0
   10.2673    6.8467   -8.0675 C   0  0  0  0  0  0  0  0  0  0  0  0
   10.5976    6.8981   -6.7363 C   0  0  0  0  0  0  0  0  0  0  0  0
   11.3129    7.9530   -6.1854 C   0  0  0  0  0  0  0  0  0  0  0  0
   11.6861    8.9661   -7.0401 C   0  0  0  0  0  0  0  0  0  0  0  0
   11.3552    8.9150   -8.3757 C   0  0  0  0  0  0  0  0  0  0  0  0
   10.6446    7.8677   -8.9255 C   0  0  0  0  0  0  0  0  0  0  0  0
   10.3218    7.8185  -10.2281 N   0  0  0  0  0  0  0  0  0  0  0  0
   11.6672    8.0007   -4.7617 C   0  0  0  0  0  0  0  0  0  0  0  0
   11.6447    6.8237   -4.0141 C   0  0  0  0  0  0  0  0  0  0  0  0
   11.9634    6.8025   -2.6786 C   0  0  0  0  0  0  0  0  0  0  0  0
   12.3208    7.9722   -2.0318 C   0  0  0  0  0  0  0  0  0  0  0  0
   12.3425    9.1325   -2.7690 C   0  0  0  0  0  0  0  0  0  0  0  0
   12.0231    9.1621   -4.1161 C   0  0  0  0  0  0  0  0  0  0  0  0
  1  2  2  0
  2  3  1  0
  3  4  1  0
  4  5  1  0
  4  6  2  0
  6  7  1  0
  7  8  2  0
  8  9  1  0
  9 10  1  0
 10 11  2  0
  9 12  2  0
 12 13  1  0
 13 14  1  1
 14 15  1  0
 15 16  1  0
 16 17  1  0
 17 18  1  0
 13 19  1  0
 19 20  2  0
 20 21  1  0
 21 27  1  0
 27 29  1  0
 29 30  2  0
 30 31  1  0
 31 32  2  0
 32 33  1  0
 33 34  2  0
 34 39  1  0
 39 40  2  0
 40 41  1  0
 41 42  2  0
 42 43  1  0
 43 44  2  0
 34 35  1  0
 35 36  2  0
 36 37  1  0
 37 38  2  0
 21 22  2  0
 22 23  1  0
 23 24  2  0
 11  2  1  0
 18 13  1  0
 24 19  1  0
 11  6  1  0
 38 29  1  0
 24  8  1  0
 37 32  1  0
 44 39  1  0
  3 25  1  0
  5 26  1  0
 27 28  1  0
M  END
>  <minimizedAffinity>  (714) 
-16.65093

$$$$
Mol: 121_7 - SminaDock
     RDKit          3D

 57 66  0  0  0  0  0  0  0  0999 V2000
    8.7421    2.6571  -16.1721 C   0  0  0  0  0  0  0  0  0  0  0  0
    9.1587    3.7505  -15.4630 C   0  0  0  0  0  0  0  0  0  0  0  0
   10.3035    4.4129  -15.9378 C   0  0  0  0  0  0  0  0  0  0  0  0
   10.9788    3.9959  -17.0546 C   0  0  0  0  0  0  0  0  0  0  0  0
   12.0911    4.6584  -17.4832 N   0  0  0  0  0  0  0  0  0  0  0  0
   12.7970    4.2997  -18.5601 C   0  0  0  0  0  0  0  0  0  0  0  0
   12.3825    3.2052  -19.2764 C   0  0  0  0  0  0  0  0  0  0  0  0
   11.2491    2.4756  -18.8956 C   0  0  0  0  0  0  0  0  0  0  0  0
   10.8623    1.4700  -19.5476 O   0  0  0  0  0  0  0  0  0  0  0  0
   10.5672    2.8983  -17.7760 C   0  0  0  0  0  0  0  0  0  0  0  0
    9.4556    2.2419  -17.3292 C   0  0  0  0  0  0  0  0  0  0  0  0
    6.0820    1.2344  -13.9940 C   0  0  0  0  0  0  0  0  0  0  0  0
    7.1729    1.9342  -14.4525 C   0  0  0  0  0  0  0  0  0  0  0  0
    7.6051    1.8493  -15.7653 C   0  0  0  0  0  0  0  0  0  0  0  0
    6.8930    1.0347  -16.5901 C   0  0  0  0  0  0  0  0  0  0  0  0
    5.7849    0.3129  -16.1573 C   0  0  0  0  0  0  0  0  0  0  0  0
    5.3719    0.4086  -14.8532 C   0  0  0  0  0  0  0  0  0  0  0  0
    4.2254   -0.4501  -14.7241 C   0  0  0  0  0  0  0  0  0  0  0  0
    3.5867   -0.5961  -13.6269 O   0  0  0  0  0  0  0  0  0  0  0  0
    3.9386   -1.0765  -15.9616 N   0  0  0  0  0  0  0  0  0  0  0  0
    3.1616   -1.7575  -16.1284 H   0  0  0  0  0  0  0  0  0  0  0  0
    4.9039   -0.6047  -16.9174 C   0  0  2  0  0  0  0  0  0  0  0  0
    5.7363   -1.7920  -17.3997 C   0  0  0  0  0  0  0  0  0  0  0  0
    4.9410   -2.5552  -18.4185 C   0  0  0  0  0  0  0  0  0  0  0  0
    4.4893   -1.8040  -19.4731 O   0  0  0  0  0  0  0  0  0  0  0  0
    4.7983   -0.4433  -19.3535 C   0  0  0  0  0  0  0  0  0  0  0  0
    4.2361    0.1072  -18.0828 C   0  0  0  0  0  0  0  0  0  0  0  0
   13.9467    4.9995  -18.9620 N   0  0  0  0  0  0  0  0  0  0  0  0
   14.8982    5.4237  -18.0169 C   0  0  0  0  0  0  0  0  0  0  0  0
   15.0390    4.7922  -16.9339 O   0  0  0  0  0  0  0  0  0  0  0  0
   15.7375    6.6244  -18.3055 C   0  0  0  0  0  0  0  0  0  0  0  0
   15.8635    6.8985  -19.6444 O   0  0  0  0  0  0  0  0  0  0  0  0
   14.6876    6.7651  -20.3612 C   0  0  0  0  0  0  0  0  0  0  0  0
   14.1983    5.3118  -20.3495 C   0  0  0  0  0  0  0  0  0  0  0  0
    8.4754    4.3015  -14.2688 C   0  0  0  0  0  0  0  0  0  0  0  0
    8.9617    5.4246  -13.6612 N   0  0  0  0  0  0  0  0  0  0  0  0
    9.2606    5.8927  -12.5496 C   0  0  0  0  0  0  0  0  0  0  0  0
    9.1461    5.2430  -11.3712 N   0  0  0  0  0  0  0  0  0  0  0  0
    9.4884    5.7341  -10.1820 C   0  0  0  0  0  0  0  0  0  0  0  0
    9.3833    5.0838   -8.9786 C   0  0  0  0  0  0  0  0  0  0  0  0
    9.7762    5.6721   -7.7806 C   0  0  0  0  0  0  0  0  0  0  0  0
   10.2968    6.9635   -7.7682 C   0  0  0  0  0  0  0  0  0  0  0  0
   10.3907    7.5904   -8.9648 C   0  0  0  0  0  0  0  0  0  0  0  0
   10.0133    7.0429  -10.1689 C   0  0  0  0  0  0  0  0  0  0  0  0
   10.1415    7.7278  -11.3481 C   0  0  0  0  0  0  0  0  0  0  0  0
    9.7787    7.1698  -12.4762 N   0  0  0  0  0  0  0  0  0  0  0  0
    9.8612    7.6699  -13.3999 H   0  0  0  0  0  0  0  0  0  0  0  0
   10.7425    7.6007   -6.5327 C   0  0  0  0  0  0  0  0  0  0  0  0
   10.7378    8.9854   -6.4286 C   0  0  0  0  0  0  0  0  0  0  0  0
   11.1420    9.6371   -5.2881 C   0  0  0  0  0  0  0  0  0  0  0  0
   11.5771    8.8910   -4.1836 C   0  0  0  0  0  0  0  0  0  0  0  0
   11.9882    9.4804   -3.0295 C   0  0  0  0  0  0  0  0  0  0  0  0
   12.4194    8.7461   -1.9356 C   0  0  0  0  0  0  0  0  0  0  0  0
   12.4370    7.3712   -2.0058 C   0  0  0  0  0  0  0  0  0  0  0  0
   12.0267    6.7641   -3.1581 C   0  0  0  0  0  0  0  0  0  0  0  0
   11.5949    7.5073   -4.2534 C   0  0  0  0  0  0  0  0  0  0  0  0
   11.1786    6.9202   -5.4200 C   0  0  0  0  0  0  0  0  0  0  0  0
 12 13  2  0
 13 14  1  0
 14  1  1  0
  1  2  1  0
  2 35  1  0
 35 36  1  0
 36 37  2  0
 37 38  1  0
 38 39  2  0
 39 40  1  0
 40 41  2  0
 41 42  1  0
 42 48  1  0
 48 49  2  0
 49 50  1  0
 50 51  2  0
 51 52  1  0
 52 53  2  0
 53 54  1  0
 54 55  2  0
 55 56  1  0
 56 57  2  0
 42 43  2  0
 43 44  1  0
 44 45  2  0
 45 46  1  0
 46 47  1  0
  2  3  2  0
  3  4  1  0
  4  5  1  0
  5  6  1  0
  6 28  1  0
 28 29  1  0
 29 30  2  0
 29 31  1  0
 31 32  1  0
 32 33  1  0
 33 34  1  0
  6  7  2  0
  7  8  1  0
  8  9  2  0
  8 10  1  0
 10 11  1  0
 14 15  2  0
 15 16  1  0
 16 17  2  0
 17 18  1  0
 18 19  2  0
 18 20  1  0
 20 21  1  0
 20 22  1  0
 22 23  1  6
 23 24  1  0
 24 25  1  0
 25 26  1  0
 26 27  1  0
 17 12  1  0
 27 22  1  0
 11  1  2  0
 22 16  1  0
 46 37  1  0
 10  4  2  0
 44 39  1  0
 34 28  1  0
 57 48  1  0
 56 51  1  0
M  CHG  1   5  -1
M  END
>  <minimizedAffinity>  (715) 
-16.74099

$$$$
Mol: 121_35 - SminaDock
     RDKit          3D

 39 45  0  0  0  0  0  0  0  0999 V2000
    7.7197    4.6115  -12.8680 C   0  0  0  0  0  0  0  0  0  0  0  0
    6.6370    4.2536  -12.0948 C   0  0  0  0  0  0  0  0  0  0  0  0
    5.9987    3.0721  -12.3856 C   0  0  0  0  0  0  0  0  0  0  0  0
    6.3904    2.2306  -13.4126 C   0  0  0  0  0  0  0  0  0  0  0  0
    7.4982    2.6478  -14.1647 C   0  0  0  0  0  0  0  0  0  0  0  0
    8.1674    3.8159  -13.9139 C   0  0  0  0  0  0  0  0  0  0  0  0
    8.0370    1.8880  -15.2728 C   0  0  1  0  0  0  0  0  0  0  0  0
    6.9933    1.7484  -16.3319 C   0  0  0  0  0  0  0  0  0  0  0  0
    5.8748    0.8903  -16.0267 C   0  0  0  0  0  0  0  0  0  0  0  0
    5.4002    0.3149  -17.2106 C   0  0  0  0  0  0  0  0  0  0  0  0
    4.3365   -0.5537  -17.2468 C   0  0  0  0  0  0  0  0  0  0  0  0
    3.7129   -0.8693  -16.0656 C   0  0  0  0  0  0  0  0  0  0  0  0
    4.1645   -0.3134  -14.8869 C   0  0  0  0  0  0  0  0  0  0  0  0
    5.2387    0.5630  -14.8542 C   0  0  0  0  0  0  0  0  0  0  0  0
    5.5310    1.0182  -13.5063 C   0  0  0  0  0  0  0  0  0  0  0  0
    9.3260    2.2817  -15.8719 C   0  0  0  0  0  0  0  0  0  0  0  0
   10.3283    1.7600  -14.8340 C   0  0  0  0  0  0  0  0  0  0  0  0
    9.6204    0.7641  -14.0653 N   0  0  2  0  0  0  0  0  0  0  0  0
    9.4089    1.1002  -13.1162 H   0  0  0  0  0  0  0  0  0  0  0  0
   10.2537   -0.0759  -13.9569 H   0  0  0  0  0  0  0  0  0  0  0  0
    8.4322    0.4539  -14.8374 C   0  0  0  0  0  0  0  0  0  0  0  0
   10.9599    7.6681   -7.1983 C   0  0  0  0  0  0  0  0  0  0  0  0
   11.1560    8.6251   -8.1712 C   0  0  0  0  0  0  0  0  0  0  0  0
   10.6909    8.4639   -9.4590 C   0  0  0  0  0  0  0  0  0  0  0  0
    9.9988    7.3107   -9.8177 C   0  0  0  0  0  0  0  0  0  0  0  0
    9.7982    6.3449   -8.8449 C   0  0  0  0  0  0  0  0  0  0  0  0
    9.1138    5.2013   -9.1937 C   0  0  0  0  0  0  0  0  0  0  0  0
    8.6769    5.0760  -10.4474 N   0  0  0  0  0  0  0  0  0  0  0  0
    8.8737    6.0099  -11.3789 C   0  0  0  0  0  0  0  0  0  0  0  0
    8.4248    5.8438  -12.6025 N   0  0  0  0  0  0  0  0  0  0  0  0
    9.5365    7.1258  -11.0552 N   0  0  0  0  0  0  0  0  0  0  0  0
    9.6942    7.8612  -11.7794 H   0  0  0  0  0  0  0  0  0  0  0  0
   10.2740    6.5333   -7.5678 C   0  0  0  0  0  0  0  0  0  0  0  0
   12.3676    8.0954   -3.1948 C   0  0  0  0  0  0  0  0  0  0  0  0
   12.5645    9.1089   -4.1192 C   0  0  0  0  0  0  0  0  0  0  0  0
   12.1034    8.9509   -5.4022 C   0  0  0  0  0  0  0  0  0  0  0  0
   11.4366    7.8063   -5.8321 C   0  0  0  0  0  0  0  0  0  0  0  0
   11.2429    6.8034   -4.9132 C   0  0  0  0  0  0  0  0  0  0  0  0
   11.7092    6.9639   -3.6164 C   0  0  0  0  0  0  0  0  0  0  0  0
 34 35  2  0
 35 36  1  0
 36 37  2  0
 37 22  1  0
 22 23  2  0
 23 24  1  0
 24 25  2  0
 25 26  1  0
 26 27  1  0
 27 28  2  0
 28 29  1  0
 29 30  2  0
 30  1  1  0
  1  2  2  0
  2  3  1  0
  3  4  2  0
  4  5  1  0
  5  6  2  0
  5  7  1  0
  7  8  1  6
  8  9  1  0
  9 10  2  0
 10 11  1  0
 11 12  2  0
 12 13  1  0
 13 14  2  0
 14 15  1  0
  7 16  1  0
 16 17  1  0
 17 18  1  0
 18 19  1  1
 18 20  1  0
 18 21  1  0
 29 31  1  0
 31 32  1  0
 26 33  2  0
 37 38  1  0
 38 39  2  0
 39 34  1  0
 33 22  1  0
 31 25  1  0
  6  1  1  0
 21  7  1  0
 15  4  1  0
 14  9  1  0
M  CHG  1  18   1
M  END
>  <minimizedAffinity>  (716) 
-16.67433

$$$$
Mol: 198_36 - SminaDock
     RDKit          3D

 42 49  0  0  0  0  0  0  0  0999 V2000
    8.4297    5.4565  -12.6680 C   0  0  0  0  0  0  0  0  0  0  0  0
    7.2545    5.0451  -12.0797 C   0  0  0  0  0  0  0  0  0  0  0  0
    6.5794    3.9587  -12.5911 C   0  0  0  0  0  0  0  0  0  0  0  0
    7.0254    3.2468  -13.6819 C   0  0  0  0  0  0  0  0  0  0  0  0
    8.2019    3.6789  -14.2507 C   0  0  0  0  0  0  0  0  0  0  0  0
    8.8997    4.7658  -13.7581 C   0  0  0  0  0  0  0  0  0  0  0  0
    8.4794    2.7685  -15.3964 C   0  0  0  0  0  0  0  0  0  0  0  0
    7.3684    1.7999  -15.4193 C   0  0  0  0  0  0  0  0  0  0  0  0
    7.0959    0.7269  -16.2597 C   0  0  0  0  0  0  0  0  0  0  0  0
    5.9752   -0.0589  -16.0915 C   0  0  0  0  0  0  0  0  0  0  0  0
    5.0983    0.2272  -15.0599 C   0  0  0  0  0  0  0  0  0  0  0  0
    5.3762    1.2947  -14.2296 C   0  0  0  0  0  0  0  0  0  0  0  0
    6.4953    2.0875  -14.3893 C   0  0  0  0  0  0  0  0  0  0  0  0
    5.9523   -1.1279  -17.1403 C   0  0  1  0  0  0  0  0  0  0  0  0
    5.9381   -2.3343  -16.4859 O   0  0  0  0  0  0  0  0  0  0  0  0
    5.8541   -3.4338  -17.3045 C   0  0  0  0  0  0  0  0  0  0  0  0
    4.5587   -3.5133  -18.0762 C   0  0  0  0  0  0  0  0  0  0  0  0
    4.7083   -2.7901  -19.3747 C   0  0  0  0  0  0  0  0  0  0  0  0
    4.8709   -1.4332  -19.2717 O   0  0  0  0  0  0  0  0  0  0  0  0
    4.7276   -0.9075  -18.0117 C   0  0  0  0  0  0  0  0  0  0  0  0
    7.1420   -0.8861  -17.9092 N   0  0  0  0  0  0  0  0  0  0  0  0
    7.4661   -1.4337  -18.7308 H   0  0  0  0  0  0  0  0  0  0  0  0
    7.8462    0.2330  -17.3905 C   0  0  0  0  0  0  0  0  0  0  0  0
    8.9214    0.6971  -17.8411 O   0  0  0  0  0  0  0  0  0  0  0  0
   11.1810    7.7164   -6.3680 C   0  0  0  0  0  0  0  0  0  0  0  0
   11.4681    8.7907   -7.2114 C   0  0  0  0  0  0  0  0  0  0  0  0
   11.1069    8.7756   -8.5426 C   0  0  0  0  0  0  0  0  0  0  0  0
   10.4492    7.6724   -9.0413 C   0  0  0  0  0  0  0  0  0  0  0  0
   10.1421    6.5848   -8.2494 C   0  0  0  0  0  0  0  0  0  0  0  0
   10.5236    6.6476   -6.9268 C   0  0  0  0  0  0  0  0  0  0  0  0
    9.4744    5.4762   -8.7757 C   0  0  0  0  0  0  0  0  0  0  0  0
    9.1369    5.5076  -10.1008 C   0  0  0  0  0  0  0  0  0  0  0  0
    9.4454    6.5937  -10.8848 C   0  0  0  0  0  0  0  0  0  0  0  0
    9.1085    6.5787  -12.1240 N   0  0  0  0  0  0  0  0  0  0  0  0
   10.0886    7.6497  -10.3566 N   0  0  0  0  0  0  0  0  0  0  0  0
   10.3088    8.4624  -10.9832 H   0  0  0  0  0  0  0  0  0  0  0  0
   12.3811    8.0001   -2.3469 C   0  0  0  0  0  0  0  0  0  0  0  0
   12.6142    9.0389   -3.1904 C   0  0  0  0  0  0  0  0  0  0  0  0
   12.2054    8.9158   -4.5171 C   0  0  0  0  0  0  0  0  0  0  0  0
   11.5822    7.7824   -4.9771 C   0  0  0  0  0  0  0  0  0  0  0  0
   11.3568    6.7451   -4.1071 C   0  0  0  0  0  0  0  0  0  0  0  0
   11.7613    6.8618   -2.7858 C   0  0  0  0  0  0  0  0  0  0  0  0
 37 38  2  0
 38 39  1  0
 39 40  2  0
 40 25  1  0
 25 26  2  0
 26 27  1  0
 27 28  2  0
 28 29  1  0
 29 30  2  0
 29 31  1  0
 31 32  2  0
 32 33  1  0
 33 34  2  0
 34  1  1  0
  1  2  2  0
  2  3  1  0
  3  4  2  0
  4  5  1  0
  5  6  2  0
  5  7  1  0
  7  8  1  0
  8  9  2  0
  9 10  1  0
 10 11  2  0
 11 12  1  0
 12 13  2  0
 10 14  1  0
 14 15  1  0
 15 16  1  0
 16 17  1  0
 17 18  1  0
 18 19  1  0
 19 20  1  0
 14 21  1  0
 21 22  1  0
 21 23  1  0
 23 24  2  0
 33 35  1  0
 35 36  1  0
 40 41  1  0
 41 42  2  0
 42 37  1  0
 30 25  1  0
  6  1  1  0
 13  8  1  0
 14 20  1  6
 35 28  1  0
 13  4  1  0
 23  9  1  0
M  END
>  <minimizedAffinity>  (717) 
-16.70054

$$$$
Mol: 157_46 - SminaDock
     RDKit          3D

 37 43  0  0  0  0  0  0  0  0999 V2000
    8.9454    5.7781  -12.3824 C   0  0  0  0  0  0  0  0  0  0  0  0
    9.6532    5.0220  -13.2913 C   0  0  0  0  0  0  0  0  0  0  0  0
    9.1208    3.9029  -13.8821 C   0  0  0  0  0  0  0  0  0  0  0  0
    7.8316    3.5249  -13.5521 C   0  0  0  0  0  0  0  0  0  0  0  0
    7.1112    4.2707  -12.6451 C   0  0  0  0  0  0  0  0  0  0  0  0
    7.6609    5.4051  -12.0509 C   0  0  0  0  0  0  0  0  0  0  0  0
    5.7517    3.8390  -12.3220 C   0  0  0  0  0  0  0  0  0  0  0  0
    5.1123    4.5411  -11.4867 O   0  0  0  0  0  0  0  0  0  0  0  0
    5.0783    2.6680  -12.8846 C   0  0  0  0  0  0  0  0  0  0  0  0
    5.9239    1.9311  -13.8465 C   0  0  0  0  0  0  0  0  0  0  0  0
    7.2015    2.3479  -14.1409 C   0  0  0  0  0  0  0  0  0  0  0  0
    7.9445    1.6493  -15.0242 N   0  0  0  0  0  0  0  0  0  0  0  0
    7.4289    0.5523  -15.6081 C   0  0  0  0  0  0  0  0  0  0  0  0
    6.1477    0.1038  -15.3360 C   0  0  0  0  0  0  0  0  0  0  0  0
    5.6376   -1.0412  -15.9592 C   0  0  0  0  0  0  0  0  0  0  0  0
    4.3608   -1.4810  -15.6826 C   0  0  0  0  0  0  0  0  0  0  0  0
    3.5776   -0.7894  -14.7855 C   0  0  0  0  0  0  0  0  0  0  0  0
    4.1097    0.3506  -14.1766 C   0  0  0  0  0  0  0  0  0  0  0  0
    5.3676    0.7992  -14.4374 C   0  0  0  0  0  0  0  0  0  0  0  0
   11.3674    8.0835   -5.9526 C   0  0  0  0  0  0  0  0  0  0  0  0
   11.5646    9.1811   -6.7489 C   0  0  0  0  0  0  0  0  0  0  0  0
   11.2380    9.1981   -8.0912 C   0  0  0  0  0  0  0  0  0  0  0  0
   10.6872    8.0759   -8.6864 C   0  0  0  0  0  0  0  0  0  0  0  0
   10.3617    8.0793  -10.0048 N   0  0  0  0  0  0  0  0  0  0  0  0
    9.8255    6.9570  -10.5404 C   0  0  0  0  0  0  0  0  0  0  0  0
    9.5128    6.9394  -11.7770 N   0  0  0  0  0  0  0  0  0  0  0  0
    9.6148    5.8576   -9.7962 N   0  0  0  0  0  0  0  0  0  0  0  0
    9.2030    5.0208  -10.2444 H   0  0  0  0  0  0  0  0  0  0  0  0
    9.9359    5.8468   -8.4846 C   0  0  0  0  0  0  0  0  0  0  0  0
   10.4892    6.9703   -7.8816 C   0  0  0  0  0  0  0  0  0  0  0  0
   10.8188    6.9593   -6.5353 C   0  0  0  0  0  0  0  0  0  0  0  0
   12.3729    8.0002   -1.7994 C   0  0  0  0  0  0  0  0  0  0  0  0
   12.4196    9.1664   -2.5437 C   0  0  0  0  0  0  0  0  0  0  0  0
   12.0997    9.2149   -3.8828 C   0  0  0  0  0  0  0  0  0  0  0  0
   11.7146    8.0681   -4.5300 C   0  0  0  0  0  0  0  0  0  0  0  0
   11.6596    6.8766   -3.7993 C   0  0  0  0  0  0  0  0  0  0  0  0
   11.9842    6.8507   -2.4592 C   0  0  0  0  0  0  0  0  0  0  0  0
 32 33  2  0
 33 34  1  0
 34 35  2  0
 35 20  1  0
 20 21  1  0
 21 22  2  0
 22 23  1  0
 23 24  2  0
 24 25  1  0
 25 26  2  0
 26  1  1  0
  1  2  2  0
  2  3  1  0
  3  4  2  0
  4  5  1  0
  5  6  2  0
  5  7  1  0
  7  8  2  0
  7  9  1  0
  9 10  1  0
 10 11  2  0
 11 12  1  0
 12 13  2  0
 13 14  1  0
 14 15  2  0
 15 16  1  0
 16 17  2  0
 17 18  1  0
 18 19  2  0
 25 27  1  0
 27 28  1  0
 27 29  1  0
 29 30  2  0
 30 31  1  0
 35 36  1  0
 36 37  2  0
 37 32  1  0
 31 20  2  0
 30 23  1  0
  6  1  1  0
 19 10  1  0
 11  4  1  0
 19 14  1  0
M  END
>  <minimizedAffinity>  (718) 
-16.68938

$$$$
Mol: 200_4 - SminaDock
     RDKit          3D

 36 42  0  0  0  0  0  0  0  0999 V2000
   11.1656    7.9453   -6.0265 C   0  0  0  0  0  0  0  0  0  0  0  0
   11.2786    9.0601   -6.8203 C   0  0  0  0  0  0  0  0  0  0  0  0
   10.8861    9.0317   -8.1663 C   0  0  0  0  0  0  0  0  0  0  0  0
   10.3858    7.8668   -8.6775 C   0  0  0  0  0  0  0  0  0  0  0  0
   10.2671    6.7469   -7.8982 C   0  0  0  0  0  0  0  0  0  0  0  0
   10.6633    6.7892   -6.5541 C   0  0  0  0  0  0  0  0  0  0  0  0
    9.7658    5.5961   -8.4278 C   0  0  0  0  0  0  0  0  0  0  0  0
    9.3749    5.5704   -9.7709 C   0  0  0  0  0  0  0  0  0  0  0  0
    9.5073    6.7088  -10.5215 C   0  0  0  0  0  0  0  0  0  0  0  0
    9.1578    6.7105  -11.7472 N   0  0  0  0  0  0  0  0  0  0  0  0
   10.0036    7.8284   -9.9767 N   0  0  0  0  0  0  0  0  0  0  0  0
   10.1145    8.7084  -10.5267 H   0  0  0  0  0  0  0  0  0  0  0  0
    8.6193    5.5890  -12.4365 C   0  0  0  0  0  0  0  0  0  0  0  0
    9.2929    4.9457  -13.4509 C   0  0  0  0  0  0  0  0  0  0  0  0
    8.7421    3.8467  -14.1091 C   0  0  0  0  0  0  0  0  0  0  0  0
    7.4974    3.3698  -13.7595 C   0  0  0  0  0  0  0  0  0  0  0  0
    6.7985    3.9912  -12.7540 C   0  0  0  0  0  0  0  0  0  0  0  0
    7.3818    5.0922  -12.1122 C   0  0  0  0  0  0  0  0  0  0  0  0
    5.4351    3.5701  -12.4170 C   0  0  0  0  0  0  0  0  0  0  0  0
    5.1137    2.1680  -12.7392 C   0  0  0  0  0  0  0  0  0  0  0  0
    5.7530    1.6266  -13.9477 C   0  0  0  0  0  0  0  0  0  0  0  0
    6.9465    2.1431  -14.3843 C   0  0  0  0  0  0  0  0  0  0  0  0
    7.6388    1.6285  -15.4555 C   0  0  0  0  0  0  0  0  0  0  0  0
    7.0638    0.5276  -16.1067 C   0  0  0  0  0  0  0  0  0  0  0  0
    7.5091   -0.1991  -17.1957 C   0  0  0  0  0  0  0  0  0  0  0  0
    8.7564   -0.0033  -17.9934 C   0  0  0  0  0  0  0  0  0  0  0  0
    6.5821   -1.1517  -17.4173 N   0  0  0  0  0  0  0  0  0  0  0  0
    5.6059   -1.0418  -16.5273 N   0  0  0  0  0  0  0  0  0  0  0  0
    5.8653   -0.0051  -15.6877 C   0  0  0  0  0  0  0  0  0  0  0  0
    5.2046    0.5365  -14.6119 C   0  0  0  0  0  0  0  0  0  0  0  0
   12.3814    8.0849   -1.9593 C   0  0  0  0  0  0  0  0  0  0  0  0
   12.0699    6.8899   -2.5469 C   0  0  0  0  0  0  0  0  0  0  0  0
   11.6814    6.8667   -3.8543 C   0  0  0  0  0  0  0  0  0  0  0  0
   11.5814    8.0148   -4.6426 C   0  0  0  0  0  0  0  0  0  0  0  0
   11.8961    9.2105   -4.0447 C   0  0  0  0  0  0  0  0  0  0  0  0
   12.2944    9.2515   -2.7106 C   0  0  0  0  0  0  0  0  0  0  0  0
 31 32  2  0
 32 33  1  0
 33 34  2  0
 34  1  1  0
  1  2  2  0
  2  3  1  0
  3  4  2  0
  4  5  1  0
  5  6  2  0
  5  7  1  0
  7  8  2  0
  8  9  1  0
  9 10  2  0
 10 13  1  0
 13 14  2  0
 14 15  1  0
 15 16  2  0
 16 17  1  0
 17 18  2  0
 17 19  1  0
 19 20  1  0
 20 21  1  0
 21 22  2  0
 22 23  1  0
 23 24  2  0
 24 25  1  0
 25 26  1  0
 25 27  2  0
 27 28  1  0
 28 29  1  0
 29 30  2  0
  9 11  1  0
 11 12  1  0
 34 35  1  0
 35 36  2  0
 36 31  1  0
  6  1  1  0
 18 13  1  0
 30 21  1  0
 11  4  1  0
 22 16  1  0
 29 24  1  0
M  CHG  1  28  -1
M  END
>  <minimizedAffinity>  (719) 
-16.74017

$$$$
Mol: 134_10 - SminaDock
     RDKit          3D

 40 47  0  0  0  0  0  0  0  0999 V2000
    6.7191    4.5419  -12.1760 C   0  0  0  0  0  0  0  0  0  0  0  0
    7.4596    5.5622  -11.7342 N   0  0  0  0  0  0  0  0  0  0  0  0
    8.7399    5.7315  -12.1020 C   0  0  0  0  0  0  0  0  0  0  0  0
    9.3411    4.8414  -12.9651 C   0  0  0  0  0  0  0  0  0  0  0  0
    8.6124    3.7464  -13.4668 C   0  0  0  0  0  0  0  0  0  0  0  0
    7.3178    3.6423  -13.0426 C   0  0  0  0  0  0  0  0  0  0  0  0
    6.5468    2.4566  -13.4446 C   0  0  0  0  0  0  0  0  0  0  0  0
    5.2246    2.1627  -13.2445 N   0  0  0  0  0  0  0  0  0  0  0  0
    4.9933    1.0104  -13.8895 C   0  0  0  0  0  0  0  0  0  0  0  0
    3.8570    0.2115  -14.0573 C   0  0  0  0  0  0  0  0  0  0  0  0
    3.8899   -0.9566  -14.7888 C   0  0  0  0  0  0  0  0  0  0  0  0
    5.0729   -1.3597  -15.3775 C   0  0  0  0  0  0  0  0  0  0  0  0
    6.2112   -0.5897  -15.2280 C   0  0  0  0  0  0  0  0  0  0  0  0
    6.1437    0.5729  -14.4901 C   0  0  0  0  0  0  0  0  0  0  0  0
    7.0987    1.5089  -14.1846 N   0  0  0  0  0  0  0  0  0  0  0  0
    8.5021    1.5124  -14.4825 C   0  0  0  0  0  0  0  0  0  0  0  0
    9.1417    2.8323  -14.4483 C   0  0  1  0  0  0  0  0  0  0  0  0
    9.0754    3.5279  -15.8236 C   0  0  0  0  0  0  0  0  0  0  0  0
   10.0346    2.8422  -16.6356 N   0  0  0  0  0  0  0  0  0  0  0  0
   10.5103    3.4810  -17.2846 H   0  0  0  0  0  0  0  0  0  0  0  0
   10.9260    2.0942  -15.7762 C   0  0  0  0  0  0  0  0  0  0  0  0
   10.6541    2.6480  -14.3692 C   0  0  0  0  0  0  0  0  0  0  0  0
    9.5012    6.8478  -11.5961 N   0  0  0  0  0  0  0  0  0  0  0  0
    9.7826    6.8523  -10.3341 C   0  0  0  0  0  0  0  0  0  0  0  0
   10.4887    7.8884   -9.8668 N   0  0  0  0  0  0  0  0  0  0  0  0
   10.8129    7.9438   -8.5459 C   0  0  0  0  0  0  0  0  0  0  0  0
   11.5361    8.9921   -8.0333 C   0  0  0  0  0  0  0  0  0  0  0  0
   11.8755    9.0649   -6.6903 C   0  0  0  0  0  0  0  0  0  0  0  0
   11.4807    8.0663   -5.8482 C   0  0  0  0  0  0  0  0  0  0  0  0
   10.7551    7.0197   -6.3756 C   0  0  0  0  0  0  0  0  0  0  0  0
   10.4186    6.9421   -7.6933 C   0  0  0  0  0  0  0  0  0  0  0  0
    9.6906    5.8818   -8.1963 C   0  0  0  0  0  0  0  0  0  0  0  0
    9.3836    5.8546   -9.5130 N   0  0  0  0  0  0  0  0  0  0  0  0
    8.8382    5.0593   -9.8875 H   0  0  0  0  0  0  0  0  0  0  0  0
   11.7992    8.0743   -4.4294 C   0  0  0  0  0  0  0  0  0  0  0  0
   12.1112    9.2441   -3.7562 C   0  0  0  0  0  0  0  0  0  0  0  0
   12.4131    9.2569   -2.4135 C   0  0  0  0  0  0  0  0  0  0  0  0
   12.4176    8.0971   -1.6775 C   0  0  0  0  0  0  0  0  0  0  0  0
   12.1072    6.9170   -2.3379 C   0  0  0  0  0  0  0  0  0  0  0  0
   11.8025    6.9090   -3.6954 C   0  0  0  0  0  0  0  0  0  0  0  0
  1  2  2  0
  2  3  1  0
  3 23  1  0
 23 24  2  0
 24 25  1  0
 25 26  2  0
 26 27  1  0
 27 28  2  0
 28 29  1  0
 29 35  1  0
 35 36  2  0
 36 37  1  0
 37 38  2  0
 38 39  1  0
 39 40  2  0
 29 30  2  0
 30 31  1  0
 31 32  2  0
 32 33  1  0
 33 34  1  0
  3  4  2  0
  4  5  1  0
  5  6  2  0
  6  7  1  0
  7  8  2  0
  8  9  1  0
  9 10  2  0
 10 11  1  0
 11 12  2  0
 12 13  1  0
 13 14  2  0
 14 15  1  0
 15 16  1  0
 17 16  1  6
 17 18  1  0
 18 19  1  0
 19 20  1  0
 19 21  1  0
 21 22  1  0
  6  1  1  0
 15  7  1  0
 22 17  1  0
 33 24  1  0
 17  5  1  0
 31 26  1  0
 14  9  1  0
 40 35  1  0
M  END
>  <minimizedAffinity>  (720) 
-16.70074

$$$$
Mol: 133_30 - SminaDock
     RDKit          3D

 38 44  0  0  0  0  0  0  0  0999 V2000
    8.8214    6.0121  -12.3067 C   0  0  0  0  0  0  0  0  0  0  0  0
    9.5214    5.2807  -13.2268 C   0  0  0  0  0  0  0  0  0  0  0  0
    8.9403    4.1521  -13.7963 C   0  0  0  0  0  0  0  0  0  0  0  0
    7.6727    3.7362  -13.4669 C   0  0  0  0  0  0  0  0  0  0  0  0
    6.9910    4.4935  -12.5365 C   0  0  0  0  0  0  0  0  0  0  0  0
    7.5583    5.6194  -11.9620 C   0  0  0  0  0  0  0  0  0  0  0  0
    5.6256    4.1566  -12.1035 C   0  0  0  0  0  0  0  0  0  0  0  0
    5.0372    2.9476  -12.6943 C   0  0  0  0  0  0  0  0  0  0  0  0
    5.8039    2.1977  -13.6791 C   0  0  0  0  0  0  0  0  0  0  0  0
    5.1981    1.0684  -14.2384 C   0  0  0  0  0  0  0  0  0  0  0  0
    5.8853    0.3255  -15.1691 C   0  0  0  0  0  0  0  0  0  0  0  0
    7.1579    0.6904  -15.5465 C   0  0  0  0  0  0  0  0  0  0  0  0
    7.7832    1.8173  -14.9994 C   0  0  0  0  0  0  0  0  0  0  0  0
    7.0640    2.5382  -14.0693 C   0  0  0  0  0  0  0  0  0  0  0  0
    7.6601   -0.2575  -16.5398 C   0  0  0  0  0  0  0  0  0  0  0  0
    8.7753   -0.2188  -17.0880 O   0  0  0  0  0  0  0  0  0  0  0  0
    6.6438   -1.2386  -16.7717 N   0  0  0  0  0  0  0  0  0  0  0  0
    6.7152   -2.0574  -17.4417 H   0  0  0  0  0  0  0  0  0  0  0  0
    5.5469   -0.8943  -15.9368 C   0  0  0  0  0  0  0  0  0  0  0  0
    4.4461   -1.4935  -15.8296 O   0  0  0  0  0  0  0  0  0  0  0  0
   11.3704    8.1347   -5.9206 C   0  0  0  0  0  0  0  0  0  0  0  0
   11.6017    9.2729   -6.6640 C   0  0  0  0  0  0  0  0  0  0  0  0
   11.2498    9.3025   -7.9972 C   0  0  0  0  0  0  0  0  0  0  0  0
   10.6607    8.1811   -8.5904 C   0  0  0  0  0  0  0  0  0  0  0  0
   10.3311    8.2479   -9.8930 N   0  0  0  0  0  0  0  0  0  0  0  0
    9.7568    7.1644  -10.4854 C   0  0  0  0  0  0  0  0  0  0  0  0
    9.4279    7.1824  -11.7182 N   0  0  0  0  0  0  0  0  0  0  0  0
    9.5316    6.0560   -9.7612 N   0  0  0  0  0  0  0  0  0  0  0  0
    9.0831    5.2111  -10.2247 H   0  0  0  0  0  0  0  0  0  0  0  0
    9.8361    5.9291   -8.4659 C   0  0  0  0  0  0  0  0  0  0  0  0
   10.4236    7.0312   -7.8517 C   0  0  0  0  0  0  0  0  0  0  0  0
   10.7846    7.0316   -6.5270 C   0  0  0  0  0  0  0  0  0  0  0  0
   12.3945    7.9445   -1.7919 C   0  0  0  0  0  0  0  0  0  0  0  0
   12.0544    6.7936   -2.4656 C   0  0  0  0  0  0  0  0  0  0  0  0
   11.7235    6.8486   -3.7957 C   0  0  0  0  0  0  0  0  0  0  0  0
   11.7131    8.0277   -4.5139 C   0  0  0  0  0  0  0  0  0  0  0  0
   12.0540    9.1767   -3.8359 C   0  0  0  0  0  0  0  0  0  0  0  0
   12.3936    9.1388   -2.4812 C   0  0  0  0  0  0  0  0  0  0  0  0
 33 34  2  0
 34 35  1  0
 35 36  2  0
 36 21  1  0
 21 22  1  0
 22 23  2  0
 23 24  1  0
 24 25  2  0
 25 26  1  0
 26 27  2  0
 27  1  1  0
  1  2  2  0
  2  3  1  0
  3  4  2  0
  4  5  1  0
  5  6  2  0
  5  7  1  0
  7  8  1  0
  8  9  1  0
  9 10  2  0
 10 11  1  0
 11 12  2  0
 12 13  1  0
 13 14  2  0
 12 15  1  0
 15 16  2  0
 15 17  1  0
 17 18  1  0
 17 19  1  0
 19 20  2  0
 26 28  1  0
 28 29  1  0
 28 30  1  0
 30 31  2  0
 31 32  1  0
 36 37  1  0
 37 38  2  0
 38 33  1  0
 32 21  2  0
 31 24  1  0
  6  1  1  0
 14  9  1  0
 14  4  1  0
 19 11  1  0
M  END
>  <minimizedAffinity>  (721) 
-16.74316

$$$$
Mol: 152_26 - SminaDock
     RDKit          3D

 39 45  0  0  0  0  0  0  0  0999 V2000
    8.8010    5.9333  -12.3701 C   0  0  0  0  0  0  0  0  0  0  0  0
    9.6758    5.3925  -13.3029 C   0  0  0  0  0  0  0  0  0  0  0  0
    9.3150    4.2653  -14.0098 C   0  0  0  0  0  0  0  0  0  0  0  0
    8.0690    3.7038  -13.7578 C   0  0  0  0  0  0  0  0  0  0  0  0
    7.1900    4.2032  -12.8563 C   0  0  0  0  0  0  0  0  0  0  0  0
    7.5879    5.3457  -12.1580 C   0  0  0  0  0  0  0  0  0  0  0  0
    5.8774    3.6316  -12.5792 C   0  0  0  0  0  0  0  0  0  0  0  0
    5.4513    2.4222  -13.2910 C   0  0  0  0  0  0  0  0  0  0  0  0
    6.4370    1.9195  -14.2650 C   0  0  0  0  0  0  0  0  0  0  0  0
    7.6581    2.5019  -14.4913 C   0  0  0  0  0  0  0  0  0  0  0  0
    8.5295    2.0126  -15.3848 N   0  0  0  0  0  0  0  0  0  0  0  0
    8.1833    0.9052  -16.0829 C   0  0  0  0  0  0  0  0  0  0  0  0
    8.9604    0.3960  -16.9386 O   0  0  0  0  0  0  0  0  0  0  0  0
    6.9663    0.2845  -15.8901 C   0  0  0  0  0  0  0  0  0  0  0  0
    6.0584    0.7714  -14.9778 C   0  0  0  0  0  0  0  0  0  0  0  0
    4.8328    0.1771  -14.7587 C   0  0  0  0  0  0  0  0  0  0  0  0
    4.4982   -0.9500  -15.4794 C   0  0  0  0  0  0  0  0  0  0  0  0
    5.4196   -1.4287  -16.3929 C   0  0  0  0  0  0  0  0  0  0  0  0
    5.1116   -2.4640  -17.0546 O   0  0  0  0  0  0  0  0  0  0  0  0
    6.6004   -0.8227  -16.5770 N   0  0  0  0  0  0  0  0  0  0  0  0
    7.2757   -1.1976  -17.2659 H   0  0  0  0  0  0  0  0  0  0  0  0
   11.2185    8.0941   -5.8436 C   0  0  0  0  0  0  0  0  0  0  0  0
   11.2585    9.2987   -6.5420 C   0  0  0  0  0  0  0  0  0  0  0  0
   10.8567    9.2740   -7.8578 C   0  0  0  0  0  0  0  0  0  0  0  0
   10.4242    8.1215   -8.4972 C   0  0  0  0  0  0  0  0  0  0  0  0
   10.3943    6.9473   -7.7861 C   0  0  0  0  0  0  0  0  0  0  0  0
    9.9562    5.8128   -8.4569 C   0  0  0  0  0  0  0  0  0  0  0  0
    9.5747    5.8537   -9.7508 N   0  0  0  0  0  0  0  0  0  0  0  0
    9.6115    7.0152  -10.4297 C   0  0  0  0  0  0  0  0  0  0  0  0
    9.2484    7.0921  -11.6863 N   0  0  0  0  0  0  0  0  0  0  0  0
   10.0358    8.1119   -9.7788 N   0  0  0  0  0  0  0  0  0  0  0  0
   10.0645    9.0108  -10.3037 H   0  0  0  0  0  0  0  0  0  0  0  0
   10.7887    6.9339   -6.4689 C   0  0  0  0  0  0  0  0  0  0  0  0
   12.4407    8.0583   -1.7899 C   0  0  0  0  0  0  0  0  0  0  0  0
   12.1794    6.8751   -2.4402 C   0  0  0  0  0  0  0  0  0  0  0  0
   11.7810    6.9095   -3.7663 C   0  0  0  0  0  0  0  0  0  0  0  0
   11.6393    8.1028   -4.4523 C   0  0  0  0  0  0  0  0  0  0  0  0
   11.9045    9.3051   -3.7922 C   0  0  0  0  0  0  0  0  0  0  0  0
   12.2994    9.2517   -2.4746 C   0  0  0  0  0  0  0  0  0  0  0  0
 34 35  2  0
 35 36  1  0
 36 37  2  0
 37 22  1  0
 22 23  2  0
 23 24  1  0
 24 25  2  0
 25 26  1  0
 26 27  1  0
 27 28  2  0
 28 29  1  0
 29 30  2  0
 30  1  1  0
  1  2  2  0
  2  3  1  0
  3  4  2  0
  4  5  1  0
  5  6  2  0
  5  7  1  0
  7  8  1  0
  8  9  1  0
  9 10  2  0
 10 11  1  0
 11 12  1  0
 12 13  2  0
 12 14  1  0
 14 15  2  0
 15 16  1  0
 16 17  2  0
 17 18  1  0
 18 19  2  0
 18 20  1  0
 20 21  1  0
 29 31  1  0
 31 32  1  0
 26 33  2  0
 37 38  1  0
 38 39  2  0
 39 34  1  0
 33 22  1  0
 31 25  1  0
  6  1  1  0
 15  9  1  0
 10  4  1  0
 20 14  1  0
M  CHG  1  11  -1
M  END
>  <minimizedAffinity>  (722) 
-16.66202

$$$$
Mol: 167_49 - SminaDock
     RDKit          3D

 38 44  0  0  0  0  0  0  0  0999 V2000
    8.6851    5.6945  -12.2972 C   0  0  0  0  0  0  0  0  0  0  0  0
    7.3758    5.3231  -12.0875 C   0  0  0  0  0  0  0  0  0  0  0  0
    6.8263    4.1769  -12.6587 C   0  0  0  0  0  0  0  0  0  0  0  0
    7.6090    3.3742  -13.4661 C   0  0  0  0  0  0  0  0  0  0  0  0
    8.9194    3.7195  -13.6900 C   0  0  0  0  0  0  0  0  0  0  0  0
    9.4426    4.8863  -13.0978 C   0  0  0  0  0  0  0  0  0  0  0  0
    9.7968    2.8469  -14.4759 C   0  0  0  0  0  0  0  0  0  0  0  0
    9.1308    1.9207  -15.4029 C   0  0  0  0  0  0  0  0  0  0  0  0
    7.7929    1.4768  -15.0154 C   0  0  0  0  0  0  0  0  0  0  0  0
    7.0162    2.2012  -14.1489 C   0  0  0  0  0  0  0  0  0  0  0  0
    5.7395    1.8408  -13.8326 C   0  0  0  0  0  0  0  0  0  0  0  0
    5.1926    0.7049  -14.3945 C   0  0  0  0  0  0  0  0  0  0  0  0
    3.8994    0.2987  -14.1024 C   0  0  0  0  0  0  0  0  0  0  0  0
    3.3298   -0.8321  -14.6495 C   0  0  0  0  0  0  0  0  0  0  0  0
    4.0951   -1.5440  -15.4982 N   0  0  0  0  0  0  0  0  0  0  0  0
    3.7351   -2.4111  -15.9522 H   0  0  0  0  0  0  0  0  0  0  0  0
    5.3539   -1.1721  -15.7992 C   0  0  0  0  0  0  0  0  0  0  0  0
    6.0741   -1.8441  -16.5994 O   0  0  0  0  0  0  0  0  0  0  0  0
    5.9514   -0.0413  -15.2647 C   0  0  0  0  0  0  0  0  0  0  0  0
    7.2333    0.3277  -15.5792 C   0  0  0  0  0  0  0  0  0  0  0  0
   11.2269    7.9792   -5.9232 C   0  0  0  0  0  0  0  0  0  0  0  0
   11.3401    9.1211   -6.6811 C   0  0  0  0  0  0  0  0  0  0  0  0
   10.9500    9.1363   -8.0260 C   0  0  0  0  0  0  0  0  0  0  0  0
   10.4470    8.0077   -8.6104 C   0  0  0  0  0  0  0  0  0  0  0  0
   10.3363    6.8664   -7.8453 C   0  0  0  0  0  0  0  0  0  0  0  0
    9.8437    5.7436   -8.3996 N   0  0  0  0  0  0  0  0  0  0  0  0
    9.4662    5.7630   -9.7057 C   0  0  0  0  0  0  0  0  0  0  0  0
    9.5810    6.9091  -10.4618 C   0  0  0  0  0  0  0  0  0  0  0  0
    9.2123    6.8837  -11.6923 N   0  0  0  0  0  0  0  0  0  0  0  0
   10.0687    8.0314   -9.9237 N   0  0  0  0  0  0  0  0  0  0  0  0
   10.1553    8.9041  -10.5021 H   0  0  0  0  0  0  0  0  0  0  0  0
   10.7220    6.8448   -6.5086 C   0  0  0  0  0  0  0  0  0  0  0  0
   12.4442    8.0399   -1.8626 C   0  0  0  0  0  0  0  0  0  0  0  0
   12.1087    6.8549   -2.4989 C   0  0  0  0  0  0  0  0  0  0  0  0
   11.7140    6.8435   -3.8191 C   0  0  0  0  0  0  0  0  0  0  0  0
   11.6451    8.0181   -4.5361 C   0  0  0  0  0  0  0  0  0  0  0  0
   11.9829    9.1863   -3.8848 C   0  0  0  0  0  0  0  0  0  0  0  0
   12.3787    9.2152   -2.5683 C   0  0  0  0  0  0  0  0  0  0  0  0
 33 34  2  0
 34 35  1  0
 35 36  2  0
 36 21  1  0
 21 22  2  0
 22 23  1  0
 23 24  2  0
 24 25  1  0
 25 26  1  0
 26 27  2  0
 27 28  1  0
 28 29  2  0
 29  1  1  0
  1  2  2  0
  2  3  1  0
  3  4  2  0
  4  5  1  0
  5  6  2  0
  5  7  1  0
  7  8  1  0
  8  9  1  0
  9 10  2  0
 10 11  1  0
 11 12  2  0
 12 13  1  0
 13 14  2  0
 14 15  1  0
 15 16  1  0
 15 17  1  0
 17 18  2  0
 17 19  1  0
 19 20  2  0
 28 30  1  0
 30 31  1  0
 25 32  2  0
 36 37  1  0
 37 38  2  0
 38 33  1  0
 32 21  1  0
 30 24  1  0
  6  1  1  0
 20  9  1  0
 10  4  1  0
 19 12  1  0
M  END
>  <minimizedAffinity>  (723) 
-16.65818

$$$$
Mol: 166_62 - SminaDock
     RDKit          3D

 44 51  0  0  0  0  0  0  0  0999 V2000
    8.8955    6.2054  -12.1462 C   0  0  0  0  0  0  0  0  0  0  0  0
    7.6235    5.8524  -11.6996 C   0  0  0  0  0  0  0  0  0  0  0  0
    7.0239    4.7507  -12.2931 C   0  0  0  0  0  0  0  0  0  0  0  0
    7.6465    4.0250  -13.2843 C   0  0  0  0  0  0  0  0  0  0  0  0
    8.8978    4.3871  -13.7133 C   0  0  0  0  0  0  0  0  0  0  0  0
    9.5107    5.4735  -13.1394 C   0  0  0  0  0  0  0  0  0  0  0  0
    9.4548    3.6264  -14.7604 N   0  0  0  0  0  0  0  0  0  0  0  0
   10.6404    4.1874  -15.4385 C   0  0  0  0  0  0  0  0  0  0  0  0
    8.9591    2.3345  -15.2263 C   0  0  0  0  0  0  0  0  0  0  0  0
    7.5809    2.0317  -14.8096 C   0  0  0  0  0  0  0  0  0  0  0  0
    6.9848    2.8265  -13.8528 C   0  0  0  0  0  0  0  0  0  0  0  0
    5.7263    2.3249  -13.6293 C   0  0  0  0  0  0  0  0  0  0  0  0
    5.5001    1.2588  -14.3971 N   0  0  0  0  0  0  0  0  0  0  0  0
    4.4691    0.4546  -14.5608 N   0  0  0  0  0  0  0  0  0  0  0  0
    4.4322   -0.5628  -15.4049 C   0  0  0  0  0  0  0  0  0  0  0  0
    3.4183   -1.3013  -15.5225 O   0  0  0  0  0  0  0  0  0  0  0  0
    5.5257   -0.8195  -16.1709 C   0  0  0  0  0  0  0  0  0  0  0  0
    6.6430    0.0098  -16.0273 C   0  0  0  0  0  0  0  0  0  0  0  0
    6.6369    1.0615  -15.1347 C   0  0  0  0  0  0  0  0  0  0  0  0
    7.8931   -0.0962  -16.7017 N   0  0  0  0  0  0  0  0  0  0  0  0
    8.7031    0.1413  -16.1116 H   0  0  0  0  0  0  0  0  0  0  0  0
    8.0985   -0.5204  -18.0725 C   0  0  0  0  0  0  0  0  0  0  0  0
    7.4407   -1.7896  -18.3327 N   0  0  0  0  0  0  0  0  0  0  0  0
    7.8514   -2.1772  -19.1961 H   0  0  0  0  0  0  0  0  0  0  0  0
    6.0163   -1.6410  -18.4529 C   0  0  0  0  0  0  0  0  0  0  0  0
    5.3908   -1.9722  -17.1016 C   0  0  0  0  0  0  0  0  0  0  0  0
   11.4499    8.2341   -5.7870 C   0  0  0  0  0  0  0  0  0  0  0  0
   11.6980    9.3710   -6.5273 C   0  0  0  0  0  0  0  0  0  0  0  0
   11.3408    9.3862   -7.8466 C   0  0  0  0  0  0  0  0  0  0  0  0
   10.7411    8.3011   -8.4583 C   0  0  0  0  0  0  0  0  0  0  0  0
   10.4024    8.3455   -9.7545 N   0  0  0  0  0  0  0  0  0  0  0  0
    9.8237    7.2707  -10.3063 C   0  0  0  0  0  0  0  0  0  0  0  0
    9.5114    7.3342  -11.5378 N   0  0  0  0  0  0  0  0  0  0  0  0
    9.5880    6.1729   -9.5764 N   0  0  0  0  0  0  0  0  0  0  0  0
    9.1357    5.3543  -10.0396 H   0  0  0  0  0  0  0  0  0  0  0  0
    9.9015    6.0713   -8.2893 C   0  0  0  0  0  0  0  0  0  0  0  0
   10.5044    7.1805   -7.6996 C   0  0  0  0  0  0  0  0  0  0  0  0
   10.8460    7.1195   -6.3711 C   0  0  0  0  0  0  0  0  0  0  0  0
   12.4415    7.8961   -1.7287 C   0  0  0  0  0  0  0  0  0  0  0  0
   12.4546    9.1255   -2.3481 C   0  0  0  0  0  0  0  0  0  0  0  0
   12.1332    9.2787   -3.6858 C   0  0  0  0  0  0  0  0  0  0  0  0
   11.7959    8.1191   -4.3694 C   0  0  0  0  0  0  0  0  0  0  0  0
   11.7764    6.8874   -3.7733 C   0  0  0  0  0  0  0  0  0  0  0  0
   12.0998    6.7648   -2.4448 C   0  0  0  0  0  0  0  0  0  0  0  0
 39 40  2  0
 40 41  1  0
 41 42  2  0
 42 27  1  0
 27 28  1  0
 28 29  2  0
 29 30  1  0
 30 31  2  0
 31 32  1  0
 32 33  2  0
 33  1  1  0
  1  2  2  0
  2  3  1  0
  3  4  2  0
  4  5  1  0
  5  6  2  0
  5  7  1  0
  7  8  1  0
  7  9  1  0
  9 10  1  0
 10 11  1  0
 11 12  2  0
 12 13  1  0
 13 14  1  0
 14 15  1  0
 15 16  2  0
 15 17  1  0
 17 18  2  0
 18 19  1  0
 18 20  1  0
 20 21  1  0
 20 22  1  0
 22 23  1  0
 23 24  1  0
 23 25  1  0
 25 26  1  0
 32 34  1  0
 34 35  1  0
 34 36  1  0
 36 37  2  0
 37 38  1  0
 42 43  1  0
 43 44  2  0
 44 39  1  0
 38 27  2  0
 37 30  1  0
  6  1  1  0
 19 10  2  0
 11  4  1  0
 19 13  1  0
 26 17  1  0
M  CHG  1  14  -1
M  END
>  <minimizedAffinity>  (724) 
-16.72501

$$$$
Mol: 152_17 - SminaDock
     RDKit          3D

 37 43  0  0  0  0  0  0  0  0999 V2000
    8.5740    5.6660  -12.1825 C   0  0  0  0  0  0  0  0  0  0  0  0
    7.2658    5.4534  -11.8318 C   0  0  0  0  0  0  0  0  0  0  0  0
    6.5450    4.3625  -12.3501 C   0  0  0  0  0  0  0  0  0  0  0  0
    7.1419    3.4837  -13.2232 C   0  0  0  0  0  0  0  0  0  0  0  0
    8.4781    3.7118  -13.5692 C   0  0  0  0  0  0  0  0  0  0  0  0
    9.1700    4.7836  -13.0557 C   0  0  0  0  0  0  0  0  0  0  0  0
    9.2080    2.7409  -14.4256 C   0  0  0  0  0  0  0  0  0  0  0  0
    8.2318    2.1517  -15.3765 C   0  0  0  0  0  0  0  0  0  0  0  0
    6.9930    1.6241  -14.8066 C   0  0  0  0  0  0  0  0  0  0  0  0
    6.3971    0.4900  -15.3192 C   0  0  0  0  0  0  0  0  0  0  0  0
    5.1217    0.1668  -14.8258 C   0  0  0  0  0  0  0  0  0  0  0  0
    4.5031    0.9463  -13.8766 C   0  0  0  0  0  0  0  0  0  0  0  0
    5.1063    2.0768  -13.3645 C   0  0  0  0  0  0  0  0  0  0  0  0
    6.3694    2.4162  -13.8354 C   0  0  0  0  0  0  0  0  0  0  0  0
    4.3909   -1.0171  -15.3007 C   0  0  0  0  0  0  0  0  0  0  0  0
    5.2609   -2.0383  -15.9743 C   0  0  0  0  0  0  0  0  0  0  0  0
    6.3049   -1.4926  -16.7107 O   0  0  0  0  0  0  0  0  0  0  0  0
    7.0152   -0.3721  -16.2987 C   0  0  0  0  0  0  0  0  0  0  0  0
    8.1352   -0.1286  -16.7558 O   0  0  0  0  0  0  0  0  0  0  0  0
   11.3867    8.0842   -5.9798 C   0  0  0  0  0  0  0  0  0  0  0  0
   11.6892    9.1000   -6.8328 C   0  0  0  0  0  0  0  0  0  0  0  0
   11.3374    9.0742   -8.1656 C   0  0  0  0  0  0  0  0  0  0  0  0
   10.6441    7.9758   -8.6846 C   0  0  0  0  0  0  0  0  0  0  0  0
   10.2860    7.9151   -9.9712 N   0  0  0  0  0  0  0  0  0  0  0  0
    9.6186    6.8199  -10.3939 C   0  0  0  0  0  0  0  0  0  0  0  0
    9.2856    6.7878  -11.6399 N   0  0  0  0  0  0  0  0  0  0  0  0
    9.2959    5.7946   -9.6016 N   0  0  0  0  0  0  0  0  0  0  0  0
    8.7805    4.9845   -9.9996 H   0  0  0  0  0  0  0  0  0  0  0  0
    9.6372    5.8179   -8.3059 C   0  0  0  0  0  0  0  0  0  0  0  0
   10.3255    6.9302   -7.8350 C   0  0  0  0  0  0  0  0  0  0  0  0
   10.6943    6.9967   -6.5179 C   0  0  0  0  0  0  0  0  0  0  0  0
   12.3963    7.9756   -1.8779 C   0  0  0  0  0  0  0  0  0  0  0  0
   12.0377    6.8245   -2.5389 C   0  0  0  0  0  0  0  0  0  0  0  0
   11.7184    6.8908   -3.8579 C   0  0  0  0  0  0  0  0  0  0  0  0
   11.7390    8.0711   -4.5657 C   0  0  0  0  0  0  0  0  0  0  0  0
   12.0957    9.2190   -3.9098 C   0  0  0  0  0  0  0  0  0  0  0  0
   12.4221    9.1670   -2.5716 C   0  0  0  0  0  0  0  0  0  0  0  0
 32 33  2  0
 33 34  1  0
 34 35  2  0
 35 20  1  0
 20 21  1  0
 21 22  2  0
 22 23  1  0
 23 24  2  0
 24 25  1  0
 25 26  2  0
 26  1  1  0
  1  2  2  0
  2  3  1  0
  3  4  2  0
  4  5  1  0
  5  6  2  0
  5  7  1  0
  7  8  1  0
  8  9  1  0
  9 10  2  0
 10 11  1  0
 11 12  2  0
 12 13  1  0
 13 14  2  0
 11 15  1  0
 15 16  1  0
 16 17  1  0
 17 18  1  0
 18 19  2  0
 25 27  1  0
 27 28  1  0
 27 29  1  0
 29 30  2  0
 30 31  1  0
 35 36  1  0
 36 37  2  0
 37 32  1  0
 31 20  2  0
 30 23  1  0
  6  1  1  0
 14  9  1  0
 14  4  1  0
 18 10  1  0
M  END
>  <minimizedAffinity>  (725) 
-16.70720

$$$$
Mol: 166_12 - SminaDock
     RDKit          3D

 36 42  0  0  0  0  0  0  0  0999 V2000
    3.8194   -0.9299  -14.9122 C   0  0  0  0  0  0  0  0  0  0  0  0
    5.0459   -1.0363  -15.4262 O   0  0  0  0  0  0  0  0  0  0  0  0
    5.7841   -0.0326  -15.0174 C   0  0  0  0  0  0  0  0  0  0  0  0
    7.0956    0.3223  -15.2517 C   0  0  0  0  0  0  0  0  0  0  0  0
    7.8436   -0.3730  -15.9902 O   0  0  0  0  0  0  0  0  0  0  0  0
    7.6504    1.4084  -14.7204 O   0  0  0  0  0  0  0  0  0  0  0  0
    6.9759    2.2126  -13.9350 C   0  0  0  0  0  0  0  0  0  0  0  0
    5.6588    1.9001  -13.6721 C   0  0  0  0  0  0  0  0  0  0  0  0
    5.0414    0.7875  -14.1980 C   0  0  0  0  0  0  0  0  0  0  0  0
    3.7919    0.2085  -14.1366 C   0  0  0  0  0  0  0  0  0  0  0  0
    4.8465    2.7969  -12.8325 C   0  0  0  0  0  0  0  0  0  0  0  0
    5.5032    3.8906  -12.1271 C   0  0  0  0  0  0  0  0  0  0  0  0
    6.8755    4.2104  -12.5298 C   0  0  0  0  0  0  0  0  0  0  0  0
    7.4638    5.3849  -12.0001 C   0  0  0  0  0  0  0  0  0  0  0  0
    8.7599    5.7273  -12.2987 C   0  0  0  0  0  0  0  0  0  0  0  0
    9.4733    4.8932  -13.1302 C   0  0  0  0  0  0  0  0  0  0  0  0
    8.9055    3.7532  -13.6462 C   0  0  0  0  0  0  0  0  0  0  0  0
    7.5960    3.3945  -13.3543 C   0  0  0  0  0  0  0  0  0  0  0  0
    9.3628    6.9138  -11.7663 N   0  0  0  0  0  0  0  0  0  0  0  0
    9.6842    6.9364  -10.5348 C   0  0  0  0  0  0  0  0  0  0  0  0
   10.2557    8.0114   -9.9524 N   0  0  0  0  0  0  0  0  0  0  0  0
   10.6093    8.0786   -8.6671 C   0  0  0  0  0  0  0  0  0  0  0  0
   11.1913    9.1893   -8.1008 C   0  0  0  0  0  0  0  0  0  0  0  0
   11.5442    9.2168   -6.7598 C   0  0  0  0  0  0  0  0  0  0  0  0
   11.3150    8.1177   -5.9606 C   0  0  0  0  0  0  0  0  0  0  0  0
   10.7307    7.0143   -6.5469 C   0  0  0  0  0  0  0  0  0  0  0  0
   10.3734    6.9755   -7.8876 C   0  0  0  0  0  0  0  0  0  0  0  0
    9.7915    5.8662   -8.4578 C   0  0  0  0  0  0  0  0  0  0  0  0
    9.4623    5.8745   -9.7638 N   0  0  0  0  0  0  0  0  0  0  0  0
    9.0116    5.0230  -10.2178 H   0  0  0  0  0  0  0  0  0  0  0  0
   11.6790    8.1265   -4.5489 C   0  0  0  0  0  0  0  0  0  0  0  0
   12.0116    9.2959   -3.8969 C   0  0  0  0  0  0  0  0  0  0  0  0
   12.3583    9.2869   -2.5410 C   0  0  0  0  0  0  0  0  0  0  0  0
   12.3786    8.1130   -1.8160 C   0  0  0  0  0  0  0  0  0  0  0  0
   12.0432    6.9539   -2.4849 C   0  0  0  0  0  0  0  0  0  0  0  0
   11.7002    6.9529   -3.8205 C   0  0  0  0  0  0  0  0  0  0  0  0
  1  2  1  0
  2  3  1  0
  3  4  1  0
  4  5  2  0
  4  6  1  0
  6  7  1  0
  7  8  2  0
  8  9  1  0
  9 10  1  0
  8 11  1  0
 11 12  1  0
 12 13  1  0
 13 14  2  0
 14 15  1  0
 15 19  1  0
 19 20  2  0
 20 21  1  0
 21 22  2  0
 22 23  1  0
 23 24  2  0
 24 25  1  0
 25 31  1  0
 31 32  2  0
 32 33  1  0
 33 34  2  0
 34 35  1  0
 35 36  2  0
 25 26  2  0
 26 27  1  0
 27 28  2  0
 28 29  1  0
 29 30  1  0
 15 16  2  0
 16 17  1  0
 17 18  2  0
 10  1  2  0
 18 13  1  0
  9  3  2  0
 29 20  1  0
 18  7  1  0
 27 22  1  0
 36 31  1  0
M  END
>  <minimizedAffinity>  (726) 
-16.68528

$$$$
Mol: 151_41 - SminaDock
     RDKit          3D

 39 45  0  0  0  0  0  0  0  0999 V2000
    6.7886   -1.0072  -18.5015 H   0  0  0  0  0  0  0  0  0  0  0  0
    7.0235   -1.1493  -17.5343 O   0  0  0  0  0  0  0  0  0  0  0  0
    6.1087   -0.8860  -16.5552 C   0  0  0  0  0  0  0  0  0  0  0  0
    4.9707   -1.6161  -16.3538 N   0  0  0  0  0  0  0  0  0  0  0  0
    4.1919   -1.2422  -15.3766 N   0  0  0  0  0  0  0  0  0  0  0  0
    3.3118   -1.8261  -15.2395 H   0  0  0  0  0  0  0  0  0  0  0  0
    4.4239   -0.2113  -14.5699 C   0  0  0  0  0  0  0  0  0  0  0  0
    3.5778    0.0174  -13.6788 O   0  0  0  0  0  0  0  0  0  0  0  0
    5.5772    0.6104  -14.6953 C   0  0  0  0  0  0  0  0  0  0  0  0
    5.9585    1.6765  -13.9760 C   0  0  0  0  0  0  0  0  0  0  0  0
    7.1250    2.2974  -14.3129 C   0  0  0  0  0  0  0  0  0  0  0  0
    7.7455    1.3859  -15.6756 S   0  0  0  0  0  0  0  0  0  0  0  0
    6.3673    0.1936  -15.7228 C   0  0  0  0  0  0  0  0  0  0  0  0
    7.6424    3.5198  -13.6891 C   0  0  0  0  0  0  0  0  0  0  0  0
    8.8923    3.9475  -14.1005 C   0  0  0  0  0  0  0  0  0  0  0  0
    9.4471    5.0437  -13.4731 C   0  0  0  0  0  0  0  0  0  0  0  0
    8.7500    5.6756  -12.4658 C   0  0  0  0  0  0  0  0  0  0  0  0
    7.4913    5.2197  -12.0763 C   0  0  0  0  0  0  0  0  0  0  0  0
    6.9335    4.1349  -12.6938 C   0  0  0  0  0  0  0  0  0  0  0  0
    5.5806    3.6255  -12.4135 C   0  0  0  0  0  0  0  0  0  0  0  0
    5.2754    2.2378  -12.7604 C   0  0  0  0  0  0  0  0  0  0  0  0
    9.2527    6.8085  -11.7699 N   0  0  0  0  0  0  0  0  0  0  0  0
    9.5987    6.8118  -10.5490 C   0  0  0  0  0  0  0  0  0  0  0  0
   10.0575    7.9317   -9.9962 N   0  0  0  0  0  0  0  0  0  0  0  0
   10.4411    7.9984   -8.7030 C   0  0  0  0  0  0  0  0  0  0  0  0
   10.9136    9.1508   -8.1327 C   0  0  0  0  0  0  0  0  0  0  0  0
   11.2977    9.1917   -6.8132 C   0  0  0  0  0  0  0  0  0  0  0  0
   11.2139    8.0525   -6.0209 C   0  0  0  0  0  0  0  0  0  0  0  0
   10.7395    6.8862   -6.5847 C   0  0  0  0  0  0  0  0  0  0  0  0
   10.3547    6.8625   -7.9229 C   0  0  0  0  0  0  0  0  0  0  0  0
    9.8819    5.7060   -8.4904 C   0  0  0  0  0  0  0  0  0  0  0  0
    9.5136    5.7115   -9.7984 N   0  0  0  0  0  0  0  0  0  0  0  0
    9.1589    4.8037  -10.1855 H   0  0  0  0  0  0  0  0  0  0  0  0
   11.6168    8.0815   -4.6244 C   0  0  0  0  0  0  0  0  0  0  0  0
   11.5813    6.9003   -3.9151 C   0  0  0  0  0  0  0  0  0  0  0  0
   11.9558    6.8724   -2.5787 C   0  0  0  0  0  0  0  0  0  0  0  0
   12.3622    8.0376   -1.9721 C   0  0  0  0  0  0  0  0  0  0  0  0
   12.3994    9.2203   -2.6761 C   0  0  0  0  0  0  0  0  0  0  0  0
   12.0236    9.2438   -4.0145 C   0  0  0  0  0  0  0  0  0  0  0  0
  1  2  1  0
  2  3  1  0
  3  4  2  0
  4  5  1  0
  5  6  1  0
  5  7  1  0
  7  8  2  0
  7  9  1  0
  9 10  1  0
 10 11  2  0
 11 12  1  0
 12 13  1  0
 11 14  1  0
 14 15  2  0
 15 16  1  0
 16 17  2  0
 17 22  1  0
 22 23  2  0
 23 24  1  0
 24 25  2  0
 25 26  1  0
 26 27  2  0
 27 28  1  0
 28 34  1  0
 34 35  2  0
 35 36  1  0
 36 37  2  0
 37 38  1  0
 38 39  2  0
 28 29  2  0
 29 30  1  0
 30 31  2  0
 31 32  1  0
 32 33  1  0
 17 18  1  0
 18 19  2  0
 19 20  1  0
 20 21  1  0
 13  3  1  0
 19 14  1  0
 13  9  2  0
 32 23  1  0
 21 10  1  0
 30 25  1  0
 39 34  1  0
M  END
>  <minimizedAffinity>  (727) 
-16.66765

$$$$
Mol: 146_35 - SminaDock
     RDKit          3D

 43 50  0  0  0  0  0  0  0  0999 V2000
    7.0716    4.7100  -11.7238 N   0  0  0  0  0  0  0  0  0  0  0  0
    6.2573    4.9586  -11.0664 H   0  0  0  0  0  0  0  0  0  0  0  0
    9.0540    0.0023  -18.5983 C   0  0  0  0  0  0  0  0  0  0  0  0
    7.8050   -0.7374  -18.6112 N   0  0  0  0  0  0  0  0  0  0  0  0
    7.5731   -1.6419  -19.7125 C   0  0  0  0  0  0  0  0  0  0  0  0
    6.5099   -2.5752  -19.4196 N   0  0  0  0  0  0  0  0  0  0  0  0
    5.5823   -2.3906  -18.3646 C   0  0  0  0  0  0  0  0  0  0  0  0
    4.5680   -3.1291  -18.2342 O   0  0  0  0  0  0  0  0  0  0  0  0
    5.7997   -1.3170  -17.3957 C   0  0  0  0  0  0  0  0  0  0  0  0
    4.8931   -1.1509  -16.3830 C   0  0  0  0  0  0  0  0  0  0  0  0
    5.0857   -0.1374  -15.4576 C   0  0  0  0  0  0  0  0  0  0  0  0
    6.1906    0.6646  -15.5929 C   0  0  0  0  0  0  0  0  0  0  0  0
    7.1027    0.5003  -16.6126 C   0  0  0  0  0  0  0  0  0  0  0  0
    6.9078   -0.5242  -17.5526 C   0  0  0  0  0  0  0  0  0  0  0  0
    6.4962    1.6751  -14.5489 C   0  0  0  0  0  0  0  0  0  0  0  0
    7.5280    2.5739  -14.7168 C   0  0  0  0  0  0  0  0  0  0  0  0
    7.7056    3.5656  -13.7732 C   0  0  0  0  0  0  0  0  0  0  0  0
    6.8614    3.6811  -12.6472 C   0  0  0  0  0  0  0  0  0  0  0  0
    5.8591    2.7759  -12.5176 C   0  0  0  0  0  0  0  0  0  0  0  0
    5.6573    1.7592  -13.4580 C   0  0  0  0  0  0  0  0  0  0  0  0
    4.6332    0.7560  -13.2094 C   0  0  0  0  0  0  0  0  0  0  0  0
    4.0845    0.1417  -14.4243 C   0  0  0  0  0  0  0  0  0  0  0  0
    6.4342   -3.4229  -20.0238 H   0  0  0  0  0  0  0  0  0  0  0  0
    8.2339    5.4904  -11.5257 C   0  0  0  0  0  0  0  0  0  0  0  0
    9.0413    5.9186  -12.5011 N   0  0  0  0  0  0  0  0  0  0  0  0
   10.1429    6.6490  -12.3711 C   0  0  0  0  0  0  0  0  0  0  0  0
   10.5177    7.0209  -11.0948 C   0  0  0  0  0  0  0  0  0  0  0  0
   11.6445    7.7768  -10.8529 C   0  0  0  0  0  0  0  0  0  0  0  0
   11.9639    8.1128   -9.5499 C   0  0  0  0  0  0  0  0  0  0  0  0
   11.1896    7.7150   -8.4823 C   0  0  0  0  0  0  0  0  0  0  0  0
   10.0738    6.9629   -8.7601 C   0  0  0  0  0  0  0  0  0  0  0  0
    9.7102    6.5980  -10.0647 C   0  0  0  0  0  0  0  0  0  0  0  0
    8.6067    5.8595  -10.2626 N   0  0  0  0  0  0  0  0  0  0  0  0
   11.5435    8.0771   -7.1084 C   0  0  0  0  0  0  0  0  0  0  0  0
   12.1422    9.2716   -6.7618 C   0  0  0  0  0  0  0  0  0  0  0  0
   12.4808    9.6192   -5.4783 C   0  0  0  0  0  0  0  0  0  0  0  0
   12.1980    8.7030   -4.4743 C   0  0  0  0  0  0  0  0  0  0  0  0
   12.5244    9.0204   -3.1826 C   0  0  0  0  0  0  0  0  0  0  0  0
   12.2546    8.1287   -2.1703 C   0  0  0  0  0  0  0  0  0  0  0  0
   11.6587    6.9237   -2.4614 C   0  0  0  0  0  0  0  0  0  0  0  0
   11.3310    6.6067   -3.7631 C   0  0  0  0  0  0  0  0  0  0  0  0
   11.5980    7.4940   -4.7820 C   0  0  0  0  0  0  0  0  0  0  0  0
   11.2762    7.1872   -6.0792 C   0  0  0  0  0  0  0  0  0  0  0  0
  3  4  1  0
  4  5  1  0
  5  6  1  0
  6  7  1  0
  7  8  2  0
  7  9  1  0
  9 10  2  0
 10 11  1  0
 11 12  2  0
 12 13  1  0
 13 14  2  0
 12 15  1  0
 15 16  2  0
 16 17  1  0
 17 18  2  0
 18  1  1  0
  1 24  1  0
 24 25  2  0
 25 26  1  0
 26 27  2  0
 27 28  1  0
 28 29  2  0
 29 30  1  0
 30 34  1  0
 34 35  2  0
 35 36  1  0
 36 37  2  0
 37 38  1  0
 38 39  2  0
 39 40  1  0
 40 41  2  0
 41 42  1  0
 42 43  2  0
 30 31  2  0
 31 32  1  0
 32 33  2  0
 18 19  1  0
 19 20  2  0
 20 21  1  0
 21 22  1  0
 14  4  1  0
 20 15  1  0
 14  9  1  0
 33 24  1  0
 22 11  1  0
 32 27  1  0
 43 34  1  0
 42 37  1  0
  6 23  1  0
  1  2  1  0
M  END
>  <minimizedAffinity>  (728) 
-16.69198

$$$$
Mol: 139_24 - SminaDock
     RDKit          3D

 38 44  0  0  0  0  0  0  0  0999 V2000
    8.6769    5.9095  -12.2793 C   0  0  0  0  0  0  0  0  0  0  0  0
    7.4552    5.4365  -11.8515 C   0  0  0  0  0  0  0  0  0  0  0  0
    6.8542    4.3318  -12.4359 C   0  0  0  0  0  0  0  0  0  0  0  0
    7.5186    3.7056  -13.4739 C   0  0  0  0  0  0  0  0  0  0  0  0
    8.7373    4.1535  -13.9222 C   0  0  0  0  0  0  0  0  0  0  0  0
    9.3302    5.2797  -13.3124 C   0  0  0  0  0  0  0  0  0  0  0  0
    9.4582    3.5127  -15.0090 C   0  0  0  0  0  0  0  0  0  0  0  0
    8.8686    2.3520  -15.6755 C   0  0  0  0  0  0  0  0  0  0  0  0
    7.5717    1.8955  -15.1736 C   0  0  0  0  0  0  0  0  0  0  0  0
    6.9165    2.5421  -14.1174 C   0  0  0  0  0  0  0  0  0  0  0  0
    5.7009    2.0395  -13.7197 C   0  0  0  0  0  0  0  0  0  0  0  0
    5.0543    2.5416  -12.8021 O   0  0  0  0  0  0  0  0  0  0  0  0
    5.1591    0.9199  -14.3640 C   0  0  0  0  0  0  0  0  0  0  0  0
    3.9444    0.4481  -13.9394 C   0  0  0  0  0  0  0  0  0  0  0  0
    3.3809   -0.6758  -14.5731 C   0  0  0  0  0  0  0  0  0  0  0  0
    4.0368   -1.3028  -15.6117 C   0  0  0  0  0  0  0  0  0  0  0  0
    5.2625   -0.8002  -16.0157 C   0  0  0  0  0  0  0  0  0  0  0  0
    5.8296    0.3202  -15.3877 C   0  0  0  0  0  0  0  0  0  0  0  0
    7.0124    0.8207  -15.7643 N   0  0  0  0  0  0  0  0  0  0  0  0
    7.6840    0.1279  -16.8736 C   0  0  0  0  0  0  0  0  0  0  0  0
   11.3652    8.1537   -5.8871 C   0  0  0  0  0  0  0  0  0  0  0  0
   11.5626    9.2367   -6.7221 C   0  0  0  0  0  0  0  0  0  0  0  0
   11.1869    9.2227   -8.0462 C   0  0  0  0  0  0  0  0  0  0  0  0
   10.5924    8.1100   -8.5897 C   0  0  0  0  0  0  0  0  0  0  0  0
   10.3885    7.0247   -7.7748 C   0  0  0  0  0  0  0  0  0  0  0  0
    9.7836    5.9106   -8.3495 C   0  0  0  0  0  0  0  0  0  0  0  0
    9.4340    5.9494   -9.6517 N   0  0  0  0  0  0  0  0  0  0  0  0
    9.6424    7.0208  -10.4309 C   0  0  0  0  0  0  0  0  0  0  0  0
    9.3009    7.0491  -11.6818 N   0  0  0  0  0  0  0  0  0  0  0  0
   10.2229    8.1007   -9.8950 N   0  0  0  0  0  0  0  0  0  0  0  0
   10.3895    8.9482  -10.5044 H   0  0  0  0  0  0  0  0  0  0  0  0
   10.7607    7.0405   -6.4661 C   0  0  0  0  0  0  0  0  0  0  0  0
   12.4402    7.8912   -1.7982 C   0  0  0  0  0  0  0  0  0  0  0  0
   12.4522    9.0987   -2.4495 C   0  0  0  0  0  0  0  0  0  0  0  0
   12.1109    9.2402   -3.7784 C   0  0  0  0  0  0  0  0  0  0  0  0
   11.7387    8.1228   -4.4962 C   0  0  0  0  0  0  0  0  0  0  0  0
   11.7283    6.8991   -3.8299 C   0  0  0  0  0  0  0  0  0  0  0  0
   12.0666    6.7582   -2.5124 C   0  0  0  0  0  0  0  0  0  0  0  0
 33 34  2  0
 34 35  1  0
 35 36  2  0
 36 21  1  0
 21 22  2  0
 22 23  1  0
 23 24  2  0
 24 25  1  0
 25 26  1  0
 26 27  2  0
 27 28  1  0
 28 29  2  0
 29  1  1  0
  1  2  2  0
  2  3  1  0
  3  4  2  0
  4  5  1  0
  5  6  2  0
  5  7  1  0
  7  8  1  0
  8  9  1  0
  9 10  2  0
 10 11  1  0
 11 12  2  0
 11 13  1  0
 13 14  2  0
 14 15  1  0
 15 16  2  0
 16 17  1  0
 17 18  2  0
 18 19  1  0
 19 20  1  0
 28 30  1  0
 30 31  1  0
 25 32  2  0
 36 37  1  0
 37 38  2  0
 38 33  1  0
 32 21  1  0
 30 24  1  0
  6  1  1  0
 19  9  1  0
 10  4  1  0
 18 13  1  0
M  END
>  <minimizedAffinity>  (729) 
-16.70005

$$$$
Mol: 171_28 - SminaDock
     RDKit          3D

 38 44  0  0  0  0  0  0  0  0999 V2000
    8.7170    5.7918  -12.2984 C   0  0  0  0  0  0  0  0  0  0  0  0
    7.4054    5.4839  -12.0344 C   0  0  0  0  0  0  0  0  0  0  0  0
    6.8128    4.3364  -12.5525 C   0  0  0  0  0  0  0  0  0  0  0  0
    7.5852    3.5196  -13.3385 C   0  0  0  0  0  0  0  0  0  0  0  0
    8.9128    3.8301  -13.6062 C   0  0  0  0  0  0  0  0  0  0  0  0
    9.5020    4.9669  -13.0940 C   0  0  0  0  0  0  0  0  0  0  0  0
    9.7609    2.9613  -14.4494 C   0  0  0  0  0  0  0  0  0  0  0  0
    9.0809    1.8324  -14.9319 O   0  0  0  0  0  0  0  0  0  0  0  0
    7.7770    1.5050  -14.6827 C   0  0  0  0  0  0  0  0  0  0  0  0
    6.9673    2.3080  -13.8902 C   0  0  0  0  0  0  0  0  0  0  0  0
    5.6548    1.9539  -13.6550 C   0  0  0  0  0  0  0  0  0  0  0  0
    5.0899    0.8058  -14.1847 C   0  0  0  0  0  0  0  0  0  0  0  0
    3.8246    0.4444  -13.9706 N   0  0  0  0  0  0  0  0  0  0  0  0
    3.2747   -0.6813  -14.4915 C   0  0  0  0  0  0  0  0  0  0  0  0
    4.0269   -1.4859  -15.2649 N   0  0  0  0  0  0  0  0  0  0  0  0
    3.5966   -2.3512  -15.6624 H   0  0  0  0  0  0  0  0  0  0  0  0
    5.3088   -1.1444  -15.4975 C   0  0  0  0  0  0  0  0  0  0  0  0
    6.0315   -1.8819  -16.2181 O   0  0  0  0  0  0  0  0  0  0  0  0
    5.8786   -0.0039  -14.9742 C   0  0  0  0  0  0  0  0  0  0  0  0
    7.1849    0.3549  -15.2043 C   0  0  0  0  0  0  0  0  0  0  0  0
   11.2714    8.0669   -5.9347 C   0  0  0  0  0  0  0  0  0  0  0  0
   11.4171    9.2043   -6.7281 C   0  0  0  0  0  0  0  0  0  0  0  0
   11.0398    9.2061   -8.0557 C   0  0  0  0  0  0  0  0  0  0  0  0
   10.5036    8.0788   -8.6452 C   0  0  0  0  0  0  0  0  0  0  0  0
   10.3519    6.9441   -7.8758 C   0  0  0  0  0  0  0  0  0  0  0  0
    9.8155    5.8267   -8.4774 C   0  0  0  0  0  0  0  0  0  0  0  0
    9.4562    5.8628   -9.7812 N   0  0  0  0  0  0  0  0  0  0  0  0
    9.6120    6.9730  -10.5081 C   0  0  0  0  0  0  0  0  0  0  0  0
    9.2627    6.9772  -11.7404 N   0  0  0  0  0  0  0  0  0  0  0  0
   10.1325    8.0785   -9.9484 N   0  0  0  0  0  0  0  0  0  0  0  0
   10.2630    8.9540  -10.4945 H   0  0  0  0  0  0  0  0  0  0  0  0
   10.7289    6.9478   -6.5558 C   0  0  0  0  0  0  0  0  0  0  0  0
   12.4103    7.9669   -1.8648 C   0  0  0  0  0  0  0  0  0  0  0  0
   12.3972    9.1808   -2.5321 C   0  0  0  0  0  0  0  0  0  0  0  0
   12.0188    9.2023   -3.8789 C   0  0  0  0  0  0  0  0  0  0  0  0
   11.6667    8.0595   -4.5361 C   0  0  0  0  0  0  0  0  0  0  0  0
   11.6949    6.8680   -3.8269 C   0  0  0  0  0  0  0  0  0  0  0  0
   12.0599    6.8092   -2.5085 C   0  0  0  0  0  0  0  0  0  0  0  0
 33 34  2  0
 34 35  1  0
 35 36  2  0
 36 21  1  0
 21 22  2  0
 22 23  1  0
 23 24  2  0
 24 25  1  0
 25 26  1  0
 26 27  2  0
 27 28  1  0
 28 29  2  0
 29  1  1  0
  1  2  2  0
  2  3  1  0
  3  4  2  0
  4  5  1  0
  5  6  2  0
  5  7  1  0
  7  8  1  0
  8  9  1  0
  9 10  2  0
 10 11  1  0
 11 12  2  0
 12 13  1  0
 13 14  2  0
 14 15  1  0
 15 16  1  0
 15 17  1  0
 17 18  2  0
 17 19  1  0
 19 20  2  0
 28 30  1  0
 30 31  1  0
 25 32  2  0
 36 37  1  0
 37 38  2  0
 38 33  1  0
 32 21  1  0
 30 24  1  0
  6  1  1  0
 20  9  1  0
 10  4  1  0
 19 12  1  0
M  END
>  <minimizedAffinity>  (730) 
-16.67916

$$$$
Mol: 171_30 - SminaDock
     RDKit          3D

 41 47  0  0  0  0  0  0  0  0999 V2000
    5.4171   -3.4602  -17.8931 H   0  0  0  0  0  0  0  0  0  0  0  0
    4.8368   -2.7192  -17.4948 O   0  0  0  0  0  0  0  0  0  0  0  0
    5.4707   -1.5875  -16.8923 C   0  0  0  0  0  0  0  0  0  0  0  0
    6.6231   -1.2408  -17.3392 N   0  0  0  0  0  0  0  0  0  0  0  0
    7.1754   -1.9905  -18.3794 N   0  0  0  0  0  0  0  0  0  0  0  0
    7.4969   -2.9536  -18.1628 H   0  0  0  0  0  0  0  0  0  0  0  0
    7.2841   -1.6460  -19.3519 H   0  0  0  0  0  0  0  0  0  0  0  0
    7.2816   -0.1583  -16.7968 O   0  0  0  0  0  0  0  0  0  0  0  0
    6.6971    0.5693  -15.7551 C   0  0  0  0  0  0  0  0  0  0  0  0
    7.3462    1.6649  -15.1944 C   0  0  0  0  0  0  0  0  0  0  0  0
    6.7934    2.4098  -14.1579 C   0  0  0  0  0  0  0  0  0  0  0  0
    5.5621    2.0632  -13.6589 C   0  0  0  0  0  0  0  0  0  0  0  0
    4.9129    0.9806  -14.2075 C   0  0  0  0  0  0  0  0  0  0  0  0
    5.4744    0.2282  -15.2567 C   0  0  0  0  0  0  0  0  0  0  0  0
    4.7400   -0.9215  -15.8099 C   0  0  0  0  0  0  0  0  0  0  0  0
    4.8581    2.7735  -12.5544 C   0  0  0  0  0  0  0  0  0  0  0  0
    5.5805    3.9269  -11.9861 C   0  0  0  0  0  0  0  0  0  0  0  0
    6.8863    4.2357  -12.5696 C   0  0  0  0  0  0  0  0  0  0  0  0
    7.5688    5.3205  -12.0403 C   0  0  0  0  0  0  0  0  0  0  0  0
    8.8064    5.7209  -12.4954 C   0  0  0  0  0  0  0  0  0  0  0  0
    9.3824    5.0043  -13.5229 C   0  0  0  0  0  0  0  0  0  0  0  0
    8.7318    3.9137  -14.0785 C   0  0  0  0  0  0  0  0  0  0  0  0
    7.5003    3.5458  -13.5980 C   0  0  0  0  0  0  0  0  0  0  0  0
    9.4935    6.8445  -11.9341 N   0  0  0  0  0  0  0  0  0  0  0  0
    9.7459    6.8139  -10.6756 C   0  0  0  0  0  0  0  0  0  0  0  0
    9.3898    5.7767   -9.8851 N   0  0  0  0  0  0  0  0  0  0  0  0
    9.6639    5.7672   -8.5745 C   0  0  0  0  0  0  0  0  0  0  0  0
   10.3233    6.8438   -8.0314 C   0  0  0  0  0  0  0  0  0  0  0  0
   10.6418    6.9076   -6.6859 C   0  0  0  0  0  0  0  0  0  0  0  0
   11.3022    7.9697   -6.1042 C   0  0  0  0  0  0  0  0  0  0  0  0
   11.6547    9.0211   -6.9442 C   0  0  0  0  0  0  0  0  0  0  0  0
   11.3542    8.9930   -8.2900 C   0  0  0  0  0  0  0  0  0  0  0  0
   10.6923    7.9178   -8.8480 C   0  0  0  0  0  0  0  0  0  0  0  0
   10.3853    7.8542  -10.1403 N   0  0  0  0  0  0  0  0  0  0  0  0
   10.6630    8.6578  -10.7434 H   0  0  0  0  0  0  0  0  0  0  0  0
   11.6211    8.0045   -4.6871 C   0  0  0  0  0  0  0  0  0  0  0  0
   11.8046    9.2220   -4.0695 C   0  0  0  0  0  0  0  0  0  0  0  0
   12.1010    9.3118   -2.7612 N   0  0  0  0  0  0  0  0  0  0  0  0
   12.2316    8.2297   -1.9986 C   0  0  0  0  0  0  0  0  0  0  0  0
   12.0603    6.9919   -2.5585 C   0  0  0  0  0  0  0  0  0  0  0  0
   11.7572    6.8849   -3.8936 C   0  0  0  0  0  0  0  0  0  0  0  0
  1  2  1  0
  2  3  1  0
  3  4  2  0
  4  5  1  0
  5  6  1  0
  5  7  1  0
  4  8  1  0
  8  9  1  0
  9 10  2  0
 10 11  1  0
 11 12  2  0
 12 13  1  0
 13 14  2  0
 14 15  1  0
 12 16  1  0
 16 17  1  0
 17 18  1  0
 18 19  2  0
 19 20  1  0
 20 24  1  0
 24 25  2  0
 25 26  1  0
 26 27  2  0
 27 28  1  0
 28 29  2  0
 29 30  1  0
 30 36  1  0
 36 37  2  0
 37 38  1  0
 38 39  2  0
 39 40  1  0
 40 41  2  0
 30 31  2  0
 31 32  1  0
 32 33  2  0
 33 34  1  0
 34 35  1  0
 20 21  2  0
 21 22  1  0
 22 23  2  0
 15  3  1  0
 23 18  1  0
 14  9  1  0
 34 25  1  0
 23 11  1  0
 33 28  1  0
 41 36  1  0
M  CHG  1   4   1
M  END
>  <minimizedAffinity>  (731) 
-16.68423

$$$$
Mol: 171_37 - SminaDock
     RDKit          3D

 37 43  0  0  0  0  0  0  0  0999 V2000
    8.6948    5.9992  -12.2547 C   0  0  0  0  0  0  0  0  0  0  0  0
    9.3815    5.4141  -13.3042 C   0  0  0  0  0  0  0  0  0  0  0  0
    8.8761    4.3003  -13.9201 C   0  0  0  0  0  0  0  0  0  0  0  0
    7.6850    3.7538  -13.5032 C   0  0  0  0  0  0  0  0  0  0  0  0
    6.9681    4.3021  -12.4636 C   0  0  0  0  0  0  0  0  0  0  0  0
    7.5098    5.4363  -11.8570 C   0  0  0  0  0  0  0  0  0  0  0  0
    5.7229    3.5291  -12.2089 C   0  0  0  0  0  0  0  0  0  0  0  0
    5.7779    2.4590  -13.2177 C   0  0  0  0  0  0  0  0  0  0  0  0
    4.9309    1.4122  -13.5186 C   0  0  0  0  0  0  0  0  0  0  0  0
    5.1909    0.5059  -14.5354 C   0  0  0  0  0  0  0  0  0  0  0  0
    6.3334    0.6290  -15.2940 C   0  0  0  0  0  0  0  0  0  0  0  0
    7.1879    1.6900  -14.9862 C   0  0  0  0  0  0  0  0  0  0  0  0
    6.9230    2.5866  -13.9744 C   0  0  0  0  0  0  0  0  0  0  0  0
    6.6473   -0.2717  -16.3483 N   0  0  0  0  0  0  0  0  0  0  0  0
    7.8509   -0.1224  -17.1291 C   0  0  0  0  0  0  0  0  0  0  0  0
    5.7536   -1.3229  -16.6196 C   0  0  0  0  0  0  0  0  0  0  0  0
    5.9624   -2.1456  -17.5236 O   0  0  0  0  0  0  0  0  0  0  0  0
    4.6111   -1.4324  -15.8488 O   0  0  0  0  0  0  0  0  0  0  0  0
    4.2367   -0.5936  -14.8022 C   0  0  0  0  0  0  0  0  0  0  0  0
   11.3209    8.1563   -5.8745 C   0  0  0  0  0  0  0  0  0  0  0  0
   11.4786    9.2910   -6.6432 C   0  0  0  0  0  0  0  0  0  0  0  0
   11.1053    9.3502   -7.9686 C   0  0  0  0  0  0  0  0  0  0  0  0
   10.5507    8.2248   -8.5473 C   0  0  0  0  0  0  0  0  0  0  0  0
   10.3818    7.0779   -7.8017 C   0  0  0  0  0  0  0  0  0  0  0  0
    9.8310    5.9527   -8.3688 C   0  0  0  0  0  0  0  0  0  0  0  0
    9.4736    6.0257   -9.6576 N   0  0  0  0  0  0  0  0  0  0  0  0
    9.6209    7.1213  -10.4168 C   0  0  0  0  0  0  0  0  0  0  0  0
    9.2631    7.1487  -11.6556 N   0  0  0  0  0  0  0  0  0  0  0  0
   10.1646    8.2274   -9.8517 N   0  0  0  0  0  0  0  0  0  0  0  0
   10.2821    9.0781  -10.4319 H   0  0  0  0  0  0  0  0  0  0  0  0
   10.7658    7.0447   -6.4705 C   0  0  0  0  0  0  0  0  0  0  0  0
   12.4609    7.9069   -1.8227 C   0  0  0  0  0  0  0  0  0  0  0  0
   12.4378    9.1474   -2.4162 C   0  0  0  0  0  0  0  0  0  0  0  0
   12.0608    9.2122   -3.7479 C   0  0  0  0  0  0  0  0  0  0  0  0
   11.7177    8.0965   -4.4736 C   0  0  0  0  0  0  0  0  0  0  0  0
   11.7559    6.8761   -3.8363 C   0  0  0  0  0  0  0  0  0  0  0  0
   12.1248    6.7661   -2.5141 C   0  0  0  0  0  0  0  0  0  0  0  0
 32 33  2  0
 33 34  1  0
 34 35  2  0
 35 20  1  0
 20 21  2  0
 21 22  1  0
 22 23  2  0
 23 24  1  0
 24 25  1  0
 25 26  2  0
 26 27  1  0
 27 28  2  0
 28  1  1  0
  1  2  2  0
  2  3  1  0
  3  4  2  0
  4  5  1  0
  5  6  2  0
  5  7  1  0
  7  8  1  0
  8  9  2  0
  9 10  1  0
 10 11  2  0
 11 12  1  0
 12 13  2  0
 11 14  1  0
 14 15  1  0
 14 16  1  0
 16 17  2  0
 16 18  1  0
 18 19  1  0
 27 29  1  0
 29 30  1  0
 24 31  2  0
 35 36  1  0
 36 37  2  0
 37 32  1  0
 31 20  1  0
 29 23  1  0
  6  1  1  0
 13  8  1  0
 13  4  1  0
 19 10  1  0
M  END
>  <minimizedAffinity>  (732) 
-16.74943

$$$$
Mol: 147_39 - SminaDock
     RDKit          3D

 38 44  0  0  0  0  0  0  0  0999 V2000
    8.8042    6.0325  -12.4448 C   0  0  0  0  0  0  0  0  0  0  0  0
    9.3899    5.3933  -13.5047 C   0  0  0  0  0  0  0  0  0  0  0  0
    8.7441    4.2810  -14.0609 C   0  0  0  0  0  0  0  0  0  0  0  0
    7.5473    3.7931  -13.5982 C   0  0  0  0  0  0  0  0  0  0  0  0
    6.9932    4.4799  -12.5179 C   0  0  0  0  0  0  0  0  0  0  0  0
    7.6063    5.5747  -11.9528 C   0  0  0  0  0  0  0  0  0  0  0  0
    5.7122    4.0573  -11.9359 C   0  0  0  0  0  0  0  0  0  0  0  0
    5.0652    2.8742  -12.5135 C   0  0  0  0  0  0  0  0  0  0  0  0
    5.6961    2.2133  -13.6519 C   0  0  0  0  0  0  0  0  0  0  0  0
    5.0459    1.0941  -14.2182 C   0  0  0  0  0  0  0  0  0  0  0  0
    5.6135    0.4504  -15.2826 C   0  0  0  0  0  0  0  0  0  0  0  0
    6.8132    0.8945  -15.7961 C   0  0  0  0  0  0  0  0  0  0  0  0
    7.4751    1.9911  -15.2608 C   0  0  0  0  0  0  0  0  0  0  0  0
    6.8858    2.6365  -14.1781 C   0  0  0  0  0  0  0  0  0  0  0  0
    7.3902    0.1647  -16.9518 C   0  0  0  0  0  0  0  0  0  0  0  0
    6.9710   -1.1975  -17.0076 N   0  0  0  0  0  0  0  0  0  0  0  0
    7.3763   -1.7895  -16.2685 H   0  0  0  0  0  0  0  0  0  0  0  0
    5.5787   -1.3264  -16.9677 N   0  0  0  0  0  0  0  0  0  0  0  0
    4.9168   -0.7191  -15.8627 C   0  0  0  0  0  0  0  0  0  0  0  0
    3.8248   -1.1350  -15.4062 O   0  0  0  0  0  0  0  0  0  0  0  0
   11.3014    7.9920   -6.0375 C   0  0  0  0  0  0  0  0  0  0  0  0
   11.5408    9.1256   -6.7792 C   0  0  0  0  0  0  0  0  0  0  0  0
   11.2126    9.2083   -8.1139 C   0  0  0  0  0  0  0  0  0  0  0  0
   10.6275    8.1286   -8.7299 C   0  0  0  0  0  0  0  0  0  0  0  0
   10.3920    7.0013   -7.9823 C   0  0  0  0  0  0  0  0  0  0  0  0
    9.8058    5.9039   -8.5737 C   0  0  0  0  0  0  0  0  0  0  0  0
    9.4923    6.0093   -9.8833 N   0  0  0  0  0  0  0  0  0  0  0  0
    9.7238    7.1067  -10.6024 C   0  0  0  0  0  0  0  0  0  0  0  0
    9.4083    7.1620  -11.8405 N   0  0  0  0  0  0  0  0  0  0  0  0
   10.2930    8.1716  -10.0273 N   0  0  0  0  0  0  0  0  0  0  0  0
   10.4783    9.0340  -10.5799 H   0  0  0  0  0  0  0  0  0  0  0  0
   10.7166    6.9194   -6.6620 C   0  0  0  0  0  0  0  0  0  0  0  0
   12.3817    7.9836   -1.9366 C   0  0  0  0  0  0  0  0  0  0  0  0
   12.3487    9.1388   -2.6730 C   0  0  0  0  0  0  0  0  0  0  0  0
   12.0016    9.1427   -3.9901 C   0  0  0  0  0  0  0  0  0  0  0  0
   11.6716    7.9578   -4.6147 C   0  0  0  0  0  0  0  0  0  0  0  0
   11.6942    6.7857   -3.9091 C   0  0  0  0  0  0  0  0  0  0  0  0
   12.0476    6.7923   -2.5731 C   0  0  0  0  0  0  0  0  0  0  0  0
 33 34  2  0
 34 35  1  0
 35 36  2  0
 36 21  1  0
 21 22  2  0
 22 23  1  0
 23 24  2  0
 24 25  1  0
 25 26  1  0
 26 27  2  0
 27 28  1  0
 28 29  2  0
 29  1  1  0
  1  2  2  0
  2  3  1  0
  3  4  2  0
  4  5  1  0
  5  6  2  0
  5  7  1  0
  7  8  1  0
  8  9  1  0
  9 10  2  0
 10 11  1  0
 11 12  2  0
 12 13  1  0
 13 14  2  0
 12 15  1  0
 15 16  1  0
 16 17  1  0
 16 18  1  0
 18 19  1  0
 19 20  2  0
 28 30  1  0
 30 31  1  0
 25 32  2  0
 36 37  1  0
 37 38  2  0
 38 33  1  0
 32 21  1  0
 30 24  1  0
  6  1  1  0
 14  9  1  0
 14  4  1  0
 19 11  1  0
M  CHG  1  18  -1
M  END
>  <minimizedAffinity>  (733) 
-16.70557

$$$$
Mol: 172_2 - SminaDock
     RDKit          3D

 37 43  0  0  0  0  0  0  0  0999 V2000
    8.9404    6.1047  -12.2026 C   0  0  0  0  0  0  0  0  0  0  0  0
    9.7030    5.4066  -13.1420 C   0  0  0  0  0  0  0  0  0  0  0  0
    9.2610    4.2626  -13.7679 C   0  0  0  0  0  0  0  0  0  0  0  0
    8.0116    3.7622  -13.4714 C   0  0  0  0  0  0  0  0  0  0  0  0
    7.2425    4.4357  -12.5471 C   0  0  0  0  0  0  0  0  0  0  0  0
    7.6952    5.5892  -11.9197 C   0  0  0  0  0  0  0  0  0  0  0  0
    5.9880    3.6690  -12.4500 C   0  0  0  0  0  0  0  0  0  0  0  0
    5.0219    3.9642  -11.7056 O   0  0  0  0  0  0  0  0  0  0  0  0
    6.0743    2.5220  -13.3640 C   0  0  0  0  0  0  0  0  0  0  0  0
    5.2157    1.4892  -13.6817 C   0  0  0  0  0  0  0  0  0  0  0  0
    5.5275    0.5043  -14.5946 C   0  0  0  0  0  0  0  0  0  0  0  0
    6.7654    0.5892  -15.1982 C   0  0  0  0  0  0  0  0  0  0  0  0
    7.6489    1.6056  -14.9063 C   0  0  0  0  0  0  0  0  0  0  0  0
    7.3043    2.5842  -13.9805 C   0  0  0  0  0  0  0  0  0  0  0  0
    7.1180   -0.4293  -16.1577 C   0  0  0  0  0  0  0  0  0  0  0  0
    8.2473   -0.3561  -16.7114 O   0  0  0  0  0  0  0  0  0  0  0  0
    6.1983   -1.4279  -16.4158 O   0  0  0  0  0  0  0  0  0  0  0  0
    5.1053   -1.7324  -15.5895 C   0  0  0  0  0  0  0  0  0  0  0  0
    4.5485   -0.5461  -14.8610 C   0  0  0  0  0  0  0  0  0  0  0  0
   11.3914    8.2373   -5.7692 C   0  0  0  0  0  0  0  0  0  0  0  0
   11.5277    9.4061   -6.4830 C   0  0  0  0  0  0  0  0  0  0  0  0
   11.1665    9.4589   -7.8120 C   0  0  0  0  0  0  0  0  0  0  0  0
   10.6605    8.3651   -8.4792 C   0  0  0  0  0  0  0  0  0  0  0  0
   10.5283    7.1889   -7.7433 C   0  0  0  0  0  0  0  0  0  0  0  0
   10.0244    6.0552   -8.3585 C   0  0  0  0  0  0  0  0  0  0  0  0
    9.6835    6.1515   -9.6559 N   0  0  0  0  0  0  0  0  0  0  0  0
    9.8127    7.2866  -10.3604 C   0  0  0  0  0  0  0  0  0  0  0  0
    9.4573    7.2805  -11.5954 N   0  0  0  0  0  0  0  0  0  0  0  0
   10.3009    8.3919   -9.7719 N   0  0  0  0  0  0  0  0  0  0  0  0
   10.4163    9.2905  -10.2841 H   0  0  0  0  0  0  0  0  0  0  0  0
   10.8923    7.1478   -6.4165 C   0  0  0  0  0  0  0  0  0  0  0  0
   12.4264    7.8698   -1.7320 C   0  0  0  0  0  0  0  0  0  0  0  0
   12.0792    6.7550   -2.4448 C   0  0  0  0  0  0  0  0  0  0  0  0
   11.7341    6.8616   -3.7826 C   0  0  0  0  0  0  0  0  0  0  0  0
   11.7523    8.1128   -4.3625 C   0  0  0  0  0  0  0  0  0  0  0  0
   12.1023    9.2422   -3.6462 C   0  0  0  0  0  0  0  0  0  0  0  0
   12.4413    9.0994   -2.3132 C   0  0  0  0  0  0  0  0  0  0  0  0
 32 33  2  0
 33 34  1  0
 34 35  2  0
 35 20  1  0
 20 21  2  0
 21 22  1  0
 22 23  2  0
 23 24  1  0
 24 25  1  0
 25 26  2  0
 26 27  1  0
 27 28  2  0
 28  1  1  0
  1  2  2  0
  2  3  1  0
  3  4  2  0
  4  5  1  0
  5  6  2  0
  5  7  1  0
  7  8  2  0
  7  9  1  0
  9 10  2  0
 10 11  1  0
 11 12  2  0
 12 13  1  0
 13 14  2  0
 12 15  1  0
 15 16  2  0
 15 17  1  0
 17 18  1  0
 18 19  1  0
 27 29  1  0
 29 30  1  0
 24 31  2  0
 35 36  1  0
 36 37  2  0
 37 32  1  0
 31 20  1  0
 29 23  1  0
  6  1  1  0
 14  9  1  0
 14  4  1  0
 19 11  1  0
M  END
>  <minimizedAffinity>  (734) 
-16.71939

$$$$
Mol: 147_27 - SminaDock
     RDKit          3D

 38 44  0  0  0  0  0  0  0  0999 V2000
    8.7934    5.9086  -12.4320 C   0  0  0  0  0  0  0  0  0  0  0  0
    9.4357    5.0611  -13.3122 C   0  0  0  0  0  0  0  0  0  0  0  0
    8.7994    3.9565  -13.8548 C   0  0  0  0  0  0  0  0  0  0  0  0
    7.4950    3.6902  -13.5134 C   0  0  0  0  0  0  0  0  0  0  0  0
    6.8141    4.5183  -12.6371 C   0  0  0  0  0  0  0  0  0  0  0  0
    7.4903    5.6165  -12.1128 C   0  0  0  0  0  0  0  0  0  0  0  0
    5.3938    4.2982  -12.3691 C   0  0  0  0  0  0  0  0  0  0  0  0
    4.9940    2.8830  -12.3872 C   0  0  0  0  0  0  0  0  0  0  0  0
    5.5769    2.1328  -13.5172 C   0  0  0  0  0  0  0  0  0  0  0  0
    4.9186    1.0385  -14.0548 C   0  0  0  0  0  0  0  0  0  0  0  0
    5.4831    0.2582  -15.0277 C   0  0  0  0  0  0  0  0  0  0  0  0
    6.7412    0.5940  -15.4650 C   0  0  0  0  0  0  0  0  0  0  0  0
    7.4433    1.6963  -14.9488 C   0  0  0  0  0  0  0  0  0  0  0  0
    6.8281    2.4493  -13.9728 C   0  0  0  0  0  0  0  0  0  0  0  0
    7.3462   -0.2136  -16.4810 N   0  0  0  0  0  0  0  0  0  0  0  0
    8.3748   -0.2393  -16.5827 H   0  0  0  0  0  0  0  0  0  0  0  0
    6.4882   -0.9916  -17.3604 C   0  0  0  0  0  0  0  0  0  0  0  0
    5.3740   -1.6687  -16.6333 C   0  0  0  0  0  0  0  0  0  0  0  0
    4.7994   -0.8676  -15.5761 N   0  0  0  0  0  0  0  0  0  0  0  0
    3.4881   -1.1995  -15.0401 C   0  0  0  0  0  0  0  0  0  0  0  0
   11.3550    8.0595   -6.0080 C   0  0  0  0  0  0  0  0  0  0  0  0
   11.6430    9.1847   -6.7706 C   0  0  0  0  0  0  0  0  0  0  0  0
   11.3013    9.1901   -8.1187 C   0  0  0  0  0  0  0  0  0  0  0  0
   10.6854    8.1129   -8.7219 C   0  0  0  0  0  0  0  0  0  0  0  0
   10.3936    6.9812   -7.9634 C   0  0  0  0  0  0  0  0  0  0  0  0
    9.7815    5.9228   -8.5834 C   0  0  0  0  0  0  0  0  0  0  0  0
    9.4775    5.9820   -9.8744 N   0  0  0  0  0  0  0  0  0  0  0  0
    9.7438    7.0505  -10.6265 C   0  0  0  0  0  0  0  0  0  0  0  0
    9.4258    7.0444  -11.8624 N   0  0  0  0  0  0  0  0  0  0  0  0
   10.3454    8.0931  -10.0210 N   0  0  0  0  0  0  0  0  0  0  0  0
   10.5651    8.9412  -10.5849 H   0  0  0  0  0  0  0  0  0  0  0  0
   10.7393    6.9997   -6.6398 C   0  0  0  0  0  0  0  0  0  0  0  0
   12.3714    7.9235   -1.8503 C   0  0  0  0  0  0  0  0  0  0  0  0
   11.9968    6.7795   -2.5310 C   0  0  0  0  0  0  0  0  0  0  0  0
   11.6716    6.8509   -3.8806 C   0  0  0  0  0  0  0  0  0  0  0  0
   11.7046    8.0320   -4.5917 C   0  0  0  0  0  0  0  0  0  0  0  0
   12.0805    9.1731   -3.9043 C   0  0  0  0  0  0  0  0  0  0  0  0
   12.4044    9.1042   -2.5608 C   0  0  0  0  0  0  0  0  0  0  0  0
 33 34  2  0
 34 35  1  0
 35 36  2  0
 36 21  1  0
 21 22  2  0
 22 23  1  0
 23 24  2  0
 24 25  1  0
 25 26  1  0
 26 27  2  0
 27 28  1  0
 28 29  2  0
 29  1  1  0
  1  2  2  0
  2  3  1  0
  3  4  2  0
  4  5  1  0
  5  6  2  0
  5  7  1  0
  7  8  1  0
  8  9  1  0
  9 10  2  0
 10 11  1  0
 11 12  2  0
 12 13  1  0
 13 14  2  0
 12 15  1  0
 15 16  1  0
 15 17  1  0
 17 18  1  0
 18 19  1  0
 19 20  1  0
 28 30  1  0
 30 31  1  0
 25 32  2  0
 36 37  1  0
 37 38  2  0
 38 33  1  0
 32 21  1  0
 30 24  1  0
  6  1  1  0
 14  9  1  0
 14  4  1  0
 19 11  1  0
M  END
>  <minimizedAffinity>  (735) 
-16.73355

$$$$
Mol: 150_50 - SminaDock
     RDKit          3D

 38 44  0  0  0  0  0  0  0  0999 V2000
    4.9487    5.0669  -13.1745 H   0  0  0  0  0  0  0  0  0  0  0  0
    4.9608    4.7870  -12.2172 O   0  0  0  0  0  0  0  0  0  0  0  0
    5.9466    3.7518  -12.0976 C   0  0  2  0  0  0  0  0  0  0  0  0
    7.1793    4.3064  -12.6552 C   0  0  0  0  0  0  0  0  0  0  0  0
    7.6746    5.4519  -12.0456 C   0  0  0  0  0  0  0  0  0  0  0  0
    8.8288    6.0595  -12.4910 C   0  0  0  0  0  0  0  0  0  0  0  0
    9.4700    5.4878  -13.5615 C   0  0  0  0  0  0  0  0  0  0  0  0
    8.9745    4.3283  -14.1838 C   0  0  0  0  0  0  0  0  0  0  0  0
    7.8156    3.7378  -13.7187 C   0  0  0  0  0  0  0  0  0  0  0  0
    7.2940    2.5218  -14.3668 C   0  0  0  0  0  0  0  0  0  0  0  0
    7.9467    1.9544  -15.4403 C   0  0  0  0  0  0  0  0  0  0  0  0
    7.4491    0.8208  -16.0314 C   0  0  0  0  0  0  0  0  0  0  0  0
    6.2821    0.2474  -15.5409 C   0  0  0  0  0  0  0  0  0  0  0  0
    5.7762   -0.9068  -16.1429 C   0  0  0  0  0  0  0  0  0  0  0  0
    4.6200   -1.4323  -15.6179 C   0  0  0  0  0  0  0  0  0  0  0  0
    3.9774   -0.8574  -14.5459 C   0  0  0  0  0  0  0  0  0  0  0  0
    4.4933    0.2861  -13.9622 C   0  0  0  0  0  0  0  0  0  0  0  0
    5.6468    0.8329  -14.4661 C   0  0  0  0  0  0  0  0  0  0  0  0
    6.1374    1.9982  -13.8406 C   0  0  0  0  0  0  0  0  0  0  0  0
    5.3843    2.5320  -12.7156 C   0  0  0  0  0  0  0  0  0  0  0  0
    9.3504    7.2420  -11.8707 N   0  0  0  0  0  0  0  0  0  0  0  0
    9.6882    7.1777  -10.6154 C   0  0  0  0  0  0  0  0  0  0  0  0
    9.5540    6.0377   -9.9153 N   0  0  0  0  0  0  0  0  0  0  0  0
    9.8946    5.9407   -8.6131 C   0  0  0  0  0  0  0  0  0  0  0  0
   10.4045    7.0365   -7.9422 C   0  0  0  0  0  0  0  0  0  0  0  0
   10.7721    7.0012   -6.6074 C   0  0  0  0  0  0  0  0  0  0  0  0
   11.2825    8.1106   -5.9467 C   0  0  0  0  0  0  0  0  0  0  0  0
   11.4167    9.2858   -6.6838 C   0  0  0  0  0  0  0  0  0  0  0  0
   11.0475    9.3088   -8.0120 C   0  0  0  0  0  0  0  0  0  0  0  0
   10.5397    8.2026   -8.6660 C   0  0  0  0  0  0  0  0  0  0  0  0
   10.1833    8.2467   -9.9691 N   0  0  0  0  0  0  0  0  0  0  0  0
   10.2995    9.1536  -10.4930 H   0  0  0  0  0  0  0  0  0  0  0  0
   11.6652    8.0568   -4.5369 C   0  0  0  0  0  0  0  0  0  0  0  0
   11.6592    6.8444   -3.8794 C   0  0  0  0  0  0  0  0  0  0  0  0
   12.0072    6.7213   -2.5559 C   0  0  0  0  0  0  0  0  0  0  0  0
   12.3729    7.8666   -1.8791 C   0  0  0  0  0  0  0  0  0  0  0  0
   12.3977    9.1043   -2.4829 C   0  0  0  0  0  0  0  0  0  0  0  0
   12.0389    9.1749   -3.8160 C   0  0  0  0  0  0  0  0  0  0  0  0
  1  2  1  0
  3  2  1  6
  3  4  1  0
  4  5  2  0
  5  6  1  0
  6 21  1  0
 21 22  2  0
 22 23  1  0
 23 24  2  0
 24 25  1  0
 25 26  2  0
 26 27  1  0
 27 33  1  0
 33 34  2  0
 34 35  1  0
 35 36  2  0
 36 37  1  0
 37 38  2  0
 27 28  2  0
 28 29  1  0
 29 30  2  0
 30 31  1  0
 31 32  1  0
  6  7  2  0
  7  8  1  0
  8  9  2  0
  9 10  1  0
 10 11  2  0
 11 12  1  0
 12 13  2  0
 13 14  1  0
 14 15  2  0
 15 16  1  0
 16 17  2  0
 17 18  1  0
 18 19  2  0
 19 20  1  0
 20  3  1  0
  9  4  1  0
 19 10  1  0
 31 22  1  0
 18 13  1  0
 30 25  1  0
 38 33  1  0
M  END
>  <minimizedAffinity>  (736) 
-16.66725

$$$$
Mol: 150_61 - SminaDock
     RDKit          3D

 38 44  0  0  0  0  0  0  0  0999 V2000
    8.5487    5.8186  -12.3891 C   0  0  0  0  0  0  0  0  0  0  0  0
    7.3676    5.4057  -11.7954 C   0  0  0  0  0  0  0  0  0  0  0  0
    6.6703    4.2972  -12.2640 C   0  0  0  0  0  0  0  0  0  0  0  0
    7.1748    3.6107  -13.3352 C   0  0  0  0  0  0  0  0  0  0  0  0
    8.3520    3.9902  -13.9572 C   0  0  0  0  0  0  0  0  0  0  0  0
    9.0236    5.1072  -13.4593 C   0  0  0  0  0  0  0  0  0  0  0  0
    8.8897    3.2980  -15.0606 N   0  0  0  0  0  0  0  0  0  0  0  0
   10.1455    3.7614  -15.6663 C   0  0  0  0  0  0  0  0  0  0  0  0
    8.2543    2.1501  -15.6190 C   0  0  0  0  0  0  0  0  0  0  0  0
    7.0086    1.7624  -14.9486 C   0  0  0  0  0  0  0  0  0  0  0  0
    6.4764    2.4507  -13.8521 C   0  0  0  0  0  0  0  0  0  0  0  0
    5.3045    2.0135  -13.2902 C   0  0  0  0  0  0  0  0  0  0  0  0
    4.6711    0.8970  -13.8209 C   0  0  0  0  0  0  0  0  0  0  0  0
    5.1590    0.1978  -14.8908 C   0  0  0  0  0  0  0  0  0  0  0  0
    4.5352   -0.9067  -15.4190 C   0  0  0  0  0  0  0  0  0  0  0  0
    5.0775   -1.5647  -16.4959 C   0  0  0  0  0  0  0  0  0  0  0  0
    6.2508   -1.1024  -17.0355 C   0  0  0  0  0  0  0  0  0  0  0  0
    6.7913   -1.6517  -18.0077 O   0  0  0  0  0  0  0  0  0  0  0  0
    6.8324   -0.0247  -16.4973 N   0  0  0  0  0  0  0  0  0  0  0  0
    6.3348    0.6418  -15.4498 C   0  0  0  0  0  0  0  0  0  0  0  0
   11.2583    7.9989   -6.0558 C   0  0  0  0  0  0  0  0  0  0  0  0
   11.5145    9.0859   -6.8681 C   0  0  0  0  0  0  0  0  0  0  0  0
   11.1628    9.1270   -8.2069 C   0  0  0  0  0  0  0  0  0  0  0  0
   10.5243    8.0328   -8.7666 C   0  0  0  0  0  0  0  0  0  0  0  0
   10.2589    6.9350   -7.9699 C   0  0  0  0  0  0  0  0  0  0  0  0
    9.6218    5.8754   -8.5809 C   0  0  0  0  0  0  0  0  0  0  0  0
    9.2665    5.8774   -9.8715 N   0  0  0  0  0  0  0  0  0  0  0  0
    9.5395    6.9612  -10.6191 C   0  0  0  0  0  0  0  0  0  0  0  0
    9.1981    6.9560  -11.8529 N   0  0  0  0  0  0  0  0  0  0  0  0
   10.1678    8.0354  -10.0627 N   0  0  0  0  0  0  0  0  0  0  0  0
   10.3643    8.8600  -10.6724 H   0  0  0  0  0  0  0  0  0  0  0  0
   10.6225    6.9222   -6.6332 C   0  0  0  0  0  0  0  0  0  0  0  0
   12.4101    8.0048   -1.9636 C   0  0  0  0  0  0  0  0  0  0  0  0
   12.0957    6.8282   -2.5995 C   0  0  0  0  0  0  0  0  0  0  0  0
   11.7251    6.8528   -3.9277 C   0  0  0  0  0  0  0  0  0  0  0  0
   11.6552    8.0194   -4.6540 C   0  0  0  0  0  0  0  0  0  0  0  0
   11.9711    9.1948   -4.0120 C   0  0  0  0  0  0  0  0  0  0  0  0
   12.3442    9.1810   -2.6793 C   0  0  0  0  0  0  0  0  0  0  0  0
 33 34  2  0
 34 35  1  0
 35 36  2  0
 36 21  1  0
 21 22  2  0
 22 23  1  0
 23 24  2  0
 24 25  1  0
 25 26  1  0
 26 27  2  0
 27 28  1  0
 28 29  2  0
 29  1  1  0
  1  2  2  0
  2  3  1  0
  3  4  2  0
  4  5  1  0
  5  6  2  0
  5  7  1  0
  7  8  1  0
  7  9  1  0
  9 10  1  0
 10 11  2  0
 11 12  1  0
 12 13  2  0
 13 14  1  0
 14 15  1  0
 15 16  2  0
 16 17  1  0
 17 18  2  0
 17 19  1  0
 19 20  1  0
 28 30  1  0
 30 31  1  0
 25 32  2  0
 36 37  1  0
 37 38  2  0
 38 33  1  0
 32 21  1  0
 30 24  1  0
  6  1  1  0
 20 10  1  0
 11  4  1  0
 20 14  2  0
M  CHG  1  19  -1
M  END
>  <minimizedAffinity>  (737) 
-16.73081

$$$$
Mol: 186_4 - SminaDock
     RDKit          3D

 40 46  0  0  0  0  0  0  0  0999 V2000
    4.1206   -2.5694  -15.6614 H   0  0  0  0  0  0  0  0  0  0  0  0
    4.5580   -2.0545  -16.4453 O   0  0  0  0  0  0  0  0  0  0  0  0
    5.4582   -1.0131  -16.1564 C   0  0  0  0  0  0  0  0  0  0  0  0
    5.0649   -0.1905  -15.2410 N   0  0  0  0  0  0  0  0  0  0  0  0
    3.7870   -0.3411  -14.5750 C   0  0  0  0  0  0  0  0  0  0  0  0
    5.9830    0.8720  -14.9018 C   0  0  0  0  0  0  0  0  0  0  0  0
    5.5261    1.7557  -13.9213 C   0  0  0  0  0  0  0  0  0  0  0  0
    6.3485    2.8205  -13.5469 C   0  0  0  0  0  0  0  0  0  0  0  0
    7.5690    2.9671  -14.1458 C   0  0  0  0  0  0  0  0  0  0  0  0
    8.0176    2.0926  -15.1130 C   0  0  0  0  0  0  0  0  0  0  0  0
    7.2115    1.0231  -15.5005 C   0  0  0  0  0  0  0  0  0  0  0  0
    7.6707    0.0698  -16.5070 C   0  0  2  0  0  0  0  0  0  0  0  0
    8.2720    0.7353  -17.7247 C   0  0  0  0  0  0  0  0  0  0  0  0
    6.6812   -0.8993  -16.8286 N   0  0  0  0  0  0  0  0  0  0  0  0
    6.8576   -1.5907  -17.6293 H   0  0  0  0  0  0  0  0  0  0  0  0
    8.2172    4.1575  -13.5697 C   0  0  0  0  0  0  0  0  0  0  0  0
    9.4558    4.7079  -13.8559 C   0  0  0  0  0  0  0  0  0  0  0  0
    9.8690    5.8410  -13.1895 C   0  0  0  0  0  0  0  0  0  0  0  0
    9.0149    6.3868  -12.2499 C   0  0  0  0  0  0  0  0  0  0  0  0
    7.7911    5.8468  -11.9634 C   0  0  0  0  0  0  0  0  0  0  0  0
    7.3683    4.7000  -12.6352 C   0  0  0  0  0  0  0  0  0  0  0  0
    6.1312    3.8894  -12.5580 C   0  0  0  0  0  0  0  0  0  0  0  0
    9.4753    7.5564  -11.5850 N   0  0  0  0  0  0  0  0  0  0  0  0
    9.8207    7.4607  -10.3384 C   0  0  0  0  0  0  0  0  0  0  0  0
   10.2642    8.5804   -9.6909 N   0  0  0  0  0  0  0  0  0  0  0  0
   10.6174    8.4710   -8.4095 C   0  0  0  0  0  0  0  0  0  0  0  0
   11.0783    9.5657   -7.6814 C   0  0  0  0  0  0  0  0  0  0  0  0
   11.4402    9.4350   -6.3533 C   0  0  0  0  0  0  0  0  0  0  0  0
   11.3627    8.2354   -5.6987 C   0  0  0  0  0  0  0  0  0  0  0  0
   10.9087    7.1459   -6.4073 C   0  0  0  0  0  0  0  0  0  0  0  0
   10.5435    7.2654   -7.7388 C   0  0  0  0  0  0  0  0  0  0  0  0
   10.0934    6.1472   -8.4102 C   0  0  0  0  0  0  0  0  0  0  0  0
    9.7391    6.2777   -9.7108 N   0  0  0  0  0  0  0  0  0  0  0  0
    9.3947    5.4148  -10.2150 H   0  0  0  0  0  0  0  0  0  0  0  0
   11.7485    8.1204   -4.3015 C   0  0  0  0  0  0  0  0  0  0  0  0
   11.7796    6.8857   -3.6883 C   0  0  0  0  0  0  0  0  0  0  0  0
   12.1477    6.7548   -2.3535 C   0  0  0  0  0  0  0  0  0  0  0  0
   12.4955    7.8668   -1.5981 C   0  0  0  0  0  0  0  0  0  0  0  0
   12.4577    9.0896   -2.2295 C   0  0  0  0  0  0  0  0  0  0  0  0
   12.0931    9.2271   -3.5549 C   0  0  0  0  0  0  0  0  0  0  0  0
  1  2  1  0
  2  3  1  0
  3  4  2  0
  4  5  1  0
  4  6  1  0
  6  7  2  0
  7  8  1  0
  8  9  2  0
  9 10  1  0
 10 11  2  0
 11 12  1  0
 12 13  1  6
 12 14  1  0
 14 15  1  0
  9 16  1  0
 16 17  2  0
 17 18  1  0
 18 19  2  0
 19 23  1  0
 23 24  2  0
 24 25  1  0
 25 26  2  0
 26 27  1  0
 27 28  2  0
 28 29  1  0
 29 35  1  0
 35 36  2  0
 36 37  1  0
 37 38  2  0
 38 39  1  0
 39 40  2  0
 29 30  2  0
 30 31  1  0
 31 32  2  0
 32 33  1  0
 33 34  1  0
 19 20  1  0
 20 21  2  0
 21 22  1  0
 14  3  1  0
 21 16  1  0
 11  6  1  0
 33 24  1  0
 22  8  1  0
 31 26  1  0
 40 35  1  0
M  CHG  1   4   1
M  END
>  <minimizedAffinity>  (738) 
-16.66419

$$$$
Mol: 126_45 - SminaDock
     RDKit          3D

 39 45  0  0  0  0  0  0  0  0999 V2000
    3.0107   -1.1915  -15.2117 H   0  0  0  0  0  0  0  0  0  0  0  0
    4.0202   -1.2758  -15.0584 O   0  0  0  0  0  0  0  0  0  0  0  0
    4.7618   -0.1425  -14.6706 C   0  0  0  0  0  0  0  0  0  0  0  0
    5.9104    0.1794  -15.2783 N   0  0  0  0  0  0  0  0  0  0  0  0
    6.6034    1.2964  -14.8671 C   0  0  0  0  0  0  0  0  0  0  0  0
    6.1393    2.0803  -13.8491 C   0  0  0  0  0  0  0  0  0  0  0  0
    4.9461    1.7758  -13.1939 C   0  0  0  0  0  0  0  0  0  0  0  0
    4.2775    0.6324  -13.6469 C   0  0  0  0  0  0  0  0  0  0  0  0
    6.8934    3.2518  -13.3682 C   0  0  0  0  0  0  0  0  0  0  0  0
    6.4176    4.0765  -12.3531 C   0  0  0  0  0  0  0  0  0  0  0  0
    7.1438    5.1768  -11.9543 C   0  0  0  0  0  0  0  0  0  0  0  0
    8.3432    5.4664  -12.5571 C   0  0  0  0  0  0  0  0  0  0  0  0
    8.7887    4.6400  -13.5516 C   0  0  0  0  0  0  0  0  0  0  0  0
    8.0861    3.5036  -13.9962 C   0  0  0  0  0  0  0  0  0  0  0  0
    8.6973    2.6900  -15.0501 C   0  0  1  0  0  0  0  0  0  0  0  0
    7.8323    1.6251  -15.5933 C   0  0  0  0  0  0  0  0  0  0  0  0
    9.1371    3.5562  -16.2346 C   0  0  0  0  0  0  0  0  0  0  0  0
    9.9101    2.6487  -17.1752 C   0  0  0  0  0  0  0  0  0  0  0  0
   11.1649    2.3880  -16.6294 O   0  0  0  0  0  0  0  0  0  0  0  0
   11.1971    2.5268  -15.2639 C   0  0  0  0  0  0  0  0  0  0  0  0
    9.9839    2.0291  -14.5515 C   0  0  0  0  0  0  0  0  0  0  0  0
    9.1106    6.6172  -12.1445 N   0  0  0  0  0  0  0  0  0  0  0  0
    9.4689    6.6860  -10.9182 C   0  0  0  0  0  0  0  0  0  0  0  0
   10.1935    7.7375  -10.4523 N   0  0  0  0  0  0  0  0  0  0  0  0
   10.5564    7.7795   -9.1500 C   0  0  0  0  0  0  0  0  0  0  0  0
   11.2922    8.8318   -8.6446 C   0  0  0  0  0  0  0  0  0  0  0  0
   11.6685    8.8835   -7.3135 C   0  0  0  0  0  0  0  0  0  0  0  0
   11.3201    7.8788   -6.4364 C   0  0  0  0  0  0  0  0  0  0  0  0
   10.5845    6.8237   -6.9349 C   0  0  0  0  0  0  0  0  0  0  0  0
   10.2033    6.7696   -8.2795 C   0  0  0  0  0  0  0  0  0  0  0  0
    9.4703    5.7091   -8.7580 C   0  0  0  0  0  0  0  0  0  0  0  0
    9.1264    5.7060  -10.0733 N   0  0  0  0  0  0  0  0  0  0  0  0
    8.5655    4.8648  -10.3750 H   0  0  0  0  0  0  0  0  0  0  0  0
   11.7165    7.9282   -5.0249 C   0  0  0  0  0  0  0  0  0  0  0  0
   11.3376    6.9146   -4.1909 C   0  0  0  0  0  0  0  0  0  0  0  0
   11.7033    6.9488   -2.8655 C   0  0  0  0  0  0  0  0  0  0  0  0
   12.4481    7.9788   -2.3326 C   0  0  0  0  0  0  0  0  0  0  0  0
   12.8275    9.0025   -3.1872 C   0  0  0  0  0  0  0  0  0  0  0  0
   12.4618    8.9688   -4.5136 C   0  0  0  0  0  0  0  0  0  0  0  0
  1  2  1  0
  2  3  1  0
  3  4  2  0
  4  5  1  0
  5  6  2  0
  6  7  1  0
  7  8  2  0
  6  9  1  0
  9 10  2  0
 10 11  1  0
 11 12  2  0
 12 22  1  0
 22 23  2  0
 23 24  1  0
 24 25  2  0
 25 26  1  0
 26 27  2  0
 27 28  1  0
 28 34  1  0
 34 35  2  0
 35 36  1  0
 36 37  2  0
 37 38  1  0
 38 39  2  0
 28 29  2  0
 29 30  1  0
 30 31  2  0
 31 32  1  0
 32 33  1  0
 12 13  1  0
 13 14  2  0
 14 15  1  0
 15 16  1  6
 15 17  1  0
 17 18  1  0
 18 19  1  0
 19 20  1  0
 20 21  1  0
  8  3  1  0
 14  9  1  0
 21 15  1  0
 16  5  1  0
 32 23  1  0
 30 25  1  0
 39 34  1  0
M  END
>  <minimizedAffinity>  (739) 
-16.70224

$$$$
Mol: 156_0 - SminaDock
     RDKit          3D

 40 46  0  0  0  0  0  0  0  0999 V2000
    4.8294   -3.5154  -16.3595 H   0  0  0  0  0  0  0  0  0  0  0  0
    4.9132   -2.7394  -17.0248 O   0  0  0  0  0  0  0  0  0  0  0  0
    5.5316   -1.5859  -16.4848 C   0  0  0  0  0  0  0  0  0  0  0  0
    4.9569   -0.9032  -15.4911 N   0  0  0  0  0  0  0  0  0  0  0  0
    5.5282    0.1927  -14.9663 C   0  0  0  0  0  0  0  0  0  0  0  0
    4.9124    0.8819  -13.9363 C   0  0  0  0  0  0  0  0  0  0  0  0
    5.5075    2.0099  -13.3997 C   0  0  0  0  0  0  0  0  0  0  0  0
    6.7185    2.4421  -13.8989 C   0  0  0  0  0  0  0  0  0  0  0  0
    7.3725    1.7874  -14.9272 C   0  0  0  0  0  0  0  0  0  0  0  0
    6.7588    0.6522  -15.4562 C   0  0  0  0  0  0  0  0  0  0  0  0
    7.3064   -0.0893  -16.4804 C   0  0  0  0  0  0  0  0  0  0  0  0
    8.4123    0.2735  -16.9631 O   0  0  0  0  0  0  0  0  0  0  0  0
    6.6999   -1.2009  -16.9934 N   0  0  0  0  0  0  0  0  0  0  0  0
    7.2001   -1.6836  -17.7629 H   0  0  0  0  0  0  0  0  0  0  0  0
    8.6496    2.1893  -15.5095 C   0  0  0  0  0  0  0  0  0  0  0  0
    9.2990    3.4020  -14.8977 C   0  0  0  0  0  0  0  0  0  0  0  0
    8.5496    4.0402  -13.8246 C   0  0  0  0  0  0  0  0  0  0  0  0
    9.1207    5.1665  -13.2656 C   0  0  0  0  0  0  0  0  0  0  0  0
    8.5416    5.8801  -12.2446 C   0  0  0  0  0  0  0  0  0  0  0  0
    7.3319    5.4628  -11.7445 C   0  0  0  0  0  0  0  0  0  0  0  0
    6.7230    4.3223  -12.2890 C   0  0  0  0  0  0  0  0  0  0  0  0
    7.3297    3.6268  -13.3142 C   0  0  0  0  0  0  0  0  0  0  0  0
    9.1624    7.0330  -11.6971 N   0  0  0  0  0  0  0  0  0  0  0  0
    9.5269    7.0202  -10.4506 C   0  0  0  0  0  0  0  0  0  0  0  0
    9.3321    5.9458   -9.6670 N   0  0  0  0  0  0  0  0  0  0  0  0
    9.7044    5.9142   -8.3727 C   0  0  0  0  0  0  0  0  0  0  0  0
   10.3119    7.0110   -7.7988 C   0  0  0  0  0  0  0  0  0  0  0  0
   10.7091    7.0096   -6.4621 C   0  0  0  0  0  0  0  0  0  0  0  0
   11.3137    8.1196   -5.9167 C   0  0  0  0  0  0  0  0  0  0  0  0
   11.5112    9.2153   -6.7199 C   0  0  0  0  0  0  0  0  0  0  0  0
   11.1173    9.2263   -8.0580 C   0  0  0  0  0  0  0  0  0  0  0  0
   10.5125    8.1137   -8.6007 C   0  0  0  0  0  0  0  0  0  0  0  0
   10.1162    8.0942   -9.9073 N   0  0  0  0  0  0  0  0  0  0  0  0
   10.2808    8.9430  -10.4905 H   0  0  0  0  0  0  0  0  0  0  0  0
   11.7203    8.1013   -4.5258 C   0  0  0  0  0  0  0  0  0  0  0  0
   11.7450    6.9059   -3.8529 C   0  0  0  0  0  0  0  0  0  0  0  0
   12.1208    6.8048   -2.5262 C   0  0  0  0  0  0  0  0  0  0  0  0
   12.4868    7.9463   -1.8444 C   0  0  0  0  0  0  0  0  0  0  0  0
   12.4676    9.1549   -2.5050 C   0  0  0  0  0  0  0  0  0  0  0  0
   12.0845    9.2403   -3.8488 C   0  0  0  0  0  0  0  0  0  0  0  0
  1  2  1  0
  2  3  1  0
  3  4  2  0
  4  5  1  0
  5  6  2  0
  6  7  1  0
  7  8  2  0
  8  9  1  0
  9 10  2  0
 10 11  1  0
 11 12  2  0
 11 13  1  0
 13 14  1  0
  9 15  1  0
 15 16  1  0
 16 17  1  0
 17 18  2  0
 18 19  1  0
 19 23  1  0
 23 24  2  0
 24 25  1  0
 25 26  2  0
 26 27  1  0
 27 28  2  0
 28 29  1  0
 29 35  1  0
 35 36  2  0
 36 37  1  0
 37 38  2  0
 38 39  1  0
 39 40  2  0
 29 30  2  0
 30 31  1  0
 31 32  2  0
 32 33  1  0
 33 34  1  0
 19 20  2  0
 20 21  1  0
 21 22  2  0
 13  3  1  0
 22 17  1  0
 10  5  1  0
 33 24  1  0
 22  8  1  0
 32 27  1  0
 40 35  1  0
M  END
>  <minimizedAffinity>  (740) 
-16.71352

$$$$
Mol: 156_38 - SminaDock
     RDKit          3D

 36 42  0  0  0  0  0  0  0  0999 V2000
    7.6126    1.4760  -15.0124 C   0  0  0  0  0  0  0  0  0  0  0  0
    6.9995    0.3711  -15.5057 N   0  0  0  0  0  0  0  0  0  0  0  0
    5.7664    0.0082  -15.1375 C   0  0  0  0  0  0  0  0  0  0  0  0
    5.0651    0.7536  -14.2324 C   0  0  0  0  0  0  0  0  0  0  0  0
    3.8372    0.1689  -14.0292 C   0  0  0  0  0  0  0  0  0  0  0  0
    3.7804   -0.9516  -14.8191 C   0  0  0  0  0  0  0  0  0  0  0  0
    4.9524   -1.0357  -15.4826 N   0  0  0  0  0  0  0  0  0  0  0  0
    5.2657   -1.7541  -16.1686 H   0  0  0  0  0  0  0  0  0  0  0  0
    5.6755    1.9104  -13.7005 C   0  0  0  0  0  0  0  0  0  0  0  0
    6.9405    2.2614  -14.0923 C   0  0  0  0  0  0  0  0  0  0  0  0
    7.5974    3.4514  -13.5104 C   0  0  0  0  0  0  0  0  0  0  0  0
    8.8491    3.8244  -13.9318 C   0  0  0  0  0  0  0  0  0  0  0  0
    9.4060    4.9819  -13.3732 C   0  0  0  0  0  0  0  0  0  0  0  0
    8.7124    5.7135  -12.4335 C   0  0  0  0  0  0  0  0  0  0  0  0
    7.4630    5.2947  -12.0468 C   0  0  0  0  0  0  0  0  0  0  0  0
    6.8778    4.1453  -12.5826 C   0  0  0  0  0  0  0  0  0  0  0  0
    5.5631    3.7628  -12.0852 C   0  0  0  0  0  0  0  0  0  0  0  0
    4.8426    2.6766  -12.7608 C   0  0  0  0  0  0  0  0  0  0  0  0
    9.2333    6.8911  -11.8412 N   0  0  0  0  0  0  0  0  0  0  0  0
    9.5790    6.8644  -10.6011 C   0  0  0  0  0  0  0  0  0  0  0  0
    9.4477    5.7128   -9.8539 C   0  0  0  0  0  0  0  0  0  0  0  0
    9.8272    5.7120   -8.5254 C   0  0  0  0  0  0  0  0  0  0  0  0
   10.3386    6.8366   -7.9141 C   0  0  0  0  0  0  0  0  0  0  0  0
   10.7241    6.8528   -6.5836 C   0  0  0  0  0  0  0  0  0  0  0  0
   11.2351    7.9844   -5.9818 C   0  0  0  0  0  0  0  0  0  0  0  0
   11.3502    9.1154   -6.7635 C   0  0  0  0  0  0  0  0  0  0  0  0
   10.9658    9.1019   -8.0933 C   0  0  0  0  0  0  0  0  0  0  0  0
   10.4552    7.9691   -8.6928 C   0  0  0  0  0  0  0  0  0  0  0  0
   10.0829    7.9712   -9.9973 N   0  0  0  0  0  0  0  0  0  0  0  0
   10.1732    8.8388  -10.5900 H   0  0  0  0  0  0  0  0  0  0  0  0
   11.6437    8.0095   -4.5814 C   0  0  0  0  0  0  0  0  0  0  0  0
   11.9906    9.1856   -3.9419 C   0  0  0  0  0  0  0  0  0  0  0  0
   12.3781    9.1965   -2.6074 C   0  0  0  0  0  0  0  0  0  0  0  0
   12.4321    8.0347   -1.8680 C   0  0  0  0  0  0  0  0  0  0  0  0
   12.0863    6.8620   -2.5053 C   0  0  0  0  0  0  0  0  0  0  0  0
   11.7017    6.8534   -3.8308 C   0  0  0  0  0  0  0  0  0  0  0  0
  1  2  2  0
  2  3  1  0
  3  4  2  0
  4  5  1  0
  5  6  2  0
  6  7  1  0
  7  8  1  0
  4  9  1  0
  9 10  2  0
 10 11  1  0
 11 12  2  0
 12 13  1  0
 13 14  2  0
 14 19  1  0
 19 20  2  0
 20 21  1  0
 21 22  2  0
 22 23  1  0
 23 24  2  0
 24 25  1  0
 25 31  1  0
 31 32  2  0
 32 33  1  0
 33 34  2  0
 34 35  1  0
 35 36  2  0
 25 26  2  0
 26 27  1  0
 27 28  2  0
 28 29  1  0
 29 30  1  0
 14 15  1  0
 15 16  2  0
 16 17  1  0
 17 18  1  0
 10  1  1  0
 16 11  1  0
  7  3  1  0
 18  9  1  0
 29 20  1  0
 28 23  1  0
 36 31  1  0
M  END
>  <minimizedAffinity>  (741) 
-16.74020

$$$$
Mol: 184_33 - SminaDock
     RDKit          3D

 43 50  0  0  0  0  0  0  0  0999 V2000
    8.4738    4.2324  -13.8714 C   0  0  0  0  0  0  0  0  0  0  0  0
    7.1476    3.9134  -13.6402 C   0  0  0  0  0  0  0  0  0  0  0  0
    6.4783    4.6870  -12.7168 C   0  0  0  0  0  0  0  0  0  0  0  0
    7.1186    5.7211  -12.0685 C   0  0  0  0  0  0  0  0  0  0  0  0
    8.4474    6.0293  -12.3100 C   0  0  0  0  0  0  0  0  0  0  0  0
    9.1348    5.2544  -13.2416 C   0  0  0  0  0  0  0  0  0  0  0  0
   14.7430   -0.4473  -21.0107 C   0  0  0  0  0  0  0  0  0  0  0  0
   15.1520    0.7886  -20.6989 N   0  0  0  0  0  0  0  0  0  0  0  0
   14.4583    1.5190  -19.8003 C   0  0  0  0  0  0  0  0  0  0  0  0
   14.8902    2.6604  -19.5536 O   0  0  0  0  0  0  0  0  0  0  0  0
   13.3387    1.0373  -19.1883 C   0  0  0  0  0  0  0  0  0  0  0  0
   12.5872    1.7639  -18.2478 C   0  0  0  0  0  0  0  0  0  0  0  0
   11.4705    1.2074  -17.6767 C   0  0  0  0  0  0  0  0  0  0  0  0
   11.0551   -0.0615  -18.0002 C   0  0  0  0  0  0  0  0  0  0  0  0
   11.7908   -0.7899  -18.9294 C   0  0  0  0  0  0  0  0  0  0  0  0
   12.8953   -0.2264  -19.4879 C   0  0  0  0  0  0  0  0  0  0  0  0
   13.6181   -0.9686  -20.4148 C   0  0  0  0  0  0  0  0  0  0  0  0
   10.6679    1.9595  -16.6888 C   0  0  0  0  0  0  0  0  0  0  0  0
    9.5350    1.4173  -16.0956 C   0  0  0  0  0  0  0  0  0  0  0  0
    8.8239    2.1627  -15.1786 C   0  0  0  0  0  0  0  0  0  0  0  0
    9.2201    3.4326  -14.8442 C   0  0  0  0  0  0  0  0  0  0  0  0
   10.3286    3.9721  -15.4203 C   0  0  0  0  0  0  0  0  0  0  0  0
   11.0713    3.2210  -16.3644 C   0  0  0  0  0  0  0  0  0  0  0  0
   12.2561    3.8592  -16.9527 C   0  0  0  0  0  0  0  0  0  0  0  0
   13.0511    3.1068  -17.9197 C   0  0  0  0  0  0  0  0  0  0  0  0
    9.1513    7.0708  -11.6758 N   0  0  0  0  0  0  0  0  0  0  0  0
    9.4798    7.0014  -10.4297 C   0  0  0  0  0  0  0  0  0  0  0  0
   10.1598    8.0291   -9.8551 N   0  0  0  0  0  0  0  0  0  0  0  0
   10.5348    8.0232   -8.5627 C   0  0  0  0  0  0  0  0  0  0  0  0
   11.2270    9.0734   -7.9876 C   0  0  0  0  0  0  0  0  0  0  0  0
   11.6105    9.0632   -6.6622 C   0  0  0  0  0  0  0  0  0  0  0  0
   11.3104    7.9798   -5.8440 C   0  0  0  0  0  0  0  0  0  0  0  0
   10.6200    6.9389   -6.4285 C   0  0  0  0  0  0  0  0  0  0  0  0
   10.2368    6.9484   -7.7512 C   0  0  0  0  0  0  0  0  0  0  0  0
    9.5472    5.9028   -8.3281 C   0  0  0  0  0  0  0  0  0  0  0  0
    9.1943    5.9592   -9.6305 N   0  0  0  0  0  0  0  0  0  0  0  0
    8.6692    5.1414  -10.0297 H   0  0  0  0  0  0  0  0  0  0  0  0
   11.7273    7.9914   -4.4479 C   0  0  0  0  0  0  0  0  0  0  0  0
   12.0778    9.1759   -3.8216 C   0  0  0  0  0  0  0  0  0  0  0  0
   12.4716    9.1833   -2.4988 C   0  0  0  0  0  0  0  0  0  0  0  0
   12.5259    8.0142   -1.7687 C   0  0  0  0  0  0  0  0  0  0  0  0
   12.1853    6.8405   -2.3668 C   0  0  0  0  0  0  0  0  0  0  0  0
   11.7944    6.8444   -3.6854 C   0  0  0  0  0  0  0  0  0  0  0  0
  7  8  1  0
  8  9  1  0
  9 10  2  0
  9 11  1  0
 11 12  2  0
 12 13  1  0
 13 14  2  0
 14 15  1  0
 15 16  2  0
 16 17  1  0
 13 18  1  0
 18 19  2  0
 19 20  1  0
 20 21  2  0
 21  1  1  0
  1  2  2  0
  2  3  1  0
  3  4  2  0
  4  5  1  0
  5 26  1  0
 26 27  2  0
 27 28  1  0
 28 29  2  0
 29 30  1  0
 30 31  2  0
 31 32  1  0
 32 38  1  0
 38 39  2  0
 39 40  1  0
 40 41  2  0
 41 42  1  0
 42 43  2  0
 32 33  2  0
 33 34  1  0
 34 35  2  0
 35 36  1  0
 36 37  1  0
  5  6  2  0
 21 22  1  0
 22 23  2  0
 23 24  1  0
 24 25  1  0
 17  7  2  0
 23 18  1  0
 16 11  1  0
  6  1  1  0
 25 12  1  0
 36 27  1  0
 34 29  1  0
 43 38  1  0
M  CHG  1   8  -1
M  END
>  <minimizedAffinity>  (742) 
-16.71345

$$$$
Mol: 155_13 - SminaDock
     RDKit          3D

 42 48  0  0  0  0  0  0  0  0999 V2000
    8.9113    3.3677  -15.1901 C   0  0  2  0  0  0  0  0  0  0  0  0
    8.3155    3.9993  -13.9937 C   0  0  0  0  0  0  0  0  0  0  0  0
    8.9820    5.1404  -13.4952 C   0  0  0  0  0  0  0  0  0  0  0  0
    8.4952    5.7590  -12.3900 C   0  0  0  0  0  0  0  0  0  0  0  0
    7.3643    5.3022  -11.7385 C   0  0  0  0  0  0  0  0  0  0  0  0
    6.7229    4.1856  -12.2373 C   0  0  0  0  0  0  0  0  0  0  0  0
    7.2033    3.5275  -13.3771 C   0  0  0  0  0  0  0  0  0  0  0  0
    6.4994    2.3602  -13.8995 C   0  0  0  0  0  0  0  0  0  0  0  0
    5.3810    1.8709  -13.2814 C   0  0  0  0  0  0  0  0  0  0  0  0
    4.7565    0.7486  -13.8251 C   0  0  0  0  0  0  0  0  0  0  0  0
    5.2587    0.1533  -14.9563 C   0  0  0  0  0  0  0  0  0  0  0  0
    4.6173   -0.9716  -15.4877 C   0  0  0  0  0  0  0  0  0  0  0  0
    5.1215   -1.5573  -16.6130 C   0  0  0  0  0  0  0  0  0  0  0  0
    6.2362   -1.0993  -17.2608 C   0  0  0  0  0  0  0  0  0  0  0  0
    6.8772    0.0160  -16.7390 C   0  0  0  0  0  0  0  0  0  0  0  0
    6.3796    0.6245  -15.5964 C   0  0  0  0  0  0  0  0  0  0  0  0
    6.9969    1.7563  -15.0352 C   0  0  0  0  0  0  0  0  0  0  0  0
    8.1861    2.2325  -15.7535 C   0  0  0  0  0  0  0  0  0  0  0  0
    9.1720    6.9284  -11.8805 N   0  0  0  0  0  0  0  0  0  0  0  0
    9.5180    6.9545  -10.6518 C   0  0  0  0  0  0  0  0  0  0  0  0
    9.2472    5.9051   -9.8717 N   0  0  0  0  0  0  0  0  0  0  0  0
    9.5996    5.9074   -8.5784 C   0  0  0  0  0  0  0  0  0  0  0  0
   10.2498    6.9728   -7.9891 C   0  0  0  0  0  0  0  0  0  0  0  0
   10.6111    6.9712   -6.6598 C   0  0  0  0  0  0  0  0  0  0  0  0
   11.2596    8.0589   -6.1187 C   0  0  0  0  0  0  0  0  0  0  0  0
   11.5375    9.1390   -6.9248 C   0  0  0  0  0  0  0  0  0  0  0  0
   11.1651    9.1149   -8.2510 C   0  0  0  0  0  0  0  0  0  0  0  0
   10.5109    8.0415   -8.8380 C   0  0  0  0  0  0  0  0  0  0  0  0
   10.1485    8.0181  -10.1323 N   0  0  0  0  0  0  0  0  0  0  0  0
   10.3859    8.8678  -10.6979 H   0  0  0  0  0  0  0  0  0  0  0  0
   11.6283    8.0140   -4.6990 C   0  0  0  0  0  0  0  0  0  0  0  0
   11.6352    6.8261   -3.9973 C   0  0  0  0  0  0  0  0  0  0  0  0
   11.9770    6.7490   -2.6678 C   0  0  0  0  0  0  0  0  0  0  0  0
   12.3330    7.9177   -1.9927 C   0  0  0  0  0  0  0  0  0  0  0  0
   12.3234    9.0986   -2.7005 C   0  0  0  0  0  0  0  0  0  0  0  0
   11.9808    9.1793   -4.0350 C   0  0  0  0  0  0  0  0  0  0  0  0
   10.5739    3.9319  -17.4291 H   0  0  0  0  0  0  0  0  0  0  0  0
   11.1344    4.1774  -16.6230 O   0  0  0  0  0  0  0  0  0  0  0  0
   11.2897    3.4036  -15.5145 N   0  0  0  0  0  0  0  0  0  0  0  0
   10.3256    2.9788  -14.7859 C   0  0  0  0  0  0  0  0  0  0  0  0
   10.5593    2.1941  -13.6704 O   0  0  0  0  0  0  0  0  0  0  0  0
   11.4776    1.8593  -13.4304 H   0  0  0  0  0  0  0  0  0  0  0  0
 37 38  1  0
 38 39  1  0
 39 40  2  0
 40 41  1  0
 41 42  1  0
  1 40  1  1
  1  2  1  0
  2  3  2  0
  3  4  1  0
  4 19  1  0
 19 20  2  0
 20 21  1  0
 21 22  2  0
 22 23  1  0
 23 24  2  0
 24 25  1  0
 25 31  1  0
 31 32  2  0
 32 33  1  0
 33 34  2  0
 34 35  1  0
 35 36  2  0
 25 26  2  0
 26 27  1  0
 27 28  2  0
 28 29  1  0
 29 30  1  0
  4  5  2  0
  5  6  1  0
  6  7  2  0
  7  8  1  0
  8  9  2  0
  9 10  1  0
 10 11  2  0
 11 12  1  0
 12 13  2  0
 13 14  1  0
 14 15  2  0
 15 16  1  0
 16 17  2  0
 17 18  1  0
 18  1  1  0
  7  2  1  0
 17  8  1  0
 29 20  1  0
 16 11  1  0
 28 23  1  0
 36 31  1  0
M  END
>  <minimizedAffinity>  (743) 
-16.67203

$$$$
Mol: 155_33 - SminaDock
     RDKit          3D

 39 45  0  0  0  0  0  0  0  0999 V2000
    8.9330    5.8039  -12.3811 C   0  0  0  0  0  0  0  0  0  0  0  0
    9.7049    5.0055  -13.1893 C   0  0  0  0  0  0  0  0  0  0  0  0
    9.2491    3.8584  -13.8033 C   0  0  0  0  0  0  0  0  0  0  0  0
    7.9187    3.4891  -13.5869 C   0  0  0  0  0  0  0  0  0  0  0  0
    7.1222    4.2564  -12.7924 C   0  0  0  0  0  0  0  0  0  0  0  0
    7.6367    5.4204  -12.1869 C   0  0  0  0  0  0  0  0  0  0  0  0
    5.7136    3.9482  -12.5420 C   0  0  0  0  0  0  0  0  0  0  0  0
    5.1837    2.6817  -13.0633 C   0  0  0  0  0  0  0  0  0  0  0  0
    6.0556    1.8959  -13.9328 C   0  0  0  0  0  0  0  0  0  0  0  0
    5.5173    0.7399  -14.5022 C   0  0  0  0  0  0  0  0  0  0  0  0
    6.3253   -0.0144  -15.3121 C   0  0  0  0  0  0  0  0  0  0  0  0
    7.6091    0.3890  -15.5270 C   0  0  0  0  0  0  0  0  0  0  0  0
    8.3448   -0.3020  -16.2669 O   0  0  0  0  0  0  0  0  0  0  0  0
    8.1318    1.5137  -14.9722 N   0  0  0  0  0  0  0  0  0  0  0  0
    9.1288    1.7693  -15.1783 H   0  0  0  0  0  0  0  0  0  0  0  0
    7.3585    2.2656  -14.1776 C   0  0  0  0  0  0  0  0  0  0  0  0
    5.7493   -1.2678  -15.9360 C   0  0  0  0  0  0  0  0  0  0  0  0
    4.4093   -1.0186  -16.2567 O   0  0  0  0  0  0  0  0  0  0  0  0
    3.6702   -0.8792  -15.0661 C   0  0  0  0  0  0  0  0  0  0  0  0
    4.1621    0.2789  -14.2857 C   0  0  0  0  0  0  0  0  0  0  0  0
    3.4279    0.8477  -13.4578 O   0  0  0  0  0  0  0  0  0  0  0  0
   11.3154    8.0181   -5.9341 C   0  0  0  0  0  0  0  0  0  0  0  0
   11.5029    9.1746   -6.6972 C   0  0  0  0  0  0  0  0  0  0  0  0
   11.1789    9.2311   -8.0363 C   0  0  0  0  0  0  0  0  0  0  0  0
   10.6520    8.1069   -8.6414 C   0  0  0  0  0  0  0  0  0  0  0  0
   10.3092    8.0791   -9.9451 N   0  0  0  0  0  0  0  0  0  0  0  0
    9.7979    6.9700  -10.5089 C   0  0  0  0  0  0  0  0  0  0  0  0
    9.4796    6.9864  -11.7740 N   0  0  0  0  0  0  0  0  0  0  0  0
    9.6072    5.8449   -9.7990 N   0  0  0  0  0  0  0  0  0  0  0  0
    9.2064    4.9814  -10.2491 H   0  0  0  0  0  0  0  0  0  0  0  0
    9.9409    5.8413   -8.4904 C   0  0  0  0  0  0  0  0  0  0  0  0
   10.4672    6.9618   -7.8825 C   0  0  0  0  0  0  0  0  0  0  0  0
   10.7881    6.8973   -6.5453 C   0  0  0  0  0  0  0  0  0  0  0  0
   12.3919    8.0112   -1.7958 C   0  0  0  0  0  0  0  0  0  0  0  0
   12.3863    9.1827   -2.5206 C   0  0  0  0  0  0  0  0  0  0  0  0
   12.0404    9.2110   -3.8658 C   0  0  0  0  0  0  0  0  0  0  0  0
   11.6880    8.0536   -4.5245 C   0  0  0  0  0  0  0  0  0  0  0  0
   11.6996    6.8790   -3.7749 C   0  0  0  0  0  0  0  0  0  0  0  0
   12.0398    6.8494   -2.4504 C   0  0  0  0  0  0  0  0  0  0  0  0
 34 35  2  0
 35 36  1  0
 36 37  2  0
 37 22  1  0
 22 23  1  0
 23 24  2  0
 24 25  1  0
 25 26  2  0
 26 27  1  0
 27 28  2  0
 28  1  1  0
  1  2  2  0
  2  3  1  0
  3  4  2  0
  4  5  1  0
  5  6  2  0
  5  7  1  0
  7  8  1  0
  8  9  1  0
  9 10  1  0
 10 11  2  0
 11 12  1  0
 12 13  2  0
 12 14  1  0
 14 15  1  0
 14 16  1  0
 11 17  1  0
 17 18  1  0
 18 19  1  0
 19 20  1  0
 20 21  2  0
 27 29  1  0
 29 30  1  0
 29 31  1  0
 31 32  2  0
 32 33  1  0
 37 38  1  0
 38 39  2  0
 39 34  1  0
 33 22  2  0
 32 25  1  0
  6  1  1  0
 16  9  2  0
 16  4  1  0
 20 10  1  0
M  END
>  <minimizedAffinity>  (744) 
-16.66910

$$$$
Mol: 163_58 - SminaDock
     RDKit          3D

 41 47  0  0  0  0  0  0  0  0999 V2000
    5.1371   -1.3915  -16.2468 C   0  0  0  0  0  0  0  0  0  0  0  0
    6.1035   -1.5236  -17.1681 N   0  0  0  0  0  0  0  0  0  0  0  0
    7.1402   -0.6758  -17.2420 C   0  0  0  0  0  0  0  0  0  0  0  0
    8.0323   -0.8302  -18.1224 O   0  0  0  0  0  0  0  0  0  0  0  0
    7.1845    0.3582  -16.3235 C   0  0  0  0  0  0  0  0  0  0  0  0
    8.2621    1.2293  -16.4100 C   0  0  0  0  0  0  0  0  0  0  0  0
    9.1309    1.0330  -17.3096 O   0  0  0  0  0  0  0  0  0  0  0  0
    8.3415    2.2428  -15.5393 N   0  0  0  0  0  0  0  0  0  0  0  0
    7.4081    2.4457  -14.5800 C   0  0  0  0  0  0  0  0  0  0  0  0
    6.3089    1.6210  -14.4328 C   0  0  0  0  0  0  0  0  0  0  0  0
    6.2208    0.5567  -15.3433 C   0  0  0  0  0  0  0  0  0  0  0  0
    5.1837   -0.3455  -15.3191 C   0  0  0  0  0  0  0  0  0  0  0  0
    5.1796    1.5921  -13.5257 C   0  0  0  0  0  0  0  0  0  0  0  0
    5.0860    2.5880  -12.5242 N   0  0  0  0  0  0  0  0  0  0  0  0
    4.3594    2.3447  -11.7846 H   0  0  0  0  0  0  0  0  0  0  0  0
    5.7298    3.8144  -12.2890 C   0  0  0  0  0  0  0  0  0  0  0  0
    5.1460    4.6781  -11.5841 O   0  0  0  0  0  0  0  0  0  0  0  0
    7.0266    4.2367  -12.7669 C   0  0  0  0  0  0  0  0  0  0  0  0
    7.5144    5.3568  -12.1073 C   0  0  0  0  0  0  0  0  0  0  0  0
    8.7395    5.9018  -12.4311 C   0  0  0  0  0  0  0  0  0  0  0  0
    9.4515    5.2718  -13.4460 C   0  0  0  0  0  0  0  0  0  0  0  0
    8.9815    4.1590  -14.1110 C   0  0  0  0  0  0  0  0  0  0  0  0
    7.7478    3.6254  -13.7716 C   0  0  0  0  0  0  0  0  0  0  0  0
    9.2668    7.0475  -11.7746 N   0  0  0  0  0  0  0  0  0  0  0  0
    9.6215    7.0006  -10.5140 C   0  0  0  0  0  0  0  0  0  0  0  0
    9.5055    5.8761   -9.7851 N   0  0  0  0  0  0  0  0  0  0  0  0
    9.8622    5.8069   -8.4920 C   0  0  0  0  0  0  0  0  0  0  0  0
   10.3736    6.9237   -7.8570 C   0  0  0  0  0  0  0  0  0  0  0  0
   10.7552    6.9082   -6.5311 C   0  0  0  0  0  0  0  0  0  0  0  0
   11.2642    8.0254   -5.9031 C   0  0  0  0  0  0  0  0  0  0  0  0
   11.3796    9.1771   -6.6618 C   0  0  0  0  0  0  0  0  0  0  0  0
   11.0048    9.2158   -7.9875 C   0  0  0  0  0  0  0  0  0  0  0  0
   10.4940    8.0783   -8.6015 C   0  0  0  0  0  0  0  0  0  0  0  0
   10.1184    8.0865   -9.8979 N   0  0  0  0  0  0  0  0  0  0  0  0
   10.2137    8.9627  -10.4494 H   0  0  0  0  0  0  0  0  0  0  0  0
   11.6713    8.0379   -4.5189 C   0  0  0  0  0  0  0  0  0  0  0  0
   12.0149    9.2174   -3.9187 C   0  0  0  0  0  0  0  0  0  0  0  0
   12.4070    9.2415   -2.5932 C   0  0  0  0  0  0  0  0  0  0  0  0
   12.4489    8.0616   -1.8773 C   0  0  0  0  0  0  0  0  0  0  0  0
   12.1083    6.8756   -2.4639 C   0  0  0  0  0  0  0  0  0  0  0  0
   11.7149    6.8734   -3.8050 C   0  0  0  0  0  0  0  0  0  0  0  0
  1  2  1  0
  2  3  1  0
  3  4  2  0
  3  5  1  0
  5  6  1  0
  6  7  2  0
  6  8  1  0
  8  9  1  0
  9 10  2  0
 10 11  1  0
 11 12  1  0
 10 13  1  0
 13 14  1  0
 14 15  1  0
 14 16  1  0
 16 17  2  0
 16 18  1  0
 18 19  2  0
 19 20  1  0
 20 24  1  0
 24 25  2  0
 25 26  1  0
 26 27  2  0
 27 28  1  0
 28 29  2  0
 29 30  1  0
 30 36  1  0
 36 37  2  0
 37 38  1  0
 38 39  2  0
 39 40  1  0
 40 41  2  0
 30 31  2  0
 31 32  1  0
 32 33  2  0
 33 34  1  0
 34 35  1  0
 20 21  2  0
 21 22  1  0
 22 23  2  0
 12  1  2  0
 23 18  1  0
 11  5  2  0
 34 25  1  0
 23  9  1  0
 33 28  1  0
 41 36  1  0
M  CHG  2   2  -1   8  -1
M  END
>  <minimizedAffinity>  (745) 
-16.70988

$$$$
Mol: 155_39 - SminaDock
     RDKit          3D

 39 45  0  0  0  0  0  0  0  0999 V2000
    8.6461   -0.4550  -17.1751 H   0  0  0  0  0  0  0  0  0  0  0  0
    8.6814   -0.4197  -16.1688 O   0  0  0  0  0  0  0  0  0  0  0  0
    7.8603    0.4099  -15.4041 C   0  0  0  0  0  0  0  0  0  0  0  0
    8.3536    1.5273  -14.8401 N   0  0  0  0  0  0  0  0  0  0  0  0
    7.5310    2.2919  -14.1161 C   0  0  0  0  0  0  0  0  0  0  0  0
    6.2086    1.9627  -13.9363 C   0  0  0  0  0  0  0  0  0  0  0  0
    5.6829    0.8041  -14.5185 C   0  0  0  0  0  0  0  0  0  0  0  0
    6.5425    0.0304  -15.2605 C   0  0  0  0  0  0  0  0  0  0  0  0
    5.7688   -1.1313  -15.7725 C   0  0  0  0  0  0  0  0  0  0  0  0
    4.6945   -1.2745  -14.7008 C   0  0  0  0  0  0  0  0  0  0  0  0
    4.3268    0.2038  -14.5029 C   0  0  0  0  0  0  0  0  0  0  0  0
    5.2796    2.7302  -13.0892 C   0  0  0  0  0  0  0  0  0  0  0  0
    5.7362    4.1052  -12.8287 C   0  0  1  0  0  0  0  0  0  0  0  0
    5.1850    4.6219  -11.6259 O   0  0  0  0  0  0  0  0  0  0  0  0
    5.0837    5.5924  -11.7927 H   0  0  0  0  0  0  0  0  0  0  0  0
    7.1781    4.3554  -12.8834 C   0  0  0  0  0  0  0  0  0  0  0  0
    7.7126    5.5124  -12.2835 C   0  0  0  0  0  0  0  0  0  0  0  0
    9.0522    5.7738  -12.4020 C   0  0  0  0  0  0  0  0  0  0  0  0
    9.9149    4.9390  -13.0951 C   0  0  0  0  0  0  0  0  0  0  0  0
    9.4080    3.8061  -13.6844 C   0  0  0  0  0  0  0  0  0  0  0  0
    8.0391    3.5496  -13.5550 C   0  0  0  0  0  0  0  0  0  0  0  0
    9.5840    6.9402  -11.7947 N   0  0  0  0  0  0  0  0  0  0  0  0
    9.8828    6.9453  -10.5399 C   0  0  0  0  0  0  0  0  0  0  0  0
   10.3915    8.0455   -9.9374 N   0  0  0  0  0  0  0  0  0  0  0  0
   10.7115    8.0828   -8.6394 C   0  0  0  0  0  0  0  0  0  0  0  0
   11.2284    9.2286   -8.0688 C   0  0  0  0  0  0  0  0  0  0  0  0
   11.5528    9.2401   -6.7178 C   0  0  0  0  0  0  0  0  0  0  0  0
   11.3504    8.0985   -5.9696 C   0  0  0  0  0  0  0  0  0  0  0  0
   10.8327    6.9602   -6.5541 C   0  0  0  0  0  0  0  0  0  0  0  0
   10.5058    6.9361   -7.8980 C   0  0  0  0  0  0  0  0  0  0  0  0
    9.9895    5.8144   -8.5020 C   0  0  0  0  0  0  0  0  0  0  0  0
    9.6838    5.8348   -9.8208 N   0  0  0  0  0  0  0  0  0  0  0  0
    9.2907    4.9401  -10.2237 H   0  0  0  0  0  0  0  0  0  0  0  0
   11.6751    8.0663   -4.5622 C   0  0  0  0  0  0  0  0  0  0  0  0
   11.6895    6.8775   -3.8666 C   0  0  0  0  0  0  0  0  0  0  0  0
   11.9939    6.8112   -2.5316 C   0  0  0  0  0  0  0  0  0  0  0  0
   12.2936    7.9916   -1.8817 C   0  0  0  0  0  0  0  0  0  0  0  0
   12.2875    9.1892   -2.5466 C   0  0  0  0  0  0  0  0  0  0  0  0
   11.9776    9.2239   -3.8886 C   0  0  0  0  0  0  0  0  0  0  0  0
  1  2  1  0
  2  3  1  0
  3  4  2  0
  4  5  1  0
  5  6  2  0
  6  7  1  0
  7  8  2  0
  8  9  1  0
  9 10  1  0
 10 11  1  0
  6 12  1  0
 12 13  1  0
 13 14  1  1
 14 15  1  0
 13 16  1  0
 16 17  2  0
 17 18  1  0
 18 22  1  0
 22 23  2  0
 23 24  1  0
 24 25  2  0
 25 26  1  0
 26 27  2  0
 27 28  1  0
 28 34  1  0
 34 35  2  0
 35 36  1  0
 36 37  2  0
 37 38  1  0
 38 39  2  0
 28 29  2  0
 29 30  1  0
 30 31  2  0
 31 32  1  0
 32 33  1  0
 18 19  2  0
 19 20  1  0
 20 21  2  0
  8  3  1  0
 21 16  1  0
 21  5  1  0
 11  7  1  0
 32 23  1  0
 30 25  1  0
 39 34  1  0
M  END
>  <minimizedAffinity>  (746) 
-16.73258

$$$$
Mol: 155_42 - SminaDock
     RDKit          3D

 38 44  0  0  0  0  0  0  0  0999 V2000
    2.1922    0.0408  -14.1235 H   0  0  0  0  0  0  0  0  0  0  0  0
    3.1025    0.3424  -13.7710 O   0  0  0  0  0  0  0  0  0  0  0  0
    4.2398   -0.1162  -14.4566 C   0  0  0  0  0  0  0  0  0  0  0  0
    4.3080   -1.1894  -15.1595 N   0  0  0  0  0  0  0  0  0  0  0  0
    5.6218   -1.3608  -15.7244 C   0  0  0  0  0  0  0  0  0  0  0  0
    6.3981   -0.1663  -15.2385 C   0  0  0  0  0  0  0  0  0  0  0  0
    5.5274    0.5571  -14.4779 C   0  0  0  0  0  0  0  0  0  0  0  0
    5.9709    1.7334  -13.8878 C   0  0  0  0  0  0  0  0  0  0  0  0
    7.2646    2.1217  -14.0920 C   0  0  0  0  0  0  0  0  0  0  0  0
    8.1317    1.3838  -14.8604 N   0  0  0  0  0  0  0  0  0  0  0  0
    7.7062    0.2447  -15.4332 C   0  0  0  0  0  0  0  0  0  0  0  0
    8.4399   -0.4895  -16.1529 O   0  0  0  0  0  0  0  0  0  0  0  0
    7.7244    3.3561  -13.4690 C   0  0  0  0  0  0  0  0  0  0  0  0
    9.0376    3.7717  -13.6659 C   0  0  0  0  0  0  0  0  0  0  0  0
    9.4676    4.9112  -13.0955 N   0  0  0  0  0  0  0  0  0  0  0  0
    8.6498    5.6718  -12.3280 C   0  0  0  0  0  0  0  0  0  0  0  0
    7.3396    5.3122  -12.0966 C   0  0  0  0  0  0  0  0  0  0  0  0
    6.8972    4.1255  -12.6924 C   0  0  0  0  0  0  0  0  0  0  0  0
    5.5059    3.7478  -12.4419 C   0  0  0  0  0  0  0  0  0  0  0  0
    5.0311    2.4985  -13.0786 C   0  0  0  0  0  0  0  0  0  0  0  0
    9.1501    6.8726  -11.7432 N   0  0  0  0  0  0  0  0  0  0  0  0
    9.5276    6.8997  -10.5193 C   0  0  0  0  0  0  0  0  0  0  0  0
    9.4522    5.7777   -9.7691 N   0  0  0  0  0  0  0  0  0  0  0  0
    9.8322    5.7458   -8.4807 C   0  0  0  0  0  0  0  0  0  0  0  0
   10.3238    6.8897   -7.8700 C   0  0  0  0  0  0  0  0  0  0  0  0
   10.7227    6.8997   -6.5542 C   0  0  0  0  0  0  0  0  0  0  0  0
   11.2074    8.0439   -5.9650 C   0  0  0  0  0  0  0  0  0  0  0  0
   11.2811    9.1824   -6.7350 C   0  0  0  0  0  0  0  0  0  0  0  0
   10.8850    9.1876   -8.0553 C   0  0  0  0  0  0  0  0  0  0  0  0
   10.4012    8.0347   -8.6337 C   0  0  0  0  0  0  0  0  0  0  0  0
   10.0031    8.0010   -9.9237 N   0  0  0  0  0  0  0  0  0  0  0  0
   10.0844    8.9100  -10.4636 H   0  0  0  0  0  0  0  0  0  0  0  0
   11.6298    8.0426   -4.5590 C   0  0  0  0  0  0  0  0  0  0  0  0
   11.6561    6.8593   -3.8503 C   0  0  0  0  0  0  0  0  0  0  0  0
   12.0493    6.8233   -2.5256 C   0  0  0  0  0  0  0  0  0  0  0  0
   12.4263    8.0013   -1.8927 C   0  0  0  0  0  0  0  0  0  0  0  0
   12.3943    9.1772   -2.6168 C   0  0  0  0  0  0  0  0  0  0  0  0
   12.0013    9.2190   -3.9438 C   0  0  0  0  0  0  0  0  0  0  0  0
  1  2  1  0
  2  3  1  0
  3  4  2  0
  4  5  1  0
  5  6  1  0
  6  7  2  0
  7  8  1  0
  8  9  2  0
  9 10  1  0
 10 11  1  0
 11 12  2  0
  9 13  1  0
 13 14  2  0
 14 15  1  0
 15 16  2  0
 16 21  1  0
 21 22  2  0
 22 23  1  0
 23 24  2  0
 24 25  1  0
 25 26  2  0
 26 27  1  0
 27 33  1  0
 33 34  2  0
 34 35  1  0
 35 36  2  0
 36 37  1  0
 37 38  2  0
 27 28  2  0
 28 29  1  0
 29 30  2  0
 30 31  1  0
 31 32  1  0
 16 17  1  0
 17 18  2  0
 18 19  1  0
 19 20  1  0
  7  3  1  0
 20  8  1  0
 11  6  1  0
 18 13  1  0
 31 22  1  0
 30 25  1  0
 38 33  1  0
M  CHG  1  10  -1
M  END
>  <minimizedAffinity>  (747) 
-16.71421

$$$$
Mol: 165_5 - SminaDock
     RDKit          3D

 41 47  0  0  0  0  0  0  0  0999 V2000
    6.2100   -2.0882  -17.3857 N   0  0  0  0  0  0  0  0  0  0  0  0
    5.8198   -1.1540  -16.3961 C   0  0  0  0  0  0  0  0  0  0  0  0
    4.5864   -1.2979  -15.8010 C   0  0  0  0  0  0  0  0  0  0  0  0
    4.2172   -0.3862  -14.8406 C   0  0  0  0  0  0  0  0  0  0  0  0
    2.9901   -0.4773  -14.2077 O   0  0  0  0  0  0  0  0  0  0  0  0
    5.1184    0.6378  -14.5226 C   0  0  0  0  0  0  0  0  0  0  0  0
    4.7743    1.5539  -13.5667 C   0  0  0  0  0  0  0  0  0  0  0  0
    5.6634    2.5957  -13.2215 C   0  0  0  0  0  0  0  0  0  0  0  0
    6.8831    2.6986  -13.8485 C   0  0  0  0  0  0  0  0  0  0  0  0
    7.2339    1.7759  -14.8108 C   0  0  0  0  0  0  0  0  0  0  0  0
    6.3374    0.7549  -15.1308 C   0  0  0  0  0  0  0  0  0  0  0  0
    6.6828   -0.1487  -16.0712 N   0  0  0  0  0  0  0  0  0  0  0  0
    7.7766    3.8421  -13.5590 C   0  0  0  0  0  0  0  0  0  0  0  0
    9.0344    3.8566  -14.1141 C   0  0  0  0  0  0  0  0  0  0  0  0
    9.8790    4.9039  -13.7222 C   0  0  0  0  0  0  0  0  0  0  0  0
    9.5023    5.8800  -12.8325 C   0  0  0  0  0  0  0  0  0  0  0  0
    8.2417    5.8324  -12.3032 C   0  0  0  0  0  0  0  0  0  0  0  0
    7.3721    4.8124  -12.6666 C   0  0  0  0  0  0  0  0  0  0  0  0
    5.9791    4.8059  -12.1831 C   0  0  0  0  0  0  0  0  0  0  0  0
    5.3006    3.5034  -12.1270 C   0  0  0  0  0  0  0  0  0  0  0  0
    5.9699   -3.0907  -17.2937 H   0  0  0  0  0  0  0  0  0  0  0  0
    6.7407   -1.7607  -18.2069 H   0  0  0  0  0  0  0  0  0  0  0  0
    2.1895    0.0167  -14.6349 H   0  0  0  0  0  0  0  0  0  0  0  0
   10.3965    6.9392  -12.4663 N   0  0  0  0  0  0  0  0  0  0  0  0
   10.8097    7.5501  -13.1948 H   0  0  0  0  0  0  0  0  0  0  0  0
   10.7275    7.1697  -11.1040 C   0  0  0  0  0  0  0  0  0  0  0  0
   11.8968    7.8655  -10.7860 C   0  0  0  0  0  0  0  0  0  0  0  0
   12.2510    8.1068   -9.5139 N   0  0  0  0  0  0  0  0  0  0  0  0
   11.4844    7.6830   -8.4911 C   0  0  0  0  0  0  0  0  0  0  0  0
   11.8642    7.9439   -7.1980 C   0  0  0  0  0  0  0  0  0  0  0  0
   11.0992    7.5247   -6.1285 C   0  0  0  0  0  0  0  0  0  0  0  0
    9.9394    6.8337   -6.4002 C   0  0  0  0  0  0  0  0  0  0  0  0
    9.5730    6.5808   -7.7060 C   0  0  0  0  0  0  0  0  0  0  0  0
   10.3257    6.9939   -8.7831 C   0  0  0  0  0  0  0  0  0  0  0  0
    9.9915    6.7638  -10.0607 N   0  0  0  0  0  0  0  0  0  0  0  0
   11.5302    7.8384   -4.7830 C   0  0  0  0  0  0  0  0  0  0  0  0
   11.7359    6.8370   -3.8668 C   0  0  0  0  0  0  0  0  0  0  0  0
   12.1361    7.0991   -2.5644 C   0  0  0  0  0  0  0  0  0  0  0  0
   12.3413    8.4033   -2.1517 C   0  0  0  0  0  0  0  0  0  0  0  0
   12.1368    9.4115   -3.0650 C   0  0  0  0  0  0  0  0  0  0  0  0
   11.7422    9.1504   -4.3486 C   0  0  0  0  0  0  0  0  0  0  0  0
  1  2  1  0
  2  3  2  0
  3  4  1  0
  4  5  1  0
  4  6  2  0
  6  7  1  0
  7  8  2  0
  8  9  1  0
  9 10  2  0
 10 11  1  0
 11 12  2  0
  9 13  1  0
 13 14  2  0
 14 15  1  0
 15 16  2  0
 16 24  1  0
 24 26  1  0
 26 27  2  0
 27 28  1  0
 28 29  2  0
 29 30  1  0
 30 31  2  0
 31 36  1  0
 36 37  2  0
 37 38  1  0
 38 39  2  0
 39 40  1  0
 40 41  2  0
 31 32  1  0
 32 33  2  0
 33 34  1  0
 34 35  2  0
 16 17  1  0
 17 18  2  0
 18 19  1  0
 19 20  1  0
 12  2  1  0
 18 13  1  0
 11  6  1  0
 35 26  1  0
 20  8  1  0
 34 29  1  0
 41 36  1  0
  1 21  1  0
  1 22  1  0
  5 23  1  0
 24 25  1  0
M  END
>  <minimizedAffinity>  (748) 
-16.67369

$$$$
Mol: 91_15 - SminaDock
     RDKit          3D

 43 49  0  0  0  0  0  0  0  0999 V2000
   10.5391   -1.2952  -15.6928 H   0  0  0  0  0  0  0  0  0  0  0  0
    9.9130   -0.5531  -15.9818 O   0  0  0  0  0  0  0  0  0  0  0  0
   10.3155    0.4428  -16.8713 C   0  0  0  0  0  0  0  0  0  0  0  0
   10.4992    0.1227  -18.1917 O   0  0  0  0  0  0  0  0  0  0  0  0
   10.5139    1.6913  -16.4229 C   0  0  0  0  0  0  0  0  0  0  0  0
   10.9256    2.6412  -17.3905 C   0  0  0  0  0  0  0  0  0  0  0  0
   11.1467    3.9221  -16.9413 C   0  0  0  0  0  0  0  0  0  0  0  0
   10.9764    4.2755  -15.6177 C   0  0  0  0  0  0  0  0  0  0  0  0
   10.5753    3.3632  -14.6750 C   0  0  0  0  0  0  0  0  0  0  0  0
   10.3475    2.0521  -15.1164 C   0  0  0  0  0  0  0  0  0  0  0  0
   10.3503    3.6629  -13.2677 C   0  0  0  0  0  0  0  0  0  0  0  0
   10.1263    5.1581  -13.0327 C   0  0  1  0  0  0  0  0  0  0  0  0
   11.0370    5.9032  -13.8437 N   0  0  0  0  0  0  0  0  0  0  0  0
   11.8118    6.9432  -13.3449 C   0  0  0  0  0  0  0  0  0  0  0  0
   12.6128    7.6229  -14.0765 O   0  0  0  0  0  0  0  0  0  0  0  0
   11.2149    5.5418  -15.2354 C   0  0  0  0  0  0  0  0  0  0  0  0
   11.7369    7.3034  -11.9283 C   0  0  0  0  0  0  0  0  0  0  0  0
   12.8802    7.6704  -11.2263 C   0  0  0  0  0  0  0  0  0  0  0  0
   12.8179    7.9857   -9.9048 C   0  0  0  0  0  0  0  0  0  0  0  0
   11.6257    7.9648   -9.1727 C   0  0  0  0  0  0  0  0  0  0  0  0
   10.5006    7.6019   -9.8756 C   0  0  0  0  0  0  0  0  0  0  0  0
   10.5514    7.2798  -11.2130 C   0  0  0  0  0  0  0  0  0  0  0  0
   11.6276    8.2819   -7.7552 C   0  0  0  0  0  0  0  0  0  0  0  0
   11.6887    9.6157   -7.3943 C   0  0  0  0  0  0  0  0  0  0  0  0
   11.6945   10.0049   -6.0627 C   0  0  0  0  0  0  0  0  0  0  0  0
   11.6381    9.0586   -5.0739 C   0  0  0  0  0  0  0  0  0  0  0  0
   11.6410    9.4019   -3.7276 C   0  0  0  0  0  0  0  0  0  0  0  0
   11.5833    8.4675   -2.7310 C   0  0  0  0  0  0  0  0  0  0  0  0
   11.5194    7.1319   -3.0750 C   0  0  0  0  0  0  0  0  0  0  0  0
   11.5173    6.7918   -4.4048 C   0  0  0  0  0  0  0  0  0  0  0  0
   11.5756    7.7178   -5.4034 C   0  0  0  0  0  0  0  0  0  0  0  0
   11.5715    7.3465   -6.7551 C   0  0  0  0  0  0  0  0  0  0  0  0
    8.6752    5.5411  -13.2047 C   0  0  0  0  0  0  0  0  0  0  0  0
    7.7319    4.4281  -13.2133 C   0  0  0  0  0  0  0  0  0  0  0  0
    6.8455    4.3171  -12.1543 C   0  0  0  0  0  0  0  0  0  0  0  0
    5.9179    3.3068  -12.0760 C   0  0  0  0  0  0  0  0  0  0  0  0
    5.8334    2.3399  -13.0758 C   0  0  0  0  0  0  0  0  0  0  0  0
    4.9199    1.3300  -13.0177 C   0  0  0  0  0  0  0  0  0  0  0  0
    4.7904    0.3548  -13.9717 C   0  0  0  0  0  0  0  0  0  0  0  0
    5.6798    0.4498  -15.0520 C   0  0  0  0  0  0  0  0  0  0  0  0
    6.6138    1.4649  -15.1298 C   0  0  0  0  0  0  0  0  0  0  0  0
    6.7166    2.4373  -14.1453 C   0  0  0  0  0  0  0  0  0  0  0  0
    7.6357    3.4701  -14.1878 C   0  0  0  0  0  0  0  0  0  0  0  0
  1  2  1  0
  2  3  1  0
  3  4  1  0
  3  5  2  0
  5  6  1  0
  6  7  2  0
  7  8  1  0
  8  9  1  0
  9 10  2  0
  9 11  1  0
 11 12  1  0
 12 33  1  6
 33 34  1  0
 34 35  2  0
 35 36  1  0
 36 37  2  0
 37 38  1  0
 38 39  2  0
 39 40  1  0
 40 41  2  0
 41 42  1  0
 42 43  2  0
 12 13  1  0
 13 14  1  0
 14 15  2  0
 14 17  1  0
 17 18  2  0
 18 19  1  0
 19 20  2  0
 20 23  1  0
 23 24  2  0
 24 25  1  0
 25 26  2  0
 26 27  1  0
 27 28  2  0
 28 29  1  0
 29 30  2  0
 30 31  1  0
 31 32  2  0
 20 21  1  0
 21 22  2  0
 13 16  1  0
 10  5  1  0
 43 34  1  0
 22 17  1  0
 16  8  2  0
 42 37  1  0
 32 23  1  0
 31 26  1  0
M  CHG  1   4  -1
M  END
>  <minimizedAffinity>  (749) 
-16.73574

$$$$
Mol: 134_19 - SminaDock
     RDKit          3D

 39 45  0  0  0  0  0  0  0  0999 V2000
    8.2015    5.2952  -12.5642 C   0  0  0  0  0  0  0  0  0  0  0  0
    7.0142    4.9410  -11.9851 C   0  0  0  0  0  0  0  0  0  0  0  0
    6.3733    3.8273  -12.4684 C   0  0  0  0  0  0  0  0  0  0  0  0
    6.9100    3.0727  -13.5194 C   0  0  0  0  0  0  0  0  0  0  0  0
    8.0998    3.4077  -14.1112 C   0  0  0  0  0  0  0  0  0  0  0  0
    8.7351    4.5466  -13.6050 C   0  0  0  0  0  0  0  0  0  0  0  0
    8.6977    2.5568  -15.1351 C   0  0  1  0  0  0  0  0  0  0  0  0
    7.7078    1.7829  -15.9220 C   0  0  0  0  0  0  0  0  0  0  0  0
    6.5760    1.2903  -15.1560 C   0  0  0  0  0  0  0  0  0  0  0  0
    6.1090    1.9557  -14.0581 C   0  0  0  0  0  0  0  0  0  0  0  0
    5.0092    1.6101  -13.3545 N   0  0  0  0  0  0  0  0  0  0  0  0
    4.3329    0.5488  -13.7506 N   0  0  0  0  0  0  0  0  0  0  0  0
    3.4740    0.2473  -13.2320 H   0  0  0  0  0  0  0  0  0  0  0  0
    4.7371   -0.1640  -14.8289 C   0  0  0  0  0  0  0  0  0  0  0  0
    4.0743   -1.1728  -15.1837 O   0  0  0  0  0  0  0  0  0  0  0  0
    5.8471    0.1688  -15.5577 C   0  0  0  0  0  0  0  0  0  0  0  0
    9.5779    3.3997  -16.0621 C   0  0  0  0  0  0  0  0  0  0  0  0
   10.0195    2.4932  -17.1916 C   0  0  0  0  0  0  0  0  0  0  0  0
   10.7399    1.2804  -16.7222 C   0  0  0  0  0  0  0  0  0  0  0  0
   10.4046    0.7439  -15.3910 C   0  0  0  0  0  0  0  0  0  0  0  0
    9.6856    1.6145  -14.4327 C   0  0  0  0  0  0  0  0  0  0  0  0
   11.2420    7.8328   -6.4726 C   0  0  0  0  0  0  0  0  0  0  0  0
   11.5233    8.8422   -7.3731 C   0  0  0  0  0  0  0  0  0  0  0  0
   11.1120    8.7560   -8.6840 C   0  0  0  0  0  0  0  0  0  0  0  0
   10.4127    7.6793   -9.1547 C   0  0  0  0  0  0  0  0  0  0  0  0
   10.1225    6.6581   -8.2637 C   0  0  0  0  0  0  0  0  0  0  0  0
    9.4177    5.5853   -8.7607 C   0  0  0  0  0  0  0  0  0  0  0  0
    9.0243    5.5243  -10.0548 N   0  0  0  0  0  0  0  0  0  0  0  0
    9.3202    6.5285  -10.8931 C   0  0  0  0  0  0  0  0  0  0  0  0
    8.9363    6.4501  -12.1182 N   0  0  0  0  0  0  0  0  0  0  0  0
   10.0069    7.5916  -10.4428 N   0  0  0  0  0  0  0  0  0  0  0  0
   10.2562    8.3945  -11.0674 H   0  0  0  0  0  0  0  0  0  0  0  0
   10.5364    6.7488   -6.9520 C   0  0  0  0  0  0  0  0  0  0  0  0
   12.4431    7.9591   -2.4107 C   0  0  0  0  0  0  0  0  0  0  0  0
   12.7581    8.9798   -3.2847 C   0  0  0  0  0  0  0  0  0  0  0  0
   12.3674    8.9494   -4.6268 C   0  0  0  0  0  0  0  0  0  0  0  0
   11.6508    7.8716   -5.0819 C   0  0  0  0  0  0  0  0  0  0  0  0
   11.3386    6.8611   -4.2179 C   0  0  0  0  0  0  0  0  0  0  0  0
   11.7216    6.8790   -2.8784 C   0  0  0  0  0  0  0  0  0  0  0  0
 34 35  2  0
 35 36  1  0
 36 37  2  0
 37 22  1  0
 22 23  2  0
 23 24  1  0
 24 25  2  0
 25 26  1  0
 26 27  1  0
 27 28  2  0
 28 29  1  0
 29 30  2  0
 30  1  1  0
  1  2  2  0
  2  3  1  0
  3  4  2  0
  4  5  1  0
  5  6  2  0
  5  7  1  0
  7  8  1  6
  8  9  1  0
  9 10  1  0
 10 11  2  0
 11 12  1  0
 12 13  1  0
 12 14  1  0
 14 15  2  0
 14 16  1  0
  7 17  1  0
 17 18  1  0
 18 19  1  0
 19 20  1  0
 20 21  1  0
 29 31  1  0
 31 32  1  0
 26 33  2  0
 37 38  1  0
 38 39  2  0
 39 34  1  0
 33 22  1  0
 31 25  1  0
  6  1  1  0
 21  7  1  0
 10  4  1  0
 16  9  2  0
M  END
>  <minimizedAffinity>  (750) 
-16.72316

$$$$
Mol: 134_36 - SminaDock
     RDKit          3D

 41 48  0  0  0  0  0  0  0  0999 V2000
    8.4679    5.8238  -12.2797 C   0  0  0  0  0  0  0  0  0  0  0  0
    7.2786    5.4008  -11.7275 C   0  0  0  0  0  0  0  0  0  0  0  0
    6.6107    4.3046  -12.2103 C   0  0  0  0  0  0  0  0  0  0  0  0
    7.1844    3.6277  -13.2902 C   0  0  0  0  0  0  0  0  0  0  0  0
    8.3580    3.9912  -13.8814 C   0  0  0  0  0  0  0  0  0  0  0  0
    8.9823    5.1171  -13.3382 C   0  0  0  0  0  0  0  0  0  0  0  0
    8.9450    3.2181  -14.9576 C   0  0  1  0  0  0  0  0  0  0  0  0
    8.0547    2.2746  -15.6341 C   0  0  0  0  0  0  0  0  0  0  0  0
    6.8946    1.8756  -14.8947 N   0  0  0  0  0  0  0  0  0  0  0  0
    6.4133    2.4971  -13.8311 C   0  0  0  0  0  0  0  0  0  0  0  0
    5.2627    1.9097  -13.3804 N   0  0  0  0  0  0  0  0  0  0  0  0
    5.0011    0.8732  -14.1843 C   0  0  0  0  0  0  0  0  0  0  0  0
    3.9720   -0.0691  -14.1974 C   0  0  0  0  0  0  0  0  0  0  0  0
    3.9955   -1.0296  -15.1823 C   0  0  0  0  0  0  0  0  0  0  0  0
    4.9964   -1.0689  -16.1286 C   0  0  0  0  0  0  0  0  0  0  0  0
    6.0131   -0.1077  -16.0854 C   0  0  0  0  0  0  0  0  0  0  0  0
    6.0037    0.8513  -15.1148 C   0  0  0  0  0  0  0  0  0  0  0  0
    9.5345    4.1316  -16.0510 C   0  0  0  0  0  0  0  0  0  0  0  0
   10.3720    3.2332  -16.9363 C   0  0  0  0  0  0  0  0  0  0  0  0
   11.6307    3.0252  -16.2380 N   0  0  0  0  0  0  0  0  0  0  0  0
   12.2033    2.2729  -16.6307 H   0  0  0  0  0  0  0  0  0  0  0  0
   11.4495    2.9715  -14.8076 C   0  0  0  0  0  0  0  0  0  0  0  0
   10.1250    2.3865  -14.4147 C   0  0  0  0  0  0  0  0  0  0  0  0
   11.2790    7.9566   -6.0148 C   0  0  0  0  0  0  0  0  0  0  0  0
   11.5774    9.0293   -6.8389 C   0  0  0  0  0  0  0  0  0  0  0  0
   11.2127    9.0468   -8.1686 C   0  0  0  0  0  0  0  0  0  0  0  0
   10.5299    7.9925   -8.7466 C   0  0  0  0  0  0  0  0  0  0  0  0
   10.2258    6.9093   -7.9244 C   0  0  0  0  0  0  0  0  0  0  0  0
    9.5619    5.8862   -8.4918 N   0  0  0  0  0  0  0  0  0  0  0  0
    9.2180    5.9043   -9.7497 N   0  0  0  0  0  0  0  0  0  0  0  0
    9.5137    6.9491  -10.5338 C   0  0  0  0  0  0  0  0  0  0  0  0
    9.1708    6.9651  -11.7831 N   0  0  0  0  0  0  0  0  0  0  0  0
   10.1742    8.0037  -10.0345 N   0  0  0  0  0  0  0  0  0  0  0  0
   10.4109    8.8352  -10.6537 H   0  0  0  0  0  0  0  0  0  0  0  0
   10.5986    6.9077   -6.5936 C   0  0  0  0  0  0  0  0  0  0  0  0
   12.4225    8.0006   -1.9598 C   0  0  0  0  0  0  0  0  0  0  0  0
   12.0892    6.7852   -2.5422 C   0  0  0  0  0  0  0  0  0  0  0  0
   11.7173    6.7973   -3.8751 C   0  0  0  0  0  0  0  0  0  0  0  0
   11.6713    7.9556   -4.6180 C   0  0  0  0  0  0  0  0  0  0  0  0
   12.0071    9.1391   -4.0111 C   0  0  0  0  0  0  0  0  0  0  0  0
   12.3826    9.1717   -2.6873 C   0  0  0  0  0  0  0  0  0  0  0  0
 36 37  2  0
 37 38  1  0
 38 39  2  0
 39 24  1  0
 24 25  2  0
 25 26  1  0
 26 27  2  0
 27 28  1  0
 28 29  1  0
 29 30  2  0
 30 31  1  0
 31 32  2  0
 32  1  1  0
  1  2  2  0
  2  3  1  0
  3  4  2  0
  4  5  1  0
  5  6  2  0
  5  7  1  0
  7  8  1  6
  8  9  1  0
  9 10  1  0
 10 11  2  0
 11 12  1  0
 12 13  2  0
 13 14  1  0
 14 15  2  0
 15 16  1  0
 16 17  2  0
  7 18  1  0
 18 19  1  0
 19 20  1  0
 20 21  1  0
 20 22  1  0
 22 23  1  0
 31 33  1  0
 33 34  1  0
 28 35  2  0
 39 40  1  0
 40 41  2  0
 41 36  1  0
 35 24  1  0
 33 27  1  0
  6  1  1  0
 23  7  1  0
 10  4  1  0
 17 12  1  0
 17  9  1  0
M  END
>  <minimizedAffinity>  (751) 
-16.66506

$$$$
Mol: 188_48 - SminaDock
     RDKit          3D

 38 44  0  0  0  0  0  0  0  0999 V2000
    8.4038    5.7233  -12.2080 C   0  0  0  0  0  0  0  0  0  0  0  0
    7.1540    5.3723  -11.7427 C   0  0  0  0  0  0  0  0  0  0  0  0
    6.4413    4.2722  -12.2049 C   0  0  0  0  0  0  0  0  0  0  0  0
    7.0219    3.4969  -13.1796 C   0  0  0  0  0  0  0  0  0  0  0  0
    8.2883    3.8345  -13.6700 C   0  0  0  0  0  0  0  0  0  0  0  0
    8.9642    4.9328  -13.1850 C   0  0  0  0  0  0  0  0  0  0  0  0
    8.8997    3.0830  -14.7785 C   0  0  0  0  0  0  0  0  0  0  0  0
    8.4555    1.6672  -14.7227 C   0  0  0  0  0  0  0  0  0  0  0  0
    7.0246    1.4428  -14.5485 C   0  0  0  0  0  0  0  0  0  0  0  0
    6.3660    2.2828  -13.6313 C   0  0  0  0  0  0  0  0  0  0  0  0
    5.0457    2.0268  -13.2928 C   0  0  0  0  0  0  0  0  0  0  0  0
    4.3765    0.9604  -13.8537 C   0  0  0  0  0  0  0  0  0  0  0  0
    5.0319    0.1577  -14.7497 C   0  0  0  0  0  0  0  0  0  0  0  0
    4.3547   -0.9208  -15.3341 C   0  0  0  0  0  0  0  0  0  0  0  0
    5.0042   -1.7230  -16.2409 C   0  0  0  0  0  0  0  0  0  0  0  0
    6.2956   -1.4954  -16.5883 N   0  0  0  0  0  0  0  0  0  0  0  0
    6.7213   -2.1450  -17.2821 H   0  0  0  0  0  0  0  0  0  0  0  0
    6.9655   -0.4606  -16.0353 C   0  0  0  0  0  0  0  0  0  0  0  0
    8.1321   -0.3032  -16.3914 O   0  0  0  0  0  0  0  0  0  0  0  0
    6.3650    0.3641  -15.1289 C   0  0  0  0  0  0  0  0  0  0  0  0
   11.3165    8.0120   -5.9889 C   0  0  0  0  0  0  0  0  0  0  0  0
   11.6398    9.0507   -6.8415 C   0  0  0  0  0  0  0  0  0  0  0  0
   11.2651    9.0252   -8.1703 C   0  0  0  0  0  0  0  0  0  0  0  0
   10.5492    7.9488   -8.6883 C   0  0  0  0  0  0  0  0  0  0  0  0
   10.1744    7.8960   -9.9636 N   0  0  0  0  0  0  0  0  0  0  0  0
    9.4752    6.8571  -10.4945 C   0  0  0  0  0  0  0  0  0  0  0  0
    9.1324    6.8460  -11.7344 N   0  0  0  0  0  0  0  0  0  0  0  0
    9.1678    5.8553   -9.6557 N   0  0  0  0  0  0  0  0  0  0  0  0
    8.6217    5.0314  -10.0445 H   0  0  0  0  0  0  0  0  0  0  0  0
    9.5236    5.8557   -8.3468 C   0  0  0  0  0  0  0  0  0  0  0  0
   10.2276    6.9143   -7.8377 C   0  0  0  0  0  0  0  0  0  0  0  0
   10.6135    6.9547   -6.4968 C   0  0  0  0  0  0  0  0  0  0  0  0
   12.4385    7.9797   -1.8598 C   0  0  0  0  0  0  0  0  0  0  0  0
   12.4109    9.1651   -2.5633 C   0  0  0  0  0  0  0  0  0  0  0  0
   12.0441    9.1734   -3.9125 C   0  0  0  0  0  0  0  0  0  0  0  0
   11.7047    8.0160   -4.5688 C   0  0  0  0  0  0  0  0  0  0  0  0
   11.7337    6.8357   -3.8624 C   0  0  0  0  0  0  0  0  0  0  0  0
   12.0979    6.8105   -2.5145 C   0  0  0  0  0  0  0  0  0  0  0  0
 33 34  2  0
 34 35  1  0
 35 36  2  0
 36 21  1  0
 21 22  1  0
 22 23  2  0
 23 24  1  0
 24 25  2  0
 25 26  1  0
 26 27  2  0
 27  1  1  0
  1  2  2  0
  2  3  1  0
  3  4  2  0
  4  5  1  0
  5  6  2  0
  5  7  1  0
  7  8  1  0
  8  9  1  0
  9 10  2  0
 10 11  1  0
 11 12  2  0
 12 13  1  0
 13 14  1  0
 14 15  2  0
 15 16  1  0
 16 17  1  0
 16 18  1  0
 18 19  2  0
 18 20  1  0
 26 28  1  0
 28 29  1  0
 28 30  1  0
 30 31  2  0
 31 32  1  0
 36 37  1  0
 37 38  2  0
 38 33  1  0
 32 21  2  0
 31 24  1  0
  6  1  1  0
 20  9  1  0
 10  4  1  0
 20 13  2  0
M  END
>  <minimizedAffinity>  (752) 
-16.70680

$$$$
Mol: 119_12 - SminaDock
     RDKit          3D

 41 47  0  0  0  0  0  0  0  0999 V2000
    8.4881    5.4520  -12.4589 C   0  0  0  0  0  0  0  0  0  0  0  0
    7.2973    5.0983  -11.9409 C   0  0  0  0  0  0  0  0  0  0  0  0
    6.5194    4.0099  -12.4132 C   0  0  0  0  0  0  0  0  0  0  0  0
    5.2986    3.8110  -11.7785 N   0  0  0  0  0  0  0  0  0  0  0  0
    5.2185    3.2759  -10.8702 H   0  0  0  0  0  0  0  0  0  0  0  0
    4.4003    4.2299  -12.1593 H   0  0  0  0  0  0  0  0  0  0  0  0
    7.0213    3.2905  -13.4501 C   0  0  0  0  0  0  0  0  0  0  0  0
    8.2594    3.6415  -14.0032 C   0  0  0  0  0  0  0  0  0  0  0  0
    8.9837    4.7225  -13.5021 C   0  0  0  0  0  0  0  0  0  0  0  0
    8.8495    2.8188  -15.0773 C   0  0  1  0  0  0  0  0  0  0  0  0
    7.8725    2.0682  -15.8774 C   0  0  0  0  0  0  0  0  0  0  0  0
    6.7111    1.5419  -15.1534 C   0  0  0  0  0  0  0  0  0  0  0  0
    6.0615    0.4539  -15.6388 N   0  0  0  0  0  0  0  0  0  0  0  0
    4.9595    0.0045  -15.0621 C   0  0  0  0  0  0  0  0  0  0  0  0
    4.3534   -1.0182  -15.5226 O   0  0  0  0  0  0  0  0  0  0  0  0
    4.4439    0.6340  -13.9502 C   0  0  0  0  0  0  0  0  0  0  0  0
    5.0761    1.7441  -13.4233 C   0  0  0  0  0  0  0  0  0  0  0  0
    6.2234    2.1984  -14.0360 C   0  0  0  0  0  0  0  0  0  0  0  0
    9.7310    3.6675  -15.9952 C   0  0  0  0  0  0  0  0  0  0  0  0
   11.1337    3.1105  -16.0216 C   0  0  0  0  0  0  0  0  0  0  0  0
   11.1392    1.7586  -16.3751 O   0  0  0  0  0  0  0  0  0  0  0  0
   10.5762    1.0133  -15.3428 C   0  0  0  0  0  0  0  0  0  0  0  0
    9.7546    1.8037  -14.3851 C   0  0  0  0  0  0  0  0  0  0  0  0
   11.3196    7.9104   -6.2600 C   0  0  0  0  0  0  0  0  0  0  0  0
   11.6675    8.8730   -7.1512 C   0  0  0  0  0  0  0  0  0  0  0  0
   11.3160    8.7860   -8.4711 C   0  0  0  0  0  0  0  0  0  0  0  0
   10.5980    7.7035   -8.8990 C   0  0  0  0  0  0  0  0  0  0  0  0
   10.2522    7.6271  -10.2090 N   0  0  0  0  0  0  0  0  0  0  0  0
    9.5516    6.6057  -10.7058 C   0  0  0  0  0  0  0  0  0  0  0  0
    9.2482    6.5697  -11.9448 N   0  0  0  0  0  0  0  0  0  0  0  0
    9.1798    5.6212   -9.8641 N   0  0  0  0  0  0  0  0  0  0  0  0
    8.6335    4.7939  -10.1729 H   0  0  0  0  0  0  0  0  0  0  0  0
    9.5042    5.6572   -8.5429 C   0  0  0  0  0  0  0  0  0  0  0  0
   10.2247    6.7122   -8.0453 C   0  0  0  0  0  0  0  0  0  0  0  0
   10.5891    6.8195   -6.7217 C   0  0  0  0  0  0  0  0  0  0  0  0
   12.4207    8.1340   -2.1531 C   0  0  0  0  0  0  0  0  0  0  0  0
   12.4511    9.2724   -2.9443 C   0  0  0  0  0  0  0  0  0  0  0  0
   12.0946    9.2186   -4.2869 C   0  0  0  0  0  0  0  0  0  0  0  0
   11.7015    8.0255   -4.8617 C   0  0  0  0  0  0  0  0  0  0  0  0
   11.6662    6.8843   -4.0876 C   0  0  0  0  0  0  0  0  0  0  0  0
   12.0288    6.9572   -2.7382 C   0  0  0  0  0  0  0  0  0  0  0  0
 36 37  2  0
 37 38  1  0
 38 39  2  0
 39 24  1  0
 24 25  1  0
 25 26  2  0
 26 27  1  0
 27 28  2  0
 28 29  1  0
 29 30  2  0
 30  1  1  0
  1  2  2  0
  2  3  1  0
  3  4  1  0
  4  5  1  0
  4  6  1  0
  3  7  2  0
  7  8  1  0
  8  9  2  0
  8 10  1  0
 10 11  1  6
 11 12  1  0
 12 13  1  0
 13 14  1  0
 14 15  2  0
 14 16  1  0
 16 17  2  0
 17 18  1  0
 10 19  1  0
 19 20  1  0
 20 21  1  0
 21 22  1  0
 22 23  1  0
 29 31  1  0
 31 32  1  0
 31 33  1  0
 33 34  2  0
 34 35  1  0
 39 40  1  0
 40 41  2  0
 41 36  1  0
 35 24  2  0
 34 27  1  0
  9  1  1  0
 23 10  1  0
 18  7  1  0
 18 12  2  0
M  CHG  1  13  -1
M  END
>  <minimizedAffinity>  (753) 
-16.72923

$$$$
Mol: 119_43 - SminaDock
     RDKit          3D

 39 45  0  0  0  0  0  0  0  0999 V2000
    8.0281    4.9215  -12.9810 C   0  0  0  0  0  0  0  0  0  0  0  0
    6.7862    5.0869  -12.4295 C   0  0  0  0  0  0  0  0  0  0  0  0
    5.8239    4.1025  -12.4820 C   0  0  0  0  0  0  0  0  0  0  0  0
    6.1051    2.8752  -13.1204 C   0  0  0  0  0  0  0  0  0  0  0  0
    7.3336    2.7054  -13.6693 C   0  0  0  0  0  0  0  0  0  0  0  0
    8.2942    3.7253  -13.6001 C   0  0  0  0  0  0  0  0  0  0  0  0
    7.8514    1.5470  -14.3725 C   0  0  1  0  0  0  0  0  0  0  0  0
    7.2691    1.3639  -15.7864 C   0  0  0  0  0  0  0  0  0  0  0  0
    8.2063    0.2804  -16.2592 C   0  0  0  0  0  0  0  0  0  0  0  0
    7.9685   -0.4814  -17.2175 O   0  0  0  0  0  0  0  0  0  0  0  0
    9.3615    0.2711  -15.4627 N   0  0  0  0  0  0  0  0  0  0  0  0
   10.0941   -0.4218  -15.3781 H   0  0  0  0  0  0  0  0  0  0  0  0
    9.3033    1.5449  -14.7232 C   0  0  0  0  0  0  0  0  0  0  0  0
    7.4961    0.2364  -13.6605 C   0  0  0  0  0  0  0  0  0  0  0  0
    6.0475   -0.0105  -14.0081 C   0  0  0  0  0  0  0  0  0  0  0  0
    5.8653   -1.1757  -14.6979 C   0  0  0  0  0  0  0  0  0  0  0  0
    4.6081   -1.5592  -15.1108 C   0  0  0  0  0  0  0  0  0  0  0  0
    3.5189   -0.7655  -14.8291 C   0  0  0  0  0  0  0  0  0  0  0  0
    3.6727    0.4071  -14.1390 C   0  0  0  0  0  0  0  0  0  0  0  0
    4.9576    0.7765  -13.7296 C   0  0  0  0  0  0  0  0  0  0  0  0
    4.9019    2.0380  -13.0003 C   0  0  0  0  0  0  0  0  0  0  0  0
   10.8094    7.2819   -7.1022 C   0  0  0  0  0  0  0  0  0  0  0  0
    9.8467    6.2937   -7.0986 C   0  0  0  0  0  0  0  0  0  0  0  0
    9.2899    5.8204   -8.2725 C   0  0  0  0  0  0  0  0  0  0  0  0
    9.6779    6.3209   -9.4954 C   0  0  0  0  0  0  0  0  0  0  0  0
    9.1443    5.8717  -10.6681 N   0  0  0  0  0  0  0  0  0  0  0  0
    9.5269    6.3635  -11.8486 C   0  0  0  0  0  0  0  0  0  0  0  0
    9.0081    5.9222  -12.9282 N   0  0  0  0  0  0  0  0  0  0  0  0
   10.4565    7.3204  -11.8857 N   0  0  0  0  0  0  0  0  0  0  0  0
   10.7872    7.7363  -12.7962 H   0  0  0  0  0  0  0  0  0  0  0  0
   11.0227    7.8054  -10.7420 C   0  0  0  0  0  0  0  0  0  0  0  0
   10.6380    7.3080   -9.5187 C   0  0  0  0  0  0  0  0  0  0  0  0
   11.1970    7.7821   -8.3279 C   0  0  0  0  0  0  0  0  0  0  0  0
   12.4477    8.5587   -3.4391 C   0  0  0  0  0  0  0  0  0  0  0  0
   12.5353    9.3837   -4.5447 C   0  0  0  0  0  0  0  0  0  0  0  0
   12.0140    9.0085   -5.7642 C   0  0  0  0  0  0  0  0  0  0  0  0
   11.3986    7.7831   -5.8586 C   0  0  0  0  0  0  0  0  0  0  0  0
   11.3164    6.9667   -4.7483 C   0  0  0  0  0  0  0  0  0  0  0  0
   11.8303    7.3264   -3.5288 C   0  0  0  0  0  0  0  0  0  0  0  0
 34 35  2  0
 35 36  1  0
 36 37  2  0
 37 22  1  0
 22 23  1  0
 23 24  2  0
 24 25  1  0
 25 26  2  0
 26 27  1  0
 27 28  2  0
 28  1  1  0
  1  2  2  0
  2  3  1  0
  3  4  2  0
  4  5  1  0
  5  6  2  0
  5  7  1  0
  7  8  1  6
  8  9  1  0
  9 10  2  0
  9 11  1  0
 11 12  1  0
 11 13  1  0
  7 14  1  0
 14 15  1  0
 15 16  2  0
 16 17  1  0
 17 18  2  0
 18 19  1  0
 19 20  2  0
 20 21  1  0
 27 29  1  0
 29 30  1  0
 29 31  1  0
 31 32  2  0
 32 33  1  0
 37 38  1  0
 38 39  2  0
 39 34  1  0
 33 22  2  0
 32 25  1  0
  6  1  1  0
 13  7  1  0
 20 15  1  0
 21  4  1  0
M  END
>  <minimizedAffinity>  (754) 
-16.69739

$$$$
Mol: 164_14 - SminaDock
     RDKit          3D

 38 44  0  0  0  0  0  0  0  0999 V2000
    3.4514   -0.5093  -14.5227 C   0  0  0  0  0  0  0  0  0  0  0  0
    4.2209   -1.2570  -15.3684 N   0  0  0  0  0  0  0  0  0  0  0  0
    5.4912   -0.9381  -15.6514 C   0  0  0  0  0  0  0  0  0  0  0  0
    6.0982    0.1736  -15.0991 C   0  0  0  0  0  0  0  0  0  0  0  0
    5.3267    0.9255  -14.2495 C   0  0  0  0  0  0  0  0  0  0  0  0
    4.0234    0.6076  -13.9524 C   0  0  0  0  0  0  0  0  0  0  0  0
    5.9161    2.0625  -13.6695 C   0  0  0  0  0  0  0  0  0  0  0  0
    7.2212    2.3819  -13.9646 C   0  0  0  0  0  0  0  0  0  0  0  0
    7.9640    1.5895  -14.8308 C   0  0  0  0  0  0  0  0  0  0  0  0
    9.1406    1.7790  -15.1667 O   0  0  0  0  0  0  0  0  0  0  0  0
    7.3684    0.5102  -15.3666 N   0  0  0  0  0  0  0  0  0  0  0  0
    7.8857   -0.1037  -16.0145 H   0  0  0  0  0  0  0  0  0  0  0  0
    7.8072    3.5864  -13.3737 C   0  0  0  0  0  0  0  0  0  0  0  0
    9.1034    3.9061  -13.6238 C   0  0  0  0  0  0  0  0  0  0  0  0
    9.6564    5.0539  -13.0208 C   0  0  0  0  0  0  0  0  0  0  0  0
    8.8743    5.8185  -12.1981 C   0  0  0  0  0  0  0  0  0  0  0  0
    7.5634    5.5132  -11.9331 C   0  0  0  0  0  0  0  0  0  0  0  0
    7.0123    4.3733  -12.5318 C   0  0  0  0  0  0  0  0  0  0  0  0
    5.5951    4.1105  -12.2353 C   0  0  0  0  0  0  0  0  0  0  0  0
    5.0955    2.8306  -12.7563 C   0  0  0  0  0  0  0  0  0  0  0  0
    9.4285    6.9771  -11.5888 N   0  0  0  0  0  0  0  0  0  0  0  0
    9.7550    6.9472  -10.3490 C   0  0  0  0  0  0  0  0  0  0  0  0
   10.2779    8.0771   -9.8196 N   0  0  0  0  0  0  0  0  0  0  0  0
   10.6516    8.1421   -8.5241 C   0  0  0  0  0  0  0  0  0  0  0  0
   11.1864    9.2750   -7.9536 C   0  0  0  0  0  0  0  0  0  0  0  0
   11.5550    9.2847   -6.6080 C   0  0  0  0  0  0  0  0  0  0  0  0
   11.3941    8.1658   -5.8180 C   0  0  0  0  0  0  0  0  0  0  0  0
   10.8539    7.0463   -6.4249 C   0  0  0  0  0  0  0  0  0  0  0  0
   10.4830    7.0104   -7.7470 C   0  0  0  0  0  0  0  0  0  0  0  0
    9.9425    5.8713   -8.3300 C   0  0  0  0  0  0  0  0  0  0  0  0
    9.5764    5.8256   -9.6216 N   0  0  0  0  0  0  0  0  0  0  0  0
    9.1723    4.9574  -10.0373 H   0  0  0  0  0  0  0  0  0  0  0  0
   11.7629    8.1241   -4.4071 C   0  0  0  0  0  0  0  0  0  0  0  0
   12.1201    9.2542   -3.7084 C   0  0  0  0  0  0  0  0  0  0  0  0
   12.4673    9.1874   -2.3654 C   0  0  0  0  0  0  0  0  0  0  0  0
   12.4683    7.9917   -1.6808 C   0  0  0  0  0  0  0  0  0  0  0  0
   12.1096    6.8555   -2.3813 C   0  0  0  0  0  0  0  0  0  0  0  0
   11.7612    6.9133   -3.7238 C   0  0  0  0  0  0  0  0  0  0  0  0
  1  2  2  0
  2  3  1  0
  3  4  2  0
  4  5  1  0
  5  6  2  0
  5  7  1  0
  7  8  2  0
  8  9  1  0
  9 10  2  0
  9 11  1  0
 11 12  1  0
  8 13  1  0
 13 14  2  0
 14 15  1  0
 15 16  2  0
 16 21  1  0
 21 22  2  0
 22 23  1  0
 23 24  2  0
 24 25  1  0
 25 26  2  0
 26 27  1  0
 27 33  1  0
 33 34  2  0
 34 35  1  0
 35 36  2  0
 36 37  1  0
 37 38  2  0
 27 28  2  0
 28 29  1  0
 29 30  2  0
 30 31  1  0
 31 32  1  0
 16 17  1  0
 17 18  2  0
 18 19  1  0
 19 20  1  0
  6  1  1  0
 20  7  1  0
 11  4  1  0
 18 13  1  0
 31 22  1  0
 29 24  1  0
 38 33  1  0
M  END
>  <minimizedAffinity>  (755) 
-16.71687

$$$$
Mol: 131_2 - SminaDock
     RDKit          3D

 40 46  0  0  0  0  0  0  0  0999 V2000
    4.4090   -0.6438  -14.7244 C   0  0  0  0  0  0  0  0  0  0  0  0
    4.5203   -0.1200  -13.4736 N   0  0  0  0  0  0  0  0  0  0  0  0
    5.3114    0.9310  -13.2167 C   0  0  0  0  0  0  0  0  0  0  0  0
    6.0124    1.4723  -14.2592 C   0  0  0  0  0  0  0  0  0  0  0  0
    5.9191    0.9527  -15.5533 C   0  0  0  0  0  0  0  0  0  0  0  0
    5.1097   -0.1134  -15.7871 C   0  0  0  0  0  0  0  0  0  0  0  0
    6.6478    1.3947  -16.7528 C   0  0  0  0  0  0  0  0  0  0  0  0
    6.1152    1.1394  -17.8413 O   0  0  0  0  0  0  0  0  0  0  0  0
    7.8995    2.0789  -16.6792 N   0  0  0  0  0  0  0  0  0  0  0  0
    8.2604    2.3737  -17.6035 H   0  0  0  0  0  0  0  0  0  0  0  0
    8.7512    2.4311  -15.5573 C   0  0  2  0  0  0  0  0  0  0  0  0
    8.0416    3.0067  -14.4353 C   0  0  0  0  0  0  0  0  0  0  0  0
    8.6495    4.1014  -13.8847 C   0  0  0  0  0  0  0  0  0  0  0  0
    8.0965    4.8183  -12.8111 C   0  0  0  0  0  0  0  0  0  0  0  0
    6.8993    4.3756  -12.3216 C   0  0  0  0  0  0  0  0  0  0  0  0
    6.2264    3.2807  -12.8232 C   0  0  0  0  0  0  0  0  0  0  0  0
    6.8013    2.6102  -13.8663 C   0  0  0  0  0  0  0  0  0  0  0  0
    9.8162    3.3383  -16.0984 C   0  0  0  0  0  0  0  0  0  0  0  0
   11.1840    3.0024  -15.5456 C   0  0  0  0  0  0  0  0  0  0  0  0
   11.5718    1.8208  -16.1986 O   0  0  0  0  0  0  0  0  0  0  0  0
   10.5728    0.8761  -16.1628 C   0  0  0  0  0  0  0  0  0  0  0  0
    9.4915    1.1404  -15.1493 C   0  0  0  0  0  0  0  0  0  0  0  0
    8.7899    5.9384  -12.2967 N   0  0  0  0  0  0  0  0  0  0  0  0
    9.1691    6.0842  -11.0994 C   0  0  0  0  0  0  0  0  0  0  0  0
    9.8220    7.2122  -10.7598 N   0  0  0  0  0  0  0  0  0  0  0  0
   10.2533    7.4278   -9.4949 C   0  0  0  0  0  0  0  0  0  0  0  0
   10.9250    8.5707   -9.1135 C   0  0  0  0  0  0  0  0  0  0  0  0
   11.3417    8.7332   -7.8051 C   0  0  0  0  0  0  0  0  0  0  0  0
   11.0906    7.7461   -6.8486 C   0  0  0  0  0  0  0  0  0  0  0  0
   10.4159    6.6284   -7.2910 C   0  0  0  0  0  0  0  0  0  0  0  0
    9.9853    6.4288   -8.5813 C   0  0  0  0  0  0  0  0  0  0  0  0
    9.3254    5.3081   -8.9626 N   0  0  0  0  0  0  0  0  0  0  0  0
    8.9120    5.1158  -10.2031 N   0  0  0  0  0  0  0  0  0  0  0  0
    8.4001    4.2307  -10.4673 H   0  0  0  0  0  0  0  0  0  0  0  0
   11.5178    7.8986   -5.4846 C   0  0  0  0  0  0  0  0  0  0  0  0
   11.3435    6.8391   -4.5984 C   0  0  0  0  0  0  0  0  0  0  0  0
   11.7447    6.9626   -3.2863 C   0  0  0  0  0  0  0  0  0  0  0  0
   12.3221    8.1197   -2.8150 C   0  0  0  0  0  0  0  0  0  0  0  0
   12.4789    9.1488   -3.7214 C   0  0  0  0  0  0  0  0  0  0  0  0
   12.0907    9.0627   -5.0394 C   0  0  0  0  0  0  0  0  0  0  0  0
  1  2  2  0
  2  3  1  0
  3  4  2  0
  4  5  1  0
  5  6  2  0
  5  7  1  0
  7  8  2  0
  7  9  1  0
  9 10  1  0
  9 11  1  0
 11 12  1  0
 12 13  2  0
 13 14  1  0
 14 23  1  0
 23 24  2  0
 24 25  1  0
 25 26  2  0
 26 27  1  0
 27 28  2  0
 28 29  1  0
 29 35  1  0
 35 36  2  0
 36 37  1  0
 37 38  2  0
 38 39  1  0
 39 40  2  0
 29 30  2  0
 30 31  1  0
 31 32  2  0
 32 33  1  0
 33 34  1  0
 14 15  2  0
 15 16  1  0
 16 17  2  0
 11 18  1  6
 18 19  1  0
 19 20  1  0
 20 21  1  0
 21 22  1  0
  6  1  1  0
 22 11  1  0
 17  4  1  0
 17 12  1  0
 33 24  1  0
 31 26  1  0
 40 35  1  0
M  END
>  <minimizedAffinity>  (756) 
-16.74434

$$$$
Mol: 129_48 - SminaDock
     RDKit          3D

 42 49  0  0  0  0  0  0  0  0999 V2000
    8.7035    5.8117  -12.4375 C   0  0  0  0  0  0  0  0  0  0  0  0
    7.5327    5.3412  -11.8902 C   0  0  0  0  0  0  0  0  0  0  0  0
    6.9076    4.1973  -12.4057 C   0  0  0  0  0  0  0  0  0  0  0  0
    7.4884    3.5546  -13.4630 C   0  0  0  0  0  0  0  0  0  0  0  0
    8.6797    4.0426  -14.0090 C   0  0  0  0  0  0  0  0  0  0  0  0
    9.2639    5.1580  -13.4920 C   0  0  0  0  0  0  0  0  0  0  0  0
    9.3201    3.2486  -15.0826 C   0  0  2  0  0  0  0  0  0  0  0  0
    8.3151    2.7999  -16.0778 C   0  0  0  0  0  0  0  0  0  0  0  0
    7.2455    2.0246  -15.4069 C   0  0  0  0  0  0  0  0  0  0  0  0
    6.6847    0.9343  -16.0213 C   0  0  0  0  0  0  0  0  0  0  0  0
    5.6332    0.2892  -15.4333 C   0  0  0  0  0  0  0  0  0  0  0  0
    5.1629    0.7451  -14.2377 C   0  0  0  0  0  0  0  0  0  0  0  0
    5.7075    1.8600  -13.5600 C   0  0  0  0  0  0  0  0  0  0  0  0
    5.2153    2.1697  -12.2184 C   0  0  0  0  0  0  0  0  0  0  0  0
    6.7609    2.4954  -14.1728 C   0  0  0  0  0  0  0  0  0  0  0  0
    4.0941   -0.0592  -13.8334 O   0  0  0  0  0  0  0  0  0  0  0  0
    3.6633   -0.7383  -15.0225 C   0  0  0  0  0  0  0  0  0  0  0  0
    4.8585   -0.8051  -15.7756 O   0  0  0  0  0  0  0  0  0  0  0  0
    9.9812    1.9943  -14.5284 C   0  0  0  0  0  0  0  0  0  0  0  0
   10.9511    1.6608  -15.6413 C   0  0  0  0  0  0  0  0  0  0  0  0
   11.1121    2.8317  -16.4594 N   0  0  2  0  0  0  0  0  0  0  0  0
   10.6791    2.8019  -17.3842 H   0  0  0  0  0  0  0  0  0  0  0  0
   12.1400    3.0084  -16.5662 H   0  0  0  0  0  0  0  0  0  0  0  0
   10.5131    3.9330  -15.7016 C   0  0  0  0  0  0  0  0  0  0  0  0
   11.3350    8.1383   -6.1421 C   0  0  0  0  0  0  0  0  0  0  0  0
   10.7039    7.0897   -6.7359 N   0  0  0  0  0  0  0  0  0  0  0  0
   10.3745    7.0725   -8.0354 C   0  0  0  0  0  0  0  0  0  0  0  0
    9.7306    5.9736   -8.5873 C   0  0  0  0  0  0  0  0  0  0  0  0
    9.4024    5.9709   -9.9092 N   0  0  0  0  0  0  0  0  0  0  0  0
    8.9132    5.1121  -10.2840 H   0  0  0  0  0  0  0  0  0  0  0  0
    9.6870    7.0109  -10.6998 C   0  0  0  0  0  0  0  0  0  0  0  0
    9.3603    6.9662  -11.9372 N   0  0  0  0  0  0  0  0  0  0  0  0
   10.3106    8.0701  -10.1558 N   0  0  0  0  0  0  0  0  0  0  0  0
   10.6590    8.1338   -8.8663 C   0  0  0  0  0  0  0  0  0  0  0  0
   11.2974    9.2106   -8.2950 C   0  0  0  0  0  0  0  0  0  0  0  0
   11.6360    9.2139   -6.9325 C   0  0  0  0  0  0  0  0  0  0  0  0
   12.2800    7.9039   -2.0162 C   0  0  0  0  0  0  0  0  0  0  0  0
   12.3569    9.1177   -2.6510 C   0  0  0  0  0  0  0  0  0  0  0  0
   12.0473    9.2018   -4.0081 C   0  0  0  0  0  0  0  0  0  0  0  0
   11.6682    8.0984   -4.7206 C   0  0  0  0  0  0  0  0  0  0  0  0
   11.6070    6.8952   -4.0291 C   0  0  0  0  0  0  0  0  0  0  0  0
   11.9034    6.7761   -2.6993 C   0  0  0  0  0  0  0  0  0  0  0  0
 37 38  2  0
 38 39  1  0
 39 40  2  0
 40 25  1  0
 25 26  2  0
 26 27  1  0
 27 28  2  0
 28 29  1  0
 29 30  1  0
 29 31  1  0
 31 32  2  0
 32  1  1  0
  1  2  2  0
  2  3  1  0
  3  4  2  0
  4  5  1  0
  5  6  2  0
  5  7  1  0
  7  8  1  6
  8  9  1  0
  9 10  2  0
 10 11  1  0
 11 12  2  0
 12 13  1  0
 13 14  1  0
 13 15  2  0
 12 16  1  0
 16 17  1  0
 17 18  1  0
  7 19  1  0
 19 20  1  0
 20 21  1  0
 21 22  1  6
 21 23  1  0
 21 24  1  0
 31 33  1  0
 33 34  2  0
 34 35  1  0
 35 36  2  0
 40 41  1  0
 41 42  2  0
 42 37  1  0
 36 25  1  0
 34 27  1  0
  6  1  1  0
 24  7  1  0
 15  4  1  0
 15  9  1  0
 18 11  1  0
M  CHG  1  21   1
M  END
>  <minimizedAffinity>  (757) 
-16.69517

$$$$
Mol: 130_9 - SminaDock
     RDKit          3D

 42 48  0  0  0  0  0  0  0  0999 V2000
    8.5380    5.6155  -12.5969 C   0  0  0  0  0  0  0  0  0  0  0  0
    7.3685    5.1533  -12.0378 C   0  0  0  0  0  0  0  0  0  0  0  0
    6.7389    4.0219  -12.5516 C   0  0  0  0  0  0  0  0  0  0  0  0
    7.2788    3.3449  -13.6318 C   0  0  0  0  0  0  0  0  0  0  0  0
    8.4450    3.8188  -14.1763 C   0  0  0  0  0  0  0  0  0  0  0  0
    9.0771    4.9771  -13.6401 C   0  0  0  0  0  0  0  0  0  0  0  0
    9.0987    3.1596  -15.2894 C   0  0  1  0  0  0  0  0  0  0  0  0
    9.6645    4.1206  -16.2922 C   0  0  0  0  0  0  0  0  0  0  0  0
    9.4323    5.3241  -16.3760 O   0  0  0  0  0  0  0  0  0  0  0  0
   10.5650    3.5622  -17.2430 N   0  0  0  0  0  0  0  0  0  0  0  0
   10.6748    3.9242  -18.2219 H   0  0  0  0  0  0  0  0  0  0  0  0
   11.3985    2.4429  -16.9135 C   0  0  0  0  0  0  0  0  0  0  0  0
   12.1935    1.9496  -17.7550 O   0  0  0  0  0  0  0  0  0  0  0  0
   11.2627    1.9435  -15.5954 N   0  0  0  0  0  0  0  0  0  0  0  0
   11.8459    1.1167  -15.2720 H   0  0  0  0  0  0  0  0  0  0  0  0
   10.3547    2.5369  -14.6922 C   0  0  0  0  0  0  0  0  0  0  0  0
   10.5707    2.5526  -13.4444 O   0  0  0  0  0  0  0  0  0  0  0  0
    8.3749    2.0604  -15.9235 C   0  0  0  0  0  0  0  0  0  0  0  0
    7.1625    1.5750  -15.2466 C   0  0  0  0  0  0  0  0  0  0  0  0
    6.5217    0.4221  -15.7547 C   0  0  0  0  0  0  0  0  0  0  0  0
    5.3754   -0.0524  -15.1745 C   0  0  0  0  0  0  0  0  0  0  0  0
    4.7933    0.5512  -14.0875 C   0  0  0  0  0  0  0  0  0  0  0  0
    5.4240    1.6965  -13.5766 C   0  0  0  0  0  0  0  0  0  0  0  0
    6.5555    2.1577  -14.1553 C   0  0  0  0  0  0  0  0  0  0  0  0
   11.2892    7.9197   -6.3803 C   0  0  0  0  0  0  0  0  0  0  0  0
   11.5259    8.9869   -7.2069 C   0  0  0  0  0  0  0  0  0  0  0  0
   11.1544    8.9848   -8.5285 C   0  0  0  0  0  0  0  0  0  0  0  0
   10.5157    7.8561   -9.0388 C   0  0  0  0  0  0  0  0  0  0  0  0
   10.2556    6.7534   -8.2397 C   0  0  0  0  0  0  0  0  0  0  0  0
    9.6413    5.6588   -8.7178 N   0  0  0  0  0  0  0  0  0  0  0  0
    9.2827    5.6781  -10.0284 C   0  0  0  0  0  0  0  0  0  0  0  0
    9.5306    6.7594  -10.8370 C   0  0  0  0  0  0  0  0  0  0  0  0
    9.1881    6.7693  -12.0787 N   0  0  0  0  0  0  0  0  0  0  0  0
   10.1543    7.8565  -10.3294 N   0  0  0  0  0  0  0  0  0  0  0  0
   10.3530    8.6983  -10.9385 H   0  0  0  0  0  0  0  0  0  0  0  0
   10.6570    6.8208   -6.9140 C   0  0  0  0  0  0  0  0  0  0  0  0
   12.4375    7.8978   -2.2537 C   0  0  0  0  0  0  0  0  0  0  0  0
   11.7293    6.8499   -2.8235 C   0  0  0  0  0  0  0  0  0  0  0  0
   11.3675    6.8718   -4.1512 C   0  0  0  0  0  0  0  0  0  0  0  0
   11.6885    7.9238   -4.9664 C   0  0  0  0  0  0  0  0  0  0  0  0
   12.3918    8.9735   -4.4170 C   0  0  0  0  0  0  0  0  0  0  0  0
   12.7559    8.9549   -3.0874 C   0  0  0  0  0  0  0  0  0  0  0  0
 37 38  2  0
 38 39  1  0
 39 40  2  0
 40 25  1  0
 25 26  2  0
 26 27  1  0
 27 28  2  0
 28 29  1  0
 29 30  1  0
 30 31  2  0
 31 32  1  0
 32 33  2  0
 33  1  1  0
  1  2  2  0
  2  3  1  0
  3  4  2  0
  4  5  1  0
  5  6  2  0
  5  7  1  0
  7  8  1  0
  8  9  2  0
  8 10  1  0
 10 11  1  0
 10 12  1  0
 12 13  2  0
 12 14  1  0
 14 15  1  0
 14 16  1  0
 16 17  2  0
  7 18  1  6
 18 19  1  0
 19 20  2  0
 20 21  1  0
 21 22  2  0
 22 23  1  0
 23 24  2  0
 32 34  1  0
 34 35  1  0
 29 36  2  0
 40 41  1  0
 41 42  2  0
 42 37  1  0
 36 25  1  0
 34 28  1  0
  6  1  1  0
 16  7  1  0
 24 19  1  0
 24  4  1  0
M  END
>  <minimizedAffinity>  (758) 
-16.72607

$$$$
Mol: 129_3 - SminaDock
     RDKit          3D

 38 44  0  0  0  0  0  0  0  0999 V2000
    2.2997   -0.4688  -13.8635 H   0  0  0  0  0  0  0  0  0  0  0  0
    3.0031   -1.2028  -14.0390 O   0  0  0  0  0  0  0  0  0  0  0  0
    4.2643   -0.8494  -14.5014 C   0  0  0  0  0  0  0  0  0  0  0  0
    4.8492   -1.5307  -15.5128 N   0  0  0  0  0  0  0  0  0  0  0  0
    6.0548   -1.1999  -15.9614 N   0  0  0  0  0  0  0  0  0  0  0  0
    6.7632   -0.1827  -15.4493 C   0  0  0  0  0  0  0  0  0  0  0  0
    6.2471    0.5530  -14.4300 C   0  0  0  0  0  0  0  0  0  0  0  0
    4.9839    0.2010  -13.9650 C   0  0  0  0  0  0  0  0  0  0  0  0
    6.9266    1.7062  -13.7724 C   0  0  2  0  0  0  0  0  0  0  0  0
    6.2193    2.9923  -14.1407 C   0  0  0  0  0  0  0  0  0  0  0  0
    6.9876    4.1054  -13.5275 C   0  0  0  0  0  0  0  0  0  0  0  0
    6.3597    5.0487  -12.7400 C   0  0  0  0  0  0  0  0  0  0  0  0
    7.1299    6.0780  -12.1878 C   0  0  0  0  0  0  0  0  0  0  0  0
    8.4805    6.1079  -12.4520 C   0  0  0  0  0  0  0  0  0  0  0  0
    9.1027    5.1478  -13.2497 C   0  0  0  0  0  0  0  0  0  0  0  0
    8.3412    4.1346  -13.7925 C   0  0  0  0  0  0  0  0  0  0  0  0
    8.8751    3.0520  -14.6546 C   0  0  0  0  0  0  0  0  0  0  0  0
    8.3956    1.7454  -14.0088 C   0  0  2  0  0  0  0  0  0  0  0  0
    8.9464    0.5774  -14.7738 C   0  0  0  0  0  0  0  0  0  0  0  0
    8.1123    0.1817  -15.9563 C   0  0  0  0  0  0  0  0  0  0  0  0
    9.2653    7.1485  -11.8957 N   0  0  0  0  0  0  0  0  0  0  0  0
    9.5911    7.1311  -10.6465 C   0  0  0  0  0  0  0  0  0  0  0  0
    9.1803    6.1139   -9.8675 N   0  0  0  0  0  0  0  0  0  0  0  0
    9.4804    6.0391   -8.5821 N   0  0  0  0  0  0  0  0  0  0  0  0
   10.2170    6.9836   -7.9845 C   0  0  0  0  0  0  0  0  0  0  0  0
   10.5301    6.9074   -6.6455 C   0  0  0  0  0  0  0  0  0  0  0  0
   11.2870    7.8919   -6.0619 C   0  0  0  0  0  0  0  0  0  0  0  0
   11.7176    8.9451   -6.8486 C   0  0  0  0  0  0  0  0  0  0  0  0
   11.4046    9.0194   -8.1824 C   0  0  0  0  0  0  0  0  0  0  0  0
   10.6454    8.0373   -8.7805 C   0  0  0  0  0  0  0  0  0  0  0  0
   10.3276    8.1004  -10.1053 N   0  0  0  0  0  0  0  0  0  0  0  0
   10.6766    8.9120  -10.6479 H   0  0  0  0  0  0  0  0  0  0  0  0
   11.6672    7.8966   -4.6560 C   0  0  0  0  0  0  0  0  0  0  0  0
   11.6654    6.7491   -3.8911 C   0  0  0  0  0  0  0  0  0  0  0  0
   12.0260    6.7615   -2.5641 C   0  0  0  0  0  0  0  0  0  0  0  0
   12.4076    7.9281   -1.9357 C   0  0  0  0  0  0  0  0  0  0  0  0
   12.4153    9.0854   -2.6856 C   0  0  0  0  0  0  0  0  0  0  0  0
   12.0484    9.0695   -4.0335 C   0  0  0  0  0  0  0  0  0  0  0  0
  1  2  1  0
  2  3  1  0
  3  4  2  0
  4  5  1  0
  5  6  2  0
  6  7  1  0
  7  8  2  0
  7  9  1  0
  9 10  1  6
 10 11  1  0
 11 12  2  0
 12 13  1  0
 13 14  2  0
 14 21  1  0
 21 22  2  0
 22 23  1  0
 23 24  2  0
 24 25  1  0
 25 26  2  0
 26 27  1  0
 27 33  1  0
 33 34  2  0
 34 35  1  0
 35 36  2  0
 36 37  1  0
 37 38  2  0
 27 28  2  0
 28 29  1  0
 29 30  2  0
 30 31  1  0
 31 32  1  0
 14 15  1  0
 15 16  2  0
 16 17  1  0
 18 17  1  6
 18 19  1  0
 19 20  1  0
  8  3  1  0
 18  9  1  0
 20  6  1  0
 16 11  1  0
 31 22  1  0
 30 25  1  0
 38 33  1  0
M  END
>  <minimizedAffinity>  (759) 
-16.68037

$$$$
Mol: 184_43 - SminaDock
     RDKit          3D

 40 47  0  0  0  0  0  0  0  0999 V2000
    7.8160    4.7371  -12.5951 C   0  0  0  0  0  0  0  0  0  0  0  0
    6.5626    4.4650  -12.0889 C   0  0  0  0  0  0  0  0  0  0  0  0
    5.8365    3.3795  -12.5719 C   0  0  0  0  0  0  0  0  0  0  0  0
    6.3563    2.5592  -13.5624 C   0  0  0  0  0  0  0  0  0  0  0  0
    7.5890    2.8143  -14.0692 C   0  0  0  0  0  0  0  0  0  0  0  0
    8.3004    3.8976  -13.5802 C   0  0  0  0  0  0  0  0  0  0  0  0
    7.9284    1.7704  -15.1091 C   0  0  2  0  0  0  0  0  0  0  0  0
    6.7176    0.9390  -15.1771 C   0  0  0  0  0  0  0  0  0  0  0  0
    5.8115    1.3902  -14.2514 C   0  0  0  0  0  0  0  0  0  0  0  0
    4.5685    0.7545  -14.0996 C   0  0  0  0  0  0  0  0  0  0  0  0
    4.2016   -0.3179  -14.8452 C   0  0  0  0  0  0  0  0  0  0  0  0
    5.1102   -0.7807  -15.7853 C   0  0  0  0  0  0  0  0  0  0  0  0
    5.0619   -1.7932  -16.6738 N   0  0  0  0  0  0  0  0  0  0  0  0
    6.1667   -1.8303  -17.3543 N   0  0  0  0  0  0  0  0  0  0  0  0
    6.9866   -0.8323  -16.9307 C   0  0  0  0  0  0  0  0  0  0  0  0
    6.3259   -0.1625  -15.9363 C   0  0  0  0  0  0  0  0  0  0  0  0
    9.1163    1.0466  -14.5598 C   0  0  0  0  0  0  0  0  0  0  0  0
   10.0307    0.4711  -15.5762 C   0  0  0  0  0  0  0  0  0  0  0  0
   10.2422    1.2448  -16.7554 N   0  0  0  0  0  0  0  0  0  0  0  0
    9.9314    0.7086  -17.5925 H   0  0  0  0  0  0  0  0  0  0  0  0
    9.6431    2.5394  -16.7211 C   0  0  0  0  0  0  0  0  0  0  0  0
    8.1846    2.5193  -16.3829 C   0  0  0  0  0  0  0  0  0  0  0  0
   11.1197    7.6699   -6.7498 C   0  0  0  0  0  0  0  0  0  0  0  0
   11.3777    8.5878   -7.7434 C   0  0  0  0  0  0  0  0  0  0  0  0
   10.9103    8.3922   -9.0321 C   0  0  0  0  0  0  0  0  0  0  0  0
   10.1734    7.2705   -9.3515 C   0  0  0  0  0  0  0  0  0  0  0  0
    9.9122    6.3509   -8.3650 C   0  0  0  0  0  0  0  0  0  0  0  0
    9.1742    5.2359   -8.7028 C   0  0  0  0  0  0  0  0  0  0  0  0
    8.7277    5.0718   -9.9816 N   0  0  0  0  0  0  0  0  0  0  0  0
    8.9915    5.9804  -10.9354 C   0  0  0  0  0  0  0  0  0  0  0  0
    8.5739    5.8255  -12.1291 N   0  0  0  0  0  0  0  0  0  0  0  0
    9.7088    7.0642  -10.6078 N   0  0  0  0  0  0  0  0  0  0  0  0
    9.9218    7.7775  -11.3347 H   0  0  0  0  0  0  0  0  0  0  0  0
   10.3850    6.5524   -7.0696 C   0  0  0  0  0  0  0  0  0  0  0  0
   12.4879    8.1178   -2.7328 C   0  0  0  0  0  0  0  0  0  0  0  0
   12.7327    9.1050   -3.6574 C   0  0  0  0  0  0  0  0  0  0  0  0
   12.2932    8.9756   -4.9743 C   0  0  0  0  0  0  0  0  0  0  0  0
   11.5959    7.8467   -5.3898 C   0  0  0  0  0  0  0  0  0  0  0  0
   11.3752    6.8798   -4.4165 C   0  0  0  0  0  0  0  0  0  0  0  0
   11.8053    7.0052   -3.1261 C   0  0  0  0  0  0  0  0  0  0  0  0
 35 36  2  0
 36 37  1  0
 37 38  2  0
 38 23  1  0
 23 24  2  0
 24 25  1  0
 25 26  2  0
 26 27  1  0
 27 28  1  0
 28 29  2  0
 29 30  1  0
 30 31  2  0
 31  1  1  0
  1  2  2  0
  2  3  1  0
  3  4  2  0
  4  5  1  0
  5  6  2  0
  5  7  1  0
  7  8  1  0
  8  9  2  0
  9 10  1  0
 10 11  2  0
 11 12  1  0
 12 13  1  0
 13 14  1  0
 14 15  2  0
 15 16  1  0
  7 17  1  1
 17 18  1  0
 18 19  1  0
 19 20  1  0
 19 21  1  0
 21 22  1  0
 30 32  1  0
 32 33  1  0
 27 34  2  0
 38 39  1  0
 39 40  2  0
 40 35  1  0
 34 23  1  0
 32 26  1  0
  6  1  1  0
 22  7  1  0
  9  4  1  0
 16 12  2  0
 16  8  1  0
M  CHG  1  13  -1
M  END
>  <minimizedAffinity>  (760) 
-16.70748

$$$$
Mol: 185_5 - SminaDock
     RDKit          3D

 43 49  0  0  0  0  0  0  0  0999 V2000
    4.8161   -1.7541  -15.6344 C   0  0  0  0  0  0  0  0  0  0  0  0
    6.0877   -1.5866  -15.9970 N   0  0  0  0  0  0  0  0  0  0  0  0
    6.8145   -0.4897  -15.6030 C   0  0  0  0  0  0  0  0  0  0  0  0
    7.9647   -0.4665  -16.0078 O   0  0  0  0  0  0  0  0  0  0  0  0
    6.2158    0.4423  -14.8251 C   0  0  0  0  0  0  0  0  0  0  0  0
    4.8712    0.2843  -14.4301 C   0  0  0  0  0  0  0  0  0  0  0  0
    4.1794   -0.8307  -14.8478 C   0  0  0  0  0  0  0  0  0  0  0  0
    4.2695    1.2254  -13.6437 C   0  0  0  0  0  0  0  0  0  0  0  0
    4.9286    2.3480  -13.2076 C   0  0  0  0  0  0  0  0  0  0  0  0
    6.2371    2.5148  -13.5838 C   0  0  0  0  0  0  0  0  0  0  0  0
    6.9680    3.6335  -13.1716 C   0  0  0  0  0  0  0  0  0  0  0  0
    6.3889    4.5127  -12.3192 C   0  0  0  0  0  0  0  0  0  0  0  0
    7.1190    5.5931  -11.8099 C   0  0  0  0  0  0  0  0  0  0  0  0
    8.4263    5.7330  -12.1936 C   0  0  0  0  0  0  0  0  0  0  0  0
    9.0140    4.8401  -13.0585 C   0  0  0  0  0  0  0  0  0  0  0  0
    8.3043    3.7595  -13.5838 C   0  0  0  0  0  0  0  0  0  0  0  0
    8.9157    2.8804  -14.3546 N   0  0  0  0  0  0  0  0  0  0  0  0
   10.1297    3.1022  -15.0400 C   0  0  0  0  0  0  0  0  0  0  0  0
   10.8345    2.0500  -15.3735 O   0  0  0  0  0  0  0  0  0  0  0  0
    8.1948    1.7541  -14.7655 C   0  0  0  0  0  0  0  0  0  0  0  0
    8.8555    1.0029  -15.4639 O   0  0  0  0  0  0  0  0  0  0  0  0
    6.9129    1.5775  -14.3954 C   0  0  0  0  0  0  0  0  0  0  0  0
    9.1939    6.8265  -11.6855 N   0  0  0  0  0  0  0  0  0  0  0  0
    9.5458    6.8623  -10.4321 C   0  0  0  0  0  0  0  0  0  0  0  0
    9.1593    5.8197   -9.6099 C   0  0  0  0  0  0  0  0  0  0  0  0
    9.5375    5.8830   -8.3211 N   0  0  0  0  0  0  0  0  0  0  0  0
   10.2626    6.8992   -7.8084 C   0  0  0  0  0  0  0  0  0  0  0  0
   10.6375    6.9329   -6.4692 C   0  0  0  0  0  0  0  0  0  0  0  0
   11.3790    7.9660   -5.9340 C   0  0  0  0  0  0  0  0  0  0  0  0
   11.7416    8.9850   -6.7941 C   0  0  0  0  0  0  0  0  0  0  0  0
   11.3819    8.9756   -8.1288 C   0  0  0  0  0  0  0  0  0  0  0  0
   10.6403    7.9321   -8.6426 C   0  0  0  0  0  0  0  0  0  0  0  0
   10.2696    7.8897   -9.9482 N   0  0  0  0  0  0  0  0  0  0  0  0
   10.5577    8.6822  -10.5938 H   0  0  0  0  0  0  0  0  0  0  0  0
   11.7784    8.0120   -4.5315 C   0  0  0  0  0  0  0  0  0  0  0  0
   11.8084    6.8375   -3.7932 C   0  0  0  0  0  0  0  0  0  0  0  0
   12.1817    6.8450   -2.4647 C   0  0  0  0  0  0  0  0  0  0  0  0
   12.5396    8.0047   -1.8108 C   0  0  0  0  0  0  0  0  0  0  0  0
   12.5127    9.1826   -2.5401 C   0  0  0  0  0  0  0  0  0  0  0  0
   12.1362    9.1701   -3.8769 C   0  0  0  0  0  0  0  0  0  0  0  0
   10.6754    4.3596  -15.4350 C   0  0  0  0  0  0  0  0  0  0  0  0
   10.1844    5.1631  -16.2638 O   0  0  0  0  0  0  0  0  0  0  0  0
   11.9040    4.8281  -14.8779 O   0  0  0  0  0  0  0  0  0  0  0  0
  1  2  1  0
  2  3  1  0
  3  4  2  0
  3  5  1  0
  5  6  2  0
  6  7  1  0
  6  8  1  0
  8  9  2  0
  9 10  1  0
 10 11  1  0
 11 12  2  0
 12 13  1  0
 13 14  2  0
 14 23  1  0
 23 24  2  0
 24 25  1  0
 25 26  2  0
 26 27  1  0
 27 28  2  0
 28 29  1  0
 29 35  1  0
 35 36  2  0
 36 37  1  0
 37 38  2  0
 38 39  1  0
 39 40  2  0
 29 30  2  0
 30 31  1  0
 31 32  2  0
 32 33  1  0
 33 34  1  0
 14 15  1  0
 15 16  2  0
 16 17  1  0
 17 18  1  0
 18 19  2  0
 18 41  1  0
 41 42  2  0
 41 43  1  0
 17 20  1  0
 20 21  2  0
 20 22  1  0
  7  1  2  0
 22 10  2  0
 22  5  1  0
 16 11  1  0
 33 24  1  0
 32 27  1  0
 40 35  1  0
M  CHG  2   2  -1  43  -1
M  END
>  <minimizedAffinity>  (761) 
-16.67716

$$$$
Mol: 185_11 - SminaDock
     RDKit          3D

 39 45  0  0  0  0  0  0  0  0999 V2000
    7.8736    4.9092  -12.5754 C   0  0  0  0  0  0  0  0  0  0  0  0
    6.7174    4.5766  -11.9005 C   0  0  0  0  0  0  0  0  0  0  0  0
    5.9321    3.5283  -12.2879 C   0  0  0  0  0  0  0  0  0  0  0  0
    6.3204    2.7763  -13.4033 C   0  0  0  0  0  0  0  0  0  0  0  0
    7.4672    3.0735  -14.1064 C   0  0  0  0  0  0  0  0  0  0  0  0
    8.2257    4.1496  -13.6667 C   0  0  0  0  0  0  0  0  0  0  0  0
    7.6513    2.1264  -15.2418 C   0  0  0  0  0  0  0  0  0  0  0  0
    6.4894    1.2265  -15.1517 C   0  0  0  0  0  0  0  0  0  0  0  0
    5.7291    1.6230  -14.0728 C   0  0  0  0  0  0  0  0  0  0  0  0
    4.5592    0.9391  -13.7508 C   0  0  0  0  0  0  0  0  0  0  0  0
    4.2038   -0.1279  -14.5415 C   0  0  0  0  0  0  0  0  0  0  0  0
    4.9567   -0.5420  -15.6321 C   0  0  0  0  0  0  0  0  0  0  0  0
    6.1182    0.1525  -15.9356 C   0  0  0  0  0  0  0  0  0  0  0  0
    6.8415   -0.2772  -17.0171 C   0  0  0  0  0  0  0  0  0  0  0  0
    7.9019    0.3135  -17.3390 O   0  0  0  0  0  0  0  0  0  0  0  0
    6.4706   -1.3272  -17.7772 N   0  0  0  0  0  0  0  0  0  0  0  0
    7.2206   -1.7954  -18.9232 C   0  0  0  0  0  0  0  0  0  0  0  0
    5.3403   -1.9794  -17.4570 C   0  0  0  0  0  0  0  0  0  0  0  0
    4.9088   -2.9724  -18.1048 O   0  0  0  0  0  0  0  0  0  0  0  0
    4.5849   -1.5898  -16.3890 N   0  0  0  0  0  0  0  0  0  0  0  0
    3.7062   -2.0952  -16.1380 H   0  0  0  0  0  0  0  0  0  0  0  0
   11.1462    7.6371   -6.6744 C   0  0  0  0  0  0  0  0  0  0  0  0
   11.4521    8.5430   -7.6807 C   0  0  0  0  0  0  0  0  0  0  0  0
   11.0242    8.3996   -8.9657 C   0  0  0  0  0  0  0  0  0  0  0  0
   10.2493    7.3074   -9.2974 C   0  0  0  0  0  0  0  0  0  0  0  0
    9.9208    6.3786   -8.3216 C   0  0  0  0  0  0  0  0  0  0  0  0
    9.1445    5.3082   -8.7092 C   0  0  0  0  0  0  0  0  0  0  0  0
    8.7241    5.1745   -9.9870 N   0  0  0  0  0  0  0  0  0  0  0  0
    9.0489    6.0862  -10.9359 C   0  0  0  0  0  0  0  0  0  0  0  0
    8.6860    6.0192  -12.1511 N   0  0  0  0  0  0  0  0  0  0  0  0
    9.8123    7.1384  -10.5538 N   0  0  0  0  0  0  0  0  0  0  0  0
   10.0705    7.8498  -11.2743 H   0  0  0  0  0  0  0  0  0  0  0  0
   10.3728    6.5547   -7.0235 C   0  0  0  0  0  0  0  0  0  0  0  0
   12.5227    8.1245   -2.6507 C   0  0  0  0  0  0  0  0  0  0  0  0
   11.8282    7.0066   -3.0534 C   0  0  0  0  0  0  0  0  0  0  0  0
   11.3938    6.8681   -4.3528 C   0  0  0  0  0  0  0  0  0  0  0  0
   11.6308    7.8389   -5.3153 C   0  0  0  0  0  0  0  0  0  0  0  0
   12.3269    8.9590   -4.9114 C   0  0  0  0  0  0  0  0  0  0  0  0
   12.7677    9.1074   -3.6074 C   0  0  0  0  0  0  0  0  0  0  0  0
 34 35  2  0
 35 36  1  0
 36 37  2  0
 37 22  1  0
 22 23  2  0
 23 24  1  0
 24 25  2  0
 25 26  1  0
 26 27  1  0
 27 28  2  0
 28 29  1  0
 29 30  2  0
 30  1  1  0
  1  2  2  0
  2  3  1  0
  3  4  2  0
  4  5  1  0
  5  6  2  0
  5  7  1  0
  7  8  1  0
  8  9  2  0
  9 10  1  0
 10 11  2  0
 11 12  1  0
 12 13  2  0
 13 14  1  0
 14 15  2  0
 14 16  1  0
 16 17  1  0
 16 18  1  0
 18 19  2  0
 18 20  1  0
 20 21  1  0
 29 31  1  0
 31 32  1  0
 26 33  2  0
 37 38  1  0
 38 39  2  0
 39 34  1  0
 33 22  1  0
 31 25  1  0
  6  1  1  0
 13  8  1  0
  9  4  1  0
 20 12  1  0
M  END
>  <minimizedAffinity>  (762) 
-16.74257

$$$$
Mol: 166_47 - SminaDock
     RDKit          3D

 41 47  0  0  0  0  0  0  0  0999 V2000
    8.7228    5.7764  -12.3565 C   0  0  0  0  0  0  0  0  0  0  0  0
    9.3899    5.0945  -13.3272 C   0  0  0  0  0  0  0  0  0  0  0  0
    8.8335    3.9968  -13.9747 C   0  0  0  0  0  0  0  0  0  0  0  0
    7.5668    3.5950  -13.6179 C   0  0  0  0  0  0  0  0  0  0  0  0
    6.8785    4.2804  -12.6338 C   0  0  0  0  0  0  0  0  0  0  0  0
    7.4612    5.3718  -12.0036 C   0  0  0  0  0  0  0  0  0  0  0  0
    5.4941    3.9073  -12.2783 C   0  0  0  0  0  0  0  0  0  0  0  0
    5.0885    2.5256  -12.5369 C   0  0  0  0  0  0  0  0  0  0  0  0
    5.7489    1.9118  -13.6993 C   0  0  0  0  0  0  0  0  0  0  0  0
    5.1317    0.8000  -14.2850 C   0  0  0  0  0  0  0  0  0  0  0  0
    5.7173    0.1532  -15.3307 C   0  0  0  0  0  0  0  0  0  0  0  0
    6.9256    0.6115  -15.8033 C   0  0  0  0  0  0  0  0  0  0  0  0
    7.6737    0.1320  -16.8549 C   0  0  0  0  0  0  0  0  0  0  0  0
    7.3738   -0.9929  -17.6978 N   0  0  0  0  0  0  0  0  0  0  0  0
    8.1503   -1.5542  -18.1037 H   0  0  0  0  0  0  0  0  0  0  0  0
    6.3926   -1.2688  -17.9188 H   0  0  0  0  0  0  0  0  0  0  0  0
    8.7327    0.9113  -16.9438 N   0  0  0  0  0  0  0  0  0  0  0  0
    9.7727    0.7988  -17.8744 N   0  0  0  0  0  0  0  0  0  0  0  0
   10.7593    1.0127  -17.5939 H   0  0  0  0  0  0  0  0  0  0  0  0
    9.6165    0.5017  -18.8741 H   0  0  0  0  0  0  0  0  0  0  0  0
    8.6788    1.8810  -15.9696 C   0  0  0  0  0  0  0  0  0  0  0  0
    7.5649    1.7230  -15.2366 C   0  0  0  0  0  0  0  0  0  0  0  0
    6.9571    2.3823  -14.1600 C   0  0  0  0  0  0  0  0  0  0  0  0
   11.2821    8.0791   -5.9767 C   0  0  0  0  0  0  0  0  0  0  0  0
   11.4414    9.1973   -6.7648 C   0  0  0  0  0  0  0  0  0  0  0  0
   11.0716    9.1975   -8.0891 C   0  0  0  0  0  0  0  0  0  0  0  0
   10.5219    8.0448   -8.6559 C   0  0  0  0  0  0  0  0  0  0  0  0
   10.3539    6.9146   -7.8840 C   0  0  0  0  0  0  0  0  0  0  0  0
    9.8107    5.7794   -8.4506 C   0  0  0  0  0  0  0  0  0  0  0  0
    9.4495    5.7769   -9.7425 N   0  0  0  0  0  0  0  0  0  0  0  0
    9.6269    6.8891  -10.4585 C   0  0  0  0  0  0  0  0  0  0  0  0
    9.2868    6.8976  -11.6925 N   0  0  0  0  0  0  0  0  0  0  0  0
   10.1515    8.0143   -9.9463 N   0  0  0  0  0  0  0  0  0  0  0  0
   10.2852    8.8890  -10.5304 H   0  0  0  0  0  0  0  0  0  0  0  0
   10.7365    6.9381   -6.5431 C   0  0  0  0  0  0  0  0  0  0  0  0
   12.3960    7.9647   -1.8752 C   0  0  0  0  0  0  0  0  0  0  0  0
   12.3748    9.1461   -2.5676 C   0  0  0  0  0  0  0  0  0  0  0  0
   12.0204    9.2048   -3.8848 C   0  0  0  0  0  0  0  0  0  0  0  0
   11.6677    8.0491   -4.5632 C   0  0  0  0  0  0  0  0  0  0  0  0
   11.6881    6.8664   -3.8732 C   0  0  0  0  0  0  0  0  0  0  0  0
   12.0437    6.8170   -2.5562 C   0  0  0  0  0  0  0  0  0  0  0  0
 36 37  2  0
 37 38  1  0
 38 39  2  0
 39 24  1  0
 24 25  2  0
 25 26  1  0
 26 27  2  0
 27 28  1  0
 28 29  1  0
 29 30  2  0
 30 31  1  0
 31 32  2  0
 32  1  1  0
  1  2  2  0
  2  3  1  0
  3  4  2  0
  4  5  1  0
  5  6  2  0
  5  7  1  0
  7  8  1  0
  8  9  1  0
  9 10  1  0
 10 11  2  0
 11 12  1  0
 12 13  2  0
 13 14  1  0
 14 15  1  0
 14 16  1  0
 13 17  1  0
 17 18  1  0
 18 19  1  0
 18 20  1  0
 17 21  1  0
 21 22  2  0
 22 23  1  0
 31 33  1  0
 33 34  1  0
 28 35  2  0
 39 40  1  0
 40 41  2  0
 41 36  1  0
 35 24  1  0
 33 27  1  0
  6  1  1  0
 23  9  2  0
 23  4  1  0
 22 12  1  0
M  END
>  <minimizedAffinity>  (763) 
-16.72127

$$$$
Mol: 116_60 - SminaDock
     RDKit          3D

 38 44  0  0  0  0  0  0  0  0999 V2000
    7.9046    4.5719  -13.1335 C   0  0  0  0  0  0  0  0  0  0  0  0
    6.6092    4.5171  -12.6499 C   0  0  0  0  0  0  0  0  0  0  0  0
    5.7671    3.4515  -12.9027 C   0  0  0  0  0  0  0  0  0  0  0  0
    6.2066    2.3885  -13.6624 C   0  0  0  0  0  0  0  0  0  0  0  0
    7.4871    2.4294  -14.1477 C   0  0  0  0  0  0  0  0  0  0  0  0
    8.3383    3.5065  -13.8923 C   0  0  0  0  0  0  0  0  0  0  0  0
    7.7068    1.1825  -14.9211 C   0  0  1  0  0  0  0  0  0  0  0  0
    7.9909    1.4775  -16.3333 C   0  0  0  0  0  0  0  0  0  0  0  0
    7.4616    2.4947  -16.8527 O   0  0  0  0  0  0  0  0  0  0  0  0
    8.8381    0.6692  -17.1504 N   0  0  0  0  0  0  0  0  0  0  0  0
    9.7834   -0.1470  -16.4286 C   0  0  0  0  0  0  0  0  0  0  0  0
   10.3217   -1.1410  -16.9764 O   0  0  0  0  0  0  0  0  0  0  0  0
   10.0550    0.2742  -15.0335 C   0  0  0  0  0  0  0  0  0  0  0  0
    8.8055    0.4168  -14.2277 C   0  0  0  0  0  0  0  0  0  0  0  0
    6.4216    0.4489  -14.8160 C   0  0  0  0  0  0  0  0  0  0  0  0
    6.0288   -0.7592  -15.3259 C   0  0  0  0  0  0  0  0  0  0  0  0
    4.7668   -1.2594  -15.1011 C   0  0  0  0  0  0  0  0  0  0  0  0
    3.8792   -0.5338  -14.3494 C   0  0  0  0  0  0  0  0  0  0  0  0
    4.2489    0.6713  -13.8320 C   0  0  0  0  0  0  0  0  0  0  0  0
    5.5156    1.1533  -14.0686 C   0  0  0  0  0  0  0  0  0  0  0  0
   11.0143    7.5170   -7.3300 C   0  0  0  0  0  0  0  0  0  0  0  0
   11.4354    8.3607   -8.3418 C   0  0  0  0  0  0  0  0  0  0  0  0
   11.0761    8.1791   -9.6542 C   0  0  0  0  0  0  0  0  0  0  0  0
   10.2615    7.1135   -9.9875 C   0  0  0  0  0  0  0  0  0  0  0  0
    9.8165    6.2443   -9.0079 C   0  0  0  0  0  0  0  0  0  0  0  0
    9.0049    5.1832   -9.3405 C   0  0  0  0  0  0  0  0  0  0  0  0
    8.6638    5.0208  -10.6261 N   0  0  0  0  0  0  0  0  0  0  0  0
    9.0879    5.8584  -11.5966 C   0  0  0  0  0  0  0  0  0  0  0  0
    8.7486    5.6910  -12.8517 N   0  0  0  0  0  0  0  0  0  0  0  0
    9.8748    6.8814  -11.2506 N   0  0  0  0  0  0  0  0  0  0  0  0
   10.1997    7.5263  -12.0073 H   0  0  0  0  0  0  0  0  0  0  0  0
   10.2054    6.4695   -7.7023 C   0  0  0  0  0  0  0  0  0  0  0  0
   12.2322    8.2213   -3.3160 C   0  0  0  0  0  0  0  0  0  0  0  0
   11.6882    7.0199   -3.6699 C   0  0  0  0  0  0  0  0  0  0  0  0
   11.3030    6.8210   -4.9783 C   0  0  0  0  0  0  0  0  0  0  0  0
   11.4348    7.7706   -5.9611 C   0  0  0  0  0  0  0  0  0  0  0  0
   11.9869    8.9860   -5.5956 C   0  0  0  0  0  0  0  0  0  0  0  0
   12.3813    9.2020   -4.2761 C   0  0  0  0  0  0  0  0  0  0  0  0
 33 34  2  0
 34 35  1  0
 35 36  2  0
 36 21  1  0
 21 22  2  0
 22 23  1  0
 23 24  2  0
 24 25  1  0
 25 26  1  0
 26 27  2  0
 27 28  1  0
 28 29  2  0
 29  1  1  0
  1  2  2  0
  2  3  1  0
  3  4  2  0
  4  5  1  0
  5  6  2  0
  5  7  1  0
  7  8  1  0
  8  9  2  0
  8 10  1  0
 10 11  1  0
 11 12  2  0
 11 13  1  0
 13 14  1  0
  7 15  1  0
 15 16  2  0
 16 17  1  0
 17 18  2  0
 18 19  1  0
 19 20  2  0
 28 30  1  0
 30 31  1  0
 25 32  2  0
 36 37  1  0
 37 38  2  0
 38 33  1  0
 32 21  1  0
 30 24  1  0
  6  1  1  0
  7 14  1  1
 20 15  1  0
 20  4  1  0
M  CHG  1  10  -1
M  END
>  <minimizedAffinity>  (764) 
-16.74355

$$$$
Mol: 132_18 - SminaDock
     RDKit          3D

 39 45  0  0  0  0  0  0  0  0999 V2000
    7.7480    4.6212  -12.7767 C   0  0  0  0  0  0  0  0  0  0  0  0
    6.4356    4.4742  -12.3631 C   0  0  0  0  0  0  0  0  0  0  0  0
    5.7049    3.3520  -12.7817 C   0  0  0  0  0  0  0  0  0  0  0  0
    6.2797    2.4060  -13.5931 C   0  0  0  0  0  0  0  0  0  0  0  0
    7.5931    2.5258  -14.0280 C   0  0  0  0  0  0  0  0  0  0  0  0
    8.2829    3.6607  -13.5839 C   0  0  0  0  0  0  0  0  0  0  0  0
    8.2243    1.5851  -14.9755 C   0  0  1  0  0  0  0  0  0  0  0  0
    7.6358    0.2459  -14.9163 C   0  0  0  0  0  0  0  0  0  0  0  0
    6.1917    0.1830  -14.6803 C   0  0  0  0  0  0  0  0  0  0  0  0
    5.4830   -0.9445  -15.1212 C   0  0  0  0  0  0  0  0  0  0  0  0
    4.1672   -1.0313  -14.8084 C   0  0  0  0  0  0  0  0  0  0  0  0
    3.5349   -0.0550  -14.0846 C   0  0  0  0  0  0  0  0  0  0  0  0
    4.2080    1.0677  -13.6391 C   0  0  0  0  0  0  0  0  0  0  0  0
    5.5603    1.1700  -13.9553 C   0  0  0  0  0  0  0  0  0  0  0  0
    8.2105    2.1687  -16.3957 C   0  0  0  0  0  0  0  0  0  0  0  0
    8.7828    1.1476  -17.3132 C   0  0  0  0  0  0  0  0  0  0  0  0
   10.0046    0.5414  -16.9344 N   0  0  1  0  0  0  0  0  0  0  0  0
   10.0163   -0.4264  -17.3826 H   0  0  0  0  0  0  0  0  0  0  0  0
   10.8229    1.0209  -17.3991 H   0  0  0  0  0  0  0  0  0  0  0  0
   10.2446    0.3312  -15.5461 C   0  0  0  0  0  0  0  0  0  0  0  0
    9.7397    1.4676  -14.6789 C   0  0  0  0  0  0  0  0  0  0  0  0
   10.9816    7.6860   -7.0638 C   0  0  0  0  0  0  0  0  0  0  0  0
   11.2819    8.5983   -8.0527 C   0  0  0  0  0  0  0  0  0  0  0  0
   10.8569    8.4268   -9.3535 C   0  0  0  0  0  0  0  0  0  0  0  0
   10.1037    7.2956   -9.6641 C   0  0  0  0  0  0  0  0  0  0  0  0
    9.8016    6.3790   -8.6718 C   0  0  0  0  0  0  0  0  0  0  0  0
    9.0659    5.2652   -8.9605 N   0  0  0  0  0  0  0  0  0  0  0  0
    8.6518    5.0820  -10.1973 N   0  0  0  0  0  0  0  0  0  0  0  0
    8.9340    5.9572  -11.1713 C   0  0  0  0  0  0  0  0  0  0  0  0
    8.5232    5.7545  -12.3608 N   0  0  0  0  0  0  0  0  0  0  0  0
    9.6654    7.0786  -10.9156 N   0  0  0  0  0  0  0  0  0  0  0  0
    9.8740    7.7508  -11.6959 H   0  0  0  0  0  0  0  0  0  0  0  0
   10.2387    6.5786   -7.3896 C   0  0  0  0  0  0  0  0  0  0  0  0
   12.2724    8.1386   -3.0287 C   0  0  0  0  0  0  0  0  0  0  0  0
   11.6842    6.9578   -3.4566 C   0  0  0  0  0  0  0  0  0  0  0  0
   11.2757    6.8411   -4.7726 C   0  0  0  0  0  0  0  0  0  0  0  0
   11.4294    7.8665   -5.6987 C   0  0  0  0  0  0  0  0  0  0  0  0
   12.0192    9.0174   -5.2220 C   0  0  0  0  0  0  0  0  0  0  0  0
   12.4348    9.1610   -3.9187 C   0  0  0  0  0  0  0  0  0  0  0  0
 34 35  2  0
 35 36  1  0
 36 37  2  0
 37 22  1  0
 22 23  2  0
 23 24  1  0
 24 25  2  0
 25 26  1  0
 26 27  1  0
 27 28  2  0
 28 29  1  0
 29 30  2  0
 30  1  1  0
  1  2  2  0
  2  3  1  0
  3  4  2  0
  4  5  1  0
  5  6  2  0
  5  7  1  0
  7  8  1  6
  8  9  1  0
  9 10  2  0
 10 11  1  0
 11 12  2  0
 12 13  1  0
 13 14  2  0
  7 15  1  0
 15 16  1  0
 16 17  1  0
 17 18  1  6
 17 19  1  0
 17 20  1  0
 20 21  1  0
 29 31  1  0
 31 32  1  0
 26 33  2  0
 37 38  1  0
 38 39  2  0
 39 34  1  0
 33 22  1  0
 31 25  1  0
  6  1  1  0
 21  7  1  0
 14  4  1  0
 14  9  1  0
M  CHG  1  17   1
M  END
>  <minimizedAffinity>  (765) 
-16.70580

$$$$
Mol: 183_20 - SminaDock
     RDKit          3D

 38 44  0  0  0  0  0  0  0  0999 V2000
    7.5213   -1.5692  -17.5042 H   0  0  0  0  0  0  0  0  0  0  0  0
    7.4140   -0.6514  -17.0879 O   0  0  0  0  0  0  0  0  0  0  0  0
    6.3437   -0.4209  -16.2156 C   0  0  0  0  0  0  0  0  0  0  0  0
    5.2577   -1.1055  -16.1236 N   0  0  0  0  0  0  0  0  0  0  0  0
    4.9621   -2.2751  -16.9478 C   0  0  0  0  0  0  0  0  0  0  0  0
    4.4035   -0.5610  -15.1160 C   0  0  0  0  0  0  0  0  0  0  0  0
    3.2833   -0.9792  -14.7726 O   0  0  0  0  0  0  0  0  0  0  0  0
    5.1020    0.5981  -14.5545 C   0  0  0  0  0  0  0  0  0  0  0  0
    4.8081    1.5193  -13.5741 C   0  0  0  0  0  0  0  0  0  0  0  0
    5.6883    2.5460  -13.2412 C   0  0  0  0  0  0  0  0  0  0  0  0
    6.8703    2.6052  -13.9336 C   0  0  0  0  0  0  0  0  0  0  0  0
    7.1711    1.6842  -14.9183 C   0  0  0  0  0  0  0  0  0  0  0  0
    6.2986    0.6806  -15.2360 C   0  0  0  0  0  0  0  0  0  0  0  0
    7.6557    3.7430  -13.4452 C   0  0  0  0  0  0  0  0  0  0  0  0
    8.9140    4.2231  -13.8221 C   0  0  0  0  0  0  0  0  0  0  0  0
    9.4506    5.3308  -13.2031 C   0  0  0  0  0  0  0  0  0  0  0  0
    8.7312    5.9566  -12.2099 C   0  0  0  0  0  0  0  0  0  0  0  0
    7.4965    5.4792  -11.8454 C   0  0  0  0  0  0  0  0  0  0  0  0
    6.9343    4.3633  -12.4555 C   0  0  0  0  0  0  0  0  0  0  0  0
    5.6528    3.6399  -12.2739 C   0  0  0  0  0  0  0  0  0  0  0  0
    9.3338    7.0972  -11.6039 N   0  0  0  0  0  0  0  0  0  0  0  0
    9.6518    7.0025  -10.3587 C   0  0  0  0  0  0  0  0  0  0  0  0
   10.2198    8.0746   -9.7837 N   0  0  0  0  0  0  0  0  0  0  0  0
   10.5923    8.0826   -8.4835 C   0  0  0  0  0  0  0  0  0  0  0  0
   11.1748    9.1909   -7.9048 C   0  0  0  0  0  0  0  0  0  0  0  0
   11.5536    9.1834   -6.5615 C   0  0  0  0  0  0  0  0  0  0  0  0
   11.3515    8.0566   -5.7763 C   0  0  0  0  0  0  0  0  0  0  0  0
   10.7681    6.9721   -6.3902 C   0  0  0  0  0  0  0  0  0  0  0  0
   10.3890    6.9582   -7.7062 C   0  0  0  0  0  0  0  0  0  0  0  0
    9.8034    5.8800   -8.3351 C   0  0  0  0  0  0  0  0  0  0  0  0
    9.4383    5.8896   -9.6326 N   0  0  0  0  0  0  0  0  0  0  0  0
    8.9961    5.0837  -10.1190 H   0  0  0  0  0  0  0  0  0  0  0  0
   11.7528    8.0648   -4.3747 C   0  0  0  0  0  0  0  0  0  0  0  0
   12.1047    9.2304   -3.7186 C   0  0  0  0  0  0  0  0  0  0  0  0
   12.4853    9.2332   -2.3870 C   0  0  0  0  0  0  0  0  0  0  0  0
   12.5280    8.0627   -1.6584 C   0  0  0  0  0  0  0  0  0  0  0  0
   12.1789    6.8934   -2.3026 C   0  0  0  0  0  0  0  0  0  0  0  0
   11.8020    6.9044   -3.6285 C   0  0  0  0  0  0  0  0  0  0  0  0
  1  2  1  0
  2  3  1  0
  3  4  2  0
  4  5  1  0
  4  6  1  0
  6  7  2  0
  6  8  1  0
  8  9  2  0
  9 10  1  0
 10 11  2  0
 11 12  1  0
 12 13  2  0
 11 14  1  0
 14 15  2  0
 15 16  1  0
 16 17  2  0
 17 21  1  0
 21 22  2  0
 22 23  1  0
 23 24  2  0
 24 25  1  0
 25 26  2  0
 26 27  1  0
 27 33  1  0
 33 34  2  0
 34 35  1  0
 35 36  2  0
 36 37  1  0
 37 38  2  0
 27 28  2  0
 28 29  1  0
 29 30  2  0
 30 31  1  0
 31 32  1  0
 17 18  1  0
 18 19  2  0
 19 20  1  0
 13  3  1  0
 19 14  1  0
 13  8  1  0
 31 22  1  0
 20 10  1  0
 29 24  1  0
 38 33  1  0
M  CHG  1   4   1
M  END
>  <minimizedAffinity>  (766) 
-16.66150

$$$$
Mol: 183_6 - SminaDock
     RDKit          3D

 45 52  0  0  0  0  0  0  0  0999 V2000
    8.9371    6.0166  -12.4695 C   0  0  0  0  0  0  0  0  0  0  0  0
    7.6984    5.9354  -11.8707 C   0  0  0  0  0  0  0  0  0  0  0  0
    6.8638    4.9056  -12.2346 C   0  0  0  0  0  0  0  0  0  0  0  0
    7.2955    3.9711  -13.2013 C   0  0  0  0  0  0  0  0  0  0  0  0
    8.5202    4.0500  -13.7940 C   0  0  0  0  0  0  0  0  0  0  0  0
    9.3534    5.1077  -13.4071 C   0  0  0  0  0  0  0  0  0  0  0  0
    8.9894    3.0963  -14.7905 C   0  0  1  0  0  0  0  0  0  0  0  0
    8.0051    2.0466  -15.1003 C   0  0  0  0  0  0  0  0  0  0  0  0
    8.0861    0.9939  -15.9769 N   0  0  0  0  0  0  0  0  0  0  0  0
    7.0005    0.2500  -15.9843 C   0  0  0  0  0  0  0  0  0  0  0  0
    6.5757   -0.8618  -16.6349 N   0  0  0  0  0  0  0  0  0  0  0  0
    7.2379   -1.2887  -17.3269 H   0  0  0  0  0  0  0  0  0  0  0  0
    5.3657   -1.4037  -16.4146 C   0  0  0  0  0  0  0  0  0  0  0  0
    4.9458   -2.5773  -17.1158 N   0  0  0  0  0  0  0  0  0  0  0  0
    3.9519   -2.7656  -17.2731 H   0  0  0  0  0  0  0  0  0  0  0  0
    5.6279   -3.2769  -17.4894 H   0  0  0  0  0  0  0  0  0  0  0  0
    4.4794   -0.8378  -15.4919 C   0  0  0  0  0  0  0  0  0  0  0  0
    4.8319    0.2935  -14.7870 C   0  0  0  0  0  0  0  0  0  0  0  0
    6.0774    0.8322  -15.0294 C   0  0  0  0  0  0  0  0  0  0  0  0
    6.7791    1.9416  -14.5272 C   0  0  0  0  0  0  0  0  0  0  0  0
    6.3514    2.9102  -13.5335 C   0  0  0  0  0  0  0  0  0  0  0  0
    5.2293    2.8059  -13.0160 O   0  0  0  0  0  0  0  0  0  0  0  0
    9.3104    3.9253  -16.0501 C   0  0  0  0  0  0  0  0  0  0  0  0
    9.7090    3.0090  -17.1557 C   0  0  0  0  0  0  0  0  0  0  0  0
   10.4003    1.9031  -16.7541 O   0  0  0  0  0  0  0  0  0  0  0  0
   11.0483    1.9637  -15.5566 C   0  0  0  0  0  0  0  0  0  0  0  0
   10.2989    2.4457  -14.3773 C   0  0  0  0  0  0  0  0  0  0  0  0
   11.0273    7.5085   -6.0220 C   0  0  0  0  0  0  0  0  0  0  0  0
   10.1508    6.4814   -6.2732 C   0  0  0  0  0  0  0  0  0  0  0  0
    9.7370    6.1901   -7.5625 C   0  0  0  0  0  0  0  0  0  0  0  0
   10.1960    6.9261   -8.6290 C   0  0  0  0  0  0  0  0  0  0  0  0
   11.0684    7.9508   -8.3967 C   0  0  0  0  0  0  0  0  0  0  0  0
   11.5110    8.6690   -9.4968 C   0  0  0  0  0  0  0  0  0  0  0  0
   11.0812    8.3473  -10.7357 N   0  0  0  0  0  0  0  0  0  0  0  0
   10.2179    7.3317  -10.9510 C   0  0  0  0  0  0  0  0  0  0  0  0
    9.8337    7.0544  -12.1380 N   0  0  0  0  0  0  0  0  0  0  0  0
    9.8005    6.6495   -9.8858 N   0  0  0  0  0  0  0  0  0  0  0  0
    9.1342    5.8600  -10.0016 H   0  0  0  0  0  0  0  0  0  0  0  0
   11.4833    8.2432   -7.1051 C   0  0  0  0  0  0  0  0  0  0  0  0
   12.3912    8.5142   -2.1273 C   0  0  0  0  0  0  0  0  0  0  0  0
   12.1189    9.5044   -3.0526 C   0  0  0  0  0  0  0  0  0  0  0  0
   11.6817    9.1754   -4.2972 C   0  0  0  0  0  0  0  0  0  0  0  0
   11.4914    7.8541   -4.6910 C   0  0  0  0  0  0  0  0  0  0  0  0
   11.7706    6.8862   -3.7479 C   0  0  0  0  0  0  0  0  0  0  0  0
   12.2154    7.1878   -2.4773 C   0  0  0  0  0  0  0  0  0  0  0  0
 40 41  2  0
 41 42  1  0
 42 43  2  0
 43 28  1  0
 28 29  2  0
 29 30  1  0
 30 31  2  0
 31 32  1  0
 32 33  1  0
 33 34  2  0
 34 35  1  0
 35 36  2  0
 36  1  1  0
  1  2  2  0
  2  3  1  0
  3  4  2  0
  4  5  1  0
  5  6  2  0
  5  7  1  0
  7  8  1  0
  8  9  1  0
  9 10  2  0
 10 11  1  0
 11 12  1  0
 11 13  1  0
 13 14  1  0
 14 15  1  0
 14 16  1  0
 13 17  2  0
 17 18  1  0
 18 19  2  0
 19 20  1  0
 20 21  1  0
 21 22  2  0
  7 23  1  6
 23 24  1  0
 24 25  1  0
 25 26  1  0
 26 27  1  0
 35 37  1  0
 37 38  1  0
 32 39  2  0
 43 44  1  0
 44 45  2  0
 45 40  1  0
 39 28  1  0
 37 31  1  0
  6  1  1  0
 27  7  1  0
 21  4  1  0
 20  8  2  0
 19 10  1  0
M  END
>  <minimizedAffinity>  (767) 
-16.67258

$$$$
Mol: 183_18 - SminaDock
     RDKit          3D

 38 44  0  0  0  0  0  0  0  0999 V2000
    8.3696    5.4512  -12.3325 C   0  0  0  0  0  0  0  0  0  0  0  0
    7.0691    5.2902  -11.9459 C   0  0  0  0  0  0  0  0  0  0  0  0
    6.3858    4.1738  -12.4037 C   0  0  0  0  0  0  0  0  0  0  0  0
    6.9896    3.2340  -13.2331 C   0  0  0  0  0  0  0  0  0  0  0  0
    8.2906    3.4260  -13.5998 C   0  0  0  0  0  0  0  0  0  0  0  0
    8.9833    4.5493  -13.1413 C   0  0  0  0  0  0  0  0  0  0  0  0
    9.0521    2.4956  -14.4730 C   0  0  0  0  0  0  0  0  0  0  0  0
    8.3139    1.3300  -14.9856 C   0  0  0  0  0  0  0  0  0  0  0  0
    6.9152    1.1897  -14.5340 C   0  0  0  0  0  0  0  0  0  0  0  0
    6.2576    2.0788  -13.7069 C   0  0  0  0  0  0  0  0  0  0  0  0
    4.9491    1.8920  -13.3262 C   0  0  0  0  0  0  0  0  0  0  0  0
    4.2974    0.7635  -13.8059 C   0  0  0  0  0  0  0  0  0  0  0  0
    4.9108   -0.1443  -14.6279 C   0  0  0  0  0  0  0  0  0  0  0  0
    4.5333   -1.2738  -15.2134 O   0  0  0  0  0  0  0  0  0  0  0  0
    5.5089   -1.7877  -15.9198 C   0  0  0  0  0  0  0  0  0  0  0  0
    5.4801   -2.9938  -16.6886 N   0  0  0  0  0  0  0  0  0  0  0  0
    5.1234   -3.8421  -16.2406 H   0  0  0  0  0  0  0  0  0  0  0  0
    5.8115   -3.0047  -17.6704 H   0  0  0  0  0  0  0  0  0  0  0  0
    6.5520   -0.9557  -15.7818 N   0  0  0  0  0  0  0  0  0  0  0  0
    6.2315    0.0815  -14.9883 C   0  0  0  0  0  0  0  0  0  0  0  0
   11.2471    7.8148   -6.1355 C   0  0  0  0  0  0  0  0  0  0  0  0
   11.6311    8.8290   -7.0072 C   0  0  0  0  0  0  0  0  0  0  0  0
   11.2813    8.7783   -8.3365 C   0  0  0  0  0  0  0  0  0  0  0  0
   10.5382    7.7249   -8.8603 C   0  0  0  0  0  0  0  0  0  0  0  0
   10.1673    6.7303   -7.9816 C   0  0  0  0  0  0  0  0  0  0  0  0
    9.4273    5.6912   -8.5277 C   0  0  0  0  0  0  0  0  0  0  0  0
    9.0986    5.6661   -9.8316 N   0  0  0  0  0  0  0  0  0  0  0  0
    9.4715    6.6462  -10.6663 C   0  0  0  0  0  0  0  0  0  0  0  0
    9.1359    6.5803  -11.8982 N   0  0  0  0  0  0  0  0  0  0  0  0
   10.1923    7.6671  -10.1562 N   0  0  0  0  0  0  0  0  0  0  0  0
   10.4700    8.4120  -10.8148 H   0  0  0  0  0  0  0  0  0  0  0  0
   10.5151    6.7759   -6.6480 C   0  0  0  0  0  0  0  0  0  0  0  0
   12.4091    8.0982   -2.0163 C   0  0  0  0  0  0  0  0  0  0  0  0
   12.0475    6.8890   -2.5921 C   0  0  0  0  0  0  0  0  0  0  0  0
   11.6740    6.7983   -3.9163 C   0  0  0  0  0  0  0  0  0  0  0  0
   11.6446    7.9155   -4.7294 C   0  0  0  0  0  0  0  0  0  0  0  0
   12.0028    9.1208   -4.1636 C   0  0  0  0  0  0  0  0  0  0  0  0
   12.3798    9.2129   -2.8272 C   0  0  0  0  0  0  0  0  0  0  0  0
 33 34  2  0
 34 35  1  0
 35 36  2  0
 36 21  1  0
 21 22  2  0
 22 23  1  0
 23 24  2  0
 24 25  1  0
 25 26  1  0
 26 27  2  0
 27 28  1  0
 28 29  2  0
 29  1  1  0
  1  2  2  0
  2  3  1  0
  3  4  2  0
  4  5  1  0
  5  6  2  0
  5  7  1  0
  7  8  1  0
  8  9  1  0
  9 10  2  0
 10 11  1  0
 11 12  2  0
 12 13  1  0
 13 14  1  0
 14 15  1  0
 15 16  1  0
 16 17  1  0
 16 18  1  0
 15 19  2  0
 19 20  1  0
 28 30  1  0
 30 31  1  0
 25 32  2  0
 36 37  1  0
 37 38  2  0
 38 33  1  0
 32 21  1  0
 30 24  1  0
  6  1  1  0
 20  9  1  0
 10  4  1  0
 20 13  2  0
M  END
>  <minimizedAffinity>  (768) 
-16.67269

$$$$
Mol: 77_28 - SminaDock
     RDKit          3D

 42 48  0  0  0  0  0  0  0  0999 V2000
    9.5173    5.7453  -12.0661 C   0  0  0  0  0  0  0  0  0  0  0  0
    9.9835    7.0302  -12.1686 C   0  0  0  0  0  0  0  0  0  0  0  0
   10.6845    7.8053  -11.2445 C   0  0  0  0  0  0  0  0  0  0  0  0
   10.7692    7.5002   -9.9020 C   0  0  0  0  0  0  0  0  0  0  0  0
   10.0611    6.5646   -9.1624 C   0  0  0  0  0  0  0  0  0  0  0  0
    9.2566    5.5255   -9.5768 C   0  0  0  0  0  0  0  0  0  0  0  0
    8.6628    4.9053   -8.6834 O   0  0  0  0  0  0  0  0  0  0  0  0
    9.0786    5.1445  -10.9098 C   0  0  0  0  0  0  0  0  0  0  0  0
    9.9880    6.4417   -7.7365 N   0  0  0  0  0  0  0  0  0  0  0  0
   10.7012    7.2639   -6.8007 C   0  0  0  0  0  0  0  0  0  0  0  0
   10.7838    6.6864   -5.5424 C   0  0  0  0  0  0  0  0  0  0  0  0
   11.4304    7.3180   -4.4999 C   0  0  0  0  0  0  0  0  0  0  0  0
   11.5353    6.7787   -3.2342 C   0  0  0  0  0  0  0  0  0  0  0  0
   12.1721    7.3891   -2.1882 C   0  0  0  0  0  0  0  0  0  0  0  0
   12.7510    8.6244   -2.3999 C   0  0  0  0  0  0  0  0  0  0  0  0
   12.6747    9.2009   -3.6357 C   0  0  0  0  0  0  0  0  0  0  0  0
   12.0181    8.5585   -4.6917 C   0  0  0  0  0  0  0  0  0  0  0  0
   11.9287    9.1206   -5.9456 C   0  0  0  0  0  0  0  0  0  0  0  0
   11.2848    8.4986   -6.9957 C   0  0  0  0  0  0  0  0  0  0  0  0
   11.3066    9.2805   -8.2597 C   0  0  0  0  0  0  0  0  0  0  0  0
   11.8217    8.4246   -9.4048 C   0  0  0  0  0  0  0  0  0  0  0  0
    9.3879    5.7196   -7.3274 H   0  0  0  0  0  0  0  0  0  0  0  0
    9.2844    5.4343  -14.3773 O   0  0  0  0  0  0  0  0  0  0  0  0
    9.4690    4.8940  -13.2590 C   0  0  0  0  0  0  0  0  0  0  0  0
    9.6184    3.4992  -13.2139 N   0  0  0  0  0  0  0  0  0  0  0  0
    9.7654    3.0991  -12.2390 H   0  0  0  0  0  0  0  0  0  0  0  0
    9.5918    2.5784  -14.2919 C   0  0  0  0  0  0  0  0  0  0  0  0
   10.6895    2.0382  -14.9088 C   0  0  0  0  0  0  0  0  0  0  0  0
   10.5681    1.1404  -15.9618 C   0  0  0  0  0  0  0  0  0  0  0  0
    9.3450    0.7403  -16.4480 C   0  0  0  0  0  0  0  0  0  0  0  0
    9.4439   -0.1514  -17.4910 C   0  0  0  0  0  0  0  0  0  0  0  0
    8.4011   -0.7833  -18.1313 C   0  0  0  0  0  0  0  0  0  0  0  0
    7.0479   -0.8244  -17.8133 C   0  0  0  0  0  0  0  0  0  0  0  0
    6.3517   -1.7949  -18.4863 C   0  0  0  0  0  0  0  0  0  0  0  0
    5.0005   -1.9693  -18.2863 C   0  0  0  0  0  0  0  0  0  0  0  0
    4.3692   -1.1369  -17.3874 C   0  0  0  0  0  0  0  0  0  0  0  0
    5.0410   -0.1510  -16.6944 C   0  0  0  0  0  0  0  0  0  0  0  0
    6.3967    0.0090  -16.9084 C   0  0  0  0  0  0  0  0  0  0  0  0
    6.9117    1.0311  -16.1424 C   0  0  0  0  0  0  0  0  0  0  0  0
    6.0658    1.8180  -15.6841 O   0  0  0  0  0  0  0  0  0  0  0  0
    8.2449    1.2872  -15.8230 C   0  0  0  0  0  0  0  0  0  0  0  0
    8.3480    2.1674  -14.7908 C   0  0  0  0  0  0  0  0  0  0  0  0
 23 24  2  0
 24 25  1  0
 25 27  1  0
 27 28  2  0
 28 29  1  0
 29 30  2  0
 30 31  1  0
 31 32  2  0
 32 33  1  0
 33 34  2  0
 34 35  1  0
 35 36  2  0
 36 37  1  0
 37 38  2  0
 38 39  1  0
 39 40  2  0
 39 41  1  0
 41 42  2  0
 24  1  1  0
  1  2  1  0
  2  3  2  0
  3  4  1  0
  4  5  2  0
  5  6  1  0
  6  7  2  0
  6  8  1  0
  5  9  1  0
  9 10  1  0
 10 11  2  0
 11 12  1  0
 12 13  2  0
 13 14  1  0
 14 15  2  0
 15 16  1  0
 16 17  2  0
 17 18  1  0
 18 19  2  0
 19 20  1  0
 20 21  1  0
 42 27  1  0
  8  1  2  0
 19 10  1  0
 41 30  1  0
 21  4  1  0
 38 33  1  0
 17 12  1  0
 25 26  1  0
  9 22  1  0
M  END
>  <minimizedAffinity>  (769) 
-16.70608

$$$$
Mol: 116_0 - SminaDock
     RDKit          3D

 39 44  0  0  0  0  0  0  0  0999 V2000
    9.0797    6.4147  -12.2896 C   0  0  0  0  0  0  0  0  0  0  0  0
    9.9614    5.6679  -13.0396 C   0  0  0  0  0  0  0  0  0  0  0  0
    9.5964    4.5555  -13.7531 C   0  0  0  0  0  0  0  0  0  0  0  0
    8.2660    4.1783  -13.7048 C   0  0  0  0  0  0  0  0  0  0  0  0
    7.3594    4.9119  -12.9583 C   0  0  0  0  0  0  0  0  0  0  0  0
    7.7606    6.0258  -12.2525 C   0  0  0  0  0  0  0  0  0  0  0  0
    5.9094    4.6051  -12.8310 C   0  0  0  0  0  0  0  0  0  0  0  0
    5.6875    3.1824  -12.3660 C   0  0  0  0  0  0  0  0  0  0  0  0
    5.8025    2.2032  -13.4585 C   0  0  0  0  0  0  0  0  0  0  0  0
    4.7677    1.3020  -13.5162 C   0  0  0  0  0  0  0  0  0  0  0  0
    4.7589    0.3324  -14.4939 C   0  0  0  0  0  0  0  0  0  0  0  0
    5.7802    0.2517  -15.4226 C   0  0  0  0  0  0  0  0  0  0  0  0
    6.8186    1.1567  -15.3638 C   0  0  0  0  0  0  0  0  0  0  0  0
    6.8277    2.1273  -14.3854 C   0  0  0  0  0  0  0  0  0  0  0  0
    8.0186    2.9746  -14.5112 C   0  0  0  0  0  0  0  0  0  0  0  0
    8.8950    2.6692  -15.3560 O   0  0  0  0  0  0  0  0  0  0  0  0
   11.3576    8.1952   -5.6382 C   0  0  0  0  0  0  0  0  0  0  0  0
   11.3623    9.4098   -6.2932 C   0  0  0  0  0  0  0  0  0  0  0  0
   10.9856    9.5375   -7.6288 C   0  0  0  0  0  0  0  0  0  0  0  0
   10.5896    8.4307   -8.3474 C   0  0  0  0  0  0  0  0  0  0  0  0
   10.5817    7.2020   -7.6952 C   0  0  0  0  0  0  0  0  0  0  0  0
   10.1775    6.1294   -8.4589 C   0  0  0  0  0  0  0  0  0  0  0  0
    9.8117    6.2394   -9.7466 N   0  0  0  0  0  0  0  0  0  0  0  0
    9.8304    7.4424  -10.3481 C   0  0  0  0  0  0  0  0  0  0  0  0
    9.4878    7.5640  -11.5605 N   0  0  0  0  0  0  0  0  0  0  0  0
   10.2233    8.5394   -9.6363 N   0  0  0  0  0  0  0  0  0  0  0  0
   10.2185    9.4456  -10.1533 H   0  0  0  0  0  0  0  0  0  0  0  0
   10.9581    7.0962   -6.3727 C   0  0  0  0  0  0  0  0  0  0  0  0
   12.5047    7.8104   -1.5791 C   0  0  0  0  0  0  0  0  0  0  0  0
   12.1577    6.6839   -2.3016 C   0  0  0  0  0  0  0  0  0  0  0  0
   11.7932    6.8563   -3.6105 C   0  0  0  0  0  0  0  0  0  0  0  0
   11.7569    8.0898   -4.2351 C   0  0  0  0  0  0  0  0  0  0  0  0
   12.1071    9.1911   -3.4917 C   0  0  0  0  0  0  0  0  0  0  0  0
   12.4864    9.0754   -2.1551 C   0  0  0  0  0  0  0  0  0  0  0  0
    3.6716   -0.6210  -14.5608 C   0  0  0  0  0  0  0  0  0  0  0  0
    3.1091   -0.9852  -13.5058 O   0  0  0  0  0  0  0  0  0  0  0  0
    3.2617   -1.1266  -15.8165 N   0  0  0  0  0  0  0  0  0  0  0  0
    3.6457   -2.0212  -16.1635 H   0  0  0  0  0  0  0  0  0  0  0  0
    2.5759   -0.6045  -16.3946 H   0  0  0  0  0  0  0  0  0  0  0  0
 29 30  2  0
 30 31  1  0
 31 32  2  0
 32 17  1  0
 17 18  2  0
 18 19  1  0
 19 20  2  0
 20 21  1  0
 21 22  1  0
 22 23  2  0
 23 24  1  0
 24 25  2  0
 25  1  1  0
  1  2  2  0
  2  3  1  0
  3  4  2  0
  4  5  1  0
  5  6  2  0
  5  7  1  0
  7  8  1  0
  8  9  1  0
  9 10  2  0
 10 11  1  0
 11 35  1  0
 35 36  2  0
 35 37  1  0
 37 38  1  0
 37 39  1  0
 11 12  2  0
 12 13  1  0
 13 14  2  0
 14 15  1  0
 15 16  2  0
 24 26  1  0
 26 27  1  0
 21 28  2  0
 32 33  1  0
 33 34  2  0
 34 29  1  0
 28 17  1  0
 26 20  1  0
  6  1  1  0
 14  9  1  0
 15  4  1  0
M  END
>  <minimizedAffinity>  (770) 
-16.68630

$$$$
Mol: 116_40 - SminaDock
     RDKit          3D

 41 48  0  0  0  0  0  0  0  0999 V2000
    5.1405   -2.8108  -17.8557 H   0  0  0  0  0  0  0  0  0  0  0  0
    5.2757   -1.9176  -17.3726 O   0  0  0  0  0  0  0  0  0  0  0  0
    6.4849   -1.2415  -17.4821 C   0  0  0  0  0  0  0  0  0  0  0  0
    7.3639   -1.5494  -18.3452 N   0  0  0  0  0  0  0  0  0  0  0  0
    8.6121   -0.9156  -18.5238 C   0  0  0  0  0  0  0  0  0  0  0  0
    8.9531    0.1523  -17.5969 C   0  0  1  0  0  0  0  0  0  0  0  0
    7.9234    0.5436  -16.6395 C   0  0  0  0  0  0  0  0  0  0  0  0
    8.1866    1.6348  -15.7760 C   0  0  0  0  0  0  0  0  0  0  0  0
    7.2455    2.0126  -14.8483 C   0  0  0  0  0  0  0  0  0  0  0  0
    6.0617    1.3189  -14.7782 C   0  0  0  0  0  0  0  0  0  0  0  0
    5.8008    0.2532  -15.6198 C   0  0  0  0  0  0  0  0  0  0  0  0
    6.7415   -0.1230  -16.5464 C   0  0  0  0  0  0  0  0  0  0  0  0
    5.2532    1.9333  -13.7091 C   0  0  0  0  0  0  0  0  0  0  0  0
    6.0483    3.0456  -13.1497 C   0  0  0  0  0  0  0  0  0  0  0  0
    5.7715    3.9590  -12.1243 C   0  0  0  0  0  0  0  0  0  0  0  0
    6.6902    4.9245  -11.7786 C   0  0  0  0  0  0  0  0  0  0  0  0
    7.8811    4.9595  -12.4711 C   0  0  0  0  0  0  0  0  0  0  0  0
    8.1582    4.0535  -13.4897 C   0  0  0  0  0  0  0  0  0  0  0  0
    7.2362    3.0849  -13.8365 C   0  0  0  0  0  0  0  0  0  0  0  0
   10.2967   -0.0879  -16.8844 C   0  0  0  0  0  0  0  0  0  0  0  0
   11.3428    0.2514  -17.9156 C   0  0  0  0  0  0  0  0  0  0  0  0
   10.6528    1.0641  -18.9901 C   0  0  0  0  0  0  0  0  0  0  0  0
    9.2911    1.3990  -18.4784 C   0  0  0  0  0  0  0  0  0  0  0  0
    8.8336    5.9417  -12.1305 N   0  0  0  0  0  0  0  0  0  0  0  0
    9.2253    6.1419  -10.9129 C   0  0  0  0  0  0  0  0  0  0  0  0
    8.6815    5.3643   -9.9595 N   0  0  0  0  0  0  0  0  0  0  0  0
    9.0668    5.5467   -8.6840 C   0  0  0  0  0  0  0  0  0  0  0  0
    9.9932    6.4938   -8.3070 C   0  0  0  0  0  0  0  0  0  0  0  0
   10.3844    6.6767   -6.9975 C   0  0  0  0  0  0  0  0  0  0  0  0
   11.3157    7.6303   -6.6261 C   0  0  0  0  0  0  0  0  0  0  0  0
   11.8502    8.4080   -7.6333 C   0  0  0  0  0  0  0  0  0  0  0  0
   11.4563    8.2253   -8.9594 C   0  0  0  0  0  0  0  0  0  0  0  0
   10.5350    7.2778   -9.3056 C   0  0  0  0  0  0  0  0  0  0  0  0
   10.1240    7.0667  -10.5792 N   0  0  0  0  0  0  0  0  0  0  0  0
   10.5485    7.6723  -11.3156 H   0  0  0  0  0  0  0  0  0  0  0  0
   11.7034    7.7922   -5.2255 C   0  0  0  0  0  0  0  0  0  0  0  0
   11.3386    6.8506   -4.3029 C   0  0  0  0  0  0  0  0  0  0  0  0
   11.6811    6.9606   -2.9715 C   0  0  0  0  0  0  0  0  0  0  0  0
   12.4140    8.0618   -2.5815 C   0  0  0  0  0  0  0  0  0  0  0  0
   12.8007    9.0256   -3.4616 C   0  0  0  0  0  0  0  0  0  0  0  0
   12.4385    8.8795   -4.7846 C   0  0  0  0  0  0  0  0  0  0  0  0
  1  2  1  0
  2  3  1  0
  3  4  2  0
  4  5  1  0
  6  5  1  6
  6  7  1  0
  7  8  2  0
  8  9  1  0
  9 10  2  0
 10 11  1  0
 11 12  2  0
 10 13  1  0
 13 14  1  0
 14 15  2  0
 15 16  1  0
 16 17  2  0
 17 24  1  0
 24 25  2  0
 25 26  1  0
 26 27  2  0
 27 28  1  0
 28 29  2  0
 29 30  1  0
 30 36  1  0
 36 37  2  0
 37 38  1  0
 38 39  2  0
 39 40  1  0
 40 41  2  0
 30 31  2  0
 31 32  1  0
 32 33  2  0
 33 34  1  0
 34 35  1  0
 17 18  1  0
 18 19  2  0
  6 20  1  0
 20 21  1  0
 21 22  1  0
 22 23  1  0
 12  3  1  0
 19 14  1  0
 23  6  1  0
 12  7  1  0
 34 25  1  0
 19  9  1  0
 33 28  1  0
 41 36  1  0
M  END
>  <minimizedAffinity>  (771) 
-16.67092

$$$$
Mol: 182_16 - SminaDock
     RDKit          3D

 37 43  0  0  0  0  0  0  0  0999 V2000
    6.3777   -2.0668  -17.2539 H   0  0  0  0  0  0  0  0  0  0  0  0
    6.4517   -1.2436  -16.6458 N   0  0  0  0  0  0  0  0  0  0  0  0
    5.5458   -0.9004  -15.7945 C   0  0  0  0  0  0  0  0  0  0  0  0
    5.6220    0.2001  -14.9667 C   0  0  0  0  0  0  0  0  0  0  0  0
    6.6037    1.1612  -14.8272 C   0  0  0  0  0  0  0  0  0  0  0  0
    6.4268    2.1896  -13.8952 C   0  0  0  0  0  0  0  0  0  0  0  0
    5.2796    2.2234  -13.1368 C   0  0  0  0  0  0  0  0  0  0  0  0
    4.2935    1.2541  -13.2799 C   0  0  0  0  0  0  0  0  0  0  0  0
    4.4647    0.2360  -14.2000 C   0  0  0  0  0  0  0  0  0  0  0  0
    3.7588   -0.7927  -14.5690 O   0  0  0  0  0  0  0  0  0  0  0  0
    4.3645   -1.4776  -15.5006 N   0  0  0  0  0  0  0  0  0  0  0  0
    4.0414   -2.3530  -15.9913 H   0  0  0  0  0  0  0  0  0  0  0  0
    5.3554    3.4044  -12.2444 C   0  0  0  0  0  0  0  0  0  0  0  0
    6.6489    4.0397  -12.5612 C   0  0  0  0  0  0  0  0  0  0  0  0
    7.2636    5.1701  -12.0505 C   0  0  0  0  0  0  0  0  0  0  0  0
    8.4909    5.5279  -12.5472 C   0  0  0  0  0  0  0  0  0  0  0  0
    9.1185    4.7933  -13.5334 C   0  0  0  0  0  0  0  0  0  0  0  0
    8.5240    3.6634  -14.0563 C   0  0  0  0  0  0  0  0  0  0  0  0
    7.2714    3.3050  -13.5441 C   0  0  0  0  0  0  0  0  0  0  0  0
    9.1122    6.6901  -12.0162 N   0  0  0  0  0  0  0  0  0  0  0  0
    9.4557    6.7073  -10.7769 C   0  0  0  0  0  0  0  0  0  0  0  0
    9.2439    5.6554   -9.9659 N   0  0  0  0  0  0  0  0  0  0  0  0
    9.5999    5.6641   -8.6696 C   0  0  0  0  0  0  0  0  0  0  0  0
   10.2094    6.7727   -8.1036 C   0  0  0  0  0  0  0  0  0  0  0  0
   10.5840    6.8061   -6.7771 C   0  0  0  0  0  0  0  0  0  0  0  0
   11.1904    7.9135   -6.2213 C   0  0  0  0  0  0  0  0  0  0  0  0
   11.4064    8.9955   -7.0625 C   0  0  0  0  0  0  0  0  0  0  0  0
   11.0364    8.9767   -8.3946 C   0  0  0  0  0  0  0  0  0  0  0  0
   10.4253    7.8494   -8.9375 C   0  0  0  0  0  0  0  0  0  0  0  0
   10.0510    7.7920  -10.2272 N   0  0  0  0  0  0  0  0  0  0  0  0
   10.2263    8.6290  -10.8480 H   0  0  0  0  0  0  0  0  0  0  0  0
   11.5885    7.9554   -4.8182 C   0  0  0  0  0  0  0  0  0  0  0  0
   11.6045    6.8472   -3.9993 C   0  0  0  0  0  0  0  0  0  0  0  0
   11.9770    6.8656   -2.6735 C   0  0  0  0  0  0  0  0  0  0  0  0
   12.3674    8.0854   -2.1100 C   0  0  0  0  0  0  0  0  0  0  0  0
   12.3635    9.2218   -2.9051 C   0  0  0  0  0  0  0  0  0  0  0  0
   11.9816    9.1506   -4.2282 C   0  0  0  0  0  0  0  0  0  0  0  0
  1  2  1  0
  2  3  2  0
  3  4  1  0
  4  5  2  0
  5  6  1  0
  6  7  2  0
  7  8  1  0
  8  9  2  0
  9 10  1  0
 10 11  1  0
 11 12  1  0
  7 13  1  0
 13 14  1  0
 14 15  2  0
 15 16  1  0
 16 20  1  0
 20 21  2  0
 21 22  1  0
 22 23  2  0
 23 24  1  0
 24 25  2  0
 25 26  1  0
 26 32  1  0
 32 33  2  0
 33 34  1  0
 34 35  2  0
 35 36  1  0
 36 37  2  0
 26 27  2  0
 27 28  1  0
 28 29  2  0
 29 30  1  0
 30 31  1  0
 16 17  2  0
 17 18  1  0
 18 19  2  0
 11  3  1  0
 19 14  1  0
  9  4  1  0
 30 21  1  0
 19  6  1  0
 29 24  1  0
 37 32  1  0
M  END
>  <minimizedAffinity>  (772) 
-16.73648

$$$$
Mol: 117_9 - SminaDock
     RDKit          3D

 43 50  0  0  0  0  0  0  0  0999 V2000
    9.0155    2.1355  -14.8071 C   0  0  0  0  0  0  0  0  0  0  0  0
    7.9475    1.3059  -15.1501 C   0  0  0  0  0  0  0  0  0  0  0  0
    6.7146    1.6147  -14.6147 C   0  0  0  0  0  0  0  0  0  0  0  0
    6.5670    2.7082  -13.7740 C   0  0  0  0  0  0  0  0  0  0  0  0
    5.3144    2.9604  -13.2755 C   0  0  0  0  0  0  0  0  0  0  0  0
    5.1880    4.0650  -12.4318 C   0  0  0  0  0  0  0  0  0  0  0  0
    6.2815    4.8450  -12.1317 C   0  0  0  0  0  0  0  0  0  0  0  0
    6.1406    5.8314  -11.3714 O   0  0  0  0  0  0  0  0  0  0  0  0
    7.5078    4.5984  -12.6196 N   0  0  0  0  0  0  0  0  0  0  0  0
    7.6320    3.5206  -13.4429 C   0  0  0  0  0  0  0  0  0  0  0  0
    8.8499    3.2211  -13.9677 C   0  0  0  0  0  0  0  0  0  0  0  0
   11.7884    6.4916  -19.2890 C   0  0  0  0  0  0  0  0  0  0  0  0
   12.4410    5.3773  -18.9047 N   0  0  0  0  0  0  0  0  0  0  0  0
   11.9383    4.4934  -18.0282 C   0  0  0  0  0  0  0  0  0  0  0  0
   12.5999    3.3509  -17.6306 C   0  0  0  0  0  0  0  0  0  0  0  0
   12.0579    2.4613  -16.7288 C   0  0  0  0  0  0  0  0  0  0  0  0
   10.8015    2.6937  -16.1812 C   0  0  0  0  0  0  0  0  0  0  0  0
   10.2847    1.8543  -15.3286 N   0  0  0  0  0  0  0  0  0  0  0  0
   10.1647    3.8106  -16.5757 N   0  0  0  0  0  0  0  0  0  0  0  0
    9.2152    4.0380  -16.1964 H   0  0  0  0  0  0  0  0  0  0  0  0
   10.6783    4.6900  -17.4547 C   0  0  0  0  0  0  0  0  0  0  0  0
   10.0196    5.8363  -17.8571 C   0  0  0  0  0  0  0  0  0  0  0  0
   10.5248    6.7420  -18.7498 C   0  0  0  0  0  0  0  0  0  0  0  0
    8.6354    5.4126  -12.3032 C   0  0  0  0  0  0  0  0  0  0  0  0
    9.5013    5.8832  -13.2697 C   0  0  0  0  0  0  0  0  0  0  0  0
   10.5802    6.6726  -12.8996 C   0  0  0  0  0  0  0  0  0  0  0  0
   10.8276    7.0135  -11.5727 C   0  0  0  0  0  0  0  0  0  0  0  0
   11.9038    7.8001  -11.2174 C   0  0  0  0  0  0  0  0  0  0  0  0
   12.1432    8.1370   -9.8897 C   0  0  0  0  0  0  0  0  0  0  0  0
   11.2715    7.6618   -8.9282 C   0  0  0  0  0  0  0  0  0  0  0  0
   10.2002    6.8766   -9.2977 C   0  0  0  0  0  0  0  0  0  0  0  0
    9.9567    6.5386  -10.6127 C   0  0  0  0  0  0  0  0  0  0  0  0
    8.8825    5.7503  -10.9996 C   0  0  0  0  0  0  0  0  0  0  0  0
   11.5281    8.0193   -7.5330 C   0  0  0  0  0  0  0  0  0  0  0  0
   12.0055    9.2717   -7.2382 C   0  0  0  0  0  0  0  0  0  0  0  0
   12.2629    9.6558   -5.9472 C   0  0  0  0  0  0  0  0  0  0  0  0
   12.0444    8.7779   -4.8937 C   0  0  0  0  0  0  0  0  0  0  0  0
   12.3069    9.1753   -3.5997 C   0  0  0  0  0  0  0  0  0  0  0  0
   12.0708    8.2596   -2.5928 C   0  0  0  0  0  0  0  0  0  0  0  0
   11.5961    7.0109   -2.8719 C   0  0  0  0  0  0  0  0  0  0  0  0
   11.3416    6.6354   -4.1627 C   0  0  0  0  0  0  0  0  0  0  0  0
   11.5616    7.5168   -5.2112 C   0  0  0  0  0  0  0  0  0  0  0  0
   11.3053    7.1360   -6.5064 C   0  0  0  0  0  0  0  0  0  0  0  0
 12 13  2  0
 13 14  1  0
 14 15  1  0
 15 16  2  0
 16 17  1  0
 17 18  2  0
 18  1  1  0
  1  2  2  0
  2  3  1  0
  3  4  2  0
  4  5  1  0
  5  6  2  0
  6  7  1  0
  7  8  2  0
  7  9  1  0
  9 24  1  0
 24 25  2  0
 25 26  1  0
 26 27  2  0
 27 28  1  0
 28 29  2  0
 29 30  1  0
 30 34  1  0
 34 35  2  0
 35 36  1  0
 36 37  2  0
 37 38  1  0
 38 39  2  0
 39 40  1  0
 40 41  2  0
 41 42  1  0
 42 43  2  0
 30 31  2  0
 31 32  1  0
 32 33  2  0
  9 10  1  0
 10 11  2  0
 17 19  1  0
 19 20  1  0
 19 21  1  0
 21 22  1  0
 22 23  2  0
 23 12  1  0
 21 14  2  0
 11  1  1  0
 10  4  1  0
 33 24  1  0
 32 27  1  0
 43 34  1  0
 42 37  1  0
M  END
>  <minimizedAffinity>  (773) 
-16.72997

$$$$
Mol: 117_38 - SminaDock
     RDKit          3D

 47 54  0  0  0  0  0  0  0  0999 V2000
    8.0529    3.2688  -14.2087 C   0  0  0  0  0  0  0  0  0  0  0  0
    8.0442    4.3562  -13.3578 C   0  0  0  0  0  0  0  0  0  0  0  0
    9.0565    5.3125  -13.3137 C   0  0  0  0  0  0  0  0  0  0  0  0
   10.1141    5.1480  -14.1735 C   0  0  0  0  0  0  0  0  0  0  0  0
   10.1868    4.0860  -15.0484 C   0  0  0  0  0  0  0  0  0  0  0  0
    9.1411    3.1734  -15.0335 C   0  0  0  0  0  0  0  0  0  0  0  0
    2.7775   -0.9731  -13.8267 O   0  0  0  0  0  0  0  0  0  0  0  0
    3.8084   -0.5032  -14.6544 C   0  0  0  0  0  0  0  0  0  0  0  0
    4.0188   -0.8943  -15.8555 N   0  0  0  0  0  0  0  0  0  0  0  0
    5.1452   -0.2346  -16.4428 C   0  0  2  0  0  0  0  0  0  0  0  0
    4.8474    0.4797  -17.7399 C   0  0  0  0  0  0  0  0  0  0  0  0
    5.2185   -0.5199  -18.7632 C   0  0  0  0  0  0  0  0  0  0  0  0
    5.9936   -1.4827  -18.2678 C   0  0  0  0  0  0  0  0  0  0  0  0
    6.2383   -1.2364  -16.8206 C   0  0  0  0  0  0  0  0  0  0  0  0
    5.6245    0.6776  -15.3810 C   0  0  0  0  0  0  0  0  0  0  0  0
    6.6921    1.5879  -15.3421 C   0  0  0  0  0  0  0  0  0  0  0  0
    6.9392    2.3189  -14.2171 C   0  0  0  0  0  0  0  0  0  0  0  0
    6.1233    2.1451  -13.1291 C   0  0  0  0  0  0  0  0  0  0  0  0
    5.0536    1.2401  -13.1562 C   0  0  0  0  0  0  0  0  0  0  0  0
    4.8074    0.5040  -14.2932 C   0  0  0  0  0  0  0  0  0  0  0  0
    2.1488   -1.6944  -14.2004 H   0  0  0  0  0  0  0  0  0  0  0  0
   11.3212    3.9595  -15.9310 C   0  0  0  0  0  0  0  0  0  0  0  0
   11.3440    3.0285  -16.9430 C   0  0  0  0  0  0  0  0  0  0  0  0
   12.4294    2.9076  -17.7868 C   0  0  0  0  0  0  0  0  0  0  0  0
   13.5222    3.7014  -17.6566 N   0  0  0  0  0  0  0  0  0  0  0  0
   13.5193    4.6161  -16.6762 C   0  0  0  0  0  0  0  0  0  0  0  0
   14.5602    5.3459  -16.5812 O   0  0  0  0  0  0  0  0  0  0  0  0
   12.4395    4.7610  -15.8102 C   0  0  0  0  0  0  0  0  0  0  0  0
   14.3160    3.5615  -18.3282 H   0  0  0  0  0  0  0  0  0  0  0  0
    9.0231    6.3803  -12.4098 N   0  0  0  0  0  0  0  0  0  0  0  0
    8.6737    7.3107  -12.7893 H   0  0  0  0  0  0  0  0  0  0  0  0
    9.3949    6.3705  -11.0594 C   0  0  0  0  0  0  0  0  0  0  0  0
    9.0503    5.4010  -10.1432 C   0  0  0  0  0  0  0  0  0  0  0  0
    9.4161    5.4779   -8.8259 C   0  0  0  0  0  0  0  0  0  0  0  0
   10.1507    6.5518   -8.3900 C   0  0  0  0  0  0  0  0  0  0  0  0
   10.5276    6.6645   -7.0398 C   0  0  0  0  0  0  0  0  0  0  0  0
   11.2493    7.7458   -6.6068 C   0  0  0  0  0  0  0  0  0  0  0  0
   11.5937    8.7112   -7.5209 C   0  0  0  0  0  0  0  0  0  0  0  0
   11.2370    8.6239   -8.8483 C   0  0  0  0  0  0  0  0  0  0  0  0
   10.5026    7.5259   -9.2918 C   0  0  0  0  0  0  0  0  0  0  0  0
   10.1275    7.4097  -10.5542 N   0  0  0  0  0  0  0  0  0  0  0  0
   11.6452    7.8872   -5.2258 C   0  0  0  0  0  0  0  0  0  0  0  0
   11.3612    6.8498   -4.3301 C   0  0  0  0  0  0  0  0  0  0  0  0
   11.7118    6.9365   -3.0096 C   0  0  0  0  0  0  0  0  0  0  0  0
   12.3532    8.0348   -2.5004 C   0  0  0  0  0  0  0  0  0  0  0  0
   12.6390    9.0710   -3.3859 C   0  0  0  0  0  0  0  0  0  0  0  0
   12.2907    8.9950   -4.7203 C   0  0  0  0  0  0  0  0  0  0  0  0
  7  8  1  0
  8  9  2  0
  9 10  1  0
 10 11  1  6
 11 12  1  0
 12 13  2  0
 13 14  1  0
 10 15  1  0
 15 16  2  0
 16 17  1  0
 17  1  1  0
  1  2  2  0
  2  3  1  0
  3 30  1  0
 30 32  1  0
 32 33  2  0
 33 34  1  0
 34 35  2  0
 35 36  1  0
 36 37  2  0
 37 42  1  0
 42 43  2  0
 43 44  1  0
 44 45  2  0
 45 46  1  0
 46 47  2  0
 37 38  1  0
 38 39  2  0
 39 40  1  0
 40 41  2  0
  3  4  2  0
  4  5  1  0
  5 22  1  0
 22 23  1  0
 23 24  2  0
 24 25  1  0
 25 26  1  0
 26 27  2  0
 26 28  1  0
  5  6  2  0
 17 18  2  0
 18 19  1  0
 19 20  2  0
 20  8  1  0
 14 10  1  0
 20 15  1  0
  6  1  1  0
 41 32  1  0
 28 22  2  0
 40 35  1  0
 47 42  1  0
  7 21  1  0
 30 31  1  0
 25 29  1  0
M  END
>  <minimizedAffinity>  (774) 
-16.69954

$$$$
Mol: 134_53 - SminaDock
     RDKit          3D

 50 58  0  0  0  0  0  0  0  0999 V2000
    5.4776   -0.2188  -15.0320 N   0  0  0  0  0  0  0  0  0  0  0  0
    4.3779   -0.2458  -14.2250 C   0  0  0  0  0  0  0  0  0  0  0  0
    3.5871   -1.1789  -14.3931 O   0  0  0  0  0  0  0  0  0  0  0  0
    4.1021    0.6770  -13.2608 C   0  0  0  0  0  0  0  0  0  0  0  0
    4.9702    1.7011  -13.0752 C   0  0  0  0  0  0  0  0  0  0  0  0
    6.0988    1.7697  -13.8654 C   0  0  0  0  0  0  0  0  0  0  0  0
    6.9926    2.7632  -13.6581 N   0  0  0  0  0  0  0  0  0  0  0  0
    8.1297    2.8489  -14.3694 C   0  0  0  0  0  0  0  0  0  0  0  0
    8.4342    1.9327  -15.3364 C   0  0  0  0  0  0  0  0  0  0  0  0
    7.5011    0.9106  -15.5427 C   0  0  0  0  0  0  0  0  0  0  0  0
    6.3300    0.7932  -14.8389 C   0  0  0  0  0  0  0  0  0  0  0  0
    9.5624    1.7518  -16.2578 C   0  0  0  0  0  0  0  0  0  0  0  0
   10.8388    2.4184  -15.8097 C   0  0  1  0  0  0  0  0  0  0  0  0
   11.8739    2.1605  -16.8938 C   0  0  0  0  0  0  0  0  0  0  0  0
   12.6131    3.4347  -17.0746 C   0  0  0  0  0  0  0  0  0  0  0  0
   13.4689    3.6028  -17.8985 O   0  0  0  0  0  0  0  0  0  0  0  0
   12.1082    4.4214  -16.0781 C   0  0  0  0  0  0  0  0  0  0  0  0
   10.7292    3.9199  -15.8068 C   0  0  2  0  0  0  0  0  0  0  0  0
   10.0886    4.4716  -14.6034 C   0  0  0  0  0  0  0  0  0  0  0  0
   10.7194    5.5895  -14.0623 C   0  0  0  0  0  0  0  0  0  0  0  0
   10.2615    6.2377  -12.9472 C   0  0  0  0  0  0  0  0  0  0  0  0
    9.0963    5.7099  -12.3573 C   0  0  0  0  0  0  0  0  0  0  0  0
    8.4457    4.6103  -12.8595 C   0  0  0  0  0  0  0  0  0  0  0  0
    8.9633    4.0030  -13.9912 C   0  0  0  0  0  0  0  0  0  0  0  0
   10.8749    7.3838  -12.3855 N   0  0  0  0  0  0  0  0  0  0  0  0
   11.1235    8.1789  -13.0824 H   0  0  0  0  0  0  0  0  0  0  0  0
   11.1627    7.5328  -11.0275 C   0  0  0  0  0  0  0  0  0  0  0  0
   12.4116    8.0674  -10.6690 C   0  0  0  0  0  0  0  0  0  0  0  0
   12.6924    8.1985   -9.3583 N   0  0  0  0  0  0  0  0  0  0  0  0
   11.8355    7.8422   -8.4013 C   0  0  0  0  0  0  0  0  0  0  0  0
   12.1354    7.9844   -7.0418 C   0  0  0  0  0  0  0  0  0  0  0  0
   11.2366    7.6130   -6.0622 C   0  0  0  0  0  0  0  0  0  0  0  0
   10.0241    7.0933   -6.4584 C   0  0  0  0  0  0  0  0  0  0  0  0
    9.7094    6.9448   -7.8082 C   0  0  0  0  0  0  0  0  0  0  0  0
   10.6114    7.3178   -8.7746 C   0  0  0  0  0  0  0  0  0  0  0  0
   10.3105    7.1783  -10.0719 N   0  0  0  0  0  0  0  0  0  0  0  0
   11.5767    7.7746   -4.6487 C   0  0  0  0  0  0  0  0  0  0  0  0
   11.6407    6.6768   -3.8269 C   0  0  0  0  0  0  0  0  0  0  0  0
   11.9693    6.9049   -2.4957 C   0  0  0  0  0  0  0  0  0  0  0  0
   12.2178    8.1696   -2.0265 C   0  0  0  0  0  0  0  0  0  0  0  0
   12.1475    9.2576   -2.8711 C   0  0  0  0  0  0  0  0  0  0  0  0
   11.8245    9.0467   -4.1862 C   0  0  0  0  0  0  0  0  0  0  0  0
    5.7060   -1.2819  -15.9660 C   0  0  0  0  0  0  0  0  0  0  0  0
    5.3539   -3.5462  -17.9391 C   0  0  0  0  0  0  0  0  0  0  0  0
    5.0249   -2.1285  -18.2189 C   0  0  0  0  0  0  0  0  0  0  0  0
    4.5116   -1.8323  -19.4899 C   0  0  0  0  0  0  0  0  0  0  0  0
    4.1636   -0.5628  -19.8908 C   0  0  0  0  0  0  0  0  0  0  0  0
    4.3475    0.4349  -18.9593 C   0  0  0  0  0  0  0  0  0  0  0  0
    4.8429    0.2061  -17.7076 C   0  0  0  0  0  0  0  0  0  0  0  0
    5.1878   -1.1098  -17.3360 C   0  0  0  0  0  0  0  0  0  0  0  0
 44 45  1  0
 45 46  2  0
 46 47  1  0
 47 48  2  0
 48 49  1  0
 49 50  2  0
 50 43  1  0
 43  1  1  0
  1  2  1  0
  2  3  2  0
  2  4  1  0
  4  5  2  0
  5  6  1  0
  6  7  2  0
  7  8  1  0
  8  9  2  0
  9 10  1  0
 10 11  2  0
  9 12  1  0
 13 12  1  6
 13 14  1  0
 14 15  1  0
 15 16  2  0
 15 17  1  0
 18 17  1  1
 18 19  1  0
 19 20  2  0
 20 21  1  0
 21 25  1  0
 25 27  1  0
 27 28  2  0
 28 29  1  0
 29 30  2  0
 30 31  1  0
 31 32  2  0
 32 37  1  0
 37 38  2  0
 38 39  1  0
 39 40  2  0
 40 41  1  0
 41 42  2  0
 32 33  1  0
 33 34  2  0
 34 35  1  0
 35 36  2  0
 21 22  2  0
 22 23  1  0
 23 24  2  0
 50 45  1  0
 11  1  1  0
 18 13  1  0
 24 19  1  0
 11  6  1  0
 36 27  1  0
 24  8  1  0
 35 30  1  0
 42 37  1  0
 25 26  1  0
M  END
>  <minimizedAffinity>  (775) 
-16.65288

$$$$
Mol: 134_57 - SminaDock
     RDKit          3D

 38 44  0  0  0  0  0  0  0  0999 V2000
    4.1527   -2.6530  -16.1159 H   0  0  0  0  0  0  0  0  0  0  0  0
    4.1956   -1.6691  -15.8786 O   0  0  0  0  0  0  0  0  0  0  0  0
    5.3789   -0.9299  -15.9569 C   0  0  0  0  0  0  0  0  0  0  0  0
    6.3433   -1.2999  -16.7660 N   0  0  0  0  0  0  0  0  0  0  0  0
    7.4054   -0.3694  -16.6316 C   0  0  0  0  0  0  0  0  0  0  0  0
    8.4842   -0.4273  -17.2638 O   0  0  0  0  0  0  0  0  0  0  0  0
    7.0429    0.6464  -15.6557 C   0  0  0  0  0  0  0  0  0  0  0  0
    7.6120    1.7713  -15.1031 C   0  0  0  0  0  0  0  0  0  0  0  0
    6.9321    2.5323  -14.1498 C   0  0  0  0  0  0  0  0  0  0  0  0
    5.6719    2.1699  -13.7453 C   0  0  0  0  0  0  0  0  0  0  0  0
    5.0838    1.0106  -14.3117 C   0  0  0  0  0  0  0  0  0  0  0  0
    5.7676    0.2771  -15.2439 C   0  0  0  0  0  0  0  0  0  0  0  0
    4.9028    2.9751  -12.8065 C   0  0  0  0  0  0  0  0  0  0  0  0
    5.6258    3.9355  -11.9655 C   0  0  0  0  0  0  0  0  0  0  0  0
    6.9173    4.3892  -12.5103 C   0  0  0  0  0  0  0  0  0  0  0  0
    7.5240    5.5257  -11.9627 C   0  0  0  0  0  0  0  0  0  0  0  0
    8.7547    5.9572  -12.3958 C   0  0  0  0  0  0  0  0  0  0  0  0
    9.3824    5.2459  -13.3842 C   0  0  0  0  0  0  0  0  0  0  0  0
    8.7821    4.1127  -13.9350 C   0  0  0  0  0  0  0  0  0  0  0  0
    7.5635    3.6804  -13.5118 C   0  0  0  0  0  0  0  0  0  0  0  0
    9.3427    7.1238  -11.8108 N   0  0  0  0  0  0  0  0  0  0  0  0
    9.6731    7.0862  -10.5781 C   0  0  0  0  0  0  0  0  0  0  0  0
    9.4798    5.9825   -9.8317 N   0  0  0  0  0  0  0  0  0  0  0  0
    9.8328    5.9727   -8.5554 N   0  0  0  0  0  0  0  0  0  0  0  0
   10.3907    7.0275   -7.9337 C   0  0  0  0  0  0  0  0  0  0  0  0
   10.7598    7.0216   -6.6052 C   0  0  0  0  0  0  0  0  0  0  0  0
   11.3311    8.1118   -5.9817 C   0  0  0  0  0  0  0  0  0  0  0  0
   11.5286    9.2422   -6.7490 C   0  0  0  0  0  0  0  0  0  0  0  0
   11.1659    9.2697   -8.0830 C   0  0  0  0  0  0  0  0  0  0  0  0
   10.5930    8.1666   -8.6945 C   0  0  0  0  0  0  0  0  0  0  0  0
   10.2364    8.1829   -9.9923 N   0  0  0  0  0  0  0  0  0  0  0  0
   10.3978    9.0531  -10.5491 H   0  0  0  0  0  0  0  0  0  0  0  0
   11.7114    8.0621   -4.5547 C   0  0  0  0  0  0  0  0  0  0  0  0
   11.7012    6.8741   -3.8560 C   0  0  0  0  0  0  0  0  0  0  0  0
   12.0434    6.7609   -2.5298 C   0  0  0  0  0  0  0  0  0  0  0  0
   12.4165    7.9083   -1.8718 C   0  0  0  0  0  0  0  0  0  0  0  0
   12.4345    9.1135   -2.5525 C   0  0  0  0  0  0  0  0  0  0  0  0
   12.0863    9.2012   -3.8846 C   0  0  0  0  0  0  0  0  0  0  0  0
  1  2  1  0
  2  3  1  0
  3  4  2  0
  4  5  1  0
  5  6  2  0
  5  7  1  0
  7  8  2  0
  8  9  1  0
  9 10  2  0
 10 11  1  0
 11 12  2  0
 10 13  1  0
 13 14  1  0
 14 15  1  0
 15 16  2  0
 16 17  1  0
 17 21  1  0
 21 22  2  0
 22 23  1  0
 23 24  2  0
 24 25  1  0
 25 26  2  0
 26 27  1  0
 27 33  1  0
 33 34  2  0
 34 35  1  0
 35 36  2  0
 36 37  1  0
 37 38  2  0
 27 28  2  0
 28 29  1  0
 29 30  2  0
 30 31  1  0
 31 32  1  0
 17 18  2  0
 18 19  1  0
 19 20  2  0
 12  3  1  0
 20 15  1  0
 12  7  1  0
 31 22  1  0
 20  9  1  0
 30 25  1  0
 38 33  1  0
M  END
>  <minimizedAffinity>  (776) 
-16.70856

$$$$
Mol: 181_6 - SminaDock
     RDKit          3D

 38 44  0  0  0  0  0  0  0  0999 V2000
    9.0803    6.2103  -12.4585 C   0  0  0  0  0  0  0  0  0  0  0  0
    9.8711    5.6270  -13.4222 C   0  0  0  0  0  0  0  0  0  0  0  0
    9.4459    4.4608  -14.0780 C   0  0  0  0  0  0  0  0  0  0  0  0
    8.2376    3.8833  -13.7709 C   0  0  0  0  0  0  0  0  0  0  0  0
    7.4503    4.4630  -12.8122 C   0  0  0  0  0  0  0  0  0  0  0  0
    7.8734    5.6175  -12.1644 C   0  0  0  0  0  0  0  0  0  0  0  0
    6.1874    3.8063  -12.5339 C   0  0  0  0  0  0  0  0  0  0  0  0
    5.4257    4.3189  -11.6447 O   0  0  0  0  0  0  0  0  0  0  0  0
    5.7450    2.5883  -13.2206 C   0  0  0  0  0  0  0  0  0  0  0  0
    4.5316    2.0170  -12.9066 C   0  0  0  0  0  0  0  0  0  0  0  0
    4.1624    0.8781  -13.5778 C   0  0  0  0  0  0  0  0  0  0  0  0
    4.9705    0.3108  -14.5397 C   0  0  0  0  0  0  0  0  0  0  0  0
    4.5250   -0.8295  -15.1646 C   0  0  0  0  0  0  0  0  0  0  0  0
    5.3193   -1.4082  -16.1280 C   0  0  0  0  0  0  0  0  0  0  0  0
    6.5394   -0.8541  -16.4599 C   0  0  0  0  0  0  0  0  0  0  0  0
    6.9880    0.2908  -15.8332 C   0  0  0  0  0  0  0  0  0  0  0  0
    6.1963    0.8713  -14.8702 C   0  0  0  0  0  0  0  0  0  0  0  0
    6.5768    2.0202  -14.1983 C   0  0  0  0  0  0  0  0  0  0  0  0
    7.8451    2.6525  -14.4993 C   0  0  0  0  0  0  0  0  0  0  0  0
    8.6359    2.2196  -15.3436 O   0  0  0  0  0  0  0  0  0  0  0  0
   11.3113    8.1855   -5.8604 C   0  0  0  0  0  0  0  0  0  0  0  0
   11.3508    9.3942   -6.5583 C   0  0  0  0  0  0  0  0  0  0  0  0
   10.9932    9.4802   -7.8866 C   0  0  0  0  0  0  0  0  0  0  0  0
   10.5785    8.3649   -8.5848 C   0  0  0  0  0  0  0  0  0  0  0  0
   10.5352    7.1655   -7.9064 C   0  0  0  0  0  0  0  0  0  0  0  0
   10.1201    6.0522   -8.6132 C   0  0  0  0  0  0  0  0  0  0  0  0
    9.7803    6.1682   -9.9060 N   0  0  0  0  0  0  0  0  0  0  0  0
    9.8224    7.3347  -10.5664 C   0  0  0  0  0  0  0  0  0  0  0  0
    9.4922    7.3818  -11.7894 N   0  0  0  0  0  0  0  0  0  0  0  0
   10.2248    8.4211   -9.8851 N   0  0  0  0  0  0  0  0  0  0  0  0
   10.2591    9.3301  -10.3931 H   0  0  0  0  0  0  0  0  0  0  0  0
   10.8958    7.0786   -6.5662 C   0  0  0  0  0  0  0  0  0  0  0  0
   12.4019    7.8161   -1.7840 C   0  0  0  0  0  0  0  0  0  0  0  0
   12.4291    9.0662   -2.3764 C   0  0  0  0  0  0  0  0  0  0  0  0
   12.0749    9.1867   -3.6999 C   0  0  0  0  0  0  0  0  0  0  0  0
   11.6932    8.1072   -4.4599 C   0  0  0  0  0  0  0  0  0  0  0  0
   11.6759    6.8783   -3.8445 C   0  0  0  0  0  0  0  0  0  0  0  0
   12.0239    6.7223   -2.5236 C   0  0  0  0  0  0  0  0  0  0  0  0
 33 34  2  0
 34 35  1  0
 35 36  2  0
 36 21  1  0
 21 22  2  0
 22 23  1  0
 23 24  2  0
 24 25  1  0
 25 26  1  0
 26 27  2  0
 27 28  1  0
 28 29  2  0
 29  1  1  0
  1  2  2  0
  2  3  1  0
  3  4  2  0
  4  5  1  0
  5  6  2  0
  5  7  1  0
  7  8  2  0
  7  9  1  0
  9 10  2  0
 10 11  1  0
 11 12  2  0
 12 13  1  0
 13 14  2  0
 14 15  1  0
 15 16  2  0
 16 17  1  0
 17 18  2  0
 18 19  1  0
 19 20  2  0
 28 30  1  0
 30 31  1  0
 25 32  2  0
 36 37  1  0
 37 38  2  0
 38 33  1  0
 32 21  1  0
 30 24  1  0
  6  1  1  0
 18  9  1  0
 19  4  1  0
 17 12  1  0
M  END
>  <minimizedAffinity>  (777) 
-16.69804

$$$$
Mol: 189_46 - SminaDock
     RDKit          3D

 36 42  0  0  0  0  0  0  0  0999 V2000
    5.7024   -1.5528  -16.2563 C   0  0  0  0  0  0  0  0  0  0  0  0
    6.5509   -0.5412  -16.0320 N   0  0  0  0  0  0  0  0  0  0  0  0
    6.3599    0.4381  -15.1336 C   0  0  0  0  0  0  0  0  0  0  0  0
    7.2450    1.4692  -14.9161 C   0  0  0  0  0  0  0  0  0  0  0  0
    7.0224    2.4619  -13.9831 C   0  0  0  0  0  0  0  0  0  0  0  0
    5.8624    2.4042  -13.2481 C   0  0  0  0  0  0  0  0  0  0  0  0
    4.9474    1.3736  -13.4454 C   0  0  0  0  0  0  0  0  0  0  0  0
    5.1975    0.3898  -14.3894 C   0  0  0  0  0  0  0  0  0  0  0  0
    4.3207   -0.6608  -14.6253 C   0  0  0  0  0  0  0  0  0  0  0  0
    3.2599   -0.6923  -13.9360 O   0  0  0  0  0  0  0  0  0  0  0  0
    4.5717   -1.6112  -15.5413 N   0  0  0  0  0  0  0  0  0  0  0  0
    5.8140    3.5409  -12.3194 C   0  0  0  0  0  0  0  0  0  0  0  0
    7.0653    4.2968  -12.5539 C   0  0  0  0  0  0  0  0  0  0  0  0
    7.5604    5.4563  -11.9599 C   0  0  0  0  0  0  0  0  0  0  0  0
    8.7759    5.9622  -12.3703 C   0  0  0  0  0  0  0  0  0  0  0  0
    9.4812    5.3133  -13.3614 C   0  0  0  0  0  0  0  0  0  0  0  0
    8.9669    4.1541  -13.9421 C   0  0  0  0  0  0  0  0  0  0  0  0
    7.7522    3.6439  -13.5353 C   0  0  0  0  0  0  0  0  0  0  0  0
    9.2614    7.1387  -11.7466 N   0  0  0  0  0  0  0  0  0  0  0  0
    9.6218    7.1226  -10.5239 C   0  0  0  0  0  0  0  0  0  0  0  0
    9.5441    5.9930   -9.8211 N   0  0  0  0  0  0  0  0  0  0  0  0
    9.9065    5.9022   -8.5236 C   0  0  0  0  0  0  0  0  0  0  0  0
   10.3818    7.0368   -7.8928 C   0  0  0  0  0  0  0  0  0  0  0  0
   10.7736    7.0123   -6.5552 C   0  0  0  0  0  0  0  0  0  0  0  0
   11.2439    8.1602   -5.9547 C   0  0  0  0  0  0  0  0  0  0  0  0
   11.3102    9.3095   -6.7123 C   0  0  0  0  0  0  0  0  0  0  0  0
   10.9267    9.3508   -8.0362 C   0  0  0  0  0  0  0  0  0  0  0  0
   10.4642    8.2067   -8.6147 C   0  0  0  0  0  0  0  0  0  0  0  0
   10.0806    8.2314   -9.9268 N   0  0  0  0  0  0  0  0  0  0  0  0
   10.1361    9.1044  -10.4866 H   0  0  0  0  0  0  0  0  0  0  0  0
   11.6518    8.1197   -4.5572 C   0  0  0  0  0  0  0  0  0  0  0  0
   11.6549    6.8792   -3.9279 C   0  0  0  0  0  0  0  0  0  0  0  0
   12.0210    6.7288   -2.6153 C   0  0  0  0  0  0  0  0  0  0  0  0
   12.3954    7.8491   -1.9086 C   0  0  0  0  0  0  0  0  0  0  0  0
   12.3998    9.0808   -2.5088 C   0  0  0  0  0  0  0  0  0  0  0  0
   12.0309    9.2276   -3.8291 C   0  0  0  0  0  0  0  0  0  0  0  0
  1  2  2  0
  2  3  1  0
  3  4  2  0
  4  5  1  0
  5  6  2  0
  6  7  1  0
  7  8  2  0
  8  9  1  0
  9 10  2  0
  9 11  1  0
  6 12  1  0
 12 13  1  0
 13 14  2  0
 14 15  1  0
 15 19  1  0
 19 20  2  0
 20 21  1  0
 21 22  2  0
 22 23  1  0
 23 24  2  0
 24 25  1  0
 25 31  1  0
 31 32  2  0
 32 33  1  0
 33 34  2  0
 34 35  1  0
 35 36  2  0
 25 26  2  0
 26 27  1  0
 27 28  2  0
 28 29  1  0
 29 30  1  0
 15 16  2  0
 16 17  1  0
 17 18  2  0
 11  1  1  0
 18 13  1  0
  8  3  1  0
 29 20  1  0
 18  5  1  0
 28 23  1  0
 36 31  1  0
M  CHG  1  11  -1
M  END
>  <minimizedAffinity>  (778) 
-16.73100

$$$$
Mol: 189_51 - SminaDock
     RDKit          3D

 41 48  0  0  0  0  0  0  0  0999 V2000
    9.1134    6.1672  -12.4803 C   0  0  0  0  0  0  0  0  0  0  0  0
    7.9459    6.3102  -11.7282 C   0  0  0  0  0  0  0  0  0  0  0  0
    6.8608    5.4776  -11.8961 C   0  0  0  0  0  0  0  0  0  0  0  0
    6.9459    4.4689  -12.8470 C   0  0  0  0  0  0  0  0  0  0  0  0
    8.0907    4.3213  -13.5910 C   0  0  0  0  0  0  0  0  0  0  0  0
    9.1645    5.1567  -13.4146 C   0  0  0  0  0  0  0  0  0  0  0  0
    7.9393    3.1971  -14.5186 C   0  0  0  0  0  0  0  0  0  0  0  0
    8.8091    2.6665  -15.4585 C   0  0  0  0  0  0  0  0  0  0  0  0
    8.4653    1.5790  -16.2498 C   0  0  0  0  0  0  0  0  0  0  0  0
    7.2031    1.0555  -16.0451 C   0  0  0  0  0  0  0  0  0  0  0  0
    6.3236    1.5958  -15.0914 C   0  0  0  0  0  0  0  0  0  0  0  0
    6.6859    2.6723  -14.3199 C   0  0  0  0  0  0  0  0  0  0  0  0
    5.9637    3.4332  -13.2524 C   0  0  0  0  0  0  0  0  0  0  0  0
    6.7475   -0.1127  -16.8514 C   0  0  0  0  0  0  0  0  0  0  0  0
    7.8582   -0.9068  -17.1715 O   0  0  0  0  0  0  0  0  0  0  0  0
    9.1791   -0.4941  -17.1542 C   0  0  0  0  0  0  0  0  0  0  0  0
   10.1441   -1.2900  -17.0606 O   0  0  0  0  0  0  0  0  0  0  0  0
    9.3822    0.9954  -17.2565 C   0  0  2  0  0  0  0  0  0  0  0  0
   10.8174    1.3112  -16.9532 C   0  0  0  0  0  0  0  0  0  0  0  0
   11.7406    0.7347  -18.0107 C   0  0  0  0  0  0  0  0  0  0  0  0
   11.2914    0.9189  -19.2963 O   0  0  0  0  0  0  0  0  0  0  0  0
    9.9988    0.5390  -19.5461 C   0  0  0  0  0  0  0  0  0  0  0  0
    9.0704    1.3965  -18.6737 C   0  0  0  0  0  0  0  0  0  0  0  0
   11.1910    7.5811   -6.0914 C   0  0  0  0  0  0  0  0  0  0  0  0
   10.1228    6.7352   -6.3392 C   0  0  0  0  0  0  0  0  0  0  0  0
    9.7122    6.4573   -7.6346 C   0  0  0  0  0  0  0  0  0  0  0  0
   10.3657    7.0231   -8.7135 C   0  0  0  0  0  0  0  0  0  0  0  0
   11.4367    7.8710   -8.4592 C   0  0  0  0  0  0  0  0  0  0  0  0
   11.8394    8.1423   -7.1529 C   0  0  0  0  0  0  0  0  0  0  0  0
   12.0985    8.4430   -9.5257 C   0  0  0  0  0  0  0  0  0  0  0  0
   11.6596    8.1412  -10.7950 C   0  0  0  0  0  0  0  0  0  0  0  0
   10.5980    7.3009  -11.0523 C   0  0  0  0  0  0  0  0  0  0  0  0
   10.2209    7.0467  -12.2813 N   0  0  0  0  0  0  0  0  0  0  0  0
    9.9754    6.7605   -9.9895 N   0  0  0  0  0  0  0  0  0  0  0  0
    9.1789    6.1294  -10.1550 H   0  0  0  0  0  0  0  0  0  0  0  0
   12.2604    8.2963   -2.0142 C   0  0  0  0  0  0  0  0  0  0  0  0
   12.1078    9.3293   -2.9024 C   0  0  0  0  0  0  0  0  0  0  0  0
   11.7630    9.0977   -4.2170 C   0  0  0  0  0  0  0  0  0  0  0  0
   11.5561    7.8192   -4.6981 C   0  0  0  0  0  0  0  0  0  0  0  0
   11.7124    6.7839   -3.7948 C   0  0  0  0  0  0  0  0  0  0  0  0
   12.0591    7.0095   -2.4708 C   0  0  0  0  0  0  0  0  0  0  0  0
 36 37  2  0
 37 38  1  0
 38 39  2  0
 39 24  1  0
 24 25  2  0
 25 26  1  0
 26 27  2  0
 27 28  1  0
 28 29  2  0
 28 30  1  0
 30 31  2  0
 31 32  1  0
 32 33  2  0
 33  1  1  0
  1  2  2  0
  2  3  1  0
  3  4  2  0
  4  5  1  0
  5  6  2  0
  5  7  1  0
  7  8  2  0
  8  9  1  0
  9 10  2  0
 10 11  1  0
 11 12  2  0
 12 13  1  0
 10 14  1  0
 14 15  1  0
 15 16  1  0
 16 17  2  0
 16 18  1  0
 18 19  1  1
 19 20  1  0
 20 21  1  0
 21 22  1  0
 22 23  1  0
 32 34  1  0
 34 35  1  0
 39 40  1  0
 40 41  2  0
 41 36  1  0
 29 24  1  0
  6  1  1  0
 12  7  1  0
 23 18  1  0
 34 27  1  0
 13  4  1  0
 18  9  1  0
M  END
>  <minimizedAffinity>  (779) 
-16.71874

$$$$
Mol: 189_55 - SminaDock
     RDKit          3D

 36 42  0  0  0  0  0  0  0  0999 V2000
   11.2233    8.0343   -6.0118 C   0  0  0  0  0  0  0  0  0  0  0  0
   11.3584    9.1964   -6.7314 C   0  0  0  0  0  0  0  0  0  0  0  0
   10.9904    9.2418   -8.0592 C   0  0  0  0  0  0  0  0  0  0  0  0
   10.4757    8.1116   -8.6939 C   0  0  0  0  0  0  0  0  0  0  0  0
   10.3531    6.9757   -7.9578 C   0  0  0  0  0  0  0  0  0  0  0  0
   10.7216    6.9285   -6.6264 C   0  0  0  0  0  0  0  0  0  0  0  0
    9.8495    5.8252   -8.5328 C   0  0  0  0  0  0  0  0  0  0  0  0
    9.4809    5.8564   -9.8485 C   0  0  0  0  0  0  0  0  0  0  0  0
    9.6203    7.0262  -10.5609 C   0  0  0  0  0  0  0  0  0  0  0  0
    9.2696    7.0455  -11.8031 N   0  0  0  0  0  0  0  0  0  0  0  0
   10.1109    8.1295   -9.9822 N   0  0  0  0  0  0  0  0  0  0  0  0
   10.2176    9.0260  -10.5285 H   0  0  0  0  0  0  0  0  0  0  0  0
    8.7453    5.8763  -12.4330 C   0  0  0  0  0  0  0  0  0  0  0  0
    9.3958    5.2581  -13.4803 C   0  0  0  0  0  0  0  0  0  0  0  0
    8.8739    4.1233  -14.0824 C   0  0  0  0  0  0  0  0  0  0  0  0
    7.6715    3.6030  -13.6173 C   0  0  0  0  0  0  0  0  0  0  0  0
    7.0113    4.2018  -12.5768 C   0  0  0  0  0  0  0  0  0  0  0  0
    7.5615    5.3604  -11.9769 C   0  0  0  0  0  0  0  0  0  0  0  0
    5.7758    3.6480  -12.0246 C   0  0  0  0  0  0  0  0  0  0  0  0
    5.0386    2.6468  -12.8156 C   0  0  0  0  0  0  0  0  0  0  0  0
    5.8240    1.9612  -13.8451 C   0  0  0  0  0  0  0  0  0  0  0  0
    7.0483    2.4415  -14.2620 C   0  0  0  0  0  0  0  0  0  0  0  0
    7.7426    1.8071  -15.2672 C   0  0  0  0  0  0  0  0  0  0  0  0
    7.1844    0.6718  -15.8511 C   0  0  0  0  0  0  0  0  0  0  0  0
    7.6672   -0.1348  -16.8583 C   0  0  0  0  0  0  0  0  0  0  0  0
    8.9512    0.0247  -17.5895 C   0  0  0  0  0  0  0  0  0  0  0  0
    6.7153   -1.0782  -17.0137 N   0  0  0  0  0  0  0  0  0  0  0  0
    5.7369   -0.8789  -16.1855 O   0  0  0  0  0  0  0  0  0  0  0  0
    5.9634    0.1939  -15.4318 C   0  0  0  0  0  0  0  0  0  0  0  0
    5.2560    0.8166  -14.4291 C   0  0  0  0  0  0  0  0  0  0  0  0
   12.3840    7.9517   -1.9312 C   0  0  0  0  0  0  0  0  0  0  0  0
   12.0524    6.7906   -2.5774 C   0  0  0  0  0  0  0  0  0  0  0  0
   11.6761    6.8367   -3.9088 C   0  0  0  0  0  0  0  0  0  0  0  0
   11.6259    8.0319   -4.6083 C   0  0  0  0  0  0  0  0  0  0  0  0
   11.9665    9.1677   -3.9197 C   0  0  0  0  0  0  0  0  0  0  0  0
   12.3465    9.1628   -2.5933 C   0  0  0  0  0  0  0  0  0  0  0  0
 31 32  2  0
 32 33  1  0
 33 34  2  0
 34  1  1  0
  1  2  2  0
  2  3  1  0
  3  4  2  0
  4  5  1  0
  5  6  2  0
  5  7  1  0
  7  8  2  0
  8  9  1  0
  9 10  2  0
 10 13  1  0
 13 14  2  0
 14 15  1  0
 15 16  2  0
 16 17  1  0
 17 18  2  0
 17 19  1  0
 19 20  1  0
 20 21  1  0
 21 22  2  0
 22 23  1  0
 23 24  2  0
 24 25  1  0
 25 26  1  0
 25 27  2  0
 27 28  1  0
 28 29  1  0
 29 30  2  0
  9 11  1  0
 11 12  1  0
 34 35  1  0
 35 36  2  0
 36 31  1  0
  6  1  1  0
 18 13  1  0
 30 21  1  0
 11  4  1  0
 22 16  1  0
 29 24  1  0
M  END
>  <minimizedAffinity>  (780) 
-16.67233

$$$$
Mol: 150_33 - SminaDock
     RDKit          3D

 38 44  0  0  0  0  0  0  0  0999 V2000
    7.9560    5.1419  -12.3956 C   0  0  0  0  0  0  0  0  0  0  0  0
    6.6205    5.3038  -12.0813 C   0  0  0  0  0  0  0  0  0  0  0  0
    5.7103    4.3470  -12.4654 C   0  0  0  0  0  0  0  0  0  0  0  0
    6.0913    3.2013  -13.1716 C   0  0  0  0  0  0  0  0  0  0  0  0
    7.4034    3.0522  -13.4748 C   0  0  0  0  0  0  0  0  0  0  0  0
    8.3393    4.0186  -13.0895 C   0  0  0  0  0  0  0  0  0  0  0  0
    9.7623    3.8024  -13.4485 C   0  0  0  0  0  0  0  0  0  0  0  0
    8.0720    1.9670  -14.1949 C   0  0  0  0  0  0  0  0  0  0  0  0
    7.1951    1.2244  -15.1297 C   0  0  0  0  0  0  0  0  0  0  0  0
    7.7466    0.9731  -16.3671 C   0  0  0  0  0  0  0  0  0  0  0  0
    7.0476    0.2867  -17.3489 C   0  0  0  0  0  0  0  0  0  0  0  0
    5.7556   -0.1582  -17.0731 C   0  0  0  0  0  0  0  0  0  0  0  0
    5.2083    0.0919  -15.8434 C   0  0  0  0  0  0  0  0  0  0  0  0
    5.9208    0.7742  -14.8869 C   0  0  0  0  0  0  0  0  0  0  0  0
    5.1388    0.9387  -13.6235 C   0  0  0  0  0  0  0  0  0  0  0  0
    4.9101    2.3912  -13.4280 C   0  0  0  0  0  0  0  0  0  0  0  0
    5.0965   -0.8338  -18.0705 O   0  0  0  0  0  0  0  0  0  0  0  0
    5.3964   -0.6885  -19.4413 C   0  0  0  0  0  0  0  0  0  0  0  0
    6.8401   -0.4133  -19.7055 C   0  0  0  0  0  0  0  0  0  0  0  0
    7.5654    0.0175  -18.5947 O   0  0  0  0  0  0  0  0  0  0  0  0
   11.2896    7.6692   -6.4565 C   0  0  0  0  0  0  0  0  0  0  0  0
   11.8789    8.4733   -7.4240 C   0  0  0  0  0  0  0  0  0  0  0  0
   11.5127    8.3166   -8.7601 C   0  0  0  0  0  0  0  0  0  0  0  0
   10.5764    7.3788   -9.1407 C   0  0  0  0  0  0  0  0  0  0  0  0
   10.1906    7.1901  -10.4151 N   0  0  0  0  0  0  0  0  0  0  0  0
    9.2746    6.2681  -10.7622 C   0  0  0  0  0  0  0  0  0  0  0  0
    8.9214    6.1111  -12.0138 N   0  0  0  0  0  0  0  0  0  0  0  0
    8.6860    5.4757   -9.8566 N   0  0  0  0  0  0  0  0  0  0  0  0
    7.9686    4.7493  -10.1050 H   0  0  0  0  0  0  0  0  0  0  0  0
    9.0386    5.6260   -8.5680 C   0  0  0  0  0  0  0  0  0  0  0  0
    9.9855    6.5755   -8.1887 C   0  0  0  0  0  0  0  0  0  0  0  0
   10.3620    6.7467   -6.8718 C   0  0  0  0  0  0  0  0  0  0  0  0
   12.3973    8.1344   -2.3965 C   0  0  0  0  0  0  0  0  0  0  0  0
   11.8800    6.9447   -2.8396 C   0  0  0  0  0  0  0  0  0  0  0  0
   11.5228    6.8052   -4.1645 C   0  0  0  0  0  0  0  0  0  0  0  0
   11.6689    7.8310   -5.0695 C   0  0  0  0  0  0  0  0  0  0  0  0
   12.1889    9.0129   -4.6035 C   0  0  0  0  0  0  0  0  0  0  0  0
   12.5546    9.1789   -3.2822 C   0  0  0  0  0  0  0  0  0  0  0  0
 33 34  2  0
 34 35  1  0
 35 36  2  0
 36 21  1  0
 21 22  1  0
 22 23  2  0
 23 24  1  0
 24 25  2  0
 25 26  1  0
 26 27  2  0
 27  1  1  0
  1  2  2  0
  2  3  1  0
  3  4  2  0
  4  5  1  0
  5  6  2  0
  6  7  1  0
  5  8  1  0
  8  9  1  0
  9 10  2  0
 10 11  1  0
 11 12  2  0
 12 13  1  0
 13 14  2  0
 14 15  1  0
 15 16  1  0
 12 17  1  0
 17 18  1  0
 18 19  1  0
 19 20  1  0
 26 28  1  0
 28 29  1  0
 28 30  1  0
 30 31  2  0
 31 32  1  0
 36 37  1  0
 37 38  2  0
 38 33  1  0
 32 21  2  0
 31 24  1  0
  6  1  1  0
 14  9  1  0
 16  4  1  0
 20 11  1  0
M  END
>  <minimizedAffinity>  (781) 
-16.66298

$$$$
Mol: 168_26 - SminaDock
     RDKit          3D

 37 43  0  0  0  0  0  0  0  0999 V2000
    5.3288   -1.5772  -16.3047 C   0  0  0  0  0  0  0  0  0  0  0  0
    6.4784   -0.8741  -16.4474 N   0  0  0  0  0  0  0  0  0  0  0  0
    6.6978    0.1787  -15.6178 C   0  0  0  0  0  0  0  0  0  0  0  0
    8.0825    1.3424  -15.5026 S   0  0  0  0  0  0  0  0  0  0  0  0
    7.4096    2.3009  -14.1496 C   0  0  0  0  0  0  0  0  0  0  0  0
    6.2275    1.6874  -13.8882 C   0  0  0  0  0  0  0  0  0  0  0  0
    5.8812    0.6095  -14.6487 C   0  0  0  0  0  0  0  0  0  0  0  0
    4.6858   -0.1506  -14.5274 C   0  0  0  0  0  0  0  0  0  0  0  0
    3.7988    0.0859  -13.6908 O   0  0  0  0  0  0  0  0  0  0  0  0
    4.4841   -1.1871  -15.3542 N   0  0  0  0  0  0  0  0  0  0  0  0
    5.4899    2.2414  -12.6745 C   0  0  0  0  0  0  0  0  0  0  0  0
    5.8720    3.5789  -12.3510 C   0  0  0  0  0  0  0  0  0  0  0  0
    5.0392    4.3794  -11.7418 O   0  0  0  0  0  0  0  0  0  0  0  0
    7.1553    4.1764  -12.6435 C   0  0  0  0  0  0  0  0  0  0  0  0
    7.5882    5.3498  -12.0363 C   0  0  0  0  0  0  0  0  0  0  0  0
    8.8247    5.8378  -12.3910 C   0  0  0  0  0  0  0  0  0  0  0  0
    9.5875    5.1579  -13.3255 C   0  0  0  0  0  0  0  0  0  0  0  0
    9.1526    3.9782  -13.9358 C   0  0  0  0  0  0  0  0  0  0  0  0
    7.9277    3.5235  -13.5631 C   0  0  0  0  0  0  0  0  0  0  0  0
    9.3057    7.0315  -11.7965 N   0  0  0  0  0  0  0  0  0  0  0  0
    9.6640    7.0651  -10.5668 C   0  0  0  0  0  0  0  0  0  0  0  0
    9.5793    5.9428   -9.8314 N   0  0  0  0  0  0  0  0  0  0  0  0
    9.9329    5.9000   -8.5468 C   0  0  0  0  0  0  0  0  0  0  0  0
   10.4001    7.0277   -7.9404 C   0  0  0  0  0  0  0  0  0  0  0  0
   10.7748    7.0061   -6.6013 C   0  0  0  0  0  0  0  0  0  0  0  0
   11.2476    8.1280   -5.9703 C   0  0  0  0  0  0  0  0  0  0  0  0
   11.3337    9.2931   -6.7399 C   0  0  0  0  0  0  0  0  0  0  0  0
   10.9649    9.3060   -8.0499 C   0  0  0  0  0  0  0  0  0  0  0  0
   10.4939    8.1922   -8.6828 C   0  0  0  0  0  0  0  0  0  0  0  0
   10.1226    8.1768   -9.9761 N   0  0  0  0  0  0  0  0  0  0  0  0
   10.1994    9.0717  -10.5300 H   0  0  0  0  0  0  0  0  0  0  0  0
   11.6413    8.1114   -4.5709 C   0  0  0  0  0  0  0  0  0  0  0  0
   11.6284    6.8722   -3.9405 C   0  0  0  0  0  0  0  0  0  0  0  0
   11.9889    6.7831   -2.6176 C   0  0  0  0  0  0  0  0  0  0  0  0
   12.3632    7.9133   -1.9104 C   0  0  0  0  0  0  0  0  0  0  0  0
   12.3700    9.1312   -2.5507 C   0  0  0  0  0  0  0  0  0  0  0  0
   12.0132    9.2291   -3.8656 C   0  0  0  0  0  0  0  0  0  0  0  0
  1  2  2  0
  2  3  1  0
  3  4  1  0
  4  5  1  0
  5  6  2  0
  6  7  1  0
  7  8  1  0
  8  9  2  0
  8 10  1  0
  6 11  1  0
 11 12  1  0
 12 13  2  0
 12 14  1  0
 14 15  2  0
 15 16  1  0
 16 20  1  0
 20 21  2  0
 21 22  1  0
 22 23  2  0
 23 24  1  0
 24 25  2  0
 25 26  1  0
 26 32  1  0
 32 33  2  0
 33 34  1  0
 34 35  2  0
 35 36  1  0
 36 37  2  0
 26 27  2  0
 27 28  1  0
 28 29  2  0
 29 30  1  0
 30 31  1  0
 16 17  2  0
 17 18  1  0
 18 19  2  0
 10  1  1  0
 19 14  1  0
  7  3  2  0
 30 21  1  0
 19  5  1  0
 29 24  1  0
 37 32  1  0
M  CHG  1  10  -1
M  END
>  <minimizedAffinity>  (782) 
-16.66351

$$$$
Mol: 168_6 - SminaDock
     RDKit          3D

 42 48  0  0  0  0  0  0  0  0999 V2000
    2.0978   -1.9994  -15.1336 H   0  0  0  0  0  0  0  0  0  0  0  0
    2.3364   -1.2425  -14.4698 N   0  0  0  0  0  0  0  0  0  0  0  0
    3.4515   -0.5793  -14.6501 C   0  0  0  0  0  0  0  0  0  0  0  0
    4.2870   -0.8869  -15.7038 C   0  0  0  0  0  0  0  0  0  0  0  0
    5.4460   -0.1551  -15.8425 C   0  0  0  0  0  0  0  0  0  0  0  0
    5.7807    0.8587  -14.9661 C   0  0  0  0  0  0  0  0  0  0  0  0
    6.8646    1.7074  -14.9088 C   0  0  0  0  0  0  0  0  0  0  0  0
    6.6143    2.5069  -13.7855 C   0  0  0  0  0  0  0  0  0  0  0  0
    5.4541    2.1555  -13.2107 N   0  0  0  0  0  0  0  0  0  0  0  0
    5.0158    2.5676  -12.3647 H   0  0  0  0  0  0  0  0  0  0  0  0
    4.9105    1.1425  -13.9103 C   0  0  0  0  0  0  0  0  0  0  0  0
    3.7851    0.4088  -13.8021 N   0  0  0  0  0  0  0  0  0  0  0  0
    3.1274    0.6085  -13.0207 H   0  0  0  0  0  0  0  0  0  0  0  0
    7.4701    3.5827  -13.2784 C   0  0  0  0  0  0  0  0  0  0  0  0
    6.7515    4.5165  -12.5704 C   0  0  0  0  0  0  0  0  0  0  0  0
    7.4602    5.5757  -12.0430 C   0  0  0  0  0  0  0  0  0  0  0  0
    8.8161    5.7406  -12.1866 C   0  0  0  0  0  0  0  0  0  0  0  0
    9.5134    4.7896  -12.9017 C   0  0  0  0  0  0  0  0  0  0  0  0
    8.8462    3.7145  -13.4464 C   0  0  0  0  0  0  0  0  0  0  0  0
    9.7293    2.7898  -14.1858 C   0  0  0  0  0  0  0  0  0  0  0  0
   10.9364    2.8906  -13.9037 O   0  0  0  0  0  0  0  0  0  0  0  0
    9.2961    1.8352  -15.1566 N   0  0  0  0  0  0  0  0  0  0  0  0
   10.0409    1.1133  -15.3793 H   0  0  0  0  0  0  0  0  0  0  0  0
    8.0214    1.7357  -15.8450 C   0  0  0  0  0  0  0  0  0  0  0  0
    9.5170    6.8526  -11.6253 N   0  0  0  0  0  0  0  0  0  0  0  0
    9.8252    6.8701  -10.3518 C   0  0  0  0  0  0  0  0  0  0  0  0
    9.5004    5.8561   -9.5263 N   0  0  0  0  0  0  0  0  0  0  0  0
    9.8128    5.8654   -8.2171 C   0  0  0  0  0  0  0  0  0  0  0  0
   10.4891    6.9447   -7.6891 C   0  0  0  0  0  0  0  0  0  0  0  0
   10.8284    6.9941   -6.3526 C   0  0  0  0  0  0  0  0  0  0  0  0
   11.5062    8.0740   -5.8191 C   0  0  0  0  0  0  0  0  0  0  0  0
   11.8288    9.1005   -6.6812 C   0  0  0  0  0  0  0  0  0  0  0  0
   11.4915    9.0602   -8.0291 C   0  0  0  0  0  0  0  0  0  0  0  0
   10.8159    7.9794   -8.5513 C   0  0  0  0  0  0  0  0  0  0  0  0
   10.4846    7.9331   -9.8603 N   0  0  0  0  0  0  0  0  0  0  0  0
   10.7609    8.7553  -10.4748 H   0  0  0  0  0  0  0  0  0  0  0  0
   11.8396    8.0746   -4.4030 C   0  0  0  0  0  0  0  0  0  0  0  0
   11.8068    6.8923   -3.6800 C   0  0  0  0  0  0  0  0  0  0  0  0
   12.1231    6.8897   -2.3340 C   0  0  0  0  0  0  0  0  0  0  0  0
   12.4796    8.0358   -1.6553 C   0  0  0  0  0  0  0  0  0  0  0  0
   12.5128    9.2165   -2.3759 C   0  0  0  0  0  0  0  0  0  0  0  0
   12.1965    9.2194   -3.7218 C   0  0  0  0  0  0  0  0  0  0  0  0
  1  2  1  0
  2  3  2  0
  3  4  1  0
  4  5  2  0
  5  6  1  0
  6  7  1  0
  7  8  2  0
  8  9  1  0
  9 10  1  0
  9 11  1  0
 11 12  1  0
 12 13  1  0
  8 14  1  0
 14 15  2  0
 15 16  1  0
 16 17  2  0
 17 25  1  0
 25 26  2  0
 26 27  1  0
 27 28  2  0
 28 29  1  0
 29 30  2  0
 30 31  1  0
 31 37  1  0
 37 38  2  0
 38 39  1  0
 39 40  2  0
 40 41  1  0
 41 42  2  0
 31 32  2  0
 32 33  1  0
 33 34  2  0
 34 35  1  0
 35 36  1  0
 17 18  1  0
 18 19  2  0
 19 20  1  0
 20 21  2  0
 20 22  1  0
 22 23  1  0
 22 24  1  0
 12  3  1  0
 19 14  1  0
 11  6  2  0
 35 26  1  0
 24  7  1  0
 34 29  1  0
 42 37  1  0
M  END
>  <minimizedAffinity>  (783) 
-16.73777

$$$$
Mol: 135_15 - SminaDock
     RDKit          3D

 37 43  0  0  0  0  0  0  0  0999 V2000
    2.4311   -0.0931  -14.1648 H   0  0  0  0  0  0  0  0  0  0  0  0
    3.3512    0.2907  -13.9234 O   0  0  0  0  0  0  0  0  0  0  0  0
    4.4927   -0.1408  -14.6093 C   0  0  0  0  0  0  0  0  0  0  0  0
    4.6211   -1.2462  -15.3645 N   0  0  0  0  0  0  0  0  0  0  0  0
    5.8460   -1.2918  -15.8328 N   0  0  0  0  0  0  0  0  0  0  0  0
    6.5438   -0.2129  -15.3905 C   0  0  0  0  0  0  0  0  0  0  0  0
    7.8291    0.2411  -15.5596 C   0  0  0  0  0  0  0  0  0  0  0  0
    8.3060    1.4173  -14.9756 C   0  0  0  0  0  0  0  0  0  0  0  0
    7.4331    2.1390  -14.1996 C   0  0  0  0  0  0  0  0  0  0  0  0
    6.1262    1.7190  -14.0011 C   0  0  0  0  0  0  0  0  0  0  0  0
    5.7008    0.5424  -14.6038 C   0  0  0  0  0  0  0  0  0  0  0  0
    5.1533    2.4426  -13.1881 C   0  0  0  0  0  0  0  0  0  0  0  0
    5.5977    3.6852  -12.5503 C   0  0  0  0  0  0  0  0  0  0  0  0
    6.9888    4.1207  -12.7685 C   0  0  0  0  0  0  0  0  0  0  0  0
    7.4114    5.3144  -12.1531 C   0  0  0  0  0  0  0  0  0  0  0  0
    8.6938    5.7400  -12.3388 C   0  0  0  0  0  0  0  0  0  0  0  0
    9.5490    5.0040  -13.1174 C   0  0  0  0  0  0  0  0  0  0  0  0
    9.1434    3.8199  -13.7327 C   0  0  0  0  0  0  0  0  0  0  0  0
    7.8438    3.3805  -13.5499 C   0  0  0  0  0  0  0  0  0  0  0  0
    9.1882    6.9426  -11.7432 N   0  0  0  0  0  0  0  0  0  0  0  0
    9.5532    6.9089  -10.5041 C   0  0  0  0  0  0  0  0  0  0  0  0
    9.4893    5.8005   -9.7538 N   0  0  0  0  0  0  0  0  0  0  0  0
    9.8629    5.7510   -8.4717 C   0  0  0  0  0  0  0  0  0  0  0  0
   10.3386    6.8908   -7.8836 C   0  0  0  0  0  0  0  0  0  0  0  0
   10.7383    6.8745   -6.5420 C   0  0  0  0  0  0  0  0  0  0  0  0
   11.2185    8.0208   -5.9424 C   0  0  0  0  0  0  0  0  0  0  0  0
   11.2812    9.1579   -6.7220 C   0  0  0  0  0  0  0  0  0  0  0  0
   10.8894    9.1815   -8.0442 C   0  0  0  0  0  0  0  0  0  0  0  0
   10.4101    8.0363   -8.6414 C   0  0  0  0  0  0  0  0  0  0  0  0
   10.0211    8.0318   -9.9277 N   0  0  0  0  0  0  0  0  0  0  0  0
   10.0785    8.9224  -10.5116 H   0  0  0  0  0  0  0  0  0  0  0  0
   11.6470    8.0421   -4.5349 C   0  0  0  0  0  0  0  0  0  0  0  0
   11.7023    6.8849   -3.7845 C   0  0  0  0  0  0  0  0  0  0  0  0
   12.0994    6.8703   -2.4642 C   0  0  0  0  0  0  0  0  0  0  0  0
   12.4625    8.0435   -1.8391 C   0  0  0  0  0  0  0  0  0  0  0  0
   12.4111    9.2120   -2.5820 C   0  0  0  0  0  0  0  0  0  0  0  0
   12.0112    9.2140   -3.9050 C   0  0  0  0  0  0  0  0  0  0  0  0
  1  2  1  0
  2  3  1  0
  3  4  1  0
  4  5  1  0
  5  6  2  0
  6  7  1  0
  7  8  2  0
  8  9  1  0
  9 10  2  0
 10 11  1  0
 10 12  1  0
 12 13  1  0
 13 14  1  0
 14 15  2  0
 15 16  1  0
 16 20  1  0
 20 21  2  0
 21 22  1  0
 22 23  2  0
 23 24  1  0
 24 25  2  0
 25 26  1  0
 26 32  1  0
 32 33  2  0
 33 34  1  0
 34 35  2  0
 35 36  1  0
 36 37  2  0
 26 27  2  0
 27 28  1  0
 28 29  2  0
 29 30  1  0
 30 31  1  0
 16 17  2  0
 17 18  1  0
 18 19  2  0
 11  3  2  0
 19 14  1  0
 11  6  1  0
 30 21  1  0
 19  9  1  0
 29 24  1  0
 37 32  1  0
M  CHG  1   4  -1
M  END
>  <minimizedAffinity>  (784) 
-16.67542

$$$$
Mol: 194_31 - SminaDock
     RDKit          3D

 37 43  0  0  0  0  0  0  0  0999 V2000
    8.7433    5.8292  -12.5076 C   0  0  0  0  0  0  0  0  0  0  0  0
    9.3780    5.1216  -13.4920 C   0  0  0  0  0  0  0  0  0  0  0  0
    8.7483    4.0005  -14.0543 C   0  0  0  0  0  0  0  0  0  0  0  0
    7.5087    3.6626  -13.5837 C   0  0  0  0  0  0  0  0  0  0  0  0
    6.8686    4.3743  -12.5946 C   0  0  0  0  0  0  0  0  0  0  0  0
    7.5072    5.4905  -12.0407 C   0  0  0  0  0  0  0  0  0  0  0  0
    5.5288    4.0431  -12.1132 C   0  0  0  0  0  0  0  0  0  0  0  0
    4.9677    2.7536  -12.5518 C   0  0  0  0  0  0  0  0  0  0  0  0
    5.6439    2.0666  -13.6644 C   0  0  0  0  0  0  0  0  0  0  0  0
    6.8711    2.4526  -14.1527 C   0  0  0  0  0  0  0  0  0  0  0  0
    7.4829    1.7545  -15.1770 C   0  0  0  0  0  0  0  0  0  0  0  0
    6.8350    0.6372  -15.7226 C   0  0  0  0  0  0  0  0  0  0  0  0
    7.3969   -0.0988  -16.7476 C   0  0  0  0  0  0  0  0  0  0  0  0
    8.5279    0.2861  -17.1698 O   0  0  0  0  0  0  0  0  0  0  0  0
    6.7743   -1.1767  -17.2762 N   0  0  0  0  0  0  0  0  0  0  0  0
    5.5748   -1.5971  -16.8389 C   0  0  0  0  0  0  0  0  0  0  0  0
    4.9763   -0.8940  -15.8183 C   0  0  0  0  0  0  0  0  0  0  0  0
    5.6067    0.2236  -15.2599 C   0  0  0  0  0  0  0  0  0  0  0  0
    5.0415    0.9408  -14.2490 C   0  0  0  0  0  0  0  0  0  0  0  0
   11.3381    8.0529   -6.0558 C   0  0  0  0  0  0  0  0  0  0  0  0
   11.6302    9.1235   -6.8484 C   0  0  0  0  0  0  0  0  0  0  0  0
   11.2877    9.1029   -8.2050 C   0  0  0  0  0  0  0  0  0  0  0  0
   10.6572    8.0317   -8.7899 C   0  0  0  0  0  0  0  0  0  0  0  0
   10.3242    8.0057  -10.0986 N   0  0  0  0  0  0  0  0  0  0  0  0
    9.7078    6.9623  -10.6769 C   0  0  0  0  0  0  0  0  0  0  0  0
    9.3978    6.9659  -11.9462 N   0  0  0  0  0  0  0  0  0  0  0  0
    9.4157    5.9020   -9.9036 N   0  0  0  0  0  0  0  0  0  0  0  0
    8.9325    5.0732  -10.3367 H   0  0  0  0  0  0  0  0  0  0  0  0
    9.7280    5.8752   -8.5814 C   0  0  0  0  0  0  0  0  0  0  0  0
   10.3612    6.9478   -7.9890 C   0  0  0  0  0  0  0  0  0  0  0  0
   10.6990    6.9699   -6.6534 C   0  0  0  0  0  0  0  0  0  0  0  0
   12.2932    9.1653   -2.6922 C   0  0  0  0  0  0  0  0  0  0  0  0
   11.9841    9.1611   -3.9996 N   0  0  0  0  0  0  0  0  0  0  0  0
   11.6631    8.0095   -4.6514 C   0  0  0  0  0  0  0  0  0  0  0  0
   11.6736    6.8702   -3.9053 C   0  0  0  0  0  0  0  0  0  0  0  0
   11.9891    6.8395   -2.5490 C   0  0  0  0  0  0  0  0  0  0  0  0
   12.3095    8.0238   -1.9202 C   0  0  0  0  0  0  0  0  0  0  0  0
 32 33  2  0
 33 34  1  0
 34 20  1  0
 20 21  1  0
 21 22  2  0
 22 23  1  0
 23 24  2  0
 24 25  1  0
 25 26  2  0
 26  1  1  0
  1  2  2  0
  2  3  1  0
  3  4  2  0
  4  5  1  0
  5  6  2  0
  5  7  1  0
  7  8  1  0
  8  9  1  0
  9 10  2  0
 10 11  1  0
 11 12  2  0
 12 13  1  0
 13 14  2  0
 13 15  1  0
 15 16  1  0
 16 17  2  0
 17 18  1  0
 18 19  2  0
 25 27  1  0
 27 28  1  0
 27 29  1  0
 29 30  2  0
 30 31  1  0
 34 35  2  0
 35 36  1  0
 36 37  2  0
 37 32  1  0
 31 20  2  0
 30 23  1  0
  6  1  1  0
 19  9  1  0
 10  4  1  0
 18 12  1  0
M  CHG  1  15  -1
M  END
>  <minimizedAffinity>  (785) 
-16.66423

$$$$
Mol: 194_33 - SminaDock
     RDKit          3D

 38 44  0  0  0  0  0  0  0  0999 V2000
    8.3861    5.2308  -12.3021 C   0  0  0  0  0  0  0  0  0  0  0  0
    7.0566    4.9465  -12.1125 C   0  0  0  0  0  0  0  0  0  0  0  0
    6.4758    3.8261  -12.6575 C   0  0  0  0  0  0  0  0  0  0  0  0
    7.2361    2.9740  -13.4054 C   0  0  0  0  0  0  0  0  0  0  0  0
    6.6651    1.8300  -13.9684 C   0  0  0  0  0  0  0  0  0  0  0  0
    5.3343    1.5372  -13.7838 C   0  0  0  0  0  0  0  0  0  0  0  0
    4.8162    0.3974  -14.3589 C   0  0  0  0  0  0  0  0  0  0  0  0
    3.5635   -0.2005  -14.3887 C   0  0  0  0  0  0  0  0  0  0  0  0
    3.6172   -1.3175  -15.1079 N   0  0  0  0  0  0  0  0  0  0  0  0
    2.7838   -1.9462  -15.2734 H   0  0  0  0  0  0  0  0  0  0  0  0
    4.8580   -1.4776  -15.5529 N   0  0  0  0  0  0  0  0  0  0  0  0
    5.6147   -0.4547  -15.1176 C   0  0  0  0  0  0  0  0  0  0  0  0
    6.9425   -0.1352  -15.2846 C   0  0  0  0  0  0  0  0  0  0  0  0
    7.4873    0.9887  -14.7271 C   0  0  0  0  0  0  0  0  0  0  0  0
    8.8100    1.3049  -14.8946 C   0  0  0  0  0  0  0  0  0  0  0  0
    9.5674    0.5488  -15.5817 O   0  0  0  0  0  0  0  0  0  0  0  0
    9.3728    2.4005  -14.3599 N   0  0  0  0  0  0  0  0  0  0  0  0
   10.7645    2.7383  -14.5327 C   0  0  0  0  0  0  0  0  0  0  0  0
    8.5874    3.2122  -13.6302 C   0  0  0  0  0  0  0  0  0  0  0  0
    9.1264    4.3585  -13.0573 C   0  0  0  0  0  0  0  0  0  0  0  0
   11.1754    7.8613   -6.1091 C   0  0  0  0  0  0  0  0  0  0  0  0
   11.3977    8.8965   -6.9876 C   0  0  0  0  0  0  0  0  0  0  0  0
   11.0015    8.7952   -8.3218 C   0  0  0  0  0  0  0  0  0  0  0  0
   10.3796    7.6452   -8.7667 C   0  0  0  0  0  0  0  0  0  0  0  0
   10.1617    6.6156   -7.8809 C   0  0  0  0  0  0  0  0  0  0  0  0
   10.5602    6.7245   -6.5509 C   0  0  0  0  0  0  0  0  0  0  0  0
    9.5440    5.4802   -8.3333 C   0  0  0  0  0  0  0  0  0  0  0  0
    9.1482    5.3714   -9.6515 C   0  0  0  0  0  0  0  0  0  0  0  0
    9.3753    6.4170  -10.5298 C   0  0  0  0  0  0  0  0  0  0  0  0
    9.0248    6.3628  -11.7660 N   0  0  0  0  0  0  0  0  0  0  0  0
    9.9876    7.5185  -10.0418 N   0  0  0  0  0  0  0  0  0  0  0  0
   10.1747    8.3334  -10.6869 H   0  0  0  0  0  0  0  0  0  0  0  0
   12.4321    8.2307   -2.0445 C   0  0  0  0  0  0  0  0  0  0  0  0
   12.3379    9.3491   -2.8493 C   0  0  0  0  0  0  0  0  0  0  0  0
   11.9326    9.2365   -4.1635 C   0  0  0  0  0  0  0  0  0  0  0  0
   11.6052    8.0126   -4.7301 C   0  0  0  0  0  0  0  0  0  0  0  0
   11.7076    6.8975   -3.8989 C   0  0  0  0  0  0  0  0  0  0  0  0
   12.1111    6.9915   -2.5828 C   0  0  0  0  0  0  0  0  0  0  0  0
 33 34  2  0
 34 35  1  0
 35 36  2  0
 36 21  1  0
 21 22  2  0
 22 23  1  0
 23 24  2  0
 24 25  1  0
 25 26  2  0
 25 27  1  0
 27 28  2  0
 28 29  1  0
 29 30  2  0
 30  1  1  0
  1  2  2  0
  2  3  1  0
  3  4  2  0
  4  5  1  0
  5  6  2  0
  6  7  1  0
  7  8  2  0
  8  9  1  0
  9 10  1  0
  9 11  1  0
 11 12  2  0
 12 13  1  0
 13 14  2  0
 14 15  1  0
 15 16  2  0
 15 17  1  0
 17 18  1  0
 17 19  1  0
 19 20  2  0
 29 31  1  0
 31 32  1  0
 36 37  1  0
 37 38  2  0
 38 33  1  0
 26 21  1  0
 20  1  1  0
 31 24  1  0
 19  4  1  0
 14  5  1  0
 12  7  1  0
M  END
>  <minimizedAffinity>  (786) 
-16.66134

$$$$
Mol: 194_40 - SminaDock
     RDKit          3D

 38 44  0  0  0  0  0  0  0  0999 V2000
    5.3980   -1.4583  -16.2113 C   0  0  0  0  0  0  0  0  0  0  0  0
    6.5866   -0.8868  -16.4252 N   0  0  0  0  0  0  0  0  0  0  0  0
    6.9490    0.2211  -15.7590 C   0  0  0  0  0  0  0  0  0  0  0  0
    8.1807    0.7855  -16.0024 C   0  0  0  0  0  0  0  0  0  0  0  0
    8.5693    1.9171  -15.3320 C   0  0  0  0  0  0  0  0  0  0  0  0
    7.7270    2.4918  -14.4129 C   0  0  0  0  0  0  0  0  0  0  0  0
    6.4646    1.9584  -14.1281 C   0  0  0  0  0  0  0  0  0  0  0  0
    6.0893    0.8138  -14.8160 C   0  0  0  0  0  0  0  0  0  0  0  0
    4.8734    0.2360  -14.5917 C   0  0  0  0  0  0  0  0  0  0  0  0
    4.5364   -0.9209  -15.3106 C   0  0  0  0  0  0  0  0  0  0  0  0
    5.5858    2.5684  -13.1616 C   0  0  0  0  0  0  0  0  0  0  0  0
    4.4549    2.1362  -12.8706 O   0  0  0  0  0  0  0  0  0  0  0  0
    6.0630    3.7877  -12.4723 C   0  0  0  0  0  0  0  0  0  0  0  0
    5.3427    4.3573  -11.6253 O   0  0  0  0  0  0  0  0  0  0  0  0
    7.3693    4.3110  -12.7894 C   0  0  0  0  0  0  0  0  0  0  0  0
    7.8112    5.4554  -12.1402 C   0  0  0  0  0  0  0  0  0  0  0  0
    9.0405    5.9965  -12.4015 C   0  0  0  0  0  0  0  0  0  0  0  0
    9.8349    5.3745  -13.3305 C   0  0  0  0  0  0  0  0  0  0  0  0
    9.4323    4.2325  -13.9996 C   0  0  0  0  0  0  0  0  0  0  0  0
    8.1999    3.6983  -13.7314 C   0  0  0  0  0  0  0  0  0  0  0  0
    9.4446    7.1625  -11.7145 N   0  0  0  0  0  0  0  0  0  0  0  0
    9.7976    7.1280  -10.4548 C   0  0  0  0  0  0  0  0  0  0  0  0
    9.7844    5.9721   -9.7771 N   0  0  0  0  0  0  0  0  0  0  0  0
   10.1256    5.8503   -8.4999 C   0  0  0  0  0  0  0  0  0  0  0  0
   10.5235    7.0099   -7.8260 C   0  0  0  0  0  0  0  0  0  0  0  0
   10.8932    6.9859   -6.5076 C   0  0  0  0  0  0  0  0  0  0  0  0
   11.2905    8.1025   -5.8065 C   0  0  0  0  0  0  0  0  0  0  0  0
   11.3060    9.3050   -6.5055 C   0  0  0  0  0  0  0  0  0  0  0  0
   10.9386    9.3590   -7.8343 C   0  0  0  0  0  0  0  0  0  0  0  0
   10.5463    8.2114   -8.4987 C   0  0  0  0  0  0  0  0  0  0  0  0
   10.1798    8.2265   -9.7979 N   0  0  0  0  0  0  0  0  0  0  0  0
   10.1956    9.1327  -10.3109 H   0  0  0  0  0  0  0  0  0  0  0  0
   11.6817    8.0672   -4.4045 C   0  0  0  0  0  0  0  0  0  0  0  0
   11.7215    6.8894   -3.6981 C   0  0  0  0  0  0  0  0  0  0  0  0
   12.0950    6.8515   -2.3558 C   0  0  0  0  0  0  0  0  0  0  0  0
   12.4396    8.0056   -1.6877 C   0  0  0  0  0  0  0  0  0  0  0  0
   12.4021    9.1898   -2.3892 C   0  0  0  0  0  0  0  0  0  0  0  0
   12.0275    9.2174   -3.7306 C   0  0  0  0  0  0  0  0  0  0  0  0
  1  2  2  0
  2  3  1  0
  3  4  2  0
  4  5  1  0
  5  6  2  0
  6  7  1  0
  7  8  2  0
  8  9  1  0
  9 10  2  0
  7 11  1  0
 11 12  2  0
 11 13  1  0
 13 14  2  0
 13 15  1  0
 15 16  2  0
 16 17  1  0
 17 21  1  0
 21 22  2  0
 22 23  1  0
 23 24  2  0
 24 25  1  0
 25 26  2  0
 26 27  1  0
 27 33  1  0
 33 34  2  0
 34 35  1  0
 35 36  2  0
 36 37  1  0
 37 38  2  0
 27 28  2  0
 28 29  1  0
 29 30  2  0
 30 31  1  0
 31 32  1  0
 17 18  2  0
 18 19  1  0
 19 20  2  0
 10  1  1  0
 20 15  1  0
  8  3  1  0
 31 22  1  0
 20  6  1  0
 30 25  1  0
 38 33  1  0
M  END
>  <minimizedAffinity>  (787) 
-16.65890

$$$$
Mol: 170_51 - SminaDock
     RDKit          3D

 40 46  0  0  0  0  0  0  0  0999 V2000
    8.9844    6.4160  -12.3838 C   0  0  0  0  0  0  0  0  0  0  0  0
    9.6448    5.8323  -13.4367 C   0  0  0  0  0  0  0  0  0  0  0  0
    9.1080    4.7130  -14.0293 C   0  0  0  0  0  0  0  0  0  0  0  0
    7.9261    4.1274  -13.6266 C   0  0  0  0  0  0  0  0  0  0  0  0
    7.2802    4.7407  -12.5586 C   0  0  0  0  0  0  0  0  0  0  0  0
    7.8017    5.8611  -11.9528 C   0  0  0  0  0  0  0  0  0  0  0  0
    6.0635    3.9327  -12.3311 C   0  0  0  0  0  0  0  0  0  0  0  0
    5.2222    4.1912  -11.4310 O   0  0  0  0  0  0  0  0  0  0  0  0
    6.0221    2.8389  -13.2926 C   0  0  0  0  0  0  0  0  0  0  0  0
    5.1048    1.8274  -13.4869 C   0  0  0  0  0  0  0  0  0  0  0  0
    5.3296    0.8939  -14.5131 C   0  0  0  0  0  0  0  0  0  0  0  0
    6.4554    1.0095  -15.2975 C   0  0  0  0  0  0  0  0  0  0  0  0
    7.3490    2.0502  -15.0582 C   0  0  0  0  0  0  0  0  0  0  0  0
    7.1515    2.9722  -14.0643 C   0  0  0  0  0  0  0  0  0  0  0  0
    6.8928    0.1941  -16.3784 N   0  0  0  0  0  0  0  0  0  0  0  0
    7.8628    0.7581  -17.2926 C   0  0  0  0  0  0  0  0  0  0  0  0
    6.4470   -1.1545  -16.6349 C   0  0  0  0  0  0  0  0  0  0  0  0
    6.8938   -1.7112  -17.6451 O   0  0  0  0  0  0  0  0  0  0  0  0
    5.5179   -1.9419  -15.8263 C   0  0  0  0  0  0  0  0  0  0  0  0
    5.3797   -3.1642  -16.0665 O   0  0  0  0  0  0  0  0  0  0  0  0
    4.7562   -1.4257  -14.7839 O   0  0  0  0  0  0  0  0  0  0  0  0
    4.2635   -0.1186  -14.6002 C   0  0  0  0  0  0  0  0  0  0  0  0
   11.3478    8.1237   -5.8044 C   0  0  0  0  0  0  0  0  0  0  0  0
   11.4910    9.3266   -6.4637 C   0  0  0  0  0  0  0  0  0  0  0  0
   11.1588    9.5038   -7.7891 C   0  0  0  0  0  0  0  0  0  0  0  0
   10.6550    8.4307   -8.5087 C   0  0  0  0  0  0  0  0  0  0  0  0
   10.5007    7.2171   -7.8773 C   0  0  0  0  0  0  0  0  0  0  0  0
    9.9975    6.1096   -8.5614 C   0  0  0  0  0  0  0  0  0  0  0  0
    9.6833    6.3045   -9.8418 N   0  0  0  0  0  0  0  0  0  0  0  0
    9.8214    7.4732  -10.4861 C   0  0  0  0  0  0  0  0  0  0  0  0
    9.4956    7.5833  -11.7267 N   0  0  0  0  0  0  0  0  0  0  0  0
   10.3135    8.5360   -9.7976 N   0  0  0  0  0  0  0  0  0  0  0  0
   10.4282    9.4576  -10.2861 H   0  0  0  0  0  0  0  0  0  0  0  0
   10.8450    7.0738   -6.5424 C   0  0  0  0  0  0  0  0  0  0  0  0
   12.4617    7.8749   -1.6803 C   0  0  0  0  0  0  0  0  0  0  0  0
   12.4438    9.0844   -2.3448 C   0  0  0  0  0  0  0  0  0  0  0  0
   12.0826    9.1425   -3.6710 C   0  0  0  0  0  0  0  0  0  0  0  0
   11.7256    8.0299   -4.4006 C   0  0  0  0  0  0  0  0  0  0  0  0
   11.7479    6.8250   -3.7229 C   0  0  0  0  0  0  0  0  0  0  0  0
   12.1094    6.7399   -2.3826 C   0  0  0  0  0  0  0  0  0  0  0  0
 35 36  2  0
 36 37  1  0
 37 38  2  0
 38 23  1  0
 23 24  2  0
 24 25  1  0
 25 26  2  0
 26 27  1  0
 27 28  1  0
 28 29  2  0
 29 30  1  0
 30 31  2  0
 31  1  1  0
  1  2  2  0
  2  3  1  0
  3  4  2  0
  4  5  1  0
  5  6  2  0
  5  7  1  0
  7  8  2  0
  7  9  1  0
  9 10  2  0
 10 11  1  0
 11 12  2  0
 12 13  1  0
 13 14  2  0
 12 15  1  0
 15 16  1  0
 15 17  1  0
 17 18  2  0
 17 19  1  0
 19 20  2  0
 19 21  1  0
 21 22  1  0
 30 32  1  0
 32 33  1  0
 27 34  2  0
 38 39  1  0
 39 40  2  0
 40 35  1  0
 34 23  1  0
 32 26  1  0
  6  1  1  0
 14  9  1  0
 14  4  1  0
 22 11  1  0
M  END
>  <minimizedAffinity>  (788) 
-16.69843

$$$$
Mol: 191_5 - SminaDock
     RDKit          3D

 43 50  0  0  0  0  0  0  0  0999 V2000
   11.8833    4.4547  -13.5835 C   0  0  0  0  0  0  0  0  0  0  0  0
   10.8234    3.6644  -13.6122 C   0  0  0  0  0  0  0  0  0  0  0  0
    9.6846    3.8440  -14.5479 C   0  0  2  0  0  0  0  0  0  0  0  0
    8.3994    3.9552  -13.8407 C   0  0  0  0  0  0  0  0  0  0  0  0
    7.9935    4.8777  -12.8879 C   0  0  0  0  0  0  0  0  0  0  0  0
    6.7242    4.7533  -12.3819 C   0  0  0  0  0  0  0  0  0  0  0  0
    5.8636    3.7477  -12.7961 C   0  0  0  0  0  0  0  0  0  0  0  0
    6.2865    2.8445  -13.7415 C   0  0  0  0  0  0  0  0  0  0  0  0
    7.5741    2.9469  -14.2743 C   0  0  0  0  0  0  0  0  0  0  0  0
    8.2487    2.1293  -15.2703 C   0  0  0  0  0  0  0  0  0  0  0  0
    9.5034    2.6670  -15.4298 C   0  0  0  0  0  0  0  0  0  0  0  0
   10.3541    2.0409  -16.3541 C   0  0  0  0  0  0  0  0  0  0  0  0
    9.9039    0.9413  -17.0437 C   0  0  0  0  0  0  0  0  0  0  0  0
   10.7061    0.3120  -17.9474 N   0  0  0  0  0  0  0  0  0  0  0  0
   10.2839   -0.7692  -18.6356 C   0  0  0  0  0  0  0  0  0  0  0  0
    9.0527   -1.2891  -18.4727 N   0  0  0  0  0  0  0  0  0  0  0  0
    8.2031   -0.7057  -17.5841 C   0  0  0  0  0  0  0  0  0  0  0  0
    6.9142   -1.2547  -17.4177 N   0  0  0  0  0  0  0  0  0  0  0  0
    6.0850   -0.7264  -17.7303 H   0  0  0  0  0  0  0  0  0  0  0  0
    6.8060   -2.1830  -16.9843 H   0  0  0  0  0  0  0  0  0  0  0  0
    8.6465    0.4035  -16.8832 C   0  0  0  0  0  0  0  0  0  0  0  0
    7.8090    1.0109  -15.9808 C   0  0  0  0  0  0  0  0  0  0  0  0
    9.8387    5.0871  -15.3969 C   0  0  0  0  0  0  0  0  0  0  0  0
   11.2590    5.4672  -15.6514 C   0  0  0  0  0  0  0  0  0  0  0  0
   12.0129    5.5437  -14.4537 O   0  0  0  0  0  0  0  0  0  0  0  0
    8.8669    5.8861  -12.4773 N   0  0  0  0  0  0  0  0  0  0  0  0
    9.2311    6.0503  -11.2242 C   0  0  0  0  0  0  0  0  0  0  0  0
    8.7451    5.2066  -10.2599 C   0  0  0  0  0  0  0  0  0  0  0  0
    9.1199    5.3714   -8.9572 C   0  0  0  0  0  0  0  0  0  0  0  0
    9.9819    6.3814   -8.6199 C   0  0  0  0  0  0  0  0  0  0  0  0
   10.4040    6.6067   -7.3224 C   0  0  0  0  0  0  0  0  0  0  0  0
   11.2701    7.6138   -6.9528 C   0  0  0  0  0  0  0  0  0  0  0  0
   11.7327    8.4391   -7.9663 C   0  0  0  0  0  0  0  0  0  0  0  0
   11.3413    8.2570   -9.2822 C   0  0  0  0  0  0  0  0  0  0  0  0
   10.4672    7.2295   -9.6070 C   0  0  0  0  0  0  0  0  0  0  0  0
   10.0729    7.0335  -10.8809 N   0  0  0  0  0  0  0  0  0  0  0  0
   10.4424    7.6817  -11.6457 H   0  0  0  0  0  0  0  0  0  0  0  0
   11.6852    7.8100   -5.5666 C   0  0  0  0  0  0  0  0  0  0  0  0
   11.3835    6.8728   -4.5986 C   0  0  0  0  0  0  0  0  0  0  0  0
   11.7778    7.0527   -3.2709 C   0  0  0  0  0  0  0  0  0  0  0  0
   12.4815    8.1718   -2.8805 C   0  0  0  0  0  0  0  0  0  0  0  0
   12.7826    9.1070   -3.8466 C   0  0  0  0  0  0  0  0  0  0  0  0
   12.3896    8.9244   -5.1619 C   0  0  0  0  0  0  0  0  0  0  0  0
  1  2  2  0
  2  3  1  0
  3  4  1  0
  4  5  1  0
  5 26  1  0
 26 27  2  0
 27 28  1  0
 28 29  2  0
 29 30  1  0
 30 31  2  0
 31 32  1  0
 32 38  1  0
 38 39  2  0
 39 40  1  0
 40 41  2  0
 41 42  1  0
 42 43  2  0
 32 33  2  0
 33 34  1  0
 34 35  2  0
 35 36  1  0
 36 37  1  0
  5  6  2  0
  6  7  1  0
  7  8  2  0
  8  9  1  0
  9 10  1  0
 10 11  2  0
 11 12  1  0
 12 13  2  0
 13 14  1  0
 14 15  2  0
 15 16  1  0
 16 17  2  0
 17 18  1  0
 18 19  1  0
 18 20  1  0
 17 21  1  0
 21 22  2  0
  3 23  1  6
 23 24  1  0
 24 25  1  0
 25  1  1  0
 11  3  1  0
 21 13  1  0
  9  4  2  0
 22 10  1  0
 36 27  1  0
 35 30  1  0
 43 38  1  0
M  END
>  <minimizedAffinity>  (789) 
-16.70851

$$$$
Mol: 186_57 - SminaDock
     RDKit          3D

 37 43  0  0  0  0  0  0  0  0999 V2000
    8.7768    5.8879  -12.2795 C   0  0  0  0  0  0  0  0  0  0  0  0
    9.4922    5.1181  -13.1728 C   0  0  0  0  0  0  0  0  0  0  0  0
    8.9850    3.9856  -13.7459 C   0  0  0  0  0  0  0  0  0  0  0  0
    7.6857    3.5959  -13.4083 C   0  0  0  0  0  0  0  0  0  0  0  0
    6.9677    4.3581  -12.5192 C   0  0  0  0  0  0  0  0  0  0  0  0
    7.4993    5.5193  -11.9371 C   0  0  0  0  0  0  0  0  0  0  0  0
    5.6422    3.7039  -12.3593 C   0  0  0  0  0  0  0  0  0  0  0  0
    5.6807    2.5211  -13.2274 C   0  0  0  0  0  0  0  0  0  0  0  0
    4.7378    1.5371  -13.4861 C   0  0  0  0  0  0  0  0  0  0  0  0
    4.9940    0.4956  -14.3563 C   0  0  0  0  0  0  0  0  0  0  0  0
    6.2324    0.4435  -14.9825 C   0  0  0  0  0  0  0  0  0  0  0  0
    7.1900    1.4073  -14.7454 C   0  0  0  0  0  0  0  0  0  0  0  0
    6.8980    2.4482  -13.8585 C   0  0  0  0  0  0  0  0  0  0  0  0
    6.4965   -0.6274  -15.8771 N   0  0  0  0  0  0  0  0  0  0  0  0
    7.4381   -0.6810  -16.3633 H   0  0  0  0  0  0  0  0  0  0  0  0
    5.5115   -1.6216  -16.1227 C   0  0  0  0  0  0  0  0  0  0  0  0
    5.7724   -2.5725  -16.9293 O   0  0  0  0  0  0  0  0  0  0  0  0
    4.3021   -1.5195  -15.4741 O   0  0  0  0  0  0  0  0  0  0  0  0
    3.9358   -0.5106  -14.5764 C   0  0  0  0  0  0  0  0  0  0  0  0
   11.3226    8.1269   -5.9014 C   0  0  0  0  0  0  0  0  0  0  0  0
   11.4777    9.2803   -6.6379 C   0  0  0  0  0  0  0  0  0  0  0  0
   11.0966    9.2747   -7.9583 C   0  0  0  0  0  0  0  0  0  0  0  0
   10.5632    8.1442   -8.5637 C   0  0  0  0  0  0  0  0  0  0  0  0
   10.4229    7.0097   -7.7963 C   0  0  0  0  0  0  0  0  0  0  0  0
    9.8913    5.9017   -8.4206 C   0  0  0  0  0  0  0  0  0  0  0  0
    9.5228    5.9142   -9.7167 N   0  0  0  0  0  0  0  0  0  0  0  0
    9.6660    7.0293  -10.4528 C   0  0  0  0  0  0  0  0  0  0  0  0
    9.3216    7.0670  -11.6910 N   0  0  0  0  0  0  0  0  0  0  0  0
   10.1844    8.1167   -9.8520 N   0  0  0  0  0  0  0  0  0  0  0  0
   10.3071    9.0026  -10.4055 H   0  0  0  0  0  0  0  0  0  0  0  0
   10.7914    6.9683   -6.4682 C   0  0  0  0  0  0  0  0  0  0  0  0
   12.4563    8.0036   -1.7772 C   0  0  0  0  0  0  0  0  0  0  0  0
   12.0896    6.8487   -2.4364 C   0  0  0  0  0  0  0  0  0  0  0  0
   11.7214    6.8836   -3.7728 C   0  0  0  0  0  0  0  0  0  0  0  0
   11.7055    8.0593   -4.4938 C   0  0  0  0  0  0  0  0  0  0  0  0
   12.0734    9.2091   -3.8277 C   0  0  0  0  0  0  0  0  0  0  0  0
   12.4441    9.1817   -2.4866 C   0  0  0  0  0  0  0  0  0  0  0  0
 32 33  2  0
 33 34  1  0
 34 35  2  0
 35 20  1  0
 20 21  2  0
 21 22  1  0
 22 23  2  0
 23 24  1  0
 24 25  1  0
 25 26  2  0
 26 27  1  0
 27 28  2  0
 28  1  1  0
  1  2  2  0
  2  3  1  0
  3  4  2  0
  4  5  1  0
  5  6  2  0
  5  7  1  0
  7  8  1  0
  8  9  2  0
  9 10  1  0
 10 11  2  0
 11 12  1  0
 12 13  2  0
 11 14  1  0
 14 15  1  0
 14 16  1  0
 16 17  2  0
 16 18  1  0
 18 19  1  0
 27 29  1  0
 29 30  1  0
 24 31  2  0
 35 36  1  0
 36 37  2  0
 37 32  1  0
 31 20  1  0
 29 23  1  0
  6  1  1  0
 13  8  1  0
 13  4  1  0
 19 10  1  0
M  END
>  <minimizedAffinity>  (790) 
-16.72272

$$$$
Mol: 187_18 - SminaDock
     RDKit          3D

 43 50  0  0  0  0  0  0  0  0999 V2000
    8.3085    5.1937  -12.6441 C   0  0  0  0  0  0  0  0  0  0  0  0
    7.0427    4.7967  -12.3312 C   0  0  0  0  0  0  0  0  0  0  0  0
    6.4782    3.6383  -12.9037 C   0  0  0  0  0  0  0  0  0  0  0  0
    7.1633    2.8518  -13.7993 C   0  0  0  0  0  0  0  0  0  0  0  0
    8.4532    3.2721  -14.1066 C   0  0  0  0  0  0  0  0  0  0  0  0
    8.9991    4.4160  -13.5360 C   0  0  0  0  0  0  0  0  0  0  0  0
    9.0087    2.3069  -15.0709 C   0  0  2  0  0  0  0  0  0  0  0  0
    7.9523    1.3169  -15.2883 C   0  0  0  0  0  0  0  0  0  0  0  0
    7.9437    0.2286  -16.0745 N   0  0  0  0  0  0  0  0  0  0  0  0
    6.8630   -0.5601  -16.1340 C   0  0  0  0  0  0  0  0  0  0  0  0
    5.7259   -0.2867  -15.3954 C   0  0  0  0  0  0  0  0  0  0  0  0
    4.6316   -1.1408  -15.4959 C   0  0  0  0  0  0  0  0  0  0  0  0
    3.5044   -0.8431  -14.7443 C   0  0  0  0  0  0  0  0  0  0  0  0
    3.4552    0.2576  -13.9215 C   0  0  0  0  0  0  0  0  0  0  0  0
    4.5792    1.0924  -13.8492 C   0  0  0  0  0  0  0  0  0  0  0  0
    5.7058    0.8246  -14.5789 C   0  0  0  0  0  0  0  0  0  0  0  0
    6.8321    1.6259  -14.5319 C   0  0  0  0  0  0  0  0  0  0  0  0
   10.2670    1.7502  -14.6556 N   0  0  0  0  0  0  0  0  0  0  0  0
   10.1235    0.9136  -14.0489 H   0  0  0  0  0  0  0  0  0  0  0  0
   10.7992    1.2756  -15.8802 N   0  0  0  0  0  0  0  0  0  0  0  0
   10.1689    1.9742  -16.9455 C   0  0  0  0  0  0  0  0  0  0  0  0
   10.2609    1.7886  -18.1847 O   0  0  0  0  0  0  0  0  0  0  0  0
    9.3707    2.9770  -16.3290 N   0  0  1  0  0  0  0  0  0  0  0  0
    8.5211    3.2125  -16.8881 H   0  0  0  0  0  0  0  0  0  0  0  0
    9.9340    3.8026  -16.0552 H   0  0  0  0  0  0  0  0  0  0  0  0
   11.1528    7.7938   -6.4788 C   0  0  0  0  0  0  0  0  0  0  0  0
   11.2510    8.8755   -7.3226 C   0  0  0  0  0  0  0  0  0  0  0  0
   10.8238    8.8435   -8.6327 C   0  0  0  0  0  0  0  0  0  0  0  0
   10.2760    7.6861   -9.1235 C   0  0  0  0  0  0  0  0  0  0  0  0
   10.1651    6.5740   -8.2876 C   0  0  0  0  0  0  0  0  0  0  0  0
    9.6296    5.4328   -8.7568 N   0  0  0  0  0  0  0  0  0  0  0  0
    9.1867    5.3343  -10.0448 C   0  0  0  0  0  0  0  0  0  0  0  0
    9.2994    6.4288  -10.8562 C   0  0  0  0  0  0  0  0  0  0  0  0
    8.8945    6.3738  -12.0651 N   0  0  0  0  0  0  0  0  0  0  0  0
    9.8335    7.5668  -10.3881 N   0  0  0  0  0  0  0  0  0  0  0  0
    9.9008    8.3859  -11.0500 H   0  0  0  0  0  0  0  0  0  0  0  0
   10.5994    6.6392   -6.9900 C   0  0  0  0  0  0  0  0  0  0  0  0
   12.5053    8.0331   -2.4489 C   0  0  0  0  0  0  0  0  0  0  0  0
   12.7710    9.0657   -3.3271 C   0  0  0  0  0  0  0  0  0  0  0  0
   12.3288    8.9822   -4.6362 C   0  0  0  0  0  0  0  0  0  0  0  0
   11.6203    7.8925   -5.1131 C   0  0  0  0  0  0  0  0  0  0  0  0
   11.3744    6.8762   -4.1975 C   0  0  0  0  0  0  0  0  0  0  0  0
   11.8059    6.9472   -2.9028 C   0  0  0  0  0  0  0  0  0  0  0  0
 38 39  2  0
 39 40  1  0
 40 41  2  0
 41 26  1  0
 26 27  2  0
 27 28  1  0
 28 29  2  0
 29 30  1  0
 30 31  1  0
 31 32  2  0
 32 33  1  0
 33 34  2  0
 34  1  1  0
  1  2  2  0
  2  3  1  0
  3  4  2  0
  4  5  1  0
  5  6  2  0
  5  7  1  0
  7  8  1  0
  8  9  2  0
  9 10  1  0
 10 11  2  0
 11 12  1  0
 12 13  2  0
 13 14  1  0
 14 15  2  0
 15 16  1  0
 16 17  2  0
  7 18  1  1
 18 19  1  0
 18 20  1  0
 20 21  1  0
 21 22  2  0
 21 23  1  0
 23 24  1  6
 23 25  1  0
 33 35  1  0
 35 36  1  0
 30 37  2  0
 41 42  1  0
 42 43  2  0
 43 38  1  0
 37 26  1  0
 35 29  1  0
  6  1  1  0
 23  7  1  0
 17  4  1  0
 17  8  1  0
 16 11  1  0
M  CHG  2  20  -1  23   1
M  END
>  <minimizedAffinity>  (791) 
-16.68392

$$$$
Mol: 187_33 - SminaDock
     RDKit          3D

 41 47  0  0  0  0  0  0  0  0999 V2000
   10.9150    7.4647   -6.6362 C   0  0  0  0  0  0  0  0  0  0  0  0
    9.8710    6.5716   -6.8523 C   0  0  0  0  0  0  0  0  0  0  0  0
    9.4724    6.1770   -8.1119 C   0  0  0  0  0  0  0  0  0  0  0  0
   10.1304    6.6838   -9.2140 C   0  0  0  0  0  0  0  0  0  0  0  0
   11.1709    7.5730   -9.0181 C   0  0  0  0  0  0  0  0  0  0  0  0
   11.5654    7.9644   -7.7506 C   0  0  0  0  0  0  0  0  0  0  0  0
   11.8036    8.0570  -10.1442 C   0  0  0  0  0  0  0  0  0  0  0  0
   11.4103    7.6658  -11.4262 C   0  0  0  0  0  0  0  0  0  0  0  0
   10.3579    6.7704  -11.5379 C   0  0  0  0  0  0  0  0  0  0  0  0
    9.9781    6.3949  -12.7213 N   0  0  0  0  0  0  0  0  0  0  0  0
    9.7386    6.2964  -10.4411 N   0  0  0  0  0  0  0  0  0  0  0  0
    8.9424    5.6154  -10.6005 H   0  0  0  0  0  0  0  0  0  0  0  0
    8.8913    5.4702  -12.8348 C   0  0  0  0  0  0  0  0  0  0  0  0
    7.6471    5.7344  -12.3034 C   0  0  0  0  0  0  0  0  0  0  0  0
    6.6041    4.8474  -12.4130 C   0  0  0  0  0  0  0  0  0  0  0  0
    6.8365    3.6588  -13.0829 C   0  0  0  0  0  0  0  0  0  0  0  0
    8.0621    3.3464  -13.6324 C   0  0  0  0  0  0  0  0  0  0  0  0
    9.0854    4.2729  -13.4967 C   0  0  0  0  0  0  0  0  0  0  0  0
    8.0252    2.0396  -14.2758 C   0  0  0  0  0  0  0  0  0  0  0  0
    8.9700    1.4447  -14.8769 O   0  0  0  0  0  0  0  0  0  0  0  0
    6.6715    1.5522  -14.0864 C   0  0  0  0  0  0  0  0  0  0  0  0
    5.9695    2.5080  -13.3820 C   0  0  0  0  0  0  0  0  0  0  0  0
    4.6356    2.3143  -13.0521 C   0  0  0  0  0  0  0  0  0  0  0  0
    4.0354    1.1385  -13.4500 C   0  0  0  0  0  0  0  0  0  0  0  0
    4.7468    0.1739  -14.1618 C   0  0  0  0  0  0  0  0  0  0  0  0
    4.4170   -1.0369  -14.6640 N   0  0  0  0  0  0  0  0  0  0  0  0
    5.4625   -1.6088  -15.2858 C   0  0  0  0  0  0  0  0  0  0  0  0
    5.5254   -2.8702  -15.9395 N   0  0  0  0  0  0  0  0  0  0  0  0
    6.2883   -3.1152  -16.6029 H   0  0  0  0  0  0  0  0  0  0  0  0
    4.7911   -3.5828  -15.7589 H   0  0  0  0  0  0  0  0  0  0  0  0
    6.4788   -0.7160  -15.1629 N   0  0  0  0  0  0  0  0  0  0  0  0
    6.0721    0.3715  -14.4868 C   0  0  0  0  0  0  0  0  0  0  0  0
   12.5034    8.2277   -0.7858 H   0  0  0  0  0  0  0  0  0  0  0  0
   12.3512    8.9571   -1.5083 N   0  0  0  0  0  0  0  0  0  0  0  0
   12.0108    8.6010   -2.7235 C   0  0  0  0  0  0  0  0  0  0  0  0
   11.8623    7.2631   -3.0149 C   0  0  0  0  0  0  0  0  0  0  0  0
   11.5042    6.9001   -4.2951 C   0  0  0  0  0  0  0  0  0  0  0  0
   11.2957    7.8484   -5.2749 C   0  0  0  0  0  0  0  0  0  0  0  0
   11.4582    9.1671   -4.9264 C   0  0  0  0  0  0  0  0  0  0  0  0
   11.8074    9.5297   -3.6793 N   0  0  0  0  0  0  0  0  0  0  0  0
   11.9361   10.5428   -3.3983 H   0  0  0  0  0  0  0  0  0  0  0  0
 33 34  1  0
 34 35  2  0
 35 36  1  0
 36 37  2  0
 37 38  1  0
 38  1  1  0
  1  2  2  0
  2  3  1  0
  3  4  2  0
  4  5  1  0
  5  6  2  0
  5  7  1  0
  7  8  2  0
  8  9  1  0
  9 10  2  0
 10 13  1  0
 13 14  2  0
 14 15  1  0
 15 16  2  0
 16 17  1  0
 17 18  2  0
 17 19  1  0
 19 20  2  0
 19 21  1  0
 21 22  2  0
 22 23  1  0
 23 24  2  0
 24 25  1  0
 25 26  1  0
 26 27  2  0
 27 28  1  0
 28 29  1  0
 28 30  1  0
 27 31  1  0
 31 32  1  0
  9 11  1  0
 11 12  1  0
 38 39  2  0
 39 40  1  0
 40 41  1  0
 40 35  1  0
  6  1  1  0
 18 13  1  0
 32 21  1  0
 11  4  1  0
 22 16  1  0
 32 25  2  0
M  CHG  1  31  -1
M  END
>  <minimizedAffinity>  (792) 
-16.73166

$$$$
Mol: 157_29 - SminaDock
     RDKit          3D

 38 44  0  0  0  0  0  0  0  0999 V2000
    6.8794   -2.1228  -16.6456 H   0  0  0  0  0  0  0  0  0  0  0  0
    6.0290   -2.5985  -16.8716 O   0  0  0  0  0  0  0  0  0  0  0  0
    5.0579   -1.6991  -17.3274 C   0  0  2  0  0  0  0  0  0  0  0  0
    5.7770   -0.6958  -18.2032 C   0  0  0  0  0  0  0  0  0  0  0  0
    6.6999    0.0184  -17.4064 O   0  0  0  0  0  0  0  0  0  0  0  0
    6.2154    0.5422  -16.1922 C   0  0  0  0  0  0  0  0  0  0  0  0
    6.9529    1.5833  -15.6267 C   0  0  0  0  0  0  0  0  0  0  0  0
    6.5279    2.1303  -14.4464 C   0  0  0  0  0  0  0  0  0  0  0  0
    5.3861    1.6503  -13.8306 C   0  0  0  0  0  0  0  0  0  0  0  0
    4.6703    0.6183  -14.4104 C   0  0  0  0  0  0  0  0  0  0  0  0
    5.0822    0.0601  -15.5937 C   0  0  0  0  0  0  0  0  0  0  0  0
    4.3001   -1.0596  -16.2181 C   0  0  0  0  0  0  0  0  0  0  0  0
    4.9765    2.1863  -12.5268 C   0  0  0  0  0  0  0  0  0  0  0  0
    5.4887    3.5234  -12.1699 C   0  0  0  0  0  0  0  0  0  0  0  0
    6.7870    3.8917  -12.7517 C   0  0  0  0  0  0  0  0  0  0  0  0
    7.5355    4.9405  -12.1772 C   0  0  0  0  0  0  0  0  0  0  0  0
    8.7177    5.3730  -12.7199 C   0  0  0  0  0  0  0  0  0  0  0  0
    9.1560    4.7414  -13.8593 C   0  0  0  0  0  0  0  0  0  0  0  0
    8.4341    3.6939  -14.4536 C   0  0  0  0  0  0  0  0  0  0  0  0
    7.2486    3.2785  -13.8853 C   0  0  0  0  0  0  0  0  0  0  0  0
    9.4441    6.4391  -12.1056 N   0  0  0  0  0  0  0  0  0  0  0  0
    9.6943    6.4549  -10.8349 C   0  0  0  0  0  0  0  0  0  0  0  0
    9.3027    5.4948  -10.0050 N   0  0  0  0  0  0  0  0  0  0  0  0
    9.5971    5.5777   -8.7010 C   0  0  0  0  0  0  0  0  0  0  0  0
   10.3047    6.6461   -8.1902 C   0  0  0  0  0  0  0  0  0  0  0  0
   10.6220    6.7608   -6.8608 C   0  0  0  0  0  0  0  0  0  0  0  0
   11.3258    7.8395   -6.4005 C   0  0  0  0  0  0  0  0  0  0  0  0
   11.7245    8.8196   -7.2535 C   0  0  0  0  0  0  0  0  0  0  0  0
   11.4165    8.7186   -8.5756 C   0  0  0  0  0  0  0  0  0  0  0  0
   10.7035    7.6315   -9.0586 C   0  0  0  0  0  0  0  0  0  0  0  0
   10.3841    7.5019  -10.3536 N   0  0  0  0  0  0  0  0  0  0  0  0
   10.7086    8.2846  -11.0030 H   0  0  0  0  0  0  0  0  0  0  0  0
   11.6485    7.9307   -4.9718 C   0  0  0  0  0  0  0  0  0  0  0  0
   12.2050    9.1016   -4.4984 C   0  0  0  0  0  0  0  0  0  0  0  0
   12.5046    9.1880   -3.1754 C   0  0  0  0  0  0  0  0  0  0  0  0
   12.2447    8.1020   -2.3370 C   0  0  0  0  0  0  0  0  0  0  0  0
   11.6946    6.9433   -2.8025 C   0  0  0  0  0  0  0  0  0  0  0  0
   11.3904    6.8577   -4.1499 C   0  0  0  0  0  0  0  0  0  0  0  0
  1  2  1  0
  3  2  1  1
  3  4  1  0
  4  5  1  0
  5  6  1  0
  6  7  2  0
  7  8  1  0
  8  9  2  0
  9 10  1  0
 10 11  2  0
 11 12  1  0
  9 13  1  0
 13 14  1  0
 14 15  1  0
 15 16  2  0
 16 17  1  0
 17 21  1  0
 21 22  2  0
 22 23  1  0
 23 24  2  0
 24 25  1  0
 25 26  2  0
 26 27  1  0
 27 33  1  0
 33 34  2  0
 34 35  1  0
 35 36  2  0
 36 37  1  0
 37 38  2  0
 27 28  2  0
 28 29  1  0
 29 30  2  0
 30 31  1  0
 31 32  1  0
 17 18  2  0
 18 19  1  0
 19 20  2  0
 12  3  1  0
 20 15  1  0
 11  6  1  0
 31 22  1  0
 20  8  1  0
 30 25  1  0
 38 33  1  0
M  END
>  <minimizedAffinity>  (793) 
-16.66250

$$$$
Mol: 158_2 - SminaDock
     RDKit          3D

 41 47  0  0  0  0  0  0  0  0999 V2000
    8.8462    5.9517  -12.2193 C   0  0  0  0  0  0  0  0  0  0  0  0
    9.6448    5.1519  -13.0051 C   0  0  0  0  0  0  0  0  0  0  0  0
    9.1774    3.9717  -13.6011 C   0  0  0  0  0  0  0  0  0  0  0  0
    7.8615    3.6363  -13.3652 C   0  0  0  0  0  0  0  0  0  0  0  0
    7.0590    4.4207  -12.5880 C   0  0  0  0  0  0  0  0  0  0  0  0
    7.5471    5.5848  -12.0093 C   0  0  0  0  0  0  0  0  0  0  0  0
    5.6635    4.0984  -12.3165 C   0  0  0  0  0  0  0  0  0  0  0  0
    5.1710    2.8921  -12.9189 N   0  0  0  0  0  0  0  0  0  0  0  0
    4.1806    2.6640  -12.7246 H   0  0  0  0  0  0  0  0  0  0  0  0
    6.0019    2.0869  -13.7195 C   0  0  0  0  0  0  0  0  0  0  0  0
    7.3425    2.4097  -13.9726 C   0  0  0  0  0  0  0  0  0  0  0  0
    8.1287    1.6391  -14.7352 N   0  0  0  0  0  0  0  0  0  0  0  0
    9.1222    1.8495  -14.9413 H   0  0  0  0  0  0  0  0  0  0  0  0
    7.6604    0.5034  -15.3013 C   0  0  0  0  0  0  0  0  0  0  0  0
    8.4007   -0.2235  -16.0202 O   0  0  0  0  0  0  0  0  0  0  0  0
    6.3558    0.1118  -15.1045 C   0  0  0  0  0  0  0  0  0  0  0  0
    5.8983   -1.0534  -15.6929 C   0  0  0  0  0  0  0  0  0  0  0  0
    4.5920   -1.4237  -15.4816 C   0  0  0  0  0  0  0  0  0  0  0  0
    3.8152   -0.6127  -14.6966 C   0  0  0  0  0  0  0  0  0  0  0  0
    2.6157   -0.9240  -14.4843 O   0  0  0  0  0  0  0  0  0  0  0  0
    4.2824    0.5301  -14.1257 N   0  0  0  0  0  0  0  0  0  0  0  0
    3.6536    1.1105  -13.5386 H   0  0  0  0  0  0  0  0  0  0  0  0
    5.5402    0.9071  -14.3160 C   0  0  0  0  0  0  0  0  0  0  0  0
   11.3725    8.1293   -5.7917 C   0  0  0  0  0  0  0  0  0  0  0  0
   11.5921    9.2465   -6.5712 C   0  0  0  0  0  0  0  0  0  0  0  0
   11.2471    9.2664   -7.9064 C   0  0  0  0  0  0  0  0  0  0  0  0
   10.6661    8.1745   -8.5323 C   0  0  0  0  0  0  0  0  0  0  0  0
   10.3299    8.1938   -9.8339 N   0  0  0  0  0  0  0  0  0  0  0  0
    9.7637    7.1245  -10.4354 C   0  0  0  0  0  0  0  0  0  0  0  0
    9.4363    7.1215  -11.6720 N   0  0  0  0  0  0  0  0  0  0  0  0
    9.5539    6.0411   -9.6667 N   0  0  0  0  0  0  0  0  0  0  0  0
    9.1089    5.1971  -10.1351 H   0  0  0  0  0  0  0  0  0  0  0  0
    9.8687    5.9635   -8.3624 C   0  0  0  0  0  0  0  0  0  0  0  0
   10.4466    7.0585   -7.7535 C   0  0  0  0  0  0  0  0  0  0  0  0
   10.7949    7.0373   -6.4039 C   0  0  0  0  0  0  0  0  0  0  0  0
   12.4371    7.9943   -1.6725 C   0  0  0  0  0  0  0  0  0  0  0  0
   12.3661    9.2120   -2.3126 C   0  0  0  0  0  0  0  0  0  0  0  0
   12.0183    9.2613   -3.6594 C   0  0  0  0  0  0  0  0  0  0  0  0
   11.7417    8.1135   -4.3726 C   0  0  0  0  0  0  0  0  0  0  0  0
   11.8220    6.9099   -3.7010 C   0  0  0  0  0  0  0  0  0  0  0  0
   12.1637    6.8355   -2.3698 C   0  0  0  0  0  0  0  0  0  0  0  0
 36 37  2  0
 37 38  1  0
 38 39  2  0
 39 24  1  0
 24 25  1  0
 25 26  2  0
 26 27  1  0
 27 28  2  0
 28 29  1  0
 29 30  2  0
 30  1  1  0
  1  2  2  0
  2  3  1  0
  3  4  2  0
  4  5  1  0
  5  6  2  0
  5  7  1  0
  7  8  1  0
  8  9  1  0
  8 10  1  0
 10 11  2  0
 11 12  1  0
 12 13  1  0
 12 14  1  0
 14 15  2  0
 14 16  1  0
 16 17  1  0
 17 18  2  0
 18 19  1  0
 19 20  2  0
 19 21  1  0
 21 22  1  0
 21 23  1  0
 29 31  1  0
 31 32  1  0
 31 33  1  0
 33 34  2  0
 34 35  1  0
 39 40  1  0
 40 41  2  0
 41 36  1  0
 35 24  2  0
 34 27  1  0
  6  1  1  0
 23 10  1  0
 11  4  1  0
 23 16  2  0
M  END
>  <minimizedAffinity>  (794) 
-16.70824

$$$$
Mol: 197_18 - SminaDock
     RDKit          3D

 43 50  0  0  0  0  0  0  0  0999 V2000
    8.5575    5.8640  -12.5022 C   0  0  0  0  0  0  0  0  0  0  0  0
    7.3083    5.4756  -12.0679 C   0  0  0  0  0  0  0  0  0  0  0  0
    6.7857    4.3321  -12.6598 C   0  0  0  0  0  0  0  0  0  0  0  0
    7.4678    3.6209  -13.6254 C   0  0  0  0  0  0  0  0  0  0  0  0
    8.7177    4.0359  -14.0391 C   0  0  0  0  0  0  0  0  0  0  0  0
    9.2594    5.1723  -13.4640 C   0  0  0  0  0  0  0  0  0  0  0  0
    9.2331    3.1140  -15.0720 C   0  0  2  0  0  0  0  0  0  0  0  0
   10.5288    2.5141  -14.7416 C   0  0  0  0  0  0  0  0  0  0  0  0
   11.0550    2.2063  -13.6462 O   0  0  0  0  0  0  0  0  0  0  0  0
   11.1995    2.2986  -15.9961 N   0  0  0  0  0  0  0  0  0  0  0  0
   12.0135    1.6793  -16.2026 H   0  0  0  0  0  0  0  0  0  0  0  0
   10.5534    3.1017  -16.9786 C   0  0  0  0  0  0  0  0  0  0  0  0
   10.8440    3.1974  -18.2179 O   0  0  0  0  0  0  0  0  0  0  0  0
    9.4984    3.8005  -16.3298 N   0  0  0  0  0  0  0  0  0  0  0  0
    8.9974    4.6467  -16.6745 H   0  0  0  0  0  0  0  0  0  0  0  0
    8.1524    2.1032  -15.2289 C   0  0  0  0  0  0  0  0  0  0  0  0
    7.1119    2.4067  -14.3724 C   0  0  0  0  0  0  0  0  0  0  0  0
    6.0038    1.5839  -14.3646 C   0  0  0  0  0  0  0  0  0  0  0  0
    5.9041    0.4676  -15.1865 C   0  0  0  0  0  0  0  0  0  0  0  0
    4.9732   -0.4828  -15.3846 N   0  0  0  0  0  0  0  0  0  0  0  0
    5.3688   -1.3480  -16.3019 N   0  0  0  0  0  0  0  0  0  0  0  0
    6.5647   -0.9412  -16.6900 N   0  0  0  0  0  0  0  0  0  0  0  0
    7.1259   -1.4369  -17.4140 H   0  0  0  0  0  0  0  0  0  0  0  0
    6.9424    0.1683  -16.0384 C   0  0  0  0  0  0  0  0  0  0  0  0
    8.0591    0.9947  -16.0484 C   0  0  0  0  0  0  0  0  0  0  0  0
   11.2221    8.0226   -6.1144 C   0  0  0  0  0  0  0  0  0  0  0  0
   11.4210    9.1519   -6.8837 C   0  0  0  0  0  0  0  0  0  0  0  0
   11.0373    9.1562   -8.2084 C   0  0  0  0  0  0  0  0  0  0  0  0
   10.4464    8.0456   -8.8106 C   0  0  0  0  0  0  0  0  0  0  0  0
   10.2566    6.9284   -8.0256 C   0  0  0  0  0  0  0  0  0  0  0  0
    9.6687    5.8354   -8.6405 C   0  0  0  0  0  0  0  0  0  0  0  0
    9.3076    5.8766   -9.9359 N   0  0  0  0  0  0  0  0  0  0  0  0
    9.4993    6.9742  -10.6890 C   0  0  0  0  0  0  0  0  0  0  0  0
    9.1545    7.0248  -11.9409 N   0  0  0  0  0  0  0  0  0  0  0  0
   10.0736    8.0535  -10.1028 N   0  0  0  0  0  0  0  0  0  0  0  0
   10.2301    8.9142  -10.6721 H   0  0  0  0  0  0  0  0  0  0  0  0
   10.6412    6.9227   -6.6964 C   0  0  0  0  0  0  0  0  0  0  0  0
   12.3708    7.9632   -2.0532 C   0  0  0  0  0  0  0  0  0  0  0  0
   12.3497    9.1573   -2.7481 C   0  0  0  0  0  0  0  0  0  0  0  0
   11.9705    9.1678   -4.0841 C   0  0  0  0  0  0  0  0  0  0  0  0
   11.6173    7.9863   -4.7097 C   0  0  0  0  0  0  0  0  0  0  0  0
   11.6491    6.8165   -3.9904 C   0  0  0  0  0  0  0  0  0  0  0  0
   12.0195    6.7717   -2.6668 C   0  0  0  0  0  0  0  0  0  0  0  0
 38 39  2  0
 39 40  1  0
 40 41  2  0
 41 26  1  0
 26 27  2  0
 27 28  1  0
 28 29  2  0
 29 30  1  0
 30 31  1  0
 31 32  2  0
 32 33  1  0
 33 34  2  0
 34  1  1  0
  1  2  2  0
  2  3  1  0
  3  4  2  0
  4  5  1  0
  5  6  2  0
  5  7  1  0
  7  8  1  0
  8  9  2  0
  8 10  1  0
 10 11  1  0
 10 12  1  0
 12 13  2  0
 12 14  1  0
 14 15  1  0
  7 16  1  0
 16 17  2  0
 17 18  1  0
 18 19  2  0
 19 20  1  0
 20 21  2  0
 21 22  1  0
 22 23  1  0
 22 24  1  0
 24 25  2  0
 33 35  1  0
 35 36  1  0
 30 37  2  0
 41 42  1  0
 42 43  2  0
 43 38  1  0
 37 26  1  0
 35 29  1  0
  6  1  1  0
  7 14  1  6
 25 16  1  0
 17  4  1  0
 24 19  1  0
M  END
>  <minimizedAffinity>  (795) 
-16.65719

$$$$
Mol: 196_22 - SminaDock
     RDKit          3D

 38 44  0  0  0  0  0  0  0  0999 V2000
    9.5887    6.1496  -12.4889 C   0  0  0  0  0  0  0  0  0  0  0  0
    8.3014    6.3387  -12.0610 C   0  0  0  0  0  0  0  0  0  0  0  0
    7.3632    5.3402  -12.3184 C   0  0  0  0  0  0  0  0  0  0  0  0
    7.7422    4.1951  -12.9901 C   0  0  0  0  0  0  0  0  0  0  0  0
    9.0224    4.0252  -13.4068 C   0  0  0  0  0  0  0  0  0  0  0  0
    9.9542    5.0267  -13.1462 C   0  0  0  0  0  0  0  0  0  0  0  0
    9.4893    2.8487  -14.1228 C   0  0  0  0  0  0  0  0  0  0  0  0
    8.5342    1.7569  -14.3834 C   0  0  0  0  0  0  0  0  0  0  0  0
    7.1645    2.0033  -13.9133 C   0  0  0  0  0  0  0  0  0  0  0  0
    6.7543    3.1387  -13.2510 C   0  0  0  0  0  0  0  0  0  0  0  0
    5.4704    3.3383  -12.8248 C   0  0  0  0  0  0  0  0  0  0  0  0
    4.5499    2.3393  -13.0798 C   0  0  0  0  0  0  0  0  0  0  0  0
    4.9314    1.1961  -13.7383 C   0  0  0  0  0  0  0  0  0  0  0  0
    3.9987    0.1928  -13.9899 C   0  0  0  0  0  0  0  0  0  0  0  0
    4.3737   -0.9559  -14.6468 C   0  0  0  0  0  0  0  0  0  0  0  0
    5.6317   -1.1514  -15.0638 N   0  0  0  0  0  0  0  0  0  0  0  0
    5.9016   -2.0376  -15.5651 H   0  0  0  0  0  0  0  0  0  0  0  0
    6.5358   -0.1781  -14.8197 C   0  0  0  0  0  0  0  0  0  0  0  0
    7.6892   -0.4050  -15.2247 O   0  0  0  0  0  0  0  0  0  0  0  0
    6.2225    1.0000  -14.1645 C   0  0  0  0  0  0  0  0  0  0  0  0
   11.2489    7.6054   -6.0652 C   0  0  0  0  0  0  0  0  0  0  0  0
   10.2853    6.6661   -6.3612 C   0  0  0  0  0  0  0  0  0  0  0  0
    9.9621    6.3844   -7.6930 C   0  0  0  0  0  0  0  0  0  0  0  0
   10.5929    7.0330   -8.7392 C   0  0  0  0  0  0  0  0  0  0  0  0
   11.5587    7.9748   -8.4508 C   0  0  0  0  0  0  0  0  0  0  0  0
   12.1774    8.6113   -9.4683 N   0  0  0  0  0  0  0  0  0  0  0  0
   11.8857    8.3599  -10.7525 C   0  0  0  0  0  0  0  0  0  0  0  0
   10.9124    7.4108  -11.0420 C   0  0  0  0  0  0  0  0  0  0  0  0
   10.6034    7.1409  -12.2514 N   0  0  0  0  0  0  0  0  0  0  0  0
   10.2937    6.7747  -10.0395 N   0  0  0  0  0  0  0  0  0  0  0  0
    9.5664    6.0653  -10.2682 H   0  0  0  0  0  0  0  0  0  0  0  0
   11.8626    8.2376   -7.1295 C   0  0  0  0  0  0  0  0  0  0  0  0
   12.2504    8.3844   -1.9880 C   0  0  0  0  0  0  0  0  0  0  0  0
   12.0933    9.4425   -2.8628 C   0  0  0  0  0  0  0  0  0  0  0  0
   11.7673    9.1753   -4.1858 C   0  0  0  0  0  0  0  0  0  0  0  0
   11.5904    7.9045   -4.6794 C   0  0  0  0  0  0  0  0  0  0  0  0
   11.7549    6.8550   -3.7748 C   0  0  0  0  0  0  0  0  0  0  0  0
   12.0805    7.0969   -2.4480 C   0  0  0  0  0  0  0  0  0  0  0  0
 33 34  2  0
 34 35  1  0
 35 36  2  0
 36 21  1  0
 21 22  2  0
 22 23  1  0
 23 24  2  0
 24 25  1  0
 25 26  1  0
 26 27  2  0
 27 28  1  0
 28 29  2  0
 29  1  1  0
  1  2  2  0
  2  3  1  0
  3  4  2  0
  4  5  1  0
  5  6  2  0
  5  7  1  0
  7  8  1  0
  8  9  1  0
  9 10  2  0
 10 11  1  0
 11 12  2  0
 12 13  1  0
 13 14  1  0
 14 15  2  0
 15 16  1  0
 16 17  1  0
 16 18  1  0
 18 19  2  0
 18 20  1  0
 28 30  1  0
 30 31  1  0
 25 32  2  0
 36 37  1  0
 37 38  2  0
 38 33  1  0
 32 21  1  0
 30 24  1  0
  6  1  1  0
 20  9  1  0
 10  4  1  0
 20 13  2  0
M  END
>  <minimizedAffinity>  (796) 
-16.65101

$$$$
Mol: 193_32 - SminaDock
     RDKit          3D

 44 51  0  0  0  0  0  0  0  0999 V2000
    7.3516   -1.7072  -17.7959 H   0  0  0  0  0  0  0  0  0  0  0  0
    7.2244   -0.9504  -17.0900 N   0  0  0  0  0  0  0  0  0  0  0  0
    6.1278   -0.9363  -16.4176 C   0  0  0  0  0  0  0  0  0  0  0  0
    5.7254   -0.0521  -15.4403 C   0  0  0  0  0  0  0  0  0  0  0  0
    6.3269    1.0660  -14.8728 C   0  0  0  0  0  0  0  0  0  0  0  0
    5.6692    1.7618  -13.8935 C   0  0  0  0  0  0  0  0  0  0  0  0
    4.4056    1.3868  -13.4386 C   0  0  0  0  0  0  0  0  0  0  0  0
    3.8078    0.2932  -13.9869 C   0  0  0  0  0  0  0  0  0  0  0  0
    4.4796   -0.3984  -14.9716 C   0  0  0  0  0  0  0  0  0  0  0  0
    4.1313   -1.5147  -15.6851 N   0  0  0  0  0  0  0  0  0  0  0  0
    3.2212   -2.0033  -15.5409 H   0  0  0  0  0  0  0  0  0  0  0  0
    5.0906   -1.8242  -16.5238 N   0  0  0  0  0  0  0  0  0  0  0  0
    5.1282   -2.6189  -17.2038 H   0  0  0  0  0  0  0  0  0  0  0  0
    6.5169    2.8836  -13.4896 C   0  0  0  0  0  0  0  0  0  0  0  0
    6.3546    3.9000  -12.5599 C   0  0  0  0  0  0  0  0  0  0  0  0
    7.3001    4.8710  -12.3543 C   0  0  0  0  0  0  0  0  0  0  0  0
    8.4977    4.8677  -13.1011 C   0  0  0  0  0  0  0  0  0  0  0  0
    8.6363    3.8572  -14.0115 C   0  0  0  0  0  0  0  0  0  0  0  0
    7.6649    2.8583  -14.2207 C   0  0  0  0  0  0  0  0  0  0  0  0
    7.6414    1.6802  -15.1258 C   0  0  1  0  0  0  0  0  0  0  0  0
    8.6675    0.7165  -14.5847 C   0  0  0  0  0  0  0  0  0  0  0  0
   10.0162    0.7939  -15.1977 C   0  0  0  0  0  0  0  0  0  0  0  0
    9.9006    0.7069  -16.6200 N   0  0  0  0  0  0  0  0  0  0  0  0
   10.8601    0.6965  -17.0196 H   0  0  0  0  0  0  0  0  0  0  0  0
    9.2182    1.8610  -17.1036 C   0  0  0  0  0  0  0  0  0  0  0  0
    7.8752    2.1269  -16.5323 C   0  0  0  0  0  0  0  0  0  0  0  0
    9.4558    5.8777  -12.8862 N   0  0  0  0  0  0  0  0  0  0  0  0
    9.8722    6.3178  -11.7771 C   0  0  0  0  0  0  0  0  0  0  0  0
   10.8422    7.3336  -11.7513 C   0  0  0  0  0  0  0  0  0  0  0  0
   11.2731    7.8071  -10.5441 C   0  0  0  0  0  0  0  0  0  0  0  0
   10.7826    7.3153   -9.3574 C   0  0  0  0  0  0  0  0  0  0  0  0
   11.1871    7.7565   -8.1323 C   0  0  0  0  0  0  0  0  0  0  0  0
   10.6981    7.2613   -6.9297 C   0  0  0  0  0  0  0  0  0  0  0  0
    9.7508    6.2676   -7.0250 C   0  0  0  0  0  0  0  0  0  0  0  0
    9.3239    5.8026   -8.2739 C   0  0  0  0  0  0  0  0  0  0  0  0
    9.8412    6.3287   -9.4326 C   0  0  0  0  0  0  0  0  0  0  0  0
    9.4106    5.8568  -10.6189 N   0  0  0  0  0  0  0  0  0  0  0  0
    8.6745    5.1115  -10.5834 H   0  0  0  0  0  0  0  0  0  0  0  0
   11.1661    7.7788   -5.6533 C   0  0  0  0  0  0  0  0  0  0  0  0
   11.3234    6.9208   -4.5746 C   0  0  0  0  0  0  0  0  0  0  0  0
   11.7607    7.3723   -3.3556 C   0  0  0  0  0  0  0  0  0  0  0  0
   12.0686    8.6935   -3.1249 C   0  0  0  0  0  0  0  0  0  0  0  0
   11.9127    9.5604   -4.2030 C   0  0  0  0  0  0  0  0  0  0  0  0
   11.4714    9.1048   -5.4358 C   0  0  0  0  0  0  0  0  0  0  0  0
  1  2  1  0
  2  3  2  0
  3  4  1  0
  4  5  2  0
  5  6  1  0
  6  7  2  0
  7  8  1  0
  8  9  2  0
  9 10  1  0
 10 11  1  0
 10 12  1  0
 12 13  1  0
  6 14  1  0
 14 15  2  0
 15 16  1  0
 16 17  2  0
 17 27  1  0
 27 28  2  0
 28 29  1  0
 29 30  2  0
 30 31  1  0
 31 32  2  0
 32 33  1  0
 33 39  1  0
 39 40  2  0
 40 41  1  0
 41 42  2  0
 42 43  1  0
 43 44  2  0
 33 34  2  0
 34 35  1  0
 35 36  2  0
 36 37  1  0
 37 38  1  0
 17 18  1  0
 18 19  2  0
 19 20  1  0
 20 21  1  1
 21 22  1  0
 22 23  1  0
 23 24  1  0
 23 25  1  0
 25 26  1  0
 12  3  1  0
 19 14  1  0
 26 20  1  0
  9  4  1  0
 37 28  1  0
 20  5  1  0
 36 31  1  0
 44 39  1  0
M  END
>  <minimizedAffinity>  (797) 
-16.72523

$$$$
Mol: 192_56 - SminaDock
     RDKit          3D

 45 52  0  0  0  0  0  0  0  0999 V2000
    7.8674    4.5850  -12.7940 C   0  0  0  0  0  0  0  0  0  0  0  0
    6.5875    4.4325  -12.2932 C   0  0  0  0  0  0  0  0  0  0  0  0
    5.7580    3.3982  -12.6751 C   0  0  0  0  0  0  0  0  0  0  0  0
    6.1840    2.4532  -13.5935 C   0  0  0  0  0  0  0  0  0  0  0  0
    7.4532    2.5908  -14.1004 C   0  0  0  0  0  0  0  0  0  0  0  0
    8.2774    3.6408  -13.7044 C   0  0  0  0  0  0  0  0  0  0  0  0
    7.6738    1.4784  -15.0397 C   0  0  1  0  0  0  0  0  0  0  0  0
    7.9976    1.9827  -16.3936 C   0  0  0  0  0  0  0  0  0  0  0  0
    7.0544    2.3737  -17.1254 O   0  0  0  0  0  0  0  0  0  0  0  0
    9.3325    2.0309  -16.8707 N   0  0  0  0  0  0  0  0  0  0  0  0
    9.4974    2.5479  -17.7537 H   0  0  0  0  0  0  0  0  0  0  0  0
   10.3867    1.4022  -16.1712 C   0  0  0  0  0  0  0  0  0  0  0  0
   11.5620    1.4591  -16.6145 O   0  0  0  0  0  0  0  0  0  0  0  0
   10.1176    0.6988  -14.9553 N   0  0  0  0  0  0  0  0  0  0  0  0
   10.9310    0.2532  -14.4788 H   0  0  0  0  0  0  0  0  0  0  0  0
    8.7844    0.6539  -14.4847 C   0  0  0  0  0  0  0  0  0  0  0  0
    8.5000   -0.1235  -13.5412 O   0  0  0  0  0  0  0  0  0  0  0  0
    6.4263    0.6920  -15.0461 C   0  0  0  0  0  0  0  0  0  0  0  0
    5.5388    1.2788  -14.1738 C   0  0  0  0  0  0  0  0  0  0  0  0
    4.2733    0.7567  -13.9643 C   0  0  0  0  0  0  0  0  0  0  0  0
    3.8944   -0.3815  -14.6493 C   0  0  0  0  0  0  0  0  0  0  0  0
    4.7493   -1.0037  -15.5331 C   0  0  0  0  0  0  0  0  0  0  0  0
    4.6711   -2.0976  -16.3286 N   0  0  0  0  0  0  0  0  0  0  0  0
    5.8111   -2.2423  -16.9856 N   0  0  0  0  0  0  0  0  0  0  0  0
    6.0024   -3.0108  -17.6628 H   0  0  0  0  0  0  0  0  0  0  0  0
    6.6386   -1.2464  -16.6238 C   0  0  0  0  0  0  0  0  0  0  0  0
    6.0014   -0.4396  -15.7039 C   0  0  0  0  0  0  0  0  0  0  0  0
   11.0949    7.5854   -6.9410 C   0  0  0  0  0  0  0  0  0  0  0  0
   11.4140    8.4798   -7.9489 C   0  0  0  0  0  0  0  0  0  0  0  0
   10.9818    8.2683   -9.2451 C   0  0  0  0  0  0  0  0  0  0  0  0
   10.2258    7.1664   -9.5628 C   0  0  0  0  0  0  0  0  0  0  0  0
    9.7900    6.9443  -10.8380 N   0  0  0  0  0  0  0  0  0  0  0  0
    9.0481    5.8688  -11.1584 C   0  0  0  0  0  0  0  0  0  0  0  0
    8.6375    5.6602  -12.3526 N   0  0  0  0  0  0  0  0  0  0  0  0
    8.7462    5.0101  -10.1710 N   0  0  0  0  0  0  0  0  0  0  0  0
    8.1755    4.1596  -10.3561 H   0  0  0  0  0  0  0  0  0  0  0  0
    9.1550    5.1855   -8.8874 C   0  0  0  0  0  0  0  0  0  0  0  0
    9.9100    6.2793   -8.5599 C   0  0  0  0  0  0  0  0  0  0  0  0
   10.3384    6.4880   -7.2733 C   0  0  0  0  0  0  0  0  0  0  0  0
   12.3945    8.2035   -2.9266 C   0  0  0  0  0  0  0  0  0  0  0  0
   11.8244    6.9829   -3.2734 C   0  0  0  0  0  0  0  0  0  0  0  0
   11.4223    6.8330   -4.5802 C   0  0  0  0  0  0  0  0  0  0  0  0
   11.5454    7.7978   -5.5561 C   0  0  0  0  0  0  0  0  0  0  0  0
   12.1192    9.0036   -5.1745 C   0  0  0  0  0  0  0  0  0  0  0  0
   12.5382    9.1998   -3.8707 C   0  0  0  0  0  0  0  0  0  0  0  0
 40 41  2  0
 41 42  1  0
 42 43  2  0
 43 28  1  0
 28 29  1  0
 29 30  2  0
 30 31  1  0
 31 32  2  0
 32 33  1  0
 33 34  2  0
 34  1  1  0
  1  2  2  0
  2  3  1  0
  3  4  2  0
  4  5  1  0
  5  6  2  0
  5  7  1  0
  7  8  1  6
  8  9  2  0
  8 10  1  0
 10 11  1  0
 10 12  1  0
 12 13  2  0
 12 14  1  0
 14 15  1  0
 14 16  1  0
 16 17  2  0
  7 18  1  0
 18 19  2  0
 19 20  1  0
 20 21  2  0
 21 22  1  0
 22 23  2  0
 23 24  1  0
 24 25  1  0
 24 26  1  0
 26 27  2  0
 33 35  1  0
 35 36  1  0
 35 37  1  0
 37 38  2  0
 38 39  1  0
 43 44  1  0
 44 45  2  0
 45 40  1  0
 39 28  2  0
 38 31  1  0
  6  1  1  0
 16  7  1  0
 27 18  1  0
 19  4  1  0
 27 22  1  0
M  END
>  <minimizedAffinity>  (798) 
-16.70396

$$$$
Mol: 141_1 - SminaDock
     RDKit          3D

 39 45  0  0  0  0  0  0  0  0999 V2000
    4.1692   -3.2526  -16.6847 H   0  0  0  0  0  0  0  0  0  0  0  0
    4.8299   -2.7494  -17.2674 O   0  0  0  0  0  0  0  0  0  0  0  0
    5.4738   -1.5982  -16.7389 C   0  0  0  0  0  0  0  0  0  0  0  0
    4.9552   -0.9555  -15.7685 N   0  0  0  0  0  0  0  0  0  0  0  0
    5.5411    0.1978  -15.1926 C   0  0  0  0  0  0  0  0  0  0  0  0
    4.9751    0.8877  -14.1457 C   0  0  0  0  0  0  0  0  0  0  0  0
    5.6398    2.0187  -13.6508 C   0  0  0  0  0  0  0  0  0  0  0  0
    6.8328    2.4671  -14.1690 C   0  0  0  0  0  0  0  0  0  0  0  0
    7.3878    1.7809  -15.2035 C   0  0  0  0  0  0  0  0  0  0  0  0
    6.7299    0.6406  -15.7109 C   0  0  0  0  0  0  0  0  0  0  0  0
    7.3317   -0.0421  -16.7792 N   0  0  0  0  0  0  0  0  0  0  0  0
    8.2529    0.3286  -17.1523 H   0  0  0  0  0  0  0  0  0  0  0  0
    6.7277   -1.2081  -17.3569 C   0  0  0  0  0  0  0  0  0  0  0  0
    7.4904    3.6760  -13.6456 C   0  0  0  0  0  0  0  0  0  0  0  0
    8.7060    4.0947  -14.1450 C   0  0  0  0  0  0  0  0  0  0  0  0
    9.3015    5.2061  -13.6031 C   0  0  0  0  0  0  0  0  0  0  0  0
    8.7332    5.9253  -12.5757 C   0  0  0  0  0  0  0  0  0  0  0  0
    7.5332    5.4887  -12.1038 C   0  0  0  0  0  0  0  0  0  0  0  0
    6.8940    4.3642  -12.6269 C   0  0  0  0  0  0  0  0  0  0  0  0
    5.5826    3.9675  -12.0911 C   0  0  0  0  0  0  0  0  0  0  0  0
    4.9986    2.6919  -12.5156 C   0  0  0  0  0  0  0  0  0  0  0  0
    9.3119    7.0762  -11.9858 N   0  0  0  0  0  0  0  0  0  0  0  0
    9.6444    7.0518  -10.7364 C   0  0  0  0  0  0  0  0  0  0  0  0
    9.4572    5.9569   -9.9670 N   0  0  0  0  0  0  0  0  0  0  0  0
    9.7941    5.9071   -8.6654 C   0  0  0  0  0  0  0  0  0  0  0  0
   10.3616    7.0058   -8.0456 C   0  0  0  0  0  0  0  0  0  0  0  0
   10.7184    6.9876   -6.7127 C   0  0  0  0  0  0  0  0  0  0  0  0
   11.2854    8.0909   -6.0997 C   0  0  0  0  0  0  0  0  0  0  0  0
   11.4736    9.2042   -6.8892 C   0  0  0  0  0  0  0  0  0  0  0  0
   11.1167    9.2273   -8.2291 C   0  0  0  0  0  0  0  0  0  0  0  0
   10.5506    8.1211   -8.8346 C   0  0  0  0  0  0  0  0  0  0  0  0
   10.1954    8.1202  -10.1359 N   0  0  0  0  0  0  0  0  0  0  0  0
   10.3438    8.9779  -10.7341 H   0  0  0  0  0  0  0  0  0  0  0  0
   11.6487    8.0306   -4.6856 C   0  0  0  0  0  0  0  0  0  0  0  0
   12.0319    9.1514   -3.9790 C   0  0  0  0  0  0  0  0  0  0  0  0
   12.3748    9.1114   -2.6493 C   0  0  0  0  0  0  0  0  0  0  0  0
   12.3479    7.9322   -1.9618 C   0  0  0  0  0  0  0  0  0  0  0  0
   11.9721    6.7795   -2.6181 C   0  0  0  0  0  0  0  0  0  0  0  0
   11.6290    6.8535   -3.9724 C   0  0  0  0  0  0  0  0  0  0  0  0
  1  2  1  0
  2  3  1  0
  3  4  2  0
  4  5  1  0
  5  6  2  0
  6  7  1  0
  7  8  2  0
  8  9  1  0
  9 10  2  0
 10 11  1  0
 11 12  1  0
 11 13  1  0
  8 14  1  0
 14 15  2  0
 15 16  1  0
 16 17  2  0
 17 22  1  0
 22 23  2  0
 23 24  1  0
 24 25  2  0
 25 26  1  0
 26 27  2  0
 27 28  1  0
 28 34  1  0
 34 35  2  0
 35 36  1  0
 36 37  2  0
 37 38  1  0
 38 39  2  0
 28 29  2  0
 29 30  1  0
 30 31  2  0
 31 32  1  0
 32 33  1  0
 17 18  1  0
 18 19  2  0
 19 20  1  0
 20 21  1  0
 13  3  1  0
 19 14  1  0
 10  5  1  0
 32 23  1  0
 21  7  1  0
 31 26  1  0
 39 34  1  0
M  END
>  <minimizedAffinity>  (799) 
-16.67482

$$$$
Mol: 191_54 - SminaDock
     RDKit          3D

 38 44  0  0  0  0  0  0  0  0999 V2000
    8.5014    5.7975  -12.3465 C   0  0  0  0  0  0  0  0  0  0  0  0
    7.3151    5.4174  -11.7689 C   0  0  0  0  0  0  0  0  0  0  0  0
    6.5649    4.3231  -12.1983 C   0  0  0  0  0  0  0  0  0  0  0  0
    7.0502    3.5864  -13.2648 C   0  0  0  0  0  0  0  0  0  0  0  0
    6.3805    2.4858  -13.7618 C   0  0  0  0  0  0  0  0  0  0  0  0
    5.2022    2.0991  -13.1953 C   0  0  0  0  0  0  0  0  0  0  0  0
    4.5133    0.9813  -13.6921 C   0  0  0  0  0  0  0  0  0  0  0  0
    5.0703    0.3131  -14.7503 C   0  0  0  0  0  0  0  0  0  0  0  0
    4.3756   -0.7981  -15.2356 C   0  0  0  0  0  0  0  0  0  0  0  0
    4.8558   -1.5322  -16.2939 C   0  0  0  0  0  0  0  0  0  0  0  0
    6.0523   -1.1493  -16.8784 C   0  0  0  0  0  0  0  0  0  0  0  0
    6.7603   -0.0501  -16.4147 C   0  0  0  0  0  0  0  0  0  0  0  0
    6.2722    0.6748  -15.3587 C   0  0  0  0  0  0  0  0  0  0  0  0
    6.9354    1.7853  -14.8485 C   0  0  0  0  0  0  0  0  0  0  0  0
    8.1124    2.1781  -15.4075 C   0  0  0  0  0  0  0  0  0  0  0  0
    8.6467    1.6037  -16.3608 O   0  0  0  0  0  0  0  0  0  0  0  0
    8.7340    3.2718  -14.8789 N   0  0  0  0  0  0  0  0  0  0  0  0
    9.9887    3.6841  -15.4813 C   0  0  0  0  0  0  0  0  0  0  0  0
    8.2376    3.9493  -13.8597 C   0  0  0  0  0  0  0  0  0  0  0  0
    8.9687    5.0554  -13.4043 C   0  0  0  0  0  0  0  0  0  0  0  0
   11.3203    7.9892   -6.0324 C   0  0  0  0  0  0  0  0  0  0  0  0
   11.6451    9.0348   -6.8772 C   0  0  0  0  0  0  0  0  0  0  0  0
   11.2918    9.0343   -8.2099 C   0  0  0  0  0  0  0  0  0  0  0  0
   10.5938    7.9864   -8.7706 C   0  0  0  0  0  0  0  0  0  0  0  0
   10.2268    7.9399  -10.0662 N   0  0  0  0  0  0  0  0  0  0  0  0
    9.5459    6.9111  -10.6017 C   0  0  0  0  0  0  0  0  0  0  0  0
    9.2309    6.9395  -11.8523 N   0  0  0  0  0  0  0  0  0  0  0  0
    9.2241    5.8851   -9.7841 N   0  0  0  0  0  0  0  0  0  0  0  0
    8.6874    5.0690  -10.1939 H   0  0  0  0  0  0  0  0  0  0  0  0
    9.5679    5.8853   -8.4851 C   0  0  0  0  0  0  0  0  0  0  0  0
   10.2654    6.9339   -7.9261 C   0  0  0  0  0  0  0  0  0  0  0  0
   10.6185    6.9342   -6.5934 C   0  0  0  0  0  0  0  0  0  0  0  0
   12.4236    7.9651   -1.9051 C   0  0  0  0  0  0  0  0  0  0  0  0
   12.0667    6.8082   -2.5578 C   0  0  0  0  0  0  0  0  0  0  0  0
   11.7112    6.8306   -3.8979 C   0  0  0  0  0  0  0  0  0  0  0  0
   11.7004    8.0012   -4.6249 C   0  0  0  0  0  0  0  0  0  0  0  0
   12.0585    9.1599   -3.9684 C   0  0  0  0  0  0  0  0  0  0  0  0
   12.4173    9.1466   -2.6220 C   0  0  0  0  0  0  0  0  0  0  0  0
 33 34  2  0
 34 35  1  0
 35 36  2  0
 36 21  1  0
 21 22  1  0
 22 23  2  0
 23 24  1  0
 24 25  2  0
 25 26  1  0
 26 27  2  0
 27  1  1  0
  1  2  2  0
  2  3  1  0
  3  4  2  0
  4  5  1  0
  5  6  2  0
  6  7  1  0
  7  8  2  0
  8  9  1  0
  9 10  2  0
 10 11  1  0
 11 12  2  0
 12 13  1  0
 13 14  2  0
 14 15  1  0
 15 16  2  0
 15 17  1  0
 17 18  1  0
 17 19  1  0
 19 20  2  0
 26 28  1  0
 28 29  1  0
 28 30  1  0
 30 31  2  0
 31 32  1  0
 36 37  1  0
 37 38  2  0
 38 33  1  0
 32 21  2  0
 31 24  1  0
 20  1  1  0
 19  4  1  0
 14  5  1  0
 13  8  1  0
M  END
>  <minimizedAffinity>  (800) 
-16.65194

$$$$
Mol: 191_25 - SminaDock
     RDKit          3D

 37 43  0  0  0  0  0  0  0  0999 V2000
    8.5777    5.6229  -12.3711 C   0  0  0  0  0  0  0  0  0  0  0  0
    7.2441    5.4592  -12.1078 C   0  0  0  0  0  0  0  0  0  0  0  0
    6.6487    4.3204  -12.6176 C   0  0  0  0  0  0  0  0  0  0  0  0
    7.3855    3.3932  -13.3621 C   0  0  0  0  0  0  0  0  0  0  0  0
    8.6999    3.5557  -13.6198 C   0  0  0  0  0  0  0  0  0  0  0  0
    9.3077    4.7166  -13.1011 C   0  0  0  0  0  0  0  0  0  0  0  0
    9.4916    2.5859  -14.3720 C   0  0  0  0  0  0  0  0  0  0  0  0
    8.7840    1.4594  -14.9811 C   0  0  0  0  0  0  0  0  0  0  0  0
    7.3759    1.3154  -14.6531 C   0  0  0  0  0  0  0  0  0  0  0  0
    6.6909    2.2194  -13.9005 C   0  0  0  0  0  0  0  0  0  0  0  0
    5.4193    1.8544  -13.7724 O   0  0  0  0  0  0  0  0  0  0  0  0
    5.2373    0.7316  -14.4179 C   0  0  0  0  0  0  0  0  0  0  0  0
    4.1164   -0.0784  -14.6075 C   0  0  0  0  0  0  0  0  0  0  0  0
    4.2859   -1.2160  -15.3601 C   0  0  0  0  0  0  0  0  0  0  0  0
    5.5041   -1.5487  -15.9062 C   0  0  0  0  0  0  0  0  0  0  0  0
    5.6383   -2.5970  -16.5936 O   0  0  0  0  0  0  0  0  0  0  0  0
    6.5870   -0.7639  -15.7216 N   0  0  0  0  0  0  0  0  0  0  0  0
    7.5214   -1.0042  -16.1312 H   0  0  0  0  0  0  0  0  0  0  0  0
    6.4154    0.3473  -14.9848 C   0  0  0  0  0  0  0  0  0  0  0  0
   11.2659    7.9318   -6.0380 C   0  0  0  0  0  0  0  0  0  0  0  0
   11.5286    8.9911   -6.8843 C   0  0  0  0  0  0  0  0  0  0  0  0
   11.1728    8.9666   -8.2175 C   0  0  0  0  0  0  0  0  0  0  0  0
   10.5248    7.8563   -8.7707 C   0  0  0  0  0  0  0  0  0  0  0  0
   10.2715    6.8083   -7.9079 C   0  0  0  0  0  0  0  0  0  0  0  0
   10.6286    6.8357   -6.5752 C   0  0  0  0  0  0  0  0  0  0  0  0
    9.6318    5.7172   -8.4638 C   0  0  0  0  0  0  0  0  0  0  0  0
    9.2744    5.6876   -9.7939 C   0  0  0  0  0  0  0  0  0  0  0  0
    9.5558    6.7651  -10.5994 C   0  0  0  0  0  0  0  0  0  0  0  0
    9.2314    6.7747  -11.8698 N   0  0  0  0  0  0  0  0  0  0  0  0
   10.1761    7.8250  -10.0645 N   0  0  0  0  0  0  0  0  0  0  0  0
   10.4132    8.6764  -10.6443 H   0  0  0  0  0  0  0  0  0  0  0  0
   12.4091    8.0832   -1.9267 C   0  0  0  0  0  0  0  0  0  0  0  0
   12.3700    9.2217   -2.7062 C   0  0  0  0  0  0  0  0  0  0  0  0
   12.0061    9.1853   -4.0214 C   0  0  0  0  0  0  0  0  0  0  0  0
   11.6568    7.9953   -4.6389 C   0  0  0  0  0  0  0  0  0  0  0  0
   11.6894    6.8528   -3.8807 C   0  0  0  0  0  0  0  0  0  0  0  0
   12.0573    6.8903   -2.5518 C   0  0  0  0  0  0  0  0  0  0  0  0
 32 33  2  0
 33 34  1  0
 34 35  2  0
 35 20  1  0
 20 21  2  0
 21 22  1  0
 22 23  2  0
 23 24  1  0
 24 25  2  0
 24 26  1  0
 26 27  2  0
 27 28  1  0
 28 29  2  0
 29  1  1  0
  1  2  2  0
  2  3  1  0
  3  4  2  0
  4  5  1  0
  5  6  2  0
  5  7  1  0
  7  8  1  0
  8  9  1  0
  9 10  2  0
 10 11  1  0
 11 12  1  0
 12 13  1  0
 13 14  2  0
 14 15  1  0
 15 16  2  0
 15 17  1  0
 17 18  1  0
 17 19  1  0
 28 30  1  0
 30 31  1  0
 35 36  1  0
 36 37  2  0
 37 32  1  0
 25 20  1  0
  6  1  1  0
 19  9  1  0
 30 23  1  0
 10  4  1  0
 19 12  2  0
M  END
>  <minimizedAffinity>  (801) 
-16.67688

$$$$
Mol: 191_36 - SminaDock
     RDKit          3D

 45 52  0  0  0  0  0  0  0  0999 V2000
    9.3430   -0.6285  -17.1368 H   0  0  0  0  0  0  0  0  0  0  0  0
    8.7523    0.1430  -16.8082 O   0  0  0  0  0  0  0  0  0  0  0  0
    7.4319   -0.1461  -16.4103 C   0  0  0  0  0  0  0  0  0  0  0  0
    6.8211   -1.2109  -16.9670 N   0  0  0  0  0  0  0  0  0  0  0  0
    5.5820   -1.5623  -16.6581 C   0  0  0  0  0  0  0  0  0  0  0  0
    4.8720   -0.8352  -15.7426 C   0  0  0  0  0  0  0  0  0  0  0  0
    5.4678    0.2616  -15.1532 C   0  0  0  0  0  0  0  0  0  0  0  0
    4.8045    1.0242  -14.2335 C   0  0  0  0  0  0  0  0  0  0  0  0
    5.3777    2.1239  -13.6328 C   0  0  0  0  0  0  0  0  0  0  0  0
    6.6687    2.4667  -13.9732 C   0  0  0  0  0  0  0  0  0  0  0  0
    7.3993    1.7339  -14.9009 C   0  0  0  0  0  0  0  0  0  0  0  0
    6.7850    0.6153  -15.4974 C   0  0  0  0  0  0  0  0  0  0  0  0
    8.7708    2.0418  -15.3030 C   0  0  0  0  0  0  0  0  0  0  0  0
    9.3687    3.2240  -14.6353 C   0  0  2  0  0  0  0  0  0  0  0  0
    9.7590    4.2073  -15.7293 C   0  0  0  0  0  0  0  0  0  0  0  0
    9.0678    4.5915  -16.6986 O   0  0  0  0  0  0  0  0  0  0  0  0
   11.0765    4.6140  -15.4398 N   0  0  0  0  0  0  0  0  0  0  0  0
   11.6256    3.8134  -14.4080 C   0  0  0  0  0  0  0  0  0  0  0  0
   12.8080    3.9633  -13.9466 O   0  0  0  0  0  0  0  0  0  0  0  0
   10.6615    2.8740  -14.0165 N   0  0  0  0  0  0  0  0  0  0  0  0
   10.7712    2.0471  -13.3976 H   0  0  0  0  0  0  0  0  0  0  0  0
    8.5534    3.9797  -13.6711 C   0  0  0  0  0  0  0  0  0  0  0  0
    9.1268    5.1044  -13.0669 C   0  0  0  0  0  0  0  0  0  0  0  0
    8.4006    5.8282  -12.1614 C   0  0  0  0  0  0  0  0  0  0  0  0
    7.1031    5.4546  -11.8399 C   0  0  0  0  0  0  0  0  0  0  0  0
    6.5246    4.3465  -12.4291 C   0  0  0  0  0  0  0  0  0  0  0  0
    7.2801    3.6299  -13.3430 C   0  0  0  0  0  0  0  0  0  0  0  0
    9.0180    6.9612  -11.5725 N   0  0  0  0  0  0  0  0  0  0  0  0
    9.3945    6.9342  -10.3594 C   0  0  0  0  0  0  0  0  0  0  0  0
    9.2338    5.8525   -9.5775 N   0  0  0  0  0  0  0  0  0  0  0  0
    9.6272    5.8245   -8.3098 C   0  0  0  0  0  0  0  0  0  0  0  0
   10.2279    6.9428   -7.7548 C   0  0  0  0  0  0  0  0  0  0  0  0
   10.6491    6.9322   -6.4211 C   0  0  0  0  0  0  0  0  0  0  0  0
   11.2461    8.0468   -5.8732 C   0  0  0  0  0  0  0  0  0  0  0  0
   11.4063    9.1508   -6.6834 C   0  0  0  0  0  0  0  0  0  0  0  0
   10.9911    9.1611   -7.9980 C   0  0  0  0  0  0  0  0  0  0  0  0
   10.3956    8.0550   -8.5513 C   0  0  0  0  0  0  0  0  0  0  0  0
    9.9754    8.0239   -9.8327 N   0  0  0  0  0  0  0  0  0  0  0  0
   10.1038    8.8776  -10.4446 H   0  0  0  0  0  0  0  0  0  0  0  0
   11.6993    8.0598   -4.4673 C   0  0  0  0  0  0  0  0  0  0  0  0
   11.7506    6.8650   -3.7909 C   0  0  0  0  0  0  0  0  0  0  0  0
   12.1757    6.8834   -2.4745 C   0  0  0  0  0  0  0  0  0  0  0  0
   12.5356    8.0630   -1.8640 C   0  0  0  0  0  0  0  0  0  0  0  0
   12.4779    9.2556   -2.5596 C   0  0  0  0  0  0  0  0  0  0  0  0
   12.0565    9.2544   -3.8718 C   0  0  0  0  0  0  0  0  0  0  0  0
  1  2  1  0
  2  3  1  0
  3  4  2  0
  4  5  1  0
  5  6  2  0
  6  7  1  0
  7  8  2  0
  8  9  1  0
  9 10  2  0
 10 11  1  0
 11 12  2  0
 11 13  1  0
 14 13  1  6
 14 15  1  0
 15 16  2  0
 15 17  1  0
 17 18  1  0
 18 19  2  0
 18 20  1  0
 20 21  1  0
 14 22  1  0
 22 23  2  0
 23 24  1  0
 24 28  1  0
 28 29  2  0
 29 30  1  0
 30 31  2  0
 31 32  1  0
 32 33  2  0
 33 34  1  0
 34 40  1  0
 40 41  2  0
 41 42  1  0
 42 43  2  0
 43 44  1  0
 44 45  2  0
 34 35  2  0
 35 36  1  0
 36 37  2  0
 37 38  1  0
 38 39  1  0
 24 25  2  0
 25 26  1  0
 26 27  2  0
 12  3  1  0
 14 20  1  0
 27 22  1  0
 12  7  1  0
 38 29  1  0
 27 10  1  0
 37 32  1  0
 45 40  1  0
M  CHG  1  17  -1
M  END
>  <minimizedAffinity>  (802) 
-16.74702

$$$$
Mol: 146_46 - SminaDock
     RDKit          3D

 40 46  0  0  0  0  0  0  0  0999 V2000
    7.9630   -1.0420  -19.1728 C   0  0  0  0  0  0  0  0  0  0  0  0
    7.2777   -0.8865  -18.0565 C   0  0  0  0  0  0  0  0  0  0  0  0
    6.4742   -2.0593  -17.6490 C   0  0  0  0  0  0  0  0  0  0  0  0
    6.6633   -3.1324  -18.2794 O   0  0  0  0  0  0  0  0  0  0  0  0
    5.5394   -2.0310  -16.6231 O   0  0  0  0  0  0  0  0  0  0  0  0
    4.6955   -0.9602  -16.2618 C   0  0  0  0  0  0  0  0  0  0  0  0
    5.4941    0.1912  -15.7111 C   0  0  0  0  0  0  0  0  0  0  0  0
    4.9516    0.7114  -14.5670 C   0  0  0  0  0  0  0  0  0  0  0  0
    5.5836    1.7748  -13.9607 C   0  0  0  0  0  0  0  0  0  0  0  0
    6.7419    2.3313  -14.4661 C   0  0  0  0  0  0  0  0  0  0  0  0
    7.2800    1.8143  -15.6022 C   0  0  0  0  0  0  0  0  0  0  0  0
    6.6449    0.7384  -16.2204 C   0  0  0  0  0  0  0  0  0  0  0  0
    7.3963    0.3708  -17.3944 N   0  0  0  0  0  0  0  0  0  0  0  0
    8.0579    1.0678  -17.7705 H   0  0  0  0  0  0  0  0  0  0  0  0
    7.3921    3.4512  -13.7885 C   0  0  0  0  0  0  0  0  0  0  0  0
    8.5393    4.0070  -14.3142 C   0  0  0  0  0  0  0  0  0  0  0  0
    9.1460    5.0906  -13.6638 C   0  0  0  0  0  0  0  0  0  0  0  0
    8.6330    5.6211  -12.5133 C   0  0  0  0  0  0  0  0  0  0  0  0
    7.4938    5.0526  -12.0103 C   0  0  0  0  0  0  0  0  0  0  0  0
    6.8559    3.9611  -12.6372 C   0  0  0  0  0  0  0  0  0  0  0  0
    5.6462    3.3896  -12.0390 C   0  0  0  0  0  0  0  0  0  0  0  0
    4.9505    2.3089  -12.7367 C   0  0  0  0  0  0  0  0  0  0  0  0
    9.2273    6.7233  -11.8291 N   0  0  0  0  0  0  0  0  0  0  0  0
    9.5536    6.7238  -10.6023 C   0  0  0  0  0  0  0  0  0  0  0  0
    9.3513    5.6402   -9.8379 N   0  0  0  0  0  0  0  0  0  0  0  0
    9.7162    5.7007   -8.5480 C   0  0  0  0  0  0  0  0  0  0  0  0
   10.2850    6.8232   -7.9866 C   0  0  0  0  0  0  0  0  0  0  0  0
   10.6500    6.8444   -6.6398 C   0  0  0  0  0  0  0  0  0  0  0  0
   11.2139    7.9887   -6.1266 C   0  0  0  0  0  0  0  0  0  0  0  0
   11.4094    9.0854   -6.9352 C   0  0  0  0  0  0  0  0  0  0  0  0
   11.0424    9.0461   -8.2641 C   0  0  0  0  0  0  0  0  0  0  0  0
   10.4737    7.9133   -8.8119 C   0  0  0  0  0  0  0  0  0  0  0  0
   10.1026    7.8266  -10.0880 N   0  0  0  0  0  0  0  0  0  0  0  0
   10.2629    8.6813  -10.6879 H   0  0  0  0  0  0  0  0  0  0  0  0
   11.5969    8.0236   -4.7300 C   0  0  0  0  0  0  0  0  0  0  0  0
   11.9622    9.1795   -4.0857 C   0  0  0  0  0  0  0  0  0  0  0  0
   12.3208    9.1776   -2.7565 C   0  0  0  0  0  0  0  0  0  0  0  0
   12.3272    8.0138   -2.0203 C   0  0  0  0  0  0  0  0  0  0  0  0
   11.9670    6.8487   -2.6399 C   0  0  0  0  0  0  0  0  0  0  0  0
   11.6123    6.8606   -3.9608 C   0  0  0  0  0  0  0  0  0  0  0  0
  1  2  2  0
  2  3  1  0
  3  4  2  0
  3  5  1  0
  5  6  1  0
  6  7  1  0
  7  8  2  0
  8  9  1  0
  9 10  2  0
 10 11  1  0
 11 12  2  0
 12 13  1  0
 13 14  1  0
 10 15  1  0
 15 16  2  0
 16 17  1  0
 17 18  2  0
 18 23  1  0
 23 24  2  0
 24 25  1  0
 25 26  2  0
 26 27  1  0
 27 28  2  0
 28 29  1  0
 29 35  1  0
 35 36  2  0
 36 37  1  0
 37 38  2  0
 38 39  1  0
 39 40  2  0
 29 30  2  0
 30 31  1  0
 31 32  2  0
 32 33  1  0
 33 34  1  0
 18 19  1  0
 19 20  2  0
 20 21  1  0
 21 22  1  0
 13  2  1  0
 20 15  1  0
 12  7  1  0
 33 24  1  0
 22  9  1  0
 32 27  1  0
 40 35  1  0
M  END
>  <minimizedAffinity>  (803) 
-16.74742

$$$$
Mol: 141_24 - SminaDock
     RDKit          3D

 38 44  0  0  0  0  0  0  0  0999 V2000
    8.6650    5.4535  -12.4587 C   0  0  0  0  0  0  0  0  0  0  0  0
    9.3197    4.7318  -13.4291 C   0  0  0  0  0  0  0  0  0  0  0  0
    8.7083    3.6455  -14.0596 C   0  0  0  0  0  0  0  0  0  0  0  0
    7.4261    3.3282  -13.6704 C   0  0  0  0  0  0  0  0  0  0  0  0
    6.7565    4.0370  -12.7090 C   0  0  0  0  0  0  0  0  0  0  0  0
    7.3880    5.1204  -12.0884 C   0  0  0  0  0  0  0  0  0  0  0  0
    5.3423    3.7555  -12.3912 C   0  0  0  0  0  0  0  0  0  0  0  0
    4.9867    2.3376  -12.5462 C   0  0  0  0  0  0  0  0  0  0  0  0
    5.5602    1.7152  -13.7386 C   0  0  0  0  0  0  0  0  0  0  0  0
    6.7856    2.1163  -14.2117 C   0  0  0  0  0  0  0  0  0  0  0  0
    7.3799    1.4482  -15.2843 C   0  0  0  0  0  0  0  0  0  0  0  0
    6.7477    0.3676  -15.9004 C   0  0  0  0  0  0  0  0  0  0  0  0
    5.5202    0.0019  -15.3970 C   0  0  0  0  0  0  0  0  0  0  0  0
    4.9243    0.6356  -14.3543 C   0  0  0  0  0  0  0  0  0  0  0  0
    4.8640   -1.0758  -15.9945 C   0  0  0  0  0  0  0  0  0  0  0  0
    5.4362   -1.7446  -17.0536 C   0  0  0  0  0  0  0  0  0  0  0  0
    6.6754   -1.3384  -17.5252 C   0  0  0  0  0  0  0  0  0  0  0  0
    7.1746   -1.9651  -18.4913 O   0  0  0  0  0  0  0  0  0  0  0  0
    7.2926   -0.2884  -16.9274 N   0  0  0  0  0  0  0  0  0  0  0  0
    8.2180   -0.0074  -17.3013 H   0  0  0  0  0  0  0  0  0  0  0  0
   11.2552    7.8827   -6.0503 C   0  0  0  0  0  0  0  0  0  0  0  0
   11.4904    8.9472   -6.8940 C   0  0  0  0  0  0  0  0  0  0  0  0
   11.1371    8.8977   -8.2439 C   0  0  0  0  0  0  0  0  0  0  0  0
   10.5346    7.7521   -8.7521 C   0  0  0  0  0  0  0  0  0  0  0  0
   10.2933    6.6796   -7.9193 C   0  0  0  0  0  0  0  0  0  0  0  0
    9.6940    5.5710   -8.4789 C   0  0  0  0  0  0  0  0  0  0  0  0
    9.3428    5.4949   -9.7759 N   0  0  0  0  0  0  0  0  0  0  0  0
    9.5953    6.5676  -10.5633 C   0  0  0  0  0  0  0  0  0  0  0  0
    9.2790    6.5497  -11.8184 N   0  0  0  0  0  0  0  0  0  0  0  0
   10.1810    7.6689  -10.0470 N   0  0  0  0  0  0  0  0  0  0  0  0
   10.3504    8.4674  -10.7089 H   0  0  0  0  0  0  0  0  0  0  0  0
   10.6565    6.7621   -6.5860 C   0  0  0  0  0  0  0  0  0  0  0  0
   12.3920    8.1236   -1.9662 C   0  0  0  0  0  0  0  0  0  0  0  0
   12.3753    9.2666   -2.7486 C   0  0  0  0  0  0  0  0  0  0  0  0
   12.0076    9.1978   -4.0738 C   0  0  0  0  0  0  0  0  0  0  0  0
   11.6496    7.9990   -4.6520 C   0  0  0  0  0  0  0  0  0  0  0  0
   11.6796    6.8711   -3.8290 C   0  0  0  0  0  0  0  0  0  0  0  0
   12.0384    6.9119   -2.5189 C   0  0  0  0  0  0  0  0  0  0  0  0
 33 34  2  0
 34 35  1  0
 35 36  2  0
 36 21  1  0
 21 22  2  0
 22 23  1  0
 23 24  2  0
 24 25  1  0
 25 26  1  0
 26 27  2  0
 27 28  1  0
 28 29  2  0
 29  1  1  0
  1  2  2  0
  2  3  1  0
  3  4  2  0
  4  5  1  0
  5  6  2  0
  5  7  1  0
  7  8  1  0
  8  9  1  0
  9 10  2  0
 10 11  1  0
 11 12  2  0
 12 13  1  0
 13 14  2  0
 13 15  1  0
 15 16  2  0
 16 17  1  0
 17 18  2  0
 17 19  1  0
 19 20  1  0
 28 30  1  0
 30 31  1  0
 25 32  2  0
 36 37  1  0
 37 38  2  0
 38 33  1  0
 32 21  1  0
 30 24  1  0
  6  1  1  0
 14  9  1  0
 10  4  1  0
 19 12  1  0
M  END
>  <minimizedAffinity>  (804) 
-16.73317

$$$$
Mol: 141_38 - SminaDock
     RDKit          3D

 37 43  0  0  0  0  0  0  0  0999 V2000
    8.7947    6.0040  -12.4389 C   0  0  0  0  0  0  0  0  0  0  0  0
    9.3956    5.3074  -13.4453 C   0  0  0  0  0  0  0  0  0  0  0  0
    8.8010    4.2231  -14.0623 C   0  0  0  0  0  0  0  0  0  0  0  0
    7.5459    3.8222  -13.6556 C   0  0  0  0  0  0  0  0  0  0  0  0
    6.9362    4.5352  -12.6282 C   0  0  0  0  0  0  0  0  0  0  0  0
    7.5544    5.6160  -12.0233 C   0  0  0  0  0  0  0  0  0  0  0  0
    5.5560    4.1532  -12.2405 C   0  0  0  0  0  0  0  0  0  0  0  0
    5.3367    2.6846  -12.1917 C   0  0  0  0  0  0  0  0  0  0  0  0
    5.8444    2.0411  -13.4375 C   0  0  0  0  0  0  0  0  0  0  0  0
    5.2319    0.9112  -13.9114 C   0  0  0  0  0  0  0  0  0  0  0  0
    5.6853    0.2603  -15.0111 C   0  0  0  0  0  0  0  0  0  0  0  0
    6.7820    0.7612  -15.6566 C   0  0  0  0  0  0  0  0  0  0  0  0
    7.4382    1.9160  -15.2075 C   0  0  0  0  0  0  0  0  0  0  0  0
    6.9685    2.5642  -14.0801 C   0  0  0  0  0  0  0  0  0  0  0  0
    8.4060    2.1825  -16.1186 C   0  0  0  0  0  0  0  0  0  0  0  0
    9.2642    3.0595  -16.2603 O   0  0  0  0  0  0  0  0  0  0  0  0
    8.3213    1.1896  -17.0743 N   0  0  0  0  0  0  0  0  0  0  0  0
    7.3890    0.3716  -16.8094 N   0  0  0  0  0  0  0  0  0  0  0  0
    6.9909   -0.8162  -17.5869 C   0  0  0  0  0  0  0  0  0  0  0  0
   11.2849    7.9849   -6.0180 C   0  0  0  0  0  0  0  0  0  0  0  0
   11.5551    9.1321   -6.7289 C   0  0  0  0  0  0  0  0  0  0  0  0
   11.2089    9.1447   -8.0563 C   0  0  0  0  0  0  0  0  0  0  0  0
   10.6098    8.0514   -8.6694 C   0  0  0  0  0  0  0  0  0  0  0  0
   10.3433    6.9023   -7.9415 C   0  0  0  0  0  0  0  0  0  0  0  0
    9.7500    5.8176   -8.5456 C   0  0  0  0  0  0  0  0  0  0  0  0
    9.4357    5.8940   -9.8487 N   0  0  0  0  0  0  0  0  0  0  0  0
    9.7029    7.0163  -10.5340 C   0  0  0  0  0  0  0  0  0  0  0  0
    9.4080    7.1203  -11.8061 N   0  0  0  0  0  0  0  0  0  0  0  0
   10.2756    8.0704   -9.9613 N   0  0  0  0  0  0  0  0  0  0  0  0
   10.4900    8.9558  -10.4876 H   0  0  0  0  0  0  0  0  0  0  0  0
   10.6934    6.8857   -6.5935 C   0  0  0  0  0  0  0  0  0  0  0  0
   12.3455    7.9967   -1.9225 C   0  0  0  0  0  0  0  0  0  0  0  0
   12.0104    6.8153   -2.5552 C   0  0  0  0  0  0  0  0  0  0  0  0
   11.6636    6.7810   -3.8762 C   0  0  0  0  0  0  0  0  0  0  0  0
   11.6448    7.9513   -4.6057 C   0  0  0  0  0  0  0  0  0  0  0  0
   11.9755    9.1420   -3.9959 C   0  0  0  0  0  0  0  0  0  0  0  0
   12.3232    9.1535   -2.6581 C   0  0  0  0  0  0  0  0  0  0  0  0
 32 33  2  0
 33 34  1  0
 34 35  2  0
 35 20  1  0
 20 21  2  0
 21 22  1  0
 22 23  2  0
 23 24  1  0
 24 25  1  0
 25 26  2  0
 26 27  1  0
 27 28  2  0
 28  1  1  0
  1  2  2  0
  2  3  1  0
  3  4  2  0
  4  5  1  0
  5  6  2  0
  5  7  1  0
  7  8  1  0
  8  9  1  0
  9 10  2  0
 10 11  1  0
 11 12  2  0
 12 13  1  0
 13 14  2  0
 13 15  1  0
 15 16  2  0
 15 17  1  0
 17 18  1  0
 18 19  1  0
 27 29  1  0
 29 30  1  0
 24 31  2  0
 35 36  1  0
 36 37  2  0
 37 32  1  0
 31 20  1  0
 29 23  1  0
  6  1  1  0
 14  9  1  0
 14  4  1  0
 18 12  1  0
M  CHG  1  17  -1
M  END
>  <minimizedAffinity>  (805) 
-16.66501

$$$$
Mol: 190_29 - SminaDock
     RDKit          3D

 47 54  0  0  0  0  0  0  0  0999 V2000
    8.4899    5.6294  -12.4054 C   0  0  0  0  0  0  0  0  0  0  0  0
    7.2432    5.1496  -12.0799 C   0  0  0  0  0  0  0  0  0  0  0  0
    6.7548    4.0885  -12.8079 C   0  0  0  0  0  0  0  0  0  0  0  0
    7.5223    3.5407  -13.8340 C   0  0  0  0  0  0  0  0  0  0  0  0
    8.7538    3.9967  -14.1723 C   0  0  0  0  0  0  0  0  0  0  0  0
    9.2433    5.0625  -13.4409 C   0  0  0  0  0  0  0  0  0  0  0  0
    9.6174    3.4557  -15.2502 C   0  0  2  0  0  0  0  0  0  0  0  0
    8.9589    2.3232  -15.9659 C   0  0  0  0  0  0  0  0  0  0  0  0
    9.6546    1.7300  -17.0064 C   0  0  0  0  0  0  0  0  0  0  0  0
    9.1342    0.6759  -17.7242 C   0  0  0  0  0  0  0  0  0  0  0  0
    7.8905    0.1672  -17.4316 C   0  0  0  0  0  0  0  0  0  0  0  0
    7.1797    0.7423  -16.3995 C   0  0  0  0  0  0  0  0  0  0  0  0
    5.9968    0.0427  -16.3368 C   0  0  0  0  0  0  0  0  0  0  0  0
    5.9683   -0.9566  -17.3168 C   0  0  0  0  0  0  0  0  0  0  0  0
    7.1412   -0.8433  -17.9587 N   0  0  0  0  0  0  0  0  0  0  0  0
    7.4311   -1.4606  -18.7621 H   0  0  0  0  0  0  0  0  0  0  0  0
    7.7201    1.8151  -15.6759 C   0  0  0  0  0  0  0  0  0  0  0  0
    6.9699    2.4061  -14.6065 C   0  0  0  0  0  0  0  0  0  0  0  0
    5.8364    1.9601  -14.3213 O   0  0  0  0  0  0  0  0  0  0  0  0
   10.8711    2.9042  -14.6595 C   0  0  0  0  0  0  0  0  0  0  0  0
   12.0263    3.8137  -14.5309 C   0  0  0  0  0  0  0  0  0  0  0  0
   12.1404    4.8375  -15.4177 O   0  0  0  0  0  0  0  0  0  0  0  0
   11.3130    4.8281  -16.5024 C   0  0  0  0  0  0  0  0  0  0  0  0
    9.8771    4.5509  -16.2401 C   0  0  0  0  0  0  0  0  0  0  0  0
   11.1386    7.9686   -5.9413 C   0  0  0  0  0  0  0  0  0  0  0  0
   11.1380    9.0871   -6.7668 C   0  0  0  0  0  0  0  0  0  0  0  0
   10.7037    9.0306   -8.0674 C   0  0  0  0  0  0  0  0  0  0  0  0
   10.2435    7.8435   -8.6154 C   0  0  0  0  0  0  0  0  0  0  0  0
   10.2434    6.7337   -7.7987 C   0  0  0  0  0  0  0  0  0  0  0  0
   10.6818    6.7859   -6.4825 C   0  0  0  0  0  0  0  0  0  0  0  0
    9.7845    5.5542   -8.3482 C   0  0  0  0  0  0  0  0  0  0  0  0
    9.3613    5.5541   -9.6563 C   0  0  0  0  0  0  0  0  0  0  0  0
    9.3742    6.6818  -10.4468 C   0  0  0  0  0  0  0  0  0  0  0  0
    8.9914    6.7193  -11.6577 N   0  0  0  0  0  0  0  0  0  0  0  0
    9.8246    7.8238   -9.8957 N   0  0  0  0  0  0  0  0  0  0  0  0
    9.8514    8.7148  -10.4688 H   0  0  0  0  0  0  0  0  0  0  0  0
   12.4933    8.0911   -1.8819 C   0  0  0  0  0  0  0  0  0  0  0  0
   12.3888    9.2500   -2.6231 C   0  0  0  0  0  0  0  0  0  0  0  0
   11.9511    9.2271   -3.9399 C   0  0  0  0  0  0  0  0  0  0  0  0
   11.6042    8.0441   -4.5571 C   0  0  0  0  0  0  0  0  0  0  0  0
   11.7065    6.8780   -3.8200 C   0  0  0  0  0  0  0  0  0  0  0  0
   12.1462    6.9076   -2.4995 C   0  0  0  0  0  0  0  0  0  0  0  0
    4.8874   -1.9037  -17.5673 C   0  0  0  0  0  0  0  0  0  0  0  0
    5.1915   -3.0684  -17.9061 O   0  0  0  0  0  0  0  0  0  0  0  0
    3.5227   -1.5590  -17.4429 N   0  0  0  0  0  0  0  0  0  0  0  0
    2.9948   -1.9534  -16.6401 H   0  0  0  0  0  0  0  0  0  0  0  0
    3.0068   -0.9351  -18.1017 H   0  0  0  0  0  0  0  0  0  0  0  0
 37 38  2  0
 38 39  1  0
 39 40  2  0
 40 25  1  0
 25 26  2  0
 26 27  1  0
 27 28  2  0
 28 29  1  0
 29 30  2  0
 29 31  1  0
 31 32  2  0
 32 33  1  0
 33 34  2  0
 34  1  1  0
  1  2  2  0
  2  3  1  0
  3  4  2  0
  4  5  1  0
  5  6  2  0
  5  7  1  0
  7  8  1  0
  8  9  2  0
  9 10  1  0
 10 11  2  0
 11 12  1  0
 12 13  1  0
 13 14  2  0
 14 43  1  0
 43 44  2  0
 43 45  1  0
 45 46  1  0
 45 47  1  0
 14 15  1  0
 15 16  1  0
 12 17  2  0
 17 18  1  0
 18 19  2  0
  7 20  1  1
 20 21  1  0
 21 22  1  0
 22 23  1  0
 23 24  1  0
 33 35  1  0
 35 36  1  0
 40 41  1  0
 41 42  2  0
 42 37  1  0
 30 25  1  0
  6  1  1  0
 24  7  1  0
 35 28  1  0
 18  4  1  0
 17  8  1  0
 15 11  1  0
M  END
>  <minimizedAffinity>  (806) 
-16.67285

$$$$
Mol: 155_52 - SminaDock
     RDKit          3D

 42 48  0  0  0  0  0  0  0  0999 V2000
    4.1378    0.2317  -12.9904 H   0  0  0  0  0  0  0  0  0  0  0  0
    5.0125    0.5495  -12.6029 O   0  0  0  0  0  0  0  0  0  0  0  0
    5.4919    1.7678  -13.0042 C   0  0  0  0  0  0  0  0  0  0  0  0
    5.2222    2.8772  -12.3191 C   0  0  0  0  0  0  0  0  0  0  0  0
    5.6047    4.2884  -12.5450 C   0  0  0  0  0  0  0  0  0  0  0  0
    7.0026    4.4757  -12.9335 C   0  0  0  0  0  0  0  0  0  0  0  0
    7.5867    5.5243  -12.2635 C   0  0  0  0  0  0  0  0  0  0  0  0
    8.9194    5.8330  -12.4787 C   0  0  0  0  0  0  0  0  0  0  0  0
    9.6661    5.0687  -13.3824 C   0  0  0  0  0  0  0  0  0  0  0  0
    9.0971    4.0131  -14.0632 C   0  0  0  0  0  0  0  0  0  0  0  0
    7.7808    3.7513  -13.8178 C   0  0  0  0  0  0  0  0  0  0  0  0
    7.2982    2.6254  -14.6014 C   0  0  0  0  0  0  0  0  0  0  0  0
    7.9694    2.5227  -15.7897 C   0  0  0  0  0  0  0  0  0  0  0  0
    7.6345    1.4570  -16.6374 C   0  0  0  0  0  0  0  0  0  0  0  0
    6.6572    0.5622  -16.2586 C   0  0  0  0  0  0  0  0  0  0  0  0
    5.9821    0.6754  -15.0569 C   0  0  0  0  0  0  0  0  0  0  0  0
    6.3053    1.7097  -14.2313 C   0  0  0  0  0  0  0  0  0  0  0  0
    6.3531   -0.5426  -17.2032 C   0  0  0  0  0  0  0  0  0  0  0  0
    6.2147    0.0312  -18.5748 C   0  0  2  0  0  0  0  0  0  0  0  0
    7.2695    1.0022  -18.9716 C   0  0  0  0  0  0  0  0  0  0  0  0
    8.3174    1.2726  -17.9439 C   0  0  0  0  0  0  0  0  0  0  0  0
    9.4610    6.9278  -11.7566 N   0  0  0  0  0  0  0  0  0  0  0  0
    9.7646    6.8983  -10.5189 C   0  0  0  0  0  0  0  0  0  0  0  0
    9.5739    5.7725   -9.8143 N   0  0  0  0  0  0  0  0  0  0  0  0
    9.8987    5.7407   -8.4891 C   0  0  0  0  0  0  0  0  0  0  0  0
   10.4208    6.8802   -7.9015 C   0  0  0  0  0  0  0  0  0  0  0  0
   10.7746    6.9202   -6.5549 C   0  0  0  0  0  0  0  0  0  0  0  0
   11.2923    8.0456   -5.9668 C   0  0  0  0  0  0  0  0  0  0  0  0
   11.4649    9.1712   -6.7429 C   0  0  0  0  0  0  0  0  0  0  0  0
   11.1264    9.1694   -8.0780 C   0  0  0  0  0  0  0  0  0  0  0  0
   10.6059    8.0235   -8.6513 C   0  0  0  0  0  0  0  0  0  0  0  0
   10.2704    8.0047   -9.9531 N   0  0  0  0  0  0  0  0  0  0  0  0
   10.3988    8.8490  -10.5389 H   0  0  0  0  0  0  0  0  0  0  0  0
   11.6595    8.0640   -4.5399 C   0  0  0  0  0  0  0  0  0  0  0  0
   11.6745    6.9083   -3.7956 C   0  0  0  0  0  0  0  0  0  0  0  0
   12.0125    6.8914   -2.4625 C   0  0  0  0  0  0  0  0  0  0  0  0
   12.3435    8.0658   -1.8637 C   0  0  0  0  0  0  0  0  0  0  0  0
   12.3318    9.2280   -2.5989 C   0  0  0  0  0  0  0  0  0  0  0  0
   11.9956    9.2456   -3.9255 C   0  0  0  0  0  0  0  0  0  0  0  0
    4.9143    0.7178  -18.6211 N   0  0  0  0  0  0  0  0  0  0  0  0
    4.3871    0.4607  -17.7533 H   0  0  0  0  0  0  0  0  0  0  0  0
    4.1242    0.2732  -19.7419 C   0  0  0  0  0  0  0  0  0  0  0  0
  1  2  1  0
  2  3  1  0
  3  4  2  0
  4  5  1  0
  5  6  1  0
  6  7  2  0
  7  8  1  0
  8 22  1  0
 22 23  2  0
 23 24  1  0
 24 25  2  0
 25 26  1  0
 26 27  2  0
 27 28  1  0
 28 34  1  0
 34 35  2  0
 35 36  1  0
 36 37  2  0
 37 38  1  0
 38 39  2  0
 28 29  2  0
 29 30  1  0
 30 31  2  0
 31 32  1  0
 32 33  1  0
  8  9  2  0
  9 10  1  0
 10 11  2  0
 11 12  1  0
 12 13  2  0
 13 14  1  0
 14 15  2  0
 15 16  1  0
 16 17  2  0
 15 18  1  0
 18 19  1  0
 19 40  1  1
 40 41  1  0
 40 42  1  0
 19 20  1  0
 20 21  1  0
 17  3  1  0
 11  6  1  0
 17 12  1  0
 32 23  1  0
 21 14  1  0
 31 26  1  0
 39 34  1  0
M  END
>  <minimizedAffinity>  (807) 
-16.73028

$$$$
Mol: 197_6 - SminaDock
     RDKit          3D

 37 43  0  0  0  0  0  0  0  0999 V2000
    5.3533   -2.6901  -15.5243 O   0  0  0  0  0  0  0  0  0  0  0  0
    5.6301   -1.4212  -15.0309 C   0  0  0  0  0  0  0  0  0  0  0  0
    6.7854   -0.7083  -15.0783 N   0  0  0  0  0  0  0  0  0  0  0  0
    6.5971    0.4701  -14.4743 C   0  0  0  0  0  0  0  0  0  0  0  0
    7.4460    1.5449  -14.2498 C   0  0  0  0  0  0  0  0  0  0  0  0
    7.0101    2.6705  -13.5842 C   0  0  0  0  0  0  0  0  0  0  0  0
    5.6879    2.7094  -13.1372 C   0  0  0  0  0  0  0  0  0  0  0  0
    4.8312    1.6484  -13.3537 C   0  0  0  0  0  0  0  0  0  0  0  0
    5.2979    0.5317  -14.0241 C   0  0  0  0  0  0  0  0  0  0  0  0
    4.7399   -0.6488  -14.3865 N   0  0  0  0  0  0  0  0  0  0  0  0
    5.1414    3.8560  -12.4091 C   0  0  0  0  0  0  0  0  0  0  0  0
    6.0028    5.0279  -12.2379 C   0  0  0  0  0  0  0  0  0  0  0  0
    7.4147    4.9258  -12.6542 C   0  0  0  0  0  0  0  0  0  0  0  0
    8.2737    6.0116  -12.3620 C   0  0  0  0  0  0  0  0  0  0  0  0
    9.5873    5.9568  -12.7523 C   0  0  0  0  0  0  0  0  0  0  0  0
   10.0142    4.8382  -13.4194 C   0  0  0  0  0  0  0  0  0  0  0  0
    9.1861    3.7514  -13.7203 C   0  0  0  0  0  0  0  0  0  0  0  0
    7.8652    3.8168  -13.3200 C   0  0  0  0  0  0  0  0  0  0  0  0
    4.9086   -3.3223  -14.8486 H   0  0  0  0  0  0  0  0  0  0  0  0
   10.4496    7.0719  -12.4461 N   0  0  0  0  0  0  0  0  0  0  0  0
   10.7579    7.6965  -13.2154 H   0  0  0  0  0  0  0  0  0  0  0  0
   10.8817    7.3342  -11.1377 C   0  0  0  0  0  0  0  0  0  0  0  0
   12.0773    7.9465  -10.8275 C   0  0  0  0  0  0  0  0  0  0  0  0
   12.4696    8.1778   -9.5080 C   0  0  0  0  0  0  0  0  0  0  0  0
   11.6629    7.7953   -8.4600 C   0  0  0  0  0  0  0  0  0  0  0  0
   12.0221    7.9979   -7.1412 C   0  0  0  0  0  0  0  0  0  0  0  0
   11.2083    7.5984   -6.0993 C   0  0  0  0  0  0  0  0  0  0  0  0
   10.0247    6.9921   -6.4394 C   0  0  0  0  0  0  0  0  0  0  0  0
    9.6531    6.7837   -7.7521 C   0  0  0  0  0  0  0  0  0  0  0  0
   10.4724    7.1845   -8.7945 C   0  0  0  0  0  0  0  0  0  0  0  0
   10.1192    6.9742  -10.0828 N   0  0  0  0  0  0  0  0  0  0  0  0
   11.5784    7.7992   -4.6912 C   0  0  0  0  0  0  0  0  0  0  0  0
   11.8410    9.0486   -4.1674 C   0  0  0  0  0  0  0  0  0  0  0  0
   12.2018    9.2085   -2.8377 C   0  0  0  0  0  0  0  0  0  0  0  0
   12.3109    8.1264   -1.9927 C   0  0  0  0  0  0  0  0  0  0  0  0
   12.0506    6.8774   -2.5065 C   0  0  0  0  0  0  0  0  0  0  0  0
   11.6931    6.7298   -3.8269 C   0  0  0  0  0  0  0  0  0  0  0  0
  1  2  1  0
  2  3  1  0
  3  4  1  0
  4  5  2  0
  5  6  1  0
  6  7  2  0
  7  8  1  0
  8  9  2  0
  9 10  1  0
  7 11  1  0
 11 12  1  0
 12 13  1  0
 13 14  2  0
 14 15  1  0
 15 20  1  0
 20 22  1  0
 22 23  2  0
 23 24  1  0
 24 25  2  0
 25 26  1  0
 26 27  2  0
 27 32  1  0
 32 33  2  0
 33 34  1  0
 34 35  2  0
 35 36  1  0
 36 37  2  0
 27 28  1  0
 28 29  2  0
 29 30  1  0
 30 31  2  0
 15 16  2  0
 16 17  1  0
 17 18  2  0
 10  2  2  0
 18 13  1  0
  9  4  1  0
 31 22  1  0
 18  6  1  0
 30 25  1  0
 37 32  1  0
  1 19  1  0
 20 21  1  0
M  CHG  1   3  -1
M  END
>  <minimizedAffinity>  (808) 
-16.67450

$$$$
Mol: 197_7 - SminaDock
     RDKit          3D

 35 41  0  0  0  0  0  0  0  0999 V2000
   11.2618    8.0007   -6.0644 C   0  0  0  0  0  0  0  0  0  0  0  0
   11.4656    9.1019   -6.8829 C   0  0  0  0  0  0  0  0  0  0  0  0
   11.0890    9.0637   -8.2096 C   0  0  0  0  0  0  0  0  0  0  0  0
   10.5023    7.9543   -8.7835 C   0  0  0  0  0  0  0  0  0  0  0  0
   10.2977    6.8562   -7.9726 C   0  0  0  0  0  0  0  0  0  0  0  0
    9.7110    5.7544   -8.5599 C   0  0  0  0  0  0  0  0  0  0  0  0
    9.3587    5.7576   -9.8590 N   0  0  0  0  0  0  0  0  0  0  0  0
    9.5594    6.8293  -10.6461 C   0  0  0  0  0  0  0  0  0  0  0  0
    9.2313    6.8655  -11.9006 N   0  0  0  0  0  0  0  0  0  0  0  0
   10.1359    7.9176  -10.0778 N   0  0  0  0  0  0  0  0  0  0  0  0
   10.2871    8.7442  -10.6978 H   0  0  0  0  0  0  0  0  0  0  0  0
   10.6748    6.8922   -6.6405 C   0  0  0  0  0  0  0  0  0  0  0  0
    8.6313    5.7099  -12.4588 C   0  0  0  0  0  0  0  0  0  0  0  0
    9.3049    5.0122  -13.4128 C   0  0  0  0  0  0  0  0  0  0  0  0
    8.7505    3.8630  -13.9947 C   0  0  0  0  0  0  0  0  0  0  0  0
    7.5141    3.4137  -13.6159 C   0  0  0  0  0  0  0  0  0  0  0  0
    6.8427    4.1218  -12.6556 C   0  0  0  0  0  0  0  0  0  0  0  0
    7.3925    5.2764  -12.0663 C   0  0  0  0  0  0  0  0  0  0  0  0
    5.5134    3.7214  -12.2097 C   0  0  0  0  0  0  0  0  0  0  0  0
    4.9864    2.4684  -12.7466 C   0  0  0  0  0  0  0  0  0  0  0  0
    5.7409    1.7883  -13.7974 C   0  0  0  0  0  0  0  0  0  0  0  0
    6.9704    2.2096  -14.2226 C   0  0  0  0  0  0  0  0  0  0  0  0
    7.6532    1.5054  -15.2193 C   0  0  0  0  0  0  0  0  0  0  0  0
    7.1259    0.3758  -15.8075 C   0  0  0  0  0  0  0  0  0  0  0  0
    7.5155   -0.4643  -16.7318 O   0  0  0  0  0  0  0  0  0  0  0  0
    6.6076   -1.3858  -16.9139 N   0  0  0  0  0  0  0  0  0  0  0  0
    5.5544   -1.1853  -16.0952 C   0  0  0  0  0  0  0  0  0  0  0  0
    5.8837   -0.0411  -15.3719 C   0  0  0  0  0  0  0  0  0  0  0  0
    5.2043    0.6366  -14.3985 C   0  0  0  0  0  0  0  0  0  0  0  0
   12.4286    7.9638   -1.9625 C   0  0  0  0  0  0  0  0  0  0  0  0
   12.0920    6.7939   -2.6291 C   0  0  0  0  0  0  0  0  0  0  0  0
   11.7259    6.8578   -3.9377 C   0  0  0  0  0  0  0  0  0  0  0  0
   11.6678    8.0514   -4.6620 C   0  0  0  0  0  0  0  0  0  0  0  0
   12.0007    9.2054   -4.0013 C   0  0  0  0  0  0  0  0  0  0  0  0
   12.3778    9.1446   -2.6561 C   0  0  0  0  0  0  0  0  0  0  0  0
 30 31  2  0
 31 32  1  0
 32 33  2  0
 33  1  1  0
  1  2  2  0
  2  3  1  0
  3  4  2  0
  4  5  1  0
  5  6  1  0
  6  7  2  0
  7  8  1  0
  8  9  2  0
  9 13  1  0
 13 14  2  0
 14 15  1  0
 15 16  2  0
 16 17  1  0
 17 18  2  0
 17 19  1  0
 19 20  1  0
 20 21  1  0
 21 22  2  0
 22 23  1  0
 23 24  2  0
 24 25  1  0
 25 26  1  0
 26 27  2  0
 27 28  1  0
 28 29  2  0
  8 10  1  0
 10 11  1  0
  5 12  2  0
 33 34  1  0
 34 35  2  0
 35 30  1  0
 12  1  1  0
 10  4  1  0
 18 13  1  0
 29 21  1  0
 22 16  1  0
 28 24  1  0
M  END
>  <minimizedAffinity>  (809) 
-16.66399

$$$$
Mol: 186_2 - SminaDock
     RDKit          3D

 36 42  0  0  0  0  0  0  0  0999 V2000
   11.3640    8.0760   -5.8015 C   0  0  0  0  0  0  0  0  0  0  0  0
   11.5770    9.2228   -6.5381 C   0  0  0  0  0  0  0  0  0  0  0  0
   11.2307    9.2720   -7.8862 C   0  0  0  0  0  0  0  0  0  0  0  0
   10.6689    8.1645   -8.4945 C   0  0  0  0  0  0  0  0  0  0  0  0
   10.3369    8.2196   -9.7973 N   0  0  0  0  0  0  0  0  0  0  0  0
    9.7918    7.1317  -10.3694 C   0  0  0  0  0  0  0  0  0  0  0  0
    9.4687    7.1824  -11.6329 N   0  0  0  0  0  0  0  0  0  0  0  0
    9.5643    5.9903   -9.6946 N   0  0  0  0  0  0  0  0  0  0  0  0
    9.1351    5.1909  -10.2212 H   0  0  0  0  0  0  0  0  0  0  0  0
    9.8826    5.8890   -8.3809 C   0  0  0  0  0  0  0  0  0  0  0  0
   10.4443    6.9984   -7.7757 C   0  0  0  0  0  0  0  0  0  0  0  0
   10.8027    6.9849   -6.4299 C   0  0  0  0  0  0  0  0  0  0  0  0
    8.8879    6.0613  -12.2934 C   0  0  0  0  0  0  0  0  0  0  0  0
    9.4409    5.4929  -13.4134 C   0  0  0  0  0  0  0  0  0  0  0  0
    8.8648    4.3966  -14.0520 C   0  0  0  0  0  0  0  0  0  0  0  0
    7.7005    3.8622  -13.5455 C   0  0  0  0  0  0  0  0  0  0  0  0
    7.1012    4.4013  -12.4142 C   0  0  0  0  0  0  0  0  0  0  0  0
    7.7262    5.4968  -11.8215 C   0  0  0  0  0  0  0  0  0  0  0  0
    5.9473    3.8610  -11.9235 O   0  0  0  0  0  0  0  0  0  0  0  0
    5.2408    2.7673  -12.4407 C   0  0  0  0  0  0  0  0  0  0  0  0
    5.8713    2.1973  -13.6325 C   0  0  0  0  0  0  0  0  0  0  0  0
    7.0447    2.7061  -14.1748 C   0  0  0  0  0  0  0  0  0  0  0  0
    7.6174    2.1570  -15.2913 C   0  0  0  0  0  0  0  0  0  0  0  0
    6.9916    1.0708  -15.8728 C   0  0  0  0  0  0  0  0  0  0  0  0
    5.8228    0.5382  -15.3602 C   0  0  0  0  0  0  0  0  0  0  0  0
    5.2459   -0.5643  -16.0043 C   0  0  0  0  0  0  0  0  0  0  0  0
    4.0901   -1.0792  -15.4849 C   0  0  0  0  0  0  0  0  0  0  0  0
    3.5375   -0.5060  -14.3611 C   0  0  0  0  0  0  0  0  0  0  0  0
    4.0983    0.5725  -13.7279 C   0  0  0  0  0  0  0  0  0  0  0  0
    5.2766    1.1131  -14.2407 C   0  0  0  0  0  0  0  0  0  0  0  0
   12.4605    8.0667   -1.7161 C   0  0  0  0  0  0  0  0  0  0  0  0
   12.1245    6.8836   -2.3585 C   0  0  0  0  0  0  0  0  0  0  0  0
   11.7624    6.8877   -3.7086 C   0  0  0  0  0  0  0  0  0  0  0  0
   11.7411    8.0692   -4.3952 C   0  0  0  0  0  0  0  0  0  0  0  0
   12.0786    9.2315   -3.7360 C   0  0  0  0  0  0  0  0  0  0  0  0
   12.4394    9.2550   -2.4052 C   0  0  0  0  0  0  0  0  0  0  0  0
 31 32  2  0
 32 33  1  0
 33 34  2  0
 34  1  1  0
  1  2  1  0
  2  3  2  0
  3  4  1  0
  4  5  2  0
  5  6  1  0
  6  7  2  0
  7 13  1  0
 13 14  2  0
 14 15  1  0
 15 16  2  0
 16 17  1  0
 17 18  2  0
 17 19  1  0
 19 20  1  0
 20 21  1  0
 21 22  2  0
 22 23  1  0
 23 24  2  0
 24 25  1  0
 25 26  2  0
 26 27  1  0
 27 28  2  0
 28 29  1  0
 29 30  2  0
  6  8  1  0
  8  9  1  0
  8 10  1  0
 10 11  2  0
 11 12  1  0
 34 35  1  0
 35 36  2  0
 36 31  1  0
 12  1  2  0
 11  4  1  0
 18 13  1  0
 30 21  1  0
 22 16  1  0
 30 25  1  0
M  END
>  <minimizedAffinity>  (810) 
-16.66350

$$$$
Mol: 187_60 - SminaDock
     RDKit          3D

 41 48  0  0  0  0  0  0  0  0999 V2000
    6.4305   -3.9458  -17.4754 H   0  0  0  0  0  0  0  0  0  0  0  0
    6.0571   -3.0522  -17.7266 O   0  0  0  0  0  0  0  0  0  0  0  0
    5.7438   -2.0498  -16.8260 C   0  0  0  0  0  0  0  0  0  0  0  0
    6.5833   -1.0495  -16.4358 N   0  0  0  0  0  0  0  0  0  0  0  0
    5.9329   -0.2597  -15.5480 C   0  0  0  0  0  0  0  0  0  0  0  0
    6.3316    0.8864  -14.8524 C   0  0  0  0  0  0  0  0  0  0  0  0
    5.4480    1.4975  -13.9974 C   0  0  0  0  0  0  0  0  0  0  0  0
    4.1705    0.9525  -13.8481 C   0  0  0  0  0  0  0  0  0  0  0  0
    3.8117   -0.1779  -14.5494 C   0  0  0  0  0  0  0  0  0  0  0  0
    4.6786   -0.8113  -15.4138 C   0  0  0  0  0  0  0  0  0  0  0  0
    4.5649   -1.9043  -16.1950 N   0  0  0  0  0  0  0  0  0  0  0  0
    3.7160   -2.5253  -16.2927 H   0  0  0  0  0  0  0  0  0  0  0  0
    6.0812    2.6612  -13.3898 C   0  0  0  0  0  0  0  0  0  0  0  0
    5.6389    3.6077  -12.4722 C   0  0  0  0  0  0  0  0  0  0  0  0
    6.4912    4.6096  -12.0825 C   0  0  0  0  0  0  0  0  0  0  0  0
    7.7870    4.7131  -12.5742 C   0  0  0  0  0  0  0  0  0  0  0  0
    8.2224    3.7749  -13.4823 C   0  0  0  0  0  0  0  0  0  0  0  0
    7.3595    2.7511  -13.8842 C   0  0  0  0  0  0  0  0  0  0  0  0
    7.5698    1.6513  -14.8187 C   0  0  1  0  0  0  0  0  0  0  0  0
    8.7865    0.8165  -14.4932 C   0  0  0  0  0  0  0  0  0  0  0  0
    9.8508    1.5889  -14.9410 O   0  0  0  0  0  0  0  0  0  0  0  0
    9.4474    2.1961  -16.1172 C   0  0  0  0  0  0  0  0  0  0  0  0
    7.9628    2.1677  -16.2086 C   0  0  0  0  0  0  0  0  0  0  0  0
    8.5921    5.7873  -12.1100 N   0  0  0  0  0  0  0  0  0  0  0  0
    9.0018    5.9455  -10.9158 C   0  0  0  0  0  0  0  0  0  0  0  0
    8.6820    5.0444   -9.9318 C   0  0  0  0  0  0  0  0  0  0  0  0
    9.1347    5.2483   -8.6773 N   0  0  0  0  0  0  0  0  0  0  0  0
    9.8913    6.3241   -8.3964 C   0  0  0  0  0  0  0  0  0  0  0  0
   10.3686    6.5510   -7.1011 C   0  0  0  0  0  0  0  0  0  0  0  0
   11.1455    7.6460   -6.7877 C   0  0  0  0  0  0  0  0  0  0  0  0
   11.4578    8.5378   -7.7784 C   0  0  0  0  0  0  0  0  0  0  0  0
   10.9852    8.3153   -9.0662 C   0  0  0  0  0  0  0  0  0  0  0  0
   10.2080    7.2244   -9.3912 C   0  0  0  0  0  0  0  0  0  0  0  0
    9.7624    7.0312  -10.6447 N   0  0  0  0  0  0  0  0  0  0  0  0
   10.0028    7.7158  -11.4013 H   0  0  0  0  0  0  0  0  0  0  0  0
   11.6231    7.8430   -5.4155 C   0  0  0  0  0  0  0  0  0  0  0  0
   12.3502    8.9534   -5.0477 C   0  0  0  0  0  0  0  0  0  0  0  0
   12.8064    9.1508   -3.7571 C   0  0  0  0  0  0  0  0  0  0  0  0
   12.5203    8.1960   -2.8026 C   0  0  0  0  0  0  0  0  0  0  0  0
   11.7925    7.0768   -3.1545 C   0  0  0  0  0  0  0  0  0  0  0  0
   11.3372    6.8885   -4.4604 C   0  0  0  0  0  0  0  0  0  0  0  0
  1  2  1  0
  2  3  1  0
  3  4  2  0
  4  5  1  0
  5  6  2  0
  6  7  1  0
  7  8  2  0
  8  9  1  0
  9 10  2  0
 10 11  1  0
 11 12  1  0
  7 13  1  0
 13 14  2  0
 14 15  1  0
 15 16  2  0
 16 24  1  0
 24 25  2  0
 25 26  1  0
 26 27  2  0
 27 28  1  0
 28 29  2  0
 29 30  1  0
 30 36  1  0
 36 37  2  0
 37 38  1  0
 38 39  2  0
 39 40  1  0
 40 41  2  0
 30 31  2  0
 31 32  1  0
 32 33  2  0
 33 34  1  0
 34 35  1  0
 16 17  1  0
 17 18  2  0
 18 19  1  0
 19 20  1  1
 20 21  1  0
 21 22  1  0
 22 23  1  0
 11  3  1  0
 18 13  1  0
 23 19  1  0
 10  5  1  0
 34 25  1  0
 19  6  1  0
 33 28  1  0
 41 36  1  0
M  END
>  <minimizedAffinity>  (811) 
-16.68432

$$$$
Mol: 186_19 - SminaDock
     RDKit          3D

 43 50  0  0  0  0  0  0  0  0999 V2000
   11.7016    4.2355  -16.8741 H   0  0  0  0  0  0  0  0  0  0  0  0
   11.3783    3.9635  -15.9914 O   0  0  0  0  0  0  0  0  0  0  0  0
   11.0340    2.6121  -16.0537 C   0  0  1  0  0  0  0  0  0  0  0  0
   10.7658    1.9785  -14.7356 C   0  0  0  0  0  0  0  0  0  0  0  0
    9.4286    1.3547  -14.5618 C   0  0  0  0  0  0  0  0  0  0  0  0
    8.2519    2.1484  -15.0349 C   0  0  2  0  0  0  0  0  0  0  0  0
    7.9664    3.2259  -14.0347 C   0  0  0  0  0  0  0  0  0  0  0  0
    8.6839    4.3261  -13.5976 C   0  0  0  0  0  0  0  0  0  0  0  0
    8.1954    5.2004  -12.6341 C   0  0  0  0  0  0  0  0  0  0  0  0
    6.9546    4.9968  -12.0705 C   0  0  0  0  0  0  0  0  0  0  0  0
    6.2227    3.9125  -12.4878 C   0  0  0  0  0  0  0  0  0  0  0  0
    6.7342    3.0425  -13.4614 C   0  0  0  0  0  0  0  0  0  0  0  0
    6.1656    1.8520  -14.0752 C   0  0  0  0  0  0  0  0  0  0  0  0
    4.9146    1.2536  -13.8294 C   0  0  0  0  0  0  0  0  0  0  0  0
    4.5972    0.1353  -14.5407 C   0  0  0  0  0  0  0  0  0  0  0  0
    5.4523   -0.3757  -15.4451 N   0  0  0  0  0  0  0  0  0  0  0  0
    5.3761   -1.4565  -16.2639 C   0  0  0  0  0  0  0  0  0  0  0  0
    6.4940   -1.5677  -16.9986 N   0  0  0  0  0  0  0  0  0  0  0  0
    7.3147   -0.5298  -16.6445 C   0  0  0  0  0  0  0  0  0  0  0  0
    6.6533    0.1898  -15.6882 C   0  0  0  0  0  0  0  0  0  0  0  0
    7.0310    1.3332  -14.9917 C   0  0  0  0  0  0  0  0  0  0  0  0
    8.5444    2.7225  -16.3854 C   0  0  0  0  0  0  0  0  0  0  0  0
    9.8736    2.3442  -16.9766 C   0  0  1  0  0  0  0  0  0  0  0  0
   10.0514    3.0878  -18.1534 O   0  0  0  0  0  0  0  0  0  0  0  0
    9.6147    2.6155  -18.9262 H   0  0  0  0  0  0  0  0  0  0  0  0
    8.9682    6.3189  -12.2146 N   0  0  0  0  0  0  0  0  0  0  0  0
    9.3408    6.4300  -10.9984 C   0  0  0  0  0  0  0  0  0  0  0  0
    8.9927    5.4624  -10.0897 C   0  0  0  0  0  0  0  0  0  0  0  0
    9.3730    5.5476   -8.7819 N   0  0  0  0  0  0  0  0  0  0  0  0
   10.1060    6.6028   -8.3708 C   0  0  0  0  0  0  0  0  0  0  0  0
   10.5000    6.6972   -7.0305 C   0  0  0  0  0  0  0  0  0  0  0  0
   11.2487    7.7634   -6.5826 C   0  0  0  0  0  0  0  0  0  0  0  0
   11.5927    8.7302   -7.5054 C   0  0  0  0  0  0  0  0  0  0  0  0
   11.2045    8.6384   -8.8293 C   0  0  0  0  0  0  0  0  0  0  0  0
   10.4622    7.5808   -9.2723 C   0  0  0  0  0  0  0  0  0  0  0  0
   10.0677    7.4694  -10.5738 N   0  0  0  0  0  0  0  0  0  0  0  0
   10.3592    8.2371  -11.2338 H   0  0  0  0  0  0  0  0  0  0  0  0
   11.6611    7.8615   -5.1783 C   0  0  0  0  0  0  0  0  0  0  0  0
   11.3232    6.8647   -4.2877 C   0  0  0  0  0  0  0  0  0  0  0  0
   11.7006    6.9330   -2.9537 C   0  0  0  0  0  0  0  0  0  0  0  0
   12.4294    8.0127   -2.4900 C   0  0  0  0  0  0  0  0  0  0  0  0
   12.7710    9.0100   -3.3666 C   0  0  0  0  0  0  0  0  0  0  0  0
   12.3885    8.9292   -4.6928 C   0  0  0  0  0  0  0  0  0  0  0  0
  1  2  1  0
  3  2  1  1
  3  4  1  0
  4  5  1  0
  6  5  1  1
  6  7  1  0
  7  8  2  0
  8  9  1  0
  9 26  1  0
 26 27  2  0
 27 28  1  0
 28 29  2  0
 29 30  1  0
 30 31  2  0
 31 32  1  0
 32 38  1  0
 38 39  2  0
 39 40  1  0
 40 41  2  0
 41 42  1  0
 42 43  2  0
 32 33  2  0
 33 34  1  0
 34 35  2  0
 35 36  1  0
 36 37  1  0
  9 10  2  0
 10 11  1  0
 11 12  2  0
 12 13  1  0
 13 14  1  0
 14 15  2  0
 15 16  1  0
 16 17  1  0
 17 18  2  0
 18 19  1  0
 19 20  2  0
 20 21  1  0
  6 22  1  0
 22 23  1  0
 23 24  1  6
 24 25  1  0
 23  3  1  0
 21  6  1  0
 12  7  1  0
 21 13  2  0
 36 27  1  0
 20 16  1  0
 35 30  1  0
 43 38  1  0
M  END
>  <minimizedAffinity>  (812) 
-16.68223

$$$$
Mol: 125_30 - SminaDock
     RDKit          3D

 38 44  0  0  0  0  0  0  0  0999 V2000
   11.1399    7.7168   -6.9621 C   0  0  0  0  0  0  0  0  0  0  0  0
   11.4516    8.5943   -7.9792 C   0  0  0  0  0  0  0  0  0  0  0  0
   10.9920    8.3498   -9.2563 C   0  0  0  0  0  0  0  0  0  0  0  0
   10.2245    7.2274   -9.4994 C   0  0  0  0  0  0  0  0  0  0  0  0
    9.7448    6.9313  -10.7197 N   0  0  0  0  0  0  0  0  0  0  0  0
    8.9978    5.8473  -10.9736 C   0  0  0  0  0  0  0  0  0  0  0  0
    8.5745    5.6334  -12.1712 N   0  0  0  0  0  0  0  0  0  0  0  0
    8.6845    4.9828   -9.9983 N   0  0  0  0  0  0  0  0  0  0  0  0
    8.0862    4.1171  -10.2119 H   0  0  0  0  0  0  0  0  0  0  0  0
    9.1265    5.2104   -8.7553 C   0  0  0  0  0  0  0  0  0  0  0  0
    9.8895    6.3203   -8.5017 C   0  0  0  0  0  0  0  0  0  0  0  0
   10.3727    6.6009   -7.2215 C   0  0  0  0  0  0  0  0  0  0  0  0
    7.7904    4.5596  -12.6032 C   0  0  0  0  0  0  0  0  0  0  0  0
    6.5230    4.3695  -12.0843 C   0  0  0  0  0  0  0  0  0  0  0  0
    5.7322    3.3185  -12.4990 C   0  0  0  0  0  0  0  0  0  0  0  0
    6.2362    2.4369  -13.4636 C   0  0  0  0  0  0  0  0  0  0  0  0
    7.4875    2.6135  -13.9848 C   0  0  0  0  0  0  0  0  0  0  0  0
    8.2825    3.6911  -13.5510 C   0  0  0  0  0  0  0  0  0  0  0  0
    7.7241    1.5410  -14.9642 C   0  0  2  0  0  0  0  0  0  0  0  0
    6.5128    0.7297  -14.9588 C   0  0  0  0  0  0  0  0  0  0  0  0
    6.1594   -0.4236  -15.6788 C   0  0  0  0  0  0  0  0  0  0  0  0
    4.9369   -1.0006  -15.4853 C   0  0  0  0  0  0  0  0  0  0  0  0
    4.0507   -0.4481  -14.5810 C   0  0  0  0  0  0  0  0  0  0  0  0
    4.3632    0.6853  -13.8546 C   0  0  0  0  0  0  0  0  0  0  0  0
    5.6220    1.2648  -14.0653 C   0  0  0  0  0  0  0  0  0  0  0  0
    8.9175    0.7714  -14.6488 N   0  0  0  0  0  0  0  0  0  0  0  0
    9.2964    0.6663  -13.6983 H   0  0  0  0  0  0  0  0  0  0  0  0
    9.3559    0.2662  -15.8970 C   0  0  0  0  0  0  0  0  0  0  0  0
   10.1085   -0.7534  -16.0081 O   0  0  0  0  0  0  0  0  0  0  0  0
    8.8263    1.0729  -17.0091 C   0  0  0  0  0  0  0  0  0  0  0  0
    7.9139    2.0781  -16.3627 C   0  0  0  0  0  0  0  0  0  0  0  0
   12.2495    9.0872   -5.2075 C   0  0  0  0  0  0  0  0  0  0  0  0
   12.6512    9.2395   -3.9414 N   0  0  0  0  0  0  0  0  0  0  0  0
   12.4551    8.3087   -2.9884 C   0  0  0  0  0  0  0  0  0  0  0  0
   12.8440    8.4704   -1.7880 O   0  0  0  0  0  0  0  0  0  0  0  0
   11.8147    7.1475   -3.3227 C   0  0  0  0  0  0  0  0  0  0  0  0
   11.3875    6.9585   -4.6203 C   0  0  0  0  0  0  0  0  0  0  0  0
   11.5915    7.9144   -5.5884 C   0  0  0  0  0  0  0  0  0  0  0  0
 32 33  1  0
 33 34  1  0
 34 35  2  0
 34 36  1  0
 36 37  2  0
 37 38  1  0
 38  1  1  0
  1  2  1  0
  2  3  2  0
  3  4  1  0
  4  5  2  0
  5  6  1  0
  6  7  2  0
  7 13  1  0
 13 14  2  0
 14 15  1  0
 15 16  2  0
 16 17  1  0
 17 18  2  0
 17 19  1  0
 19 20  1  0
 20 21  2  0
 21 22  1  0
 22 23  2  0
 23 24  1  0
 24 25  2  0
 19 26  1  0
 26 27  1  0
 26 28  1  0
 28 29  2  0
 28 30  1  0
 30 31  1  0
  6  8  1  0
  8  9  1  0
  8 10  1  0
 10 11  2  0
 11 12  1  0
 38 32  2  0
 12  1  2  0
 11  4  1  0
 18 13  1  0
 19 31  1  6
 25 16  1  0
 25 20  1  0
M  CHG  1  33  -1
M  END
>  <minimizedAffinity>  (813) 
-16.70282

$$$$
Mol: 200_63 - SminaDock
     RDKit          3D

 38 44  0  0  0  0  0  0  0  0999 V2000
    8.6512    5.7143  -12.3670 C   0  0  0  0  0  0  0  0  0  0  0  0
    7.3643    5.3702  -12.0359 C   0  0  0  0  0  0  0  0  0  0  0  0
    6.8171    4.2080  -12.6126 C   0  0  0  0  0  0  0  0  0  0  0  0
    7.5344    3.4413  -13.4743 C   0  0  0  0  0  0  0  0  0  0  0  0
    8.8302    3.8096  -13.7922 C   0  0  0  0  0  0  0  0  0  0  0  0
    9.3936    4.9531  -13.2358 C   0  0  0  0  0  0  0  0  0  0  0  0
    9.5592    3.0360  -14.6638 O   0  0  0  0  0  0  0  0  0  0  0  0
    9.1315    1.8721  -15.2929 C   0  0  0  0  0  0  0  0  0  0  0  0
    7.7389    1.5067  -14.9303 C   0  0  0  0  0  0  0  0  0  0  0  0
    6.9441    2.2294  -14.0660 C   0  0  0  0  0  0  0  0  0  0  0  0
    5.6605    1.8476  -13.7634 C   0  0  0  0  0  0  0  0  0  0  0  0
    5.1435    0.7077  -14.3375 C   0  0  0  0  0  0  0  0  0  0  0  0
    3.8339    0.2977  -14.0434 C   0  0  0  0  0  0  0  0  0  0  0  0
    3.3520   -0.8313  -14.6258 C   0  0  0  0  0  0  0  0  0  0  0  0
    4.1113   -1.5507  -15.4720 N   0  0  0  0  0  0  0  0  0  0  0  0
    3.7063   -2.4225  -15.9070 H   0  0  0  0  0  0  0  0  0  0  0  0
    5.3754   -1.1689  -15.7656 C   0  0  0  0  0  0  0  0  0  0  0  0
    6.1057   -1.8292  -16.5573 O   0  0  0  0  0  0  0  0  0  0  0  0
    5.9324   -0.0203  -15.2030 C   0  0  0  0  0  0  0  0  0  0  0  0
    7.2181    0.3742  -15.4976 C   0  0  0  0  0  0  0  0  0  0  0  0
   11.2820    8.0479   -5.9882 C   0  0  0  0  0  0  0  0  0  0  0  0
   11.4807    9.1360   -6.8125 C   0  0  0  0  0  0  0  0  0  0  0  0
   11.1082    9.1037   -8.1427 C   0  0  0  0  0  0  0  0  0  0  0  0
   10.5226    7.9918   -8.7141 C   0  0  0  0  0  0  0  0  0  0  0  0
   10.3196    6.8981   -7.8984 C   0  0  0  0  0  0  0  0  0  0  0  0
    9.7326    5.7841   -8.4720 C   0  0  0  0  0  0  0  0  0  0  0  0
    9.3805    5.7888   -9.7794 N   0  0  0  0  0  0  0  0  0  0  0  0
    9.5821    6.8597  -10.5682 C   0  0  0  0  0  0  0  0  0  0  0  0
    9.2508    6.8753  -11.8140 N   0  0  0  0  0  0  0  0  0  0  0  0
   10.1530    7.9406  -10.0063 N   0  0  0  0  0  0  0  0  0  0  0  0
   10.3323    8.8021  -10.5778 H   0  0  0  0  0  0  0  0  0  0  0  0
   10.6946    6.9343   -6.5639 C   0  0  0  0  0  0  0  0  0  0  0  0
   12.3789    7.9795   -1.8852 C   0  0  0  0  0  0  0  0  0  0  0  0
   12.0237    6.8299   -2.5405 C   0  0  0  0  0  0  0  0  0  0  0  0
   11.6652    6.8604   -3.8861 C   0  0  0  0  0  0  0  0  0  0  0  0
   11.6610    8.0458   -4.5839 C   0  0  0  0  0  0  0  0  0  0  0  0
   12.0193    9.1930   -3.9158 C   0  0  0  0  0  0  0  0  0  0  0  0
   12.3797    9.1739   -2.5690 C   0  0  0  0  0  0  0  0  0  0  0  0
 33 34  2  0
 34 35  1  0
 35 36  2  0
 36 21  1  0
 21 22  2  0
 22 23  1  0
 23 24  2  0
 24 25  1  0
 25 26  1  0
 26 27  2  0
 27 28  1  0
 28 29  2  0
 29  1  1  0
  1  2  2  0
  2  3  1  0
  3  4  2  0
  4  5  1  0
  5  6  2  0
  5  7  1  0
  7  8  1  0
  8  9  1  0
  9 10  2  0
 10 11  1  0
 11 12  2  0
 12 13  1  0
 13 14  2  0
 14 15  1  0
 15 16  1  0
 15 17  1  0
 17 18  2  0
 17 19  1  0
 19 20  2  0
 28 30  1  0
 30 31  1  0
 25 32  2  0
 36 37  1  0
 37 38  2  0
 38 33  1  0
 32 21  1  0
 30 24  1  0
  6  1  1  0
 20  9  1  0
 10  4  1  0
 19 12  1  0
M  END
>  <minimizedAffinity>  (814) 
-16.71240

$$$$
Mol: 176_29 - SminaDock
     RDKit          3D

 40 46  0  0  0  0  0  0  0  0999 V2000
    7.9687   -2.4429  -18.2879 H   0  0  0  0  0  0  0  0  0  0  0  0
    7.0425   -1.9996  -18.3539 O   0  0  0  0  0  0  0  0  0  0  0  0
    6.5128   -1.2561  -17.3137 C   0  0  0  0  0  0  0  0  0  0  0  0
    5.3533   -1.5984  -16.8007 C   0  0  0  0  0  0  0  0  0  0  0  0
    4.7835   -0.8679  -15.7439 O   0  0  0  0  0  0  0  0  0  0  0  0
    5.4417    0.2443  -15.2133 C   0  0  0  0  0  0  0  0  0  0  0  0
    4.8652    0.9460  -14.1773 C   0  0  0  0  0  0  0  0  0  0  0  0
    5.5285    2.0617  -13.6471 C   0  0  0  0  0  0  0  0  0  0  0  0
    6.7472    2.4437  -14.1665 C   0  0  0  0  0  0  0  0  0  0  0  0
    7.3364    1.7422  -15.2109 C   0  0  0  0  0  0  0  0  0  0  0  0
    6.6721    0.6474  -15.7219 C   0  0  0  0  0  0  0  0  0  0  0  0
    7.2054   -0.1287  -16.7936 N   0  0  0  0  0  0  0  0  0  0  0  0
    8.4053    0.2006  -17.3467 O   0  0  0  0  0  0  0  0  0  0  0  0
    8.3514   -0.0422  -18.2952 H   0  0  0  0  0  0  0  0  0  0  0  0
    7.3979    3.6077  -13.5837 C   0  0  0  0  0  0  0  0  0  0  0  0
    8.6278    4.0493  -14.0581 C   0  0  0  0  0  0  0  0  0  0  0  0
    9.2643    5.1566  -13.5168 C   0  0  0  0  0  0  0  0  0  0  0  0
    8.6761    5.8394  -12.4896 C   0  0  0  0  0  0  0  0  0  0  0  0
    7.4650    5.4270  -12.0022 C   0  0  0  0  0  0  0  0  0  0  0  0
    6.8172    4.3076  -12.5465 C   0  0  0  0  0  0  0  0  0  0  0  0
    5.5227    3.9174  -11.9799 C   0  0  0  0  0  0  0  0  0  0  0  0
    4.8465    2.7459  -12.5528 C   0  0  0  0  0  0  0  0  0  0  0  0
    9.3161    6.9798  -11.9212 N   0  0  0  0  0  0  0  0  0  0  0  0
    9.6178    6.9296  -10.6707 C   0  0  0  0  0  0  0  0  0  0  0  0
    9.3514    5.8617   -9.9165 N   0  0  0  0  0  0  0  0  0  0  0  0
    9.6653    5.8058   -8.6106 C   0  0  0  0  0  0  0  0  0  0  0  0
   10.2882    6.9177   -8.0599 C   0  0  0  0  0  0  0  0  0  0  0  0
   10.6353    6.9192   -6.7215 C   0  0  0  0  0  0  0  0  0  0  0  0
   11.2552    7.9849   -6.1053 C   0  0  0  0  0  0  0  0  0  0  0  0
   11.5263    9.0937   -6.9093 C   0  0  0  0  0  0  0  0  0  0  0  0
   11.1944    9.1251   -8.2445 C   0  0  0  0  0  0  0  0  0  0  0  0
   10.5754    8.0318   -8.8108 C   0  0  0  0  0  0  0  0  0  0  0  0
   10.2233    7.9970  -10.1135 N   0  0  0  0  0  0  0  0  0  0  0  0
   10.4324    8.8272  -10.6919 H   0  0  0  0  0  0  0  0  0  0  0  0
   11.6176    7.9881   -4.7099 C   0  0  0  0  0  0  0  0  0  0  0  0
   11.6249    6.8200   -4.0026 C   0  0  0  0  0  0  0  0  0  0  0  0
   11.9745    6.8194   -2.6540 C   0  0  0  0  0  0  0  0  0  0  0  0
   12.3149    7.9898   -2.0220 C   0  0  0  0  0  0  0  0  0  0  0  0
   12.3064    9.1611   -2.7360 C   0  0  0  0  0  0  0  0  0  0  0  0
   11.9547    9.1634   -4.0934 C   0  0  0  0  0  0  0  0  0  0  0  0
  1  2  1  0
  2  3  1  0
  3  4  2  0
  4  5  1  0
  5  6  1  0
  6  7  2  0
  7  8  1  0
  8  9  2  0
  9 10  1  0
 10 11  2  0
 11 12  1  0
 12 13  1  0
 13 14  1  0
  9 15  1  0
 15 16  2  0
 16 17  1  0
 17 18  2  0
 18 23  1  0
 23 24  2  0
 24 25  1  0
 25 26  2  0
 26 27  1  0
 27 28  2  0
 28 29  1  0
 29 35  1  0
 35 36  2  0
 36 37  1  0
 37 38  2  0
 38 39  1  0
 39 40  2  0
 29 30  2  0
 30 31  1  0
 31 32  2  0
 32 33  1  0
 33 34  1  0
 18 19  1  0
 19 20  2  0
 20 21  1  0
 21 22  1  0
 12  3  1  0
 20 15  1  0
 11  6  1  0
 33 24  1  0
 22  8  1  0
 32 27  1  0
 40 35  1  0
M  END
>  <minimizedAffinity>  (815) 
-16.71882

$$$$
Mol: 142_0 - SminaDock
     RDKit          3D

 38 44  0  0  0  0  0  0  0  0999 V2000
    8.3229   -1.9477  -18.4163 H   0  0  0  0  0  0  0  0  0  0  0  0
    7.3099   -1.9574  -18.3003 O   0  0  0  0  0  0  0  0  0  0  0  0
    6.7355   -1.2144  -17.2640 C   0  0  0  0  0  0  0  0  0  0  0  0
    7.3423   -0.1846  -16.7823 N   0  0  0  0  0  0  0  0  0  0  0  0
    6.7365    0.5557  -15.7271 C   0  0  0  0  0  0  0  0  0  0  0  0
    7.4156    1.6692  -15.2233 C   0  0  0  0  0  0  0  0  0  0  0  0
    6.8136    2.3675  -14.2078 C   0  0  0  0  0  0  0  0  0  0  0  0
    5.5830    1.9973  -13.6906 C   0  0  0  0  0  0  0  0  0  0  0  0
    4.9413    0.8736  -14.2293 C   0  0  0  0  0  0  0  0  0  0  0  0
    5.5330    0.1670  -15.2454 C   0  0  0  0  0  0  0  0  0  0  0  0
    4.7906   -1.0105  -15.7621 C   0  0  0  0  0  0  0  0  0  0  0  0
    5.5019   -1.6363  -16.7910 O   0  0  0  0  0  0  0  0  0  0  0  0
    4.8843    2.6748  -12.5930 C   0  0  0  0  0  0  0  0  0  0  0  0
    5.4903    3.9200  -12.1146 C   0  0  0  0  0  0  0  0  0  0  0  0
    6.8193    4.2423  -12.6593 C   0  0  0  0  0  0  0  0  0  0  0  0
    7.4433    5.3513  -12.1177 C   0  0  0  0  0  0  0  0  0  0  0  0
    8.6677    5.8300  -12.4979 C   0  0  0  0  0  0  0  0  0  0  0  0
    9.3049    5.1233  -13.5086 C   0  0  0  0  0  0  0  0  0  0  0  0
    8.7083    3.9961  -14.0829 C   0  0  0  0  0  0  0  0  0  0  0  0
    7.4669    3.5586  -13.6557 C   0  0  0  0  0  0  0  0  0  0  0  0
    9.2554    6.9701  -11.9001 N   0  0  0  0  0  0  0  0  0  0  0  0
    9.5860    6.9274  -10.6565 C   0  0  0  0  0  0  0  0  0  0  0  0
    9.4003    5.8427   -9.8857 N   0  0  0  0  0  0  0  0  0  0  0  0
    9.7446    5.7965   -8.5772 C   0  0  0  0  0  0  0  0  0  0  0  0
   10.3154    6.8962   -7.9714 C   0  0  0  0  0  0  0  0  0  0  0  0
   10.6846    6.8977   -6.6332 C   0  0  0  0  0  0  0  0  0  0  0  0
   11.2539    8.0015   -6.0365 C   0  0  0  0  0  0  0  0  0  0  0  0
   11.4486    9.1201   -6.8188 C   0  0  0  0  0  0  0  0  0  0  0  0
   11.0821    9.1206   -8.1504 C   0  0  0  0  0  0  0  0  0  0  0  0
   10.5102    8.0144   -8.7534 C   0  0  0  0  0  0  0  0  0  0  0  0
   10.1514    8.0114  -10.0503 N   0  0  0  0  0  0  0  0  0  0  0  0
   10.3132    8.8689  -10.6042 H   0  0  0  0  0  0  0  0  0  0  0  0
   11.6514    8.0143   -4.6100 C   0  0  0  0  0  0  0  0  0  0  0  0
   11.6668    6.8527   -3.8807 C   0  0  0  0  0  0  0  0  0  0  0  0
   12.0291    6.8308   -2.5597 C   0  0  0  0  0  0  0  0  0  0  0  0
   12.3857    8.0210   -1.9621 C   0  0  0  0  0  0  0  0  0  0  0  0
   12.3813    9.2092   -2.6674 C   0  0  0  0  0  0  0  0  0  0  0  0
   12.0113    9.1911   -3.9929 C   0  0  0  0  0  0  0  0  0  0  0  0
  1  2  1  0
  2  3  1  0
  3  4  2  0
  4  5  1  0
  5  6  2  0
  6  7  1  0
  7  8  2  0
  8  9  1  0
  9 10  2  0
 10 11  1  0
 11 12  1  0
  8 13  1  0
 13 14  1  0
 14 15  1  0
 15 16  2  0
 16 17  1  0
 17 21  1  0
 21 22  2  0
 22 23  1  0
 23 24  2  0
 24 25  1  0
 25 26  2  0
 26 27  1  0
 27 33  1  0
 33 34  2  0
 34 35  1  0
 35 36  2  0
 36 37  1  0
 37 38  2  0
 27 28  2  0
 28 29  1  0
 29 30  2  0
 30 31  1  0
 31 32  1  0
 17 18  2  0
 18 19  1  0
 19 20  2  0
 12  3  1  0
 20 15  1  0
 10  5  1  0
 31 22  1  0
 20  7  1  0
 30 25  1  0
 38 33  1  0
M  END
>  <minimizedAffinity>  (816) 
-16.70697

$$$$
Mol: 141_60 - SminaDock
     RDKit          3D

 42 48  0  0  0  0  0  0  0  0999 V2000
    9.4290   -0.0186  -17.3378 H   0  0  0  0  0  0  0  0  0  0  0  0
    8.6707    0.5883  -17.5479 O   0  0  0  0  0  0  0  0  0  0  0  0
    7.4865    0.0721  -17.1376 N   0  0  0  0  0  0  0  0  0  0  0  0
    6.8921   -1.0486  -17.7690 C   0  0  0  0  0  0  0  0  0  0  0  0
    7.5996   -1.8071  -18.4641 O   0  0  0  0  0  0  0  0  0  0  0  0
    5.4656   -1.3255  -17.6165 C   0  0  2  0  0  0  0  0  0  0  0  0
    4.7551   -0.5124  -18.6139 N   0  0  0  0  0  0  0  0  0  0  0  0
    5.3106   -0.6192  -19.5083 H   0  0  0  0  0  0  0  0  0  0  0  0
    4.8359    0.5120  -18.3639 H   0  0  0  0  0  0  0  0  0  0  0  0
    4.9415   -1.0254  -16.2424 C   0  0  0  0  0  0  0  0  0  0  0  0
    5.6184    0.1448  -15.6282 C   0  0  0  0  0  0  0  0  0  0  0  0
    5.0155    0.7813  -14.5464 C   0  0  0  0  0  0  0  0  0  0  0  0
    5.6091    1.8721  -13.9446 C   0  0  0  0  0  0  0  0  0  0  0  0
    6.8141    2.3700  -14.3857 C   0  0  0  0  0  0  0  0  0  0  0  0
    7.4267    1.7706  -15.4403 C   0  0  0  0  0  0  0  0  0  0  0  0
    6.8162    0.6622  -16.0478 C   0  0  0  0  0  0  0  0  0  0  0  0
    7.4702    3.4889  -13.7071 C   0  0  0  0  0  0  0  0  0  0  0  0
    8.6464    4.0207  -14.2053 C   0  0  0  0  0  0  0  0  0  0  0  0
    9.2067    5.1202  -13.5730 C   0  0  0  0  0  0  0  0  0  0  0  0
    8.6404    5.7016  -12.4725 C   0  0  0  0  0  0  0  0  0  0  0  0
    7.4770    5.1714  -11.9823 C   0  0  0  0  0  0  0  0  0  0  0  0
    6.8810    4.0476  -12.6059 C   0  0  0  0  0  0  0  0  0  0  0  0
    5.6671    3.4703  -12.0130 C   0  0  0  0  0  0  0  0  0  0  0  0
    4.9061    2.5487  -12.8417 C   0  0  0  0  0  0  0  0  0  0  0  0
    9.1958    6.8392  -11.7982 N   0  0  0  0  0  0  0  0  0  0  0  0
    9.5344    6.7851  -10.5494 C   0  0  0  0  0  0  0  0  0  0  0  0
    9.4040    5.6943   -9.7843 N   0  0  0  0  0  0  0  0  0  0  0  0
    9.7650    5.6685   -8.4909 C   0  0  0  0  0  0  0  0  0  0  0  0
   10.2926    6.8149   -7.9275 C   0  0  0  0  0  0  0  0  0  0  0  0
   10.6823    6.8318   -6.5823 C   0  0  0  0  0  0  0  0  0  0  0  0
   11.2084    7.9794   -6.0265 C   0  0  0  0  0  0  0  0  0  0  0  0
   11.3230    9.0719   -6.8486 C   0  0  0  0  0  0  0  0  0  0  0  0
   10.9449    9.0704   -8.1702 C   0  0  0  0  0  0  0  0  0  0  0  0
   10.4165    7.9221   -8.7337 C   0  0  0  0  0  0  0  0  0  0  0  0
   10.0449    7.8953  -10.0053 N   0  0  0  0  0  0  0  0  0  0  0  0
   10.1558    8.7746  -10.6015 H   0  0  0  0  0  0  0  0  0  0  0  0
   11.6213    8.0219   -4.6285 C   0  0  0  0  0  0  0  0  0  0  0  0
   11.9814    9.2145   -4.0105 C   0  0  0  0  0  0  0  0  0  0  0  0
   12.3717    9.2380   -2.6809 C   0  0  0  0  0  0  0  0  0  0  0  0
   12.4053    8.0677   -1.9564 C   0  0  0  0  0  0  0  0  0  0  0  0
   12.0551    6.8712   -2.5380 C   0  0  0  0  0  0  0  0  0  0  0  0
   11.6707    6.8728   -3.8608 C   0  0  0  0  0  0  0  0  0  0  0  0
  1  2  1  0
  2  3  1  0
  3  4  1  0
  4  5  2  0
  4  6  1  0
  6  7  1  6
  7  8  1  0
  7  9  1  0
  6 10  1  0
 10 11  1  0
 11 12  2  0
 12 13  1  0
 13 14  2  0
 14 15  1  0
 15 16  2  0
 14 17  1  0
 17 18  2  0
 18 19  1  0
 19 20  2  0
 20 25  1  0
 25 26  2  0
 26 27  1  0
 27 28  2  0
 28 29  1  0
 29 30  2  0
 30 31  1  0
 31 37  1  0
 37 38  2  0
 38 39  1  0
 39 40  2  0
 40 41  1  0
 41 42  2  0
 31 32  2  0
 32 33  1  0
 33 34  2  0
 34 35  1  0
 35 36  1  0
 20 21  1  0
 21 22  2  0
 22 23  1  0
 23 24  1  0
 16  3  1  0
 22 17  1  0
 16 11  1  0
 35 26  1  0
 24 13  1  0
 34 29  1  0
 42 37  1  0
M  END
>  <minimizedAffinity>  (817) 
-16.72676

$$$$
Mol: 173_20 - SminaDock
     RDKit          3D

 37 43  0  0  0  0  0  0  0  0999 V2000
    5.5772   -2.8926  -17.2103 H   0  0  0  0  0  0  0  0  0  0  0  0
    5.0670   -2.6385  -16.3506 O   0  0  0  0  0  0  0  0  0  0  0  0
    5.3486   -1.4561  -15.6715 C   0  0  0  0  0  0  0  0  0  0  0  0
    6.4458   -0.7897  -15.7218 N   0  0  0  0  0  0  0  0  0  0  0  0
    6.3807    0.3799  -14.8917 C   0  0  0  0  0  0  0  0  0  0  0  0
    7.3162    1.3729  -14.6440 C   0  0  0  0  0  0  0  0  0  0  0  0
    6.9623    2.3941  -13.7820 C   0  0  0  0  0  0  0  0  0  0  0  0
    5.7222    2.4352  -13.1816 C   0  0  0  0  0  0  0  0  0  0  0  0
    4.8017    1.4213  -13.4507 C   0  0  0  0  0  0  0  0  0  0  0  0
    5.1340    0.3995  -14.3030 C   0  0  0  0  0  0  0  0  0  0  0  0
    4.4049   -0.7910  -14.7812 C   0  0  0  0  0  0  0  0  0  0  0  0
    3.2332   -1.1091  -14.4583 O   0  0  0  0  0  0  0  0  0  0  0  0
    5.6512    3.6347  -12.3283 C   0  0  0  0  0  0  0  0  0  0  0  0
    6.9918    4.2799  -12.5057 C   0  0  0  0  0  0  0  0  0  0  0  0
    7.5307    5.4259  -11.9707 C   0  0  0  0  0  0  0  0  0  0  0  0
    8.8054    5.8509  -12.2682 C   0  0  0  0  0  0  0  0  0  0  0  0
    9.5768    5.1156  -13.1271 C   0  0  0  0  0  0  0  0  0  0  0  0
    9.0552    3.9708  -13.6693 C   0  0  0  0  0  0  0  0  0  0  0  0
    7.7773    3.5543  -13.3644 C   0  0  0  0  0  0  0  0  0  0  0  0
    9.3649    7.0384  -11.7149 N   0  0  0  0  0  0  0  0  0  0  0  0
    9.6937    7.0416  -10.4696 C   0  0  0  0  0  0  0  0  0  0  0  0
   10.2300    8.1316   -9.8749 N   0  0  0  0  0  0  0  0  0  0  0  0
   10.5793    8.1551   -8.5789 C   0  0  0  0  0  0  0  0  0  0  0  0
   11.1298    9.2917   -7.9918 C   0  0  0  0  0  0  0  0  0  0  0  0
   11.4728    9.2616   -6.6483 C   0  0  0  0  0  0  0  0  0  0  0  0
   11.2842    8.1358   -5.8746 C   0  0  0  0  0  0  0  0  0  0  0  0
   10.7411    7.0097   -6.4473 C   0  0  0  0  0  0  0  0  0  0  0  0
   10.3960    7.0354   -7.7929 C   0  0  0  0  0  0  0  0  0  0  0  0
    9.8510    5.9234   -8.3917 C   0  0  0  0  0  0  0  0  0  0  0  0
    9.5162    5.9544   -9.7049 N   0  0  0  0  0  0  0  0  0  0  0  0
    9.0984    5.0783  -10.1325 H   0  0  0  0  0  0  0  0  0  0  0  0
   11.6618    8.1571   -4.4673 C   0  0  0  0  0  0  0  0  0  0  0  0
   11.8766    9.3504   -3.7921 C   0  0  0  0  0  0  0  0  0  0  0  0
   12.2205    9.3274   -2.5051 N   0  0  0  0  0  0  0  0  0  0  0  0
   12.3792    8.1839   -1.7909 C   0  0  0  0  0  0  0  0  0  0  0  0
   12.1747    6.9893   -2.4268 C   0  0  0  0  0  0  0  0  0  0  0  0
   11.8202    6.9852   -3.7506 C   0  0  0  0  0  0  0  0  0  0  0  0
  1  2  1  0
  2  3  1  0
  3  4  2  0
  4  5  1  0
  5  6  2  0
  6  7  1  0
  7  8  2  0
  8  9  1  0
  9 10  2  0
 10 11  1  0
 11 12  2  0
  8 13  1  0
 13 14  1  0
 14 15  2  0
 15 16  1  0
 16 20  1  0
 20 21  2  0
 21 22  1  0
 22 23  2  0
 23 24  1  0
 24 25  2  0
 25 26  1  0
 26 32  1  0
 32 33  2  0
 33 34  1  0
 34 35  2  0
 35 36  1  0
 36 37  2  0
 26 27  2  0
 27 28  1  0
 28 29  2  0
 29 30  1  0
 30 31  1  0
 16 17  2  0
 17 18  1  0
 18 19  2  0
 11  3  1  0
 19 14  1  0
 10  5  1  0
 30 21  1  0
 19  7  1  0
 28 23  1  0
 37 32  1  0
M  END
>  <minimizedAffinity>  (818) 
-16.69061

$$$$
Mol: 173_21 - SminaDock
     RDKit          3D

 38 44  0  0  0  0  0  0  0  0999 V2000
    8.6826    5.6171  -12.3339 C   0  0  0  0  0  0  0  0  0  0  0  0
    7.3783    5.2378  -12.1090 C   0  0  0  0  0  0  0  0  0  0  0  0
    6.8180    4.1026  -12.7289 C   0  0  0  0  0  0  0  0  0  0  0  0
    7.5735    3.3456  -13.5789 C   0  0  0  0  0  0  0  0  0  0  0  0
    8.8945    3.7065  -13.8223 C   0  0  0  0  0  0  0  0  0  0  0  0
    9.4245    4.8419  -13.1913 C   0  0  0  0  0  0  0  0  0  0  0  0
    9.7849    2.9212  -14.7048 C   0  0  0  0  0  0  0  0  0  0  0  0
    9.1615    1.8472  -15.4874 C   0  0  0  0  0  0  0  0  0  0  0  0
    7.7791    1.4656  -15.1339 C   0  0  0  0  0  0  0  0  0  0  0  0
    7.0158    2.1897  -14.2587 C   0  0  0  0  0  0  0  0  0  0  0  0
    5.7210    1.7902  -14.0024 C   0  0  0  0  0  0  0  0  0  0  0  0
    5.2001    0.6525  -14.6348 C   0  0  0  0  0  0  0  0  0  0  0  0
    3.9246    0.2997  -14.3508 N   0  0  0  0  0  0  0  0  0  0  0  0
    3.4189   -0.7958  -14.9573 C   0  0  0  0  0  0  0  0  0  0  0  0
    4.1423   -1.5363  -15.8263 N   0  0  0  0  0  0  0  0  0  0  0  0
    3.7470   -2.3818  -16.2923 H   0  0  0  0  0  0  0  0  0  0  0  0
    5.4171   -1.1998  -16.1222 C   0  0  0  0  0  0  0  0  0  0  0  0
    6.1186   -1.8863  -16.9410 O   0  0  0  0  0  0  0  0  0  0  0  0
    5.9560   -0.0845  -15.5152 C   0  0  0  0  0  0  0  0  0  0  0  0
    7.2416    0.3210  -15.7638 C   0  0  0  0  0  0  0  0  0  0  0  0
   11.2383    7.9805   -5.9347 C   0  0  0  0  0  0  0  0  0  0  0  0
   11.3978    9.0744   -6.7640 C   0  0  0  0  0  0  0  0  0  0  0  0
   11.0415    9.0719   -8.0821 C   0  0  0  0  0  0  0  0  0  0  0  0
   10.4931    7.9243   -8.6253 C   0  0  0  0  0  0  0  0  0  0  0  0
   10.3108    6.8019   -7.8431 C   0  0  0  0  0  0  0  0  0  0  0  0
   10.6900    6.8573   -6.5089 C   0  0  0  0  0  0  0  0  0  0  0  0
    9.7671    5.6455   -8.3562 C   0  0  0  0  0  0  0  0  0  0  0  0
    9.3988    5.6175   -9.6843 C   0  0  0  0  0  0  0  0  0  0  0  0
    9.5851    6.7444  -10.4571 C   0  0  0  0  0  0  0  0  0  0  0  0
    9.2515    6.7610  -11.7127 N   0  0  0  0  0  0  0  0  0  0  0  0
   10.1197    7.8511   -9.9131 N   0  0  0  0  0  0  0  0  0  0  0  0
   10.2675    8.7158  -10.4873 H   0  0  0  0  0  0  0  0  0  0  0  0
   12.4041    8.1090   -1.8859 C   0  0  0  0  0  0  0  0  0  0  0  0
   12.2946    9.2987   -2.5765 C   0  0  0  0  0  0  0  0  0  0  0  0
   11.9144    9.2586   -3.8971 C   0  0  0  0  0  0  0  0  0  0  0  0
   11.6427    8.0632   -4.5393 C   0  0  0  0  0  0  0  0  0  0  0  0
   11.7644    6.8956   -3.8118 C   0  0  0  0  0  0  0  0  0  0  0  0
   12.1437    6.8937   -2.4833 C   0  0  0  0  0  0  0  0  0  0  0  0
 33 34  2  0
 34 35  1  0
 35 36  2  0
 36 21  1  0
 21 22  2  0
 22 23  1  0
 23 24  2  0
 24 25  1  0
 25 26  2  0
 25 27  1  0
 27 28  2  0
 28 29  1  0
 29 30  2  0
 30  1  1  0
  1  2  2  0
  2  3  1  0
  3  4  2  0
  4  5  1  0
  5  6  2  0
  5  7  1  0
  7  8  1  0
  8  9  1  0
  9 10  2  0
 10 11  1  0
 11 12  2  0
 12 13  1  0
 13 14  2  0
 14 15  1  0
 15 16  1  0
 15 17  1  0
 17 18  2  0
 17 19  1  0
 19 20  2  0
 29 31  1  0
 31 32  1  0
 36 37  1  0
 37 38  2  0
 38 33  1  0
 26 21  1  0
  6  1  1  0
 20  9  1  0
 31 24  1  0
 10  4  1  0
 19 12  1  0
M  END
>  <minimizedAffinity>  (819) 
-16.70314

$$$$
Mol: 173_3 - SminaDock
     RDKit          3D

 39 45  0  0  0  0  0  0  0  0999 V2000
    5.7656    6.7473  -10.4594 H   0  0  0  0  0  0  0  0  0  0  0  0
    6.1054    6.3640  -11.3155 O   0  0  0  0  0  0  0  0  0  0  0  0
    5.8540    5.2181  -11.8913 N   0  0  0  0  0  0  0  0  0  0  0  0
    6.4868    4.3606  -12.5622 C   0  0  0  0  0  0  0  0  0  0  0  0
    7.9047    4.4938  -12.9021 C   0  0  0  0  0  0  0  0  0  0  0  0
    8.6021    5.6044  -12.4993 C   0  0  0  0  0  0  0  0  0  0  0  0
    9.9617    5.7702  -12.8077 C   0  0  0  0  0  0  0  0  0  0  0  0
   10.5844    4.7892  -13.5265 C   0  0  0  0  0  0  0  0  0  0  0  0
    9.8773    3.6570  -13.9386 C   0  0  0  0  0  0  0  0  0  0  0  0
    8.5513    3.5002  -13.6357 C   0  0  0  0  0  0  0  0  0  0  0  0
    7.8472    2.3278  -14.0752 C   0  0  0  0  0  0  0  0  0  0  0  0
    8.5163    1.3621  -14.7937 C   0  0  0  0  0  0  0  0  0  0  0  0
    7.8013    0.2414  -15.1969 C   0  0  0  0  0  0  0  0  0  0  0  0
    6.4751    0.0569  -14.9141 C   0  0  0  0  0  0  0  0  0  0  0  0
    5.8174   -1.0926  -15.3499 C   0  0  0  0  0  0  0  0  0  0  0  0
    4.4940   -1.2685  -15.0640 C   0  0  0  0  0  0  0  0  0  0  0  0
    3.8507   -0.2860  -14.3437 C   0  0  0  0  0  0  0  0  0  0  0  0
    4.4931    0.8556  -13.9076 C   0  0  0  0  0  0  0  0  0  0  0  0
    5.8356    1.0348  -14.1974 C   0  0  0  0  0  0  0  0  0  0  0  0
    6.5153    2.1894  -13.7657 C   0  0  0  0  0  0  0  0  0  0  0  0
    5.7223    3.1467  -13.0228 C   0  0  0  0  0  0  0  0  0  0  0  0
   10.6054    6.9374  -12.3401 N   0  0  0  0  0  0  0  0  0  0  0  0
   10.8507    7.7075  -13.0448 H   0  0  0  0  0  0  0  0  0  0  0  0
   10.9660    7.2093  -11.0105 C   0  0  0  0  0  0  0  0  0  0  0  0
   12.0894    7.8606  -10.7102 N   0  0  0  0  0  0  0  0  0  0  0  0
   12.4459    8.1311   -9.4597 C   0  0  0  0  0  0  0  0  0  0  0  0
   11.6719    7.7533   -8.3863 C   0  0  0  0  0  0  0  0  0  0  0  0
   12.0036    8.0152   -7.0756 C   0  0  0  0  0  0  0  0  0  0  0  0
   11.1948    7.6190   -6.0184 C   0  0  0  0  0  0  0  0  0  0  0  0
   10.0336    6.9458   -6.3247 C   0  0  0  0  0  0  0  0  0  0  0  0
    9.6953    6.6796   -7.6449 C   0  0  0  0  0  0  0  0  0  0  0  0
   10.4963    7.0722   -8.6918 C   0  0  0  0  0  0  0  0  0  0  0  0
   10.1791    6.8226   -9.9656 N   0  0  0  0  0  0  0  0  0  0  0  0
   11.5760    7.9157   -4.6450 C   0  0  0  0  0  0  0  0  0  0  0  0
   11.7915    6.9131   -3.7086 C   0  0  0  0  0  0  0  0  0  0  0  0
   12.1518    7.1477   -2.4088 C   0  0  0  0  0  0  0  0  0  0  0  0
   12.3108    8.4560   -2.0021 C   0  0  0  0  0  0  0  0  0  0  0  0
   12.1059    9.4701   -2.9016 C   0  0  0  0  0  0  0  0  0  0  0  0
   11.7404    9.2010   -4.2162 C   0  0  0  0  0  0  0  0  0  0  0  0
  1  2  1  0
  2  3  1  0
  3  4  2  0
  4  5  1  0
  5  6  2  0
  6  7  1  0
  7 22  1  0
 22 23  1  0
 22 24  1  0
 24 25  2  0
 25 26  1  0
 26 27  2  0
 27 28  1  0
 28 29  2  0
 29 34  1  0
 34 35  2  0
 35 36  1  0
 36 37  2  0
 37 38  1  0
 38 39  2  0
 29 30  1  0
 30 31  2  0
 31 32  1  0
 32 33  2  0
  7  8  2  0
  8  9  1  0
  9 10  2  0
 10 11  1  0
 11 12  2  0
 12 13  1  0
 13 14  2  0
 14 15  1  0
 15 16  2  0
 16 17  1  0
 17 18  2  0
 18 19  1  0
 19 20  2  0
 20 21  1  0
 21  4  1  0
 10  5  1  0
 20 11  1  0
 33 24  1  0
 19 14  1  0
 32 27  1  0
 39 34  1  0
M  END
>  <minimizedAffinity>  (820) 
-16.74168

$$$$
Mol: 143_62 - SminaDock
     RDKit          3D

 41 48  0  0  0  0  0  0  0  0999 V2000
    6.9249    4.7380  -11.5584 N   0  0  0  0  0  0  0  0  0  0  0  0
    6.1270    4.9361  -10.8838 H   0  0  0  0  0  0  0  0  0  0  0  0
    4.4738   -3.1693  -18.4225 O   0  0  0  0  0  0  0  0  0  0  0  0
    5.3986   -2.3208  -18.2436 C   0  0  0  0  0  0  0  0  0  0  0  0
    6.5734   -2.1375  -19.0099 N   0  0  0  0  0  0  0  0  0  0  0  0
    7.3414   -1.0441  -18.4741 C   0  0  0  0  0  0  0  0  0  0  0  0
    6.5611   -0.6012  -17.2949 C   0  0  0  0  0  0  0  0  0  0  0  0
    5.4128   -1.3325  -17.1576 C   0  0  0  0  0  0  0  0  0  0  0  0
    4.5031   -1.1206  -16.1499 C   0  0  0  0  0  0  0  0  0  0  0  0
    4.7437   -0.1289  -15.2264 C   0  0  0  0  0  0  0  0  0  0  0  0
    5.9063    0.6268  -15.3479 C   0  0  0  0  0  0  0  0  0  0  0  0
    6.8008    0.4094  -16.3470 C   0  0  0  0  0  0  0  0  0  0  0  0
    8.0552    1.1494  -16.4713 C   0  0  0  0  0  0  0  0  0  0  0  0
    8.1972    2.3801  -15.6632 C   0  0  0  0  0  0  0  0  0  0  0  0
    7.2481    2.4939  -14.5308 C   0  0  0  0  0  0  0  0  0  0  0  0
    7.4586    3.4755  -13.5592 C   0  0  0  0  0  0  0  0  0  0  0  0
    6.6315    3.7054  -12.4905 C   0  0  0  0  0  0  0  0  0  0  0  0
    5.5177    2.9209  -12.3620 C   0  0  0  0  0  0  0  0  0  0  0  0
    5.2760    1.9394  -13.3011 C   0  0  0  0  0  0  0  0  0  0  0  0
    6.1143    1.7192  -14.3656 C   0  0  0  0  0  0  0  0  0  0  0  0
    6.8039   -2.7427  -19.8430 H   0  0  0  0  0  0  0  0  0  0  0  0
    8.1027    5.4703  -11.4601 C   0  0  0  0  0  0  0  0  0  0  0  0
    8.8743    5.8515  -12.5299 C   0  0  0  0  0  0  0  0  0  0  0  0
   10.0563    6.5871  -12.3850 C   0  0  0  0  0  0  0  0  0  0  0  0
   10.4751    6.9508  -11.1269 C   0  0  0  0  0  0  0  0  0  0  0  0
   11.6325    7.6855  -10.9104 C   0  0  0  0  0  0  0  0  0  0  0  0
   12.0029    8.0309   -9.6228 C   0  0  0  0  0  0  0  0  0  0  0  0
   11.2446    7.6593   -8.5506 C   0  0  0  0  0  0  0  0  0  0  0  0
   10.1012    6.9300   -8.7966 C   0  0  0  0  0  0  0  0  0  0  0  0
    9.6858    6.5582  -10.0676 C   0  0  0  0  0  0  0  0  0  0  0  0
    8.5564    5.8518  -10.2429 N   0  0  0  0  0  0  0  0  0  0  0  0
   11.5632    7.9905   -7.1625 C   0  0  0  0  0  0  0  0  0  0  0  0
   12.1408    9.2130   -6.8854 C   0  0  0  0  0  0  0  0  0  0  0  0
   12.4661    9.5776   -5.5790 C   0  0  0  0  0  0  0  0  0  0  0  0
   12.2178    8.7217   -4.5232 C   0  0  0  0  0  0  0  0  0  0  0  0
   12.5378    9.0737   -3.2158 C   0  0  0  0  0  0  0  0  0  0  0  0
   12.2910    8.2189   -2.1544 C   0  0  0  0  0  0  0  0  0  0  0  0
   11.7121    6.9874   -2.4090 C   0  0  0  0  0  0  0  0  0  0  0  0
   11.4015    6.6586   -3.7234 C   0  0  0  0  0  0  0  0  0  0  0  0
   11.6409    7.4975   -4.7883 C   0  0  0  0  0  0  0  0  0  0  0  0
   11.3266    7.1574   -6.0934 C   0  0  0  0  0  0  0  0  0  0  0  0
  3  4  2  0
  4  5  1  0
  5  6  1  0
  6  7  1  0
  7  8  2  0
  8  9  1  0
  9 10  2  0
 10 11  1  0
 11 12  2  0
 12 13  1  0
 13 14  1  0
 14 15  1  0
 15 16  2  0
 16 17  1  0
 17  1  1  0
  1 22  1  0
 22 23  2  0
 23 24  1  0
 24 25  2  0
 25 26  1  0
 26 27  2  0
 27 28  1  0
 28 32  1  0
 32 33  2  0
 33 34  1  0
 34 35  2  0
 35 36  1  0
 36 37  2  0
 37 38  1  0
 38 39  2  0
 39 40  1  0
 40 41  2  0
 28 29  2  0
 29 30  1  0
 30 31  2  0
 17 18  2  0
 18 19  1  0
 19 20  2  0
  8  4  1  0
 20 11  1  0
 12  7  1  0
 20 15  1  0
 31 22  1  0
 30 25  1  0
 41 32  1  0
 40 35  1  0
  5 21  1  0
  1  2  1  0
M  END
>  <minimizedAffinity>  (821) 
-16.73022

$$$$
Mol: 145_0 - SminaDock
     RDKit          3D

 37 43  0  0  0  0  0  0  0  0999 V2000
    8.7356    5.9311  -12.3571 C   0  0  0  0  0  0  0  0  0  0  0  0
    9.4370    5.2761  -13.2814 N   0  0  0  0  0  0  0  0  0  0  0  0
    8.9538    4.1822  -13.9840 C   0  0  0  0  0  0  0  0  0  0  0  0
    9.8775    3.4948  -14.8841 C   0  0  0  0  0  0  0  0  0  0  0  0
    7.6786    3.7893  -13.6832 C   0  0  0  0  0  0  0  0  0  0  0  0
    6.9327    4.4754  -12.7094 C   0  0  0  0  0  0  0  0  0  0  0  0
    7.4572    5.5417  -12.0464 C   0  0  0  0  0  0  0  0  0  0  0  0
    5.5364    4.0749  -12.4606 C   0  0  0  0  0  0  0  0  0  0  0  0
    5.2182    2.6450  -12.6520 C   0  0  0  0  0  0  0  0  0  0  0  0
    5.8889    2.0443  -13.8199 C   0  0  0  0  0  0  0  0  0  0  0  0
    7.1269    2.5510  -14.2630 C   0  0  0  0  0  0  0  0  0  0  0  0
    7.7574    1.9656  -15.3162 C   0  0  0  0  0  0  0  0  0  0  0  0
    7.1617    0.8597  -15.9404 C   0  0  0  0  0  0  0  0  0  0  0  0
    5.9666    0.3628  -15.5176 C   0  0  0  0  0  0  0  0  0  0  0  0
    5.3991   -0.7501  -16.1579 C   0  0  0  0  0  0  0  0  0  0  0  0
    4.2352   -1.1943  -15.6955 N   0  0  0  0  0  0  0  0  0  0  0  0
    3.5835   -0.6766  -14.6960 N   0  0  0  0  0  0  0  0  0  0  0  0
    4.1203    0.3987  -14.0685 C   0  0  0  0  0  0  0  0  0  0  0  0
    5.3246    0.9540  -14.4557 C   0  0  0  0  0  0  0  0  0  0  0  0
   11.2624    8.0999   -5.9117 C   0  0  0  0  0  0  0  0  0  0  0  0
   11.3842    9.2562   -6.6590 C   0  0  0  0  0  0  0  0  0  0  0  0
   10.9991    9.2621   -7.9788 C   0  0  0  0  0  0  0  0  0  0  0  0
   10.4973    8.1248   -8.5473 C   0  0  0  0  0  0  0  0  0  0  0  0
   10.3768    6.9794   -7.8068 C   0  0  0  0  0  0  0  0  0  0  0  0
    9.8640    5.8491   -8.4203 C   0  0  0  0  0  0  0  0  0  0  0  0
    9.5011    5.9112   -9.7215 N   0  0  0  0  0  0  0  0  0  0  0  0
    9.6208    7.0344  -10.4422 C   0  0  0  0  0  0  0  0  0  0  0  0
    9.2681    7.0468  -11.6595 N   0  0  0  0  0  0  0  0  0  0  0  0
   10.1166    8.1286   -9.8504 N   0  0  0  0  0  0  0  0  0  0  0  0
   10.2266    9.0242  -10.3762 H   0  0  0  0  0  0  0  0  0  0  0  0
   10.7598    6.9496   -6.4700 C   0  0  0  0  0  0  0  0  0  0  0  0
   12.4430    7.9871   -1.8165 C   0  0  0  0  0  0  0  0  0  0  0  0
   12.1386    6.8357   -2.5086 C   0  0  0  0  0  0  0  0  0  0  0  0
   11.7573    6.8717   -3.8310 C   0  0  0  0  0  0  0  0  0  0  0  0
   11.6685    8.0832   -4.5100 C   0  0  0  0  0  0  0  0  0  0  0  0
   11.9727    9.2234   -3.8151 C   0  0  0  0  0  0  0  0  0  0  0  0
   12.3547    9.1910   -2.4910 C   0  0  0  0  0  0  0  0  0  0  0  0
 32 33  2  0
 33 34  1  0
 34 35  2  0
 35 20  1  0
 20 21  2  0
 21 22  1  0
 22 23  2  0
 23 24  1  0
 24 25  1  0
 25 26  2  0
 26 27  1  0
 27 28  2  0
 28  1  1  0
  1  2  2  0
  2  3  1  0
  3  4  1  0
  3  5  2  0
  5  6  1  0
  6  7  2  0
  6  8  1  0
  8  9  1  0
  9 10  1  0
 10 11  2  0
 11 12  1  0
 12 13  2  0
 13 14  1  0
 14 15  2  0
 15 16  1  0
 16 17  2  0
 17 18  1  0
 18 19  2  0
 27 29  1  0
 29 30  1  0
 24 31  2  0
 35 36  1  0
 36 37  2  0
 37 32  1  0
 31 20  1  0
 29 23  1  0
  7  1  1  0
 19 10  1  0
 11  5  1  0
 19 14  1  0
M  END
>  <minimizedAffinity>  (822) 
-16.71145

$$$$
Mol: 144_53 - SminaDock
     RDKit          3D

 39 45  0  0  0  0  0  0  0  0999 V2000
    8.5711    5.5574  -12.4040 C   0  0  0  0  0  0  0  0  0  0  0  0
    7.2448    5.2278  -12.2168 C   0  0  0  0  0  0  0  0  0  0  0  0
    6.6756    4.0787  -12.7258 C   0  0  0  0  0  0  0  0  0  0  0  0
    7.5014    3.2436  -13.4509 C   0  0  0  0  0  0  0  0  0  0  0  0
    8.8382    3.5535  -13.6526 C   0  0  0  0  0  0  0  0  0  0  0  0
    9.3709    4.7156  -13.1256 C   0  0  0  0  0  0  0  0  0  0  0  0
    9.6346    2.6946  -14.3833 C   0  0  0  0  0  0  0  0  0  0  0  0
   10.8456    2.9682  -14.5703 O   0  0  0  0  0  0  0  0  0  0  0  0
    9.1532    1.5597  -14.9094 N   0  0  0  0  0  0  0  0  0  0  0  0
    7.8599    1.2257  -14.7343 C   0  0  0  0  0  0  0  0  0  0  0  0
    7.3710    0.0403  -15.2884 C   0  0  0  0  0  0  0  0  0  0  0  0
    6.0692   -0.3350  -15.1355 C   0  0  0  0  0  0  0  0  0  0  0  0
    5.2365    0.4825  -14.4184 C   0  0  0  0  0  0  0  0  0  0  0  0
    5.7051    1.6791  -13.8520 C   0  0  0  0  0  0  0  0  0  0  0  0
    7.0282    2.0674  -14.0035 C   0  0  0  0  0  0  0  0  0  0  0  0
    3.8386    0.0689  -14.2582 C   0  0  0  0  0  0  0  0  0  0  0  0
    3.2727   -0.6540  -15.3476 N   0  0  2  0  0  0  0  0  0  0  0  0
    2.5222   -0.0577  -15.8140 H   0  0  0  0  0  0  0  0  0  0  0  0
    2.7199   -1.5035  -15.0194 H   0  0  0  0  0  0  0  0  0  0  0  0
    4.1792   -1.1217  -16.3453 C   0  0  0  0  0  0  0  0  0  0  0  0
    5.4708   -1.5739  -15.6937 C   0  0  0  0  0  0  0  0  0  0  0  0
   11.1865    8.0222   -6.1461 C   0  0  0  0  0  0  0  0  0  0  0  0
   11.3383    9.0867   -7.0066 C   0  0  0  0  0  0  0  0  0  0  0  0
   10.9530    9.0255   -8.3296 C   0  0  0  0  0  0  0  0  0  0  0  0
   10.3907    7.8742   -8.8504 C   0  0  0  0  0  0  0  0  0  0  0  0
   10.2348    6.8012   -7.9939 C   0  0  0  0  0  0  0  0  0  0  0  0
    9.6728    5.6587   -8.5252 C   0  0  0  0  0  0  0  0  0  0  0  0
    9.3074    5.6431   -9.8361 N   0  0  0  0  0  0  0  0  0  0  0  0
    9.4855    6.7271  -10.6261 C   0  0  0  0  0  0  0  0  0  0  0  0
    9.1488    6.7444  -11.8754 N   0  0  0  0  0  0  0  0  0  0  0  0
   10.0310    7.8515  -10.1310 N   0  0  0  0  0  0  0  0  0  0  0  0
   10.1667    8.6924  -10.7520 H   0  0  0  0  0  0  0  0  0  0  0  0
   10.6217    6.8668   -6.6709 C   0  0  0  0  0  0  0  0  0  0  0  0
   12.3481    8.0372   -2.0518 C   0  0  0  0  0  0  0  0  0  0  0  0
   12.0489    6.8644   -2.7000 C   0  0  0  0  0  0  0  0  0  0  0  0
   11.6735    6.8925   -4.0347 C   0  0  0  0  0  0  0  0  0  0  0  0
   11.5867    8.0686   -4.7501 C   0  0  0  0  0  0  0  0  0  0  0  0
   11.8928    9.2300   -4.0732 C   0  0  0  0  0  0  0  0  0  0  0  0
   12.2654    9.2252   -2.7567 C   0  0  0  0  0  0  0  0  0  0  0  0
 34 35  2  0
 35 36  1  0
 36 37  2  0
 37 22  1  0
 22 23  2  0
 23 24  1  0
 24 25  2  0
 25 26  1  0
 26 27  1  0
 27 28  2  0
 28 29  1  0
 29 30  2  0
 30  1  1  0
  1  2  2  0
  2  3  1  0
  3  4  2  0
  4  5  1  0
  5  6  2  0
  5  7  1  0
  7  8  2  0
  7  9  1  0
  9 10  1  0
 10 11  2  0
 11 12  1  0
 12 13  2  0
 13 14  1  0
 14 15  2  0
 13 16  1  0
 16 17  1  0
 17 18  1  6
 17 19  1  0
 17 20  1  0
 20 21  1  0
 29 31  1  0
 31 32  1  0
 26 33  2  0
 37 38  1  0
 38 39  2  0
 39 34  1  0
 33 22  1  0
 31 25  1  0
  6  1  1  0
 15 10  1  0
 15  4  1  0
 21 12  1  0
M  CHG  2   9  -1  17   1
M  END
>  <minimizedAffinity>  (823) 
-16.57275

$$$$
Mol: 144_24 - SminaDock
     RDKit          3D

 42 49  0  0  0  0  0  0  0  0999 V2000
    8.7251    6.3960  -12.2165 C   0  0  0  0  0  0  0  0  0  0  0  0
    7.4465    6.0673  -11.8836 C   0  0  0  0  0  0  0  0  0  0  0  0
    6.8071    4.9754  -12.4642 C   0  0  0  0  0  0  0  0  0  0  0  0
    7.4901    4.2240  -13.3881 C   0  0  0  0  0  0  0  0  0  0  0  0
    8.7887    4.5261  -13.7516 C   0  0  0  0  0  0  0  0  0  0  0  0
    9.3836    5.6140  -13.1536 C   0  0  0  0  0  0  0  0  0  0  0  0
    9.4930    3.6983  -14.7494 C   0  0  0  0  0  0  0  0  0  0  0  0
    9.0809    2.4274  -14.9490 C   0  0  0  0  0  0  0  0  0  0  0  0
    9.6992    1.5885  -15.8734 C   0  0  0  0  0  0  0  0  0  0  0  0
   10.7630    2.0764  -16.6031 C   0  0  0  0  0  0  0  0  0  0  0  0
   11.2010    3.3580  -16.4231 C   0  0  0  0  0  0  0  0  0  0  0  0
   10.5443    4.1692  -15.4761 C   0  0  0  0  0  0  0  0  0  0  0  0
   12.3166    3.9433  -17.1850 C   0  0  0  0  0  0  0  0  0  0  0  0
   13.0801    3.0767  -18.0825 C   0  0  0  0  0  0  0  0  0  0  0  0
   12.5656    1.7228  -18.2922 C   0  0  0  0  0  0  0  0  0  0  0  0
   11.4852    1.2379  -17.5833 C   0  0  0  0  0  0  0  0  0  0  0  0
   11.0526   -0.0379  -17.7974 C   0  0  0  0  0  0  0  0  0  0  0  0
   11.7340   -0.8234  -18.7480 C   0  0  0  0  0  0  0  0  0  0  0  0
   12.8077   -0.3339  -19.4498 C   0  0  0  0  0  0  0  0  0  0  0  0
   13.4454   -1.1578  -20.3797 C   0  0  0  0  0  0  0  0  0  0  0  0
   14.5143   -0.6660  -21.0750 C   0  0  0  0  0  0  0  0  0  0  0  0
   14.9792    0.6248  -20.8811 C   0  0  0  0  0  0  0  0  0  0  0  0
   14.3252    1.4103  -19.9551 C   0  0  0  0  0  0  0  0  0  0  0  0
   13.2465    0.9500  -19.2369 C   0  0  0  0  0  0  0  0  0  0  0  0
   11.3767    8.2333   -5.8133 C   0  0  0  0  0  0  0  0  0  0  0  0
   11.5963    9.3897   -6.5164 C   0  0  0  0  0  0  0  0  0  0  0  0
   11.2368    9.5208   -7.8524 C   0  0  0  0  0  0  0  0  0  0  0  0
   10.6418    8.4545   -8.4873 C   0  0  0  0  0  0  0  0  0  0  0  0
   10.2633    8.5073   -9.7878 N   0  0  0  0  0  0  0  0  0  0  0  0
    9.6847    7.4473  -10.3750 C   0  0  0  0  0  0  0  0  0  0  0  0
    9.3349    7.5168  -11.6022 N   0  0  0  0  0  0  0  0  0  0  0  0
    9.4704    6.3189   -9.6898 N   0  0  0  0  0  0  0  0  0  0  0  0
    9.0239    5.5066  -10.1513 H   0  0  0  0  0  0  0  0  0  0  0  0
    9.8245    6.1940   -8.3807 C   0  0  0  0  0  0  0  0  0  0  0  0
   10.4126    7.2725   -7.7847 C   0  0  0  0  0  0  0  0  0  0  0  0
   10.7827    7.1704   -6.4497 C   0  0  0  0  0  0  0  0  0  0  0  0
   12.4755    7.8100   -1.7347 C   0  0  0  0  0  0  0  0  0  0  0  0
   12.4583    9.0498   -2.3517 C   0  0  0  0  0  0  0  0  0  0  0  0
   12.1061    9.1974   -3.6627 C   0  0  0  0  0  0  0  0  0  0  0  0
   11.7549    8.0963   -4.4098 C   0  0  0  0  0  0  0  0  0  0  0  0
   11.7726    6.8500   -3.7880 C   0  0  0  0  0  0  0  0  0  0  0  0
   12.1268    6.7016   -2.4697 C   0  0  0  0  0  0  0  0  0  0  0  0
 37 38  2  0
 38 39  1  0
 39 40  2  0
 40 25  1  0
 25 26  1  0
 26 27  2  0
 27 28  1  0
 28 29  2  0
 29 30  1  0
 30 31  2  0
 31  1  1  0
  1  2  2  0
  2  3  1  0
  3  4  2  0
  4  5  1  0
  5  7  1  0
  7  8  2  0
  8  9  1  0
  9 10  2  0
 10 11  1  0
 11 12  2  0
 11 13  1  0
 13 14  1  0
 14 15  1  0
 15 16  2  0
 16 17  1  0
 17 18  2  0
 18 19  1  0
 19 20  2  0
 20 21  1  0
 21 22  2  0
 22 23  1  0
 23 24  2  0
  5  6  2  0
 30 32  1  0
 32 33  1  0
 32 34  1  0
 34 35  2  0
 35 36  1  0
 40 41  1  0
 41 42  2  0
 42 37  1  0
 36 25  2  0
 35 28  1  0
  6  1  1  0
 12  7  1  0
 24 15  1  0
 16 10  1  0
 24 19  1  0
M  END
>  <minimizedAffinity>  (824) 
-16.56053

$$$$
Mol: 173_17 - SminaDock
     RDKit          3D

 41 48  0  0  0  0  0  0  0  0999 V2000
    8.6774   -2.8176  -19.5451 H   0  0  0  0  0  0  0  0  0  0  0  0
    8.2343   -1.8914  -19.5236 O   0  0  0  0  0  0  0  0  0  0  0  0
    7.3402   -1.6016  -18.4890 C   0  0  0  0  0  0  0  0  0  0  0  0
    6.2477   -2.3521  -18.2872 N   0  0  0  0  0  0  0  0  0  0  0  0
    5.3624   -2.1094  -17.3055 C   0  0  0  0  0  0  0  0  0  0  0  0
    5.5062   -1.0633  -16.4208 C   0  0  0  0  0  0  0  0  0  0  0  0
    4.8311   -0.5677  -15.3739 N   0  0  0  0  0  0  0  0  0  0  0  0
    5.4654    0.5096  -14.8741 C   0  0  0  0  0  0  0  0  0  0  0  0
    5.2183    1.3762  -13.8318 C   0  0  0  0  0  0  0  0  0  0  0  0
    6.0680    2.4298  -13.5369 C   0  0  0  0  0  0  0  0  0  0  0  0
    7.2089    2.6495  -14.2898 C   0  0  0  0  0  0  0  0  0  0  0  0
    7.4740    1.7943  -15.3361 C   0  0  0  0  0  0  0  0  0  0  0  0
    6.6189    0.7437  -15.6238 C   0  0  0  0  0  0  0  0  0  0  0  0
    6.7001   -0.2146  -16.6140 C   0  0  0  0  0  0  0  0  0  0  0  0
    7.5559   -0.5336  -17.6442 C   0  0  0  0  0  0  0  0  0  0  0  0
    7.9241    3.8279  -13.7609 C   0  0  0  0  0  0  0  0  0  0  0  0
    9.0910    4.4541  -14.1451 C   0  0  0  0  0  0  0  0  0  0  0  0
    9.5678    5.5665  -13.4789 C   0  0  0  0  0  0  0  0  0  0  0  0
    8.8965    6.1019  -12.3968 C   0  0  0  0  0  0  0  0  0  0  0  0
    7.7191    5.4562  -12.0224 C   0  0  0  0  0  0  0  0  0  0  0  0
    7.2379    4.3460  -12.6830 C   0  0  0  0  0  0  0  0  0  0  0  0
    6.0645    3.4829  -12.5213 C   0  0  0  0  0  0  0  0  0  0  0  0
    5.1780    3.6333  -11.6276 O   0  0  0  0  0  0  0  0  0  0  0  0
    9.3642    7.2444  -11.6949 N   0  0  0  0  0  0  0  0  0  0  0  0
    9.7257    7.2293  -10.4557 C   0  0  0  0  0  0  0  0  0  0  0  0
    9.6463    6.0534   -9.8145 N   0  0  0  0  0  0  0  0  0  0  0  0
   10.0012    5.9466   -8.5288 C   0  0  0  0  0  0  0  0  0  0  0  0
   10.4523    7.0893   -7.8854 C   0  0  0  0  0  0  0  0  0  0  0  0
   10.8358    7.0530   -6.5594 C   0  0  0  0  0  0  0  0  0  0  0  0
   11.2902    8.1683   -5.8845 C   0  0  0  0  0  0  0  0  0  0  0  0
   11.3528    9.3596   -6.5945 C   0  0  0  0  0  0  0  0  0  0  0  0
   10.9735    9.4134   -7.9195 C   0  0  0  0  0  0  0  0  0  0  0  0
   10.5239    8.2937   -8.5753 C   0  0  0  0  0  0  0  0  0  0  0  0
   10.1576    8.3543   -9.8636 N   0  0  0  0  0  0  0  0  0  0  0  0
   10.2148    9.2733  -10.3815 H   0  0  0  0  0  0  0  0  0  0  0  0
   11.6853    8.0789   -4.4837 C   0  0  0  0  0  0  0  0  0  0  0  0
   11.7091    6.8670   -3.8184 C   0  0  0  0  0  0  0  0  0  0  0  0
   12.0802    6.7629   -2.4959 C   0  0  0  0  0  0  0  0  0  0  0  0
   12.4484    7.8715   -1.7678 C   0  0  0  0  0  0  0  0  0  0  0  0
   12.4316    9.1012   -2.4176 C   0  0  0  0  0  0  0  0  0  0  0  0
   12.0595    9.1978   -3.7393 C   0  0  0  0  0  0  0  0  0  0  0  0
  1  2  1  0
  2  3  1  0
  3  4  1  0
  4  5  1  0
  5  6  2  0
  6  7  1  0
  7  8  2  0
  8  9  1  0
  9 10  2  0
 10 11  1  0
 11 12  2  0
 12 13  1  0
 13 14  2  0
 14 15  1  0
 11 16  1  0
 16 17  2  0
 17 18  1  0
 18 19  2  0
 19 24  1  0
 24 25  2  0
 25 26  1  0
 26 27  2  0
 27 28  1  0
 28 29  2  0
 29 30  1  0
 30 36  1  0
 36 37  2  0
 37 38  1  0
 38 39  2  0
 39 40  1  0
 40 41  2  0
 30 31  2  0
 31 32  1  0
 32 33  2  0
 33 34  1  0
 34 35  1  0
 19 20  1  0
 20 21  2  0
 21 22  1  0
 22 23  2  0
 15  3  2  0
 21 16  1  0
 14  6  1  0
 34 25  1  0
 13  8  1  0
 33 28  1  0
 22 10  1  0
 41 36  1  0
M  CHG  1   4  -1
M  END
>  <minimizedAffinity>  (825) 
-16.60795

$$$$
Mol: 144_28 - SminaDock
     RDKit          3D

 39 45  0  0  0  0  0  0  0  0999 V2000
    8.8527    6.0445  -12.4212 C   0  0  0  0  0  0  0  0  0  0  0  0
    7.4922    5.8485  -12.3307 C   0  0  0  0  0  0  0  0  0  0  0  0
    6.8449    4.7344  -12.8778 C   0  0  0  0  0  0  0  0  0  0  0  0
    7.6525    3.8421  -13.5106 C   0  0  0  0  0  0  0  0  0  0  0  0
    9.0373    4.0197  -13.6207 C   0  0  0  0  0  0  0  0  0  0  0  0
    9.6376    5.0941  -13.0899 C   0  0  0  0  0  0  0  0  0  0  0  0
    9.9130    3.0704  -14.4147 C   0  0  0  0  0  0  0  0  0  0  0  0
    9.3821    3.0640  -15.7765 N   0  0  1  0  0  0  0  0  0  0  0  0
    9.1416    4.0811  -15.9769 H   0  0  0  0  0  0  0  0  0  0  0  0
   10.2188    2.8780  -16.4112 H   0  0  0  0  0  0  0  0  0  0  0  0
    8.3611    2.1602  -16.0883 C   0  0  0  0  0  0  0  0  0  0  0  0
    7.2432    1.9647  -15.1550 C   0  0  0  0  0  0  0  0  0  0  0  0
    6.9171    2.6816  -13.9948 C   0  0  0  0  0  0  0  0  0  0  0  0
    5.8547    2.1883  -13.3773 N   0  0  0  0  0  0  0  0  0  0  0  0
    5.2603    2.5916  -12.1357 C   0  0  0  0  0  0  0  0  0  0  0  0
    5.4677    1.1268  -14.1492 C   0  0  0  0  0  0  0  0  0  0  0  0
    4.4122    0.2557  -13.9721 C   0  0  0  0  0  0  0  0  0  0  0  0
    4.1816   -0.7729  -14.8783 C   0  0  0  0  0  0  0  0  0  0  0  0
    5.0125   -0.9230  -15.9598 C   0  0  0  0  0  0  0  0  0  0  0  0
    6.0804   -0.0274  -16.1230 C   0  0  0  0  0  0  0  0  0  0  0  0
    6.2898    0.9812  -15.2161 C   0  0  0  0  0  0  0  0  0  0  0  0
   11.3246    8.0368   -5.9913 C   0  0  0  0  0  0  0  0  0  0  0  0
   11.6048    9.1502   -6.7430 C   0  0  0  0  0  0  0  0  0  0  0  0
   11.3019    9.2350   -8.0795 C   0  0  0  0  0  0  0  0  0  0  0  0
   10.6907    8.1597   -8.6969 C   0  0  0  0  0  0  0  0  0  0  0  0
   10.3885    8.2273  -10.0020 N   0  0  0  0  0  0  0  0  0  0  0  0
    9.7872    7.1744  -10.6185 C   0  0  0  0  0  0  0  0  0  0  0  0
    9.4810    7.1894  -11.8519 N   0  0  0  0  0  0  0  0  0  0  0  0
    9.5176    6.0913   -9.8757 N   0  0  0  0  0  0  0  0  0  0  0  0
    9.0538    5.2545  -10.3097 H   0  0  0  0  0  0  0  0  0  0  0  0
    9.8049    5.9884   -8.5702 C   0  0  0  0  0  0  0  0  0  0  0  0
   10.4122    7.0457   -7.9375 C   0  0  0  0  0  0  0  0  0  0  0  0
   10.7193    6.9681   -6.5965 C   0  0  0  0  0  0  0  0  0  0  0  0
   12.3209    7.9688   -1.9269 C   0  0  0  0  0  0  0  0  0  0  0  0
   12.3178    9.1587   -2.5941 C   0  0  0  0  0  0  0  0  0  0  0  0
   11.9902    9.1873   -3.9342 C   0  0  0  0  0  0  0  0  0  0  0  0
   11.6721    8.0065   -4.5705 C   0  0  0  0  0  0  0  0  0  0  0  0
   11.6795    6.8075   -3.8811 C   0  0  0  0  0  0  0  0  0  0  0  0
   12.0087    6.7973   -2.5445 C   0  0  0  0  0  0  0  0  0  0  0  0
 34 35  2  0
 35 36  1  0
 36 37  2  0
 37 22  1  0
 22 23  1  0
 23 24  2  0
 24 25  1  0
 25 26  2  0
 26 27  1  0
 27 28  2  0
 28  1  1  0
  1  2  2  0
  2  3  1  0
  3  4  2  0
  4  5  1  0
  5  6  2  0
  5  7  1  0
  7  8  1  0
  8  9  1  6
  8 10  1  0
  8 11  1  0
 11 12  1  0
 12 13  2  0
 13 14  1  0
 14 15  1  0
 14 16  1  0
 16 17  2  0
 17 18  1  0
 18 19  2  0
 19 20  1  0
 20 21  2  0
 27 29  1  0
 29 30  1  0
 29 31  1  0
 31 32  2  0
 32 33  1  0
 37 38  1  0
 38 39  2  0
 39 34  1  0
 33 22  2  0
 32 25  1  0
  6  1  1  0
 21 12  1  0
 13  4  1  0
 21 16  1  0
M  CHG  1   8   1
M  END
>  <minimizedAffinity>  (826) 
-16.63666

$$$$
Mol: 144_14 - SminaDock
     RDKit          3D

 44 51  0  0  0  0  0  0  0  0999 V2000
    8.6656    4.1365  -18.4618 H   0  0  0  0  0  0  0  0  0  0  0  0
    9.4174    3.5654  -18.1007 O   0  0  0  0  0  0  0  0  0  0  0  0
    9.5081    3.2636  -16.7121 C   0  0  0  0  0  0  0  0  0  0  0  0
    8.5351    3.2769  -15.9053 N   0  0  0  0  0  0  0  0  0  0  0  0
    8.9490    2.9260  -14.5666 C   0  0  1  0  0  0  0  0  0  0  0  0
   10.3997    2.6893  -14.7158 C   0  0  0  0  0  0  0  0  0  0  0  0
   11.2529    2.3528  -13.8440 O   0  0  0  0  0  0  0  0  0  0  0  0
   10.7176    2.9075  -16.0624 N   0  0  0  0  0  0  0  0  0  0  0  0
   11.6588    2.8357  -16.5562 H   0  0  0  0  0  0  0  0  0  0  0  0
    8.6477    4.0160  -13.6229 C   0  0  0  0  0  0  0  0  0  0  0  0
    9.6074    4.9949  -13.3279 C   0  0  0  0  0  0  0  0  0  0  0  0
    9.3180    6.0964  -12.5554 C   0  0  0  0  0  0  0  0  0  0  0  0
    8.0411    6.2252  -12.0650 C   0  0  0  0  0  0  0  0  0  0  0  0
    7.0748    5.2630  -12.3446 C   0  0  0  0  0  0  0  0  0  0  0  0
    7.3867    4.1452  -13.1314 C   0  0  0  0  0  0  0  0  0  0  0  0
    6.3773    3.0830  -13.2735 C   0  0  0  0  0  0  0  0  0  0  0  0
    5.0782    3.2934  -12.8818 C   0  0  0  0  0  0  0  0  0  0  0  0
    4.1586    2.2925  -13.1618 C   0  0  0  0  0  0  0  0  0  0  0  0
    4.5244    1.1311  -13.8062 C   0  0  0  0  0  0  0  0  0  0  0  0
    5.8300    0.9551  -14.1804 C   0  0  0  0  0  0  0  0  0  0  0  0
    6.7958    1.9414  -13.9157 C   0  0  0  0  0  0  0  0  0  0  0  0
    8.2142    1.6751  -14.2236 C   0  0  0  0  0  0  0  0  0  0  0  0
    5.9578   -0.3323  -14.8297 C   0  0  0  0  0  0  0  0  0  0  0  0
    6.9919   -0.8714  -15.3187 O   0  0  0  0  0  0  0  0  0  0  0  0
    4.7012   -0.9133  -14.8316 O   0  0  0  0  0  0  0  0  0  0  0  0
    3.7552   -0.0901  -14.2284 C   0  0  0  0  0  0  0  0  0  0  0  0
   10.3296    7.0822  -12.2706 N   0  0  0  0  0  0  0  0  0  0  0  0
   10.6545    7.3439  -11.0654 C   0  0  0  0  0  0  0  0  0  0  0  0
   10.0489    6.6947  -10.0417 N   0  0  0  0  0  0  0  0  0  0  0  0
   10.3934    6.9735   -8.7889 C   0  0  0  0  0  0  0  0  0  0  0  0
    9.7860    6.3224   -7.7439 C   0  0  0  0  0  0  0  0  0  0  0  0
   10.1289    6.5971   -6.4235 C   0  0  0  0  0  0  0  0  0  0  0  0
   11.1037    7.5467   -6.1391 C   0  0  0  0  0  0  0  0  0  0  0  0
   11.6870    8.1759   -7.2222 C   0  0  0  0  0  0  0  0  0  0  0  0
   11.3748    7.9310   -8.5316 C   0  0  0  0  0  0  0  0  0  0  0  0
   11.9737    8.5751   -9.5894 C   0  0  0  0  0  0  0  0  0  0  0  0
   11.6079    8.2750  -10.8367 N   0  0  0  0  0  0  0  0  0  0  0  0
   12.0287    8.7329  -11.6856 H   0  0  0  0  0  0  0  0  0  0  0  0
   11.4962    7.8697   -4.7737 C   0  0  0  0  0  0  0  0  0  0  0  0
   11.6664    9.1601   -4.3295 C   0  0  0  0  0  0  0  0  0  0  0  0
   12.0392    9.4642   -3.0372 C   0  0  0  0  0  0  0  0  0  0  0  0
   12.2443    8.4035   -2.1700 C   0  0  0  0  0  0  0  0  0  0  0  0
   12.0888    7.0977   -2.5595 C   0  0  0  0  0  0  0  0  0  0  0  0
   11.7100    6.8440   -3.8799 C   0  0  0  0  0  0  0  0  0  0  0  0
  1  2  1  0
  2  3  1  0
  3  4  2  0
  4  5  1  0
  5  6  1  0
  6  7  2  0
  6  8  1  0
  8  9  1  0
  5 10  1  0
 10 11  2  0
 11 12  1  0
 12 27  1  0
 27 28  2  0
 28 29  1  0
 29 30  2  0
 30 31  1  0
 31 32  2  0
 32 33  1  0
 33 39  1  0
 39 40  2  0
 40 41  1  0
 41 42  2  0
 42 43  1  0
 43 44  2  0
 33 34  2  0
 34 35  1  0
 35 36  2  0
 36 37  1  0
 37 38  1  0
 12 13  2  0
 13 14  1  0
 14 15  2  0
 15 16  1  0
 16 17  2  0
 17 18  1  0
 18 19  2  0
 19 20  1  0
 20 21  2  0
 21 22  1  0
 20 23  1  0
 23 24  2  0
 23 25  1  0
 25 26  1  0
  8  3  1  0
 15 10  1  0
 21 16  1  0
  5 22  1  1
 37 28  1  0
 26 19  1  0
 35 30  1  0
 44 39  1  0
M  END
>  <minimizedAffinity>  (827) 
-16.55905

$$$$
Mol: 106_30 - SminaDock
     RDKit          3D

 36 41  0  0  0  0  0  0  0  0999 V2000
    8.8582    1.1164  -14.2437 O   0  0  0  0  0  0  0  0  0  0  0  0
    7.7862    1.6962  -13.9826 C   0  0  0  0  0  0  0  0  0  0  0  0
    6.5687    0.9100  -14.1990 C   0  0  0  0  0  0  0  0  0  0  0  0
    6.7269   -0.1406  -15.0938 C   0  0  0  0  0  0  0  0  0  0  0  0
    5.6557   -0.9597  -15.4086 C   0  0  0  0  0  0  0  0  0  0  0  0
    4.4282   -0.7341  -14.8334 C   0  0  0  0  0  0  0  0  0  0  0  0
    4.2724    0.2979  -13.9536 C   0  0  0  0  0  0  0  0  0  0  0  0
    5.3303    1.1178  -13.6335 C   0  0  0  0  0  0  0  0  0  0  0  0
    4.9681    2.1793  -12.6461 C   0  0  0  0  0  0  0  0  0  0  0  0
    5.3152    3.5736  -13.1056 C   0  0  0  0  0  0  0  0  0  0  0  0
    6.7565    3.8450  -13.1035 C   0  0  0  0  0  0  0  0  0  0  0  0
    6.8229    5.1262  -12.5983 C   0  0  0  0  0  0  0  0  0  0  0  0
    7.8832    6.0423  -12.7234 C   0  0  0  0  0  0  0  0  0  0  0  0
    9.2382    5.8095  -12.7877 C   0  0  0  0  0  0  0  0  0  0  0  0
    9.8127    4.5964  -13.1989 C   0  0  0  0  0  0  0  0  0  0  0  0
    9.1742    3.4050  -13.5319 C   0  0  0  0  0  0  0  0  0  0  0  0
    9.9246    2.4706  -13.9315 O   0  0  0  0  0  0  0  0  0  0  0  0
    7.8437    3.0768  -13.4962 C   0  0  0  0  0  0  0  0  0  0  0  0
   10.1312    6.8348  -12.4235 N   0  0  0  0  0  0  0  0  0  0  0  0
   10.4818    7.4376  -13.2304 H   0  0  0  0  0  0  0  0  0  0  0  0
   10.5929    7.1379  -11.1398 C   0  0  0  0  0  0  0  0  0  0  0  0
   11.7981    7.7602  -10.9382 C   0  0  0  0  0  0  0  0  0  0  0  0
   12.2351    8.0213   -9.6271 C   0  0  0  0  0  0  0  0  0  0  0  0
   11.4860    7.6705   -8.5285 C   0  0  0  0  0  0  0  0  0  0  0  0
   11.8882    7.9089   -7.2350 C   0  0  0  0  0  0  0  0  0  0  0  0
   11.1202    7.5428   -6.1429 C   0  0  0  0  0  0  0  0  0  0  0  0
    9.9074    6.9160   -6.3925 C   0  0  0  0  0  0  0  0  0  0  0  0
    9.5173    6.6841   -7.6935 C   0  0  0  0  0  0  0  0  0  0  0  0
   10.2784    7.0463   -8.7807 C   0  0  0  0  0  0  0  0  0  0  0  0
    9.8760    6.8042  -10.0290 N   0  0  0  0  0  0  0  0  0  0  0  0
   11.5352    7.7896   -4.7703 C   0  0  0  0  0  0  0  0  0  0  0  0
   11.7362    6.7345   -3.9026 C   0  0  0  0  0  0  0  0  0  0  0  0
   12.1287    6.9290   -2.5907 C   0  0  0  0  0  0  0  0  0  0  0  0
   12.3173    8.2257   -2.1637 C   0  0  0  0  0  0  0  0  0  0  0  0
   12.1218    9.2847   -3.0133 C   0  0  0  0  0  0  0  0  0  0  0  0
   11.7301    9.0980   -4.3254 C   0  0  0  0  0  0  0  0  0  0  0  0
  1  2  2  0
  2  3  1  0
  3  4  2  0
  4  5  1  0
  5  6  2  0
  6  7  1  0
  7  8  2  0
  8  9  1  0
  9 10  1  0
 10 11  1  0
 11 12  1  0
 12 13  2  0
 13 14  1  0
 14 19  1  0
 19 21  1  0
 21 22  2  0
 22 23  1  0
 23 24  2  0
 24 25  1  0
 25 26  2  0
 26 31  1  0
 31 32  2  0
 32 33  1  0
 33 34  2  0
 34 35  1  0
 35 36  2  0
 26 27  1  0
 27 28  2  0
 28 29  1  0
 29 30  2  0
 14 15  2  0
 15 16  1  0
 16 17  2  0
 16 18  1  0
 18  2  1  0
  8  3  1  0
 18 11  2  0
 30 21  1  0
 29 24  1  0
 36 31  1  0
 19 20  1  0
M  END
>  <minimizedAffinity>  (828) 
-16.59164

$$$$
Mol: 175_18 - SminaDock
     RDKit          3D

 37 43  0  0  0  0  0  0  0  0999 V2000
    5.6017   -1.5583  -16.7647 C   0  0  0  0  0  0  0  0  0  0  0  0
    6.8165   -1.1807  -17.1818 N   0  0  0  0  0  0  0  0  0  0  0  0
    7.4448   -0.1102  -16.6567 C   0  0  0  0  0  0  0  0  0  0  0  0
    8.5839    0.1679  -17.1122 O   0  0  0  0  0  0  0  0  0  0  0  0
    6.8839    0.6634  -15.6614 C   0  0  0  0  0  0  0  0  0  0  0  0
    7.5468    1.7561  -15.1382 C   0  0  0  0  0  0  0  0  0  0  0  0
    6.8909    2.4580  -14.1461 C   0  0  0  0  0  0  0  0  0  0  0  0
    5.6486    2.1031  -13.6929 C   0  0  0  0  0  0  0  0  0  0  0  0
    5.0608    1.0254  -14.2489 N   0  0  0  0  0  0  0  0  0  0  0  0
    5.6278    0.2905  -15.2151 C   0  0  0  0  0  0  0  0  0  0  0  0
    4.9988   -0.8171  -15.7712 C   0  0  0  0  0  0  0  0  0  0  0  0
    4.9069    2.8070  -12.6471 C   0  0  0  0  0  0  0  0  0  0  0  0
    5.5427    3.9800  -12.0389 C   0  0  0  0  0  0  0  0  0  0  0  0
    6.8878    4.3632  -12.5288 C   0  0  0  0  0  0  0  0  0  0  0  0
    7.5138    5.4870  -11.9549 C   0  0  0  0  0  0  0  0  0  0  0  0
    8.7537    5.8843  -12.3696 C   0  0  0  0  0  0  0  0  0  0  0  0
    9.3814    5.1688  -13.3573 C   0  0  0  0  0  0  0  0  0  0  0  0
    8.7584    4.0518  -13.9271 C   0  0  0  0  0  0  0  0  0  0  0  0
    7.4981    3.6316  -13.5195 C   0  0  0  0  0  0  0  0  0  0  0  0
    9.3903    7.0355  -11.7787 N   0  0  0  0  0  0  0  0  0  0  0  0
    9.6853    6.9732  -10.5361 C   0  0  0  0  0  0  0  0  0  0  0  0
   10.2819    8.0602   -9.9954 N   0  0  0  0  0  0  0  0  0  0  0  0
   10.6236    8.0821   -8.7109 C   0  0  0  0  0  0  0  0  0  0  0  0
   11.2324    9.1707   -8.1254 C   0  0  0  0  0  0  0  0  0  0  0  0
   11.5629    9.1444   -6.8053 C   0  0  0  0  0  0  0  0  0  0  0  0
   11.3148    8.0546   -5.9957 C   0  0  0  0  0  0  0  0  0  0  0  0
   10.7003    6.9592   -6.5922 C   0  0  0  0  0  0  0  0  0  0  0  0
   10.3586    6.9718   -7.9325 C   0  0  0  0  0  0  0  0  0  0  0  0
    9.7478    5.8671   -8.4997 C   0  0  0  0  0  0  0  0  0  0  0  0
    9.4113    5.8763   -9.8148 N   0  0  0  0  0  0  0  0  0  0  0  0
    8.9560    5.0392  -10.2147 H   0  0  0  0  0  0  0  0  0  0  0  0
   11.6828    8.0613   -4.5849 C   0  0  0  0  0  0  0  0  0  0  0  0
   12.0458    9.2057   -3.9083 C   0  0  0  0  0  0  0  0  0  0  0  0
   12.3899    9.1928   -2.5781 C   0  0  0  0  0  0  0  0  0  0  0  0
   12.3682    7.9908   -1.9062 C   0  0  0  0  0  0  0  0  0  0  0  0
   12.0129    6.8501   -2.5551 C   0  0  0  0  0  0  0  0  0  0  0  0
   11.6742    6.8860   -3.8797 C   0  0  0  0  0  0  0  0  0  0  0  0
  1  2  1  0
  2  3  1  0
  3  4  2  0
  3  5  1  0
  5  6  2  0
  6  7  1  0
  7  8  2  0
  8  9  1  0
  9 10  2  0
 10 11  1  0
  8 12  1  0
 12 13  1  0
 13 14  1  0
 14 15  2  0
 15 16  1  0
 16 20  1  0
 20 21  2  0
 21 22  1  0
 22 23  2  0
 23 24  1  0
 24 25  2  0
 25 26  1  0
 26 32  1  0
 32 33  2  0
 33 34  1  0
 34 35  2  0
 35 36  1  0
 36 37  2  0
 26 27  2  0
 27 28  1  0
 28 29  2  0
 29 30  1  0
 30 31  1  0
 16 17  2  0
 17 18  1  0
 18 19  2  0
 11  1  2  0
 19 14  1  0
 10  5  1  0
 30 21  1  0
 19  7  1  0
 28 23  1  0
 37 32  1  0
M  CHG  1   2  -1
M  END
>  <minimizedAffinity>  (829) 
-16.55102

$$$$
Mol: 175_60 - SminaDock
     RDKit          3D

 39 45  0  0  0  0  0  0  0  0999 V2000
    8.5428    5.8584  -12.3702 C   0  0  0  0  0  0  0  0  0  0  0  0
    7.2947    5.4391  -11.9497 C   0  0  0  0  0  0  0  0  0  0  0  0
    6.7178    4.3428  -12.5563 C   0  0  0  0  0  0  0  0  0  0  0  0
    7.3327    3.6369  -13.5734 C   0  0  0  0  0  0  0  0  0  0  0  0
    8.5806    4.0573  -13.9929 C   0  0  0  0  0  0  0  0  0  0  0  0
    9.1671    5.1471  -13.3980 C   0  0  0  0  0  0  0  0  0  0  0  0
    9.0479    3.1836  -15.0652 C   0  0  0  0  0  0  0  0  0  0  0  0
   10.1489    3.2927  -15.6675 O   0  0  0  0  0  0  0  0  0  0  0  0
    8.0102    2.1940  -15.2845 C   0  0  0  0  0  0  0  0  0  0  0  0
    7.8998    1.1329  -16.1563 C   0  0  0  0  0  0  0  0  0  0  0  0
    6.7885    0.3255  -16.1673 C   0  0  0  0  0  0  0  0  0  0  0  0
    5.7887    0.6252  -15.2663 C   0  0  0  0  0  0  0  0  0  0  0  0
    5.8935    1.6903  -14.3874 C   0  0  0  0  0  0  0  0  0  0  0  0
    6.9942    2.4877  -14.3786 C   0  0  0  0  0  0  0  0  0  0  0  0
    4.5975   -0.1972  -15.2405 C   0  0  0  0  0  0  0  0  0  0  0  0
    3.6548    0.0379  -14.4330 O   0  0  0  0  0  0  0  0  0  0  0  0
    4.4933   -1.2599  -16.1184 O   0  0  0  0  0  0  0  0  0  0  0  0
    5.2041   -1.1472  -17.3590 C   0  0  1  0  0  0  0  0  0  0  0  0
    5.1257   -2.4918  -18.0347 C   0  0  0  0  0  0  0  0  0  0  0  0
    4.6303   -0.0329  -18.1971 C   0  0  0  0  0  0  0  0  0  0  0  0
    6.6618   -0.8262  -17.1092 C   0  0  0  0  0  0  0  0  0  0  0  0
   11.3288    8.0096   -5.9982 C   0  0  0  0  0  0  0  0  0  0  0  0
   11.6377    9.0670   -6.8301 C   0  0  0  0  0  0  0  0  0  0  0  0
   11.2768    9.0599   -8.1659 C   0  0  0  0  0  0  0  0  0  0  0  0
   10.5945    8.0016   -8.7280 C   0  0  0  0  0  0  0  0  0  0  0  0
   10.2365    7.9824  -10.0299 N   0  0  0  0  0  0  0  0  0  0  0  0
    9.5707    6.9541  -10.5866 C   0  0  0  0  0  0  0  0  0  0  0  0
    9.2365    6.9551  -11.8374 N   0  0  0  0  0  0  0  0  0  0  0  0
    9.2669    5.9206   -9.7807 N   0  0  0  0  0  0  0  0  0  0  0  0
    8.7473    5.1103  -10.2007 H   0  0  0  0  0  0  0  0  0  0  0  0
    9.6002    5.8898   -8.4773 C   0  0  0  0  0  0  0  0  0  0  0  0
   10.2832    6.9419   -7.9012 C   0  0  0  0  0  0  0  0  0  0  0  0
   10.6455    6.9540   -6.5697 C   0  0  0  0  0  0  0  0  0  0  0  0
   12.4119    7.9780   -1.8577 C   0  0  0  0  0  0  0  0  0  0  0  0
   12.4145    9.1503   -2.5972 C   0  0  0  0  0  0  0  0  0  0  0  0
   12.0642    9.1530   -3.9314 C   0  0  0  0  0  0  0  0  0  0  0  0
   11.6971    7.9904   -4.5848 C   0  0  0  0  0  0  0  0  0  0  0  0
   11.6996    6.8302   -3.8337 C   0  0  0  0  0  0  0  0  0  0  0  0
   12.0477    6.8145   -2.4992 C   0  0  0  0  0  0  0  0  0  0  0  0
 34 35  2  0
 35 36  1  0
 36 37  2  0
 37 22  1  0
 22 23  1  0
 23 24  2  0
 24 25  1  0
 25 26  2  0
 26 27  1  0
 27 28  2  0
 28  1  1  0
  1  2  2  0
  2  3  1  0
  3  4  2  0
  4  5  1  0
  5  6  2  0
  5  7  1  0
  7  8  2  0
  7  9  1  0
  9 10  2  0
 10 11  1  0
 11 12  2  0
 12 13  1  0
 13 14  2  0
 12 15  1  0
 15 16  2  0
 15 17  1  0
 17 18  1  0
 18 19  1  6
 18 20  1  0
 18 21  1  0
 27 29  1  0
 29 30  1  0
 29 31  1  0
 31 32  2  0
 32 33  1  0
 37 38  1  0
 38 39  2  0
 39 34  1  0
 33 22  2  0
 32 25  1  0
  6  1  1  0
 14  9  1  0
 14  4  1  0
 21 11  1  0
M  END
>  <minimizedAffinity>  (830) 
-16.57042

$$$$
Mol: 199_53 - SminaDock
     RDKit          3D

 48 55  0  0  0  0  0  0  0  0999 V2000
   12.4905    3.8425  -17.6305 H   0  0  0  0  0  0  0  0  0  0  0  0
   12.4853    3.0561  -17.0244 O   0  0  0  0  0  0  0  0  0  0  0  0
   11.1355    2.7372  -16.8183 C   0  0  1  0  0  0  0  0  0  0  0  0
   10.9428    1.7247  -15.7453 C   0  0  0  0  0  0  0  0  0  0  0  0
    9.9583    2.1235  -14.6947 C   0  0  0  0  0  0  0  0  0  0  0  0
    8.7098    2.7871  -15.1996 C   0  0  2  0  0  0  0  0  0  0  0  0
    8.0939    3.5162  -14.0626 C   0  0  0  0  0  0  0  0  0  0  0  0
    8.8001    4.5563  -13.4501 C   0  0  0  0  0  0  0  0  0  0  0  0
    8.3141    5.2789  -12.3845 C   0  0  0  0  0  0  0  0  0  0  0  0
    7.0609    4.9728  -11.8791 C   0  0  0  0  0  0  0  0  0  0  0  0
    6.3351    3.9441  -12.4670 C   0  0  0  0  0  0  0  0  0  0  0  0
    6.8647    3.2384  -13.5447 C   0  0  0  0  0  0  0  0  0  0  0  0
    6.0344    2.1946  -14.1060 C   0  0  0  0  0  0  0  0  0  0  0  0
    4.9067    1.8864  -13.6860 O   0  0  0  0  0  0  0  0  0  0  0  0
    6.5756    1.4485  -15.2606 C   0  0  0  0  0  0  0  0  0  0  0  0
    7.8129    1.7516  -15.7570 C   0  0  0  0  0  0  0  0  0  0  0  0
    8.0504    0.9405  -16.8173 N   0  0  0  0  0  0  0  0  0  0  0  0
    8.8802    0.8803  -17.4525 H   0  0  0  0  0  0  0  0  0  0  0  0
    6.9792    0.1461  -16.9762 C   0  0  0  0  0  0  0  0  0  0  0  0
    6.6629   -0.8646  -17.8844 C   0  0  0  0  0  0  0  0  0  0  0  0
    5.4580   -1.5233  -17.8033 C   0  0  0  0  0  0  0  0  0  0  0  0
    4.5376   -1.2048  -16.8295 C   0  0  0  0  0  0  0  0  0  0  0  0
    4.8336   -0.2083  -15.9236 C   0  0  0  0  0  0  0  0  0  0  0  0
    6.0470    0.4385  -16.0236 C   0  0  0  0  0  0  0  0  0  0  0  0
    8.9635    3.7966  -16.2876 C   0  0  0  0  0  0  0  0  0  0  0  0
   10.4003    4.0218  -16.6158 C   0  0  0  0  0  0  0  0  0  0  0  0
    9.1082    6.3253  -11.8318 N   0  0  0  0  0  0  0  0  0  0  0  0
    9.4147    6.4034  -10.5727 C   0  0  0  0  0  0  0  0  0  0  0  0
   10.1728    7.4294  -10.1308 N   0  0  0  0  0  0  0  0  0  0  0  0
   10.5253    7.5695   -8.8397 C   0  0  0  0  0  0  0  0  0  0  0  0
   11.3007    8.6226   -8.3964 C   0  0  0  0  0  0  0  0  0  0  0  0
   11.6539    8.7539   -7.0695 C   0  0  0  0  0  0  0  0  0  0  0  0
   11.2473    7.8347   -6.1182 C   0  0  0  0  0  0  0  0  0  0  0  0
   10.4731    6.7849   -6.5668 C   0  0  0  0  0  0  0  0  0  0  0  0
   10.1158    6.6489   -7.8969 C   0  0  0  0  0  0  0  0  0  0  0  0
    9.3415    5.6003   -8.3472 C   0  0  0  0  0  0  0  0  0  0  0  0
    9.0123    5.5020   -9.6585 N   0  0  0  0  0  0  0  0  0  0  0  0
    8.4253    4.7044   -9.9970 H   0  0  0  0  0  0  0  0  0  0  0  0
   11.6421    8.0095   -4.7241 C   0  0  0  0  0  0  0  0  0  0  0  0
   11.6390    6.9094   -3.8872 C   0  0  0  0  0  0  0  0  0  0  0  0
   11.9955    6.9791   -2.5570 C   0  0  0  0  0  0  0  0  0  0  0  0
   12.3709    8.1962   -2.0384 C   0  0  0  0  0  0  0  0  0  0  0  0
   12.3802    9.3047   -2.8577 C   0  0  0  0  0  0  0  0  0  0  0  0
   12.0167    9.2126   -4.1982 C   0  0  0  0  0  0  0  0  0  0  0  0
    5.1206   -2.6092  -18.7843 C   0  0  0  0  0  0  0  0  0  0  0  0
    4.5849   -3.7599  -18.1263 N   0  0  0  0  0  0  0  0  0  0  0  0
    3.6657   -3.9924  -18.5261 H   0  0  0  0  0  0  0  0  0  0  0  0
    5.2475   -4.5700  -18.1165 H   0  0  0  0  0  0  0  0  0  0  0  0
  1  2  1  0
  3  2  1  1
  3  4  1  0
  4  5  1  0
  6  5  1  1
  6  7  1  0
  7  8  2  0
  8  9  1  0
  9 27  1  0
 27 28  2  0
 28 29  1  0
 29 30  2  0
 30 31  1  0
 31 32  2  0
 32 33  1  0
 33 39  1  0
 39 40  2  0
 40 41  1  0
 41 42  2  0
 42 43  1  0
 43 44  2  0
 33 34  2  0
 34 35  1  0
 35 36  2  0
 36 37  1  0
 37 38  1  0
  9 10  2  0
 10 11  1  0
 11 12  2  0
 12 13  1  0
 13 14  2  0
 13 15  1  0
 15 16  2  0
 16 17  1  0
 17 18  1  0
 17 19  1  0
 19 20  2  0
 20 21  1  0
 21 45  1  0
 45 46  1  0
 46 47  1  0
 46 48  1  0
 21 22  2  0
 22 23  1  0
 23 24  2  0
  6 25  1  0
 25 26  1  0
 26  3  1  0
 16  6  1  0
 24 19  1  0
 12  7  1  0
 24 15  1  0
 37 28  1  0
 35 30  1  0
 44 39  1  0
M  END
>  <minimizedAffinity>  (831) 
-16.59017

$$$$
Mol: 150_9 - SminaDock
     RDKit          3D

 38 44  0  0  0  0  0  0  0  0999 V2000
    8.7163    5.9547  -12.5126 C   0  0  0  0  0  0  0  0  0  0  0  0
    9.3983    5.2970  -13.5077 C   0  0  0  0  0  0  0  0  0  0  0  0
    8.8963    4.1404  -14.0829 C   0  0  0  0  0  0  0  0  0  0  0  0
    7.6759    3.6728  -13.6127 C   0  0  0  0  0  0  0  0  0  0  0  0
    6.9636    4.2972  -12.6216 C   0  0  0  0  0  0  0  0  0  0  0  0
    7.5184    5.4774  -12.0651 C   0  0  0  0  0  0  0  0  0  0  0  0
    5.6853    3.8535  -12.0482 C   0  0  0  0  0  0  0  0  0  0  0  0
    5.0601    2.7301  -12.7377 C   0  0  0  0  0  0  0  0  0  0  0  0
    5.8789    2.0741  -13.7440 C   0  0  0  0  0  0  0  0  0  0  0  0
    5.3451    0.9116  -14.3078 C   0  0  0  0  0  0  0  0  0  0  0  0
    5.9865    0.1957  -15.2824 C   0  0  0  0  0  0  0  0  0  0  0  0
    7.2084    0.6134  -15.7461 C   0  0  0  0  0  0  0  0  0  0  0  0
    7.7711    1.7772  -15.1994 C   0  0  0  0  0  0  0  0  0  0  0  0
    7.0991    2.4728  -14.2201 C   0  0  0  0  0  0  0  0  0  0  0  0
    7.9608   -0.0970  -16.7887 C   0  0  0  0  0  0  0  0  0  0  0  0
    7.2255   -1.1460  -17.4201 N   0  0  2  0  0  0  0  0  0  0  0  0
    7.4648   -2.0475  -16.9175 H   0  0  0  0  0  0  0  0  0  0  0  0
    7.5378   -1.2895  -18.4203 H   0  0  0  0  0  0  0  0  0  0  0  0
    5.8025   -1.0080  -17.3555 C   0  0  0  0  0  0  0  0  0  0  0  0
    5.4099   -1.0386  -15.8736 C   0  0  0  0  0  0  0  0  0  0  0  0
   11.2401    8.0614   -6.0583 C   0  0  0  0  0  0  0  0  0  0  0  0
   11.3964    9.2131   -6.8026 C   0  0  0  0  0  0  0  0  0  0  0  0
   11.0333    9.2754   -8.1411 C   0  0  0  0  0  0  0  0  0  0  0  0
   10.4982    8.1792   -8.7823 C   0  0  0  0  0  0  0  0  0  0  0  0
   10.3398    7.0252   -8.0427 C   0  0  0  0  0  0  0  0  0  0  0  0
    9.8026    5.9362   -8.6999 C   0  0  0  0  0  0  0  0  0  0  0  0
    9.4518    6.0004   -9.9984 N   0  0  0  0  0  0  0  0  0  0  0  0
    9.6084    7.1244  -10.7103 C   0  0  0  0  0  0  0  0  0  0  0  0
    9.2642    7.1492  -11.9388 N   0  0  0  0  0  0  0  0  0  0  0  0
   10.1307    8.1916  -10.0807 N   0  0  0  0  0  0  0  0  0  0  0  0
   10.2500    9.0674  -10.6448 H   0  0  0  0  0  0  0  0  0  0  0  0
   10.7036    6.9707   -6.7103 C   0  0  0  0  0  0  0  0  0  0  0  0
   12.3696    7.9416   -1.9283 C   0  0  0  0  0  0  0  0  0  0  0  0
   12.3368    9.1257   -2.6435 C   0  0  0  0  0  0  0  0  0  0  0  0
   11.9705    9.1561   -3.9793 C   0  0  0  0  0  0  0  0  0  0  0  0
   11.6239    7.9978   -4.6451 C   0  0  0  0  0  0  0  0  0  0  0  0
   11.6602    6.8238   -3.9224 C   0  0  0  0  0  0  0  0  0  0  0  0
   12.0235    6.7829   -2.5918 C   0  0  0  0  0  0  0  0  0  0  0  0
 33 34  2  0
 34 35  1  0
 35 36  2  0
 36 21  1  0
 21 22  2  0
 22 23  1  0
 23 24  2  0
 24 25  1  0
 25 26  1  0
 26 27  2  0
 27 28  1  0
 28 29  2  0
 29  1  1  0
  1  2  2  0
  2  3  1  0
  3  4  2  0
  4  5  1  0
  5  6  2  0
  5  7  1  0
  7  8  1  0
  8  9  1  0
  9 10  2  0
 10 11  1  0
 11 12  2  0
 12 13  1  0
 13 14  2  0
 12 15  1  0
 15 16  1  0
 16 17  1  1
 16 18  1  0
 16 19  1  0
 19 20  1  0
 28 30  1  0
 30 31  1  0
 25 32  2  0
 36 37  1  0
 37 38  2  0
 38 33  1  0
 32 21  1  0
 30 24  1  0
  6  1  1  0
 14  9  1  0
 14  4  1  0
 20 11  1  0
M  CHG  1  16   1
M  END
>  <minimizedAffinity>  (832) 
-16.61215

$$$$
Mol: 149_50 - SminaDock
     RDKit          3D

 39 45  0  0  0  0  0  0  0  0999 V2000
    8.9351    5.9379  -12.4194 C   0  0  0  0  0  0  0  0  0  0  0  0
    9.5310    5.4292  -13.5490 C   0  0  0  0  0  0  0  0  0  0  0  0
    9.0359    4.3266  -14.2317 C   0  0  0  0  0  0  0  0  0  0  0  0
    7.9033    3.7169  -13.7607 C   0  0  0  0  0  0  0  0  0  0  0  0
    7.2832    4.1920  -12.6437 C   0  0  0  0  0  0  0  0  0  0  0  0
    7.8019    5.2932  -11.9854 C   0  0  0  0  0  0  0  0  0  0  0  0
    6.0782    3.6075  -12.0913 C   0  0  1  0  0  0  0  0  0  0  0  0
    5.0302    4.6574  -12.0744 N   0  0  0  0  0  0  0  0  0  0  0  0
    4.1053    4.2672  -12.2936 H   0  0  0  0  0  0  0  0  0  0  0  0
    5.2622    5.4309  -12.7093 H   0  0  0  0  0  0  0  0  0  0  0  0
    5.5067    2.3976  -12.7268 C   0  0  0  0  0  0  0  0  0  0  0  0
    6.2239    1.9655  -13.9270 C   0  0  0  0  0  0  0  0  0  0  0  0
    7.3507    2.5306  -14.4577 C   0  0  0  0  0  0  0  0  0  0  0  0
    7.9711    2.0545  -15.5927 C   0  0  0  0  0  0  0  0  0  0  0  0
    7.4589    0.9574  -16.2518 C   0  0  0  0  0  0  0  0  0  0  0  0
    6.3126    0.3447  -15.7529 C   0  0  0  0  0  0  0  0  0  0  0  0
    5.7730   -0.7624  -16.3952 C   0  0  0  0  0  0  0  0  0  0  0  0
    4.6353   -1.3749  -15.9049 C   0  0  0  0  0  0  0  0  0  0  0  0
    4.0421   -0.8713  -14.7674 C   0  0  0  0  0  0  0  0  0  0  0  0
    4.5805    0.2313  -14.1287 C   0  0  0  0  0  0  0  0  0  0  0  0
    5.7137    0.8404  -14.6182 C   0  0  0  0  0  0  0  0  0  0  0  0
   11.3348    8.0721   -5.8708 C   0  0  0  0  0  0  0  0  0  0  0  0
   11.5010    9.2101   -6.6307 C   0  0  0  0  0  0  0  0  0  0  0  0
   11.1649    9.2589   -7.9738 C   0  0  0  0  0  0  0  0  0  0  0  0
   10.6442    8.1258   -8.5742 C   0  0  0  0  0  0  0  0  0  0  0  0
   10.4717    6.9836   -7.8331 C   0  0  0  0  0  0  0  0  0  0  0  0
    9.9463    5.8527   -8.4529 C   0  0  0  0  0  0  0  0  0  0  0  0
    9.6243    5.9152   -9.7585 N   0  0  0  0  0  0  0  0  0  0  0  0
    9.7912    7.0377  -10.4965 C   0  0  0  0  0  0  0  0  0  0  0  0
    9.4769    7.0760  -11.7443 N   0  0  0  0  0  0  0  0  0  0  0  0
   10.2993    8.1186   -9.8810 N   0  0  0  0  0  0  0  0  0  0  0  0
   10.4559    9.0251  -10.3936 H   0  0  0  0  0  0  0  0  0  0  0  0
   10.8184    6.9580   -6.4778 C   0  0  0  0  0  0  0  0  0  0  0  0
   12.3795    8.0337   -1.7671 C   0  0  0  0  0  0  0  0  0  0  0  0
   12.0474    6.8429   -2.3825 C   0  0  0  0  0  0  0  0  0  0  0  0
   11.7078    6.8586   -3.7177 C   0  0  0  0  0  0  0  0  0  0  0  0
   11.6887    8.0208   -4.4574 C   0  0  0  0  0  0  0  0  0  0  0  0
   12.0223    9.2001   -3.8291 C   0  0  0  0  0  0  0  0  0  0  0  0
   12.3678    9.2110   -2.4862 C   0  0  0  0  0  0  0  0  0  0  0  0
 34 35  2  0
 35 36  1  0
 36 37  2  0
 37 22  1  0
 22 23  2  0
 23 24  1  0
 24 25  2  0
 25 26  1  0
 26 27  1  0
 27 28  2  0
 28 29  1  0
 29 30  2  0
 30  1  1  0
  1  2  2  0
  2  3  1  0
  3  4  2  0
  4  5  1  0
  5  6  2  0
  5  7  1  0
  7  8  1  6
  8  9  1  0
  8 10  1  0
  7 11  1  0
 11 12  1  0
 12 13  2  0
 13 14  1  0
 14 15  2  0
 15 16  1  0
 16 17  2  0
 17 18  1  0
 18 19  2  0
 19 20  1  0
 20 21  2  0
 29 31  1  0
 31 32  1  0
 26 33  2  0
 37 38  1  0
 38 39  2  0
 39 34  1  0
 33 22  1  0
 31 25  1  0
  6  1  1  0
 21 12  1  0
 13  4  1  0
 21 16  1  0
M  END
>  <minimizedAffinity>  (833) 
-16.56337

$$$$
Mol: 111_28 - SminaDock
     RDKit          3D

 45 52  0  0  0  0  0  0  0  0999 V2000
    9.9252    4.3876  -15.3090 N   0  0  0  0  0  0  0  0  0  0  0  0
    9.8452    4.3264  -13.8910 C   0  0  0  0  0  0  0  0  0  0  0  0
   10.1634    3.2321  -13.3579 O   0  0  0  0  0  0  0  0  0  0  0  0
    9.6718    5.2681  -15.8035 H   0  0  0  0  0  0  0  0  0  0  0  0
    8.7381   -2.8219  -19.4585 O   0  0  0  0  0  0  0  0  0  0  0  0
    8.3677   -1.8471  -18.7585 C   0  0  0  0  0  0  0  0  0  0  0  0
    7.0272   -1.6985  -18.3031 N   0  0  0  0  0  0  0  0  0  0  0  0
    6.5782   -0.3344  -18.1178 C   0  0  2  0  0  0  0  0  0  0  0  0
    5.1336   -0.3121  -17.6768 C   0  0  0  0  0  0  0  0  0  0  0  0
    4.3847    0.5931  -18.6078 C   0  0  0  0  0  0  0  0  0  0  0  0
    5.1976    0.6060  -19.8620 C   0  0  0  0  0  0  0  0  0  0  0  0
    6.6344    0.3839  -19.4426 C   0  0  0  0  0  0  0  0  0  0  0  0
    7.4576    0.4255  -17.1152 C   0  0  0  0  0  0  0  0  0  0  0  0
    8.8599    0.2934  -17.5729 C   0  0  0  0  0  0  0  0  0  0  0  0
    9.2872   -0.7683  -18.3436 C   0  0  0  0  0  0  0  0  0  0  0  0
   10.6047   -0.8765  -18.7653 C   0  0  0  0  0  0  0  0  0  0  0  0
   11.5305    0.0822  -18.4224 C   0  0  0  0  0  0  0  0  0  0  0  0
   11.1428    1.1544  -17.6553 C   0  0  0  0  0  0  0  0  0  0  0  0
   12.0901    2.1253  -17.3049 C   0  0  0  0  0  0  0  0  0  0  0  0
   11.6528    3.1728  -16.5337 C   0  0  0  0  0  0  0  0  0  0  0  0
   10.3451    3.2788  -16.1150 C   0  0  0  0  0  0  0  0  0  0  0  0
    9.4220    2.3225  -16.4630 C   0  0  0  0  0  0  0  0  0  0  0  0
    9.8318    1.2478  -17.2444 C   0  0  0  0  0  0  0  0  0  0  0  0
    6.4388   -2.5391  -18.1275 H   0  0  0  0  0  0  0  0  0  0  0  0
    9.4065    5.4997  -13.0721 C   0  0  1  0  0  0  0  0  0  0  0  0
    8.8071    5.1091  -11.7760 C   0  0  0  0  0  0  0  0  0  0  0  0
    9.3591    5.7805  -10.5748 C   0  0  0  0  0  0  0  0  0  0  0  0
    9.0925    5.2386   -9.3081 C   0  0  0  0  0  0  0  0  0  0  0  0
    9.5632    5.8035   -8.1507 C   0  0  0  0  0  0  0  0  0  0  0  0
   10.3280    6.9428   -8.1906 C   0  0  0  0  0  0  0  0  0  0  0  0
   10.6035    7.4952   -9.4355 C   0  0  0  0  0  0  0  0  0  0  0  0
   10.1240    6.9181  -10.6008 C   0  0  0  0  0  0  0  0  0  0  0  0
   10.4301    7.5197  -11.9258 C   0  0  0  0  0  0  0  0  0  0  0  0
   10.5653    6.3877  -12.8625 C   0  0  0  0  0  0  0  0  0  0  0  0
   11.5989    6.1937  -13.4426 O   0  0  0  0  0  0  0  0  0  0  0  0
   10.8554    7.5900   -6.9809 C   0  0  0  0  0  0  0  0  0  0  0  0
   11.2033    8.9161   -6.9648 C   0  0  0  0  0  0  0  0  0  0  0  0
   11.6963    9.5072   -5.8156 C   0  0  0  0  0  0  0  0  0  0  0  0
   11.8564    8.7839   -4.6420 C   0  0  0  0  0  0  0  0  0  0  0  0
   12.3492    9.3876   -3.5039 C   0  0  0  0  0  0  0  0  0  0  0  0
   12.4936    8.6374   -2.3580 C   0  0  0  0  0  0  0  0  0  0  0  0
   12.1433    7.3114   -2.3817 C   0  0  0  0  0  0  0  0  0  0  0  0
   11.6526    6.7188   -3.5236 C   0  0  0  0  0  0  0  0  0  0  0  0
   11.4971    7.4552   -4.6943 C   0  0  0  0  0  0  0  0  0  0  0  0
   11.0037    6.8464   -5.8290 C   0  0  0  0  0  0  0  0  0  0  0  0
  5  6  2  0
  6  7  1  0
  7  8  1  0
  8  9  1  1
  9 10  1  0
 10 11  1  0
 11 12  1  0
  8 13  1  0
 13 14  1  0
 14 15  2  0
 15 16  1  0
 16 17  2  0
 17 18  1  0
 18 19  2  0
 19 20  1  0
 20 21  2  0
 21  1  1  0
  1  2  1  0
  2  3  2  0
 25  2  1  1
 25 26  1  0
 26 27  1  0
 27 28  2  0
 28 29  1  0
 29 30  2  0
 30 36  1  0
 36 37  2  0
 37 38  1  0
 38 39  2  0
 39 40  1  0
 40 41  2  0
 41 42  1  0
 42 43  2  0
 43 44  1  0
 44 45  2  0
 30 31  1  0
 31 32  2  0
 32 33  1  0
 33 34  1  0
 34 35  2  0
 21 22  1  0
 22 23  2  0
 15  6  1  0
 23 18  1  0
 12  8  1  0
 23 14  1  0
 34 25  1  0
 32 27  1  0
 45 36  1  0
 44 39  1  0
  7 24  1  0
  1  4  1  0
M  END
>  <minimizedAffinity>  (834) 
-16.57152

$$$$
Mol: 137_39 - SminaDock
     RDKit          3D

 38 44  0  0  0  0  0  0  0  0999 V2000
    8.8094    6.0584  -12.3182 C   0  0  0  0  0  0  0  0  0  0  0  0
    9.5570    5.4262  -13.2864 C   0  0  0  0  0  0  0  0  0  0  0  0
    9.0588    4.2942  -13.9455 C   0  0  0  0  0  0  0  0  0  0  0  0
    7.8202    3.8088  -13.6284 C   0  0  0  0  0  0  0  0  0  0  0  0
    7.0758    4.4638  -12.6459 C   0  0  0  0  0  0  0  0  0  0  0  0
    7.5678    5.5954  -11.9820 C   0  0  0  0  0  0  0  0  0  0  0  0
    5.7276    4.0374  -12.3107 C   0  0  0  0  0  0  0  0  0  0  0  0
    5.3282    2.6779  -12.7151 C   0  0  0  0  0  0  0  0  0  0  0  0
    6.0685    2.1122  -13.8357 C   0  0  0  0  0  0  0  0  0  0  0  0
    5.5708    0.9862  -14.5094 C   0  0  0  0  0  0  0  0  0  0  0  0
    6.2767    0.4010  -15.5244 C   0  0  0  0  0  0  0  0  0  0  0  0
    7.5060    0.8848  -15.9347 C   0  0  0  0  0  0  0  0  0  0  0  0
    7.9977    2.0000  -15.2682 C   0  0  0  0  0  0  0  0  0  0  0  0
    7.2855    2.6024  -14.2354 C   0  0  0  0  0  0  0  0  0  0  0  0
    8.2850    0.2669  -17.0288 C   0  0  0  0  0  0  0  0  0  0  0  0
    7.4110   -0.5630  -17.9453 C   0  0  0  0  0  0  0  0  0  0  0  0
    6.4586   -1.3580  -17.2351 N   0  0  0  0  0  0  0  0  0  0  0  0
    6.3241   -2.3539  -17.4847 H   0  0  0  0  0  0  0  0  0  0  0  0
    5.6996   -0.7770  -16.1889 C   0  0  0  0  0  0  0  0  0  0  0  0
    4.5755   -1.2465  -15.8383 O   0  0  0  0  0  0  0  0  0  0  0  0
   11.3326    8.0648   -5.8531 C   0  0  0  0  0  0  0  0  0  0  0  0
   11.4961    9.2207   -6.6003 C   0  0  0  0  0  0  0  0  0  0  0  0
   11.1263    9.2609   -7.9280 C   0  0  0  0  0  0  0  0  0  0  0  0
   10.5829    8.1740   -8.5756 C   0  0  0  0  0  0  0  0  0  0  0  0
   10.2177    8.1977   -9.8672 N   0  0  0  0  0  0  0  0  0  0  0  0
    9.6939    7.1171  -10.4542 C   0  0  0  0  0  0  0  0  0  0  0  0
    9.3636    7.1940  -11.6882 N   0  0  0  0  0  0  0  0  0  0  0  0
    9.5284    5.9938   -9.7513 N   0  0  0  0  0  0  0  0  0  0  0  0
    9.1190    5.1228  -10.1780 H   0  0  0  0  0  0  0  0  0  0  0  0
    9.8876    5.9760   -8.4869 N   0  0  0  0  0  0  0  0  0  0  0  0
   10.4173    7.0120   -7.8290 C   0  0  0  0  0  0  0  0  0  0  0  0
   10.7883    6.9776   -6.5039 C   0  0  0  0  0  0  0  0  0  0  0  0
   12.4796    8.0150   -1.7401 C   0  0  0  0  0  0  0  0  0  0  0  0
   12.4324    9.1700   -2.4623 C   0  0  0  0  0  0  0  0  0  0  0  0
   12.0542    9.1703   -3.8094 C   0  0  0  0  0  0  0  0  0  0  0  0
   11.7186    8.0036   -4.4449 C   0  0  0  0  0  0  0  0  0  0  0  0
   11.7656    6.8342   -3.7161 C   0  0  0  0  0  0  0  0  0  0  0  0
   12.1424    6.8259   -2.3706 C   0  0  0  0  0  0  0  0  0  0  0  0
 33 34  2  0
 34 35  1  0
 35 36  2  0
 36 21  1  0
 21 22  1  0
 22 23  2  0
 23 24  1  0
 24 25  2  0
 25 26  1  0
 26 27  2  0
 27  1  1  0
  1  2  2  0
  2  3  1  0
  3  4  2  0
  4  5  1  0
  5  6  2  0
  5  7  1  0
  7  8  1  0
  8  9  1  0
  9 10  2  0
 10 11  1  0
 11 12  2  0
 12 13  1  0
 13 14  2  0
 12 15  1  0
 15 16  1  0
 16 17  1  0
 17 18  1  0
 17 19  1  0
 19 20  2  0
 26 28  1  0
 28 29  1  0
 28 30  1  0
 30 31  2  0
 31 32  1  0
 36 37  1  0
 37 38  2  0
 38 33  1  0
 32 21  2  0
 31 24  1  0
  6  1  1  0
 14  9  1  0
 14  4  1  0
 19 11  1  0
M  END
>  <minimizedAffinity>  (835) 
-16.62210

$$$$
Mol: 136_37 - SminaDock
     RDKit          3D

 37 43  0  0  0  0  0  0  0  0999 V2000
    8.7015    5.6636  -12.4374 C   0  0  0  0  0  0  0  0  0  0  0  0
    9.3875    4.9190  -13.3612 C   0  0  0  0  0  0  0  0  0  0  0  0
    8.7578    3.8314  -13.9309 C   0  0  0  0  0  0  0  0  0  0  0  0
    7.4519    3.4800  -13.5885 C   0  0  0  0  0  0  0  0  0  0  0  0
    6.7780    4.2400  -12.6628 C   0  0  0  0  0  0  0  0  0  0  0  0
    7.4194    5.3384  -12.0877 C   0  0  0  0  0  0  0  0  0  0  0  0
    5.3735    3.9599  -12.3502 C   0  0  0  0  0  0  0  0  0  0  0  0
    4.9771    2.5591  -12.5625 C   0  0  0  0  0  0  0  0  0  0  0  0
    5.6117    1.8740  -13.6994 C   0  0  0  0  0  0  0  0  0  0  0  0
    4.9967    0.7733  -14.2867 C   0  0  0  0  0  0  0  0  0  0  0  0
    5.6181    0.0717  -15.2886 C   0  0  0  0  0  0  0  0  0  0  0  0
    6.8580    0.4570  -15.7177 C   0  0  0  0  0  0  0  0  0  0  0  0
    7.4845    1.5507  -15.1463 C   0  0  0  0  0  0  0  0  0  0  0  0
    6.8486    2.2464  -14.1429 C   0  0  0  0  0  0  0  0  0  0  0  0
    7.2601   -0.4650  -16.7748 C   0  0  0  0  0  0  0  0  0  0  0  0
    8.3378   -0.4416  -17.4207 O   0  0  0  0  0  0  0  0  0  0  0  0
    6.2190   -1.4034  -16.9535 N   0  0  0  0  0  0  0  0  0  0  0  0
    6.2137   -2.1994  -17.6461 H   0  0  0  0  0  0  0  0  0  0  0  0
    5.1408   -1.1287  -16.0484 C   0  0  0  0  0  0  0  0  0  0  0  0
   11.2903    7.9975   -6.0059 C   0  0  0  0  0  0  0  0  0  0  0  0
   11.5290    9.0880   -6.8194 C   0  0  0  0  0  0  0  0  0  0  0  0
   11.1730    9.0568   -8.1695 C   0  0  0  0  0  0  0  0  0  0  0  0
   10.5776    7.9476   -8.7291 C   0  0  0  0  0  0  0  0  0  0  0  0
   10.2203    7.8724  -10.0143 N   0  0  0  0  0  0  0  0  0  0  0  0
    9.6390    6.7956  -10.5708 C   0  0  0  0  0  0  0  0  0  0  0  0
    9.3160    6.7876  -11.8266 N   0  0  0  0  0  0  0  0  0  0  0  0
    9.3909    5.7135   -9.8076 N   0  0  0  0  0  0  0  0  0  0  0  0
    8.9398    4.8721  -10.2296 H   0  0  0  0  0  0  0  0  0  0  0  0
    9.7419    5.7570   -8.4963 C   0  0  0  0  0  0  0  0  0  0  0  0
   10.3386    6.8570   -7.9170 C   0  0  0  0  0  0  0  0  0  0  0  0
   10.6937    6.8969   -6.5839 C   0  0  0  0  0  0  0  0  0  0  0  0
   12.3823    8.0784   -1.8811 C   0  0  0  0  0  0  0  0  0  0  0  0
   12.3856    9.2287   -2.6416 C   0  0  0  0  0  0  0  0  0  0  0  0
   12.0322    9.2122   -3.9824 C   0  0  0  0  0  0  0  0  0  0  0  0
   11.6689    8.0382   -4.5836 C   0  0  0  0  0  0  0  0  0  0  0  0
   11.6693    6.8898   -3.8101 C   0  0  0  0  0  0  0  0  0  0  0  0
   12.0161    6.8788   -2.4758 C   0  0  0  0  0  0  0  0  0  0  0  0
 32 33  2  0
 33 34  1  0
 34 35  2  0
 35 20  1  0
 20 21  1  0
 21 22  2  0
 22 23  1  0
 23 24  2  0
 24 25  1  0
 25 26  2  0
 26  1  1  0
  1  2  2  0
  2  3  1  0
  3  4  2  0
  4  5  1  0
  5  6  2  0
  5  7  1  0
  7  8  1  0
  8  9  1  0
  9 10  2  0
 10 11  1  0
 11 12  2  0
 12 13  1  0
 13 14  2  0
 12 15  1  0
 15 16  2  0
 15 17  1  0
 17 18  1  0
 17 19  1  0
 25 27  1  0
 27 28  1  0
 27 29  1  0
 29 30  2  0
 30 31  1  0
 35 36  1  0
 36 37  2  0
 37 32  1  0
 31 20  2  0
 30 23  1  0
  6  1  1  0
 14  9  1  0
 14  4  1  0
 19 11  1  0
M  END
>  <minimizedAffinity>  (836) 
-16.56394

$$$$
Mol: 136_39 - SminaDock
     RDKit          3D

 40 46  0  0  0  0  0  0  0  0999 V2000
    3.4979   -1.3865  -16.0744 H   0  0  0  0  0  0  0  0  0  0  0  0
    4.3700   -1.4603  -15.5837 O   0  0  0  0  0  0  0  0  0  0  0  0
    4.9990   -0.3189  -15.0973 C   0  0  0  0  0  0  0  0  0  0  0  0
    6.0711    0.2215  -15.7254 N   0  0  0  0  0  0  0  0  0  0  0  0
    6.6797    1.3342  -15.2464 C   0  0  0  0  0  0  0  0  0  0  0  0
    6.1747    1.8978  -14.0969 C   0  0  0  0  0  0  0  0  0  0  0  0
    5.0838    1.3667  -13.4406 C   0  0  0  0  0  0  0  0  0  0  0  0
    4.4724    0.2333  -13.9407 C   0  0  0  0  0  0  0  0  0  0  0  0
    6.9228    3.0446  -13.5738 C   0  0  0  0  0  0  0  0  0  0  0  0
    6.4047    3.7435  -12.5072 C   0  0  0  0  0  0  0  0  0  0  0  0
    6.9918    4.9214  -12.0218 C   0  0  0  0  0  0  0  0  0  0  0  0
    8.1232    5.3746  -12.6495 C   0  0  0  0  0  0  0  0  0  0  0  0
    8.6407    4.6759  -13.7124 C   0  0  0  0  0  0  0  0  0  0  0  0
    8.0698    3.4969  -14.2088 C   0  0  0  0  0  0  0  0  0  0  0  0
    8.7584    2.7587  -15.2986 C   0  0  2  0  0  0  0  0  0  0  0  0
    7.7728    1.8950  -16.0291 C   0  0  0  0  0  0  0  0  0  0  0  0
    9.7834    1.7778  -14.7100 C   0  0  0  0  0  0  0  0  0  0  0  0
   10.8460    2.6103  -14.0627 C   0  0  0  0  0  0  0  0  0  0  0  0
   11.5412    3.3542  -15.0304 N   0  0  0  0  0  0  0  0  0  0  0  0
   12.5452    3.1094  -15.1602 H   0  0  0  0  0  0  0  0  0  0  0  0
   10.8775    3.8605  -16.1546 C   0  0  0  0  0  0  0  0  0  0  0  0
    9.4280    3.6826  -16.2730 C   0  0  0  0  0  0  0  0  0  0  0  0
    8.7909    6.5763  -12.2205 N   0  0  0  0  0  0  0  0  0  0  0  0
    9.2032    6.6009  -10.9870 C   0  0  0  0  0  0  0  0  0  0  0  0
    9.0213    5.5635  -10.1452 N   0  0  0  0  0  0  0  0  0  0  0  0
    9.4574    5.6078   -8.8667 C   0  0  0  0  0  0  0  0  0  0  0  0
   10.1060    6.7242   -8.3823 C   0  0  0  0  0  0  0  0  0  0  0  0
   10.5663    6.8011   -7.0738 C   0  0  0  0  0  0  0  0  0  0  0  0
   11.2086    7.9308   -6.6267 C   0  0  0  0  0  0  0  0  0  0  0  0
   11.3742    8.9681   -7.5180 C   0  0  0  0  0  0  0  0  0  0  0  0
   10.9309    8.9212   -8.8152 C   0  0  0  0  0  0  0  0  0  0  0  0
   10.2817    7.7707   -9.2549 C   0  0  0  0  0  0  0  0  0  0  0  0
    9.8342    7.6879  -10.5171 N   0  0  0  0  0  0  0  0  0  0  0  0
    9.9637    8.4823  -11.1913 H   0  0  0  0  0  0  0  0  0  0  0  0
   11.6751    7.9687   -5.2486 C   0  0  0  0  0  0  0  0  0  0  0  0
   12.4214    8.9942   -4.7234 C   0  0  0  0  0  0  0  0  0  0  0  0
   12.8518    9.0027   -3.4061 C   0  0  0  0  0  0  0  0  0  0  0  0
   12.5324    7.9539   -2.5691 C   0  0  0  0  0  0  0  0  0  0  0  0
   11.7746    6.9013   -3.0829 C   0  0  0  0  0  0  0  0  0  0  0  0
   11.3577    6.9134   -4.3943 C   0  0  0  0  0  0  0  0  0  0  0  0
  1  2  1  0
  2  3  1  0
  3  4  2  0
  4  5  1  0
  5  6  2  0
  6  7  1  0
  7  8  2  0
  6  9  1  0
  9 10  2  0
 10 11  1  0
 11 12  2  0
 12 23  1  0
 23 24  2  0
 24 25  1  0
 25 26  2  0
 26 27  1  0
 27 28  2  0
 28 29  1  0
 29 35  1  0
 35 36  2  0
 36 37  1  0
 37 38  2  0
 38 39  1  0
 39 40  2  0
 29 30  2  0
 30 31  1  0
 31 32  2  0
 32 33  1  0
 33 34  1  0
 12 13  1  0
 13 14  2  0
 14 15  1  0
 15 16  1  6
 15 17  1  0
 17 18  1  0
 18 19  1  0
 19 20  1  0
 19 21  1  0
 21 22  1  0
  8  3  1  0
 14  9  1  0
 22 15  1  0
 16  5  1  0
 33 24  1  0
 32 27  1  0
 40 35  1  0
M  END
>  <minimizedAffinity>  (837) 
-16.59947

$$$$
Mol: 180_15 - SminaDock
     RDKit          3D

 38 44  0  0  0  0  0  0  0  0999 V2000
    2.4188   -1.9925  -14.1923 H   0  0  0  0  0  0  0  0  0  0  0  0
    2.6834   -1.0637  -13.9542 O   0  0  0  0  0  0  0  0  0  0  0  0
    3.8739   -0.4590  -14.3186 C   0  0  0  0  0  0  0  0  0  0  0  0
    4.6380   -0.9765  -15.3361 C   0  0  0  0  0  0  0  0  0  0  0  0
    5.8297   -0.3500  -15.6828 C   0  0  0  0  0  0  0  0  0  0  0  0
    6.2784    0.7892  -15.0321 C   0  0  0  0  0  0  0  0  0  0  0  0
    5.5038    1.2989  -14.0136 C   0  0  0  0  0  0  0  0  0  0  0  0
    4.3116    0.6750  -13.6642 C   0  0  0  0  0  0  0  0  0  0  0  0
    6.1631    2.4127  -13.5417 C   0  0  0  0  0  0  0  0  0  0  0  0
    7.3327    2.5701  -14.2779 C   0  0  0  0  0  0  0  0  0  0  0  0
    7.3766    1.5686  -15.1768 N   0  0  0  0  0  0  0  0  0  0  0  0
    8.1144    1.3797  -15.8905 H   0  0  0  0  0  0  0  0  0  0  0  0
    8.0512    3.7533  -13.7905 C   0  0  0  0  0  0  0  0  0  0  0  0
    9.2276    4.3661  -14.1382 C   0  0  0  0  0  0  0  0  0  0  0  0
    9.6748    5.5105  -13.4829 C   0  0  0  0  0  0  0  0  0  0  0  0
    8.9431    6.0692  -12.4541 C   0  0  0  0  0  0  0  0  0  0  0  0
    7.7500    5.4279  -12.1183 C   0  0  0  0  0  0  0  0  0  0  0  0
    7.3133    4.2989  -12.7684 C   0  0  0  0  0  0  0  0  0  0  0  0
    6.1056    3.4859  -12.5708 C   0  0  0  0  0  0  0  0  0  0  0  0
    5.1796    3.6623  -11.7279 O   0  0  0  0  0  0  0  0  0  0  0  0
    9.3510    7.2327  -11.7531 N   0  0  0  0  0  0  0  0  0  0  0  0
    9.7133    7.1986  -10.5103 C   0  0  0  0  0  0  0  0  0  0  0  0
    9.6921    6.0104   -9.8920 N   0  0  0  0  0  0  0  0  0  0  0  0
   10.0552    5.9169   -8.6112 C   0  0  0  0  0  0  0  0  0  0  0  0
   10.4518    7.0341   -7.9203 C   0  0  0  0  0  0  0  0  0  0  0  0
   10.8387    7.0183   -6.6043 C   0  0  0  0  0  0  0  0  0  0  0  0
   11.2417    8.1227   -5.8842 C   0  0  0  0  0  0  0  0  0  0  0  0
   11.2485    9.3327   -6.5643 C   0  0  0  0  0  0  0  0  0  0  0  0
   10.8726    9.4261   -7.8885 C   0  0  0  0  0  0  0  0  0  0  0  0
   10.4808    8.2854   -8.5495 C   0  0  0  0  0  0  0  0  0  0  0  0
   10.0992    8.2886   -9.8398 N   0  0  0  0  0  0  0  0  0  0  0  0
   10.1081    9.2154  -10.3485 H   0  0  0  0  0  0  0  0  0  0  0  0
   11.6455    8.0746   -4.4912 C   0  0  0  0  0  0  0  0  0  0  0  0
   11.6809    6.8903   -3.7931 C   0  0  0  0  0  0  0  0  0  0  0  0
   12.0706    6.8462   -2.4510 C   0  0  0  0  0  0  0  0  0  0  0  0
   12.4320    8.0040   -1.7918 C   0  0  0  0  0  0  0  0  0  0  0  0
   12.3970    9.1893   -2.4894 C   0  0  0  0  0  0  0  0  0  0  0  0
   12.0097    9.2208   -3.8172 C   0  0  0  0  0  0  0  0  0  0  0  0
  1  2  1  0
  2  3  1  0
  3  4  2  0
  4  5  1  0
  5  6  2  0
  6  7  1  0
  7  8  2  0
  7  9  1  0
  9 10  2  0
 10 11  1  0
 11 12  1  0
 10 13  1  0
 13 14  2  0
 14 15  1  0
 15 16  2  0
 16 21  1  0
 21 22  2  0
 22 23  1  0
 23 24  2  0
 24 25  1  0
 25 26  2  0
 26 27  1  0
 27 33  1  0
 33 34  2  0
 34 35  1  0
 35 36  2  0
 36 37  1  0
 37 38  2  0
 27 28  2  0
 28 29  1  0
 29 30  2  0
 30 31  1  0
 31 32  1  0
 16 17  1  0
 17 18  2  0
 18 19  1  0
 19 20  2  0
  8  3  1  0
 19  9  1  0
 11  6  1  0
 18 13  1  0
 31 22  1  0
 30 25  1  0
 38 33  1  0
M  END
>  <minimizedAffinity>  (838) 
-16.55217

$$$$
Mol: 180_2 - SminaDock
     RDKit          3D

 36 42  0  0  0  0  0  0  0  0999 V2000
   11.2224    7.9657   -6.2124 C   0  0  0  0  0  0  0  0  0  0  0  0
   11.4299    9.0301   -7.0652 C   0  0  0  0  0  0  0  0  0  0  0  0
   11.0421    8.9751   -8.3901 C   0  0  0  0  0  0  0  0  0  0  0  0
   10.4324    7.8606   -8.9212 C   0  0  0  0  0  0  0  0  0  0  0  0
   10.2202    6.7903   -8.0761 C   0  0  0  0  0  0  0  0  0  0  0  0
    9.6070    5.6823   -8.6287 C   0  0  0  0  0  0  0  0  0  0  0  0
    9.2374    5.6518   -9.9225 N   0  0  0  0  0  0  0  0  0  0  0  0
    9.4480    6.6999  -10.7392 C   0  0  0  0  0  0  0  0  0  0  0  0
    9.1007    6.6940  -11.9863 N   0  0  0  0  0  0  0  0  0  0  0  0
   10.0448    7.7833  -10.2098 N   0  0  0  0  0  0  0  0  0  0  0  0
   10.2458    8.6513  -10.7899 H   0  0  0  0  0  0  0  0  0  0  0  0
   10.6111    6.8533   -6.7526 C   0  0  0  0  0  0  0  0  0  0  0  0
    8.4813    5.5380  -12.4851 C   0  0  0  0  0  0  0  0  0  0  0  0
    7.1509    5.3092  -12.2334 C   0  0  0  0  0  0  0  0  0  0  0  0
    6.5031    4.1823  -12.7068 C   0  0  0  0  0  0  0  0  0  0  0  0
    7.2302    3.2820  -13.4461 C   0  0  0  0  0  0  0  0  0  0  0  0
    8.5872    3.4832  -13.7217 C   0  0  0  0  0  0  0  0  0  0  0  0
    9.1971    4.6386  -13.2206 C   0  0  0  0  0  0  0  0  0  0  0  0
    9.1381    2.3882  -14.5244 C   0  0  0  0  0  0  0  0  0  0  0  0
    7.9631    1.4990  -14.7054 C   0  0  0  0  0  0  0  0  0  0  0  0
    6.8504    2.0229  -14.0750 C   0  0  0  0  0  0  0  0  0  0  0  0
    5.6182    1.3589  -14.1072 C   0  0  0  0  0  0  0  0  0  0  0  0
    5.5030    0.1730  -14.7699 C   0  0  0  0  0  0  0  0  0  0  0  0
    4.4409   -0.7014  -14.9750 C   0  0  0  0  0  0  0  0  0  0  0  0
    3.0574   -0.4885  -14.4486 C   0  0  0  0  0  0  0  0  0  0  0  0
    4.9221   -1.7052  -15.7039 N   0  0  0  0  0  0  0  0  0  0  0  0
    4.3587   -2.5387  -16.0297 H   0  0  0  0  0  0  0  0  0  0  0  0
    6.2023   -1.5121  -15.9619 N   0  0  0  0  0  0  0  0  0  0  0  0
    6.6150   -0.3554  -15.4027 C   0  0  0  0  0  0  0  0  0  0  0  0
    7.8430    0.2991  -15.3749 C   0  0  0  0  0  0  0  0  0  0  0  0
   12.4086    8.0824   -2.0962 C   0  0  0  0  0  0  0  0  0  0  0  0
   12.0446    6.9006   -2.7070 C   0  0  0  0  0  0  0  0  0  0  0  0
   11.6642    6.8744   -4.0342 C   0  0  0  0  0  0  0  0  0  0  0  0
   11.6286    8.0153   -4.8100 C   0  0  0  0  0  0  0  0  0  0  0  0
   11.9931    9.1924   -4.1948 C   0  0  0  0  0  0  0  0  0  0  0  0
   12.3769    9.2298   -2.8616 C   0  0  0  0  0  0  0  0  0  0  0  0
 31 32  2  0
 32 33  1  0
 33 34  2  0
 34  1  1  0
  1  2  2  0
  2  3  1  0
  3  4  2  0
  4  5  1  0
  5  6  1  0
  6  7  2  0
  7  8  1  0
  8  9  2  0
  9 13  1  0
 13 14  2  0
 14 15  1  0
 15 16  2  0
 16 17  1  0
 17 18  2  0
 17 19  1  0
 19 20  1  0
 20 21  1  0
 21 22  2  0
 22 23  1  0
 23 24  2  0
 24 25  1  0
 24 26  1  0
 26 27  1  0
 26 28  1  0
 28 29  2  0
 29 30  1  0
  8 10  1  0
 10 11  1  0
  5 12  2  0
 34 35  1  0
 35 36  2  0
 36 31  1  0
 12  1  1  0
 10  4  1  0
 18 13  1  0
 30 20  2  0
 21 16  1  0
 29 23  1  0
M  END
>  <minimizedAffinity>  (839) 
-16.55221

$$$$
Mol: 136_30 - SminaDock
     RDKit          3D

 42 48  0  0  0  0  0  0  0  0999 V2000
    9.9896   -0.7953  -18.0229 C   0  0  0  0  0  0  0  0  0  0  0  0
   10.7155    0.4389  -17.6359 C   0  0  0  0  0  0  0  0  0  0  0  0
   11.5307    1.1125  -18.5485 C   0  0  0  0  0  0  0  0  0  0  0  0
   12.2351    2.2510  -18.2336 C   0  0  0  0  0  0  0  0  0  0  0  0
   12.1271    2.7461  -16.9518 C   0  0  0  0  0  0  0  0  0  0  0  0
   11.3297    2.1015  -16.0300 C   0  0  0  0  0  0  0  0  0  0  0  0
   10.6175    0.9440  -16.3652 C   0  0  0  0  0  0  0  0  0  0  0  0
    9.7253    0.1645  -15.5066 C   0  0  0  0  0  0  0  0  0  0  0  0
    8.5284    0.9697  -15.1451 C   0  0  2  0  0  0  0  0  0  0  0  0
    7.6020    0.1942  -14.3012 N   0  0  0  0  0  0  0  0  0  0  0  0
    6.7103   -0.4519  -15.1915 C   0  0  0  0  0  0  0  0  0  0  0  0
    5.9043   -1.5714  -14.9054 O   0  0  0  0  0  0  0  0  0  0  0  0
    6.7251    0.1347  -16.3503 N   0  0  0  0  0  0  0  0  0  0  0  0
    7.6316    1.2232  -16.3254 C   0  0  0  0  0  0  0  0  0  0  0  0
    7.6369    2.1719  -17.1430 O   0  0  0  0  0  0  0  0  0  0  0  0
    8.7911    2.2394  -14.4452 C   0  0  0  0  0  0  0  0  0  0  0  0
    7.5904    2.7258  -13.9032 C   0  0  0  0  0  0  0  0  0  0  0  0
    7.5710    3.9042  -13.2053 C   0  0  0  0  0  0  0  0  0  0  0  0
    8.7145    4.6507  -13.0088 C   0  0  0  0  0  0  0  0  0  0  0  0
    9.9035    4.1631  -13.5491 C   0  0  0  0  0  0  0  0  0  0  0  0
    9.9207    2.9683  -14.2564 C   0  0  0  0  0  0  0  0  0  0  0  0
   11.3211    2.7158  -14.6952 C   0  0  0  0  0  0  0  0  0  0  0  0
    7.6146    0.1424  -13.2461 H   0  0  0  0  0  0  0  0  0  0  0  0
    4.9815   -1.6794  -15.3179 H   0  0  0  0  0  0  0  0  0  0  0  0
    8.7443    5.8599  -12.2852 N   0  0  0  0  0  0  0  0  0  0  0  0
    8.4491    6.7219  -12.8236 H   0  0  0  0  0  0  0  0  0  0  0  0
    9.1229    5.9936  -10.9382 C   0  0  0  0  0  0  0  0  0  0  0  0
    8.7350    5.2034   -9.9416 N   0  0  0  0  0  0  0  0  0  0  0  0
    9.1029    5.3456   -8.6725 C   0  0  0  0  0  0  0  0  0  0  0  0
    9.9601    6.4066   -8.3739 C   0  0  0  0  0  0  0  0  0  0  0  0
   10.3770    6.6040   -7.0694 C   0  0  0  0  0  0  0  0  0  0  0  0
   11.2249    7.6477   -6.7597 C   0  0  0  0  0  0  0  0  0  0  0  0
   11.6352    8.4713   -7.7705 C   0  0  0  0  0  0  0  0  0  0  0  0
   11.2188    8.2784   -9.0887 C   0  0  0  0  0  0  0  0  0  0  0  0
   10.3666    7.2264   -9.3883 C   0  0  0  0  0  0  0  0  0  0  0  0
    9.9715    7.0402  -10.6322 N   0  0  0  0  0  0  0  0  0  0  0  0
   11.6459    7.8347   -5.3892 C   0  0  0  0  0  0  0  0  0  0  0  0
   12.3554    8.9640   -5.0102 C   0  0  0  0  0  0  0  0  0  0  0  0
   12.7439    9.1222   -3.7082 C   0  0  0  0  0  0  0  0  0  0  0  0
   12.4449    8.1797   -2.7572 C   0  0  0  0  0  0  0  0  0  0  0  0
   11.7389    7.0435   -3.1043 C   0  0  0  0  0  0  0  0  0  0  0  0
   11.3571    6.9081   -4.4307 C   0  0  0  0  0  0  0  0  0  0  0  0
  1  2  1  0
  2  3  2  0
  3  4  1  0
  4  5  2  0
  5  6  1  0
  6  7  2  0
  7  8  1  0
  9  8  1  6
  9 10  1  0
 10 11  1  0
 11 12  1  0
 11 13  2  0
 13 14  1  0
 14 15  2  0
  9 16  1  0
 16 17  2  0
 17 18  1  0
 18 19  2  0
 19 25  1  0
 25 27  1  0
 27 28  2  0
 28 29  1  0
 29 30  2  0
 30 31  1  0
 31 32  2  0
 32 37  1  0
 37 38  2  0
 38 39  1  0
 39 40  2  0
 40 41  1  0
 41 42  2  0
 32 33  1  0
 33 34  2  0
 34 35  1  0
 35 36  2  0
 19 20  1  0
 20 21  2  0
 21 22  1  0
  7  2  1  0
 14  9  1  0
 21 16  1  0
 22  6  1  0
 36 27  1  0
 35 30  1  0
 42 37  1  0
 10 23  1  0
 12 24  1  0
 25 26  1  0
M  END
>  <minimizedAffinity>  (840) 
-16.61488

$$$$
Mol: 148_39 - SminaDock
     RDKit          3D

 37 43  0  0  0  0  0  0  0  0999 V2000
    8.4677    5.6064  -12.3402 C   0  0  0  0  0  0  0  0  0  0  0  0
    7.1003    5.4103  -12.1727 C   0  0  0  0  0  0  0  0  0  0  0  0
    6.4645    4.3023  -12.7468 C   0  0  0  0  0  0  0  0  0  0  0  0
    7.2440    3.4413  -13.4639 C   0  0  0  0  0  0  0  0  0  0  0  0
    8.6153    3.6400  -13.6338 C   0  0  0  0  0  0  0  0  0  0  0  0
    9.2299    4.7011  -13.0854 C   0  0  0  0  0  0  0  0  0  0  0  0
    9.4799    2.7256  -14.4755 C   0  0  0  0  0  0  0  0  0  0  0  0
    8.8463    2.8120  -15.7918 N   0  0  0  0  0  0  0  0  0  0  0  0
    9.5727    2.8187  -16.5131 H   0  0  0  0  0  0  0  0  0  0  0  0
    7.9023    1.7998  -16.0863 C   0  0  0  0  0  0  0  0  0  0  0  0
    6.7792    1.6401  -15.1403 C   0  0  0  0  0  0  0  0  0  0  0  0
    6.4695    2.3245  -13.9725 C   0  0  0  0  0  0  0  0  0  0  0  0
    5.4003    2.0318  -13.1788 C   0  0  0  0  0  0  0  0  0  0  0  0
    4.5895    0.9900  -13.5833 C   0  0  0  0  0  0  0  0  0  0  0  0
    4.8581    0.2735  -14.7495 C   0  0  0  0  0  0  0  0  0  0  0  0
    5.9543    0.6084  -15.5168 C   0  0  0  0  0  0  0  0  0  0  0  0
    6.0409   -0.2837  -16.7013 C   0  0  0  0  0  0  0  0  0  0  0  0
    4.8585   -1.1976  -16.6245 C   0  0  0  0  0  0  0  0  0  0  0  0
    4.1318   -0.8666  -15.3666 C   0  0  0  0  0  0  0  0  0  0  0  0
   11.2863    7.9490   -6.0884 C   0  0  0  0  0  0  0  0  0  0  0  0
   11.6003    9.0057   -6.9031 C   0  0  0  0  0  0  0  0  0  0  0  0
   11.2332    8.9711   -8.2298 C   0  0  0  0  0  0  0  0  0  0  0  0
   10.5470    7.8506   -8.7060 C   0  0  0  0  0  0  0  0  0  0  0  0
   10.2432    6.7988   -7.8620 C   0  0  0  0  0  0  0  0  0  0  0  0
    9.5574    5.7090   -8.3963 C   0  0  0  0  0  0  0  0  0  0  0  0
    9.2152    5.7106   -9.6978 N   0  0  0  0  0  0  0  0  0  0  0  0
    9.5085    6.7304  -10.5213 C   0  0  0  0  0  0  0  0  0  0  0  0
    9.1640    6.7057  -11.7827 N   0  0  0  0  0  0  0  0  0  0  0  0
   10.1686    7.7743   -9.9976 N   0  0  0  0  0  0  0  0  0  0  0  0
   10.3882    8.5651  -10.6662 H   0  0  0  0  0  0  0  0  0  0  0  0
   10.6107    6.8381   -6.5425 C   0  0  0  0  0  0  0  0  0  0  0  0
   12.4261    8.0661   -2.0241 C   0  0  0  0  0  0  0  0  0  0  0  0
   12.0729    6.8720   -2.5985 C   0  0  0  0  0  0  0  0  0  0  0  0
   11.6990    6.8295   -3.9290 C   0  0  0  0  0  0  0  0  0  0  0  0
   11.6803    7.9986   -4.6881 C   0  0  0  0  0  0  0  0  0  0  0  0
   12.0402    9.2000   -4.0938 C   0  0  0  0  0  0  0  0  0  0  0  0
   12.4122    9.2354   -2.7658 C   0  0  0  0  0  0  0  0  0  0  0  0
 32 33  2  0
 33 34  1  0
 34 35  2  0
 35 20  1  0
 20 21  2  0
 21 22  1  0
 22 23  2  0
 23 24  1  0
 24 25  1  0
 25 26  2  0
 26 27  1  0
 27 28  2  0
 28  1  1  0
  1  2  2  0
  2  3  1  0
  3  4  2  0
  4  5  1  0
  5  6  2  0
  5  7  1  0
  7  8  1  0
  8  9  1  0
  8 10  1  0
 10 11  1  0
 11 12  2  0
 12 13  1  0
 13 14  2  0
 14 15  1  0
 15 16  2  0
 16 17  1  0
 17 18  1  0
 18 19  1  0
 27 29  1  0
 29 30  1  0
 24 31  2  0
 35 36  1  0
 36 37  2  0
 37 32  1  0
 31 20  1  0
 29 23  1  0
  6  1  1  0
 16 11  1  0
 12  4  1  0
 19 15  1  0
M  END
>  <minimizedAffinity>  (841) 
-16.56347

$$$$
Mol: 148_43 - SminaDock
     RDKit          3D

 43 50  0  0  0  0  0  0  0  0999 V2000
    8.5278    5.6331  -12.6196 C   0  0  0  0  0  0  0  0  0  0  0  0
    7.2404    5.1982  -12.3932 C   0  0  0  0  0  0  0  0  0  0  0  0
    6.7631    4.1212  -13.0745 C   0  0  0  0  0  0  0  0  0  0  0  0
    7.5735    3.4598  -13.9985 C   0  0  0  0  0  0  0  0  0  0  0  0
    8.8578    3.8750  -14.2400 C   0  0  0  0  0  0  0  0  0  0  0  0
    9.3337    4.9597  -13.5515 C   0  0  0  0  0  0  0  0  0  0  0  0
    9.6792    3.1616  -15.2152 C   0  0  0  0  0  0  0  0  0  0  0  0
   10.6767    3.8295  -15.9192 C   0  0  0  0  0  0  0  0  0  0  0  0
   11.4820    3.2136  -16.8516 C   0  0  0  0  0  0  0  0  0  0  0  0
   11.2692    1.8502  -17.0858 C   0  0  0  0  0  0  0  0  0  0  0  0
   10.2963    1.1622  -16.4052 C   0  0  0  0  0  0  0  0  0  0  0  0
    9.5131    1.8361  -15.4777 C   0  0  0  0  0  0  0  0  0  0  0  0
   10.1471   -0.2874  -16.5659 C   0  0  0  0  0  0  0  0  0  0  0  0
   10.5265   -0.7883  -17.8970 C   0  0  0  0  0  0  0  0  0  0  0  0
   11.7113   -0.1518  -18.4761 C   0  0  0  0  0  0  0  0  0  0  0  0
   12.5113   -0.7850  -19.4122 C   0  0  0  0  0  0  0  0  0  0  0  0
   13.5686   -0.1510  -20.0194 C   0  0  0  0  0  0  0  0  0  0  0  0
   13.8635    1.1527  -19.7060 C   0  0  0  0  0  0  0  0  0  0  0  0
   13.0680    1.8163  -18.7581 C   0  0  0  0  0  0  0  0  0  0  0  0
   12.0135    1.1571  -18.1619 C   0  0  0  0  0  0  0  0  0  0  0  0
   15.0023    1.7939  -20.3797 C   0  0  0  0  0  0  0  0  0  0  0  0
   16.1613    0.8475  -20.5894 C   0  0  0  0  0  0  0  0  0  0  0  0
   15.7426   -0.4972  -21.0749 C   0  0  0  0  0  0  0  0  0  0  0  0
   14.3804   -0.7696  -20.9591 O   0  0  0  0  0  0  0  0  0  0  0  0
   11.0591    7.8770   -6.1423 C   0  0  0  0  0  0  0  0  0  0  0  0
   11.1613    9.0277   -6.9012 C   0  0  0  0  0  0  0  0  0  0  0  0
   10.7657    9.0026   -8.2245 C   0  0  0  0  0  0  0  0  0  0  0  0
   10.2657    7.8411   -8.8106 C   0  0  0  0  0  0  0  0  0  0  0  0
   10.1653    6.6985   -8.0529 C   0  0  0  0  0  0  0  0  0  0  0  0
    9.6687    5.5510   -8.6423 C   0  0  0  0  0  0  0  0  0  0  0  0
    9.2915    5.5736   -9.9516 N   0  0  0  0  0  0  0  0  0  0  0  0
    9.3895    6.6821  -10.6843 C   0  0  0  0  0  0  0  0  0  0  0  0
    9.0477    6.7546  -11.9226 N   0  0  0  0  0  0  0  0  0  0  0  0
    9.8799    7.8063  -10.0935 N   0  0  0  0  0  0  0  0  0  0  0  0
    9.9540    8.6684  -10.6711 H   0  0  0  0  0  0  0  0  0  0  0  0
   10.5663    6.7448   -6.7310 C   0  0  0  0  0  0  0  0  0  0  0  0
   12.3286    7.9929   -2.0685 C   0  0  0  0  0  0  0  0  0  0  0  0
   12.2111    6.8177   -2.7860 C   0  0  0  0  0  0  0  0  0  0  0  0
   11.8059    6.7670   -4.0908 C   0  0  0  0  0  0  0  0  0  0  0  0
   11.4884    7.9573   -4.7543 C   0  0  0  0  0  0  0  0  0  0  0  0
   11.5955    9.1467   -4.0659 C   0  0  0  0  0  0  0  0  0  0  0  0
   11.1974   10.6380   -4.8961 Cl  0  0  0  0  0  0  0  0  0  0  0  0
   12.0099    9.1544   -2.7444 C   0  0  0  0  0  0  0  0  0  0  0  0
 37 38  2  0
 38 39  1  0
 39 40  2  0
 40 25  1  0
 25 26  2  0
 26 27  1  0
 27 28  2  0
 28 29  1  0
 29 30  1  0
 30 31  2  0
 31 32  1  0
 32 33  2  0
 33  1  1  0
  1  2  2  0
  2  3  1  0
  3  4  2  0
  4  5  1  0
  5  7  1  0
  7  8  2  0
  8  9  1  0
  9 10  2  0
 10 11  1  0
 11 12  2  0
 11 13  1  0
 13 14  1  0
 14 15  1  0
 15 16  2  0
 16 17  1  0
 17 18  2  0
 18 19  1  0
 19 20  2  0
 18 21  1  0
 21 22  1  0
 22 23  1  0
 23 24  1  0
  5  6  2  0
 32 34  1  0
 34 35  1  0
 29 36  2  0
 40 41  1  0
 41 42  1  0
 41 43  2  0
 43 37  1  0
 36 25  1  0
 34 28  1  0
  6  1  1  0
 12  7  1  0
 20 15  1  0
 20 10  1  0
 24 17  1  0
M  END
>  <minimizedAffinity>  (842) 
-16.60557

$$$$
Mol: 193_41 - SminaDock
     RDKit          3D

 39 45  0  0  0  0  0  0  0  0999 V2000
    2.2366   -0.4377  -13.5693 H   0  0  0  0  0  0  0  0  0  0  0  0
    2.8706    0.2180  -14.0027 O   0  0  0  0  0  0  0  0  0  0  0  0
    4.0179   -0.1888  -14.6704 C   0  0  0  0  0  0  0  0  0  0  0  0
    4.0415   -1.2503  -15.4149 N   0  0  0  0  0  0  0  0  0  0  0  0
    5.3346   -1.4067  -15.9580 C   0  0  0  0  0  0  0  0  0  0  0  0
    5.7016   -2.3266  -16.7197 O   0  0  0  0  0  0  0  0  0  0  0  0
    6.1517   -0.3036  -15.4670 C   0  0  0  0  0  0  0  0  0  0  0  0
    7.4442    0.1066  -15.6167 C   0  0  0  0  0  0  0  0  0  0  0  0
    7.9923    1.2329  -15.0195 C   0  0  0  0  0  0  0  0  0  0  0  0
    7.1373    1.9778  -14.2153 C   0  0  0  0  0  0  0  0  0  0  0  0
    5.8258    1.5918  -14.0423 C   0  0  0  0  0  0  0  0  0  0  0  0
    5.3263    0.4632  -14.6575 C   0  0  0  0  0  0  0  0  0  0  0  0
    7.6842    3.1655  -13.5752 C   0  0  0  0  0  0  0  0  0  0  0  0
    6.9066    3.9560  -12.7653 C   0  0  0  0  0  0  0  0  0  0  0  0
    7.3964    5.1102  -12.1293 C   0  0  0  0  0  0  0  0  0  0  0  0
    8.6888    5.4579  -12.3226 C   0  0  0  0  0  0  0  0  0  0  0  0
    9.4892    4.6860  -13.1272 C   0  0  0  0  0  0  0  0  0  0  0  0
    9.0067    3.5499  -13.7534 C   0  0  0  0  0  0  0  0  0  0  0  0
    9.9484    2.8023  -14.5888 C   0  0  0  0  0  0  0  0  0  0  0  0
    9.3687    1.6134  -15.2182 C   0  0  0  0  0  0  0  0  0  0  0  0
   10.1085    0.9106  -15.9541 O   0  0  0  0  0  0  0  0  0  0  0  0
    9.2157    6.6136  -11.6985 N   0  0  0  0  0  0  0  0  0  0  0  0
    9.5675    6.6326  -10.4583 C   0  0  0  0  0  0  0  0  0  0  0  0
    9.4496    5.5099   -9.6517 C   0  0  0  0  0  0  0  0  0  0  0  0
    9.8338    5.5560   -8.3253 C   0  0  0  0  0  0  0  0  0  0  0  0
   10.3416    6.7194   -7.7790 C   0  0  0  0  0  0  0  0  0  0  0  0
   10.7321    6.7732   -6.4388 C   0  0  0  0  0  0  0  0  0  0  0  0
   11.2364    7.9420   -5.9113 C   0  0  0  0  0  0  0  0  0  0  0  0
   11.3338    9.0354   -6.7593 C   0  0  0  0  0  0  0  0  0  0  0  0
   10.9454    8.9734   -8.0830 C   0  0  0  0  0  0  0  0  0  0  0  0
   10.4423    7.8105   -8.6125 C   0  0  0  0  0  0  0  0  0  0  0  0
   10.0639    7.7533   -9.9061 N   0  0  0  0  0  0  0  0  0  0  0  0
   10.1407    8.5884  -10.5446 H   0  0  0  0  0  0  0  0  0  0  0  0
   11.6566    8.0485   -4.5236 C   0  0  0  0  0  0  0  0  0  0  0  0
   12.0122    9.2653   -4.0099 C   0  0  0  0  0  0  0  0  0  0  0  0
   12.4130    9.3458   -2.6749 C   0  0  0  0  0  0  0  0  0  0  0  0
   12.4519    8.2217   -1.8827 C   0  0  0  0  0  0  0  0  0  0  0  0
   12.0978    7.0086   -2.3941 C   0  0  0  0  0  0  0  0  0  0  0  0
   11.7011    6.9328   -3.7174 C   0  0  0  0  0  0  0  0  0  0  0  0
  1  2  1  0
  2  3  1  0
  3  4  2  0
  4  5  1  0
  5  6  2  0
  5  7  1  0
  7  8  2  0
  8  9  1  0
  9 10  2  0
 10 11  1  0
 11 12  2  0
 10 13  1  0
 13 14  2  0
 14 15  1  0
 15 16  2  0
 16 22  1  0
 22 23  2  0
 23 24  1  0
 24 25  2  0
 25 26  1  0
 26 27  2  0
 27 28  1  0
 28 34  1  0
 34 35  2  0
 35 36  1  0
 36 37  2  0
 37 38  1  0
 38 39  2  0
 28 29  2  0
 29 30  1  0
 30 31  2  0
 31 32  1  0
 32 33  1  0
 16 17  1  0
 17 18  2  0
 18 19  1  0
 19 20  1  0
 20 21  2  0
 12  3  1  0
 18 13  1  0
 12  7  1  0
 32 23  1  0
 20  9  1  0
 31 26  1  0
 39 34  1  0
M  END
>  <minimizedAffinity>  (843) 
-16.64653

$$$$
Mol: 177_55 - SminaDock
     RDKit          3D

 38 44  0  0  0  0  0  0  0  0999 V2000
    8.4532    5.5866  -12.3113 C   0  0  0  0  0  0  0  0  0  0  0  0
    7.1581    5.3467  -11.9441 C   0  0  0  0  0  0  0  0  0  0  0  0
    6.4410    4.2537  -12.3863 C   0  0  0  0  0  0  0  0  0  0  0  0
    7.0508    3.3630  -13.2339 C   0  0  0  0  0  0  0  0  0  0  0  0
    8.3584    3.5576  -13.6360 C   0  0  0  0  0  0  0  0  0  0  0  0
    9.0542    4.6879  -13.1604 C   0  0  0  0  0  0  0  0  0  0  0  0
    9.0036    2.6198  -14.5120 C   0  0  0  0  0  0  0  0  0  0  0  0
   10.2434    2.8485  -14.7590 O   0  0  0  0  0  0  0  0  0  0  0  0
    8.3210    1.4737  -15.0974 C   0  0  0  0  0  0  0  0  0  0  0  0
    6.9464    1.3012  -14.6167 C   0  0  0  0  0  0  0  0  0  0  0  0
    6.3358    2.1780  -13.7584 C   0  0  0  0  0  0  0  0  0  0  0  0
    5.0230    1.9408  -13.3649 C   0  0  0  0  0  0  0  0  0  0  0  0
    4.3317    0.8343  -13.8284 C   0  0  0  0  0  0  0  0  0  0  0  0
    4.9698   -0.0393  -14.6956 C   0  0  0  0  0  0  0  0  0  0  0  0
    4.5791   -1.1825  -15.3112 N   0  0  0  0  0  0  0  0  0  0  0  0
    5.5828   -1.6624  -16.0641 C   0  0  0  0  0  0  0  0  0  0  0  0
    5.6147   -2.6933  -16.7820 O   0  0  0  0  0  0  0  0  0  0  0  0
    6.6297   -0.8315  -15.9398 N   0  0  0  0  0  0  0  0  0  0  0  0
    7.5570   -0.9313  -16.4005 H   0  0  0  0  0  0  0  0  0  0  0  0
    6.2661    0.1688  -15.1023 C   0  0  0  0  0  0  0  0  0  0  0  0
   11.2214    7.9372   -6.0883 C   0  0  0  0  0  0  0  0  0  0  0  0
   11.5110    8.9646   -6.9663 C   0  0  0  0  0  0  0  0  0  0  0  0
   11.1531    8.9295   -8.2974 C   0  0  0  0  0  0  0  0  0  0  0  0
   10.4749    7.8312   -8.8010 C   0  0  0  0  0  0  0  0  0  0  0  0
   10.1890    6.8097   -7.9202 C   0  0  0  0  0  0  0  0  0  0  0  0
    9.5080    5.7124   -8.4363 C   0  0  0  0  0  0  0  0  0  0  0  0
    9.1817    5.7278   -9.7422 N   0  0  0  0  0  0  0  0  0  0  0  0
    9.4750    6.7383  -10.5727 C   0  0  0  0  0  0  0  0  0  0  0  0
    9.1483    6.7278  -11.8278 N   0  0  0  0  0  0  0  0  0  0  0  0
   10.1321    7.8105  -10.1012 N   0  0  0  0  0  0  0  0  0  0  0  0
   10.3642    8.6073  -10.7524 H   0  0  0  0  0  0  0  0  0  0  0  0
   10.5465    6.8440   -6.5889 C   0  0  0  0  0  0  0  0  0  0  0  0
   12.3613    8.0339   -1.9937 C   0  0  0  0  0  0  0  0  0  0  0  0
   12.3027    9.2007   -2.7233 C   0  0  0  0  0  0  0  0  0  0  0  0
   11.9340    9.1866   -4.0558 C   0  0  0  0  0  0  0  0  0  0  0  0
   11.6205    8.0120   -4.6735 C   0  0  0  0  0  0  0  0  0  0  0  0
   11.6870    6.8458   -3.9156 C   0  0  0  0  0  0  0  0  0  0  0  0
   12.0516    6.8462   -2.5922 C   0  0  0  0  0  0  0  0  0  0  0  0
 33 34  2  0
 34 35  1  0
 35 36  2  0
 36 21  1  0
 21 22  2  0
 22 23  1  0
 23 24  2  0
 24 25  1  0
 25 26  1  0
 26 27  2  0
 27 28  1  0
 28 29  2  0
 29  1  1  0
  1  2  2  0
  2  3  1  0
  3  4  2  0
  4  5  1  0
  5  6  2  0
  5  7  1  0
  7  8  2  0
  7  9  1  0
  9 10  1  0
 10 11  2  0
 11 12  1  0
 12 13  2  0
 13 14  1  0
 14 15  1  0
 15 16  1  0
 16 17  2  0
 16 18  1  0
 18 19  1  0
 18 20  1  0
 28 30  1  0
 30 31  1  0
 25 32  2  0
 36 37  1  0
 37 38  2  0
 38 33  1  0
 32 21  1  0
 30 24  1  0
  6  1  1  0
 20 10  1  0
 11  4  1  0
 20 14  2  0
M  CHG  1  15  -1
M  END
>  <minimizedAffinity>  (844) 
-16.56131

$$$$
Mol: 191_9 - SminaDock
     RDKit          3D

 40 46  0  0  0  0  0  0  0  0999 V2000
    8.5709    5.5328  -12.5108 C   0  0  0  0  0  0  0  0  0  0  0  0
    9.0888    4.9550  -13.6629 C   0  0  0  0  0  0  0  0  0  0  0  0
    8.4501    3.8736  -14.2501 C   0  0  0  0  0  0  0  0  0  0  0  0
    7.2955    3.3550  -13.7039 C   0  0  0  0  0  0  0  0  0  0  0  0
    6.7920    3.9326  -12.5665 C   0  0  0  0  0  0  0  0  0  0  0  0
    7.4172    5.0212  -11.9579 C   0  0  0  0  0  0  0  0  0  0  0  0
    5.5689    3.1948  -12.1981 C   0  0  0  0  0  0  0  0  0  0  0  0
    5.3951    2.1438  -13.2059 C   0  0  0  0  0  0  0  0  0  0  0  0
    6.4356    2.2475  -14.1048 C   0  0  0  0  0  0  0  0  0  0  0  0
    6.4567    1.3349  -15.1476 C   0  0  0  0  0  0  0  0  0  0  0  0
    5.5081    0.3500  -15.3254 C   0  0  0  0  0  0  0  0  0  0  0  0
    5.3046   -0.6501  -16.2476 C   0  0  0  0  0  0  0  0  0  0  0  0
    4.1857   -1.2880  -15.8712 N   0  0  0  0  0  0  0  0  0  0  0  0
    3.8125   -2.1048  -16.4227 H   0  0  0  0  0  0  0  0  0  0  0  0
    3.6950   -0.7345  -14.7720 N   0  0  0  0  0  0  0  0  0  0  0  0
    4.4748    0.2869  -14.3880 C   0  0  0  0  0  0  0  0  0  0  0  0
    4.4191    1.1692  -13.3452 C   0  0  0  0  0  0  0  0  0  0  0  0
   11.2301    7.7859   -6.0621 C   0  0  0  0  0  0  0  0  0  0  0  0
   11.5063    8.8463   -6.9082 C   0  0  0  0  0  0  0  0  0  0  0  0
   11.1517    8.8076   -8.2446 C   0  0  0  0  0  0  0  0  0  0  0  0
   10.5092    7.7012   -8.7683 C   0  0  0  0  0  0  0  0  0  0  0  0
   10.2247    6.6310   -7.9372 C   0  0  0  0  0  0  0  0  0  0  0  0
   10.5885    6.6938   -6.6074 C   0  0  0  0  0  0  0  0  0  0  0  0
    9.5822    5.5396   -8.4907 C   0  0  0  0  0  0  0  0  0  0  0  0
    9.2434    5.5441   -9.8466 C   0  0  0  0  0  0  0  0  0  0  0  0
    9.5421    6.6270  -10.6452 C   0  0  0  0  0  0  0  0  0  0  0  0
    9.2298    6.6383  -11.9137 N   0  0  0  0  0  0  0  0  0  0  0  0
   10.1681    7.6738  -10.0749 N   0  0  0  0  0  0  0  0  0  0  0  0
   10.4057    8.5117  -10.6668 H   0  0  0  0  0  0  0  0  0  0  0  0
   12.3927    8.0555   -1.9510 C   0  0  0  0  0  0  0  0  0  0  0  0
   12.0551    6.8409   -2.5087 C   0  0  0  0  0  0  0  0  0  0  0  0
   11.6792    6.7585   -3.8414 C   0  0  0  0  0  0  0  0  0  0  0  0
   11.6260    7.8781   -4.6644 C   0  0  0  0  0  0  0  0  0  0  0  0
   11.9671    9.0837   -4.0896 C   0  0  0  0  0  0  0  0  0  0  0  0
   12.3429    9.1697   -2.7593 C   0  0  0  0  0  0  0  0  0  0  0  0
    6.1724   -0.9137  -17.3881 C   0  0  0  0  0  0  0  0  0  0  0  0
    6.6608   -2.0653  -17.5654 O   0  0  0  0  0  0  0  0  0  0  0  0
    6.5131    0.0725  -18.3405 N   0  0  0  0  0  0  0  0  0  0  0  0
    7.3939    0.5997  -18.2401 H   0  0  0  0  0  0  0  0  0  0  0  0
    5.8734    0.2548  -19.1291 H   0  0  0  0  0  0  0  0  0  0  0  0
 30 31  2  0
 31 32  1  0
 32 33  2  0
 33 18  1  0
 18 19  2  0
 19 20  1  0
 20 21  2  0
 21 22  1  0
 22 23  2  0
 22 24  1  0
 24 25  2  0
 25 26  1  0
 26 27  2  0
 27  1  1  0
  1  2  2  0
  2  3  1  0
  3  4  2  0
  4  5  1  0
  5  6  2  0
  5  7  1  0
  7  8  1  0
  8  9  1  0
  9 10  2  0
 10 11  1  0
 11 12  2  0
 12 36  1  0
 36 37  2  0
 36 38  1  0
 38 39  1  0
 38 40  1  0
 12 13  1  0
 13 14  1  0
 13 15  1  0
 15 16  2  0
 16 17  1  0
 26 28  1  0
 28 29  1  0
 33 34  1  0
 34 35  2  0
 35 30  1  0
 23 18  1  0
  6  1  1  0
 17  8  2  0
 28 21  1  0
  9  4  1  0
 16 11  1  0
M  END
>  <minimizedAffinity>  (845) 
-16.63130

$$$$
Mol: 191_2 - SminaDock
     RDKit          3D

 41 48  0  0  0  0  0  0  0  0999 V2000
    8.3443    5.4067  -12.6775 C   0  0  0  0  0  0  0  0  0  0  0  0
    7.0837    5.0171  -12.2655 C   0  0  0  0  0  0  0  0  0  0  0  0
    6.5143    3.9249  -12.8879 C   0  0  0  0  0  0  0  0  0  0  0  0
    7.1784    3.2413  -13.8898 C   0  0  0  0  0  0  0  0  0  0  0  0
    8.4137    3.6195  -14.2969 C   0  0  0  0  0  0  0  0  0  0  0  0
    9.0010    4.7145  -13.6825 C   0  0  0  0  0  0  0  0  0  0  0  0
    8.9373    2.7320  -15.3989 C   0  0  1  0  0  0  0  0  0  0  0  0
    7.8381    1.7611  -15.5859 C   0  0  0  0  0  0  0  0  0  0  0  0
    6.8299    2.0749  -14.7063 C   0  0  0  0  0  0  0  0  0  0  0  0
    5.8392    1.1883  -14.8872 N   0  0  0  0  0  0  0  0  0  0  0  0
    6.2290    0.3475  -15.8560 C   0  0  0  0  0  0  0  0  0  0  0  0
    5.3749   -0.6760  -16.2387 C   0  0  0  0  0  0  0  0  0  0  0  0
    5.5812   -1.5719  -17.2612 C   0  0  0  0  0  0  0  0  0  0  0  0
    6.5922   -1.5974  -18.2123 C   0  0  0  0  0  0  0  0  0  0  0  0
    6.4733   -2.4178  -19.1319 O   0  0  0  0  0  0  0  0  0  0  0  0
    7.7281   -0.7868  -18.2292 C   0  0  0  0  0  0  0  0  0  0  0  0
    8.1418    0.0733  -17.2397 C   0  0  0  0  0  0  0  0  0  0  0  0
    7.4424    0.6994  -16.2763 N   0  0  0  0  0  0  0  0  0  0  0  0
    9.1576    3.6282  -16.5686 C   0  0  0  0  0  0  0  0  0  0  0  0
   10.0349    3.0771  -17.6366 C   0  0  0  0  0  0  0  0  0  0  0  0
   11.0791    2.2970  -17.2183 O   0  0  0  0  0  0  0  0  0  0  0  0
   11.3887    2.4473  -15.8757 C   0  0  0  0  0  0  0  0  0  0  0  0
   10.2162    2.1076  -14.9766 C   0  0  0  0  0  0  0  0  0  0  0  0
   11.2490    7.8736   -6.3912 C   0  0  0  0  0  0  0  0  0  0  0  0
   11.4490    8.9085   -7.2783 C   0  0  0  0  0  0  0  0  0  0  0  0
   11.0362    8.8342   -8.5936 C   0  0  0  0  0  0  0  0  0  0  0  0
   10.3951    7.6910   -9.0681 C   0  0  0  0  0  0  0  0  0  0  0  0
   10.1973    6.6577   -8.1759 C   0  0  0  0  0  0  0  0  0  0  0  0
   10.6157    6.7425   -6.8574 C   0  0  0  0  0  0  0  0  0  0  0  0
    9.5576    5.5269   -8.6644 C   0  0  0  0  0  0  0  0  0  0  0  0
    9.1469    5.4659   -9.9920 C   0  0  0  0  0  0  0  0  0  0  0  0
    9.3676    6.5259  -10.8456 C   0  0  0  0  0  0  0  0  0  0  0  0
    8.9963    6.5057  -12.0991 N   0  0  0  0  0  0  0  0  0  0  0  0
    9.9881    7.6083  -10.3500 N   0  0  0  0  0  0  0  0  0  0  0  0
   10.1723    8.4366  -10.9760 H   0  0  0  0  0  0  0  0  0  0  0  0
   12.4434    7.9182   -2.3002 C   0  0  0  0  0  0  0  0  0  0  0  0
   11.7315    6.8539   -2.8285 C   0  0  0  0  0  0  0  0  0  0  0  0
   11.3641    6.8803   -4.1610 C   0  0  0  0  0  0  0  0  0  0  0  0
   11.6725    7.9208   -4.9986 C   0  0  0  0  0  0  0  0  0  0  0  0
   12.3819    8.9818   -4.4728 C   0  0  0  0  0  0  0  0  0  0  0  0
   12.7501    8.9588   -3.1439 C   0  0  0  0  0  0  0  0  0  0  0  0
 36 37  2  0
 37 38  1  0
 38 39  2  0
 39 24  1  0
 24 25  2  0
 25 26  1  0
 26 27  2  0
 27 28  1  0
 28 29  2  0
 28 30  1  0
 30 31  2  0
 31 32  1  0
 32 33  2  0
 33  1  1  0
  1  2  2  0
  2  3  1  0
  3  4  2  0
  4  5  1  0
  5  6  2  0
  5  7  1  0
  7  8  1  0
  8  9  2  0
  9 10  1  0
 10 11  2  0
 11 12  1  0
 12 13  2  0
 13 14  1  0
 14 15  2  0
 14 16  1  0
 16 17  2  0
 17 18  1  0
  7 19  1  6
 19 20  1  0
 20 21  1  0
 21 22  1  0
 22 23  1  0
 32 34  1  0
 34 35  1  0
 39 40  1  0
 40 41  2  0
 41 36  1  0
 29 24  1  0
  6  1  1  0
 23  7  1  0
 34 27  1  0
  9  4  1  0
 18 11  1  0
 18  8  1  0
M  END
>  <minimizedAffinity>  (846) 
-16.64087

$$$$
Mol: 170_39 - SminaDock
     RDKit          3D

 38 44  0  0  0  0  0  0  0  0999 V2000
    5.4711    4.7016  -11.7362 O   0  0  0  0  0  0  0  0  0  0  0  0
    6.3175    4.1132  -12.4413 C   0  0  0  0  0  0  0  0  0  0  0  0
    7.6792    4.5890  -12.7061 C   0  0  0  0  0  0  0  0  0  0  0  0
    8.3892    5.6962  -12.3183 C   0  0  0  0  0  0  0  0  0  0  0  0
    9.7178    5.9341  -12.7148 C   0  0  0  0  0  0  0  0  0  0  0  0
   10.2783    4.9822  -13.5258 C   0  0  0  0  0  0  0  0  0  0  0  0
    9.5430    3.8512  -13.9177 C   0  0  0  0  0  0  0  0  0  0  0  0
    8.2491    3.6372  -13.5208 C   0  0  0  0  0  0  0  0  0  0  0  0
    7.3130    2.5584  -13.7985 C   0  0  0  0  0  0  0  0  0  0  0  0
    7.4045    1.3894  -14.5508 C   0  0  0  0  0  0  0  0  0  0  0  0
    6.3560    0.5079  -14.6620 C   0  0  0  0  0  0  0  0  0  0  0  0
    6.4462   -0.6285  -15.3940 N   0  0  0  0  0  0  0  0  0  0  0  0
    5.4240   -1.4893  -15.5034 C   0  0  0  0  0  0  0  0  0  0  0  0
    5.5052   -2.6653  -16.2560 O   0  0  0  0  0  0  0  0  0  0  0  0
    4.2337   -1.2290  -14.8584 C   0  0  0  0  0  0  0  0  0  0  0  0
    4.1347   -0.0746  -14.1118 C   0  0  0  0  0  0  0  0  0  0  0  0
    5.1779    0.8217  -13.9893 C   0  0  0  0  0  0  0  0  0  0  0  0
    5.0740    1.9767  -13.2404 C   0  0  0  0  0  0  0  0  0  0  0  0
    6.1408    2.8501  -13.1417 C   0  0  0  0  0  0  0  0  0  0  0  0
    4.6964   -3.0502  -16.7377 H   0  0  0  0  0  0  0  0  0  0  0  0
   10.3583    7.1140  -12.2592 N   0  0  0  0  0  0  0  0  0  0  0  0
   10.5370    7.9155  -12.9485 H   0  0  0  0  0  0  0  0  0  0  0  0
   10.8093    7.3647  -10.9406 C   0  0  0  0  0  0  0  0  0  0  0  0
   11.9532    7.9822  -10.6187 N   0  0  0  0  0  0  0  0  0  0  0  0
   12.3747    8.2168   -9.3662 C   0  0  0  0  0  0  0  0  0  0  0  0
   11.6034    7.8082   -8.2986 C   0  0  0  0  0  0  0  0  0  0  0  0
   11.9561    8.0060   -6.9889 C   0  0  0  0  0  0  0  0  0  0  0  0
   11.1469    7.5770   -5.9416 C   0  0  0  0  0  0  0  0  0  0  0  0
    9.9560    6.9344   -6.2416 C   0  0  0  0  0  0  0  0  0  0  0  0
    9.6153    6.7429   -7.5562 C   0  0  0  0  0  0  0  0  0  0  0  0
   10.4259    7.1726   -8.6085 C   0  0  0  0  0  0  0  0  0  0  0  0
   10.0546    6.9651   -9.8818 N   0  0  0  0  0  0  0  0  0  0  0  0
   11.5736    7.8155   -4.5715 C   0  0  0  0  0  0  0  0  0  0  0  0
   11.7581    6.7332   -3.7196 C   0  0  0  0  0  0  0  0  0  0  0  0
   12.1656    6.9747   -2.4124 C   0  0  0  0  0  0  0  0  0  0  0  0
   12.3936    8.2460   -1.9294 C   0  0  0  0  0  0  0  0  0  0  0  0
   12.1969    9.2958   -2.8154 C   0  0  0  0  0  0  0  0  0  0  0  0
   11.7931    9.0779   -4.1150 C   0  0  0  0  0  0  0  0  0  0  0  0
  1  2  2  0
  2  3  1  0
  3  4  2  0
  4  5  1  0
  5 21  1  0
 21 23  1  0
 23 24  2  0
 24 25  1  0
 25 26  2  0
 26 27  1  0
 27 28  2  0
 28 33  1  0
 33 34  2  0
 34 35  1  0
 35 36  2  0
 36 37  1  0
 37 38  2  0
 28 29  1  0
 29 30  2  0
 30 31  1  0
 31 32  2  0
  5  6  2  0
  6  7  1  0
  7  8  2  0
  8  9  1  0
  9 10  2  0
 10 11  1  0
 11 12  2  0
 12 13  1  0
 13 14  1  0
 13 15  2  0
 15 16  1  0
 16 17  2  0
 17 18  1  0
 18 19  2  0
 19  2  1  0
  8  3  1  0
 19  9  1  0
 32 23  1  0
 17 11  1  0
 31 26  1  0
 38 33  1  0
 21 22  1  0
 14 20  1  0
M  END
>  <minimizedAffinity>  (847) 
-16.59446

$$$$
Mol: 170_50 - SminaDock
     RDKit          3D

 37 43  0  0  0  0  0  0  0  0999 V2000
    4.2406   -2.8514  -16.8069 H   0  0  0  0  0  0  0  0  0  0  0  0
    5.1484   -2.4606  -16.5778 O   0  0  0  0  0  0  0  0  0  0  0  0
    5.3000   -1.3096  -15.8230 C   0  0  0  0  0  0  0  0  0  0  0  0
    4.2419   -0.9539  -15.0404 N   0  0  0  0  0  0  0  0  0  0  0  0
    4.2530    0.1307  -14.2636 C   0  0  0  0  0  0  0  0  0  0  0  0
    5.3999    0.9053  -14.2752 C   0  0  0  0  0  0  0  0  0  0  0  0
    5.7370    2.0709  -13.6021 C   0  0  0  0  0  0  0  0  0  0  0  0
    7.0042    2.4157  -13.9837 C   0  0  0  0  0  0  0  0  0  0  0  0
    7.4753    1.5003  -14.8780 N   0  0  0  0  0  0  0  0  0  0  0  0
    6.5491    0.5544  -15.0997 C   0  0  0  0  0  0  0  0  0  0  0  0
    6.4601   -0.5837  -15.8763 C   0  0  0  0  0  0  0  0  0  0  0  0
    7.6369    3.6062  -13.4413 C   0  0  0  0  0  0  0  0  0  0  0  0
    8.9329    3.9655  -13.8260 C   0  0  0  0  0  0  0  0  0  0  0  0
    9.5172    5.1163  -13.2879 C   0  0  0  0  0  0  0  0  0  0  0  0
    8.8062    5.8693  -12.3930 C   0  0  0  0  0  0  0  0  0  0  0  0
    7.5371    5.5099  -12.0217 C   0  0  0  0  0  0  0  0  0  0  0  0
    6.9398    4.3681  -12.5468 C   0  0  0  0  0  0  0  0  0  0  0  0
    5.5737    4.0628  -12.0886 C   0  0  0  0  0  0  0  0  0  0  0  0
    4.9549    2.8470  -12.6513 C   0  0  0  0  0  0  0  0  0  0  0  0
    9.3851    7.0306  -11.8441 N   0  0  0  0  0  0  0  0  0  0  0  0
    9.7026    7.0074  -10.5851 C   0  0  0  0  0  0  0  0  0  0  0  0
   10.2623    8.0802   -9.9826 N   0  0  0  0  0  0  0  0  0  0  0  0
   10.6108    8.1130   -8.6847 C   0  0  0  0  0  0  0  0  0  0  0  0
   11.1820    9.2125   -8.0781 C   0  0  0  0  0  0  0  0  0  0  0  0
   11.5216    9.1889   -6.7349 C   0  0  0  0  0  0  0  0  0  0  0  0
   11.3066    8.0758   -5.9486 C   0  0  0  0  0  0  0  0  0  0  0  0
   10.7349    6.9738   -6.5538 C   0  0  0  0  0  0  0  0  0  0  0  0
   10.3951    6.9979   -7.8982 C   0  0  0  0  0  0  0  0  0  0  0  0
    9.8241    5.9042   -8.5143 C   0  0  0  0  0  0  0  0  0  0  0  0
    9.4936    5.9233   -9.8175 N   0  0  0  0  0  0  0  0  0  0  0  0
    9.0608    5.0870  -10.2735 H   0  0  0  0  0  0  0  0  0  0  0  0
   11.6736    8.0730   -4.5296 C   0  0  0  0  0  0  0  0  0  0  0  0
   12.0468    9.2262   -3.8707 C   0  0  0  0  0  0  0  0  0  0  0  0
   12.3962    9.2492   -2.5431 C   0  0  0  0  0  0  0  0  0  0  0  0
   12.3765    8.0758   -1.8290 C   0  0  0  0  0  0  0  0  0  0  0  0
   12.0072    6.8941   -2.4534 C   0  0  0  0  0  0  0  0  0  0  0  0
   11.6623    6.9047   -3.7867 C   0  0  0  0  0  0  0  0  0  0  0  0
  1  2  1  0
  2  3  1  0
  3  4  1  0
  4  5  1  0
  5  6  2  0
  6  7  1  0
  7  8  2  0
  8  9  1  0
  9 10  2  0
 10 11  1  0
  8 12  1  0
 12 13  2  0
 13 14  1  0
 14 15  2  0
 15 20  1  0
 20 21  2  0
 21 22  1  0
 22 23  2  0
 23 24  1  0
 24 25  2  0
 25 26  1  0
 26 32  1  0
 32 33  2  0
 33 34  1  0
 34 35  2  0
 35 36  1  0
 36 37  2  0
 26 27  2  0
 27 28  1  0
 28 29  2  0
 29 30  1  0
 30 31  1  0
 15 16  1  0
 16 17  2  0
 17 18  1  0
 18 19  1  0
 11  3  2  0
 17 12  1  0
 10  6  1  0
 30 21  1  0
 19  7  1  0
 28 23  1  0
 37 32  1  0
M  CHG  1   4  -1
M  END
>  <minimizedAffinity>  (848) 
-16.64628

$$$$
Mol: 148_8 - SminaDock
     RDKit          3D

 39 45  0  0  0  0  0  0  0  0999 V2000
    8.9378    6.1297  -12.3960 C   0  0  0  0  0  0  0  0  0  0  0  0
    9.8077    5.6322  -13.3424 C   0  0  0  0  0  0  0  0  0  0  0  0
    9.4349    4.4952  -14.0271 C   0  0  0  0  0  0  0  0  0  0  0  0
    8.2075    3.8790  -13.7561 C   0  0  0  0  0  0  0  0  0  0  0  0
    7.3581    4.3860  -12.8152 C   0  0  0  0  0  0  0  0  0  0  0  0
    7.7424    5.5469  -12.1182 C   0  0  0  0  0  0  0  0  0  0  0  0
    6.0650    3.7776  -12.5051 C   0  0  0  0  0  0  0  0  0  0  0  0
    5.6560    2.5474  -13.2007 C   0  0  0  0  0  0  0  0  0  0  0  0
    6.5933    2.0436  -14.2083 C   0  0  0  0  0  0  0  0  0  0  0  0
    7.7914    2.6542  -14.4751 C   0  0  0  0  0  0  0  0  0  0  0  0
    8.6401    2.1415  -15.4272 C   0  0  0  0  0  0  0  0  0  0  0  0
    8.2712    0.9991  -16.1156 C   0  0  0  0  0  0  0  0  0  0  0  0
    7.0676    0.3916  -15.8429 C   0  0  0  0  0  0  0  0  0  0  0  0
    6.1997    0.8812  -14.8972 C   0  0  0  0  0  0  0  0  0  0  0  0
    5.0073    0.2389  -14.6593 C   0  0  0  0  0  0  0  0  0  0  0  0
    4.1870    0.6440  -13.8117 O   0  0  0  0  0  0  0  0  0  0  0  0
    4.6566   -0.8995  -15.3554 C   0  0  0  0  0  0  0  0  0  0  0  0
    5.5505   -1.3667  -16.2996 C   0  0  0  0  0  0  0  0  0  0  0  0
    5.1727   -2.5963  -17.0525 C   0  0  0  0  0  0  0  0  0  0  0  0
    6.7095   -0.7351  -16.5251 N   0  0  0  0  0  0  0  0  0  0  0  0
    7.3822   -1.0804  -17.2306 H   0  0  0  0  0  0  0  0  0  0  0  0
   11.2036    8.1027   -5.8073 C   0  0  0  0  0  0  0  0  0  0  0  0
   11.1303    9.3094   -6.4836 C   0  0  0  0  0  0  0  0  0  0  0  0
   10.7279    9.3656   -7.8021 C   0  0  0  0  0  0  0  0  0  0  0  0
   10.3809    8.2345   -8.5098 C   0  0  0  0  0  0  0  0  0  0  0  0
   10.4538    7.0258   -7.8343 C   0  0  0  0  0  0  0  0  0  0  0  0
   10.1017    5.9053   -8.5614 C   0  0  0  0  0  0  0  0  0  0  0  0
    9.7110    5.9752   -9.8467 N   0  0  0  0  0  0  0  0  0  0  0  0
    9.6572    7.1698  -10.4557 C   0  0  0  0  0  0  0  0  0  0  0  0
    9.2937    7.2990  -11.6745 N   0  0  0  0  0  0  0  0  0  0  0  0
    9.9914    8.3157   -9.7955 N   0  0  0  0  0  0  0  0  0  0  0  0
    9.9377    9.2364  -10.3037 H   0  0  0  0  0  0  0  0  0  0  0  0
   10.8563    6.9713   -6.5159 C   0  0  0  0  0  0  0  0  0  0  0  0
   12.4570    7.9545   -1.7196 C   0  0  0  0  0  0  0  0  0  0  0  0
   12.1681    6.8106   -2.4345 C   0  0  0  0  0  0  0  0  0  0  0  0
   11.7640    6.8582   -3.7526 C   0  0  0  0  0  0  0  0  0  0  0  0
   11.6326    8.0744   -4.4127 C   0  0  0  0  0  0  0  0  0  0  0  0
   11.9242    9.2118   -3.6879 C   0  0  0  0  0  0  0  0  0  0  0  0
   12.3307    9.1713   -2.3635 C   0  0  0  0  0  0  0  0  0  0  0  0
 34 35  2  0
 35 36  1  0
 36 37  2  0
 37 22  1  0
 22 23  2  0
 23 24  1  0
 24 25  2  0
 25 26  1  0
 26 27  1  0
 27 28  2  0
 28 29  1  0
 29 30  2  0
 30  1  1  0
  1  2  2  0
  2  3  1  0
  3  4  2  0
  4  5  1  0
  5  6  2  0
  5  7  1  0
  7  8  1  0
  8  9  1  0
  9 10  2  0
 10 11  1  0
 11 12  2  0
 12 13  1  0
 13 14  2  0
 14 15  1  0
 15 16  2  0
 15 17  1  0
 17 18  2  0
 18 19  1  0
 18 20  1  0
 20 21  1  0
 29 31  1  0
 31 32  1  0
 26 33  2  0
 37 38  1  0
 38 39  2  0
 39 34  1  0
 33 22  1  0
 31 25  1  0
  6  1  1  0
 14  9  1  0
 10  4  1  0
 20 13  1  0
M  END
>  <minimizedAffinity>  (849) 
-16.64340

$$$$
Mol: 147_41 - SminaDock
     RDKit          3D

 36 42  0  0  0  0  0  0  0  0999 V2000
   11.2544    8.0117   -5.8913 C   0  0  0  0  0  0  0  0  0  0  0  0
   11.4169    9.1360   -6.6792 C   0  0  0  0  0  0  0  0  0  0  0  0
   11.0424    9.1417   -8.0064 C   0  0  0  0  0  0  0  0  0  0  0  0
   10.4905    8.0240   -8.5990 C   0  0  0  0  0  0  0  0  0  0  0  0
   10.3211    6.8861   -7.8189 C   0  0  0  0  0  0  0  0  0  0  0  0
    9.7677    5.7947   -8.4487 C   0  0  0  0  0  0  0  0  0  0  0  0
    9.3968    5.7827   -9.7406 N   0  0  0  0  0  0  0  0  0  0  0  0
    9.5857    6.9266  -10.4597 C   0  0  0  0  0  0  0  0  0  0  0  0
    9.2413    6.9438  -11.6981 N   0  0  0  0  0  0  0  0  0  0  0  0
   10.1225    8.0220   -9.8933 N   0  0  0  0  0  0  0  0  0  0  0  0
   10.2737    8.9060  -10.4310 H   0  0  0  0  0  0  0  0  0  0  0  0
   10.7017    6.9137   -6.5106 C   0  0  0  0  0  0  0  0  0  0  0  0
    8.6733    5.7946  -12.3144 C   0  0  0  0  0  0  0  0  0  0  0  0
    9.3792    5.1881  -13.3295 C   0  0  0  0  0  0  0  0  0  0  0  0
    8.8860    4.0885  -13.9578 C   0  0  0  0  0  0  0  0  0  0  0  0
    7.6579    3.5908  -13.5552 C   0  0  0  0  0  0  0  0  0  0  0  0
    6.9074    4.1491  -12.5500 C   0  0  0  0  0  0  0  0  0  0  0  0
    7.4617    5.2797  -11.9370 C   0  0  0  0  0  0  0  0  0  0  0  0
    5.6132    3.6052  -12.0946 C   0  0  0  0  0  0  0  0  0  0  0  0
    5.0860    2.5258  -12.9459 C   0  0  0  0  0  0  0  0  0  0  0  0
    5.9335    1.9242  -13.9611 C   0  0  0  0  0  0  0  0  0  0  0  0
    7.1583    2.4338  -14.2893 C   0  0  0  0  0  0  0  0  0  0  0  0
    7.9074    1.8600  -15.2601 N   0  0  0  0  0  0  0  0  0  0  0  0
    7.4812    0.7976  -15.9142 N   0  0  0  0  0  0  0  0  0  0  0  0
    6.2773    0.2609  -15.6215 C   0  0  0  0  0  0  0  0  0  0  0  0
    5.8252   -0.8642  -16.3162 C   0  0  0  0  0  0  0  0  0  0  0  0
    4.5934   -1.3956  -16.0046 C   0  0  0  0  0  0  0  0  0  0  0  0
    3.7927   -0.8426  -15.0207 C   0  0  0  0  0  0  0  0  0  0  0  0
    4.2308    0.2683  -14.3294 C   0  0  0  0  0  0  0  0  0  0  0  0
    5.4615    0.7798  -14.6572 C   0  0  0  0  0  0  0  0  0  0  0  0
   12.4328    8.0306   -1.8024 C   0  0  0  0  0  0  0  0  0  0  0  0
   12.1277    6.8694   -2.4526 C   0  0  0  0  0  0  0  0  0  0  0  0
   11.7478    6.8520   -3.7671 C   0  0  0  0  0  0  0  0  0  0  0  0
   11.6603    8.0410   -4.4915 C   0  0  0  0  0  0  0  0  0  0  0  0
   11.9699    9.2096   -3.8278 C   0  0  0  0  0  0  0  0  0  0  0  0
   12.3526    9.2247   -2.5026 C   0  0  0  0  0  0  0  0  0  0  0  0
 31 32  2  0
 32 33  1  0
 33 34  2  0
 34  1  1  0
  1  2  2  0
  2  3  1  0
  3  4  2  0
  4  5  1  0
  5  6  1  0
  6  7  2  0
  7  8  1  0
  8  9  2  0
  9 13  1  0
 13 14  2  0
 14 15  1  0
 15 16  2  0
 16 17  1  0
 17 18  2  0
 17 19  1  0
 19 20  1  0
 20 21  1  0
 21 22  2  0
 22 23  1  0
 23 24  2  0
 24 25  1  0
 25 26  2  0
 26 27  1  0
 27 28  2  0
 28 29  1  0
 29 30  2  0
  8 10  1  0
 10 11  1  0
  5 12  2  0
 34 35  1  0
 35 36  2  0
 36 31  1  0
 12  1  1  0
 10  4  1  0
 18 13  1  0
 30 21  1  0
 22 16  1  0
 30 25  1  0
M  END
>  <minimizedAffinity>  (850) 
-16.56912

$$$$
Mol: 195_13 - SminaDock
     RDKit          3D

 38 44  0  0  0  0  0  0  0  0999 V2000
    4.4640   -3.2530  -16.4100 H   0  0  0  0  0  0  0  0  0  0  0  0
    4.6185   -2.3897  -16.9089 O   0  0  0  0  0  0  0  0  0  0  0  0
    5.0721   -1.2672  -16.2278 C   0  0  0  0  0  0  0  0  0  0  0  0
    4.2799   -0.7518  -15.2509 N   0  0  0  0  0  0  0  0  0  0  0  0
    4.6930    0.3413  -14.5685 C   0  0  0  0  0  0  0  0  0  0  0  0
    5.8873    0.9577  -14.8222 C   0  0  0  0  0  0  0  0  0  0  0  0
    6.3467    2.0891  -14.1387 C   0  0  0  0  0  0  0  0  0  0  0  0
    7.5555    2.6884  -14.4176 C   0  0  0  0  0  0  0  0  0  0  0  0
    8.3208    2.1263  -15.4180 C   0  0  0  0  0  0  0  0  0  0  0  0
    7.8649    1.0193  -16.0829 N   0  0  0  0  0  0  0  0  0  0  0  0
    6.6899    0.4402  -15.8080 C   0  0  0  0  0  0  0  0  0  0  0  0
    6.2858   -0.6895  -16.5280 C   0  0  0  0  0  0  0  0  0  0  0  0
    8.0269    3.8662  -13.6816 C   0  0  0  0  0  0  0  0  0  0  0  0
    9.2468    4.4633  -13.9987 C   0  0  0  0  0  0  0  0  0  0  0  0
    9.6611    5.5742  -13.3096 C   0  0  0  0  0  0  0  0  0  0  0  0
    8.8497    6.0835  -12.3030 C   0  0  0  0  0  0  0  0  0  0  0  0
    7.6544    5.5104  -11.9816 C   0  0  0  0  0  0  0  0  0  0  0  0
    7.2309    4.3753  -12.6853 C   0  0  0  0  0  0  0  0  0  0  0  0
    5.9495    3.7537  -12.3264 C   0  0  0  0  0  0  0  0  0  0  0  0
    5.4568    2.6219  -13.1027 C   0  0  0  0  0  0  0  0  0  0  0  0
    9.2744    7.2355  -11.5886 N   0  0  0  0  0  0  0  0  0  0  0  0
    9.6353    7.1189  -10.3654 C   0  0  0  0  0  0  0  0  0  0  0  0
    9.6182    5.8970   -9.7330 C   0  0  0  0  0  0  0  0  0  0  0  0
   10.0228    5.8593   -8.4151 C   0  0  0  0  0  0  0  0  0  0  0  0
   10.4362    6.9686   -7.7142 C   0  0  0  0  0  0  0  0  0  0  0  0
   10.8425    6.9243   -6.3881 C   0  0  0  0  0  0  0  0  0  0  0  0
   11.2527    8.0488   -5.7076 C   0  0  0  0  0  0  0  0  0  0  0  0
   11.2494    9.2466   -6.3914 C   0  0  0  0  0  0  0  0  0  0  0  0
   10.8431    9.3129   -7.7289 C   0  0  0  0  0  0  0  0  0  0  0  0
   10.4352    8.1757   -8.3955 C   0  0  0  0  0  0  0  0  0  0  0  0
   10.0404    8.2180   -9.6849 N   0  0  0  0  0  0  0  0  0  0  0  0
   10.0350    9.1231  -10.2090 H   0  0  0  0  0  0  0  0  0  0  0  0
   11.6877    8.0299   -4.3082 C   0  0  0  0  0  0  0  0  0  0  0  0
   11.7741    6.8407   -3.6138 C   0  0  0  0  0  0  0  0  0  0  0  0
   12.1817    6.8171   -2.2960 C   0  0  0  0  0  0  0  0  0  0  0  0
   12.5137    8.0064   -1.6457 C   0  0  0  0  0  0  0  0  0  0  0  0
   12.4346    9.2059   -2.3204 C   0  0  0  0  0  0  0  0  0  0  0  0
   12.0237    9.1844   -3.6333 C   0  0  0  0  0  0  0  0  0  0  0  0
  1  2  1  0
  2  3  1  0
  3  4  2  0
  4  5  1  0
  5  6  2  0
  6  7  1  0
  7  8  2  0
  8  9  1  0
  9 10  2  0
 10 11  1  0
 11 12  2  0
  8 13  1  0
 13 14  2  0
 14 15  1  0
 15 16  2  0
 16 21  1  0
 21 22  2  0
 22 23  1  0
 23 24  2  0
 24 25  1  0
 25 26  2  0
 26 27  1  0
 27 33  1  0
 33 34  2  0
 34 35  1  0
 35 36  2  0
 36 37  1  0
 37 38  2  0
 27 28  2  0
 28 29  1  0
 29 30  2  0
 30 31  1  0
 31 32  1  0
 16 17  1  0
 17 18  2  0
 18 19  1  0
 19 20  1  0
 12  3  1  0
 18 13  1  0
 11  6  1  0
 31 22  1  0
 20  7  1  0
 30 25  1  0
 38 33  1  0
M  END
>  <minimizedAffinity>  (851) 
-16.58133

$$$$
Mol: 194_43 - SminaDock
     RDKit          3D

 45 52  0  0  0  0  0  0  0  0999 V2000
    9.4519    6.0430  -12.4605 C   0  0  0  0  0  0  0  0  0  0  0  0
    8.2842    5.8263  -11.7620 C   0  0  0  0  0  0  0  0  0  0  0  0
    7.4248    4.8071  -12.1049 C   0  0  0  0  0  0  0  0  0  0  0  0
    7.6989    3.9459  -13.1777 C   0  0  0  0  0  0  0  0  0  0  0  0
    8.8553    4.1596  -13.8694 C   0  0  0  0  0  0  0  0  0  0  0  0
    9.7292    5.2103  -13.5070 C   0  0  0  0  0  0  0  0  0  0  0  0
    9.2642    3.3243  -15.0122 C   0  0  1  0  0  0  0  0  0  0  0  0
    8.2694    2.2893  -15.3112 C   0  0  0  0  0  0  0  0  0  0  0  0
    8.4422    1.4780  -16.2996 O   0  0  0  0  0  0  0  0  0  0  0  0
    7.0479    2.0873  -14.5554 C   0  0  0  0  0  0  0  0  0  0  0  0
    6.7288    2.8925  -13.4854 C   0  0  0  0  0  0  0  0  0  0  0  0
    5.5553    2.4878  -12.9737 N   0  0  0  0  0  0  0  0  0  0  0  0
    5.0718    2.9245  -12.1492 H   0  0  0  0  0  0  0  0  0  0  0  0
    5.0848    1.4339  -13.6753 C   0  0  0  0  0  0  0  0  0  0  0  0
    3.9772    0.6332  -13.6183 C   0  0  0  0  0  0  0  0  0  0  0  0
    3.7758   -0.4001  -14.5107 C   0  0  0  0  0  0  0  0  0  0  0  0
    4.6949   -0.6756  -15.5140 C   0  0  0  0  0  0  0  0  0  0  0  0
    4.5077   -1.7363  -16.4456 N   0  0  0  0  0  0  0  0  0  0  0  0
    4.5690   -1.5530  -17.4720 H   0  0  0  0  0  0  0  0  0  0  0  0
    4.3106   -2.6916  -16.1220 H   0  0  0  0  0  0  0  0  0  0  0  0
    5.8102    0.1344  -15.5675 C   0  0  0  0  0  0  0  0  0  0  0  0
    6.0166    1.1673  -14.6795 C   0  0  0  0  0  0  0  0  0  0  0  0
    9.3781    4.1917  -16.2699 C   0  0  0  0  0  0  0  0  0  0  0  0
   10.2335    3.5286  -17.2818 C   0  0  0  0  0  0  0  0  0  0  0  0
   11.4996    3.2233  -16.7796 O   0  0  0  0  0  0  0  0  0  0  0  0
   11.3205    2.1715  -15.8755 C   0  0  0  0  0  0  0  0  0  0  0  0
   10.6063    2.6844  -14.6738 C   0  0  0  0  0  0  0  0  0  0  0  0
   11.2259    7.5888   -5.9763 C   0  0  0  0  0  0  0  0  0  0  0  0
   10.3574    6.5517   -6.2349 C   0  0  0  0  0  0  0  0  0  0  0  0
   10.0105    6.2532   -7.5436 C   0  0  0  0  0  0  0  0  0  0  0  0
   10.5056    6.9617   -8.6156 C   0  0  0  0  0  0  0  0  0  0  0  0
   11.3761    7.9997   -8.3404 C   0  0  0  0  0  0  0  0  0  0  0  0
   11.7262    8.3030   -7.0421 C   0  0  0  0  0  0  0  0  0  0  0  0
   11.8947    8.7333   -9.3742 C   0  0  0  0  0  0  0  0  0  0  0  0
   11.5299    8.4096  -10.6481 C   0  0  0  0  0  0  0  0  0  0  0  0
   10.6642    7.3759  -10.9068 C   0  0  0  0  0  0  0  0  0  0  0  0
   10.3491    7.1057  -12.1046 N   0  0  0  0  0  0  0  0  0  0  0  0
   10.1600    6.6620   -9.8933 N   0  0  0  0  0  0  0  0  0  0  0  0
    9.5011    5.8680  -10.0134 H   0  0  0  0  0  0  0  0  0  0  0  0
   12.2792    8.4425   -1.9891 C   0  0  0  0  0  0  0  0  0  0  0  0
   12.1204    7.1357   -2.3742 C   0  0  0  0  0  0  0  0  0  0  0  0
   11.7770    6.8859   -3.6795 C   0  0  0  0  0  0  0  0  0  0  0  0
   11.5898    7.9017   -4.6025 C   0  0  0  0  0  0  0  0  0  0  0  0
   11.7588    9.1996   -4.1759 C   0  0  0  0  0  0  0  0  0  0  0  0
   12.1051    9.4889   -2.8667 C   0  0  0  0  0  0  0  0  0  0  0  0
 40 41  2  0
 41 42  1  0
 42 43  2  0
 43 28  1  0
 28 29  2  0
 29 30  1  0
 30 31  2  0
 31 32  1  0
 32 33  2  0
 32 34  1  0
 34 35  2  0
 35 36  1  0
 36 37  2  0
 37  1  1  0
  1  2  2  0
  2  3  1  0
  3  4  2  0
  4  5  1  0
  5  6  2  0
  5  7  1  0
  7  8  1  0
  8  9  2  0
  8 10  1  0
 10 11  2  0
 11 12  1  0
 12 13  1  0
 12 14  1  0
 14 15  2  0
 15 16  1  0
 16 17  2  0
 17 18  1  0
 18 19  1  0
 18 20  1  0
 17 21  1  0
 21 22  2  0
  7 23  1  6
 23 24  1  0
 24 25  1  0
 25 26  1  0
 26 27  1  0
 36 38  1  0
 38 39  1  0
 43 44  1  0
 44 45  2  0
 45 40  1  0
 33 28  1  0
  6  1  1  0
 27  7  1  0
 38 31  1  0
 11  4  1  0
 22 14  1  0
 22 10  1  0
M  END
>  <minimizedAffinity>  (852) 
-16.60465

$$$$
Mol: 136_21 - SminaDock
     RDKit          3D

 38 44  0  0  0  0  0  0  0  0999 V2000
    3.5863   -0.6463  -14.7571 H   0  0  0  0  0  0  0  0  0  0  0  0
    4.1760    0.1668  -14.6014 O   0  0  0  0  0  0  0  0  0  0  0  0
    5.4403    0.2373  -15.1532 C   0  0  0  0  0  0  0  0  0  0  0  0
    5.9121   -0.6334  -16.0167 N   0  0  0  0  0  0  0  0  0  0  0  0
    7.2186   -0.3112  -16.4042 C   0  0  0  0  0  0  0  0  0  0  0  0
    8.0079   -0.8801  -17.1982 O   0  0  0  0  0  0  0  0  0  0  0  0
    7.5584    0.9202  -15.6634 C   0  0  0  0  0  0  0  0  0  0  0  0
    8.6778    1.7143  -15.6126 C   0  0  0  0  0  0  0  0  0  0  0  0
    8.6904    2.8330  -14.7976 C   0  0  0  0  0  0  0  0  0  0  0  0
    7.5840    3.1497  -14.0394 C   0  0  0  0  0  0  0  0  0  0  0  0
    6.4579    2.3530  -14.0851 C   0  0  0  0  0  0  0  0  0  0  0  0
    6.4533    1.2279  -14.9106 C   0  0  0  0  0  0  0  0  0  0  0  0
    5.3189    2.6377  -13.2124 C   0  0  0  0  0  0  0  0  0  0  0  0
    5.2031    4.0341  -12.7869 C   0  0  0  0  0  0  0  0  0  0  0  0
    6.4587    4.7522  -12.6005 C   0  0  0  0  0  0  0  0  0  0  0  0
    6.5197    5.8977  -11.7833 C   0  0  0  0  0  0  0  0  0  0  0  0
    7.6746    6.6298  -11.6607 C   0  0  0  0  0  0  0  0  0  0  0  0
    8.8253    6.2792  -12.3296 C   0  0  0  0  0  0  0  0  0  0  0  0
    8.7712    5.1398  -13.1426 C   0  0  0  0  0  0  0  0  0  0  0  0
    7.6130    4.4085  -13.2617 C   0  0  0  0  0  0  0  0  0  0  0  0
   10.0321    7.0018  -12.2332 N   0  0  0  0  0  0  0  0  0  0  0  0
   10.4957    7.2588  -11.0362 C   0  0  0  0  0  0  0  0  0  0  0  0
   11.6246    7.9335  -10.8571 N   0  0  0  0  0  0  0  0  0  0  0  0
   12.0935    8.1932   -9.6353 C   0  0  0  0  0  0  0  0  0  0  0  0
   11.4243    7.7709   -8.4963 C   0  0  0  0  0  0  0  0  0  0  0  0
   11.8774    8.0198   -7.2177 C   0  0  0  0  0  0  0  0  0  0  0  0
   11.1336    7.5533   -6.1467 C   0  0  0  0  0  0  0  0  0  0  0  0
    9.9811    6.8646   -6.3580 C   0  0  0  0  0  0  0  0  0  0  0  0
    9.5419    6.6241   -7.6310 C   0  0  0  0  0  0  0  0  0  0  0  0
   10.2545    7.0725   -8.7314 C   0  0  0  0  0  0  0  0  0  0  0  0
    9.8117    6.8289   -9.9695 N   0  0  0  0  0  0  0  0  0  0  0  0
    8.9108    6.2908  -10.1078 H   0  0  0  0  0  0  0  0  0  0  0  0
   11.5783    7.7995   -4.7641 C   0  0  0  0  0  0  0  0  0  0  0  0
   11.6616    6.7585   -3.8530 C   0  0  0  0  0  0  0  0  0  0  0  0
   12.0739    6.9853   -2.5570 C   0  0  0  0  0  0  0  0  0  0  0  0
   12.4185    8.2473   -2.1143 C   0  0  0  0  0  0  0  0  0  0  0  0
   12.3370    9.2899   -3.0201 C   0  0  0  0  0  0  0  0  0  0  0  0
   11.9225    9.0567   -4.3197 C   0  0  0  0  0  0  0  0  0  0  0  0
  1  2  1  0
  2  3  1  0
  3  4  2  0
  4  5  1  0
  5  6  2  0
  5  7  1  0
  7  8  2  0
  8  9  1  0
  9 10  2  0
 10 11  1  0
 11 12  2  0
 11 13  1  0
 13 14  1  0
 14 15  1  0
 15 16  2  0
 16 17  1  0
 17 18  2  0
 18 21  1  0
 21 22  2  0
 22 23  1  0
 23 24  2  0
 24 25  1  0
 25 26  2  0
 26 27  1  0
 27 33  1  0
 33 34  2  0
 34 35  1  0
 35 36  2  0
 36 37  1  0
 37 38  2  0
 27 28  2  0
 28 29  1  0
 29 30  2  0
 30 31  1  0
 31 32  1  0
 18 19  1  0
 19 20  2  0
 12  3  1  0
 20 15  1  0
 12  7  1  0
 31 22  1  0
 20 10  1  0
 30 25  1  0
 38 33  1  0
M  END
>  <minimizedAffinity>  (853) 
-16.56336

$$$$
Mol: 179_41 - SminaDock
     RDKit          3D

 38 44  0  0  0  0  0  0  0  0999 V2000
    2.3938   -0.9940  -13.5529 H   0  0  0  0  0  0  0  0  0  0  0  0
    2.8579   -0.2621  -14.0798 O   0  0  0  0  0  0  0  0  0  0  0  0
    4.2361   -0.1599  -14.1764 C   0  0  0  0  0  0  0  0  0  0  0  0
    4.9790   -1.2097  -14.6100 N   0  0  0  0  0  0  0  0  0  0  0  0
    6.3122   -1.1373  -14.7126 C   0  0  0  0  0  0  0  0  0  0  0  0
    6.9223    0.0637  -14.3563 C   0  0  0  0  0  0  0  0  0  0  0  0
    6.1920    1.1408  -13.9146 C   0  0  0  0  0  0  0  0  0  0  0  0
    6.7857    2.3402  -13.5572 C   0  0  0  0  0  0  0  0  0  0  0  0
    6.0555    3.4219  -13.1138 C   0  0  0  0  0  0  0  0  0  0  0  0
    4.6837    3.2794  -13.0317 C   0  0  0  0  0  0  0  0  0  0  0  0
    4.0530    2.1125  -13.3743 C   0  0  0  0  0  0  0  0  0  0  0  0
    4.8205    1.0384  -13.8187 C   0  0  0  0  0  0  0  0  0  0  0  0
    6.9273    4.5583  -12.8047 C   0  0  0  0  0  0  0  0  0  0  0  0
    6.7004    5.8310  -12.3430 C   0  0  0  0  0  0  0  0  0  0  0  0
    7.7504    6.6902  -12.1463 C   0  0  0  0  0  0  0  0  0  0  0  0
    9.0556    6.2739  -12.4149 C   0  0  0  0  0  0  0  0  0  0  0  0
    9.2778    4.9998  -12.8767 C   0  0  0  0  0  0  0  0  0  0  0  0
    8.2302    4.1391  -13.0741 C   0  0  0  0  0  0  0  0  0  0  0  0
    8.1804    2.7553  -13.5474 C   0  0  0  0  0  0  0  0  0  0  0  0
    9.1611    2.0427  -13.8874 O   0  0  0  0  0  0  0  0  0  0  0  0
   10.1652    7.1311  -12.2241 N   0  0  0  0  0  0  0  0  0  0  0  0
   10.5588    7.3700  -11.0224 C   0  0  0  0  0  0  0  0  0  0  0  0
   11.6433    8.2034  -10.7584 C   0  0  0  0  0  0  0  0  0  0  0  0
   12.0273    8.4306   -9.4892 N   0  0  0  0  0  0  0  0  0  0  0  0
   11.4035    7.8816   -8.4310 C   0  0  0  0  0  0  0  0  0  0  0  0
   11.8010    8.1175   -7.1288 C   0  0  0  0  0  0  0  0  0  0  0  0
   11.1616    7.5547   -6.0437 C   0  0  0  0  0  0  0  0  0  0  0  0
   10.0883    6.7304   -6.3128 C   0  0  0  0  0  0  0  0  0  0  0  0
    9.6887    6.4927   -7.6113 C   0  0  0  0  0  0  0  0  0  0  0  0
   10.3300    7.0569   -8.6945 C   0  0  0  0  0  0  0  0  0  0  0  0
    9.9390    6.8239   -9.9616 N   0  0  0  0  0  0  0  0  0  0  0  0
    9.1074    6.1822  -10.1139 H   0  0  0  0  0  0  0  0  0  0  0  0
   11.5938    7.8135   -4.6688 C   0  0  0  0  0  0  0  0  0  0  0  0
   11.8698    9.0938   -4.2365 C   0  0  0  0  0  0  0  0  0  0  0  0
   12.2773    9.3371   -2.9409 C   0  0  0  0  0  0  0  0  0  0  0  0
   12.4272    8.3142   -2.0199 C   0  0  0  0  0  0  0  0  0  0  0  0
   12.1515    7.0336   -2.4509 C   0  0  0  0  0  0  0  0  0  0  0  0
   11.7451    6.7987   -3.7464 C   0  0  0  0  0  0  0  0  0  0  0  0
  1  2  1  0
  2  3  1  0
  3  4  2  0
  4  5  1  0
  5  6  2  0
  6  7  1  0
  7  8  2  0
  8  9  1  0
  9 10  2  0
 10 11  1  0
 11 12  2  0
  9 13  1  0
 13 14  2  0
 14 15  1  0
 15 16  2  0
 16 21  1  0
 21 22  2  0
 22 23  1  0
 23 24  2  0
 24 25  1  0
 25 26  2  0
 26 27  1  0
 27 33  1  0
 33 34  2  0
 34 35  1  0
 35 36  2  0
 36 37  1  0
 37 38  2  0
 27 28  2  0
 28 29  1  0
 29 30  2  0
 30 31  1  0
 31 32  1  0
 16 17  1  0
 17 18  2  0
 18 19  1  0
 19 20  2  0
 12  3  1  0
 18 13  1  0
 12  7  1  0
 31 22  1  0
 19  8  1  0
 30 25  1  0
 38 33  1  0
M  END
>  <minimizedAffinity>  (854) 
-16.63474

$$$$
Mol: 136_5 - SminaDock
     RDKit          3D

 36 42  0  0  0  0  0  0  0  0999 V2000
   11.1619    8.0103   -6.0321 C   0  0  0  0  0  0  0  0  0  0  0  0
   11.1955    9.1097   -6.8664 C   0  0  0  0  0  0  0  0  0  0  0  0
   10.7948    9.0506   -8.1694 C   0  0  0  0  0  0  0  0  0  0  0  0
   10.3395    7.8272   -8.6532 C   0  0  0  0  0  0  0  0  0  0  0  0
   10.2962    6.7099   -7.8366 C   0  0  0  0  0  0  0  0  0  0  0  0
    9.8413    5.5112   -8.3415 C   0  0  0  0  0  0  0  0  0  0  0  0
    9.4491    5.4646   -9.6276 N   0  0  0  0  0  0  0  0  0  0  0  0
    9.4808    6.5256  -10.4344 C   0  0  0  0  0  0  0  0  0  0  0  0
    9.1292    6.5605  -11.6555 N   0  0  0  0  0  0  0  0  0  0  0  0
    9.9346    7.6979   -9.9105 N   0  0  0  0  0  0  0  0  0  0  0  0
    9.9774    8.5642  -10.5119 H   0  0  0  0  0  0  0  0  0  0  0  0
   10.7096    6.8056   -6.5221 C   0  0  0  0  0  0  0  0  0  0  0  0
    8.6284    5.4596  -12.4028 C   0  0  0  0  0  0  0  0  0  0  0  0
    9.3274    4.8708  -13.4287 C   0  0  0  0  0  0  0  0  0  0  0  0
    8.7981    3.7822  -14.1466 C   0  0  0  0  0  0  0  0  0  0  0  0
    7.5554    3.2861  -13.8255 C   0  0  0  0  0  0  0  0  0  0  0  0
    6.8348    3.8510  -12.8133 C   0  0  0  0  0  0  0  0  0  0  0  0
    7.3955    4.9395  -12.1136 C   0  0  0  0  0  0  0  0  0  0  0  0
    5.4777    3.4020  -12.4994 C   0  0  0  0  0  0  0  0  0  0  0  0
    5.1443    2.0299  -12.9343 C   0  0  0  0  0  0  0  0  0  0  0  0
    5.8450    1.5604  -14.1210 C   0  0  0  0  0  0  0  0  0  0  0  0
    7.0439    2.0934  -14.5198 C   0  0  0  0  0  0  0  0  0  0  0  0
    7.7419    1.5956  -15.5946 C   0  0  0  0  0  0  0  0  0  0  0  0
    7.1741    0.5171  -16.2722 C   0  0  0  0  0  0  0  0  0  0  0  0
    5.9706   -0.0241  -15.8830 C   0  0  0  0  0  0  0  0  0  0  0  0
    5.2956    0.4889  -14.8076 C   0  0  0  0  0  0  0  0  0  0  0  0
    4.0519   -0.3060  -14.6396 C   0  0  0  0  0  0  0  0  0  0  0  0
    3.7950   -0.8476  -16.0206 C   0  0  0  0  0  0  0  0  0  0  0  0
    5.2025   -1.1463  -16.4610 C   0  0  0  0  0  0  0  0  0  0  0  0
    5.6313   -2.1019  -17.1458 O   0  0  0  0  0  0  0  0  0  0  0  0
   12.4192    8.2197   -2.0030 C   0  0  0  0  0  0  0  0  0  0  0  0
   12.0970    6.9896   -2.5539 C   0  0  0  0  0  0  0  0  0  0  0  0
   11.6884    6.9566   -3.8763 C   0  0  0  0  0  0  0  0  0  0  0  0
   11.5975    8.1010   -4.6412 C   0  0  0  0  0  0  0  0  0  0  0  0
   11.9268    9.3002   -4.0547 C   0  0  0  0  0  0  0  0  0  0  0  0
   12.3415    9.3873   -2.7343 C   0  0  0  0  0  0  0  0  0  0  0  0
 31 32  2  0
 32 33  1  0
 33 34  2  0
 34  1  1  0
  1  2  2  0
  2  3  1  0
  3  4  2  0
  4  5  1  0
  5  6  1  0
  6  7  2  0
  7  8  1  0
  8  9  2  0
  9 13  1  0
 13 14  2  0
 14 15  1  0
 15 16  2  0
 16 17  1  0
 17 18  2  0
 17 19  1  0
 19 20  1  0
 20 21  1  0
 21 22  2  0
 22 23  1  0
 23 24  2  0
 24 25  1  0
 25 26  2  0
 26 27  1  0
 27 28  1  0
 28 29  1  0
 29 30  2  0
  8 10  1  0
 10 11  1  0
  5 12  2  0
 34 35  1  0
 35 36  2  0
 36 31  1  0
 12  1  1  0
 10  4  1  0
 18 13  1  0
 26 21  1  0
 22 16  1  0
 29 25  1  0
M  END
>  <minimizedAffinity>  (855) 
-16.56450

$$$$
Mol: 115_11 - SminaDock
     RDKit          3D

 39 45  0  0  0  0  0  0  0  0999 V2000
    5.2735   -2.9872  -16.5190 H   0  0  0  0  0  0  0  0  0  0  0  0
    4.5648   -2.2549  -16.6677 O   0  0  0  0  0  0  0  0  0  0  0  0
    4.7003   -1.1605  -15.7912 C   0  0  0  0  0  0  0  0  0  0  0  0
    5.8031   -0.4071  -15.9238 N   0  0  0  0  0  0  0  0  0  0  0  0
    6.0073    0.6703  -15.1124 C   0  0  0  0  0  0  0  0  0  0  0  0
    7.1370    1.4396  -15.2496 C   0  0  0  0  0  0  0  0  0  0  0  0
    7.3907    2.5583  -14.4369 C   0  0  0  0  0  0  0  0  0  0  0  0
    6.4506    2.8576  -13.4848 C   0  0  0  0  0  0  0  0  0  0  0  0
    5.3151    2.0828  -13.3484 C   0  0  0  0  0  0  0  0  0  0  0  0
    5.0721    0.9859  -14.1493 C   0  0  0  0  0  0  0  0  0  0  0  0
    3.9485    0.1962  -14.0339 C   0  0  0  0  0  0  0  0  0  0  0  0
    3.7277   -0.8997  -14.8496 C   0  0  0  0  0  0  0  0  0  0  0  0
    6.7040    4.0197  -12.6325 C   0  0  0  0  0  0  0  0  0  0  0  0
    5.8673    4.3231  -11.7523 O   0  0  0  0  0  0  0  0  0  0  0  0
    7.9045    4.8280  -12.7860 C   0  0  0  0  0  0  0  0  0  0  0  0
    8.1687    5.9281  -11.9970 C   0  0  0  0  0  0  0  0  0  0  0  0
    9.3112    6.6886  -12.1509 C   0  0  0  0  0  0  0  0  0  0  0  0
   10.2277    6.3479  -13.1224 C   0  0  0  0  0  0  0  0  0  0  0  0
    9.9797    5.2605  -13.9119 C   0  0  0  0  0  0  0  0  0  0  0  0
    8.8120    4.4853  -13.7529 C   0  0  0  0  0  0  0  0  0  0  0  0
    8.6255    3.3292  -14.6496 C   0  0  0  0  0  0  0  0  0  0  0  0
    9.5929    7.8216  -11.3467 N   0  0  0  0  0  0  0  0  0  0  0  0
    9.9524    7.6749  -10.1268 C   0  0  0  0  0  0  0  0  0  0  0  0
   10.0634    6.4527   -9.6076 N   0  0  0  0  0  0  0  0  0  0  0  0
   10.4428    6.2504   -8.3126 C   0  0  0  0  0  0  0  0  0  0  0  0
   10.7093    7.3661   -7.5555 C   0  0  0  0  0  0  0  0  0  0  0  0
   11.0945    7.2301   -6.2474 C   0  0  0  0  0  0  0  0  0  0  0  0
   11.3721    8.3445   -5.4509 C   0  0  0  0  0  0  0  0  0  0  0  0
   11.2496    9.5906   -6.0117 C   0  0  0  0  0  0  0  0  0  0  0  0
   10.8612    9.7704   -7.3356 C   0  0  0  0  0  0  0  0  0  0  0  0
   10.5965    8.6318   -8.0859 C   0  0  0  0  0  0  0  0  0  0  0  0
   10.2140    8.7505   -9.3808 N   0  0  0  0  0  0  0  0  0  0  0  0
   10.1360    9.7285   -9.7601 H   0  0  0  0  0  0  0  0  0  0  0  0
   11.7814    8.2344   -4.0631 C   0  0  0  0  0  0  0  0  0  0  0  0
   12.0515    9.3565   -3.2924 C   0  0  0  0  0  0  0  0  0  0  0  0
   12.4340    9.1677   -1.9830 C   0  0  0  0  0  0  0  0  0  0  0  0
   12.5557    7.9079   -1.4194 C   0  0  0  0  0  0  0  0  0  0  0  0
   12.2869    6.7842   -2.1865 C   0  0  0  0  0  0  0  0  0  0  0  0
   11.9057    6.9888   -3.4931 C   0  0  0  0  0  0  0  0  0  0  0  0
  1  2  1  0
  2  3  1  0
  3  4  2  0
  4  5  1  0
  5  6  2  0
  6  7  1  0
  7  8  2  0
  8  9  1  0
  9 10  2  0
 10 11  1  0
 11 12  2  0
  8 13  1  0
 13 14  2  0
 13 15  1  0
 15 16  2  0
 16 17  1  0
 17 22  1  0
 22 23  2  0
 23 24  1  0
 24 25  2  0
 25 26  1  0
 26 27  2  0
 27 28  1  0
 28 34  1  0
 34 35  2  0
 35 36  1  0
 36 37  2  0
 37 38  1  0
 38 39  2  0
 28 29  2  0
 29 30  1  0
 30 31  2  0
 31 32  1  0
 32 33  1  0
 17 18  2  0
 18 19  1  0
 19 20  2  0
 20 21  1  0
 12  3  1  0
 20 15  1  0
 10  5  1  0
 32 23  1  0
 21  7  1  0
 31 26  1  0
 39 34  1  0
M  END
>  <minimizedAffinity>  (856) 
-16.59559

$$$$
Mol: 190_2 - SminaDock
     RDKit          3D

 52 61  0  0  0  0  0  0  0  0999 V2000
    5.0926    1.0544  -13.2234 C   0  0  0  0  0  0  0  0  0  0  0  0
    5.8449    0.4470  -14.3600 C   0  0  0  0  0  0  0  0  0  0  0  0
    5.5816   -0.6598  -15.0689 N   0  0  0  0  0  0  0  0  0  0  0  0
    6.5171   -0.8469  -16.0088 N   0  0  0  0  0  0  0  0  0  0  0  0
    7.4091    0.1220  -15.9422 C   0  0  0  0  0  0  0  0  0  0  0  0
    8.5433    0.3683  -16.6866 C   0  0  0  0  0  0  0  0  0  0  0  0
    9.2781    1.4752  -16.3713 C   0  0  0  0  0  0  0  0  0  0  0  0
    8.8679    2.3257  -15.3157 C   0  0  0  0  0  0  0  0  0  0  0  0
    7.7448    2.0873  -14.5773 C   0  0  0  0  0  0  0  0  0  0  0  0
    7.0236    0.9591  -14.9171 C   0  0  0  0  0  0  0  0  0  0  0  0
    9.5702    3.5248  -14.9112 C   0  0  0  0  0  0  0  0  0  0  0  0
    9.4054    3.7431  -13.5742 C   0  0  0  0  0  0  0  0  0  0  0  0
   10.0430    4.8806  -13.0507 C   0  0  0  0  0  0  0  0  0  0  0  0
   10.7795    5.6982  -13.8648 C   0  0  0  0  0  0  0  0  0  0  0  0
   10.9278    5.4439  -15.2233 C   0  0  0  0  0  0  0  0  0  0  0  0
   10.3165    4.3503  -15.7457 C   0  0  0  0  0  0  0  0  0  0  0  0
   10.5097    4.1852  -17.2277 C   0  0  2  0  0  0  0  0  0  0  0  0
   11.1448    5.3231  -17.8989 C   0  0  0  0  0  0  0  0  0  0  0  0
   10.6235    5.1599  -19.2268 O   0  0  0  0  0  0  0  0  0  0  0  0
    9.2794    4.8108  -18.9670 C   0  0  0  0  0  0  0  0  0  0  0  0
    8.2742    5.0935  -19.9125 O   0  0  0  0  0  0  0  0  0  0  0  0
    9.1566    4.2462  -17.8262 N   0  0  0  0  0  0  0  0  0  0  0  0
   10.9908    2.8547  -17.6088 C   0  0  0  0  0  0  0  0  0  0  0  0
   12.0967    2.8153  -18.4151 C   0  0  0  0  0  0  0  0  0  0  0  0
   12.6655    1.6169  -18.8392 C   0  0  0  0  0  0  0  0  0  0  0  0
   13.7791    1.6424  -19.6475 C   0  0  0  0  0  0  0  0  0  0  0  0
   14.3474    0.4633  -20.0675 C   0  0  0  0  0  0  0  0  0  0  0  0
   13.7569   -0.7209  -19.6456 C   0  0  0  0  0  0  0  0  0  0  0  0
   12.6444   -0.7389  -18.8378 C   0  0  0  0  0  0  0  0  0  0  0  0
   12.0653    0.4343  -18.4101 C   0  0  0  0  0  0  0  0  0  0  0  0
   10.9430    0.4121  -17.5914 C   0  0  0  0  0  0  0  0  0  0  0  0
   10.4515    1.6345  -17.2256 C   0  0  0  0  0  0  0  0  0  0  0  0
    6.5419   -1.6424  -16.6984 H   0  0  0  0  0  0  0  0  0  0  0  0
    7.3012    4.9429  -19.6644 H   0  0  0  0  0  0  0  0  0  0  0  0
   11.3795    6.8887  -13.3868 N   0  0  0  0  0  0  0  0  0  0  0  0
   11.7319    7.5476  -14.1319 H   0  0  0  0  0  0  0  0  0  0  0  0
   11.4994    7.1702  -12.0003 C   0  0  0  0  0  0  0  0  0  0  0  0
   12.6366    7.7787  -11.5415 N   0  0  0  0  0  0  0  0  0  0  0  0
   12.8314    8.0339  -10.2498 C   0  0  0  0  0  0  0  0  0  0  0  0
   11.8652    7.6821   -9.3075 C   0  0  0  0  0  0  0  0  0  0  0  0
   12.0528    7.9201   -7.9702 C   0  0  0  0  0  0  0  0  0  0  0  0
   11.1145    7.5641   -7.0132 C   0  0  0  0  0  0  0  0  0  0  0  0
    9.9743    6.9555   -7.4703 C   0  0  0  0  0  0  0  0  0  0  0  0
    9.7765    6.7103   -8.8309 C   0  0  0  0  0  0  0  0  0  0  0  0
   10.7180    7.0684   -9.7758 C   0  0  0  0  0  0  0  0  0  0  0  0
   10.5797    6.8369  -11.1038 N   0  0  0  0  0  0  0  0  0  0  0  0
   11.3390    7.8138   -5.6074 C   0  0  0  0  0  0  0  0  0  0  0  0
   11.3849    6.8209   -4.6525 C   0  0  0  0  0  0  0  0  0  0  0  0
   11.6164    7.1203   -3.3271 C   0  0  0  0  0  0  0  0  0  0  0  0
   11.8039    8.4293   -2.9475 C   0  0  0  0  0  0  0  0  0  0  0  0
   11.7563    9.3871   -3.8805 N   0  0  0  0  0  0  0  0  0  0  0  0
   11.5318    9.1193   -5.1854 C   0  0  0  0  0  0  0  0  0  0  0  0
  1  2  1  0
  2  3  2  0
  3  4  1  0
  4  5  1  0
  5  6  2  0
  6  7  1  0
  7  8  2  0
  8  9  1  0
  9 10  2  0
  8 11  1  0
 11 12  2  0
 12 13  1  0
 13 14  2  0
 14 35  1  0
 35 37  1  0
 37 38  2  0
 38 39  1  0
 39 40  2  0
 40 41  1  0
 41 42  2  0
 42 47  1  0
 47 48  2  0
 48 49  1  0
 49 50  2  0
 50 51  1  0
 51 52  2  0
 42 43  1  0
 43 44  2  0
 44 45  1  0
 45 46  2  0
 14 15  1  0
 15 16  2  0
 16 17  1  0
 17 18  1  6
 18 19  1  0
 19 20  1  0
 20 21  1  0
 20 22  2  0
 17 23  1  0
 23 24  2  0
 24 25  1  0
 25 26  2  0
 26 27  1  0
 27 28  2  0
 28 29  1  0
 29 30  2  0
 30 31  1  0
 31 32  2  0
 10  2  1  0
 16 11  1  0
 22 17  1  0
 32 23  1  0
 10  5  1  0
 46 37  1  0
 30 25  1  0
 32  7  1  0
 45 40  1  0
 52 47  1  0
  4 33  1  0
 35 36  1  0
 21 34  1  0
M  END
>  <minimizedAffinity>  (857) 
-16.62371

$$$$
Mol: 190_11 - SminaDock
     RDKit          3D

 42 49  0  0  0  0  0  0  0  0999 V2000
    6.3533   -3.3988  -18.3167 H   0  0  0  0  0  0  0  0  0  0  0  0
    6.7925   -2.4993  -18.1007 O   0  0  0  0  0  0  0  0  0  0  0  0
    6.2530   -1.6040  -17.1832 C   0  0  0  0  0  0  0  0  0  0  0  0
    7.0089   -0.6221  -16.6958 N   0  0  0  0  0  0  0  0  0  0  0  0
    6.5332    0.2682  -15.8071 C   0  0  0  0  0  0  0  0  0  0  0  0
    7.1396    1.3600  -15.1760 C   0  0  0  0  0  0  0  0  0  0  0  0
    6.1940    1.9343  -14.3575 C   0  0  0  0  0  0  0  0  0  0  0  0
    5.0761    1.2196  -14.4932 N   0  0  0  0  0  0  0  0  0  0  0  0
    4.1847    1.4091  -14.0004 H   0  0  0  0  0  0  0  0  0  0  0  0
    5.2346    0.2074  -15.3553 C   0  0  0  0  0  0  0  0  0  0  0  0
    4.4192   -0.7940  -15.8354 C   0  0  0  0  0  0  0  0  0  0  0  0
    4.9483   -1.6833  -16.7438 C   0  0  0  0  0  0  0  0  0  0  0  0
    6.7760    3.0878  -13.6715 C   0  0  0  0  0  0  0  0  0  0  0  0
    6.2540    3.9925  -12.7583 C   0  0  0  0  0  0  0  0  0  0  0  0
    7.0127    5.0146  -12.2471 C   0  0  0  0  0  0  0  0  0  0  0  0
    8.3197    5.1431  -12.6505 C   0  0  0  0  0  0  0  0  0  0  0  0
    8.8122    4.2307  -13.5581 C   0  0  0  0  0  0  0  0  0  0  0  0
    8.0803    3.1909  -14.0936 C   0  0  0  0  0  0  0  0  0  0  0  0
    8.4115    2.1007  -15.0775 C   0  0  2  0  0  0  0  0  0  0  0  0
    8.7697    2.7899  -16.3646 C   0  0  0  0  0  0  0  0  0  0  0  0
   10.2475    2.6746  -16.5853 C   0  0  0  0  0  0  0  0  0  0  0  0
   10.5799    1.3435  -16.7531 O   0  0  0  0  0  0  0  0  0  0  0  0
   10.2209    0.5436  -15.6989 C   0  0  0  0  0  0  0  0  0  0  0  0
    9.5115    1.2272  -14.5778 C   0  0  0  0  0  0  0  0  0  0  0  0
    9.1606    6.1929  -12.1537 N   0  0  0  0  0  0  0  0  0  0  0  0
    9.4575    6.2670  -10.8968 C   0  0  0  0  0  0  0  0  0  0  0  0
   10.2479    7.2631  -10.4612 N   0  0  0  0  0  0  0  0  0  0  0  0
   10.6102    7.4223   -9.1767 C   0  0  0  0  0  0  0  0  0  0  0  0
   11.4253    8.4601   -8.7603 C   0  0  0  0  0  0  0  0  0  0  0  0
   11.7647    8.5697   -7.4073 C   0  0  0  0  0  0  0  0  0  0  0  0
   11.3009    7.6615   -6.4817 C   0  0  0  0  0  0  0  0  0  0  0  0
   10.4923    6.6431   -6.9367 C   0  0  0  0  0  0  0  0  0  0  0  0
   10.1401    6.5078   -8.2617 C   0  0  0  0  0  0  0  0  0  0  0  0
    9.3312    5.4930   -8.7255 C   0  0  0  0  0  0  0  0  0  0  0  0
    8.9849    5.3598  -10.0214 N   0  0  0  0  0  0  0  0  0  0  0  0
    8.3667    4.5793  -10.3592 H   0  0  0  0  0  0  0  0  0  0  0  0
   11.6980    7.8462   -5.0947 C   0  0  0  0  0  0  0  0  0  0  0  0
   12.3887    8.9403   -4.6548 C   0  0  0  0  0  0  0  0  0  0  0  0
   12.7272    9.0406   -3.3268 C   0  0  0  0  0  0  0  0  0  0  0  0
   12.3770    8.0462   -2.4285 C   0  0  0  0  0  0  0  0  0  0  0  0
   11.6783    6.9415   -2.8795 C   0  0  0  0  0  0  0  0  0  0  0  0
   11.3414    6.8434   -4.2050 C   0  0  0  0  0  0  0  0  0  0  0  0
  1  2  1  0
  2  3  1  0
  3  4  2  0
  4  5  1  0
  5  6  1  0
  6  7  2  0
  7  8  1  0
  8  9  1  0
  8 10  1  0
 10 11  1  0
 11 12  2  0
  7 13  1  0
 13 14  2  0
 14 15  1  0
 15 16  2  0
 16 25  1  0
 25 26  2  0
 26 27  1  0
 27 28  2  0
 28 29  1  0
 29 30  2  0
 30 31  1  0
 31 37  1  0
 37 38  2  0
 38 39  1  0
 39 40  2  0
 40 41  1  0
 41 42  2  0
 31 32  2  0
 32 33  1  0
 33 34  2  0
 34 35  1  0
 35 36  1  0
 16 17  1  0
 17 18  2  0
 18 19  1  0
 19 20  1  6
 20 21  1  0
 21 22  1  0
 22 23  1  0
 23 24  1  0
 12  3  1  0
 18 13  1  0
 24 19  1  0
 10  5  2  0
 35 26  1  0
 19  6  1  0
 33 28  1  0
 42 37  1  0
M  END
>  <minimizedAffinity>  (858) 
-16.55940

$$$$
Mol: 114_2 - SminaDock
     RDKit          3D

 44 51  0  0  0  0  0  0  0  0999 V2000
    7.9359    4.5840  -12.7340 C   0  0  0  0  0  0  0  0  0  0  0  0
    6.6954    4.3130  -12.1470 C   0  0  0  0  0  0  0  0  0  0  0  0
    5.9652    3.2396  -12.5903 C   0  0  0  0  0  0  0  0  0  0  0  0
    6.5029    2.4729  -13.6094 C   0  0  0  0  0  0  0  0  0  0  0  0
    7.7282    2.7306  -14.1970 C   0  0  0  0  0  0  0  0  0  0  0  0
    8.4504    3.7975  -13.7533 C   0  0  0  0  0  0  0  0  0  0  0  0
    8.3396    1.9268  -15.2890 C   0  0  2  0  0  0  0  0  0  0  0  0
    7.4437    1.8654  -16.4768 C   0  0  0  0  0  0  0  0  0  0  0  0
    6.2971    0.9607  -16.3636 C   0  0  0  0  0  0  0  0  0  0  0  0
    6.0252    0.2542  -17.5302 C   0  0  0  0  0  0  0  0  0  0  0  0
    4.9650   -0.6220  -17.5538 C   0  0  0  0  0  0  0  0  0  0  0  0
    4.1414   -0.8499  -16.4794 C   0  0  0  0  0  0  0  0  0  0  0  0
    4.4103   -0.1528  -15.3266 C   0  0  0  0  0  0  0  0  0  0  0  0
    5.4648    0.7392  -15.2566 C   0  0  0  0  0  0  0  0  0  0  0  0
    5.5630    1.3895  -13.9434 C   0  0  0  0  0  0  0  0  0  0  0  0
    4.7823    0.9855  -13.0449 O   0  0  0  0  0  0  0  0  0  0  0  0
    9.0084    0.6606  -14.7820 C   0  0  0  0  0  0  0  0  0  0  0  0
    9.7998    1.7738  -15.3966 C   0  0  0  0  0  0  0  0  0  0  0  0
   11.1342    7.6598   -6.8735 C   0  0  0  0  0  0  0  0  0  0  0  0
   11.3467    8.5820   -7.8723 C   0  0  0  0  0  0  0  0  0  0  0  0
   10.8927    8.3778   -9.1773 C   0  0  0  0  0  0  0  0  0  0  0  0
   10.2099    7.2235   -9.4915 C   0  0  0  0  0  0  0  0  0  0  0  0
    9.7462    6.9827  -10.7292 N   0  0  0  0  0  0  0  0  0  0  0  0
    9.0676    5.8692  -11.0786 C   0  0  0  0  0  0  0  0  0  0  0  0
    8.6475    5.6982  -12.2716 N   0  0  0  0  0  0  0  0  0  0  0  0
    8.8435    4.9512  -10.1399 N   0  0  0  0  0  0  0  0  0  0  0  0
    8.3199    4.0720  -10.3765 H   0  0  0  0  0  0  0  0  0  0  0  0
    9.2964    5.1558   -8.8724 C   0  0  0  0  0  0  0  0  0  0  0  0
    9.9887    6.2858   -8.4995 C   0  0  0  0  0  0  0  0  0  0  0  0
   10.4452    6.5057   -7.2152 C   0  0  0  0  0  0  0  0  0  0  0  0
   12.4651    8.1982   -2.8563 C   0  0  0  0  0  0  0  0  0  0  0  0
   11.7927    7.0589   -3.2483 C   0  0  0  0  0  0  0  0  0  0  0  0
   11.3630    6.8912   -4.5576 C   0  0  0  0  0  0  0  0  0  0  0  0
   11.5948    7.8587   -5.5034 C   0  0  0  0  0  0  0  0  0  0  0  0
   12.2689    8.9969   -5.1015 C   0  0  0  0  0  0  0  0  0  0  0  0
   12.7018    9.1742   -3.8015 C   0  0  0  0  0  0  0  0  0  0  0  0
    4.6649   -1.3534  -18.7877 C   0  0  0  0  0  0  0  0  0  0  0  0
    3.5474   -1.2903  -19.3548 O   0  0  0  0  0  0  0  0  0  0  0  0
    5.6705   -2.1580  -19.3603 N   0  0  0  0  0  0  0  0  0  0  0  0
    6.9691   -2.2597  -18.7350 C   0  0  0  0  0  0  0  0  0  0  0  0
    7.9331   -2.9522  -19.6842 C   0  0  0  0  0  0  0  0  0  0  0  0
    7.4771   -4.1637  -20.1289 O   0  0  0  0  0  0  0  0  0  0  0  0
    6.1419   -4.2403  -20.4325 C   0  0  0  0  0  0  0  0  0  0  0  0
    5.4507   -2.9002  -20.5762 C   0  0  0  0  0  0  0  0  0  0  0  0
 31 32  2  0
 32 33  1  0
 33 34  2  0
 34 19  1  0
 19 20  1  0
 20 21  2  0
 21 22  1  0
 22 23  2  0
 23 24  1  0
 24 25  2  0
 25  1  1  0
  1  2  2  0
  2  3  1  0
  3  4  2  0
  4  5  1  0
  5  6  2  0
  5  7  1  0
  7  8  1  6
  8  9  1  0
  9 10  2  0
 10 11  1  0
 11 37  1  0
 37 38  2  0
 37 39  1  0
 39 40  1  0
 40 41  1  0
 41 42  1  0
 42 43  1  0
 43 44  1  0
 11 12  2  0
 12 13  1  0
 13 14  2  0
 14 15  1  0
 15 16  2  0
  7 17  1  0
 17 18  1  0
 24 26  1  0
 26 27  1  0
 26 28  1  0
 28 29  2  0
 29 30  1  0
 34 35  1  0
 35 36  2  0
 36 31  1  0
 30 19  2  0
 29 22  1  0
  6  1  1  0
 18  7  1  0
 15  4  1  0
 14  9  1  0
 44 39  1  0
M  END
>  <minimizedAffinity>  (859) 
-16.57172

$$$$
Mol: 168_62 - SminaDock
     RDKit          3D

 41 47  0  0  0  0  0  0  0  0999 V2000
    3.2829   -2.7028  -17.1930 H   0  0  0  0  0  0  0  0  0  0  0  0
    4.1611   -2.3637  -17.5638 O   0  0  0  0  0  0  0  0  0  0  0  0
    4.8992   -1.3370  -16.9422 C   0  0  0  0  0  0  0  0  0  0  0  0
    4.3850   -0.8685  -15.8617 N   0  0  0  0  0  0  0  0  0  0  0  0
    4.8245    0.1411  -14.9826 C   0  0  0  0  0  0  0  0  0  0  0  0
    4.1494    0.4695  -13.9918 O   0  0  0  0  0  0  0  0  0  0  0  0
    6.0877    0.8905  -15.1374 C   0  0  0  0  0  0  0  0  0  0  0  0
    6.1881    1.9597  -14.2977 C   0  0  0  0  0  0  0  0  0  0  0  0
    7.2858    2.8057  -14.2659 C   0  0  0  0  0  0  0  0  0  0  0  0
    8.3148    2.5265  -15.1405 C   0  0  0  0  0  0  0  0  0  0  0  0
    8.2537    1.4553  -16.0064 C   0  0  0  0  0  0  0  0  0  0  0  0
    7.1285    0.6325  -16.0017 C   0  0  0  0  0  0  0  0  0  0  0  0
    7.3006   -0.4283  -17.0022 C   0  0  0  0  0  0  0  0  0  0  0  0
    6.1068   -0.9465  -17.5735 N   0  0  0  0  0  0  0  0  0  0  0  0
    6.1143   -1.1100  -19.0326 C   0  0  0  0  0  0  0  0  0  0  0  0
    9.3469    3.5489  -14.9181 C   0  0  0  0  0  0  0  0  0  0  0  0
   10.4361    3.6280  -15.5277 O   0  0  0  0  0  0  0  0  0  0  0  0
    8.8940    4.4629  -13.8653 C   0  0  0  0  0  0  0  0  0  0  0  0
    9.4493    5.5735  -13.2720 C   0  0  0  0  0  0  0  0  0  0  0  0
    8.7788    6.2457  -12.2878 C   0  0  0  0  0  0  0  0  0  0  0  0
    7.5429    5.8048  -11.8929 C   0  0  0  0  0  0  0  0  0  0  0  0
    6.9883    4.6874  -12.4923 C   0  0  0  0  0  0  0  0  0  0  0  0
    7.6394    3.9866  -13.4885 C   0  0  0  0  0  0  0  0  0  0  0  0
    9.3489    7.3832  -11.6795 N   0  0  0  0  0  0  0  0  0  0  0  0
    9.6985    7.3111  -10.4361 C   0  0  0  0  0  0  0  0  0  0  0  0
    9.5254    6.1891   -9.7427 N   0  0  0  0  0  0  0  0  0  0  0  0
    9.8574    6.0291   -8.4516 C   0  0  0  0  0  0  0  0  0  0  0  0
   10.4201    7.1055   -7.7913 C   0  0  0  0  0  0  0  0  0  0  0  0
   10.7834    7.0028   -6.4580 C   0  0  0  0  0  0  0  0  0  0  0  0
   11.3428    8.0785   -5.8059 C   0  0  0  0  0  0  0  0  0  0  0  0
   11.5200    9.2383   -6.5286 C   0  0  0  0  0  0  0  0  0  0  0  0
   11.1638    9.3530   -7.8514 C   0  0  0  0  0  0  0  0  0  0  0  0
   10.5982    8.2683   -8.5145 C   0  0  0  0  0  0  0  0  0  0  0  0
   10.2447    8.3736   -9.8153 N   0  0  0  0  0  0  0  0  0  0  0  0
   10.3997    9.2729  -10.3170 H   0  0  0  0  0  0  0  0  0  0  0  0
   11.7447    8.0244   -4.3951 C   0  0  0  0  0  0  0  0  0  0  0  0
   11.7717    6.8325   -3.6972 C   0  0  0  0  0  0  0  0  0  0  0  0
   12.1439    6.7406   -2.3704 C   0  0  0  0  0  0  0  0  0  0  0  0
   12.5103    7.8828   -1.6909 C   0  0  0  0  0  0  0  0  0  0  0  0
   12.4901    9.0885   -2.3723 C   0  0  0  0  0  0  0  0  0  0  0  0
   12.1136    9.1682   -3.7071 C   0  0  0  0  0  0  0  0  0  0  0  0
  1  2  1  0
  2  3  1  0
  3  4  2  0
  4  5  1  0
  5  6  2  0
  5  7  1  0
  7  8  2  0
  8  9  1  0
  9 10  2  0
 10 11  1  0
 11 12  2  0
 12 13  1  0
 13 14  1  0
 14 15  1  0
 10 16  1  0
 16 17  2  0
 16 18  1  0
 18 19  2  0
 19 20  1  0
 20 24  1  0
 24 25  2  0
 25 26  1  0
 26 27  2  0
 27 28  1  0
 28 29  2  0
 29 30  1  0
 30 36  1  0
 36 37  2  0
 37 38  1  0
 38 39  2  0
 39 40  1  0
 40 41  2  0
 30 31  2  0
 31 32  1  0
 32 33  2  0
 33 34  1  0
 34 35  1  0
 20 21  2  0
 21 22  1  0
 22 23  2  0
 14  3  1  0
 23 18  1  0
 12  7  1  0
 34 25  1  0
 23  9  1  0
 33 28  1  0
 41 36  1  0
M  END
>  <minimizedAffinity>  (860) 
-16.63592

$$$$
Mol: 150_34 - SminaDock
     RDKit          3D

 39 45  0  0  0  0  0  0  0  0999 V2000
    5.3288   -1.6487  -17.0178 C   0  0  0  0  0  0  0  0  0  0  0  0
    4.8168   -1.0345  -15.9398 N   0  0  0  0  0  0  0  0  0  0  0  0
    5.4535    0.0510  -15.4315 C   0  0  0  0  0  0  0  0  0  0  0  0
    4.9248    0.6874  -14.3154 C   0  0  0  0  0  0  0  0  0  0  0  0
    5.5324    1.7954  -13.7581 C   0  0  0  0  0  0  0  0  0  0  0  0
    6.6882    2.2610  -14.3422 C   0  0  0  0  0  0  0  0  0  0  0  0
    7.2532    1.6713  -15.4437 C   0  0  0  0  0  0  0  0  0  0  0  0
    6.6137    0.5506  -15.9836 C   0  0  0  0  0  0  0  0  0  0  0  0
    7.1118   -0.1036  -17.0891 C   0  0  0  0  0  0  0  0  0  0  0  0
    8.3006    0.3744  -17.6886 N   0  0  0  0  0  0  0  0  0  0  0  0
    9.2186   -0.1368  -17.6519 H   0  0  0  0  0  0  0  0  0  0  0  0
    8.2820    1.2883  -18.2021 H   0  0  0  0  0  0  0  0  0  0  0  0
    6.4856   -1.2029  -17.6204 C   0  0  0  0  0  0  0  0  0  0  0  0
    7.2750    3.4484  -13.7389 C   0  0  0  0  0  0  0  0  0  0  0  0
    8.4752    3.9568  -14.2530 C   0  0  0  0  0  0  0  0  0  0  0  0
    9.0651    5.0531  -13.6808 C   0  0  0  0  0  0  0  0  0  0  0  0
    8.5091    5.6817  -12.6005 C   0  0  0  0  0  0  0  0  0  0  0  0
    7.3469    5.2198  -12.0740 C   0  0  0  0  0  0  0  0  0  0  0  0
    6.7295    4.0919  -12.6551 C   0  0  0  0  0  0  0  0  0  0  0  0
    5.4440    3.6477  -12.0678 C   0  0  0  0  0  0  0  0  0  0  0  0
    4.9210    2.3842  -12.5680 C   0  0  0  0  0  0  0  0  0  0  0  0
    9.1874    6.8221  -12.0579 N   0  0  0  0  0  0  0  0  0  0  0  0
    9.5194    6.7903  -10.8260 C   0  0  0  0  0  0  0  0  0  0  0  0
    9.2433    5.7288  -10.0681 N   0  0  0  0  0  0  0  0  0  0  0  0
    9.5891    5.6740   -8.7483 C   0  0  0  0  0  0  0  0  0  0  0  0
   10.2395    6.7685   -8.2288 C   0  0  0  0  0  0  0  0  0  0  0  0
   10.6281    6.7982   -6.8951 C   0  0  0  0  0  0  0  0  0  0  0  0
   11.2812    7.8845   -6.3528 C   0  0  0  0  0  0  0  0  0  0  0  0
   11.5465    8.9599   -7.1712 C   0  0  0  0  0  0  0  0  0  0  0  0
   11.1799    8.9792   -8.5071 C   0  0  0  0  0  0  0  0  0  0  0  0
   10.5317    7.8693   -8.9934 C   0  0  0  0  0  0  0  0  0  0  0  0
   10.1548    7.8460  -10.2961 N   0  0  0  0  0  0  0  0  0  0  0  0
   10.3596    8.6596  -10.9015 H   0  0  0  0  0  0  0  0  0  0  0  0
   11.6843    7.9060   -4.9531 C   0  0  0  0  0  0  0  0  0  0  0  0
   12.4239    8.9588   -4.4386 C   0  0  0  0  0  0  0  0  0  0  0  0
   12.7889    8.9467   -3.1074 C   0  0  0  0  0  0  0  0  0  0  0  0
   12.4500    7.9234   -2.2474 C   0  0  0  0  0  0  0  0  0  0  0  0
   11.7138    6.8722   -2.7532 C   0  0  0  0  0  0  0  0  0  0  0  0
   11.3475    6.8845   -4.0893 C   0  0  0  0  0  0  0  0  0  0  0  0
  1  2  2  0
  2  3  1  0
  3  4  2  0
  4  5  1  0
  5  6  2  0
  6  7  1  0
  7  8  2  0
  8  9  1  0
  9 10  1  0
 10 11  1  0
 10 12  1  0
  9 13  2  0
  6 14  1  0
 14 15  2  0
 15 16  1  0
 16 17  2  0
 17 22  1  0
 22 23  2  0
 23 24  1  0
 24 25  2  0
 25 26  1  0
 26 27  2  0
 27 28  1  0
 28 34  1  0
 34 35  2  0
 35 36  1  0
 36 37  2  0
 37 38  1  0
 38 39  2  0
 28 29  2  0
 29 30  1  0
 30 31  2  0
 31 32  1  0
 32 33  1  0
 17 18  1  0
 18 19  2  0
 19 20  1  0
 20 21  1  0
 13  1  1  0
 19 14  1  0
  8  3  1  0
 32 23  1  0
 21  5  1  0
 31 26  1  0
 39 34  1  0
M  END
>  <minimizedAffinity>  (861) 
-16.55528

$$$$
Mol: 168_38 - SminaDock
     RDKit          3D

 42 49  0  0  0  0  0  0  0  0999 V2000
    5.3814    4.1679  -11.6272 O   0  0  0  0  0  0  0  0  0  0  0  0
    6.1974    3.7849  -12.5087 C   0  0  0  0  0  0  0  0  0  0  0  0
    7.4928    4.3415  -12.8388 C   0  0  0  0  0  0  0  0  0  0  0  0
    8.2207    5.4119  -12.3286 C   0  0  0  0  0  0  0  0  0  0  0  0
    9.4609    5.7751  -12.8002 C   0  0  0  0  0  0  0  0  0  0  0  0
    9.9556    4.9931  -13.8393 C   0  0  0  0  0  0  0  0  0  0  0  0
    9.2762    3.9230  -14.3807 C   0  0  0  0  0  0  0  0  0  0  0  0
    8.0312    3.6156  -13.8547 C   0  0  0  0  0  0  0  0  0  0  0  0
    7.0794    2.5645  -14.2016 C   0  0  0  0  0  0  0  0  0  0  0  0
    7.1789    1.5898  -15.1604 C   0  0  0  0  0  0  0  0  0  0  0  0
    6.1473    0.6614  -15.3423 C   0  0  0  0  0  0  0  0  0  0  0  0
    5.0411    0.7607  -14.5332 C   0  0  0  0  0  0  0  0  0  0  0  0
    4.9307    1.7493  -13.5544 C   0  0  0  0  0  0  0  0  0  0  0  0
    5.9612    2.6475  -13.3993 C   0  0  0  0  0  0  0  0  0  0  0  0
    3.9257   -0.1751  -14.6728 C   0  0  0  0  0  0  0  0  0  0  0  0
    4.0478   -1.2319  -15.6891 C   0  0  0  0  0  0  0  0  0  0  0  0
    5.2466   -1.2699  -16.5168 C   0  0  0  0  0  0  0  0  0  0  0  0
    5.3893   -2.2522  -17.5123 C   0  0  0  0  0  0  0  0  0  0  0  0
    6.5433   -2.2364  -18.2549 C   0  0  0  0  0  0  0  0  0  0  0  0
    6.6376   -3.1411  -19.1473 O   0  0  0  0  0  0  0  0  0  0  0  0
    7.5343   -1.3343  -18.0769 N   0  0  0  0  0  0  0  0  0  0  0  0
    7.3910   -0.4144  -17.1385 N   0  0  0  0  0  0  0  0  0  0  0  0
    6.2628   -0.3726  -16.3600 C   0  0  0  0  0  0  0  0  0  0  0  0
    8.3609   -1.4154  -18.6938 H   0  0  0  0  0  0  0  0  0  0  0  0
   10.1943    6.8457  -12.3003 N   0  0  0  0  0  0  0  0  0  0  0  0
   10.5354    7.5694  -13.0135 H   0  0  0  0  0  0  0  0  0  0  0  0
   10.5528    7.1039  -10.9572 C   0  0  0  0  0  0  0  0  0  0  0  0
   11.6967    7.8070  -10.6975 N   0  0  0  0  0  0  0  0  0  0  0  0
   12.1131    8.1011   -9.4611 C   0  0  0  0  0  0  0  0  0  0  0  0
   11.3898    7.6989   -8.3607 C   0  0  0  0  0  0  0  0  0  0  0  0
   11.7665    7.9710   -7.0687 C   0  0  0  0  0  0  0  0  0  0  0  0
   11.0363    7.5648   -5.9715 C   0  0  0  0  0  0  0  0  0  0  0  0
    9.8816    6.8558   -6.2114 C   0  0  0  0  0  0  0  0  0  0  0  0
    9.4945    6.5767   -7.5215 C   0  0  0  0  0  0  0  0  0  0  0  0
   10.2306    6.9868   -8.6103 C   0  0  0  0  0  0  0  0  0  0  0  0
    9.8669    6.7237   -9.8764 N   0  0  0  0  0  0  0  0  0  0  0  0
   11.5136    7.8994   -4.6331 C   0  0  0  0  0  0  0  0  0  0  0  0
   11.6884    9.2051   -4.2261 C   0  0  0  0  0  0  0  0  0  0  0  0
   12.1391    9.4912   -2.9600 C   0  0  0  0  0  0  0  0  0  0  0  0
   12.4384    8.4882   -2.0359 C   0  0  0  0  0  0  0  0  0  0  0  0
   12.2519    7.2000   -2.4775 C   0  0  0  0  0  0  0  0  0  0  0  0
   11.8043    6.8925   -3.7332 C   0  0  0  0  0  0  0  0  0  0  0  0
  1  2  2  0
  2  3  1  0
  3  4  2  0
  4  5  1  0
  5 25  1  0
 25 27  1  0
 27 28  2  0
 28 29  1  0
 29 30  2  0
 30 31  1  0
 31 32  2  0
 32 37  1  0
 37 38  2  0
 38 39  1  0
 39 40  2  0
 40 41  1  0
 41 42  2  0
 32 33  1  0
 33 34  2  0
 34 35  1  0
 35 36  2  0
  5  6  2  0
  6  7  1  0
  7  8  2  0
  8  9  1  0
  9 10  2  0
 10 11  1  0
 11 12  2  0
 12 13  1  0
 13 14  2  0
 12 15  1  0
 15 16  1  0
 16 17  1  0
 17 18  2  0
 18 19  1  0
 19 20  2  0
 19 21  1  0
 21 22  1  0
 22 23  2  0
 14  2  1  0
 23 17  1  0
  8  3  1  0
 14  9  1  0
 36 27  1  0
 23 11  1  0
 35 30  1  0
 42 37  1  0
 25 26  1  0
 21 24  1  0
M  END
>  <minimizedAffinity>  (862) 
-16.64738

$$$$
Mol: 189_29 - SminaDock
     RDKit          3D

 39 45  0  0  0  0  0  0  0  0999 V2000
    3.6085    0.6040  -13.9548 O   0  0  0  0  0  0  0  0  0  0  0  0
    4.3862    0.1243  -14.8586 C   0  0  0  0  0  0  0  0  0  0  0  0
    3.8830   -1.0052  -15.6038 N   0  0  0  0  0  0  0  0  0  0  0  0
    5.1197   -1.4065  -16.7055 S   0  0  1  0  0  0  0  0  0  0  0  0
    5.7338   -2.7452  -16.4305 O   0  0  0  0  0  0  0  0  0  0  0  0
    4.7052   -1.2647  -18.1400 O   0  0  0  0  0  0  0  0  0  0  0  0
    6.2744   -0.1717  -16.2500 C   0  0  0  0  0  0  0  0  0  0  0  0
    7.5241    0.0653  -16.7716 C   0  0  0  0  0  0  0  0  0  0  0  0
    8.2727    1.0846  -16.2739 C   0  0  0  0  0  0  0  0  0  0  0  0
    7.7300    1.8377  -15.2571 C   0  0  0  0  0  0  0  0  0  0  0  0
    8.4785    2.8584  -14.7583 N   0  0  0  0  0  0  0  0  0  0  0  0
    8.0730    3.6661  -13.7725 C   0  0  0  0  0  0  0  0  0  0  0  0
    8.8788    4.6905  -13.3044 C   0  0  0  0  0  0  0  0  0  0  0  0
    8.4769    5.5365  -12.2857 C   0  0  0  0  0  0  0  0  0  0  0  0
    7.2287    5.3278  -11.7389 C   0  0  0  0  0  0  0  0  0  0  0  0
    6.4296    4.2990  -12.2150 C   0  0  0  0  0  0  0  0  0  0  0  0
    6.8384    3.4630  -13.2287 C   0  0  0  0  0  0  0  0  0  0  0  0
    6.0368    2.4338  -13.7038 C   0  0  0  0  0  0  0  0  0  0  0  0
    4.9354    2.3048  -13.1705 O   0  0  0  0  0  0  0  0  0  0  0  0
    6.4644    1.6180  -14.7103 C   0  0  0  0  0  0  0  0  0  0  0  0
    5.6904    0.5540  -15.2339 C   0  0  0  0  0  0  0  0  0  0  0  0
    9.3078    6.5653  -11.8284 N   0  0  0  0  0  0  0  0  0  0  0  0
    9.6117    6.6499  -10.5862 C   0  0  0  0  0  0  0  0  0  0  0  0
    9.1182    5.7339   -9.7323 N   0  0  0  0  0  0  0  0  0  0  0  0
    9.4503    5.8430   -8.4340 C   0  0  0  0  0  0  0  0  0  0  0  0
   10.2643    6.8364   -7.9328 C   0  0  0  0  0  0  0  0  0  0  0  0
   10.5924    6.9297   -6.5961 C   0  0  0  0  0  0  0  0  0  0  0  0
   11.4068    7.9244   -6.0968 C   0  0  0  0  0  0  0  0  0  0  0  0
   11.9019    8.8528   -6.9887 C   0  0  0  0  0  0  0  0  0  0  0  0
   11.5699    8.7591   -8.3433 C   0  0  0  0  0  0  0  0  0  0  0  0
   10.7547    7.7606   -8.8321 C   0  0  0  0  0  0  0  0  0  0  0  0
   10.4229    7.6520  -10.1307 N   0  0  0  0  0  0  0  0  0  0  0  0
    8.4878    4.9539  -10.0818 H   0  0  0  0  0  0  0  0  0  0  0  0
   11.7425    8.0047   -4.6688 C   0  0  0  0  0  0  0  0  0  0  0  0
   12.1033    9.1923   -4.0775 C   0  0  0  0  0  0  0  0  0  0  0  0
   12.4139    9.2498   -2.7403 C   0  0  0  0  0  0  0  0  0  0  0  0
   12.3706    8.1181   -1.9625 C   0  0  0  0  0  0  0  0  0  0  0  0
   12.0094    6.9241   -2.5498 C   0  0  0  0  0  0  0  0  0  0  0  0
   11.6977    6.8571   -3.8841 C   0  0  0  0  0  0  0  0  0  0  0  0
  1  2  2  0
  2  3  1  0
  4  3  1  1
  4  5  2  0
  4  6  2  0
  4  7  1  0
  7  8  2  0
  8  9  1  0
  9 10  2  0
 10 11  1  0
 11 12  1  0
 12 13  2  0
 13 14  1  0
 14 22  1  0
 22 23  2  0
 23 24  1  0
 24 25  1  0
 25 26  2  0
 26 27  1  0
 27 28  2  0
 28 34  1  0
 34 35  2  0
 35 36  1  0
 36 37  2  0
 37 38  1  0
 38 39  2  0
 28 29  1  0
 29 30  2  0
 30 31  1  0
 31 32  2  0
 14 15  2  0
 15 16  1  0
 16 17  2  0
 17 18  1  0
 18 19  2  0
 18 20  1  0
 20 21  2  0
 21  2  1  0
 21  7  1  0
 20 10  1  0
 17 12  1  0
 32 23  1  0
 31 26  1  0
 39 34  1  0
 24 33  1  0
M  CHG  2   3  -1  11  -1
M  END
>  <minimizedAffinity>  (863) 
-16.57187

$$$$
Mol: 189_59 - SminaDock
     RDKit          3D

 40 46  0  0  0  0  0  0  0  0999 V2000
    9.3084    6.2842  -12.2133 C   0  0  0  0  0  0  0  0  0  0  0  0
    8.0562    6.7624  -11.9075 C   0  0  0  0  0  0  0  0  0  0  0  0
    6.9247    6.0215  -12.1484 C   0  0  0  0  0  0  0  0  0  0  0  0
    7.0121    4.7534  -12.7141 C   0  0  0  0  0  0  0  0  0  0  0  0
    8.2641    4.2672  -13.0232 C   0  0  0  0  0  0  0  0  0  0  0  0
    9.4051    5.0329  -12.7721 C   0  0  0  0  0  0  0  0  0  0  0  0
    8.3814    2.9355  -13.6183 C   0  0  0  0  0  0  0  0  0  0  0  0
    9.5283    2.4889  -13.9021 O   0  0  0  0  0  0  0  0  0  0  0  0
    7.1697    2.1965  -13.8514 C   0  0  0  0  0  0  0  0  0  0  0  0
    5.9326    2.6957  -13.5377 C   0  0  0  0  0  0  0  0  0  0  0  0
    4.8309    1.9064  -13.8005 C   0  0  0  0  0  0  0  0  0  0  0  0
    4.9478    0.6523  -14.3606 C   0  0  0  0  0  0  0  0  0  0  0  0
    3.8270   -0.1390  -14.6228 C   0  0  0  0  0  0  0  0  0  0  0  0
    4.0215   -1.3859  -15.1854 C   0  0  0  0  0  0  0  0  0  0  0  0
    5.2766   -1.8686  -15.4933 C   0  0  0  0  0  0  0  0  0  0  0  0
    5.5042   -3.1465  -16.0721 N   0  0  0  0  0  0  0  0  0  0  0  0
    4.9659   -3.4364  -16.9219 H   0  0  0  0  0  0  0  0  0  0  0  0
    6.1905   -3.8210  -15.6881 H   0  0  0  0  0  0  0  0  0  0  0  0
    6.3330   -1.0905  -15.2321 N   0  0  0  0  0  0  0  0  0  0  0  0
    6.1781    0.1467  -14.6766 C   0  0  0  0  0  0  0  0  0  0  0  0
    7.2889    0.9226  -14.4203 C   0  0  0  0  0  0  0  0  0  0  0  0
    5.7558    4.0126  -12.9459 C   0  0  0  0  0  0  0  0  0  0  0  0
   11.2233    7.6429   -5.8308 C   0  0  0  0  0  0  0  0  0  0  0  0
   10.1155    6.8947   -6.1663 C   0  0  0  0  0  0  0  0  0  0  0  0
    9.7328    6.6228   -7.4602 C   0  0  0  0  0  0  0  0  0  0  0  0
   10.5003    7.1269   -8.4951 C   0  0  0  0  0  0  0  0  0  0  0  0
   10.1286    6.8629   -9.7408 N   0  0  0  0  0  0  0  0  0  0  0  0
   10.8544    7.3389  -10.7670 C   0  0  0  0  0  0  0  0  0  0  0  0
   10.4626    7.0623  -11.9579 N   0  0  0  0  0  0  0  0  0  0  0  0
   11.9498    8.0778  -10.5190 N   0  0  0  0  0  0  0  0  0  0  0  0
   12.5133    8.4472  -11.3152 H   0  0  0  0  0  0  0  0  0  0  0  0
   12.3618    8.3689   -9.2743 C   0  0  0  0  0  0  0  0  0  0  0  0
   11.6127    7.8775   -8.2186 C   0  0  0  0  0  0  0  0  0  0  0  0
   11.9786    8.1383   -6.8979 C   0  0  0  0  0  0  0  0  0  0  0  0
   12.3530    8.4379   -1.8215 C   0  0  0  0  0  0  0  0  0  0  0  0
   12.0742    9.4299   -2.6854 N   0  0  0  0  0  0  0  0  0  0  0  0
   11.7145    9.2045   -3.9588 C   0  0  0  0  0  0  0  0  0  0  0  0
   11.6052    7.9144   -4.4745 C   0  0  0  0  0  0  0  0  0  0  0  0
   11.8901    6.8917   -3.5930 C   0  0  0  0  0  0  0  0  0  0  0  0
   12.2587    7.1377   -2.2864 C   0  0  0  0  0  0  0  0  0  0  0  0
 35 36  2  0
 36 37  1  0
 37 38  2  0
 38 23  1  0
 23 24  1  0
 24 25  2  0
 25 26  1  0
 26 27  2  0
 27 28  1  0
 28 29  2  0
 29  1  1  0
  1  2  2  0
  2  3  1  0
  3  4  2  0
  4  5  1  0
  5  6  2  0
  5  7  1  0
  7  8  2  0
  7  9  1  0
  9 10  2  0
 10 11  1  0
 11 12  2  0
 12 13  1  0
 13 14  2  0
 14 15  1  0
 15 16  1  0
 16 17  1  0
 16 18  1  0
 15 19  2  0
 19 20  1  0
 20 21  2  0
 10 22  1  0
 28 30  1  0
 30 31  1  0
 30 32  1  0
 32 33  2  0
 33 34  1  0
 38 39  1  0
 39 40  2  0
 40 35  1  0
 34 23  2  0
 33 26  1  0
  6  1  1  0
 21  9  1  0
 22  4  1  0
 20 12  1  0
M  END
>  <minimizedAffinity>  (864) 
-16.64206

$$$$
Mol: 135_22 - SminaDock
     RDKit          3D

 41 48  0  0  0  0  0  0  0  0999 V2000
    9.5129    6.0167  -12.6599 C   0  0  0  0  0  0  0  0  0  0  0  0
    8.2468    6.2256  -12.1900 C   0  0  0  0  0  0  0  0  0  0  0  0
    7.2906    5.2543  -12.4253 C   0  0  0  0  0  0  0  0  0  0  0  0
    7.6160    4.1003  -13.1217 C   0  0  0  0  0  0  0  0  0  0  0  0
    8.8908    3.8829  -13.6040 C   0  0  0  0  0  0  0  0  0  0  0  0
    9.8580    4.8660  -13.3624 C   0  0  0  0  0  0  0  0  0  0  0  0
    9.1731    2.7214  -14.4310 C   0  0  1  0  0  0  0  0  0  0  0  0
    8.3742    1.5198  -14.1322 C   0  0  0  0  0  0  0  0  0  0  0  0
    6.9764    1.8107  -13.8085 C   0  0  0  0  0  0  0  0  0  0  0  0
    6.6154    3.0103  -13.2420 C   0  0  0  0  0  0  0  0  0  0  0  0
    5.3165    3.2768  -12.8513 C   0  0  0  0  0  0  0  0  0  0  0  0
    4.3492    2.3039  -13.0402 C   0  0  0  0  0  0  0  0  0  0  0  0
    4.7402    1.1173  -13.6105 C   0  0  0  0  0  0  0  0  0  0  0  0
    4.0179   -0.0080  -13.9107 N   0  0  0  0  0  0  0  0  0  0  0  0
    4.8097   -0.8958  -14.4415 N   0  0  0  0  0  0  0  0  0  0  0  0
    6.0686   -0.3640  -14.4978 C   0  0  0  0  0  0  0  0  0  0  0  0
    7.0768   -0.9400  -14.9478 O   0  0  0  0  0  0  0  0  0  0  0  0
    6.0031    0.8731  -13.9827 N   0  0  0  0  0  0  0  0  0  0  0  0
    8.8966    3.0385  -15.9260 C   0  0  0  0  0  0  0  0  0  0  0  0
    9.5750    1.9579  -16.6130 N   0  0  0  0  0  0  0  0  0  0  0  0
    8.8642    1.2588  -16.9005 H   0  0  0  0  0  0  0  0  0  0  0  0
   10.6022    1.4544  -15.7672 C   0  0  0  0  0  0  0  0  0  0  0  0
   10.6599    2.4011  -14.5613 C   0  0  0  0  0  0  0  0  0  0  0  0
   11.1605    7.5610   -6.2087 C   0  0  0  0  0  0  0  0  0  0  0  0
   10.2126    6.6055   -6.5104 C   0  0  0  0  0  0  0  0  0  0  0  0
    9.8901    6.3047   -7.8264 C   0  0  0  0  0  0  0  0  0  0  0  0
   10.5012    6.9456   -8.8807 C   0  0  0  0  0  0  0  0  0  0  0  0
   10.1940    6.6601  -10.1741 N   0  0  0  0  0  0  0  0  0  0  0  0
   10.7918    7.2873  -11.1982 C   0  0  0  0  0  0  0  0  0  0  0  0
   10.4958    7.0104  -12.4159 N   0  0  0  0  0  0  0  0  0  0  0  0
   11.7202    8.2238  -10.9369 N   0  0  0  0  0  0  0  0  0  0  0  0
   12.1663    8.6928  -11.7578 H   0  0  0  0  0  0  0  0  0  0  0  0
   12.0485    8.5310   -9.6559 C   0  0  0  0  0  0  0  0  0  0  0  0
   11.4494    7.9017   -8.5857 C   0  0  0  0  0  0  0  0  0  0  0  0
   11.7674    8.1978   -7.2716 C   0  0  0  0  0  0  0  0  0  0  0  0
   12.1856    8.4370   -2.1576 C   0  0  0  0  0  0  0  0  0  0  0  0
   12.0145    9.4567   -3.0599 C   0  0  0  0  0  0  0  0  0  0  0  0
   11.6826    9.1727   -4.3718 C   0  0  0  0  0  0  0  0  0  0  0  0
   11.5100    7.8880   -4.8336 C   0  0  0  0  0  0  0  0  0  0  0  0
   11.6831    6.8689   -3.9229 C   0  0  0  0  0  0  0  0  0  0  0  0
   12.0149    7.1282   -2.6066 C   0  0  0  0  0  0  0  0  0  0  0  0
 36 37  2  0
 37 38  1  0
 38 39  2  0
 39 24  1  0
 24 25  1  0
 25 26  2  0
 26 27  1  0
 27 28  2  0
 28 29  1  0
 29 30  2  0
 30  1  1  0
  1  2  2  0
  2  3  1  0
  3  4  2  0
  4  5  1  0
  5  6  2  0
  5  7  1  0
  7  8  1  1
  8  9  1  0
  9 10  2  0
 10 11  1  0
 11 12  2  0
 12 13  1  0
 13 14  2  0
 14 15  1  0
 15 16  1  0
 16 17  2  0
 16 18  1  0
  7 19  1  0
 19 20  1  0
 20 21  1  0
 20 22  1  0
 22 23  1  0
 29 31  1  0
 31 32  1  0
 31 33  1  0
 33 34  2  0
 34 35  1  0
 39 40  1  0
 40 41  2  0
 41 36  1  0
 35 24  2  0
 34 27  1  0
  6  1  1  0
 23  7  1  0
 10  4  1  0
 18 13  1  0
 18  9  1  0
M  CHG  1  15  -1
M  END
>  <minimizedAffinity>  (865) 
-16.62343

$$$$
Mol: 135_31 - SminaDock
     RDKit          3D

 37 43  0  0  0  0  0  0  0  0999 V2000
    3.6568   -1.4125  -14.1084 H   0  0  0  0  0  0  0  0  0  0  0  0
    4.6365   -1.2321  -14.3634 O   0  0  0  0  0  0  0  0  0  0  0  0
    5.2258   -0.0510  -13.9663 C   0  0  0  0  0  0  0  0  0  0  0  0
    4.9353    0.6531  -12.8906 N   0  0  0  0  0  0  0  0  0  0  0  0
    5.7246    1.8172  -12.7645 C   0  0  1  0  0  0  0  0  0  0  0  0
    6.5881    1.7326  -13.9979 C   0  0  0  0  0  0  0  0  0  0  0  0
    6.2869    0.6189  -14.6991 C   0  0  0  0  0  0  0  0  0  0  0  0
    7.0009    0.4381  -15.8815 C   0  0  0  0  0  0  0  0  0  0  0  0
    7.9667    1.3646  -16.3048 C   0  0  0  0  0  0  0  0  0  0  0  0
    8.2573    2.5145  -15.5571 C   0  0  0  0  0  0  0  0  0  0  0  0
    7.5433    2.6495  -14.4148 C   0  0  0  0  0  0  0  0  0  0  0  0
    7.8738    3.8665  -13.6665 C   0  0  0  0  0  0  0  0  0  0  0  0
    9.1749    4.2213  -13.8837 C   0  0  0  0  0  0  0  0  0  0  0  0
    9.6228    5.3722  -13.2449 C   0  0  0  0  0  0  0  0  0  0  0  0
    8.7915    6.1042  -12.4387 C   0  0  0  0  0  0  0  0  0  0  0  0
    7.5013    5.7220  -12.2415 C   0  0  0  0  0  0  0  0  0  0  0  0
    6.9798    4.5750  -12.8521 C   0  0  0  0  0  0  0  0  0  0  0  0
    5.5754    4.3452  -12.4830 C   0  0  0  0  0  0  0  0  0  0  0  0
    4.9173    3.0768  -12.8259 C   0  0  0  0  0  0  0  0  0  0  0  0
    9.3250    7.2668  -11.8230 N   0  0  0  0  0  0  0  0  0  0  0  0
    9.6601    7.1959  -10.5895 C   0  0  0  0  0  0  0  0  0  0  0  0
    9.5238    6.0734   -9.8739 N   0  0  0  0  0  0  0  0  0  0  0  0
    9.8735    5.9989   -8.5911 N   0  0  0  0  0  0  0  0  0  0  0  0
   10.3883    7.0703   -7.9499 C   0  0  0  0  0  0  0  0  0  0  0  0
   10.7627    7.0325   -6.6220 C   0  0  0  0  0  0  0  0  0  0  0  0
   11.2888    8.1245   -5.9645 C   0  0  0  0  0  0  0  0  0  0  0  0
   11.4295    9.2814   -6.7017 C   0  0  0  0  0  0  0  0  0  0  0  0
   11.0561    9.3222   -8.0288 C   0  0  0  0  0  0  0  0  0  0  0  0
   10.5299    8.2295   -8.6858 C   0  0  0  0  0  0  0  0  0  0  0  0
   10.1673    8.2788   -9.9864 N   0  0  0  0  0  0  0  0  0  0  0  0
   10.3046    9.1968  -10.4829 H   0  0  0  0  0  0  0  0  0  0  0  0
   11.6792    8.0579   -4.5513 C   0  0  0  0  0  0  0  0  0  0  0  0
   11.6928    6.8765   -3.8405 C   0  0  0  0  0  0  0  0  0  0  0  0
   12.0494    6.7714   -2.5251 C   0  0  0  0  0  0  0  0  0  0  0  0
   12.4226    7.9359   -1.8642 C   0  0  0  0  0  0  0  0  0  0  0  0
   12.4204    9.1404   -2.5480 C   0  0  0  0  0  0  0  0  0  0  0  0
   12.0511    9.2054   -3.8854 C   0  0  0  0  0  0  0  0  0  0  0  0
  1  2  1  0
  2  3  1  0
  3  4  2  0
  4  5  1  0
  5  6  1  0
  6  7  2  0
  7  8  1  0
  8  9  2  0
  9 10  1  0
 10 11  2  0
 11 12  1  0
 12 13  2  0
 13 14  1  0
 14 15  2  0
 15 20  1  0
 20 21  2  0
 21 22  1  0
 22 23  2  0
 23 24  1  0
 24 25  2  0
 25 26  1  0
 26 32  1  0
 32 33  2  0
 33 34  1  0
 34 35  2  0
 35 36  1  0
 36 37  2  0
 26 27  2  0
 27 28  1  0
 28 29  2  0
 29 30  1  0
 30 31  1  0
 15 16  1  0
 16 17  2  0
 17 18  1  0
 18 19  1  0
  7  3  1  0
 17 12  1  0
  5 19  1  6
 11  6  1  0
 30 21  1  0
 29 24  1  0
 37 32  1  0
M  END
>  <minimizedAffinity>  (866) 
-16.61154

$$$$
Mol: 181_3 - SminaDock
     RDKit          3D

 37 43  0  0  0  0  0  0  0  0999 V2000
    4.2650   -2.5092  -17.4348 H   0  0  0  0  0  0  0  0  0  0  0  0
    4.5837   -2.3183  -16.5099 O   0  0  0  0  0  0  0  0  0  0  0  0
    5.3792   -1.2294  -16.1415 C   0  0  0  0  0  0  0  0  0  0  0  0
    6.5514   -1.1000  -16.7680 N   0  0  0  0  0  0  0  0  0  0  0  0
    7.3375   -0.0661  -16.4363 C   0  0  0  0  0  0  0  0  0  0  0  0
    6.9619    0.8461  -15.4783 C   0  0  0  0  0  0  0  0  0  0  0  0
    7.8013    1.9141  -15.1515 C   0  0  0  0  0  0  0  0  0  0  0  0
    7.3743    2.7945  -14.1859 C   0  0  0  0  0  0  0  0  0  0  0  0
    6.1791    2.6829  -13.5319 C   0  0  0  0  0  0  0  0  0  0  0  0
    5.3462    1.6233  -13.8559 C   0  0  0  0  0  0  0  0  0  0  0  0
    5.7625    0.7305  -14.8238 C   0  0  0  0  0  0  0  0  0  0  0  0
    4.9448   -0.3503  -15.1733 C   0  0  0  0  0  0  0  0  0  0  0  0
    6.0039    3.7833  -12.5531 C   0  0  0  0  0  0  0  0  0  0  0  0
    7.2575    4.5894  -12.6755 C   0  0  0  0  0  0  0  0  0  0  0  0
    7.6705    5.7303  -12.0071 C   0  0  0  0  0  0  0  0  0  0  0  0
    8.8887    6.2833  -12.3080 C   0  0  0  0  0  0  0  0  0  0  0  0
    9.6711    5.6914  -13.2682 C   0  0  0  0  0  0  0  0  0  0  0  0
    9.2622    4.5627  -13.9299 C   0  0  0  0  0  0  0  0  0  0  0  0
    8.0269    3.9865  -13.6360 C   0  0  0  0  0  0  0  0  0  0  0  0
    9.3461    7.4736  -11.6220 N   0  0  0  0  0  0  0  0  0  0  0  0
    9.7057    7.3587  -10.4122 C   0  0  0  0  0  0  0  0  0  0  0  0
    9.6663    6.1489   -9.7689 C   0  0  0  0  0  0  0  0  0  0  0  0
   10.0514    6.0166   -8.4410 C   0  0  0  0  0  0  0  0  0  0  0  0
   10.4795    7.1351   -7.7704 C   0  0  0  0  0  0  0  0  0  0  0  0
   10.8799    7.0594   -6.4284 C   0  0  0  0  0  0  0  0  0  0  0  0
   11.3131    8.1668   -5.7339 C   0  0  0  0  0  0  0  0  0  0  0  0
   11.3402    9.3673   -6.4107 C   0  0  0  0  0  0  0  0  0  0  0  0
   10.9467    9.4417   -7.7296 C   0  0  0  0  0  0  0  0  0  0  0  0
   10.5108    8.3398   -8.4370 C   0  0  0  0  0  0  0  0  0  0  0  0
   10.1284    8.4383   -9.7342 N   0  0  0  0  0  0  0  0  0  0  0  0
   10.1644    9.3731  -10.2141 H   0  0  0  0  0  0  0  0  0  0  0  0
   11.7282    8.0735   -4.3273 C   0  0  0  0  0  0  0  0  0  0  0  0
   12.0906    9.1790   -3.5956 C   0  0  0  0  0  0  0  0  0  0  0  0
   12.4799    9.1022   -2.2798 C   0  0  0  0  0  0  0  0  0  0  0  0
   12.5129    7.8842   -1.6594 C   0  0  0  0  0  0  0  0  0  0  0  0
   12.1504    6.7661   -2.3855 C   0  0  0  0  0  0  0  0  0  0  0  0
   11.7575    6.8459   -3.7150 C   0  0  0  0  0  0  0  0  0  0  0  0
  1  2  1  0
  2  3  1  0
  3  4  2  0
  4  5  1  0
  5  6  2  0
  6  7  1  0
  7  8  2  0
  8  9  1  0
  9 10  2  0
 10 11  1  0
 11 12  2  0
  9 13  1  0
 13 14  1  0
 14 15  2  0
 15 16  1  0
 16 20  1  0
 20 21  2  0
 21 22  1  0
 22 23  2  0
 23 24  1  0
 24 25  2  0
 25 26  1  0
 26 32  1  0
 32 33  2  0
 33 34  1  0
 34 35  2  0
 35 36  1  0
 36 37  2  0
 26 27  2  0
 27 28  1  0
 28 29  2  0
 29 30  1  0
 30 31  1  0
 16 17  2  0
 17 18  1  0
 18 19  2  0
 12  3  1  0
 19 14  1  0
 11  6  1  0
 30 21  1  0
 19  8  1  0
 29 24  1  0
 37 32  1  0
M  END
>  <minimizedAffinity>  (867) 
-16.55888

$$$$
Mol: 181_18 - SminaDock
     RDKit          3D

 44 51  0  0  0  0  0  0  0  0999 V2000
    5.4700   -0.4332  -16.0191 C   0  0  0  0  0  0  0  0  0  0  0  0
    4.3901   -1.0877  -15.6357 O   0  0  0  0  0  0  0  0  0  0  0  0
    3.8890   -0.5654  -14.5553 N   0  0  0  0  0  0  0  0  0  0  0  0
    4.6270    0.4801  -14.1659 C   0  0  0  0  0  0  0  0  0  0  0  0
    4.5627    1.3736  -13.1343 C   0  0  0  0  0  0  0  0  0  0  0  0
    5.5104    2.3855  -13.0017 C   0  0  0  0  0  0  0  0  0  0  0  0
    6.5055    2.4521  -13.9377 C   0  0  0  0  0  0  0  0  0  0  0  0
    6.5880    1.5552  -14.9900 C   0  0  0  0  0  0  0  0  0  0  0  0
    5.6375    0.5737  -15.0893 C   0  0  0  0  0  0  0  0  0  0  0  0
    7.3537    3.6043  -13.6058 C   0  0  0  0  0  0  0  0  0  0  0  0
    8.4857    4.1200  -14.2474 C   0  0  0  0  0  0  0  0  0  0  0  0
    9.0892    5.2436  -13.7357 C   0  0  0  0  0  0  0  0  0  0  0  0
    8.6009    5.8732  -12.6039 C   0  0  0  0  0  0  0  0  0  0  0  0
    7.5065    5.3714  -11.9847 C   0  0  0  0  0  0  0  0  0  0  0  0
    6.8623    4.2173  -12.4845 C   0  0  0  0  0  0  0  0  0  0  0  0
    5.6908    3.4647  -12.0173 C   0  0  0  0  0  0  0  0  0  0  0  0
    7.5660   -0.8821  -17.0332 O   0  0  0  0  0  0  0  0  0  0  0  0
    6.3297   -0.6738  -17.1632 C   0  0  0  0  0  0  0  0  0  0  0  0
    5.7900   -0.6824  -18.4625 N   0  0  0  0  0  0  0  0  0  0  0  0
    4.3922   -0.4253  -18.6266 C   0  0  0  0  0  0  0  0  0  0  0  0
    4.2305    0.6246  -19.7302 C   0  0  0  0  0  0  0  0  0  0  0  0
    4.7796    0.0103  -20.9308 N   0  0  1  0  0  0  0  0  0  0  0  0
    6.2252   -0.0669  -20.7677 C   0  0  0  0  0  0  0  0  0  0  0  0
    6.6059   -0.9652  -19.6328 C   0  0  0  0  0  0  0  0  0  0  0  0
    4.4246   -0.9575  -21.0257 H   0  0  0  0  0  0  0  0  0  0  0  0
    4.5897    0.5371  -21.7986 H   0  0  0  0  0  0  0  0  0  0  0  0
    9.2662    7.0325  -12.0953 N   0  0  0  0  0  0  0  0  0  0  0  0
    9.4478    7.8511  -12.6977 H   0  0  0  0  0  0  0  0  0  0  0  0
    9.6884    7.0441  -10.7232 C   0  0  0  0  0  0  0  0  0  0  0  0
    9.4632    5.9466   -9.9416 N   0  0  0  0  0  0  0  0  0  0  0  0
    9.7929    5.8875   -8.6424 C   0  0  0  0  0  0  0  0  0  0  0  0
   10.3945    6.9743   -8.0300 C   0  0  0  0  0  0  0  0  0  0  0  0
   10.7353    6.9487   -6.6889 C   0  0  0  0  0  0  0  0  0  0  0  0
   11.3270    8.0425   -6.0711 C   0  0  0  0  0  0  0  0  0  0  0  0
   11.5570    9.1447   -6.8600 C   0  0  0  0  0  0  0  0  0  0  0  0
   11.2150    9.1777   -8.2195 C   0  0  0  0  0  0  0  0  0  0  0  0
   10.6244    8.0756   -8.8128 C   0  0  0  0  0  0  0  0  0  0  0  0
   10.2712    8.0952  -10.1350 N   0  0  0  0  0  0  0  0  0  0  0  0
   11.6582    8.0135   -4.6502 C   0  0  0  0  0  0  0  0  0  0  0  0
   11.6243    6.8497   -3.8822 C   0  0  0  0  0  0  0  0  0  0  0  0
   11.9506    6.8210   -2.5493 C   0  0  0  0  0  0  0  0  0  0  0  0
   12.3382    7.9906   -1.8949 C   0  0  0  0  0  0  0  0  0  0  0  0
   12.3796    9.1483   -2.6292 C   0  0  0  0  0  0  0  0  0  0  0  0
   12.0435    9.1546   -3.9867 C   0  0  0  0  0  0  0  0  0  0  0  0
 17 18  2  0
 18  1  1  0
  1  2  1  0
  2  3  1  0
  3  4  2  0
  4  5  1  0
  5  6  2  0
  6  7  1  0
  7  8  2  0
  8  9  1  0
  7 10  1  0
 10 11  2  0
 11 12  1  0
 12 13  2  0
 13 27  1  0
 27 29  1  0
 29 30  2  0
 30 31  1  0
 31 32  2  0
 32 33  1  0
 33 34  2  0
 34 39  1  0
 39 40  2  0
 40 41  1  0
 41 42  2  0
 42 43  1  0
 43 44  2  0
 34 35  1  0
 35 36  2  0
 36 37  1  0
 37 38  2  0
 13 14  1  0
 14 15  2  0
 15 16  1  0
 18 19  1  0
 19 20  1  0
 20 21  1  0
 21 22  1  0
 22 23  1  0
 23 24  1  0
  9  1  2  0
 15 10  1  0
 24 19  1  0
  9  4  1  0
 38 29  1  0
 16  6  1  0
 37 32  1  0
 44 39  1  0
 27 28  1  0
 22 25  1  6
 22 26  1  0
M  CHG  1  22   1
M  END
>  <minimizedAffinity>  (868) 
-16.55644

$$$$
Mol: 134_47 - SminaDock
     RDKit          3D

 46 53  0  0  0  0  0  0  0  0999 V2000
    7.2408    3.8690  -13.3128 C   0  0  0  0  0  0  0  0  0  0  0  0
    6.1841    3.6365  -12.4606 C   0  0  0  0  0  0  0  0  0  0  0  0
    5.3849    2.5372  -12.6914 C   0  0  0  0  0  0  0  0  0  0  0  0
    5.6054    1.6671  -13.7401 C   0  0  0  0  0  0  0  0  0  0  0  0
    4.8131    0.5618  -13.9839 C   0  0  0  0  0  0  0  0  0  0  0  0
    5.0720   -0.2577  -15.0236 N   0  0  0  0  0  0  0  0  0  0  0  0
    6.1070   -0.0359  -15.8640 C   0  0  0  0  0  0  0  0  0  0  0  0
    6.3336   -0.8383  -16.8551 N   0  0  0  0  0  0  0  0  0  0  0  0
    6.8734    1.0389  -15.6229 N   0  0  0  0  0  0  0  0  0  0  0  0
    7.6806    1.2513  -16.2408 H   0  0  0  0  0  0  0  0  0  0  0  0
    6.6590    1.8904  -14.5979 C   0  0  0  0  0  0  0  0  0  0  0  0
    7.4616    2.9890  -14.3712 C   0  0  0  0  0  0  0  0  0  0  0  0
   10.8009    7.4797   -8.2206 C   0  0  0  0  0  0  0  0  0  0  0  0
   11.1467    8.1410   -9.3733 C   0  0  0  0  0  0  0  0  0  0  0  0
   10.6805    7.7772  -10.6188 C   0  0  0  0  0  0  0  0  0  0  0  0
    9.8210    6.6816  -10.6621 C   0  0  0  0  0  0  0  0  0  0  0  0
    9.4445    5.9880   -9.5477 C   0  0  0  0  0  0  0  0  0  0  0  0
    8.6113    4.9328   -9.6252 N   0  0  0  0  0  0  0  0  0  0  0  0
    8.1608    4.5882  -10.8655 C   0  0  0  0  0  0  0  0  0  0  0  0
    8.5401    5.2862  -11.9843 C   0  0  0  0  0  0  0  0  0  0  0  0
    8.1224    4.9723  -13.1624 N   0  0  0  0  0  0  0  0  0  0  0  0
    9.3731    6.3363  -11.8807 N   0  0  0  0  0  0  0  0  0  0  0  0
    9.6685    6.8781  -12.7421 H   0  0  0  0  0  0  0  0  0  0  0  0
    9.9472    6.4015   -8.3173 C   0  0  0  0  0  0  0  0  0  0  0  0
   12.6070    8.3408   -2.0904 C   0  0  0  0  0  0  0  0  0  0  0  0
   11.9433    7.1577   -2.2020 C   0  0  0  0  0  0  0  0  0  0  0  0
   11.4410    6.7245   -3.4277 C   0  0  0  0  0  0  0  0  0  0  0  0
   11.6134    7.5001   -4.5552 C   0  0  0  0  0  0  0  0  0  0  0  0
   11.1231    7.0906   -5.7851 C   0  0  0  0  0  0  0  0  0  0  0  0
   11.3011    7.8753   -6.9106 C   0  0  0  0  0  0  0  0  0  0  0  0
   11.9815    9.0682   -6.7472 C   0  0  0  0  0  0  0  0  0  0  0  0
   12.4694    9.4820   -5.5386 C   0  0  0  0  0  0  0  0  0  0  0  0
   12.2889    8.6947   -4.4185 C   0  0  0  0  0  0  0  0  0  0  0  0
   12.7899    9.1361   -3.2189 C   0  0  0  0  0  0  0  0  0  0  0  0
    7.4157   -0.5877  -17.7162 C   0  0  0  0  0  0  0  0  0  0  0  0
    8.7039   -0.8213  -17.4092 N   0  0  0  0  0  0  0  0  0  0  0  0
    9.7091   -0.5659  -18.2649 C   0  0  0  0  0  0  0  0  0  0  0  0
   11.0208   -0.8280  -17.8917 C   0  0  0  0  0  0  0  0  0  0  0  0
   12.0378   -0.5524  -18.8004 C   0  0  0  0  0  0  0  0  0  0  0  0
   11.7128   -0.0282  -20.0420 C   0  0  0  0  0  0  0  0  0  0  0  0
   12.6237    0.2355  -20.8984 O   0  0  0  0  0  0  0  0  0  0  0  0
   10.4399    0.2244  -20.4000 N   0  0  0  0  0  0  0  0  0  0  0  0
   10.1557    0.6167  -21.3202 H   0  0  0  0  0  0  0  0  0  0  0  0
    9.4658   -0.0488  -19.5062 C   0  0  0  0  0  0  0  0  0  0  0  0
    8.1539    0.2052  -19.8589 C   0  0  0  0  0  0  0  0  0  0  0  0
    7.1458   -0.0663  -18.9627 C   0  0  0  0  0  0  0  0  0  0  0  0
 25 26  2  0
 26 27  1  0
 27 28  2  0
 28 29  1  0
 29 30  2  0
 30 13  1  0
 13 14  2  0
 14 15  1  0
 15 16  2  0
 16 17  1  0
 17 18  1  0
 18 19  2  0
 19 20  1  0
 20 21  2  0
 21  1  1  0
  1  2  2  0
  2  3  1  0
  3  4  2  0
  4  5  1  0
  5  6  2  0
  6  7  1  0
  7  8  2  0
  8 35  1  0
 35 36  2  0
 36 37  1  0
 37 38  1  0
 38 39  2  0
 39 40  1  0
 40 41  2  0
 40 42  1  0
 42 43  1  0
 42 44  1  0
 44 45  1  0
 45 46  2  0
  7  9  1  0
  9 10  1  0
  9 11  1  0
 11 12  2  0
 20 22  1  0
 22 23  1  0
 17 24  2  0
 30 31  1  0
 31 32  2  0
 32 33  1  0
 33 34  2  0
 34 25  1  0
 33 28  1  0
 24 13  1  0
 22 16  1  0
 12  1  1  0
 11  4  1  0
 46 35  1  0
 44 37  2  0
M  END
>  <minimizedAffinity>  (869) 
-16.55547

$$$$
Mol: 180_56 - SminaDock
     RDKit          3D

 37 43  0  0  0  0  0  0  0  0999 V2000
    8.7931    6.0434  -12.2914 C   0  0  0  0  0  0  0  0  0  0  0  0
    9.4304    5.4965  -13.3802 C   0  0  0  0  0  0  0  0  0  0  0  0
    8.9016    4.3928  -14.0085 C   0  0  0  0  0  0  0  0  0  0  0  0
    7.7219    3.7938  -13.5776 C   0  0  0  0  0  0  0  0  0  0  0  0
    7.0939    4.3466  -12.4910 C   0  0  0  0  0  0  0  0  0  0  0  0
    7.6297    5.4716  -11.8479 C   0  0  0  0  0  0  0  0  0  0  0  0
    5.8814    3.5588  -12.2173 C   0  0  0  0  0  0  0  0  0  0  0  0
    5.8494    2.4946  -13.2366 C   0  0  0  0  0  0  0  0  0  0  0  0
    4.9314    1.4625  -13.4583 C   0  0  0  0  0  0  0  0  0  0  0  0
    5.1838    0.6161  -14.5092 C   0  0  0  0  0  0  0  0  0  0  0  0
    6.2834    0.7464  -15.3316 C   0  0  0  0  0  0  0  0  0  0  0  0
    7.1722    1.7689  -15.0941 C   0  0  0  0  0  0  0  0  0  0  0  0
    6.9511    2.6485  -14.0376 C   0  0  0  0  0  0  0  0  0  0  0  0
    6.2559   -0.2908  -16.3280 N   0  0  0  0  0  0  0  0  0  0  0  0
    7.2846   -0.4171  -17.3414 C   0  0  0  0  0  0  0  0  0  0  0  0
    5.1028   -1.0948  -16.1222 C   0  0  0  0  0  0  0  0  0  0  0  0
    4.7729   -2.0847  -16.8108 O   0  0  0  0  0  0  0  0  0  0  0  0
    4.4109   -0.5355  -14.9739 C   0  0  0  0  0  0  0  0  0  0  0  0
    3.3459   -0.9513  -14.4623 O   0  0  0  0  0  0  0  0  0  0  0  0
   11.3193    8.0927   -5.7679 C   0  0  0  0  0  0  0  0  0  0  0  0
   11.4348    9.2597   -6.5128 C   0  0  0  0  0  0  0  0  0  0  0  0
   11.0606    9.3275   -7.8401 C   0  0  0  0  0  0  0  0  0  0  0  0
   10.5537    8.2074   -8.4597 C   0  0  0  0  0  0  0  0  0  0  0  0
   10.4247    7.0294   -7.7499 C   0  0  0  0  0  0  0  0  0  0  0  0
    9.9163    5.9138   -8.3792 C   0  0  0  0  0  0  0  0  0  0  0  0
    9.5450    5.9536   -9.6702 N   0  0  0  0  0  0  0  0  0  0  0  0
    9.6688    7.0922  -10.3590 C   0  0  0  0  0  0  0  0  0  0  0  0
    9.3239    7.1922  -11.6192 N   0  0  0  0  0  0  0  0  0  0  0  0
   10.1659    8.1886   -9.7492 N   0  0  0  0  0  0  0  0  0  0  0  0
   10.2615    9.0773  -10.2900 H   0  0  0  0  0  0  0  0  0  0  0  0
   10.8069    6.9938   -6.4268 C   0  0  0  0  0  0  0  0  0  0  0  0
   12.4797    7.9749   -1.7036 C   0  0  0  0  0  0  0  0  0  0  0  0
   12.4462    9.1820   -2.3661 C   0  0  0  0  0  0  0  0  0  0  0  0
   12.0624    9.1814   -3.6925 C   0  0  0  0  0  0  0  0  0  0  0  0
   11.7162    8.0272   -4.3662 C   0  0  0  0  0  0  0  0  0  0  0  0
   11.7591    6.8381   -3.6795 C   0  0  0  0  0  0  0  0  0  0  0  0
   12.1368    6.7949   -2.3541 C   0  0  0  0  0  0  0  0  0  0  0  0
 32 33  2  0
 33 34  1  0
 34 35  2  0
 35 20  1  0
 20 21  2  0
 21 22  1  0
 22 23  2  0
 23 24  1  0
 24 25  1  0
 25 26  2  0
 26 27  1  0
 27 28  2  0
 28  1  1  0
  1  2  2  0
  2  3  1  0
  3  4  2  0
  4  5  1  0
  5  6  2  0
  5  7  1  0
  7  8  1  0
  8  9  2  0
  9 10  1  0
 10 11  2  0
 11 12  1  0
 12 13  2  0
 11 14  1  0
 14 15  1  0
 14 16  1  0
 16 17  2  0
 16 18  1  0
 18 19  2  0
 27 29  1  0
 29 30  1  0
 24 31  2  0
 35 36  1  0
 36 37  2  0
 37 32  1  0
 31 20  1  0
 29 23  1  0
  6  1  1  0
 13  8  1  0
 13  4  1  0
 18 10  1  0
M  END
>  <minimizedAffinity>  (870) 
-16.57192

$$$$
Mol: 151_14 - SminaDock
     RDKit          3D

 44 52  0  0  0  0  0  0  0  0999 V2000
    9.0354    6.2646  -12.2912 C   0  0  0  0  0  0  0  0  0  0  0  0
    7.7718    5.7596  -12.0678 C   0  0  0  0  0  0  0  0  0  0  0  0
    7.3206    4.6500  -12.7539 C   0  0  0  0  0  0  0  0  0  0  0  0
    8.1673    4.0508  -13.6765 C   0  0  0  0  0  0  0  0  0  0  0  0
    9.4290    4.5514  -13.8973 C   0  0  0  0  0  0  0  0  0  0  0  0
    9.8755    5.6797  -13.1963 C   0  0  0  0  0  0  0  0  0  0  0  0
   10.3731    3.8547  -14.7892 C   0  0  0  0  0  0  0  0  0  0  0  0
    9.7469    3.1075  -15.8774 C   0  0  0  0  0  0  0  0  0  0  0  0
    8.4782    2.4582  -15.4893 C   0  0  0  0  0  0  0  0  0  0  0  0
    7.6603    2.9499  -14.4956 C   0  0  0  0  0  0  0  0  0  0  0  0
    6.4436    2.3574  -14.2300 C   0  0  0  0  0  0  0  0  0  0  0  0
    6.0099    1.2407  -14.9599 C   0  0  0  0  0  0  0  0  0  0  0  0
    6.8165    0.7273  -15.9607 C   0  0  0  0  0  0  0  0  0  0  0  0
    8.0134    1.3449  -16.1928 C   0  0  0  0  0  0  0  0  0  0  0  0
    8.6838    0.6270  -17.2899 C   0  0  0  0  0  0  0  0  0  0  0  0
    7.7311   -0.4493  -17.6347 C   0  0  0  0  0  0  0  0  0  0  0  0
    7.8682   -1.4034  -18.5908 N   0  0  0  0  0  0  0  0  0  0  0  0
    6.9130   -2.3293  -18.7978 C   0  0  0  0  0  0  0  0  0  0  0  0
    7.0678   -3.3067  -19.7860 C   0  0  0  0  0  0  0  0  0  0  0  0
    6.0521   -4.2155  -19.9368 C   0  0  0  0  0  0  0  0  0  0  0  0
    4.9125   -4.1940  -19.1627 C   0  0  0  0  0  0  0  0  0  0  0  0
    4.7980   -3.2152  -18.1997 C   0  0  0  0  0  0  0  0  0  0  0  0
    5.7861   -2.2812  -18.0077 C   0  0  0  0  0  0  0  0  0  0  0  0
    5.6725   -1.2875  -17.0313 C   0  0  0  0  0  0  0  0  0  0  0  0
    4.6469   -1.2597  -16.3268 O   0  0  0  0  0  0  0  0  0  0  0  0
    6.6452   -0.3811  -16.8535 N   0  0  0  0  0  0  0  0  0  0  0  0
   11.3748    8.2127   -5.6645 C   0  0  0  0  0  0  0  0  0  0  0  0
   11.4533    9.4063   -6.3830 C   0  0  0  0  0  0  0  0  0  0  0  0
   11.1013    9.4957   -7.6998 C   0  0  0  0  0  0  0  0  0  0  0  0
   10.6463    8.3861   -8.3809 C   0  0  0  0  0  0  0  0  0  0  0  0
   10.2892    8.4358   -9.6816 N   0  0  0  0  0  0  0  0  0  0  0  0
    9.8465    7.3503  -10.3381 C   0  0  0  0  0  0  0  0  0  0  0  0
    9.5118    7.4233  -11.5788 N   0  0  0  0  0  0  0  0  0  0  0  0
    9.7709    6.2092   -9.6537 N   0  0  0  0  0  0  0  0  0  0  0  0
    9.4364    5.3312  -10.1028 H   0  0  0  0  0  0  0  0  0  0  0  0
   10.1149    6.0945   -8.3449 C   0  0  0  0  0  0  0  0  0  0  0  0
   10.5665    7.1982   -7.6722 C   0  0  0  0  0  0  0  0  0  0  0  0
   10.9209    7.1085   -6.3458 C   0  0  0  0  0  0  0  0  0  0  0  0
   12.4593    7.8701   -1.5886 C   0  0  0  0  0  0  0  0  0  0  0  0
   12.1303    6.7497   -2.3065 C   0  0  0  0  0  0  0  0  0  0  0  0
   11.7790    6.8834   -3.6358 C   0  0  0  0  0  0  0  0  0  0  0  0
   11.7496    8.1274   -4.2686 C   0  0  0  0  0  0  0  0  0  0  0  0
   12.0849    9.2181   -3.5153 C   0  0  0  0  0  0  0  0  0  0  0  0
   12.4415    9.1171   -2.1807 C   0  0  0  0  0  0  0  0  0  0  0  0
 39 40  2  0
 40 41  1  0
 41 42  2  0
 42 27  1  0
 27 28  1  0
 28 29  2  0
 29 30  1  0
 30 31  2  0
 31 32  1  0
 32 33  2  0
 33  1  1  0
  1  2  2  0
  2  3  1  0
  3  4  2  0
  4  5  1  0
  5  6  2  0
  5  7  1  0
  7  8  1  0
  8  9  1  0
  9 10  2  0
 10 11  1  0
 11 12  2  0
 12 13  1  0
 13 14  2  0
 14 15  1  0
 15 16  1  0
 16 17  2  0
 17 18  1  0
 18 19  2  0
 19 20  1  0
 20 21  2  0
 21 22  1  0
 22 23  2  0
 23 24  1  0
 24 25  2  0
 24 26  1  0
 32 34  1  0
 34 35  1  0
 34 36  1  0
 36 37  2  0
 37 38  1  0
 42 43  1  0
 43 44  2  0
 44 39  1  0
 38 27  2  0
 37 30  1  0
  6  1  1  0
 14  9  1  0
 26 16  1  0
 10  4  1  0
 26 13  1  0
 23 18  1  0
M  END
>  <minimizedAffinity>  (871) 
-16.58069

$$$$
Mol: 194_52 - SminaDock
     RDKit          3D

 47 55  0  0  0  0  0  0  0  0999 V2000
    6.8703   -0.9967  -12.9658 O   0  0  0  0  0  0  0  0  0  0  0  0
    7.3516   -0.0788  -13.9144 C   0  0  0  0  0  0  0  0  0  0  0  0
    6.5196    0.3536  -14.9871 N   0  0  0  0  0  0  0  0  0  0  0  0
    7.1599    1.1745  -15.7116 C   0  0  0  0  0  0  0  0  0  0  0  0
    6.7019    1.8168  -16.8455 O   0  0  0  0  0  0  0  0  0  0  0  0
    8.5070    1.3323  -15.1278 C   0  0  2  0  0  0  0  0  0  0  0  0
    8.5138    0.4711  -13.9665 N   0  0  0  0  0  0  0  0  0  0  0  0
    8.8732    2.7131  -14.8296 C   0  0  0  0  0  0  0  0  0  0  0  0
    8.2992    3.6124  -13.9462 C   0  0  0  0  0  0  0  0  0  0  0  0
    8.7547    4.9024  -13.7633 C   0  0  0  0  0  0  0  0  0  0  0  0
    9.8406    5.2623  -14.5251 C   0  0  0  0  0  0  0  0  0  0  0  0
   10.4646    4.4059  -15.4315 C   0  0  0  0  0  0  0  0  0  0  0  0
    9.9779    3.1284  -15.5826 C   0  0  0  0  0  0  0  0  0  0  0  0
   10.3609    1.9675  -16.4150 C   0  0  0  0  0  0  0  0  0  0  0  0
    9.4964    0.9213  -16.1414 C   0  0  0  0  0  0  0  0  0  0  0  0
    9.6688   -0.2763  -16.8086 C   0  0  0  0  0  0  0  0  0  0  0  0
   10.6625   -0.4704  -17.7317 C   0  0  0  0  0  0  0  0  0  0  0  0
   11.5057    0.5752  -17.9880 C   0  0  0  0  0  0  0  0  0  0  0  0
   11.3824    1.8085  -17.3468 C   0  0  0  0  0  0  0  0  0  0  0  0
   12.2546    2.8250  -17.6423 C   0  0  0  0  0  0  0  0  0  0  0  0
   13.2322    2.6218  -18.5576 N   0  0  0  0  0  0  0  0  0  0  0  0
   13.4035    1.4770  -19.2005 C   0  0  0  0  0  0  0  0  0  0  0  0
   14.4261    1.3071  -20.1374 C   0  0  0  0  0  0  0  0  0  0  0  0
   14.5603    0.0966  -20.7754 C   0  0  0  0  0  0  0  0  0  0  0  0
   13.7220   -0.9598  -20.5261 C   0  0  0  0  0  0  0  0  0  0  0  0
   12.7013   -0.7633  -19.5795 C   0  0  0  0  0  0  0  0  0  0  0  0
   12.5273    0.4295  -18.9154 C   0  0  0  0  0  0  0  0  0  0  0  0
    7.5195   -1.4437  -12.3227 H   0  0  0  0  0  0  0  0  0  0  0  0
    5.7780    1.5943  -17.1833 H   0  0  0  0  0  0  0  0  0  0  0  0
    8.1312    5.7846  -12.8457 N   0  0  0  0  0  0  0  0  0  0  0  0
    7.2837    6.2839  -13.1239 H   0  0  0  0  0  0  0  0  0  0  0  0
    8.6687    5.9841  -11.5453 C   0  0  0  0  0  0  0  0  0  0  0  0
    8.5662    5.0606  -10.5726 N   0  0  0  0  0  0  0  0  0  0  0  0
    9.0512    5.1851   -9.3403 C   0  0  0  0  0  0  0  0  0  0  0  0
    9.7207    6.3487   -9.0030 C   0  0  0  0  0  0  0  0  0  0  0  0
   10.2457    6.5269   -7.7379 C   0  0  0  0  0  0  0  0  0  0  0  0
   10.9173    7.6839   -7.3951 C   0  0  0  0  0  0  0  0  0  0  0  0
   11.0331    8.6431   -8.3780 C   0  0  0  0  0  0  0  0  0  0  0  0
   10.5124    8.4750   -9.6438 C   0  0  0  0  0  0  0  0  0  0  0  0
    9.8390    7.3113   -9.9834 C   0  0  0  0  0  0  0  0  0  0  0  0
    9.3254    7.1286  -11.2184 N   0  0  0  0  0  0  0  0  0  0  0  0
   11.4809    7.8980   -6.0770 C   0  0  0  0  0  0  0  0  0  0  0  0
   12.2217    9.0075   -5.7575 C   0  0  0  0  0  0  0  0  0  0  0  0
   12.7497    9.1831   -4.4793 C   0  0  0  0  0  0  0  0  0  0  0  0
   12.5089    8.2074   -3.5342 C   0  0  0  0  0  0  0  0  0  0  0  0
   11.7736    7.0912   -3.8257 C   0  0  0  0  0  0  0  0  0  0  0  0
   11.2674    6.9533   -5.1017 C   0  0  0  0  0  0  0  0  0  0  0  0
  1  2  1  0
  2  3  1  0
  3  4  2  0
  4  5  1  0
  4  6  1  0
  6  7  1  1
  6  8  1  0
  8  9  2  0
  9 10  1  0
 10 30  1  0
 30 32  1  0
 32 33  2  0
 33 34  1  0
 34 35  2  0
 35 36  1  0
 36 37  2  0
 37 42  1  0
 42 43  2  0
 43 44  1  0
 44 45  2  0
 45 46  1  0
 46 47  2  0
 37 38  1  0
 38 39  2  0
 39 40  1  0
 40 41  2  0
 10 11  2  0
 11 12  1  0
 12 13  2  0
 13 14  1  0
 14 15  2  0
 15 16  1  0
 16 17  2  0
 17 18  1  0
 18 19  2  0
 19 20  1  0
 20 21  2  0
 21 22  1  0
 22 23  2  0
 23 24  1  0
 24 25  2  0
 25 26  1  0
 26 27  2  0
  7  2  2  0
 13  8  1  0
 19 14  1  0
 27 22  1  0
 15  6  1  0
 27 18  1  0
 41 32  1  0
 40 35  1  0
 47 42  1  0
  1 28  1  0
  5 29  1  0
 30 31  1  0
M  END
>  <minimizedAffinity>  (872) 
-16.60712

$$$$
Mol: 147_28 - SminaDock
     RDKit          3D

 37 43  0  0  0  0  0  0  0  0999 V2000
    8.3163   -0.1712  -16.9876 H   0  0  0  0  0  0  0  0  0  0  0  0
    7.5741   -0.8402  -16.8275 O   0  0  0  0  0  0  0  0  0  0  0  0
    6.4898   -0.5266  -16.0202 C   0  0  0  0  0  0  0  0  0  0  0  0
    5.3881   -1.2940  -16.0103 N   0  0  0  0  0  0  0  0  0  0  0  0
    4.3250   -1.0198  -15.2436 N   0  0  0  0  0  0  0  0  0  0  0  0
    4.3226    0.0617  -14.4355 C   0  0  0  0  0  0  0  0  0  0  0  0
    5.3955    0.9240  -14.3595 C   0  0  0  0  0  0  0  0  0  0  0  0
    5.7059    2.0660  -13.6717 C   0  0  0  0  0  0  0  0  0  0  0  0
    6.9729    2.4407  -14.0613 C   0  0  0  0  0  0  0  0  0  0  0  0
    7.4518    1.5608  -14.9711 N   0  0  0  0  0  0  0  0  0  0  0  0
    6.5533    0.5941  -15.2177 C   0  0  0  0  0  0  0  0  0  0  0  0
    7.6078    3.6304  -13.4915 C   0  0  0  0  0  0  0  0  0  0  0  0
    8.8641    4.0361  -13.8756 C   0  0  0  0  0  0  0  0  0  0  0  0
    9.4447    5.1887  -13.3272 C   0  0  0  0  0  0  0  0  0  0  0  0
    8.7288    5.9032  -12.3972 C   0  0  0  0  0  0  0  0  0  0  0  0
    7.4790    5.5032  -12.0119 C   0  0  0  0  0  0  0  0  0  0  0  0
    6.9186    4.3546  -12.5679 C   0  0  0  0  0  0  0  0  0  0  0  0
    5.5779    3.9956  -12.0803 C   0  0  0  0  0  0  0  0  0  0  0  0
    4.9137    2.8378  -12.6941 C   0  0  0  0  0  0  0  0  0  0  0  0
    9.2843    7.0667  -11.8269 N   0  0  0  0  0  0  0  0  0  0  0  0
    9.6304    7.0534  -10.5839 C   0  0  0  0  0  0  0  0  0  0  0  0
    9.4499    5.9314   -9.8755 N   0  0  0  0  0  0  0  0  0  0  0  0
    9.7852    5.8436   -8.5812 C   0  0  0  0  0  0  0  0  0  0  0  0
   10.3401    6.9476   -7.9407 C   0  0  0  0  0  0  0  0  0  0  0  0
   10.7083    6.9320   -6.6161 C   0  0  0  0  0  0  0  0  0  0  0  0
   11.2645    8.0493   -5.9868 C   0  0  0  0  0  0  0  0  0  0  0  0
   11.4500    9.2145   -6.7294 C   0  0  0  0  0  0  0  0  0  0  0  0
   11.0765    9.2140   -8.0533 C   0  0  0  0  0  0  0  0  0  0  0  0
   10.5203    8.0946   -8.6808 C   0  0  0  0  0  0  0  0  0  0  0  0
   10.1645    8.1181   -9.9708 N   0  0  0  0  0  0  0  0  0  0  0  0
   10.2960    8.9799  -10.5400 H   0  0  0  0  0  0  0  0  0  0  0  0
   11.6469    8.0202   -4.5951 C   0  0  0  0  0  0  0  0  0  0  0  0
   11.9998    9.1814   -3.9593 C   0  0  0  0  0  0  0  0  0  0  0  0
   12.3721    9.1701   -2.6135 C   0  0  0  0  0  0  0  0  0  0  0  0
   12.3859    7.9957   -1.9227 C   0  0  0  0  0  0  0  0  0  0  0  0
   12.0326    6.8186   -2.5519 C   0  0  0  0  0  0  0  0  0  0  0  0
   11.6595    6.8391   -3.9051 C   0  0  0  0  0  0  0  0  0  0  0  0
  1  2  1  0
  2  3  1  0
  3  4  1  0
  4  5  1  0
  5  6  2  0
  6  7  1  0
  7  8  2  0
  8  9  1  0
  9 10  2  0
 10 11  1  0
  9 12  1  0
 12 13  2  0
 13 14  1  0
 14 15  2  0
 15 20  1  0
 20 21  2  0
 21 22  1  0
 22 23  2  0
 23 24  1  0
 24 25  2  0
 25 26  1  0
 26 32  1  0
 32 33  2  0
 33 34  1  0
 34 35  2  0
 35 36  1  0
 36 37  2  0
 26 27  2  0
 27 28  1  0
 28 29  2  0
 29 30  1  0
 30 31  1  0
 15 16  1  0
 16 17  2  0
 17 18  1  0
 18 19  1  0
 11  3  2  0
 17 12  1  0
 11  7  1  0
 30 21  1  0
 19  8  1  0
 29 24  1  0
 37 32  1  0
M  CHG  1   4  -1
M  END
>  <minimizedAffinity>  (873) 
-16.56307

$$$$
Mol: 108_30 - SminaDock
     RDKit          3D

 39 44  0  0  0  0  0  0  0  0999 V2000
    8.9500    6.0058  -12.2903 C   0  0  0  0  0  0  0  0  0  0  0  0
    9.8859    5.4108  -13.1047 C   0  0  0  0  0  0  0  0  0  0  0  0
    9.5218    4.2653  -13.8188 C   0  0  0  0  0  0  0  0  0  0  0  0
    8.2552    3.7456  -13.7087 C   0  0  0  0  0  0  0  0  0  0  0  0
    7.2977    4.3391  -12.8870 C   0  0  0  0  0  0  0  0  0  0  0  0
    7.6690    5.4648  -12.1904 C   0  0  0  0  0  0  0  0  0  0  0  0
    5.8970    3.9707  -12.6102 C   0  0  0  0  0  0  0  0  0  0  0  0
    5.6762    2.5015  -12.4839 C   0  0  0  0  0  0  0  0  0  0  0  0
    5.7723    1.7312  -13.7270 C   0  0  0  0  0  0  0  0  0  0  0  0
    4.6908    0.9173  -13.9848 C   0  0  0  0  0  0  0  0  0  0  0  0
    4.6858    0.1529  -15.1198 C   0  0  0  0  0  0  0  0  0  0  0  0
    5.7263    0.1627  -16.0245 C   0  0  0  0  0  0  0  0  0  0  0  0
    6.8092    0.9740  -15.7722 C   0  0  0  0  0  0  0  0  0  0  0  0
    6.8364    1.7558  -14.6309 C   0  0  0  0  0  0  0  0  0  0  0  0
    8.0581    2.5560  -14.5237 C   0  0  0  0  0  0  0  0  0  0  0  0
    9.0453    2.1570  -15.2236 O   0  0  0  0  0  0  0  0  0  0  0  0
   11.2288    8.1208   -5.7301 C   0  0  0  0  0  0  0  0  0  0  0  0
   11.1784    9.3228   -6.3798 C   0  0  0  0  0  0  0  0  0  0  0  0
   10.7766    9.3506   -7.6980 C   0  0  0  0  0  0  0  0  0  0  0  0
   10.4182    8.2038   -8.3997 C   0  0  0  0  0  0  0  0  0  0  0  0
   10.4765    7.0208   -7.7315 C   0  0  0  0  0  0  0  0  0  0  0  0
   10.8777    6.9774   -6.4092 C   0  0  0  0  0  0  0  0  0  0  0  0
   10.1309    5.8597   -8.3861 C   0  0  0  0  0  0  0  0  0  0  0  0
    9.7355    5.9129   -9.6944 C   0  0  0  0  0  0  0  0  0  0  0  0
    9.6890    7.1227  -10.3347 C   0  0  0  0  0  0  0  0  0  0  0  0
    9.3156    7.1646  -11.5678 N   0  0  0  0  0  0  0  0  0  0  0  0
   10.0291    8.2649   -9.6902 N   0  0  0  0  0  0  0  0  0  0  0  0
    9.9965    9.1723  -10.1633 H   0  0  0  0  0  0  0  0  0  0  0  0
   12.4547    7.9733   -1.7046 C   0  0  0  0  0  0  0  0  0  0  0  0
   12.3440    9.1836   -2.3489 C   0  0  0  0  0  0  0  0  0  0  0  0
   11.9463    9.2729   -3.6644 C   0  0  0  0  0  0  0  0  0  0  0  0
   11.6577    8.0987   -4.3290 C   0  0  0  0  0  0  0  0  0  0  0  0
   11.7662    6.8783   -3.6896 C   0  0  0  0  0  0  0  0  0  0  0  0
   12.1640    6.7967   -2.3750 C   0  0  0  0  0  0  0  0  0  0  0  0
    3.5261   -0.7151  -15.3887 C   0  0  0  0  0  0  0  0  0  0  0  0
    2.6726   -0.9397  -14.4932 O   0  0  0  0  0  0  0  0  0  0  0  0
    3.3301   -1.3237  -16.6534 N   0  0  0  0  0  0  0  0  0  0  0  0
    3.3520   -2.3631  -16.7515 H   0  0  0  0  0  0  0  0  0  0  0  0
    3.1576   -0.7639  -17.5288 H   0  0  0  0  0  0  0  0  0  0  0  0
 29 30  2  0
 30 31  1  0
 31 32  2  0
 32 17  1  0
 17 18  2  0
 18 19  1  0
 19 20  2  0
 20 21  1  0
 21 22  2  0
 21 23  1  0
 23 24  2  0
 24 25  1  0
 25 26  2  0
 26  1  1  0
  1  2  2  0
  2  3  1  0
  3  4  2  0
  4  5  1  0
  5  6  2  0
  5  7  1  0
  7  8  1  0
  8  9  1  0
  9 10  2  0
 10 11  1  0
 11 35  1  0
 35 36  2  0
 35 37  1  0
 37 38  1  0
 37 39  1  0
 11 12  2  0
 12 13  1  0
 13 14  2  0
 14 15  1  0
 15 16  2  0
 25 27  1  0
 27 28  1  0
 32 33  1  0
 33 34  2  0
 34 29  1  0
 22 17  1  0
  6  1  1  0
 14  9  1  0
 27 20  1  0
 15  4  1  0
M  END
>  <minimizedAffinity>  (874) 
-16.62957

$$$$
Mol: 177_29 - SminaDock
     RDKit          3D

 40 46  0  0  0  0  0  0  0  0999 V2000
    8.5769    5.8178  -12.4905 C   0  0  0  0  0  0  0  0  0  0  0  0
    7.3928    5.3519  -11.9812 C   0  0  0  0  0  0  0  0  0  0  0  0
    6.7664    4.2381  -12.5420 C   0  0  0  0  0  0  0  0  0  0  0  0
    7.3248    3.5801  -13.6225 C   0  0  0  0  0  0  0  0  0  0  0  0
    8.5170    4.0622  -14.1226 C   0  0  0  0  0  0  0  0  0  0  0  0
    9.1443    5.1773  -13.5611 C   0  0  0  0  0  0  0  0  0  0  0  0
    8.8520    3.1821  -15.2355 C   0  0  0  0  0  0  0  0  0  0  0  0
    9.8660    3.2640  -15.9749 O   0  0  0  0  0  0  0  0  0  0  0  0
    7.8315    2.1510  -15.3992 C   0  0  0  0  0  0  0  0  0  0  0  0
    6.9027    2.4023  -14.4095 C   0  0  0  0  0  0  0  0  0  0  0  0
    5.8109    1.5619  -14.3331 C   0  0  0  0  0  0  0  0  0  0  0  0
    5.6258    0.5031  -15.1974 C   0  0  0  0  0  0  0  0  0  0  0  0
    4.5448   -0.3462  -15.1383 C   0  0  0  0  0  0  0  0  0  0  0  0
    3.6770   -0.1516  -14.2520 O   0  0  0  0  0  0  0  0  0  0  0  0
    4.3560   -1.3803  -15.9758 N   0  0  0  0  0  0  0  0  0  0  0  0
    3.5031   -1.9914  -15.8726 H   0  0  0  0  0  0  0  0  0  0  0  0
    5.2749   -1.5989  -16.9265 C   0  0  0  0  0  0  0  0  0  0  0  0
    5.0997   -2.5704  -17.7149 O   0  0  0  0  0  0  0  0  0  0  0  0
    6.3612   -0.7830  -17.0218 N   0  0  0  0  0  0  0  0  0  0  0  0
    7.3401   -1.0330  -18.0508 C   0  0  0  0  0  0  0  0  0  0  0  0
    6.5565    0.2483  -16.1922 C   0  0  0  0  0  0  0  0  0  0  0  0
    7.6457    1.0863  -16.2687 C   0  0  0  0  0  0  0  0  0  0  0  0
   11.2315    7.9614   -6.0722 C   0  0  0  0  0  0  0  0  0  0  0  0
   11.4830    9.0542   -6.8828 C   0  0  0  0  0  0  0  0  0  0  0  0
   11.1263    9.0608   -8.2153 C   0  0  0  0  0  0  0  0  0  0  0  0
   10.4994    7.9672   -8.7943 C   0  0  0  0  0  0  0  0  0  0  0  0
   10.2438    6.8730   -7.9966 C   0  0  0  0  0  0  0  0  0  0  0  0
    9.6191    5.7986   -8.5981 C   0  0  0  0  0  0  0  0  0  0  0  0
    9.2751    5.8167   -9.9018 N   0  0  0  0  0  0  0  0  0  0  0  0
    9.5297    6.8903  -10.6702 C   0  0  0  0  0  0  0  0  0  0  0  0
    9.2145    6.9453  -11.9256 N   0  0  0  0  0  0  0  0  0  0  0  0
   10.1382    7.9404  -10.0900 N   0  0  0  0  0  0  0  0  0  0  0  0
   10.3574    8.8064  -10.6588 H   0  0  0  0  0  0  0  0  0  0  0  0
   10.6075    6.8804   -6.6608 C   0  0  0  0  0  0  0  0  0  0  0  0
   12.3635    7.9828   -1.9749 C   0  0  0  0  0  0  0  0  0  0  0  0
   12.2996    9.1876   -2.6671 C   0  0  0  0  0  0  0  0  0  0  0  0
   11.9314    9.1418   -3.9849 C   0  0  0  0  0  0  0  0  0  0  0  0
   11.6216    7.9864   -4.6668 C   0  0  0  0  0  0  0  0  0  0  0  0
   11.6950    6.8017   -3.9479 C   0  0  0  0  0  0  0  0  0  0  0  0
   12.0620    6.8036   -2.6178 C   0  0  0  0  0  0  0  0  0  0  0  0
 35 36  2  0
 36 37  1  0
 37 38  2  0
 38 23  1  0
 23 24  2  0
 24 25  1  0
 25 26  2  0
 26 27  1  0
 27 28  1  0
 28 29  2  0
 29 30  1  0
 30 31  2  0
 31  1  1  0
  1  2  2  0
  2  3  1  0
  3  4  2  0
  4  5  1  0
  5  6  2  0
  5  7  1  0
  7  8  2  0
  7  9  1  0
  9 10  2  0
 10 11  1  0
 11 12  2  0
 12 13  1  0
 13 14  2  0
 13 15  1  0
 15 16  1  0
 15 17  1  0
 17 18  2  0
 17 19  1  0
 19 20  1  0
 19 21  1  0
 21 22  2  0
 30 32  1  0
 32 33  1  0
 27 34  2  0
 38 39  1  0
 39 40  2  0
 40 35  1  0
 34 23  1  0
 32 26  1  0
  6  1  1  0
 22  9  1  0
 10  4  1  0
 21 12  1  0
M  END
>  <minimizedAffinity>  (875) 
-16.63177

$$$$
Mol: 177_25 - SminaDock
     RDKit          3D

 38 44  0  0  0  0  0  0  0  0999 V2000
    8.0879   -0.8748  -16.8145 H   0  0  0  0  0  0  0  0  0  0  0  0
    7.1122   -0.8894  -17.0325 O   0  0  0  0  0  0  0  0  0  0  0  0
    6.1188   -0.5322  -16.1349 C   0  0  0  0  0  0  0  0  0  0  0  0
    4.9457   -1.1204  -15.9456 N   0  0  0  0  0  0  0  0  0  0  0  0
    4.2391   -0.4910  -14.9838 C   0  0  0  0  0  0  0  0  0  0  0  0
    3.0929   -0.7576  -14.5336 O   0  0  0  0  0  0  0  0  0  0  0  0
    4.9994    0.5789  -14.5130 C   0  0  0  0  0  0  0  0  0  0  0  0
    4.7959    1.5451  -13.5592 C   0  0  0  0  0  0  0  0  0  0  0  0
    5.7483    2.5017  -13.2996 C   0  0  0  0  0  0  0  0  0  0  0  0
    5.8222    3.5793  -12.4141 C   0  0  0  0  0  0  0  0  0  0  0  0
    4.9297    3.9197  -11.5910 O   0  0  0  0  0  0  0  0  0  0  0  0
    7.0251    4.2377  -12.5603 C   0  0  0  0  0  0  0  0  0  0  0  0
    7.5924    5.3463  -11.9407 C   0  0  0  0  0  0  0  0  0  0  0  0
    8.8468    5.8020  -12.2918 C   0  0  0  0  0  0  0  0  0  0  0  0
    9.5128    5.1114  -13.2826 C   0  0  0  0  0  0  0  0  0  0  0  0
    8.9520    4.0102  -13.8996 C   0  0  0  0  0  0  0  0  0  0  0  0
    7.6938    3.5493  -13.5506 C   0  0  0  0  0  0  0  0  0  0  0  0
    6.9388    2.4918  -14.0146 C   0  0  0  0  0  0  0  0  0  0  0  0
    7.1131    1.5075  -14.9668 C   0  0  0  0  0  0  0  0  0  0  0  0
    6.1774    0.5350  -15.2500 C   0  0  0  0  0  0  0  0  0  0  0  0
    9.4366    6.9437  -11.6575 N   0  0  0  0  0  0  0  0  0  0  0  0
    9.7292    6.8596  -10.4057 C   0  0  0  0  0  0  0  0  0  0  0  0
   10.2821    7.9503   -9.8419 N   0  0  0  0  0  0  0  0  0  0  0  0
   10.6406    8.0142   -8.5500 C   0  0  0  0  0  0  0  0  0  0  0  0
   11.2121    9.1667   -8.0058 C   0  0  0  0  0  0  0  0  0  0  0  0
   11.5468    9.1463   -6.6871 C   0  0  0  0  0  0  0  0  0  0  0  0
   11.3415    8.0338   -5.8781 C   0  0  0  0  0  0  0  0  0  0  0  0
   10.7757    6.9006   -6.4278 C   0  0  0  0  0  0  0  0  0  0  0  0
   10.4302    6.9024   -7.7619 C   0  0  0  0  0  0  0  0  0  0  0  0
    9.8577    5.7867   -8.3652 C   0  0  0  0  0  0  0  0  0  0  0  0
    9.5167    5.7776   -9.6684 N   0  0  0  0  0  0  0  0  0  0  0  0
    9.0891    4.9382  -10.1093 H   0  0  0  0  0  0  0  0  0  0  0  0
   11.7305    8.0889   -4.4636 C   0  0  0  0  0  0  0  0  0  0  0  0
   12.0819    9.2667   -3.8731 C   0  0  0  0  0  0  0  0  0  0  0  0
   12.4466    9.2836   -2.5241 C   0  0  0  0  0  0  0  0  0  0  0  0
   12.4585    8.1294   -1.7750 C   0  0  0  0  0  0  0  0  0  0  0  0
   12.1027    6.9344   -2.3713 C   0  0  0  0  0  0  0  0  0  0  0  0
   11.7456    6.9355   -3.7028 C   0  0  0  0  0  0  0  0  0  0  0  0
  1  2  1  0
  2  3  1  0
  3  4  2  0
  4  5  1  0
  5  6  2  0
  5  7  1  0
  7  8  2  0
  8  9  1  0
  9 10  1  0
 10 11  2  0
 10 12  1  0
 12 13  2  0
 13 14  1  0
 14 21  1  0
 21 22  2  0
 22 23  1  0
 23 24  2  0
 24 25  1  0
 25 26  2  0
 26 27  1  0
 27 33  1  0
 33 34  2  0
 34 35  1  0
 35 36  2  0
 36 37  1  0
 37 38  2  0
 27 28  2  0
 28 29  1  0
 29 30  2  0
 30 31  1  0
 31 32  1  0
 14 15  2  0
 15 16  1  0
 16 17  2  0
 17 18  1  0
 18 19  1  0
 19 20  2  0
 20  3  1  0
 20  7  1  0
 18  9  2  0
 17 12  1  0
 31 22  1  0
 29 24  1  0
 38 33  1  0
M  END
>  <minimizedAffinity>  (876) 
-16.59426

$$$$
Mol: 140_17 - SminaDock
     RDKit          3D

 36 42  0  0  0  0  0  0  0  0999 V2000
    4.6940   -3.2387  -16.3478 H   0  0  0  0  0  0  0  0  0  0  0  0
    5.4644   -2.8394  -15.8198 O   0  0  0  0  0  0  0  0  0  0  0  0
    5.3683   -1.5810  -15.2375 C   0  0  0  0  0  0  0  0  0  0  0  0
    4.1574   -1.2007  -14.8530 C   0  0  0  0  0  0  0  0  0  0  0  0
    3.8638    0.0951  -14.2190 C   0  0  0  0  0  0  0  0  0  0  0  0
    5.0507    0.9529  -14.0432 C   0  0  0  0  0  0  0  0  0  0  0  0
    4.8822    2.2133  -13.4472 C   0  0  0  0  0  0  0  0  0  0  0  0
    5.9599    3.0208  -13.2747 C   0  0  0  0  0  0  0  0  0  0  0  0
    7.2045    2.6024  -13.6824 C   0  0  0  0  0  0  0  0  0  0  0  0
    7.3690    1.3595  -14.2699 C   0  0  0  0  0  0  0  0  0  0  0  0
    6.2790    0.5082  -14.4600 C   0  0  0  0  0  0  0  0  0  0  0  0
    6.4576   -0.7415  -15.0528 O   0  0  0  0  0  0  0  0  0  0  0  0
    7.7469    3.8672  -13.2097 C   0  0  0  0  0  0  0  0  0  0  0  0
    8.8732    4.6820  -13.0423 C   0  0  0  0  0  0  0  0  0  0  0  0
    8.7267    5.9208  -12.4596 C   0  0  0  0  0  0  0  0  0  0  0  0
    7.4593    6.3133  -12.0595 C   0  0  0  0  0  0  0  0  0  0  0  0
    6.3526    5.5363  -12.2136 C   0  0  0  0  0  0  0  0  0  0  0  0
    6.5042    4.2857  -12.8024 C   0  0  0  0  0  0  0  0  0  0  0  0
    9.8459    6.7580  -12.2810 N   0  0  0  0  0  0  0  0  0  0  0  0
   10.2710    7.0510  -11.1003 C   0  0  0  0  0  0  0  0  0  0  0  0
   11.3308    7.8441  -10.9474 N   0  0  0  0  0  0  0  0  0  0  0  0
   11.8308    8.1936   -9.7644 C   0  0  0  0  0  0  0  0  0  0  0  0
   11.2028    7.6964   -8.6331 C   0  0  0  0  0  0  0  0  0  0  0  0
   11.6904    8.0346   -7.3644 C   0  0  0  0  0  0  0  0  0  0  0  0
   11.0700    7.5435   -6.2374 C   0  0  0  0  0  0  0  0  0  0  0  0
    9.9690    6.7202   -6.4281 C   0  0  0  0  0  0  0  0  0  0  0  0
    9.4860    6.3849   -7.6692 C   0  0  0  0  0  0  0  0  0  0  0  0
   10.1132    6.8815   -8.8081 C   0  0  0  0  0  0  0  0  0  0  0  0
    9.6494    6.5600  -10.0230 N   0  0  0  0  0  0  0  0  0  0  0  0
    8.7996    5.9236  -10.1158 H   0  0  0  0  0  0  0  0  0  0  0  0
   11.5298    7.8594   -4.8888 C   0  0  0  0  0  0  0  0  0  0  0  0
   11.5994    6.8715   -3.9324 C   0  0  0  0  0  0  0  0  0  0  0  0
   12.0331    7.1439   -2.6418 C   0  0  0  0  0  0  0  0  0  0  0  0
   12.3923    8.4263   -2.3401 C   0  0  0  0  0  0  0  0  0  0  0  0
   12.3207    9.4136   -3.3029 C   0  0  0  0  0  0  0  0  0  0  0  0
   11.8867    9.1382   -4.5926 C   0  0  0  0  0  0  0  0  0  0  0  0
  1  2  1  0
  2  3  1  0
  3  4  2  0
  4  5  1  0
  5  6  1  0
  6  7  2  0
  7  8  1  0
  8  9  2  0
  9 10  1  0
 10 11  2  0
 11 12  1  0
  9 13  1  0
 13 14  2  0
 14 15  1  0
 15 19  1  0
 19 20  2  0
 20 21  1  0
 21 22  2  0
 22 23  1  0
 23 24  2  0
 24 25  1  0
 25 31  1  0
 31 32  2  0
 32 33  1  0
 33 34  2  0
 34 35  1  0
 35 36  2  0
 25 26  2  0
 26 27  1  0
 27 28  2  0
 28 29  1  0
 29 30  1  0
 15 16  2  0
 16 17  1  0
 17 18  2  0
 12  3  1  0
 18 13  1  0
 11  6  1  0
 29 20  1  0
 18  8  1  0
 28 23  1  0
 36 31  1  0
M  END
>  <minimizedAffinity>  (877) 
-16.62525

$$$$
Mol: 176_44 - SminaDock
     RDKit          3D

 40 46  0  0  0  0  0  0  0  0999 V2000
    8.3457    0.2634  -16.9947 C   0  0  0  0  0  0  0  0  0  0  0  0
    7.0939    0.1706  -16.2720 N   0  0  0  0  0  0  0  0  0  0  0  0
    6.2320   -0.8158  -16.5759 C   0  0  0  0  0  0  0  0  0  0  0  0
    6.5230   -1.6285  -17.4683 O   0  0  0  0  0  0  0  0  0  0  0  0
    5.0338   -0.9362  -15.9116 C   0  0  0  0  0  0  0  0  0  0  0  0
    4.2165   -1.8691  -16.1976 O   0  0  0  0  0  0  0  0  0  0  0  0
    4.7305   -0.0236  -14.9244 C   0  0  0  0  0  0  0  0  0  0  0  0
    3.6471   -0.1246  -14.3171 O   0  0  0  0  0  0  0  0  0  0  0  0
    5.6427    0.9723  -14.6446 C   0  0  0  0  0  0  0  0  0  0  0  0
    5.3607    1.8889  -13.6674 C   0  0  0  0  0  0  0  0  0  0  0  0
    6.2843    2.9009  -13.3807 C   0  0  0  0  0  0  0  0  0  0  0  0
    6.2611    3.9275  -12.4738 C   0  0  0  0  0  0  0  0  0  0  0  0
    5.3345    4.1653  -11.6727 O   0  0  0  0  0  0  0  0  0  0  0  0
    7.4207    4.6558  -12.5848 C   0  0  0  0  0  0  0  0  0  0  0  0
    7.9431    5.7754  -11.9470 C   0  0  0  0  0  0  0  0  0  0  0  0
    9.1531    6.3249  -12.2458 C   0  0  0  0  0  0  0  0  0  0  0  0
    9.9077    5.7256  -13.2507 C   0  0  0  0  0  0  0  0  0  0  0  0
    9.4401    4.6147  -13.9162 C   0  0  0  0  0  0  0  0  0  0  0  0
    8.2096    4.0858  -13.5864 C   0  0  0  0  0  0  0  0  0  0  0  0
    7.4749    3.0078  -14.0517 C   0  0  0  0  0  0  0  0  0  0  0  0
    7.7466    2.0748  -15.0367 C   0  0  0  0  0  0  0  0  0  0  0  0
    6.8370    1.0735  -15.3230 C   0  0  0  0  0  0  0  0  0  0  0  0
    9.6280    7.4712  -11.5542 N   0  0  0  0  0  0  0  0  0  0  0  0
    9.9561    7.4187  -10.3036 C   0  0  0  0  0  0  0  0  0  0  0  0
    9.8346    6.2408   -9.6709 N   0  0  0  0  0  0  0  0  0  0  0  0
   10.1543    6.1065   -8.3758 C   0  0  0  0  0  0  0  0  0  0  0  0
   10.6160    7.2103   -7.6941 C   0  0  0  0  0  0  0  0  0  0  0  0
   10.9684    7.1638   -6.3605 C   0  0  0  0  0  0  0  0  0  0  0  0
   11.4345    8.2397   -5.6373 C   0  0  0  0  0  0  0  0  0  0  0  0
   11.5501    9.4383   -6.3110 C   0  0  0  0  0  0  0  0  0  0  0  0
   11.2117    9.5384   -7.6428 C   0  0  0  0  0  0  0  0  0  0  0  0
   10.7434    8.4245   -8.3390 C   0  0  0  0  0  0  0  0  0  0  0  0
   10.4063    8.4851   -9.6299 N   0  0  0  0  0  0  0  0  0  0  0  0
    9.4763    5.3792  -10.1953 H   0  0  0  0  0  0  0  0  0  0  0  0
   11.7893    8.1282   -4.2351 C   0  0  0  0  0  0  0  0  0  0  0  0
   11.7891    6.9068   -3.5994 C   0  0  0  0  0  0  0  0  0  0  0  0
   12.1219    6.7686   -2.2676 C   0  0  0  0  0  0  0  0  0  0  0  0
   12.4709    7.8687   -1.5193 C   0  0  0  0  0  0  0  0  0  0  0  0
   12.4785    9.1014   -2.1323 C   0  0  0  0  0  0  0  0  0  0  0  0
   12.1385    9.2270   -3.4854 C   0  0  0  0  0  0  0  0  0  0  0  0
  1  2  1  0
  2  3  1  0
  3  4  2  0
  3  5  1  0
  5  6  2  0
  5  7  1  0
  7  8  2  0
  7  9  1  0
  9 10  2  0
 10 11  1  0
 11 12  1  0
 12 13  2  0
 12 14  1  0
 14 15  2  0
 15 16  1  0
 16 23  1  0
 23 24  2  0
 24 25  1  0
 25 26  1  0
 26 27  2  0
 27 28  1  0
 28 29  2  0
 29 35  1  0
 35 36  2  0
 36 37  1  0
 37 38  2  0
 38 39  1  0
 39 40  2  0
 29 30  1  0
 30 31  2  0
 31 32  1  0
 32 33  2  0
 16 17  2  0
 17 18  1  0
 18 19  2  0
 19 20  1  0
 20 21  1  0
 21 22  2  0
 22  2  1  0
 22  9  1  0
 20 11  2  0
 19 14  1  0
 33 24  1  0
 32 27  1  0
 40 35  1  0
 25 34  1  0
M  END
>  <minimizedAffinity>  (878) 
-16.56588

$$$$
Mol: 177_48 - SminaDock
     RDKit          3D

 38 44  0  0  0  0  0  0  0  0999 V2000
    5.2828   -1.8253  -16.4366 C   0  0  0  0  0  0  0  0  0  0  0  0
    6.5355   -1.3831  -16.6361 N   0  0  0  0  0  0  0  0  0  0  0  0
    7.0505   -0.2972  -16.0516 C   0  0  0  0  0  0  0  0  0  0  0  0
    8.2267    0.1032  -16.2496 O   0  0  0  0  0  0  0  0  0  0  0  0
    6.2498    0.4224  -15.1852 C   0  0  0  0  0  0  0  0  0  0  0  0
    6.7380    1.5539  -14.5555 C   0  0  0  0  0  0  0  0  0  0  0  0
    6.0298    2.3345  -13.6828 C   0  0  0  0  0  0  0  0  0  0  0  0
    4.7174    1.8874  -13.4620 C   0  0  0  0  0  0  0  0  0  0  0  0
    4.2186    0.7648  -14.0807 C   0  0  0  0  0  0  0  0  0  0  0  0
    4.9739    0.0186  -14.9478 C   0  0  0  0  0  0  0  0  0  0  0  0
    4.4751   -1.1162  -15.5752 C   0  0  0  0  0  0  0  0  0  0  0  0
    6.7327    3.4618  -13.1450 C   0  0  0  0  0  0  0  0  0  0  0  0
    6.2797    4.4203  -12.2468 C   0  0  0  0  0  0  0  0  0  0  0  0
    7.0592    5.4584  -11.8057 C   0  0  0  0  0  0  0  0  0  0  0  0
    8.3402    5.5710  -12.2590 C   0  0  0  0  0  0  0  0  0  0  0  0
    8.8169    4.6159  -13.1648 C   0  0  0  0  0  0  0  0  0  0  0  0
    8.0150    3.5957  -13.5831 C   0  0  0  0  0  0  0  0  0  0  0  0
    8.3331    2.2877  -14.6839 S   0  0  1  0  0  0  0  0  0  0  0  0
    9.4081    1.3739  -14.2168 O   0  0  0  0  0  0  0  0  0  0  0  0
    8.5733    2.8182  -16.0641 O   0  0  0  0  0  0  0  0  0  0  0  0
    9.1529    6.6376  -11.8092 N   0  0  0  0  0  0  0  0  0  0  0  0
    9.4670    6.6848  -10.5624 C   0  0  0  0  0  0  0  0  0  0  0  0
    9.0404    5.7509   -9.6995 N   0  0  0  0  0  0  0  0  0  0  0  0
    9.3622    5.7882   -8.3893 C   0  0  0  0  0  0  0  0  0  0  0  0
   10.1535    6.8184   -7.9279 C   0  0  0  0  0  0  0  0  0  0  0  0
   10.4901    6.8622   -6.5733 C   0  0  0  0  0  0  0  0  0  0  0  0
   11.2801    7.8794   -6.0802 C   0  0  0  0  0  0  0  0  0  0  0  0
   11.7055    8.8272   -6.9898 C   0  0  0  0  0  0  0  0  0  0  0  0
   11.3848    8.8019   -8.3290 C   0  0  0  0  0  0  0  0  0  0  0  0
   10.5943    7.7803   -8.8104 C   0  0  0  0  0  0  0  0  0  0  0  0
   10.2379    7.6860  -10.1050 N   0  0  0  0  0  0  0  0  0  0  0  0
   10.5913    8.4326  -10.7398 H   0  0  0  0  0  0  0  0  0  0  0  0
   11.6609    7.9687   -4.6636 C   0  0  0  0  0  0  0  0  0  0  0  0
   11.6526    6.8170   -3.8930 C   0  0  0  0  0  0  0  0  0  0  0  0
   11.9998    6.8288   -2.5521 C   0  0  0  0  0  0  0  0  0  0  0  0
   12.3627    8.0268   -1.9770 C   0  0  0  0  0  0  0  0  0  0  0  0
   12.3665    9.1639   -2.7545 C   0  0  0  0  0  0  0  0  0  0  0  0
   12.0212    9.1579   -4.0921 C   0  0  0  0  0  0  0  0  0  0  0  0
  1  2  1  0
  2  3  1  0
  3  4  2  0
  3  5  1  0
  5  6  2  0
  6  7  1  0
  7  8  2  0
  8  9  1  0
  9 10  2  0
 10 11  1  0
  7 12  1  0
 12 13  2  0
 13 14  1  0
 14 15  2  0
 15 21  1  0
 21 22  2  0
 22 23  1  0
 23 24  2  0
 24 25  1  0
 25 26  2  0
 26 27  1  0
 27 33  1  0
 33 34  2  0
 34 35  1  0
 35 36  2  0
 36 37  1  0
 37 38  2  0
 27 28  2  0
 28 29  1  0
 29 30  2  0
 30 31  1  0
 31 32  1  0
 15 16  1  0
 16 17  2  0
 18 17  1  1
 18 19  2  0
 18 20  2  0
 11  1  2  0
 17 12  1  0
 10  5  1  0
 31 22  1  0
 18  6  1  0
 30 25  1  0
 38 33  1  0
M  CHG  1   2  -1
M  END
>  <minimizedAffinity>  (879) 
-16.58182

$$$$
Mol: 171_7 - SminaDock
     RDKit          3D

 38 44  0  0  0  0  0  0  0  0999 V2000
    8.7529    6.0682  -12.2277 C   0  0  0  0  0  0  0  0  0  0  0  0
    7.3766    5.9340  -12.2948 C   0  0  0  0  0  0  0  0  0  0  0  0
    6.7755    4.8420  -12.8794 C   0  0  0  0  0  0  0  0  0  0  0  0
    7.5341    3.8241  -13.4293 C   0  0  0  0  0  0  0  0  0  0  0  0
    8.9067    3.9567  -13.3630 C   0  0  0  0  0  0  0  0  0  0  0  0
    9.5124    5.0491  -12.7783 C   0  0  0  0  0  0  0  0  0  0  0  0
    9.4298    2.7439  -14.0168 C   0  0  0  0  0  0  0  0  0  0  0  0
   10.6619    2.5014  -14.1517 O   0  0  0  0  0  0  0  0  0  0  0  0
    8.3283    1.9004  -14.4662 C   0  0  0  0  0  0  0  0  0  0  0  0
    8.2787    0.6773  -15.1235 C   0  0  0  0  0  0  0  0  0  0  0  0
    7.0531    0.1125  -15.4225 C   0  0  0  0  0  0  0  0  0  0  0  0
    5.8871    0.7529  -15.0740 C   0  0  0  0  0  0  0  0  0  0  0  0
    5.9755    1.9710  -14.4196 C   0  0  0  0  0  0  0  0  0  0  0  0
    7.1719    2.5778  -14.0979 C   0  0  0  0  0  0  0  0  0  0  0  0
    4.6304    0.1907  -15.3715 O   0  0  0  0  0  0  0  0  0  0  0  0
    4.4926   -0.8377  -16.3336 C   0  0  1  0  0  0  0  0  0  0  0  0
    4.1859   -0.2841  -17.7081 C   0  0  0  0  0  0  0  0  0  0  0  0
    5.7024   -1.6650  -16.3736 C   0  0  0  0  0  0  0  0  0  0  0  0
    5.6242   -2.8788  -16.6726 O   0  0  0  0  0  0  0  0  0  0  0  0
    6.9495   -1.1106  -16.0799 O   0  0  0  0  0  0  0  0  0  0  0  0
   11.3113    8.0873   -5.8429 C   0  0  0  0  0  0  0  0  0  0  0  0
   11.5133    9.2714   -6.5596 C   0  0  0  0  0  0  0  0  0  0  0  0
   11.1495    9.3321   -7.8829 C   0  0  0  0  0  0  0  0  0  0  0  0
   10.5908    8.2375   -8.4990 C   0  0  0  0  0  0  0  0  0  0  0  0
   10.3814    7.0435   -7.7961 C   0  0  0  0  0  0  0  0  0  0  0  0
    9.8267    5.9389   -8.3864 C   0  0  0  0  0  0  0  0  0  0  0  0
    9.4789    6.0284   -9.6885 N   0  0  0  0  0  0  0  0  0  0  0  0
    9.6654    7.1497  -10.3830 C   0  0  0  0  0  0  0  0  0  0  0  0
    9.3242    7.2045  -11.6195 N   0  0  0  0  0  0  0  0  0  0  0  0
   10.2149    8.2374   -9.7906 N   0  0  0  0  0  0  0  0  0  0  0  0
   10.3652    9.1211  -10.3264 H   0  0  0  0  0  0  0  0  0  0  0  0
   10.7495    7.0081   -6.4885 C   0  0  0  0  0  0  0  0  0  0  0  0
   12.4604    7.9463   -1.7694 C   0  0  0  0  0  0  0  0  0  0  0  0
   12.4265    9.1536   -2.4139 C   0  0  0  0  0  0  0  0  0  0  0  0
   12.0519    9.1851   -3.7349 C   0  0  0  0  0  0  0  0  0  0  0  0
   11.7085    8.0626   -4.4452 C   0  0  0  0  0  0  0  0  0  0  0  0
   11.7549    6.8668   -3.7624 C   0  0  0  0  0  0  0  0  0  0  0  0
   12.1259    6.7764   -2.4275 C   0  0  0  0  0  0  0  0  0  0  0  0
 33 34  2  0
 34 35  1  0
 35 36  2  0
 36 21  1  0
 21 22  2  0
 22 23  1  0
 23 24  2  0
 24 25  1  0
 25 26  1  0
 26 27  2  0
 27 28  1  0
 28 29  2  0
 29  1  1  0
  1  2  2  0
  2  3  1  0
  3  4  2  0
  4  5  1  0
  5  6  2  0
  5  7  1  0
  7  8  2  0
  7  9  1  0
  9 10  2  0
 10 11  1  0
 11 12  2  0
 12 13  1  0
 13 14  2  0
 12 15  1  0
 15 16  1  0
 16 17  1  6
 16 18  1  0
 18 19  2  0
 18 20  1  0
 28 30  1  0
 30 31  1  0
 25 32  2  0
 36 37  1  0
 37 38  2  0
 38 33  1  0
 32 21  1  0
 30 24  1  0
  6  1  1  0
 14  9  1  0
 14  4  1  0
 20 11  1  0
M  END
>  <minimizedAffinity>  (880) 
-16.61162

$$$$
Mol: 172_51 - SminaDock
     RDKit          3D

 42 48  0  0  0  0  0  0  0  0999 V2000
   14.3922    3.7474  -18.9293 O   0  0  0  0  0  0  0  0  0  0  0  0
   13.2709    3.0936  -18.4329 C   0  0  0  0  0  0  0  0  0  0  0  0
   12.9162    1.8805  -19.0067 C   0  0  0  0  0  0  0  0  0  0  0  0
   12.0327    0.8987  -18.5668 C   0  0  0  0  0  0  0  0  0  0  0  0
   11.2931    0.9891  -17.4137 C   0  0  0  0  0  0  0  0  0  0  0  0
   11.1433    2.0727  -16.5188 C   0  0  0  0  0  0  0  0  0  0  0  0
   11.5563    3.3696  -16.7129 C   0  0  0  0  0  0  0  0  0  0  0  0
   10.8282    4.2263  -16.1786 O   0  0  0  0  0  0  0  0  0  0  0  0
   12.6433    3.7531  -17.4099 N   0  0  0  0  0  0  0  0  0  0  0  0
   10.4717    1.7582  -15.2627 C   0  0  1  0  0  0  0  0  0  0  0  0
   10.5580    2.6549  -14.1205 C   0  0  0  0  0  0  0  0  0  0  0  0
    9.3204    3.4507  -13.7807 C   0  0  0  0  0  0  0  0  0  0  0  0
    9.7960    4.5986  -13.1806 C   0  0  0  0  0  0  0  0  0  0  0  0
    8.9137    5.5446  -12.7428 C   0  0  0  0  0  0  0  0  0  0  0  0
    7.5573    5.3442  -12.9041 C   0  0  0  0  0  0  0  0  0  0  0  0
    7.0909    4.1882  -13.5077 C   0  0  0  0  0  0  0  0  0  0  0  0
    7.9786    3.2435  -13.9444 C   0  0  0  0  0  0  0  0  0  0  0  0
    7.1069    2.1579  -14.5199 C   0  0  0  0  0  0  0  0  0  0  0  0
    7.4145    0.8404  -13.8321 C   0  0  0  0  0  0  0  0  0  0  0  0
    8.7518    0.3573  -14.3612 C   0  0  0  0  0  0  0  0  0  0  0  0
    9.1539    1.1749  -15.5214 N   0  0  0  0  0  0  0  0  0  0  0  0
    9.1531    0.2956  -16.6561 C   0  0  0  0  0  0  0  0  0  0  0  0
   10.5264   -0.2323  -17.0433 C   0  0  0  0  0  0  0  0  0  0  0  0
   14.4250    4.7568  -18.8605 H   0  0  0  0  0  0  0  0  0  0  0  0
    9.3740    6.7420  -12.1185 N   0  0  0  0  0  0  0  0  0  0  0  0
    9.4834    7.6022  -12.7056 H   0  0  0  0  0  0  0  0  0  0  0  0
    9.6672    6.7358  -10.7395 C   0  0  0  0  0  0  0  0  0  0  0  0
    9.2042    5.7205   -9.9518 C   0  0  0  0  0  0  0  0  0  0  0  0
    9.5070    5.7335   -8.5850 C   0  0  0  0  0  0  0  0  0  0  0  0
   10.2610    6.7516   -8.0302 C   0  0  0  0  0  0  0  0  0  0  0  0
   10.5775    6.7940   -6.6842 C   0  0  0  0  0  0  0  0  0  0  0  0
   11.3300    7.8124   -6.1367 C   0  0  0  0  0  0  0  0  0  0  0  0
   11.7689    8.8095   -6.9830 C   0  0  0  0  0  0  0  0  0  0  0  0
   11.4515    8.7643   -8.3256 C   0  0  0  0  0  0  0  0  0  0  0  0
   10.6996    7.7484   -8.8771 C   0  0  0  0  0  0  0  0  0  0  0  0
   10.3933    7.7162  -10.2053 N   0  0  0  0  0  0  0  0  0  0  0  0
   11.6639    7.8550   -4.7109 C   0  0  0  0  0  0  0  0  0  0  0  0
   11.6074    6.7331   -3.9083 C   0  0  0  0  0  0  0  0  0  0  0  0
   11.9284    6.8069   -2.5674 C   0  0  0  0  0  0  0  0  0  0  0  0
   12.3166    7.9904   -1.9713 C   0  0  0  0  0  0  0  0  0  0  0  0
   12.3735    9.1127   -2.7729 C   0  0  0  0  0  0  0  0  0  0  0  0
   12.0525    9.0395   -4.1142 C   0  0  0  0  0  0  0  0  0  0  0  0
  1  2  1  0
  2  3  1  0
  3  4  2  0
  4  5  1  0
  5  6  2  0
  6  7  1  0
  7  8  2  0
  7  9  1  0
  6 10  1  0
 10 11  1  1
 11 12  1  0
 12 13  2  0
 13 14  1  0
 14 25  1  0
 25 27  1  0
 27 28  2  0
 28 29  1  0
 29 30  2  0
 30 31  1  0
 31 32  2  0
 32 37  1  0
 37 38  2  0
 38 39  1  0
 39 40  2  0
 40 41  1  0
 41 42  2  0
 32 33  1  0
 33 34  2  0
 34 35  1  0
 35 36  2  0
 14 15  2  0
 15 16  1  0
 16 17  2  0
 17 18  1  0
 18 19  1  0
 19 20  1  0
 20 21  1  0
 21 22  1  0
 22 23  1  0
  9  2  2  0
 21 10  1  0
 23  5  1  0
 17 12  1  0
 36 27  1  0
 35 30  1  0
 42 37  1  0
  1 24  1  0
 25 26  1  0
M  END
>  <minimizedAffinity>  (881) 
-16.58494

$$$$
Mol: 152_14 - SminaDock
     RDKit          3D

 39 45  0  0  0  0  0  0  0  0999 V2000
    5.4135   -3.0403  -17.5219 H   0  0  0  0  0  0  0  0  0  0  0  0
    4.9235   -2.7628  -16.6564 O   0  0  0  0  0  0  0  0  0  0  0  0
    5.3394   -1.5850  -16.0005 C   0  0  0  0  0  0  0  0  0  0  0  0
    6.4988   -1.0830  -16.2074 N   0  0  0  0  0  0  0  0  0  0  0  0
    6.8541    0.1216  -15.5011 C   0  0  0  0  0  0  0  0  0  0  0  0
    8.1185    0.6840  -15.7272 C   0  0  0  0  0  0  0  0  0  0  0  0
    8.5442    1.8368  -15.1045 C   0  0  0  0  0  0  0  0  0  0  0  0
    7.6470    2.4359  -14.2203 C   0  0  0  0  0  0  0  0  0  0  0  0
    6.4166    1.9144  -13.9811 C   0  0  0  0  0  0  0  0  0  0  0  0
    6.0022    0.7331  -14.6300 C   0  0  0  0  0  0  0  0  0  0  0  0
    4.7002    0.1858  -14.3640 C   0  0  0  0  0  0  0  0  0  0  0  0
    4.4102   -0.9971  -15.1106 N   0  0  0  0  0  0  0  0  0  0  0  0
    3.4362   -1.4629  -14.9894 H   0  0  0  0  0  0  0  0  0  0  0  0
    5.4681    2.4999  -13.0714 C   0  0  0  0  0  0  0  0  0  0  0  0
    5.8399    3.7748  -12.3899 C   0  0  0  0  0  0  0  0  0  0  0  0
    7.1805    4.2781  -12.6787 C   0  0  0  0  0  0  0  0  0  0  0  0
    7.5736    5.4312  -12.0441 C   0  0  0  0  0  0  0  0  0  0  0  0
    8.8115    5.9989  -12.2439 C   0  0  0  0  0  0  0  0  0  0  0  0
    9.6778    5.3790  -13.1138 C   0  0  0  0  0  0  0  0  0  0  0  0
    9.3155    4.2128  -13.7730 C   0  0  0  0  0  0  0  0  0  0  0  0
    8.0739    3.6658  -13.5562 C   0  0  0  0  0  0  0  0  0  0  0  0
    9.2349    7.1891  -11.5974 N   0  0  0  0  0  0  0  0  0  0  0  0
    9.6283    7.1420  -10.3529 C   0  0  0  0  0  0  0  0  0  0  0  0
   10.0255    8.2788   -9.7560 N   0  0  0  0  0  0  0  0  0  0  0  0
   10.4285    8.2537   -8.4884 C   0  0  0  0  0  0  0  0  0  0  0  0
   10.8506    9.3777   -7.8038 C   0  0  0  0  0  0  0  0  0  0  0  0
   11.2602    9.3121   -6.4891 C   0  0  0  0  0  0  0  0  0  0  0  0
   11.2696    8.1228   -5.7910 C   0  0  0  0  0  0  0  0  0  0  0  0
   10.8502    6.9967   -6.4670 C   0  0  0  0  0  0  0  0  0  0  0  0
   10.4338    7.0581   -7.8007 C   0  0  0  0  0  0  0  0  0  0  0  0
   10.0258    5.9194   -8.4298 C   0  0  0  0  0  0  0  0  0  0  0  0
    9.6252    5.9701   -9.7042 N   0  0  0  0  0  0  0  0  0  0  0  0
    9.3132    5.0719  -10.1726 H   0  0  0  0  0  0  0  0  0  0  0  0
   11.7077    8.0895   -4.4003 C   0  0  0  0  0  0  0  0  0  0  0  0
   11.8072    6.8757   -3.7295 C   0  0  0  0  0  0  0  0  0  0  0  0
   12.2116    6.7731   -2.4220 C   0  0  0  0  0  0  0  0  0  0  0  0
   12.5292    7.9377   -1.7609 C   0  0  0  0  0  0  0  0  0  0  0  0
   12.4535    9.1739   -2.3632 C   0  0  0  0  0  0  0  0  0  0  0  0
   12.0408    9.2122   -3.6781 C   0  0  0  0  0  0  0  0  0  0  0  0
  1  2  1  0
  2  3  1  0
  3  4  2  0
  4  5  1  0
  5  6  2  0
  6  7  1  0
  7  8  2  0
  8  9  1  0
  9 10  2  0
 10 11  1  0
 11 12  1  0
 12 13  1  0
  9 14  1  0
 14 15  1  0
 15 16  1  0
 16 17  2  0
 17 18  1  0
 18 22  1  0
 22 23  2  0
 23 24  1  0
 24 25  2  0
 25 26  1  0
 26 27  2  0
 27 28  1  0
 28 34  1  0
 34 35  2  0
 35 36  1  0
 36 37  2  0
 37 38  1  0
 38 39  2  0
 28 29  2  0
 29 30  1  0
 30 31  2  0
 31 32  1  0
 32 33  1  0
 18 19  2  0
 19 20  1  0
 20 21  2  0
 12  3  1  0
 21 16  1  0
 10  5  1  0
 32 23  1  0
 21  8  1  0
 30 25  1  0
 39 34  1  0
M  END
>  <minimizedAffinity>  (882) 
-16.58462

$$$$
Mol: 152_1 - SminaDock
     RDKit          3D

 38 44  0  0  0  0  0  0  0  0999 V2000
    8.9311    6.0634  -12.2824 C   0  0  0  0  0  0  0  0  0  0  0  0
    9.6513    5.5077  -13.3168 C   0  0  0  0  0  0  0  0  0  0  0  0
    9.1625    4.3994  -14.0005 C   0  0  0  0  0  0  0  0  0  0  0  0
    7.9537    3.8240  -13.6719 C   0  0  0  0  0  0  0  0  0  0  0  0
    7.2211    4.3639  -12.6435 C   0  0  0  0  0  0  0  0  0  0  0  0
    7.7269    5.4628  -11.9806 C   0  0  0  0  0  0  0  0  0  0  0  0
    5.9128    3.8642  -12.1700 C   0  0  0  0  0  0  0  0  0  0  0  0
    5.3829    2.6991  -12.9003 C   0  0  0  0  0  0  0  0  0  0  0  0
    6.2202    2.1762  -13.9750 C   0  0  0  0  0  0  0  0  0  0  0  0
    7.4407    2.6808  -14.3745 C   0  0  0  0  0  0  0  0  0  0  0  0
    8.1597    2.1234  -15.4034 C   0  0  0  0  0  0  0  0  0  0  0  0
    7.6306    1.0149  -16.0562 C   0  0  0  0  0  0  0  0  0  0  0  0
    6.4107    0.4644  -15.6996 C   0  0  0  0  0  0  0  0  0  0  0  0
    5.7420    1.0719  -14.6597 C   0  0  0  0  0  0  0  0  0  0  0  0
    4.4738    0.4750  -14.3071 N   0  0  0  0  0  0  0  0  0  0  0  0
    3.9435    0.9128  -13.5229 H   0  0  0  0  0  0  0  0  0  0  0  0
    4.0123   -0.6564  -15.0244 C   0  0  0  0  0  0  0  0  0  0  0  0
    2.7902   -0.9008  -15.0603 O   0  0  0  0  0  0  0  0  0  0  0  0
    5.0019   -1.5132  -15.7095 C   0  0  0  0  0  0  0  0  0  0  0  0
    5.9032   -0.6530  -16.3767 O   0  0  0  0  0  0  0  0  0  0  0  0
   11.3045    8.1463   -5.7540 C   0  0  0  0  0  0  0  0  0  0  0  0
   11.3668    9.3112   -6.4845 C   0  0  0  0  0  0  0  0  0  0  0  0
   10.9887    9.3400   -7.8162 C   0  0  0  0  0  0  0  0  0  0  0  0
   10.5358    8.1890   -8.4486 C   0  0  0  0  0  0  0  0  0  0  0  0
   10.4722    7.0196   -7.7190 C   0  0  0  0  0  0  0  0  0  0  0  0
   10.0234    5.8759   -8.3438 C   0  0  0  0  0  0  0  0  0  0  0  0
    9.6627    5.9503   -9.6527 N   0  0  0  0  0  0  0  0  0  0  0  0
    9.7368    7.1011  -10.3308 C   0  0  0  0  0  0  0  0  0  0  0  0
    9.4048    7.1988  -11.5614 N   0  0  0  0  0  0  0  0  0  0  0  0
   10.1734    8.2358   -9.7409 N   0  0  0  0  0  0  0  0  0  0  0  0
   10.2359    9.1498  -10.2668 H   0  0  0  0  0  0  0  0  0  0  0  0
   10.8560    7.0047   -6.3785 C   0  0  0  0  0  0  0  0  0  0  0  0
   12.4779    8.0166   -1.6495 C   0  0  0  0  0  0  0  0  0  0  0  0
   12.1782    6.8691   -2.3591 C   0  0  0  0  0  0  0  0  0  0  0  0
   11.8006    6.9346   -3.6851 C   0  0  0  0  0  0  0  0  0  0  0  0
   11.7057    8.1376   -4.3581 C   0  0  0  0  0  0  0  0  0  0  0  0
   12.0023    9.2816   -3.6587 C   0  0  0  0  0  0  0  0  0  0  0  0
   12.3856    9.2208   -2.3138 C   0  0  0  0  0  0  0  0  0  0  0  0
 33 34  2  0
 34 35  1  0
 35 36  2  0
 36 21  1  0
 21 22  2  0
 22 23  1  0
 23 24  2  0
 24 25  1  0
 25 26  1  0
 26 27  2  0
 27 28  1  0
 28 29  2  0
 29  1  1  0
  1  2  2  0
  2  3  1  0
  3  4  2  0
  4  5  1  0
  5  6  2  0
  5  7  1  0
  7  8  1  0
  8  9  1  0
  9 10  2  0
 10 11  1  0
 11 12  2  0
 12 13  1  0
 13 14  2  0
 14 15  1  0
 15 16  1  0
 15 17  1  0
 17 18  2  0
 17 19  1  0
 19 20  1  0
 28 30  1  0
 30 31  1  0
 25 32  2  0
 36 37  1  0
 37 38  2  0
 38 33  1  0
 32 21  1  0
 30 24  1  0
  6  1  1  0
 14  9  1  0
 10  4  1  0
 20 13  1  0
M  END
>  <minimizedAffinity>  (883) 
-16.56107

$$$$
Mol: 167_46 - SminaDock
     RDKit          3D

 40 46  0  0  0  0  0  0  0  0999 V2000
    8.8920    5.5626  -12.3926 C   0  0  0  0  0  0  0  0  0  0  0  0
    9.5810    4.7594  -13.2754 C   0  0  0  0  0  0  0  0  0  0  0  0
    8.9983    3.6508  -13.8402 C   0  0  0  0  0  0  0  0  0  0  0  0
    7.6983    3.3378  -13.5154 C   0  0  0  0  0  0  0  0  0  0  0  0
    6.9760    4.1151  -12.6375 C   0  0  0  0  0  0  0  0  0  0  0  0
    7.5760    5.2436  -12.0654 C   0  0  0  0  0  0  0  0  0  0  0  0
    5.6116    3.7205  -12.3459 C   0  0  0  0  0  0  0  0  0  0  0  0
    4.9832    4.4614  -11.5387 O   0  0  0  0  0  0  0  0  0  0  0  0
    4.9192    2.5534  -12.9030 C   0  0  0  0  0  0  0  0  0  0  0  0
    5.7903    1.8083  -13.8217 C   0  0  0  0  0  0  0  0  0  0  0  0
    7.0872    2.1585  -14.1189 C   0  0  0  0  0  0  0  0  0  0  0  0
    7.5548    1.2293  -14.9996 N   0  0  0  0  0  0  0  0  0  0  0  0
    8.5155    1.2599  -15.3873 H   0  0  0  0  0  0  0  0  0  0  0  0
    6.6214    0.3103  -15.2748 C   0  0  0  0  0  0  0  0  0  0  0  0
    6.6281   -0.7920  -16.0855 N   0  0  0  0  0  0  0  0  0  0  0  0
    5.5292   -1.5579  -16.1776 C   0  0  0  0  0  0  0  0  0  0  0  0
    5.5008   -2.7142  -17.0128 N   0  0  0  0  0  0  0  0  0  0  0  0
    4.9503   -2.7516  -17.8993 H   0  0  0  0  0  0  0  0  0  0  0  0
    6.0384   -3.5677  -16.7557 H   0  0  0  0  0  0  0  0  0  0  0  0
    4.4447   -1.2156  -15.4637 N   0  0  0  0  0  0  0  0  0  0  0  0
    4.3966   -0.1333  -14.6498 C   0  0  0  0  0  0  0  0  0  0  0  0
    5.5103    0.6498  -14.5514 C   0  0  0  0  0  0  0  0  0  0  0  0
   11.3878    7.9778   -5.9855 C   0  0  0  0  0  0  0  0  0  0  0  0
   11.6915    9.0251   -6.8446 C   0  0  0  0  0  0  0  0  0  0  0  0
   11.3671    8.9435   -8.1828 C   0  0  0  0  0  0  0  0  0  0  0  0
   10.7386    7.8450   -8.7297 C   0  0  0  0  0  0  0  0  0  0  0  0
   10.4170    7.7561  -10.0388 N   0  0  0  0  0  0  0  0  0  0  0  0
    9.8060    6.6903  -10.5751 C   0  0  0  0  0  0  0  0  0  0  0  0
    9.5421    6.7018  -11.8340 N   0  0  0  0  0  0  0  0  0  0  0  0
    9.4985    5.6608   -9.7720 N   0  0  0  0  0  0  0  0  0  0  0  0
    9.0230    4.8336  -10.1944 H   0  0  0  0  0  0  0  0  0  0  0  0
    9.8046    5.7071   -8.4428 C   0  0  0  0  0  0  0  0  0  0  0  0
   10.4333    6.7997   -7.8821 C   0  0  0  0  0  0  0  0  0  0  0  0
   10.7587    6.8833   -6.5437 C   0  0  0  0  0  0  0  0  0  0  0  0
   12.3608    8.1059   -1.8192 C   0  0  0  0  0  0  0  0  0  0  0  0
   12.3712    9.2573   -2.5769 C   0  0  0  0  0  0  0  0  0  0  0  0
   12.0578    9.2204   -3.9222 C   0  0  0  0  0  0  0  0  0  0  0  0
   11.7238    8.0450   -4.5635 C   0  0  0  0  0  0  0  0  0  0  0  0
   11.7160    6.8991   -3.7986 C   0  0  0  0  0  0  0  0  0  0  0  0
   12.0265    6.9212   -2.4557 C   0  0  0  0  0  0  0  0  0  0  0  0
 35 36  2  0
 36 37  1  0
 37 38  2  0
 38 23  1  0
 23 24  1  0
 24 25  2  0
 25 26  1  0
 26 27  2  0
 27 28  1  0
 28 29  2  0
 29  1  1  0
  1  2  2  0
  2  3  1  0
  3  4  2  0
  4  5  1  0
  5  6  2  0
  5  7  1  0
  7  8  2  0
  7  9  1  0
  9 10  1  0
 10 11  2  0
 11 12  1  0
 12 13  1  0
 12 14  1  0
 14 15  2  0
 15 16  1  0
 16 17  1  0
 17 18  1  0
 17 19  1  0
 16 20  2  0
 20 21  1  0
 21 22  2  0
 28 30  1  0
 30 31  1  0
 30 32  1  0
 32 33  2  0
 33 34  1  0
 38 39  1  0
 39 40  2  0
 40 35  1  0
 34 23  2  0
 33 26  1  0
  6  1  1  0
 22 10  1  0
 11  4  1  0
 22 14  1  0
M  END
>  <minimizedAffinity>  (884) 
-16.60259

$$$$
Mol: 151_29 - SminaDock
     RDKit          3D

 38 44  0  0  0  0  0  0  0  0999 V2000
    8.7061    5.7175  -12.2992 C   0  0  0  0  0  0  0  0  0  0  0  0
    9.4637    4.9292  -13.1269 C   0  0  0  0  0  0  0  0  0  0  0  0
    8.9995    3.7578  -13.7064 C   0  0  0  0  0  0  0  0  0  0  0  0
    7.7123    3.3736  -13.4322 C   0  0  0  0  0  0  0  0  0  0  0  0
    6.9236    4.1670  -12.5885 C   0  0  0  0  0  0  0  0  0  0  0  0
    7.4135    5.3249  -12.0284 C   0  0  0  0  0  0  0  0  0  0  0  0
    5.5941    3.7770  -12.3005 N   0  0  0  0  0  0  0  0  0  0  0  0
    4.9969    4.3869  -11.6546 H   0  0  0  0  0  0  0  0  0  0  0  0
    4.9523    2.6025  -12.8103 C   0  0  0  0  0  0  0  0  0  0  0  0
    5.7959    1.7745  -13.6998 C   0  0  0  0  0  0  0  0  0  0  0  0
    7.0869    2.1748  -13.9644 C   0  0  0  0  0  0  0  0  0  0  0  0
    7.8584    1.3765  -14.8046 C   0  0  0  0  0  0  0  0  0  0  0  0
    7.3097    0.2245  -15.3378 C   0  0  0  0  0  0  0  0  0  0  0  0
    6.0205   -0.1726  -15.0718 C   0  0  0  0  0  0  0  0  0  0  0  0
    5.2455    0.5997  -14.2473 C   0  0  0  0  0  0  0  0  0  0  0  0
    3.8922    0.0041  -14.0858 C   0  0  0  0  0  0  0  0  0  0  0  0
    3.9368   -1.1953  -14.8918 N   0  0  0  0  0  0  0  0  0  0  0  0
    3.1271   -1.8400  -14.9840 H   0  0  0  0  0  0  0  0  0  0  0  0
    5.2112   -1.3303  -15.5019 C   0  0  0  0  0  0  0  0  0  0  0  0
    5.5837   -2.2695  -16.2717 O   0  0  0  0  0  0  0  0  0  0  0  0
   11.2487    8.0708   -5.9912 C   0  0  0  0  0  0  0  0  0  0  0  0
   11.3675    9.2070   -6.7803 C   0  0  0  0  0  0  0  0  0  0  0  0
   10.9743    9.1903   -8.1223 C   0  0  0  0  0  0  0  0  0  0  0  0
   10.4650    8.0429   -8.6725 C   0  0  0  0  0  0  0  0  0  0  0  0
   10.3402    6.9187   -7.9170 C   0  0  0  0  0  0  0  0  0  0  0  0
    9.8240    5.7573   -8.4754 C   0  0  0  0  0  0  0  0  0  0  0  0
    9.4623    5.8007   -9.7716 N   0  0  0  0  0  0  0  0  0  0  0  0
    9.5881    6.9091  -10.5069 C   0  0  0  0  0  0  0  0  0  0  0  0
    9.2348    6.9120  -11.7315 N   0  0  0  0  0  0  0  0  0  0  0  0
   10.0872    8.0420   -9.9774 N   0  0  0  0  0  0  0  0  0  0  0  0
   10.1863    8.9042  -10.5460 H   0  0  0  0  0  0  0  0  0  0  0  0
   10.7318    6.9362   -6.5810 C   0  0  0  0  0  0  0  0  0  0  0  0
   12.4068    7.9909   -1.9289 C   0  0  0  0  0  0  0  0  0  0  0  0
   12.0323    6.8225   -2.5770 C   0  0  0  0  0  0  0  0  0  0  0  0
   11.6637    6.8897   -3.8931 C   0  0  0  0  0  0  0  0  0  0  0  0
   11.6516    8.0644   -4.5897 C   0  0  0  0  0  0  0  0  0  0  0  0
   12.0181    9.2311   -3.9679 C   0  0  0  0  0  0  0  0  0  0  0  0
   12.3913    9.1750   -2.6423 C   0  0  0  0  0  0  0  0  0  0  0  0
 33 34  2  0
 34 35  1  0
 35 36  2  0
 36 21  1  0
 21 22  2  0
 22 23  1  0
 23 24  2  0
 24 25  1  0
 25 26  1  0
 26 27  2  0
 27 28  1  0
 28 29  2  0
 29  1  1  0
  1  2  2  0
  2  3  1  0
  3  4  2  0
  4  5  1  0
  5  6  2  0
  5  7  1  0
  7  8  1  0
  7  9  1  0
  9 10  1  0
 10 11  2  0
 11 12  1  0
 12 13  2  0
 13 14  1  0
 14 15  2  0
 15 16  1  0
 16 17  1  0
 17 18  1  0
 17 19  1  0
 19 20  2  0
 28 30  1  0
 30 31  1  0
 25 32  2  0
 36 37  1  0
 37 38  2  0
 38 33  1  0
 32 21  1  0
 30 24  1  0
  6  1  1  0
 15 10  1  0
 11  4  1  0
 19 14  1  0
M  END
>  <minimizedAffinity>  (885) 
-16.57274

$$$$
Mol: 182_9 - SminaDock
     RDKit          3D

 39 45  0  0  0  0  0  0  0  0999 V2000
    2.2459    0.1931  -13.5320 H   0  0  0  0  0  0  0  0  0  0  0  0
    2.9767   -0.3376  -13.9609 O   0  0  0  0  0  0  0  0  0  0  0  0
    4.2059    0.2708  -14.2840 C   0  0  0  0  0  0  0  0  0  0  0  0
    4.6637    1.3318  -13.6200 N   0  0  0  0  0  0  0  0  0  0  0  0
    5.8256    1.9580  -13.8774 C   0  0  0  0  0  0  0  0  0  0  0  0
    6.6190    1.4836  -14.9011 C   0  0  0  0  0  0  0  0  0  0  0  0
    6.2150    0.3901  -15.6348 C   0  0  0  0  0  0  0  0  0  0  0  0
    6.9507   -0.1114  -16.6419 N   0  0  0  0  0  0  0  0  0  0  0  0
    6.5288   -1.1808  -17.3399 C   0  0  0  0  0  0  0  0  0  0  0  0
    7.2227   -1.6599  -18.2954 O   0  0  0  0  0  0  0  0  0  0  0  0
    5.3385   -1.8309  -17.0844 C   0  0  0  0  0  0  0  0  0  0  0  0
    4.5360   -1.3610  -16.0583 C   0  0  0  0  0  0  0  0  0  0  0  0
    4.9286   -0.2669  -15.3156 C   0  0  0  0  0  0  0  0  0  0  0  0
    7.7935    2.3346  -14.9561 C   0  0  0  0  0  0  0  0  0  0  0  0
    8.7293    2.1955  -15.7683 O   0  0  0  0  0  0  0  0  0  0  0  0
    7.6798    3.3654  -13.9045 C   0  0  0  0  0  0  0  0  0  0  0  0
    8.4964    4.4084  -13.5185 C   0  0  0  0  0  0  0  0  0  0  0  0
    8.1424    5.2562  -12.4638 C   0  0  0  0  0  0  0  0  0  0  0  0
    6.9447    5.0145  -11.8189 C   0  0  0  0  0  0  0  0  0  0  0  0
    6.1535    3.9751  -12.2199 C   0  0  0  0  0  0  0  0  0  0  0  0
    6.4853    3.1260  -13.2599 C   0  0  0  0  0  0  0  0  0  0  0  0
    8.9556    6.3247  -12.0512 N   0  0  0  0  0  0  0  0  0  0  0  0
    9.3573    6.4833  -10.8321 C   0  0  0  0  0  0  0  0  0  0  0  0
   10.1277    7.4941  -10.4372 N   0  0  0  0  0  0  0  0  0  0  0  0
   10.5165    7.6056   -9.1411 C   0  0  0  0  0  0  0  0  0  0  0  0
   11.3245    8.6687   -8.7339 C   0  0  0  0  0  0  0  0  0  0  0  0
   11.6963    8.7441   -7.4078 C   0  0  0  0  0  0  0  0  0  0  0  0
   11.2991    7.8105   -6.4774 C   0  0  0  0  0  0  0  0  0  0  0  0
   10.5025    6.7799   -6.9261 C   0  0  0  0  0  0  0  0  0  0  0  0
   10.1063    6.6589   -8.2277 C   0  0  0  0  0  0  0  0  0  0  0  0
    9.2965    5.6024   -8.6598 C   0  0  0  0  0  0  0  0  0  0  0  0
    8.9589    5.5617   -9.9393 N   0  0  0  0  0  0  0  0  0  0  0  0
    8.3432    4.7431  -10.2251 H   0  0  0  0  0  0  0  0  0  0  0  0
   11.6728    7.8610   -5.0736 C   0  0  0  0  0  0  0  0  0  0  0  0
   11.3172    6.8850   -4.1731 C   0  0  0  0  0  0  0  0  0  0  0  0
   11.6860    6.9529   -2.8319 C   0  0  0  0  0  0  0  0  0  0  0  0
   12.4274    8.0120   -2.3583 C   0  0  0  0  0  0  0  0  0  0  0  0
   12.7880    8.9938   -3.2528 C   0  0  0  0  0  0  0  0  0  0  0  0
   12.4140    8.9172   -4.5940 C   0  0  0  0  0  0  0  0  0  0  0  0
  1  2  1  0
  2  3  1  0
  3  4  1  0
  4  5  1  0
  5  6  2  0
  6  7  1  0
  7  8  2  0
  8  9  1  0
  9 10  2  0
  9 11  1  0
 11 12  2  0
 12 13  1  0
  6 14  1  0
 14 15  2  0
 14 16  1  0
 16 17  2  0
 17 18  1  0
 18 22  1  0
 22 23  2  0
 23 24  1  0
 24 25  2  0
 25 26  1  0
 26 27  2  0
 27 28  1  0
 28 34  1  0
 34 35  2  0
 35 36  1  0
 36 37  2  0
 37 38  1  0
 38 39  2  0
 28 29  2  0
 29 30  1  0
 30 31  2  0
 31 32  1  0
 32 33  1  0
 18 19  2  0
 19 20  1  0
 20 21  2  0
 13  3  2  0
 21 16  1  0
 21  5  1  0
 13  7  1  0
 32 23  1  0
 30 25  1  0
 39 34  1  0
M  CHG  1   4  -1
M  END
>  <minimizedAffinity>  (886) 
-16.55425

$$$$
Mol: 134_34 - SminaDock
     RDKit          3D

 35 41  0  0  0  0  0  0  0  0999 V2000
   11.2642    8.0803   -6.0246 C   0  0  0  0  0  0  0  0  0  0  0  0
   11.4240    9.2116   -6.7887 C   0  0  0  0  0  0  0  0  0  0  0  0
   11.0542    9.2062   -8.1279 C   0  0  0  0  0  0  0  0  0  0  0  0
   10.5208    8.0777   -8.7259 C   0  0  0  0  0  0  0  0  0  0  0  0
   10.3636    6.9524   -7.9595 C   0  0  0  0  0  0  0  0  0  0  0  0
    9.8358    5.8196   -8.5322 C   0  0  0  0  0  0  0  0  0  0  0  0
    9.4910    5.8489   -9.8217 N   0  0  0  0  0  0  0  0  0  0  0  0
    9.6379    6.9385  -10.5834 C   0  0  0  0  0  0  0  0  0  0  0  0
    9.2868    6.8946  -11.8087 N   0  0  0  0  0  0  0  0  0  0  0  0
   10.1580    8.0495  -10.0127 N   0  0  0  0  0  0  0  0  0  0  0  0
   10.2843    8.9111  -10.5781 H   0  0  0  0  0  0  0  0  0  0  0  0
   10.7345    6.9606   -6.6195 C   0  0  0  0  0  0  0  0  0  0  0  0
    8.7485    5.6884  -12.3328 C   0  0  0  0  0  0  0  0  0  0  0  0
    9.4825    4.8325  -13.1206 C   0  0  0  0  0  0  0  0  0  0  0  0
    8.9109    3.6769  -13.6033 C   0  0  0  0  0  0  0  0  0  0  0  0
    7.5967    3.3551  -13.3083 C   0  0  0  0  0  0  0  0  0  0  0  0
    6.8495    4.1974  -12.5202 C   0  0  0  0  0  0  0  0  0  0  0  0
    7.4448    5.3659  -12.0404 C   0  0  0  0  0  0  0  0  0  0  0  0
    5.4874    3.8956  -12.0885 C   0  0  0  0  0  0  0  0  0  0  0  0
    4.7795    2.9380  -12.9564 C   0  0  0  0  0  0  0  0  0  0  0  0
    5.6354    1.9671  -13.6285 C   0  0  0  0  0  0  0  0  0  0  0  0
    5.0145    0.7981  -14.0928 C   0  0  0  0  0  0  0  0  0  0  0  0
    5.7713   -0.1000  -14.8007 C   0  0  0  0  0  0  0  0  0  0  0  0
    7.1045    0.1269  -15.0555 C   0  0  0  0  0  0  0  0  0  0  0  0
    7.7270    1.2949  -14.5903 C   0  0  0  0  0  0  0  0  0  0  0  0
    6.9615    2.1687  -13.8918 C   0  0  0  0  0  0  0  0  0  0  0  0
    4.8888   -1.2514  -15.1805 C   0  0  0  0  0  0  0  0  0  0  0  0
    3.5086   -0.7630  -14.7793 C   0  0  0  0  0  0  0  0  0  0  0  0
    3.7198    0.3726  -13.9578 O   0  0  0  0  0  0  0  0  0  0  0  0
   12.3609    7.9550   -1.8911 C   0  0  0  0  0  0  0  0  0  0  0  0
   11.9942    6.8085   -2.5626 C   0  0  0  0  0  0  0  0  0  0  0  0
   11.6416    6.8655   -3.9018 C   0  0  0  0  0  0  0  0  0  0  0  0
   11.6369    8.0419   -4.6228 C   0  0  0  0  0  0  0  0  0  0  0  0
   12.0097    9.1944   -3.9323 C   0  0  0  0  0  0  0  0  0  0  0  0
   12.3606    9.1375   -2.5994 C   0  0  0  0  0  0  0  0  0  0  0  0
 30 31  2  0
 31 32  1  0
 32 33  2  0
 33  1  1  0
  1  2  2  0
  2  3  1  0
  3  4  2  0
  4  5  1  0
  5  6  1  0
  6  7  2  0
  7  8  1  0
  8  9  2  0
  9 13  1  0
 13 14  2  0
 14 15  1  0
 15 16  2  0
 16 17  1  0
 17 18  2  0
 17 19  1  0
 19 20  1  0
 20 21  1  0
 21 22  2  0
 22 23  1  0
 23 24  2  0
 24 25  1  0
 25 26  2  0
 23 27  1  0
 27 28  1  0
 28 29  1  0
  8 10  1  0
 10 11  1  0
  5 12  2  0
 33 34  1  0
 34 35  2  0
 35 30  1  0
 12  1  1  0
 10  4  1  0
 18 13  1  0
 26 21  1  0
 26 16  1  0
 29 22  1  0
M  END
>  <minimizedAffinity>  (887) 
-16.56286

$$$$
Mol: 182_2 - SminaDock
     RDKit          3D

 37 43  0  0  0  0  0  0  0  0999 V2000
    5.1089   -1.4419  -15.0333 C   0  0  0  0  0  0  0  0  0  0  0  0
    6.4343   -1.2552  -15.2212 N   0  0  0  0  0  0  0  0  0  0  0  0
    7.0620   -0.1305  -14.8364 C   0  0  0  0  0  0  0  0  0  0  0  0
    8.2849   -0.0417  -15.0479 O   0  0  0  0  0  0  0  0  0  0  0  0
    6.3320    0.8706  -14.2284 C   0  0  0  0  0  0  0  0  0  0  0  0
    6.9127    2.0480  -13.8099 C   0  0  0  0  0  0  0  0  0  0  0  0
    6.1767    3.0650  -13.1936 C   0  0  0  0  0  0  0  0  0  0  0  0
    4.8213    2.8753  -13.0009 C   0  0  0  0  0  0  0  0  0  0  0  0
    4.2201    1.7042  -13.4121 C   0  0  0  0  0  0  0  0  0  0  0  0
    4.9651    0.7135  -14.0184 C   0  0  0  0  0  0  0  0  0  0  0  0
    4.3611   -0.4571  -14.4290 C   0  0  0  0  0  0  0  0  0  0  0  0
    7.0627    4.1910  -12.8617 C   0  0  0  0  0  0  0  0  0  0  0  0
    6.8278    5.4055  -12.2583 C   0  0  0  0  0  0  0  0  0  0  0  0
    7.8706    6.3191  -12.0558 C   0  0  0  0  0  0  0  0  0  0  0  0
    9.1535    6.0196  -12.4572 C   0  0  0  0  0  0  0  0  0  0  0  0
    9.3716    4.7977  -13.0606 C   0  0  0  0  0  0  0  0  0  0  0  0
    8.3412    3.9052  -13.2559 C   0  0  0  0  0  0  0  0  0  0  0  0
    8.2647    2.5503  -13.8592 C   0  0  0  0  0  0  0  0  0  0  0  0
    9.2756    1.9967  -14.3206 O   0  0  0  0  0  0  0  0  0  0  0  0
   10.2149    6.9213  -12.2640 N   0  0  0  0  0  0  0  0  0  0  0  0
   10.5698    7.2116  -11.0610 C   0  0  0  0  0  0  0  0  0  0  0  0
   11.6014    8.0883  -10.9007 N   0  0  0  0  0  0  0  0  0  0  0  0
   11.9583    8.3795   -9.6414 C   0  0  0  0  0  0  0  0  0  0  0  0
   11.3490    7.8497   -8.5254 C   0  0  0  0  0  0  0  0  0  0  0  0
   11.7280    8.1593   -7.2334 C   0  0  0  0  0  0  0  0  0  0  0  0
   11.0589    7.5790   -6.1607 C   0  0  0  0  0  0  0  0  0  0  0  0
   10.0233    6.6993   -6.3536 C   0  0  0  0  0  0  0  0  0  0  0  0
    9.6516    6.3960   -7.6613 C   0  0  0  0  0  0  0  0  0  0  0  0
   10.3130    6.9696   -8.7195 C   0  0  0  0  0  0  0  0  0  0  0  0
    9.9662    6.6870   -9.9794 N   0  0  0  0  0  0  0  0  0  0  0  0
    9.1837    6.0225  -10.1417 H   0  0  0  0  0  0  0  0  0  0  0  0
   11.4729    7.9178   -4.8057 C   0  0  0  0  0  0  0  0  0  0  0  0
   11.6644    6.8747   -3.9166 C   0  0  0  0  0  0  0  0  0  0  0  0
   12.0560    7.1388   -2.6216 C   0  0  0  0  0  0  0  0  0  0  0  0
   12.2477    8.4524   -2.2471 C   0  0  0  0  0  0  0  0  0  0  0  0
   12.0553    9.4867   -3.1380 C   0  0  0  0  0  0  0  0  0  0  0  0
   11.6610    9.2307   -4.4435 C   0  0  0  0  0  0  0  0  0  0  0  0
  1  2  1  0
  2  3  1  0
  3  4  2  0
  3  5  1  0
  5  6  2  0
  6  7  1  0
  7  8  2  0
  8  9  1  0
  9 10  2  0
 10 11  1  0
  7 12  1  0
 12 13  2  0
 13 14  1  0
 14 15  2  0
 15 20  1  0
 20 21  2  0
 21 22  1  0
 22 23  2  0
 23 24  1  0
 24 25  2  0
 25 26  1  0
 26 32  1  0
 32 33  2  0
 33 34  1  0
 34 35  2  0
 35 36  1  0
 36 37  2  0
 26 27  2  0
 27 28  1  0
 28 29  2  0
 29 30  1  0
 30 31  1  0
 15 16  1  0
 16 17  2  0
 17 18  1  0
 18 19  2  0
 11  1  2  0
 17 12  1  0
 10  5  1  0
 30 21  1  0
 18  6  1  0
 29 24  1  0
 37 32  1  0
M  CHG  1   2  -1
M  END
>  <minimizedAffinity>  (888) 
-16.59794

$$$$
Mol: 133_12 - SminaDock
     RDKit          3D

 35 41  0  0  0  0  0  0  0  0999 V2000
   11.2985    8.0542   -5.9611 C   0  0  0  0  0  0  0  0  0  0  0  0
   11.5239    9.1535   -6.7627 C   0  0  0  0  0  0  0  0  0  0  0  0
   11.1709    9.1647   -8.0958 C   0  0  0  0  0  0  0  0  0  0  0  0
   10.5727    8.0707   -8.6924 C   0  0  0  0  0  0  0  0  0  0  0  0
   10.3461    6.9697   -7.8931 C   0  0  0  0  0  0  0  0  0  0  0  0
    9.7475    5.8742   -8.4893 C   0  0  0  0  0  0  0  0  0  0  0  0
    9.4183    5.9246   -9.7918 N   0  0  0  0  0  0  0  0  0  0  0  0
    9.6389    6.9977  -10.5725 C   0  0  0  0  0  0  0  0  0  0  0  0
    9.3061    7.0046  -11.8252 N   0  0  0  0  0  0  0  0  0  0  0  0
   10.2222    8.0652   -9.9917 N   0  0  0  0  0  0  0  0  0  0  0  0
   10.4141    8.9328  -10.5715 H   0  0  0  0  0  0  0  0  0  0  0  0
   10.7022    6.9597   -6.5501 C   0  0  0  0  0  0  0  0  0  0  0  0
    8.6967    5.8395  -12.3590 C   0  0  0  0  0  0  0  0  0  0  0  0
    9.4234    5.0703  -13.2407 C   0  0  0  0  0  0  0  0  0  0  0  0
    8.8636    3.9241  -13.7849 C   0  0  0  0  0  0  0  0  0  0  0  0
    7.5803    3.5843  -13.4226 C   0  0  0  0  0  0  0  0  0  0  0  0
    6.8619    4.3545  -12.5436 C   0  0  0  0  0  0  0  0  0  0  0  0
    7.4121    5.5145  -11.9857 C   0  0  0  0  0  0  0  0  0  0  0  0
    5.4895    4.0165  -12.1287 C   0  0  0  0  0  0  0  0  0  0  0  0
    4.8702    2.8234  -12.7178 C   0  0  0  0  0  0  0  0  0  0  0  0
    5.6981    2.0532  -13.6373 C   0  0  0  0  0  0  0  0  0  0  0  0
    6.9687    2.3851  -13.9892 C   0  0  0  0  0  0  0  0  0  0  0  0
    7.4011    1.4687  -14.8370 O   0  0  0  0  0  0  0  0  0  0  0  0
    6.4892    0.5600  -15.0585 C   0  0  0  0  0  0  0  0  0  0  0  0
    6.4225   -0.5924  -15.8426 C   0  0  0  0  0  0  0  0  0  0  0  0
    5.2999   -1.3886  -15.8870 C   0  0  0  0  0  0  0  0  0  0  0  0
    4.1835   -1.0672  -15.1440 C   0  0  0  0  0  0  0  0  0  0  0  0
    4.2281    0.0850  -14.3499 C   0  0  0  0  0  0  0  0  0  0  0  0
    5.3669    0.8574  -14.3297 C   0  0  0  0  0  0  0  0  0  0  0  0
   12.3775    7.9470   -1.8739 C   0  0  0  0  0  0  0  0  0  0  0  0
   12.3640    9.1540   -2.5422 C   0  0  0  0  0  0  0  0  0  0  0  0
   12.0146    9.2064   -3.8751 C   0  0  0  0  0  0  0  0  0  0  0  0
   11.6779    8.0510   -4.5417 C   0  0  0  0  0  0  0  0  0  0  0  0
   11.6904    6.8426   -3.8762 C   0  0  0  0  0  0  0  0  0  0  0  0
   12.0389    6.7975   -2.5507 C   0  0  0  0  0  0  0  0  0  0  0  0
 30 31  2  0
 31 32  1  0
 32 33  2  0
 33  1  1  0
  1  2  2  0
  2  3  1  0
  3  4  2  0
  4  5  1  0
  5  6  1  0
  6  7  2  0
  7  8  1  0
  8  9  2  0
  9 13  1  0
 13 14  2  0
 14 15  1  0
 15 16  2  0
 16 17  1  0
 17 18  2  0
 17 19  1  0
 19 20  1  0
 20 21  1  0
 21 22  2  0
 22 23  1  0
 23 24  1  0
 24 25  2  0
 25 26  1  0
 26 27  2  0
 27 28  1  0
 28 29  2  0
  8 10  1  0
 10 11  1  0
  5 12  2  0
 33 34  1  0
 34 35  2  0
 35 30  1  0
 12  1  1  0
 10  4  1  0
 18 13  1  0
 29 21  1  0
 22 16  1  0
 29 24  1  0
M  END
>  <minimizedAffinity>  (889) 
-16.59987

$$$$
Mol: 132_55 - SminaDock
     RDKit          3D

 40 46  0  0  0  0  0  0  0  0999 V2000
   11.6609    4.0114  -16.6700 H   0  0  0  0  0  0  0  0  0  0  0  0
   11.5464    3.4116  -15.8409 N   0  0  0  0  0  0  0  0  0  0  0  0
   10.5247    2.6079  -15.7219 C   0  0  0  0  0  0  0  0  0  0  0  0
    9.5353    2.4991  -16.6779 O   0  0  0  0  0  0  0  0  0  0  0  0
    8.3916    1.9724  -16.0916 C   0  0  0  0  0  0  0  0  0  0  0  0
    8.7905    1.6759  -14.6275 C   0  0  1  0  0  0  0  0  0  0  0  0
    8.1741    2.7321  -13.8360 C   0  0  0  0  0  0  0  0  0  0  0  0
    8.8597    3.8744  -13.4574 C   0  0  0  0  0  0  0  0  0  0  0  0
    8.2495    4.9239  -12.8175 C   0  0  0  0  0  0  0  0  0  0  0  0
    6.9052    4.8243  -12.5481 C   0  0  0  0  0  0  0  0  0  0  0  0
    6.1798    3.7055  -12.9034 C   0  0  0  0  0  0  0  0  0  0  0  0
    6.8289    2.6664  -13.5447 C   0  0  0  0  0  0  0  0  0  0  0  0
    6.0851    1.4037  -13.7845 C   0  0  0  0  0  0  0  0  0  0  0  0
    4.7174    1.3552  -13.6302 C   0  0  0  0  0  0  0  0  0  0  0  0
    3.9942    0.2058  -13.9734 C   0  0  0  0  0  0  0  0  0  0  0  0
    4.7184   -0.8545  -14.4659 C   0  0  0  0  0  0  0  0  0  0  0  0
    6.0785   -0.8186  -14.6221 C   0  0  0  0  0  0  0  0  0  0  0  0
    6.7923    0.3203  -14.2791 C   0  0  0  0  0  0  0  0  0  0  0  0
    8.2696    0.3358  -14.3284 C   0  0  0  0  0  0  0  0  0  0  0  0
   10.2285    1.7429  -14.6781 N   0  0  2  0  0  0  0  0  0  0  0  0
   10.6758    1.9465  -13.7783 H   0  0  0  0  0  0  0  0  0  0  0  0
   10.5542    0.7659  -14.9476 H   0  0  0  0  0  0  0  0  0  0  0  0
    9.0123    6.0842  -12.4457 N   0  0  0  0  0  0  0  0  0  0  0  0
    9.3481    6.2076  -11.1909 C   0  0  0  0  0  0  0  0  0  0  0  0
   10.0597    7.2601  -10.7609 N   0  0  0  0  0  0  0  0  0  0  0  0
   10.4390    7.4495   -9.4819 C   0  0  0  0  0  0  0  0  0  0  0  0
   11.1656    8.5275   -9.0524 C   0  0  0  0  0  0  0  0  0  0  0  0
   11.5187    8.6474   -7.7046 C   0  0  0  0  0  0  0  0  0  0  0  0
   11.1593    7.7065   -6.7671 C   0  0  0  0  0  0  0  0  0  0  0  0
   10.4192    6.6124   -7.2147 C   0  0  0  0  0  0  0  0  0  0  0  0
   10.0721    6.4946   -8.5406 C   0  0  0  0  0  0  0  0  0  0  0  0
    9.3448    5.4159   -8.9723 C   0  0  0  0  0  0  0  0  0  0  0  0
    8.9967    5.2904  -10.2819 N   0  0  0  0  0  0  0  0  0  0  0  0
    8.4359    4.4544  -10.6062 H   0  0  0  0  0  0  0  0  0  0  0  0
   11.5191    7.8181   -5.3599 C   0  0  0  0  0  0  0  0  0  0  0  0
   11.3521    6.8107   -4.4329 C   0  0  0  0  0  0  0  0  0  0  0  0
   11.7010    6.9386   -3.1042 C   0  0  0  0  0  0  0  0  0  0  0  0
   12.2397    8.1170   -2.6730 C   0  0  0  0  0  0  0  0  0  0  0  0
   12.4291    9.1650   -3.5677 C   0  0  0  0  0  0  0  0  0  0  0  0
   12.0717    9.0106   -4.8904 C   0  0  0  0  0  0  0  0  0  0  0  0
  1  2  1  0
  2  3  2  0
  3  4  1  0
  4  5  1  0
  6  5  1  6
  6  7  1  0
  7  8  2  0
  8  9  1  0
  9 23  1  0
 23 24  2  0
 24 25  1  0
 25 26  2  0
 26 27  1  0
 27 28  2  0
 28 29  1  0
 29 35  1  0
 35 36  2  0
 36 37  1  0
 37 38  2  0
 38 39  1  0
 39 40  2  0
 29 30  2  0
 30 31  1  0
 31 32  2  0
 32 33  1  0
 33 34  1  0
  9 10  2  0
 10 11  1  0
 11 12  2  0
 12 13  1  0
 13 14  2  0
 14 15  1  0
 15 16  2  0
 16 17  1  0
 17 18  2  0
 18 19  1  0
  6 20  1  0
 20 21  1  1
 20 22  1  0
 20  3  1  0
 19  6  1  0
 12  7  1  0
 18 13  1  0
 33 24  1  0
 31 26  1  0
 40 35  1  0
M  CHG  1  20   1
M  END
>  <minimizedAffinity>  (890) 
-16.55712

$$$$
Mol: 153_16 - SminaDock
     RDKit          3D

 45 52  0  0  0  0  0  0  0  0999 V2000
    3.6455   -1.3761  -21.6641 H   0  0  0  0  0  0  0  0  0  0  0  0
    4.2180   -1.9927  -21.0739 O   0  0  0  0  0  0  0  0  0  0  0  0
    4.4199   -1.7301  -19.7279 C   0  0  0  0  0  0  0  0  0  0  0  0
    3.4091   -1.7520  -18.8750 C   0  0  0  0  0  0  0  0  0  0  0  0
    3.5349   -1.5002  -17.5185 O   0  0  0  0  0  0  0  0  0  0  0  0
    4.7842   -1.1969  -16.9501 C   0  0  0  0  0  0  0  0  0  0  0  0
    5.8148   -1.1672  -17.7776 C   0  0  0  0  0  0  0  0  0  0  0  0
    7.2033   -0.8727  -17.3996 C   0  0  0  0  0  0  0  0  0  0  0  0
    7.5650   -0.1443  -16.3374 C   0  0  0  0  0  0  0  0  0  0  0  0
    6.7246    0.5089  -15.3428 C   0  0  0  0  0  0  0  0  0  0  0  0
    5.4477    0.1617  -14.9765 C   0  0  0  0  0  0  0  0  0  0  0  0
    4.7546    0.8930  -14.0151 C   0  0  0  0  0  0  0  0  0  0  0  0
    5.3471    1.9730  -13.4240 C   0  0  0  0  0  0  0  0  0  0  0  0
    6.6176    2.3366  -13.7739 C   0  0  0  0  0  0  0  0  0  0  0  0
    7.3125    1.6074  -14.7326 C   0  0  0  0  0  0  0  0  0  0  0  0
    8.6979    1.9177  -15.1412 C   0  0  0  0  0  0  0  0  0  0  0  0
    9.1874    3.1353  -14.5405 N   0  0  0  0  0  0  0  0  0  0  0  0
   10.1389    3.4792  -14.8740 H   0  0  0  0  0  0  0  0  0  0  0  0
    8.5228    3.9027  -13.5609 C   0  0  0  0  0  0  0  0  0  0  0  0
    9.1480    5.0152  -13.0154 C   0  0  0  0  0  0  0  0  0  0  0  0
    8.4942    5.7627  -12.0633 C   0  0  0  0  0  0  0  0  0  0  0  0
    7.2235    5.4043  -11.6555 C   0  0  0  0  0  0  0  0  0  0  0  0
    6.6252    4.2905  -12.2167 C   0  0  0  0  0  0  0  0  0  0  0  0
    7.2382    3.5238  -13.1624 C   0  0  0  0  0  0  0  0  0  0  0  0
    4.6463   -0.9735  -15.5000 C   0  0  0  0  0  0  0  0  0  0  0  0
    5.6926   -1.4271  -19.1840 N   0  0  0  0  0  0  0  0  0  0  0  0
    6.5416   -1.3897  -19.7842 H   0  0  0  0  0  0  0  0  0  0  0  0
    9.1677    6.8945  -11.5399 N   0  0  0  0  0  0  0  0  0  0  0  0
    9.5257    6.8826  -10.2997 C   0  0  0  0  0  0  0  0  0  0  0  0
    9.2864    5.8413   -9.4847 N   0  0  0  0  0  0  0  0  0  0  0  0
    9.6562    5.8299   -8.1937 C   0  0  0  0  0  0  0  0  0  0  0  0
   10.3113    6.9329   -7.6748 C   0  0  0  0  0  0  0  0  0  0  0  0
   10.7154    6.9725   -6.3430 C   0  0  0  0  0  0  0  0  0  0  0  0
   11.3625    8.0481   -5.8033 C   0  0  0  0  0  0  0  0  0  0  0  0
   11.6174    9.1272   -6.6231 C   0  0  0  0  0  0  0  0  0  0  0  0
   11.2275    9.1236   -7.9643 C   0  0  0  0  0  0  0  0  0  0  0  0
   10.5686    8.0090   -8.4828 C   0  0  0  0  0  0  0  0  0  0  0  0
   10.1734    7.9533   -9.7552 N   0  0  0  0  0  0  0  0  0  0  0  0
   10.3654    8.7689  -10.3765 H   0  0  0  0  0  0  0  0  0  0  0  0
   11.7736    8.0597   -4.4046 C   0  0  0  0  0  0  0  0  0  0  0  0
   12.1248    9.2243   -3.7452 C   0  0  0  0  0  0  0  0  0  0  0  0
   12.5181    9.2555   -2.4233 C   0  0  0  0  0  0  0  0  0  0  0  0
   12.5560    8.0535   -1.7440 C   0  0  0  0  0  0  0  0  0  0  0  0
   12.2150    6.8659   -2.3583 C   0  0  0  0  0  0  0  0  0  0  0  0
   11.8285    6.8850   -3.6800 C   0  0  0  0  0  0  0  0  0  0  0  0
  1  2  1  0
  2  3  1  0
  3  4  2  0
  4  5  1  0
  5  6  1  0
  6  7  2  0
  7  8  1  0
  8  9  2  0
  9 10  1  0
 10 11  2  0
 11 12  1  0
 12 13  2  0
 13 14  1  0
 14 15  2  0
 15 16  1  0
 16 17  1  0
 17 18  1  0
 17 19  1  0
 19 20  2  0
 20 21  1  0
 21 28  1  0
 28 29  2  0
 29 30  1  0
 30 31  2  0
 31 32  1  0
 32 33  2  0
 33 34  1  0
 34 40  1  0
 40 41  2  0
 41 42  1  0
 42 43  2  0
 43 44  1  0
 44 45  2  0
 34 35  2  0
 35 36  1  0
 36 37  2  0
 37 38  1  0
 38 39  1  0
 21 22  2  0
 22 23  1  0
 23 24  2  0
 11 25  1  0
  7 26  1  0
 26 27  1  0
 26  3  1  0
 25  6  1  0
 15 10  1  0
 24 19  1  0
 24 14  1  0
 38 29  1  0
 37 32  1  0
 45 40  1  0
M  END
>  <minimizedAffinity>  (891) 
-16.63178

$$$$
Mol: 152_44 - SminaDock
     RDKit          3D

 37 43  0  0  0  0  0  0  0  0999 V2000
    3.3129   -2.4906  -15.3147 H   0  0  0  0  0  0  0  0  0  0  0  0
    3.0830   -1.5002  -15.1396 O   0  0  0  0  0  0  0  0  0  0  0  0
    4.0894   -0.5618  -14.9412 C   0  0  0  0  0  0  0  0  0  0  0  0
    5.1971   -0.5587  -15.5690 N   0  0  0  0  0  0  0  0  0  0  0  0
    6.0152    0.5428  -15.1290 C   0  0  0  0  0  0  0  0  0  0  0  0
    7.2742    0.9156  -15.5390 C   0  0  0  0  0  0  0  0  0  0  0  0
    7.8214    2.0525  -14.9164 C   0  0  0  0  0  0  0  0  0  0  0  0
    7.1559    2.7540  -13.9615 C   0  0  0  0  0  0  0  0  0  0  0  0
    5.9052    2.3641  -13.5694 C   0  0  0  0  0  0  0  0  0  0  0  0
    5.3295    1.2385  -14.1670 C   0  0  0  0  0  0  0  0  0  0  0  0
    4.0263    0.5605  -13.9829 C   0  0  0  0  0  0  0  0  0  0  0  0
    5.1307    3.0498  -12.5375 C   0  0  0  0  0  0  0  0  0  0  0  0
    5.7304    4.2935  -12.0235 C   0  0  0  0  0  0  0  0  0  0  0  0
    7.0865    4.6502  -12.4285 C   0  0  0  0  0  0  0  0  0  0  0  0
    7.6880    5.7902  -11.8274 C   0  0  0  0  0  0  0  0  0  0  0  0
    8.9497    6.1366  -12.2229 C   0  0  0  0  0  0  0  0  0  0  0  0
    9.6468    5.4245  -13.1730 C   0  0  0  0  0  0  0  0  0  0  0  0
    9.0696    4.3227  -13.7553 C   0  0  0  0  0  0  0  0  0  0  0  0
    7.7976    3.9512  -13.3743 C   0  0  0  0  0  0  0  0  0  0  0  0
    9.5724    7.2732  -11.6363 N   0  0  0  0  0  0  0  0  0  0  0  0
    9.8898    7.2469  -10.3839 C   0  0  0  0  0  0  0  0  0  0  0  0
   10.4794    8.2911   -9.7774 N   0  0  0  0  0  0  0  0  0  0  0  0
   10.8088    8.2551   -8.4642 C   0  0  0  0  0  0  0  0  0  0  0  0
   11.4143    9.3268   -7.8410 C   0  0  0  0  0  0  0  0  0  0  0  0
   11.7541    9.3020   -6.5052 C   0  0  0  0  0  0  0  0  0  0  0  0
   11.4976    8.1839   -5.7234 C   0  0  0  0  0  0  0  0  0  0  0  0
   10.8907    7.1172   -6.3595 C   0  0  0  0  0  0  0  0  0  0  0  0
   10.5498    7.1394   -7.6956 C   0  0  0  0  0  0  0  0  0  0  0  0
    9.9428    6.0746   -8.3358 C   0  0  0  0  0  0  0  0  0  0  0  0
    9.6335    6.1556   -9.6435 N   0  0  0  0  0  0  0  0  0  0  0  0
    9.1727    5.3189  -10.0859 H   0  0  0  0  0  0  0  0  0  0  0  0
   11.8498    8.1412   -4.3098 C   0  0  0  0  0  0  0  0  0  0  0  0
   12.2075    9.2374   -3.5598 C   0  0  0  0  0  0  0  0  0  0  0  0
   12.5374    9.1800   -2.2240 C   0  0  0  0  0  0  0  0  0  0  0  0
   12.5033    7.9283   -1.6038 C   0  0  0  0  0  0  0  0  0  0  0  0
   12.1514    6.8215   -2.3243 C   0  0  0  0  0  0  0  0  0  0  0  0
   11.8260    6.9200   -3.6669 C   0  0  0  0  0  0  0  0  0  0  0  0
  1  2  1  0
  2  3  1  0
  3  4  2  0
  4  5  1  0
  5  6  2  0
  6  7  1  0
  7  8  2  0
  8  9  1  0
  9 10  2  0
 10 11  1  0
  9 12  1  0
 12 13  1  0
 13 14  1  0
 14 15  2  0
 15 16  1  0
 16 20  1  0
 20 21  2  0
 21 22  1  0
 22 23  2  0
 23 24  1  0
 24 25  2  0
 25 26  1  0
 26 32  1  0
 32 33  2  0
 33 34  1  0
 34 35  2  0
 35 36  1  0
 36 37  2  0
 26 27  2  0
 27 28  1  0
 28 29  2  0
 29 30  1  0
 30 31  1  0
 16 17  2  0
 17 18  1  0
 18 19  2  0
 11  3  1  0
 19 14  1  0
 10  5  1  0
 30 21  1  0
 19  8  1  0
 28 23  1  0
 37 32  1  0
M  END
>  <minimizedAffinity>  (892) 
-16.62288

$$$$
Mol: 152_53 - SminaDock
     RDKit          3D

 44 50  0  0  0  0  0  0  0  0999 V2000
   10.4074    3.2312  -18.6757 H   0  0  0  0  0  0  0  0  0  0  0  0
   10.1438    2.6647  -17.8637 O   0  0  0  0  0  0  0  0  0  0  0  0
   10.4456    3.0440  -16.5792 N   0  0  0  0  0  0  0  0  0  0  0  0
    9.5544    2.9564  -15.6813 N   0  0  0  0  0  0  0  0  0  0  0  0
    8.2871    2.4606  -16.0914 C   0  0  0  0  0  0  0  0  0  0  0  0
    8.0539    2.2263  -17.2926 O   0  0  0  0  0  0  0  0  0  0  0  0
    7.1760    2.1867  -15.1999 C   0  0  0  0  0  0  0  0  0  0  0  0
    6.8611    2.8556  -14.0155 C   0  0  0  0  0  0  0  0  0  0  0  0
    5.7930    2.5183  -13.2375 C   0  0  0  0  0  0  0  0  0  0  0  0
    5.0108    1.4725  -13.6696 C   0  0  0  0  0  0  0  0  0  0  0  0
    5.2964    0.7748  -14.8604 C   0  0  0  0  0  0  0  0  0  0  0  0
    6.3766    1.1221  -15.6310 C   0  0  0  0  0  0  0  0  0  0  0  0
    6.7712    0.4454  -16.8540 C   0  0  0  0  0  0  0  0  0  0  0  0
    6.1715   -0.9567  -16.7634 C   0  0  0  0  0  0  0  0  0  0  0  0
    4.6725   -0.7651  -16.6799 C   0  0  2  0  0  0  0  0  0  0  0  0
    4.3965   -0.3257  -15.2808 C   0  0  0  0  0  0  0  0  0  0  0  0
    7.5934    3.9766  -13.4671 C   0  0  0  0  0  0  0  0  0  0  0  0
    6.7858    4.8207  -12.7685 C   0  0  0  0  0  0  0  0  0  0  0  0
    7.4011    5.9287  -12.1885 C   0  0  0  0  0  0  0  0  0  0  0  0
    8.7523    6.1725  -12.3071 C   0  0  0  0  0  0  0  0  0  0  0  0
    9.5340    5.2703  -13.0398 C   0  0  0  0  0  0  0  0  0  0  0  0
    8.9679    4.1663  -13.6269 C   0  0  0  0  0  0  0  0  0  0  0  0
    9.9857    3.3851  -14.3663 C   0  0  0  0  0  0  0  0  0  0  0  0
    9.3637    7.3119  -11.7074 N   0  0  0  0  0  0  0  0  0  0  0  0
    9.6996    7.2403  -10.4511 C   0  0  0  0  0  0  0  0  0  0  0  0
    9.4688    6.1159   -9.7549 N   0  0  0  0  0  0  0  0  0  0  0  0
    9.8088    6.0262   -8.4604 C   0  0  0  0  0  0  0  0  0  0  0  0
   10.4081    7.0944   -7.8082 C   0  0  0  0  0  0  0  0  0  0  0  0
   10.7684    7.0347   -6.4837 C   0  0  0  0  0  0  0  0  0  0  0  0
   11.3626    8.1068   -5.8546 C   0  0  0  0  0  0  0  0  0  0  0  0
   11.5862    9.2468   -6.5967 C   0  0  0  0  0  0  0  0  0  0  0  0
   11.2193    9.2880   -7.9195 C   0  0  0  0  0  0  0  0  0  0  0  0
   10.6237    8.2250   -8.5656 C   0  0  0  0  0  0  0  0  0  0  0  0
   10.2832    8.3131   -9.8595 N   0  0  0  0  0  0  0  0  0  0  0  0
   10.4507    9.1698  -10.4187 H   0  0  0  0  0  0  0  0  0  0  0  0
   11.7480    8.0380   -4.4318 C   0  0  0  0  0  0  0  0  0  0  0  0
   11.7354    6.8240   -3.7729 C   0  0  0  0  0  0  0  0  0  0  0  0
   12.0906    6.7247   -2.4407 C   0  0  0  0  0  0  0  0  0  0  0  0
   12.4707    7.8345   -1.7208 C   0  0  0  0  0  0  0  0  0  0  0  0
   12.4839    9.0556   -2.3816 C   0  0  0  0  0  0  0  0  0  0  0  0
   12.1261    9.1574   -3.7243 C   0  0  0  0  0  0  0  0  0  0  0  0
    3.9158   -1.9081  -17.0690 N   0  0  0  0  0  0  0  0  0  0  0  0
    3.0967   -2.1203  -16.4918 H   0  0  0  0  0  0  0  0  0  0  0  0
    3.7604   -2.0950  -18.4768 C   0  0  0  0  0  0  0  0  0  0  0  0
  1  2  1  0
  2  3  1  0
  3  4  2  0
  4  5  1  0
  5  6  2  0
  5  7  1  0
  7  8  2  0
  8  9  1  0
  9 10  2  0
 10 11  1  0
 11 12  2  0
 12 13  1  0
 13 14  1  0
 14 15  1  0
 15 42  1  1
 42 43  1  0
 42 44  1  0
 15 16  1  0
  8 17  1  0
 17 18  2  0
 18 19  1  0
 19 20  2  0
 20 24  1  0
 24 25  2  0
 25 26  1  0
 26 27  2  0
 27 28  1  0
 28 29  2  0
 29 30  1  0
 30 36  1  0
 36 37  2  0
 37 38  1  0
 38 39  2  0
 39 40  1  0
 40 41  2  0
 30 31  2  0
 31 32  1  0
 32 33  2  0
 33 34  1  0
 34 35  1  0
 20 21  1  0
 21 22  2  0
 22 23  1  0
 23  4  1  0
 12  7  1  0
 22 17  1  0
 16 11  1  0
 34 25  1  0
 33 28  1  0
 41 36  1  0
M  CHG  1   4   1
M  END
>  <minimizedAffinity>  (893) 
-16.55486

$$$$
Mol: 195_61 - SminaDock
     RDKit          3D

 41 47  0  0  0  0  0  0  0  0999 V2000
    8.4880    5.5391  -12.2020 C   0  0  0  0  0  0  0  0  0  0  0  0
    7.1471    5.3701  -11.9865 C   0  0  0  0  0  0  0  0  0  0  0  0
    6.4264    4.2929  -12.4591 C   0  0  0  0  0  0  0  0  0  0  0  0
    7.1180    3.3397  -13.1911 C   0  0  0  0  0  0  0  0  0  0  0  0
    8.4578    3.4880  -13.4186 C   0  0  0  0  0  0  0  0  0  0  0  0
    9.1626    4.5863  -12.9295 C   0  0  0  0  0  0  0  0  0  0  0  0
    9.1079    2.5345  -14.1444 N   0  0  0  0  0  0  0  0  0  0  0  0
   10.5235    2.7011  -14.3800 C   0  0  0  0  0  0  0  0  0  0  0  0
    8.4773    1.4596  -14.6409 C   0  0  0  0  0  0  0  0  0  0  0  0
    9.0635    0.5718  -15.3126 O   0  0  0  0  0  0  0  0  0  0  0  0
    7.1279    1.3037  -14.4161 C   0  0  0  0  0  0  0  0  0  0  0  0
    6.1758    0.3534  -14.7633 C   0  0  0  0  0  0  0  0  0  0  0  0
    6.3420   -0.7926  -15.4916 C   0  0  0  0  0  0  0  0  0  0  0  0
    5.2282   -1.6011  -15.7160 C   0  0  0  0  0  0  0  0  0  0  0  0
    5.4121   -2.7848  -16.4712 N   0  0  0  0  0  0  0  0  0  0  0  0
    4.7697   -2.9814  -17.2531 H   0  0  0  0  0  0  0  0  0  0  0  0
    6.1701   -3.4684  -16.2707 H   0  0  0  0  0  0  0  0  0  0  0  0
    3.9932   -1.2544  -15.2167 C   0  0  0  0  0  0  0  0  0  0  0  0
    3.8428   -0.0953  -14.4843 C   0  0  0  0  0  0  0  0  0  0  0  0
    4.9473    0.7217  -14.2526 C   0  0  0  0  0  0  0  0  0  0  0  0
    5.1333    1.8751  -13.6033 N   0  0  0  0  0  0  0  0  0  0  0  0
    4.3733    2.3951  -13.1134 H   0  0  0  0  0  0  0  0  0  0  0  0
    6.4326    2.2553  -13.6805 C   0  0  0  0  0  0  0  0  0  0  0  0
   11.3170    8.0043   -5.9882 C   0  0  0  0  0  0  0  0  0  0  0  0
   11.5897    9.0224   -6.8770 C   0  0  0  0  0  0  0  0  0  0  0  0
   11.2206    8.9787   -8.2158 C   0  0  0  0  0  0  0  0  0  0  0  0
   10.5500    7.8775   -8.7034 C   0  0  0  0  0  0  0  0  0  0  0  0
   10.2717    6.8526   -7.8234 C   0  0  0  0  0  0  0  0  0  0  0  0
    9.6011    5.7600   -8.3273 C   0  0  0  0  0  0  0  0  0  0  0  0
    9.2271    5.6804   -9.6168 N   0  0  0  0  0  0  0  0  0  0  0  0
    9.5313    6.7273  -10.4386 C   0  0  0  0  0  0  0  0  0  0  0  0
    9.1853    6.6857  -11.6939 N   0  0  0  0  0  0  0  0  0  0  0  0
   10.1819    7.8201  -10.0126 N   0  0  0  0  0  0  0  0  0  0  0  0
   10.3926    8.6002  -10.6840 H   0  0  0  0  0  0  0  0  0  0  0  0
   10.6412    6.9039   -6.4969 C   0  0  0  0  0  0  0  0  0  0  0  0
   12.4316    8.0501   -1.9034 C   0  0  0  0  0  0  0  0  0  0  0  0
   12.0723    6.8663   -2.5218 C   0  0  0  0  0  0  0  0  0  0  0  0
   11.7134    6.8862   -3.8582 C   0  0  0  0  0  0  0  0  0  0  0  0
   11.7063    8.0565   -4.5841 C   0  0  0  0  0  0  0  0  0  0  0  0
   12.0719    9.2117   -3.9255 C   0  0  0  0  0  0  0  0  0  0  0  0
   12.4349    9.2247   -2.5933 C   0  0  0  0  0  0  0  0  0  0  0  0
 36 37  2  0
 37 38  1  0
 38 39  2  0
 39 24  1  0
 24 25  2  0
 25 26  1  0
 26 27  2  0
 27 28  1  0
 28 29  1  0
 29 30  2  0
 30 31  1  0
 31 32  2  0
 32  1  1  0
  1  2  2  0
  2  3  1  0
  3  4  2  0
  4  5  1  0
  5  6  2  0
  5  7  1  0
  7  8  1  0
  7  9  1  0
  9 10  2  0
  9 11  1  0
 11 12  1  0
 12 13  2  0
 13 14  1  0
 14 15  1  0
 15 16  1  0
 15 17  1  0
 14 18  2  0
 18 19  1  0
 19 20  2  0
 20 21  1  0
 21 22  1  0
 21 23  1  0
 31 33  1  0
 33 34  1  0
 28 35  2  0
 39 40  1  0
 40 41  2  0
 41 36  1  0
 35 24  1  0
 33 27  1  0
  6  1  1  0
 23 11  2  0
 23  4  1  0
 20 12  1  0
M  END
>  <minimizedAffinity>  (894) 
-16.59953

$$$$
Mol: 195_34 - SminaDock
     RDKit          3D

 43 50  0  0  0  0  0  0  0  0999 V2000
   11.0632    5.1510  -18.3992 H   0  0  0  0  0  0  0  0  0  0  0  0
   11.5517    5.0127  -17.5031 O   0  0  0  0  0  0  0  0  0  0  0  0
   10.9509    4.2921  -16.4604 C   0  0  0  0  0  0  0  0  0  0  0  0
    9.6805    4.2526  -16.2583 N   0  0  0  0  0  0  0  0  0  0  0  0
    9.3680    3.4260  -15.0979 C   0  0  1  0  0  0  0  0  0  0  0  0
   10.6693    2.9397  -14.6211 C   0  0  0  0  0  0  0  0  0  0  0  0
   10.9053    2.1896  -13.6634 O   0  0  0  0  0  0  0  0  0  0  0  0
   11.6459    3.5040  -15.4865 N   0  0  0  0  0  0  0  0  0  0  0  0
   12.6853    3.3998  -15.4654 H   0  0  0  0  0  0  0  0  0  0  0  0
    8.8018    4.2820  -14.0118 C   0  0  0  0  0  0  0  0  0  0  0  0
    9.3491    5.3708  -13.3877 C   0  0  0  0  0  0  0  0  0  0  0  0
    8.6291    6.0206  -12.4106 C   0  0  0  0  0  0  0  0  0  0  0  0
    7.3705    5.5451  -12.0942 C   0  0  0  0  0  0  0  0  0  0  0  0
    6.8013    4.4592  -12.7029 C   0  0  0  0  0  0  0  0  0  0  0  0
    7.5537    3.8183  -13.6905 C   0  0  0  0  0  0  0  0  0  0  0  0
    7.2743    2.6474  -14.5212 C   0  0  0  0  0  0  0  0  0  0  0  0
    6.1422    1.8318  -14.5461 C   0  0  0  0  0  0  0  0  0  0  0  0
    6.0598    0.7525  -15.3918 C   0  0  0  0  0  0  0  0  0  0  0  0
    7.1388    0.4987  -16.2207 C   0  0  0  0  0  0  0  0  0  0  0  0
    7.1134   -0.5461  -17.0643 N   0  0  0  0  0  0  0  0  0  0  0  0
    8.1496   -0.8023  -17.8645 C   0  0  0  0  0  0  0  0  0  0  0  0
    9.2860   -0.0225  -17.8709 C   0  0  0  0  0  0  0  0  0  0  0  0
    9.3279    1.0564  -17.0090 C   0  0  0  0  0  0  0  0  0  0  0  0
    8.2597    1.3055  -16.1969 C   0  0  0  0  0  0  0  0  0  0  0  0
    8.3538    2.4105  -15.3378 C   0  0  0  0  0  0  0  0  0  0  0  0
    9.1695    7.1714  -11.7291 N   0  0  0  0  0  0  0  0  0  0  0  0
    9.5113    7.0227  -10.5075 C   0  0  0  0  0  0  0  0  0  0  0  0
    9.4016    5.8465   -9.7963 C   0  0  0  0  0  0  0  0  0  0  0  0
    9.8077    5.7959   -8.4583 C   0  0  0  0  0  0  0  0  0  0  0  0
   10.3202    6.9132   -7.8354 C   0  0  0  0  0  0  0  0  0  0  0  0
   10.7358    6.9011   -6.5023 C   0  0  0  0  0  0  0  0  0  0  0  0
   11.2446    8.0362   -5.9065 C   0  0  0  0  0  0  0  0  0  0  0  0
   11.3314    9.1839   -6.6654 C   0  0  0  0  0  0  0  0  0  0  0  0
   10.9237    9.2188   -7.9938 C   0  0  0  0  0  0  0  0  0  0  0  0
   10.4148    8.0748   -8.5816 C   0  0  0  0  0  0  0  0  0  0  0  0
   10.0156    8.0920   -9.8674 N   0  0  0  0  0  0  0  0  0  0  0  0
   10.1205    9.0222  -10.3720 H   0  0  0  0  0  0  0  0  0  0  0  0
   11.6769    8.0148   -4.5122 C   0  0  0  0  0  0  0  0  0  0  0  0
   12.0157    9.1697   -3.8343 C   0  0  0  0  0  0  0  0  0  0  0  0
   12.4242    9.1518   -2.5178 C   0  0  0  0  0  0  0  0  0  0  0  0
   12.5143    7.9704   -1.8107 C   0  0  0  0  0  0  0  0  0  0  0  0
   12.1762    6.8162   -2.4866 C   0  0  0  0  0  0  0  0  0  0  0  0
   11.7671    6.8314   -3.8038 C   0  0  0  0  0  0  0  0  0  0  0  0
  1  2  1  0
  2  3  1  0
  3  4  2  0
  5  4  1  6
  5  6  1  0
  6  7  2  0
  6  8  1  0
  8  9  1  0
  5 10  1  0
 10 11  2  0
 11 12  1  0
 12 26  1  0
 26 27  2  0
 27 28  1  0
 28 29  2  0
 29 30  1  0
 30 31  2  0
 31 32  1  0
 32 38  1  0
 38 39  2  0
 39 40  1  0
 40 41  2  0
 41 42  1  0
 42 43  2  0
 32 33  2  0
 33 34  1  0
 34 35  2  0
 35 36  1  0
 36 37  1  0
 12 13  2  0
 13 14  1  0
 14 15  2  0
 15 16  1  0
 16 17  2  0
 17 18  1  0
 18 19  2  0
 19 20  1  0
 20 21  2  0
 21 22  1  0
 22 23  2  0
 23 24  1  0
 24 25  2  0
  8  3  1  0
 15 10  1  0
 25 16  1  0
 25  5  1  0
 36 27  1  0
 24 19  1  0
 35 30  1  0
 43 38  1  0
M  END
>  <minimizedAffinity>  (895) 
-16.59124

$$$$
Mol: 116_22 - SminaDock
     RDKit          3D

 48 55  0  0  0  0  0  0  0  0999 V2000
   10.8357    0.6485  -17.3716 C   0  0  0  0  0  0  0  0  0  0  0  0
   11.1821   -0.3118  -18.3271 C   0  0  0  0  0  0  0  0  0  0  0  0
   12.2139   -0.1026  -19.2134 C   0  0  0  0  0  0  0  0  0  0  0  0
   12.9003    1.0805  -19.1363 C   0  0  0  0  0  0  0  0  0  0  0  0
   12.5586    2.0290  -18.1919 C   0  0  0  0  0  0  0  0  0  0  0  0
   13.2377    3.2178  -18.0897 C   0  0  0  0  0  0  0  0  0  0  0  0
   12.9376    4.1961  -17.1533 C   0  0  0  0  0  0  0  0  0  0  0  0
   11.9204    4.0034  -16.2708 C   0  0  0  0  0  0  0  0  0  0  0  0
   11.2099    2.7930  -16.3549 C   0  0  0  0  0  0  0  0  0  0  0  0
   11.5151    1.8362  -17.2832 C   0  0  0  0  0  0  0  0  0  0  0  0
    3.1064   -1.0683  -15.4755 O   0  0  0  0  0  0  0  0  0  0  0  0
    4.4214   -0.5631  -15.4446 C   0  0  0  0  0  0  0  0  0  0  0  0
    4.9131    0.1389  -16.6288 C   0  0  0  0  0  0  0  0  0  0  0  0
    6.1930   -0.4205  -17.2079 C   0  0  0  0  0  0  0  0  0  0  0  0
    7.3541   -0.1678  -16.3187 C   0  0  0  0  0  0  0  0  0  0  0  0
    8.4761    0.0897  -17.0717 C   0  0  0  0  0  0  0  0  0  0  0  0
    9.7126    0.3631  -16.4983 C   0  0  0  0  0  0  0  0  0  0  0  0
    9.7922    0.3714  -15.1281 C   0  0  0  0  0  0  0  0  0  0  0  0
    8.6721    0.1139  -14.3427 C   0  0  0  0  0  0  0  0  0  0  0  0
    7.4638   -0.1533  -14.9453 C   0  0  0  0  0  0  0  0  0  0  0  0
    6.3770   -0.4060  -14.0126 C   0  0  0  0  0  0  0  0  0  0  0  0
    6.6597   -0.2612  -12.7798 O   0  0  0  0  0  0  0  0  0  0  0  0
    5.0265   -0.8000  -14.3352 N   0  0  0  0  0  0  0  0  0  0  0  0
    2.7925   -1.7727  -14.8198 H   0  0  0  0  0  0  0  0  0  0  0  0
   11.5456    4.9663  -15.3136 N   0  0  0  0  0  0  0  0  0  0  0  0
   12.2182    5.7950  -15.1827 H   0  0  0  0  0  0  0  0  0  0  0  0
   10.3626    4.9344  -14.5139 C   0  0  0  0  0  0  0  0  0  0  0  0
   10.5313    5.7429  -13.2809 C   0  0  0  0  0  0  0  0  0  0  0  0
    9.5442    5.6026  -12.2946 C   0  0  0  0  0  0  0  0  0  0  0  0
    9.6431    6.2950  -11.1148 C   0  0  0  0  0  0  0  0  0  0  0  0
   10.6829    7.1483  -10.8237 C   0  0  0  0  0  0  0  0  0  0  0  0
   11.6543    7.2897  -11.7870 C   0  0  0  0  0  0  0  0  0  0  0  0
   11.5567    6.5825  -12.9953 C   0  0  0  0  0  0  0  0  0  0  0  0
   10.7502    7.8687   -9.5515 C   0  0  0  0  0  0  0  0  0  0  0  0
   11.0941    9.2019   -9.4796 C   0  0  0  0  0  0  0  0  0  0  0  0
   11.1496    9.8648   -8.2698 C   0  0  0  0  0  0  0  0  0  0  0  0
   10.8573    9.1967   -7.0879 C   0  0  0  0  0  0  0  0  0  0  0  0
   10.5156    7.8694   -7.1666 C   0  0  0  0  0  0  0  0  0  0  0  0
   10.4602    7.1999   -8.3941 C   0  0  0  0  0  0  0  0  0  0  0  0
   10.1933    7.1206   -5.9286 C   0  0  0  0  0  0  0  0  0  0  0  0
   11.0896    7.5964   -4.8558 C   0  0  0  0  0  0  0  0  0  0  0  0
   11.5514    6.7065   -3.9623 N   0  0  0  0  0  0  0  0  0  0  0  0
   12.3766    7.0782   -2.9511 C   0  0  0  0  0  0  0  0  0  0  0  0
   12.8114    6.2349   -2.1082 O   0  0  0  0  0  0  0  0  0  0  0  0
   12.7315    8.3854   -2.8590 C   0  0  0  0  0  0  0  0  0  0  0  0
   12.2634    9.3228   -3.7754 C   0  0  0  0  0  0  0  0  0  0  0  0
   11.4250    8.9279   -4.7974 C   0  0  0  0  0  0  0  0  0  0  0  0
   10.9190    9.9162   -5.7822 C   0  0  0  0  0  0  0  0  0  0  0  0
 11 12  1  0
 12 13  1  0
 13 14  1  0
 14 15  1  0
 15 16  2  0
 16 17  1  0
 17  1  1  0
  1  2  2  0
  2  3  1  0
  3  4  2  0
  4  5  1  0
  5  6  2  0
  6  7  1  0
  7  8  2  0
  8 25  1  0
 25 27  1  0
 27 28  1  0
 28 29  2  0
 29 30  1  0
 30 31  2  0
 31 34  1  0
 34 35  2  0
 35 36  1  0
 36 37  2  0
 37 38  1  0
 38 39  2  0
 38 40  1  0
 40 41  1  0
 41 42  1  0
 42 43  1  0
 43 44  2  0
 43 45  1  0
 45 46  2  0
 46 47  1  0
 47 48  1  0
 31 32  1  0
 32 33  2  0
  8  9  1  0
  9 10  2  0
 17 18  2  0
 18 19  1  0
 19 20  2  0
 20 21  1  0
 21 22  2  0
 21 23  1  0
 23 12  2  0
 20 15  1  0
 10  1  1  0
 10  5  1  0
 33 28  1  0
 39 34  1  0
 47 41  2  0
 48 37  1  0
 11 24  1  0
 25 26  1  0
M  CHG  1  42  -1
M  END
>  <minimizedAffinity>  (896) 
-16.60455

$$$$
Mol: 132_7 - SminaDock
     RDKit          3D

 45 52  0  0  0  0  0  0  0  0999 V2000
    2.2143   -1.2790  -15.8933 H   0  0  0  0  0  0  0  0  0  0  0  0
    3.1572   -1.6026  -15.7217 O   0  0  0  0  0  0  0  0  0  0  0  0
    4.2341   -0.7475  -15.9951 C   0  0  0  0  0  0  0  0  0  0  0  0
    4.6808    0.1517  -15.0938 N   0  0  0  0  0  0  0  0  0  0  0  0
    5.7149    0.9679  -15.3654 C   0  0  0  0  0  0  0  0  0  0  0  0
    6.3850    0.9395  -16.5802 C   0  0  0  0  0  0  0  0  0  0  0  0
    5.9424    0.0284  -17.5106 C   0  0  0  0  0  0  0  0  0  0  0  0
    4.8645   -0.8179  -17.2191 C   0  0  0  0  0  0  0  0  0  0  0  0
    7.5268    1.7570  -17.0451 C   0  0  0  0  0  0  0  0  0  0  0  0
    8.6479    1.8529  -16.0229 C   0  0  1  0  0  0  0  0  0  0  0  0
    8.2898    2.8360  -14.9844 C   0  0  0  0  0  0  0  0  0  0  0  0
    9.1915    3.8518  -14.7711 C   0  0  0  0  0  0  0  0  0  0  0  0
    8.9828    4.8470  -13.8151 C   0  0  0  0  0  0  0  0  0  0  0  0
    7.8302    4.8089  -13.0579 C   0  0  0  0  0  0  0  0  0  0  0  0
    6.8956    3.8099  -13.2354 C   0  0  0  0  0  0  0  0  0  0  0  0
    7.1498    2.8439  -14.1990 C   0  0  0  0  0  0  0  0  0  0  0  0
    6.0472    1.8647  -14.2623 C   0  0  0  0  0  0  0  0  0  0  0  0
    5.3229    1.8146  -13.2362 O   0  0  0  0  0  0  0  0  0  0  0  0
    8.8675    0.4885  -15.3517 C   0  0  0  0  0  0  0  0  0  0  0  0
    9.8996   -0.3165  -16.1137 C   0  0  0  0  0  0  0  0  0  0  0  0
    9.6861   -0.0717  -17.4706 O   0  0  0  0  0  0  0  0  0  0  0  0
   10.1428    1.1722  -17.8399 C   0  0  0  0  0  0  0  0  0  0  0  0
    9.9061    2.2177  -16.7608 C   0  0  0  0  0  0  0  0  0  0  0  0
    9.9203    5.8702  -13.6201 N   0  0  0  0  0  0  0  0  0  0  0  0
   10.2600    6.3476  -12.4759 C   0  0  0  0  0  0  0  0  0  0  0  0
   11.1679    7.3308  -12.3632 N   0  0  0  0  0  0  0  0  0  0  0  0
   11.5350    7.8400  -11.1971 N   0  0  0  0  0  0  0  0  0  0  0  0
   11.0062    7.3885  -10.0440 C   0  0  0  0  0  0  0  0  0  0  0  0
   11.3645    7.8947   -8.8134 C   0  0  0  0  0  0  0  0  0  0  0  0
   10.7838    7.3865   -7.6736 C   0  0  0  0  0  0  0  0  0  0  0  0
    9.8485    6.3706   -7.8188 C   0  0  0  0  0  0  0  0  0  0  0  0
    9.4781    5.8535   -9.0287 C   0  0  0  0  0  0  0  0  0  0  0  0
   10.0609    6.3639  -10.1695 C   0  0  0  0  0  0  0  0  0  0  0  0
    9.7014    5.8599  -11.3661 N   0  0  0  0  0  0  0  0  0  0  0  0
    8.9790    5.0847  -11.3827 H   0  0  0  0  0  0  0  0  0  0  0  0
   11.1322    7.8926   -6.3356 C   0  0  0  0  0  0  0  0  0  0  0  0
   11.1492    9.2452   -6.0619 C   0  0  0  0  0  0  0  0  0  0  0  0
   11.4620    9.7839   -4.8469 C   0  0  0  0  0  0  0  0  0  0  0  0
   11.7853    8.8978   -3.8178 C   0  0  0  0  0  0  0  0  0  0  0  0
   12.1041    9.4287   -2.5821 C   0  0  0  0  0  0  0  0  0  0  0  0
   12.4265    8.6026   -1.5466 C   0  0  0  0  0  0  0  0  0  0  0  0
   12.4199    7.2432   -1.7836 C   0  0  0  0  0  0  0  0  0  0  0  0
   12.1044    6.7052   -3.0082 C   0  0  0  0  0  0  0  0  0  0  0  0
   11.7769    7.5304   -4.0627 C   0  0  0  0  0  0  0  0  0  0  0  0
   11.4540    7.0306   -5.3078 C   0  0  0  0  0  0  0  0  0  0  0  0
  1  2  1  0
  2  3  1  0
  3  4  2  0
  4  5  1  0
  5  6  2  0
  6  7  1  0
  7  8  2  0
  6  9  1  0
 10  9  1  6
 10 11  1  0
 11 12  2  0
 12 13  1  0
 13 24  1  0
 24 25  2  0
 25 26  1  0
 26 27  2  0
 27 28  1  0
 28 29  2  0
 29 30  1  0
 30 36  1  0
 36 37  2  0
 37 38  1  0
 38 39  2  0
 39 40  1  0
 40 41  2  0
 41 42  1  0
 42 43  2  0
 43 44  1  0
 44 45  2  0
 30 31  2  0
 31 32  1  0
 32 33  2  0
 33 34  1  0
 34 35  1  0
 13 14  2  0
 14 15  1  0
 15 16  2  0
 16 17  1  0
 17 18  2  0
 10 19  1  0
 19 20  1  0
 20 21  1  0
 21 22  1  0
 22 23  1  0
  8  3  1  0
 23 10  1  0
 17  5  1  0
 16 11  1  0
 34 25  1  0
 33 28  1  0
 45 36  1  0
 44 39  1  0
M  END
>  <minimizedAffinity>  (897) 
-16.63854

$$$$
Mol: 183_29 - SminaDock
     RDKit          3D

 39 45  0  0  0  0  0  0  0  0999 V2000
    3.3435   -2.0944  -15.5773 H   0  0  0  0  0  0  0  0  0  0  0  0
    3.0248   -1.1416  -15.4616 O   0  0  0  0  0  0  0  0  0  0  0  0
    3.9720   -0.2050  -15.1254 N   0  0  0  0  0  0  0  0  0  0  0  0
    5.1674   -0.2356  -15.6015 C   0  0  0  0  0  0  0  0  0  0  0  0
    5.7633   -1.1877  -16.5341 C   0  0  0  0  0  0  0  0  0  0  0  0
    5.1624   -2.1760  -17.0397 O   0  0  0  0  0  0  0  0  0  0  0  0
    7.1035   -0.7846  -16.7434 N   0  0  0  0  0  0  0  0  0  0  0  0
    7.8098   -1.2425  -17.3513 H   0  0  0  0  0  0  0  0  0  0  0  0
    7.3624    0.3950  -15.9662 C   0  0  0  0  0  0  0  0  0  0  0  0
    8.5136    1.1360  -15.8530 C   0  0  0  0  0  0  0  0  0  0  0  0
    8.5288    2.2587  -15.0258 C   0  0  0  0  0  0  0  0  0  0  0  0
    7.3895    2.6014  -14.3393 C   0  0  0  0  0  0  0  0  0  0  0  0
    6.2437    1.8388  -14.4706 C   0  0  0  0  0  0  0  0  0  0  0  0
    6.2141    0.7236  -15.2868 C   0  0  0  0  0  0  0  0  0  0  0  0
    7.6749    3.7956  -13.5624 C   0  0  0  0  0  0  0  0  0  0  0  0
    6.8854    4.5606  -12.6967 C   0  0  0  0  0  0  0  0  0  0  0  0
    7.4124    5.6694  -12.0759 C   0  0  0  0  0  0  0  0  0  0  0  0
    8.7162    6.0419  -12.2948 C   0  0  0  0  0  0  0  0  0  0  0  0
    9.5152    5.3105  -13.1392 C   0  0  0  0  0  0  0  0  0  0  0  0
    8.9713    4.1849  -13.7659 C   0  0  0  0  0  0  0  0  0  0  0  0
    9.5804    3.2189  -14.7121 C   0  0  0  0  0  0  0  0  0  0  0  0
    9.2887    7.1913  -11.6634 N   0  0  0  0  0  0  0  0  0  0  0  0
    9.6231    7.1271  -10.4421 C   0  0  0  0  0  0  0  0  0  0  0  0
    9.4321    5.9788   -9.7661 N   0  0  0  0  0  0  0  0  0  0  0  0
    9.7792    5.9044   -8.4877 C   0  0  0  0  0  0  0  0  0  0  0  0
   10.3389    7.0050   -7.8417 C   0  0  0  0  0  0  0  0  0  0  0  0
   10.7123    6.9804   -6.5301 C   0  0  0  0  0  0  0  0  0  0  0  0
   11.2687    8.0464   -5.8547 C   0  0  0  0  0  0  0  0  0  0  0  0
   11.4461    9.2112   -6.5964 C   0  0  0  0  0  0  0  0  0  0  0  0
   11.0892    9.2978   -7.9231 C   0  0  0  0  0  0  0  0  0  0  0  0
   10.5303    8.1811   -8.5479 C   0  0  0  0  0  0  0  0  0  0  0  0
   10.1653    8.2109   -9.8363 N   0  0  0  0  0  0  0  0  0  0  0  0
   10.2973    9.0809  -10.3924 H   0  0  0  0  0  0  0  0  0  0  0  0
   11.6641    8.0179   -4.4594 C   0  0  0  0  0  0  0  0  0  0  0  0
   12.0176    9.1771   -3.8031 C   0  0  0  0  0  0  0  0  0  0  0  0
   12.3990    9.1871   -2.4779 C   0  0  0  0  0  0  0  0  0  0  0  0
   12.4387    8.0154   -1.7567 C   0  0  0  0  0  0  0  0  0  0  0  0
   12.0891    6.8426   -2.3925 C   0  0  0  0  0  0  0  0  0  0  0  0
   11.7073    6.8512   -3.7287 C   0  0  0  0  0  0  0  0  0  0  0  0
  1  2  1  0
  2  3  1  0
  3  4  2  0
  4  5  1  0
  5  6  2  0
  5  7  1  0
  7  8  1  0
  7  9  1  0
  9 10  2  0
 10 11  1  0
 11 12  2  0
 12 13  1  0
 13 14  2  0
 12 15  1  0
 15 16  2  0
 16 17  1  0
 17 18  2  0
 18 22  1  0
 22 23  2  0
 23 24  1  0
 24 25  2  0
 25 26  1  0
 26 27  2  0
 27 28  1  0
 28 34  1  0
 34 35  2  0
 35 36  1  0
 36 37  2  0
 37 38  1  0
 38 39  2  0
 28 29  2  0
 29 30  1  0
 30 31  2  0
 31 32  1  0
 32 33  1  0
 18 19  1  0
 19 20  2  0
 20 21  1  0
 14  4  1  0
 20 15  1  0
 14  9  1  0
 32 23  1  0
 21 11  1  0
 31 26  1  0
 39 34  1  0
M  END
>  <minimizedAffinity>  (898) 
-16.57127

$$$$
Mol: 131_40 - SminaDock
     RDKit          3D

 38 44  0  0  0  0  0  0  0  0999 V2000
    9.3593    2.2433  -16.7372 C   0  0  0  0  0  0  0  0  0  0  0  0
    8.2413    2.0012  -16.0975 C   0  0  0  0  0  0  0  0  0  0  0  0
    8.5619    1.6848  -14.6579 C   0  0  1  0  0  0  0  0  0  0  0  0
    7.9088    2.6866  -13.7984 C   0  0  0  0  0  0  0  0  0  0  0  0
    8.6453    3.8148  -13.3972 C   0  0  0  0  0  0  0  0  0  0  0  0
    8.0147    4.8193  -12.7057 C   0  0  0  0  0  0  0  0  0  0  0  0
    6.6728    4.6814  -12.4295 C   0  0  0  0  0  0  0  0  0  0  0  0
    5.9242    3.5844  -12.8086 C   0  0  0  0  0  0  0  0  0  0  0  0
    6.5789    2.5665  -13.5106 C   0  0  0  0  0  0  0  0  0  0  0  0
    5.8629    1.3089  -13.8141 C   0  0  0  0  0  0  0  0  0  0  0  0
    4.5152    1.2449  -13.6543 C   0  0  0  0  0  0  0  0  0  0  0  0
    3.8452    0.0875  -14.0733 C   0  0  0  0  0  0  0  0  0  0  0  0
    4.5599   -0.9317  -14.6244 C   0  0  0  0  0  0  0  0  0  0  0  0
    5.9218   -0.8914  -14.7945 C   0  0  0  0  0  0  0  0  0  0  0  0
    6.5848    0.2625  -14.3735 C   0  0  0  0  0  0  0  0  0  0  0  0
    8.0597    0.3196  -14.4113 C   0  0  0  0  0  0  0  0  0  0  0  0
   10.0119    1.7735  -14.5610 N   0  0  0  0  0  0  0  0  0  0  0  0
   10.6273    1.6261  -13.7518 H   0  0  0  0  0  0  0  0  0  0  0  0
   10.4910    2.1191  -15.8440 C   0  0  0  0  0  0  0  0  0  0  0  0
   11.7043    2.3013  -16.2010 O   0  0  0  0  0  0  0  0  0  0  0  0
    8.7298    5.9903  -12.2781 N   0  0  0  0  0  0  0  0  0  0  0  0
    9.1297    6.1208  -11.0847 C   0  0  0  0  0  0  0  0  0  0  0  0
    9.7975    7.2198  -10.6963 N   0  0  0  0  0  0  0  0  0  0  0  0
   10.2292    7.3655   -9.4116 C   0  0  0  0  0  0  0  0  0  0  0  0
   10.9151    8.4874   -9.0041 C   0  0  0  0  0  0  0  0  0  0  0  0
   11.3466    8.6203   -7.7001 C   0  0  0  0  0  0  0  0  0  0  0  0
   11.0956    7.6209   -6.7723 C   0  0  0  0  0  0  0  0  0  0  0  0
   10.4083    6.4929   -7.1740 C   0  0  0  0  0  0  0  0  0  0  0  0
    9.9788    6.3714   -8.4923 C   0  0  0  0  0  0  0  0  0  0  0  0
    9.3072    5.2799   -8.9077 N   0  0  0  0  0  0  0  0  0  0  0  0
    8.9005    5.1692  -10.1666 N   0  0  0  0  0  0  0  0  0  0  0  0
    8.3905    4.3069  -10.4212 H   0  0  0  0  0  0  0  0  0  0  0  0
   11.5790    7.8222   -5.4104 C   0  0  0  0  0  0  0  0  0  0  0  0
   12.2670    8.9545   -5.0264 C   0  0  0  0  0  0  0  0  0  0  0  0
   12.7151    9.1246   -3.7304 C   0  0  0  0  0  0  0  0  0  0  0  0
   12.4922    8.1664   -2.7641 C   0  0  0  0  0  0  0  0  0  0  0  0
   11.8052    7.0308   -3.1373 C   0  0  0  0  0  0  0  0  0  0  0  0
   11.3562    6.8619   -4.4395 C   0  0  0  0  0  0  0  0  0  0  0  0
  1  2  2  0
  2  3  1  0
  3  4  1  0
  4  5  2  0
  5  6  1  0
  6 21  1  0
 21 22  2  0
 22 23  1  0
 23 24  2  0
 24 25  1  0
 25 26  2  0
 26 27  1  0
 27 33  1  0
 33 34  2  0
 34 35  1  0
 35 36  2  0
 36 37  1  0
 37 38  2  0
 27 28  2  0
 28 29  1  0
 29 30  2  0
 30 31  1  0
 31 32  1  0
  6  7  2  0
  7  8  1  0
  8  9  2  0
  9 10  1  0
 10 11  2  0
 11 12  1  0
 12 13  2  0
 13 14  1  0
 14 15  2  0
 15 16  1  0
  3 17  1  0
 17 18  1  0
 17 19  1  0
 19 20  2  0
 19  1  1  0
  3 16  1  1
  9  4  1  0
 15 10  1  0
 31 22  1  0
 29 24  1  0
 38 33  1  0
M  END
>  <minimizedAffinity>  (899) 
-16.56340

$$$$
Mol: 184_58 - SminaDock
     RDKit          3D

 37 43  0  0  0  0  0  0  0  0999 V2000
    2.9357   -1.1468  -13.6462 H   0  0  0  0  0  0  0  0  0  0  0  0
    3.2754   -1.2420  -14.5835 O   0  0  0  0  0  0  0  0  0  0  0  0
    4.5267   -0.8467  -15.0158 C   0  0  0  0  0  0  0  0  0  0  0  0
    5.2101    0.2313  -14.5821 C   0  0  0  0  0  0  0  0  0  0  0  0
    4.8669    1.1785  -13.6431 C   0  0  0  0  0  0  0  0  0  0  0  0
    5.7858    2.2044  -13.3889 C   0  0  0  0  0  0  0  0  0  0  0  0
    6.9835    2.2685  -14.0472 C   0  0  0  0  0  0  0  0  0  0  0  0
    7.3164    1.3172  -14.9833 C   0  0  0  0  0  0  0  0  0  0  0  0
    6.4161    0.2970  -15.2440 C   0  0  0  0  0  0  0  0  0  0  0  0
    6.5347   -0.6976  -16.0870 N   0  0  0  0  0  0  0  0  0  0  0  0
    5.3623   -1.4980  -16.0159 C   0  0  0  0  0  0  0  0  0  0  0  0
    5.0734   -2.5467  -16.6601 O   0  0  0  0  0  0  0  0  0  0  0  0
    7.7435    3.4374  -13.5879 C   0  0  0  0  0  0  0  0  0  0  0  0
    8.9778    3.9521  -13.9173 C   0  0  0  0  0  0  0  0  0  0  0  0
    9.4292    5.0867  -13.3022 C   0  0  0  0  0  0  0  0  0  0  0  0
    8.6567    5.7185  -12.3544 C   0  0  0  0  0  0  0  0  0  0  0  0
    7.4223    5.2109  -12.0192 C   0  0  0  0  0  0  0  0  0  0  0  0
    6.9660    4.0594  -12.6448 C   0  0  0  0  0  0  0  0  0  0  0  0
    5.7019    3.3468  -12.4512 C   0  0  0  0  0  0  0  0  0  0  0  0
    9.1339    6.8970  -11.7201 N   0  0  0  0  0  0  0  0  0  0  0  0
    9.5098    6.8672  -10.4851 C   0  0  0  0  0  0  0  0  0  0  0  0
    9.4770    5.7521   -9.7342 N   0  0  0  0  0  0  0  0  0  0  0  0
    9.8643    5.7247   -8.4630 C   0  0  0  0  0  0  0  0  0  0  0  0
   10.3211    6.8986   -7.8900 C   0  0  0  0  0  0  0  0  0  0  0  0
   10.7350    6.9004   -6.5552 C   0  0  0  0  0  0  0  0  0  0  0  0
   11.1934    8.0583   -5.9641 C   0  0  0  0  0  0  0  0  0  0  0  0
   11.2226    9.1955   -6.7439 C   0  0  0  0  0  0  0  0  0  0  0  0
   10.8157    9.2007   -8.0616 C   0  0  0  0  0  0  0  0  0  0  0  0
   10.3563    8.0438   -8.6562 C   0  0  0  0  0  0  0  0  0  0  0  0
    9.9497    8.0181   -9.9486 N   0  0  0  0  0  0  0  0  0  0  0  0
    9.9953    8.9163  -10.4914 H   0  0  0  0  0  0  0  0  0  0  0  0
   11.6315    8.0754   -4.5608 C   0  0  0  0  0  0  0  0  0  0  0  0
   11.7052    6.8986   -3.8451 C   0  0  0  0  0  0  0  0  0  0  0  0
   12.1096    6.9075   -2.5482 C   0  0  0  0  0  0  0  0  0  0  0  0
   12.4501    8.0686   -1.9248 C   0  0  0  0  0  0  0  0  0  0  0  0
   12.3830    9.2723   -2.6303 C   0  0  0  0  0  0  0  0  0  0  0  0
   11.9730    9.2612   -3.9446 C   0  0  0  0  0  0  0  0  0  0  0  0
  1  2  1  0
  2  3  1  0
  3  4  2  0
  4  5  1  0
  5  6  2  0
  6  7  1  0
  7  8  2  0
  8  9  1  0
  9 10  2  0
 10 11  1  0
 11 12  2  0
  7 13  1  0
 13 14  2  0
 14 15  1  0
 15 16  2  0
 16 20  1  0
 20 21  2  0
 21 22  1  0
 22 23  2  0
 23 24  1  0
 24 25  2  0
 25 26  1  0
 26 32  1  0
 32 33  2  0
 33 34  1  0
 34 35  2  0
 35 36  1  0
 36 37  2  0
 26 27  2  0
 27 28  1  0
 28 29  2  0
 29 30  1  0
 30 31  1  0
 16 17  1  0
 17 18  2  0
 18 19  1  0
 11  3  1  0
 18 13  1  0
  9  4  1  0
 30 21  1  0
 19  6  1  0
 29 24  1  0
 37 32  1  0
M  END
>  <minimizedAffinity>  (900) 
-16.63243

$$$$
Mol: 184_8 - SminaDock
     RDKit          3D

 44 51  0  0  0  0  0  0  0  0999 V2000
   10.7198   -0.5589  -13.7817 H   0  0  0  0  0  0  0  0  0  0  0  0
   10.5846   -0.1250  -14.7062 O   0  0  0  0  0  0  0  0  0  0  0  0
    9.4234    0.6366  -14.9436 C   0  0  0  0  0  0  0  0  0  0  0  0
    8.5040    0.7673  -14.0674 N   0  0  0  0  0  0  0  0  0  0  0  0
    7.4319    1.5843  -14.5443 C   0  0  2  0  0  0  0  0  0  0  0  0
    7.8563    1.9563  -15.9194 C   0  0  0  0  0  0  0  0  0  0  0  0
    7.2048    2.6889  -16.7379 O   0  0  0  0  0  0  0  0  0  0  0  0
    9.1118    1.3411  -16.1337 N   0  0  0  0  0  0  0  0  0  0  0  0
    7.1901    2.7683  -13.7042 C   0  0  0  0  0  0  0  0  0  0  0  0
    8.0568    3.7962  -13.3455 C   0  0  0  0  0  0  0  0  0  0  0  0
    7.6146    4.8094  -12.5428 C   0  0  0  0  0  0  0  0  0  0  0  0
    6.2952    4.8200  -12.0785 C   0  0  0  0  0  0  0  0  0  0  0  0
    5.4301    3.8099  -12.4260 C   0  0  0  0  0  0  0  0  0  0  0  0
    5.9047    2.7804  -13.2511 C   0  0  0  0  0  0  0  0  0  0  0  0
    5.2475    1.5872  -13.7902 C   0  0  0  0  0  0  0  0  0  0  0  0
    3.9572    1.1174  -13.6460 C   0  0  0  0  0  0  0  0  0  0  0  0
    3.5734   -0.0515  -14.2639 C   0  0  0  0  0  0  0  0  0  0  0  0
    4.4587   -0.7697  -15.0314 C   0  0  0  0  0  0  0  0  0  0  0  0
    4.3782   -1.8913  -15.7231 O   0  0  0  0  0  0  0  0  0  0  0  0
    5.5165   -2.1773  -16.2998 C   0  0  0  0  0  0  0  0  0  0  0  0
    5.7322   -3.3275  -17.1134 N   0  0  0  0  0  0  0  0  0  0  0  0
    5.2722   -3.3926  -18.0510 H   0  0  0  0  0  0  0  0  0  0  0  0
    6.3348   -4.1246  -16.8231 H   0  0  0  0  0  0  0  0  0  0  0  0
    6.3738   -1.1962  -15.9670 N   0  0  0  0  0  0  0  0  0  0  0  0
    5.7554   -0.2922  -15.1730 C   0  0  0  0  0  0  0  0  0  0  0  0
    6.1359    0.8745  -14.5552 C   0  0  0  0  0  0  0  0  0  0  0  0
    8.4688    5.8786  -12.1607 N   0  0  0  0  0  0  0  0  0  0  0  0
    8.8990    6.0171  -10.9704 C   0  0  0  0  0  0  0  0  0  0  0  0
    8.5486    5.1324  -10.0204 N   0  0  0  0  0  0  0  0  0  0  0  0
    9.0158    5.3089   -8.7494 C   0  0  0  0  0  0  0  0  0  0  0  0
    9.8351    6.3605   -8.3983 C   0  0  0  0  0  0  0  0  0  0  0  0
   10.3094    6.5429   -7.1008 C   0  0  0  0  0  0  0  0  0  0  0  0
   11.1240    7.6008   -6.7661 C   0  0  0  0  0  0  0  0  0  0  0  0
   11.4586    8.4867   -7.7778 C   0  0  0  0  0  0  0  0  0  0  0  0
   10.9937    8.3142   -9.0663 C   0  0  0  0  0  0  0  0  0  0  0  0
   10.1769    7.2509   -9.3952 C   0  0  0  0  0  0  0  0  0  0  0  0
    9.7110    7.0671  -10.6434 N   0  0  0  0  0  0  0  0  0  0  0  0
    9.9617    7.7374  -11.4183 H   0  0  0  0  0  0  0  0  0  0  0  0
   11.6521    7.8424   -5.4262 C   0  0  0  0  0  0  0  0  0  0  0  0
   12.3407    9.0009   -5.1137 C   0  0  0  0  0  0  0  0  0  0  0  0
   12.8323    9.1903   -3.8415 C   0  0  0  0  0  0  0  0  0  0  0  0
   12.6491    8.2326   -2.8570 C   0  0  0  0  0  0  0  0  0  0  0  0
   11.9598    7.0591   -3.1470 C   0  0  0  0  0  0  0  0  0  0  0  0
   11.4857    6.9077   -4.4254 C   0  0  0  0  0  0  0  0  0  0  0  0
  1  2  1  0
  2  3  1  0
  3  4  2  0
  5  4  1  1
  5  6  1  0
  6  7  2  0
  6  8  1  0
  5  9  1  0
  9 10  2  0
 10 11  1  0
 11 27  1  0
 27 28  2  0
 28 29  1  0
 29 30  2  0
 30 31  1  0
 31 32  2  0
 32 33  1  0
 33 39  1  0
 39 40  2  0
 40 41  1  0
 41 42  2  0
 42 43  1  0
 43 44  2  0
 33 34  2  0
 34 35  1  0
 35 36  2  0
 36 37  1  0
 37 38  1  0
 11 12  2  0
 12 13  1  0
 13 14  2  0
 14 15  1  0
 15 16  2  0
 16 17  1  0
 17 18  2  0
 18 19  1  0
 19 20  1  0
 20 21  1  0
 21 22  1  0
 21 23  1  0
 20 24  2  0
 24 25  1  0
 25 26  2  0
  8  3  1  0
 14  9  1  0
 26 15  1  0
 26  5  1  0
 37 28  1  0
 25 18  1  0
 36 31  1  0
 44 39  1  0
M  CHG  1   8  -1
M  END
>  <minimizedAffinity>  (901) 
-16.58880

$$$$
Mol: 131_13 - SminaDock
     RDKit          3D

 37 43  0  0  0  0  0  0  0  0999 V2000
    8.9308    5.8223  -12.3632 C   0  0  0  0  0  0  0  0  0  0  0  0
    7.6058    5.4778  -12.3426 C   0  0  0  0  0  0  0  0  0  0  0  0
    7.2031    4.2951  -12.9410 C   0  0  0  0  0  0  0  0  0  0  0  0
    8.1408    3.4840  -13.5473 C   0  0  0  0  0  0  0  0  0  0  0  0
    9.4733    3.7960  -13.5868 C   0  0  0  0  0  0  0  0  0  0  0  0
    9.8462    5.0058  -12.9686 C   0  0  0  0  0  0  0  0  0  0  0  0
   10.5408    2.9780  -14.1990 C   0  0  0  0  0  0  0  0  0  0  0  0
   10.0635    1.7839  -14.8950 C   0  0  0  0  0  0  0  0  0  0  0  0
    8.6331    1.4760  -14.7986 C   0  0  0  0  0  0  0  0  0  0  0  0
    8.2131    0.2765  -15.4088 C   0  0  0  0  0  0  0  0  0  0  0  0
    6.9146   -0.1152  -15.4026 C   0  0  0  0  0  0  0  0  0  0  0  0
    5.9769    0.6783  -14.7839 C   0  0  0  0  0  0  0  0  0  0  0  0
    6.3956    1.8610  -14.1827 C   0  0  0  0  0  0  0  0  0  0  0  0
    7.6978    2.2660  -14.1816 C   0  0  0  0  0  0  0  0  0  0  0  0
    4.5943    0.2322  -14.7957 C   0  0  0  0  0  0  0  0  0  0  0  0
    3.7922    0.7104  -13.9572 O   0  0  0  0  0  0  0  0  0  0  0  0
    4.0732   -0.7704  -15.7575 C   0  0  0  0  0  0  0  0  0  0  0  0
    5.1693   -1.4523  -16.5251 C   0  0  0  0  0  0  0  0  0  0  0  0
    6.4522   -1.2862  -15.9890 O   0  0  0  0  0  0  0  0  0  0  0  0
   11.2326    8.0813   -5.8753 C   0  0  0  0  0  0  0  0  0  0  0  0
   11.2299    9.2590   -6.6022 C   0  0  0  0  0  0  0  0  0  0  0  0
   10.8495    9.2936   -7.9281 C   0  0  0  0  0  0  0  0  0  0  0  0
   10.4564    8.1447   -8.5765 C   0  0  0  0  0  0  0  0  0  0  0  0
   10.4474    6.9511   -7.8803 C   0  0  0  0  0  0  0  0  0  0  0  0
   10.0510    5.8015   -8.5356 C   0  0  0  0  0  0  0  0  0  0  0  0
    9.6885    5.8635   -9.8128 N   0  0  0  0  0  0  0  0  0  0  0  0
    9.6995    7.0237  -10.4817 C   0  0  0  0  0  0  0  0  0  0  0  0
    9.3358    7.0572  -11.7387 N   0  0  0  0  0  0  0  0  0  0  0  0
   10.0811    8.1630   -9.8711 N   0  0  0  0  0  0  0  0  0  0  0  0
   10.0763    9.0545  -10.4306 H   0  0  0  0  0  0  0  0  0  0  0  0
   10.8332    6.9384   -6.5491 C   0  0  0  0  0  0  0  0  0  0  0  0
   12.4081    8.0924   -1.8159 C   0  0  0  0  0  0  0  0  0  0  0  0
   12.1430    6.8919   -2.4532 C   0  0  0  0  0  0  0  0  0  0  0  0
   11.7542    6.9025   -3.8009 C   0  0  0  0  0  0  0  0  0  0  0  0
   11.6348    8.0830   -4.4898 C   0  0  0  0  0  0  0  0  0  0  0  0
   11.8983    9.2686   -3.8546 C   0  0  0  0  0  0  0  0  0  0  0  0
   12.2818    9.2559   -2.5248 C   0  0  0  0  0  0  0  0  0  0  0  0
 32 33  2  0
 33 34  1  0
 34 35  2  0
 35 20  1  0
 20 21  2  0
 21 22  1  0
 22 23  2  0
 23 24  1  0
 24 25  1  0
 25 26  2  0
 26 27  1  0
 27 28  2  0
 28  1  1  0
  1  2  2  0
  2  3  1  0
  3  4  2  0
  4  5  1  0
  5  6  2  0
  5  7  1  0
  7  8  1  0
  8  9  1  0
  9 10  2  0
 10 11  1  0
 11 12  2  0
 12 13  1  0
 13 14  2  0
 12 15  1  0
 15 16  2  0
 15 17  1  0
 17 18  1  0
 18 19  1  0
 27 29  1  0
 29 30  1  0
 24 31  2  0
 35 36  1  0
 36 37  2  0
 37 32  1  0
 31 20  1  0
 29 23  1  0
  6  1  1  0
 14  9  1  0
 14  4  1  0
 19 11  1  0
M  END
>  <minimizedAffinity>  (902) 
-16.57865

$$$$
Mol: 131_24 - SminaDock
     RDKit          3D

 40 46  0  0  0  0  0  0  0  0999 V2000
    8.4021    5.1504  -12.9922 C   0  0  0  0  0  0  0  0  0  0  0  0
    7.1010    4.9313  -12.5742 C   0  0  0  0  0  0  0  0  0  0  0  0
    6.3924    3.8185  -13.0365 C   0  0  0  0  0  0  0  0  0  0  0  0
    7.0217    2.9700  -13.8991 C   0  0  0  0  0  0  0  0  0  0  0  0
    8.3370    3.1789  -14.3331 C   0  0  0  0  0  0  0  0  0  0  0  0
    9.0160    4.2778  -13.8679 C   0  0  0  0  0  0  0  0  0  0  0  0
    9.0752    2.3379  -15.2875 C   0  0  1  0  0  0  0  0  0  0  0  0
   10.5033    2.5341  -15.3971 C   0  0  0  0  0  0  0  0  0  0  0  0
   11.2948    3.2388  -16.0654 O   0  0  0  0  0  0  0  0  0  0  0  0
   10.7133    1.5585  -14.3885 N   0  0  0  0  0  0  0  0  0  0  0  0
   11.5114    1.3602  -13.7487 H   0  0  0  0  0  0  0  0  0  0  0  0
    9.4042    0.9968  -14.6312 C   0  0  0  0  0  0  0  0  0  0  0  0
    8.3356    2.0918  -16.5075 N   0  0  0  0  0  0  0  0  0  0  0  0
    8.7390    2.4071  -17.4340 H   0  0  0  0  0  0  0  0  0  0  0  0
    7.0698    1.4430  -16.6074 C   0  0  0  0  0  0  0  0  0  0  0  0
    6.6596    1.0291  -17.7165 O   0  0  0  0  0  0  0  0  0  0  0  0
    6.1343    1.1881  -15.4907 C   0  0  0  0  0  0  0  0  0  0  0  0
    5.2380    0.1843  -15.7101 C   0  0  0  0  0  0  0  0  0  0  0  0
    4.3568   -0.1481  -14.7066 C   0  0  0  0  0  0  0  0  0  0  0  0
    4.3807    0.5320  -13.4817 C   0  0  0  0  0  0  0  0  0  0  0  0
    5.2812    1.5458  -13.2519 C   0  0  0  0  0  0  0  0  0  0  0  0
    6.1421    1.8578  -14.2629 C   0  0  0  0  0  0  0  0  0  0  0  0
   11.1153    7.7197   -6.8061 C   0  0  0  0  0  0  0  0  0  0  0  0
   11.4726    8.7468   -7.6740 C   0  0  0  0  0  0  0  0  0  0  0  0
   11.1340    8.6548   -9.0047 C   0  0  0  0  0  0  0  0  0  0  0  0
   10.4447    7.5504   -9.4737 C   0  0  0  0  0  0  0  0  0  0  0  0
   10.0957    7.4228  -10.7645 N   0  0  0  0  0  0  0  0  0  0  0  0
    9.4293    6.3757  -11.2669 C   0  0  0  0  0  0  0  0  0  0  0  0
    9.1094    6.2841  -12.5129 N   0  0  0  0  0  0  0  0  0  0  0  0
    9.0888    5.3890  -10.4199 N   0  0  0  0  0  0  0  0  0  0  0  0
    8.5644    4.5503  -10.7780 H   0  0  0  0  0  0  0  0  0  0  0  0
    9.4196    5.4708   -9.1011 C   0  0  0  0  0  0  0  0  0  0  0  0
   10.0986    6.5414   -8.5990 C   0  0  0  0  0  0  0  0  0  0  0  0
   10.4290    6.6083   -7.2440 C   0  0  0  0  0  0  0  0  0  0  0  0
   12.2082    8.1401   -2.7302 C   0  0  0  0  0  0  0  0  0  0  0  0
   11.6600    6.9547   -3.1919 C   0  0  0  0  0  0  0  0  0  0  0  0
   11.2944    6.7915   -4.5216 C   0  0  0  0  0  0  0  0  0  0  0  0
   11.4867    7.8427   -5.3939 C   0  0  0  0  0  0  0  0  0  0  0  0
   12.0279    9.0345   -4.9725 C   0  0  0  0  0  0  0  0  0  0  0  0
   12.3793    9.1591   -3.6422 C   0  0  0  0  0  0  0  0  0  0  0  0
 35 36  2  0
 36 37  1  0
 37 38  2  0
 38 23  1  0
 23 24  1  0
 24 25  2  0
 25 26  1  0
 26 27  2  0
 27 28  1  0
 28 29  2  0
 29  1  1  0
  1  2  2  0
  2  3  1  0
  3  4  2  0
  4  5  1  0
  5  6  2  0
  5  7  1  0
  7  8  1  0
  8  9  2  0
  8 10  1  0
 10 11  1  0
 10 12  1  0
  7 13  1  0
 13 14  1  0
 13 15  1  0
 15 16  2  0
 15 17  1  0
 17 18  2  0
 18 19  1  0
 19 20  2  0
 20 21  1  0
 21 22  2  0
 28 30  1  0
 30 31  1  0
 30 32  1  0
 32 33  2  0
 33 34  1  0
 38 39  1  0
 39 40  2  0
 40 35  1  0
 34 23  2  0
 33 26  1  0
  6  1  1  0
  7 12  1  1
 22 17  1  0
 22  4  1  0
M  END
>  <minimizedAffinity>  (903) 
-16.57383

$$$$
Mol: 130_40 - SminaDock
     RDKit          3D

 52 62  0  0  0  0  0  0  0  0999 V2000
    7.4219    4.7366  -12.4571 C   0  0  0  0  0  0  0  0  0  0  0  0
    6.2002    4.6449  -11.8017 C   0  0  0  0  0  0  0  0  0  0  0  0
    5.3352    3.6106  -12.0517 C   0  0  0  0  0  0  0  0  0  0  0  0
    5.6745    2.6424  -12.9653 C   0  0  0  0  0  0  0  0  0  0  0  0
    4.8008    1.6178  -13.2190 C   0  0  0  0  0  0  0  0  0  0  0  0
    5.1010    0.6460  -14.1275 C   0  0  0  0  0  0  0  0  0  0  0  0
    6.3084    0.7368  -14.7723 C   0  0  0  0  0  0  0  0  0  0  0  0
    7.2376    1.7557  -14.5548 C   0  0  0  0  0  0  0  0  0  0  0  0
    6.9102    2.7257  -13.6340 C   0  0  0  0  0  0  0  0  0  0  0  0
    7.7688    3.7712  -13.3731 C   0  0  0  0  0  0  0  0  0  0  0  0
    8.5146    1.7439  -15.2551 C   0  0  0  0  0  0  0  0  0  0  0  0
    9.4055    0.7059  -15.1061 C   0  0  0  0  0  0  0  0  0  0  0  0
   10.5921    0.7499  -15.7879 C   0  0  0  0  0  0  0  0  0  0  0  0
   10.9110    1.8231  -16.6270 C   0  0  0  0  0  0  0  0  0  0  0  0
   10.0309    2.8613  -16.7825 C   0  0  0  0  0  0  0  0  0  0  0  0
    8.8319    2.7975  -16.0811 C   0  0  0  0  0  0  0  0  0  0  0  0
   10.5913    3.8417  -17.7044 C   0  0  0  0  0  0  0  0  0  0  0  0
   10.3614    5.0482  -18.3303 C   0  0  0  0  0  0  0  0  0  0  0  0
   11.4737    5.3345  -19.1315 C   0  0  0  0  0  0  0  0  0  0  0  0
   12.3306    4.3001  -18.9640 C   0  0  0  0  0  0  0  0  0  0  0  0
   11.7882    3.3811  -18.0853 N   0  0  0  0  0  0  0  0  0  0  0  0
   12.0938    2.1156  -17.4622 C   0  0  0  0  0  0  0  0  0  0  0  0
   13.6632    3.9911  -19.5267 C   0  0  0  0  0  0  0  0  0  0  0  0
   14.4039    5.1997  -19.9192 C   0  0  0  0  0  0  0  0  0  0  0  0
   15.7464    5.1372  -19.5168 C   0  0  0  0  0  0  0  0  0  0  0  0
   16.5397    6.2071  -19.8389 C   0  0  0  0  0  0  0  0  0  0  0  0
   16.0881    7.3103  -20.5213 C   0  0  0  0  0  0  0  0  0  0  0  0
   14.7487    7.3278  -20.8999 C   0  0  0  0  0  0  0  0  0  0  0  0
   13.9193    6.2859  -20.6018 C   0  0  0  0  0  0  0  0  0  0  0  0
   12.5480    6.4906  -21.0731 C   0  0  0  0  0  0  0  0  0  0  0  0
   11.5573    6.5474  -19.9334 C   0  0  1  0  0  0  0  0  0  0  0  0
   10.2519    7.1770  -20.3682 C   0  0  0  0  0  0  0  0  0  0  0  0
   10.6767    8.4103  -19.8731 O   0  0  0  0  0  0  0  0  0  0  0  0
   11.7226    7.8369  -19.1572 C   0  0  0  0  0  0  0  0  0  0  0  0
   11.0679    7.6598   -7.0458 C   0  0  0  0  0  0  0  0  0  0  0  0
   11.4392    8.5037   -8.0626 C   0  0  0  0  0  0  0  0  0  0  0  0
   10.9554    8.3202   -9.3648 C   0  0  0  0  0  0  0  0  0  0  0  0
   10.0974    7.2720   -9.5977 C   0  0  0  0  0  0  0  0  0  0  0  0
    9.6002    7.0526  -10.8479 N   0  0  0  0  0  0  0  0  0  0  0  0
    8.7663    6.0130  -11.0191 C   0  0  0  0  0  0  0  0  0  0  0  0
    8.3053    5.8100  -12.1896 N   0  0  0  0  0  0  0  0  0  0  0  0
    8.4151    5.1931   -9.9957 N   0  0  0  0  0  0  0  0  0  0  0  0
    7.7806    4.3921  -10.0969 H   0  0  0  0  0  0  0  0  0  0  0  0
    8.8965    5.3975   -8.7622 N   0  0  0  0  0  0  0  0  0  0  0  0
    9.7282    6.4321   -8.5851 C   0  0  0  0  0  0  0  0  0  0  0  0
   10.2125    6.6185   -7.2925 C   0  0  0  0  0  0  0  0  0  0  0  0
   12.4931    8.1636   -3.0954 C   0  0  0  0  0  0  0  0  0  0  0  0
   11.7970    7.0235   -3.4394 C   0  0  0  0  0  0  0  0  0  0  0  0
   11.3398    6.8727   -4.7259 C   0  0  0  0  0  0  0  0  0  0  0  0
   11.5654    7.8479   -5.6886 C   0  0  0  0  0  0  0  0  0  0  0  0
   12.2638    8.9853   -5.3319 C   0  0  0  0  0  0  0  0  0  0  0  0
   12.7185    9.1329   -4.0480 C   0  0  0  0  0  0  0  0  0  0  0  0
 47 48  2  0
 48 49  1  0
 49 50  2  0
 50 35  1  0
 35 36  1  0
 36 37  2  0
 37 38  1  0
 38 39  2  0
 39 40  1  0
 40 41  2  0
 41  1  1  0
  1  2  2  0
  2  3  1  0
  3  4  2  0
  4  5  1  0
  5  6  2  0
  6  7  1  0
  7  8  2  0
  8 11  1  0
 11 12  2  0
 12 13  1  0
 13 14  2  0
 14 15  1  0
 15 16  2  0
 15 17  1  0
 17 18  2  0
 18 19  1  0
 19 20  2  0
 20 21  1  0
 21 22  1  0
 20 23  1  0
 23 24  1  0
 24 25  2  0
 25 26  1  0
 26 27  2  0
 27 28  1  0
 28 29  2  0
 29 30  1  0
 31 30  1  6
 31 32  1  0
 32 33  1  0
 33 34  1  0
  8  9  1  0
  9 10  2  0
 40 42  1  0
 42 43  1  0
 42 44  1  0
 44 45  2  0
 45 46  1  0
 50 51  1  0
 51 52  2  0
 52 47  1  0
 46 35  2  0
 45 38  1  0
 10  1  1  0
  9  4  1  0
 16 11  1  0
 21 17  1  0
 29 24  1  0
 34 31  1  0
 22 14  1  0
 31 19  1  0
M  END
>  <minimizedAffinity>  (904) 
-16.57326

$$$$
Mol: 154_18 - SminaDock
     RDKit          3D

 39 45  0  0  0  0  0  0  0  0999 V2000
    8.8634    5.7361  -12.3951 C   0  0  0  0  0  0  0  0  0  0  0  0
    9.6171    5.0205  -13.3110 C   0  0  0  0  0  0  0  0  0  0  0  0
    9.0912    3.8766  -13.8699 C   0  0  0  0  0  0  0  0  0  0  0  0
    7.8147    3.4623  -13.5042 C   0  0  0  0  0  0  0  0  0  0  0  0
    7.0777    4.1885  -12.5893 C   0  0  0  0  0  0  0  0  0  0  0  0
    7.5932    5.3338  -12.0241 C   0  0  0  0  0  0  0  0  0  0  0  0
    5.7800    3.7424  -12.2343 N   0  0  0  0  0  0  0  0  0  0  0  0
    5.2791    4.3465  -11.5220 H   0  0  0  0  0  0  0  0  0  0  0  0
    5.1274    2.5758  -12.7539 C   0  0  0  0  0  0  0  0  0  0  0  0
    5.9745    1.8445  -13.7238 C   0  0  0  0  0  0  0  0  0  0  0  0
    7.2289    2.2605  -14.0752 C   0  0  0  0  0  0  0  0  0  0  0  0
    7.9337    1.5239  -14.9776 N   0  0  0  0  0  0  0  0  0  0  0  0
    7.4250    0.4077  -15.5232 C   0  0  0  0  0  0  0  0  0  0  0  0
    8.0718   -0.2892  -16.3664 O   0  0  0  0  0  0  0  0  0  0  0  0
    6.1435   -0.0476  -15.1860 C   0  0  0  0  0  0  0  0  0  0  0  0
    5.4192    0.6725  -14.2856 C   0  0  0  0  0  0  0  0  0  0  0  0
    4.0609    0.2348  -13.8954 C   0  0  0  0  0  0  0  0  0  0  0  0
    3.4526   -0.4959  -15.0722 C   0  0  0  0  0  0  0  0  0  0  0  0
    4.3024   -1.6458  -15.3494 N   0  0  0  0  0  0  0  0  0  0  0  0
    3.8165   -2.1949  -16.0974 H   0  0  0  0  0  0  0  0  0  0  0  0
    5.5976   -1.2744  -15.7935 C   0  0  0  0  0  0  0  0  0  0  0  0
   11.2782    8.0156   -5.9655 C   0  0  0  0  0  0  0  0  0  0  0  0
   11.4130    9.1628   -6.7202 C   0  0  0  0  0  0  0  0  0  0  0  0
   11.0577    9.1937   -8.0667 C   0  0  0  0  0  0  0  0  0  0  0  0
   10.5562    8.0554   -8.6769 C   0  0  0  0  0  0  0  0  0  0  0  0
   10.1957    8.0087   -9.9568 N   0  0  0  0  0  0  0  0  0  0  0  0
    9.7046    6.9055  -10.5654 C   0  0  0  0  0  0  0  0  0  0  0  0
    9.3682    6.9041  -11.8068 N   0  0  0  0  0  0  0  0  0  0  0  0
    9.5618    5.7782   -9.8623 N   0  0  0  0  0  0  0  0  0  0  0  0
    9.1760    4.9060  -10.3342 H   0  0  0  0  0  0  0  0  0  0  0  0
    9.9128    5.7811   -8.5699 C   0  0  0  0  0  0  0  0  0  0  0  0
   10.4146    6.8860   -7.9234 C   0  0  0  0  0  0  0  0  0  0  0  0
   10.7761    6.8999   -6.6032 C   0  0  0  0  0  0  0  0  0  0  0  0
   12.4053    8.0132   -1.8313 C   0  0  0  0  0  0  0  0  0  0  0  0
   12.0728    6.8451   -2.4850 C   0  0  0  0  0  0  0  0  0  0  0  0
   11.7119    6.8631   -3.8172 C   0  0  0  0  0  0  0  0  0  0  0  0
   11.6652    8.0398   -4.5583 C   0  0  0  0  0  0  0  0  0  0  0  0
   12.0001    9.1999   -3.8911 C   0  0  0  0  0  0  0  0  0  0  0  0
   12.3653    9.2027   -2.5534 C   0  0  0  0  0  0  0  0  0  0  0  0
 34 35  2  0
 35 36  1  0
 36 37  2  0
 37 22  1  0
 22 23  1  0
 23 24  2  0
 24 25  1  0
 25 26  2  0
 26 27  1  0
 27 28  2  0
 28  1  1  0
  1  2  2  0
  2  3  1  0
  3  4  2  0
  4  5  1  0
  5  6  2  0
  5  7  1  0
  7  8  1  0
  7  9  1  0
  9 10  1  0
 10 11  2  0
 11 12  1  0
 12 13  1  0
 13 14  2  0
 13 15  1  0
 15 16  2  0
 16 17  1  0
 17 18  1  0
 18 19  1  0
 19 20  1  0
 19 21  1  0
 27 29  1  0
 29 30  1  0
 29 31  1  0
 31 32  2  0
 32 33  1  0
 37 38  1  0
 38 39  2  0
 39 34  1  0
 33 22  2  0
 32 25  1  0
  6  1  1  0
 16 10  1  0
 11  4  1  0
 21 15  1  0
M  CHG  1  12  -1
M  END
>  <minimizedAffinity>  (905) 
-16.60409

$$$$
Mol: 166_18 - SminaDock
     RDKit          3D

 41 48  0  0  0  0  0  0  0  0999 V2000
    8.9321    6.0496  -12.3083 C   0  0  0  0  0  0  0  0  0  0  0  0
    9.6820    5.5530  -13.3456 C   0  0  0  0  0  0  0  0  0  0  0  0
    9.1978    4.4423  -14.0451 C   0  0  0  0  0  0  0  0  0  0  0  0
    7.9912    3.8699  -13.6882 C   0  0  0  0  0  0  0  0  0  0  0  0
    7.2352    4.3509  -12.6592 C   0  0  0  0  0  0  0  0  0  0  0  0
    7.7350    5.4700  -11.9637 C   0  0  0  0  0  0  0  0  0  0  0  0
    5.9655    3.7909  -12.2091 C   0  0  0  0  0  0  0  0  0  0  0  0
    5.4415    2.6896  -13.0125 C   0  0  0  0  0  0  0  0  0  0  0  0
    6.3012    2.2191  -14.0985 C   0  0  0  0  0  0  0  0  0  0  0  0
    7.4536    2.7324  -14.4250 C   0  0  0  0  0  0  0  0  0  0  0  0
    8.0557    2.0330  -15.5572 C   0  0  0  0  0  0  0  0  0  0  0  0
    9.1209    2.1953  -16.1687 O   0  0  0  0  0  0  0  0  0  0  0  0
    7.0762    0.9781  -15.8951 C   0  0  0  0  0  0  0  0  0  0  0  0
    6.7916   -0.0718  -16.7349 C   0  0  0  0  0  0  0  0  0  0  0  0
    5.5803   -0.5814  -16.3635 C   0  0  0  0  0  0  0  0  0  0  0  0
    5.1316    0.1299  -15.3287 N   0  0  0  0  0  0  0  0  0  0  0  0
    4.2061   -0.0519  -14.8376 H   0  0  0  0  0  0  0  0  0  0  0  0
    6.0220    1.0836  -15.0246 C   0  0  0  0  0  0  0  0  0  0  0  0
    5.0817   -1.7495  -17.1708 C   0  0  0  0  0  0  0  0  0  0  0  0
    5.2109   -1.3408  -18.5579 N   0  0  0  0  0  0  0  0  0  0  0  0
    4.3508   -0.1863  -18.7993 C   0  0  0  0  0  0  0  0  0  0  0  0
    6.5610   -1.0928  -18.9618 C   0  0  0  0  0  0  0  0  0  0  0  0
    7.4952   -0.6971  -17.8678 C   0  0  0  0  0  0  0  0  0  0  0  0
   11.3171    8.0677   -5.7031 C   0  0  0  0  0  0  0  0  0  0  0  0
   11.3666    9.2461   -6.4184 C   0  0  0  0  0  0  0  0  0  0  0  0
   10.9878    9.3088   -7.7452 C   0  0  0  0  0  0  0  0  0  0  0  0
   10.5412    8.1870   -8.4134 C   0  0  0  0  0  0  0  0  0  0  0  0
   10.4866    7.0010   -7.7091 C   0  0  0  0  0  0  0  0  0  0  0  0
   10.0404    5.8960   -8.3951 C   0  0  0  0  0  0  0  0  0  0  0  0
    9.6731    5.9740   -9.7015 N   0  0  0  0  0  0  0  0  0  0  0  0
    9.7355    7.1398  -10.3642 C   0  0  0  0  0  0  0  0  0  0  0  0
    9.3858    7.1740  -11.5932 N   0  0  0  0  0  0  0  0  0  0  0  0
   10.1682    8.2346   -9.7159 N   0  0  0  0  0  0  0  0  0  0  0  0
   10.2383    9.1687  -10.1798 H   0  0  0  0  0  0  0  0  0  0  0  0
   10.8700    6.9445   -6.3714 C   0  0  0  0  0  0  0  0  0  0  0  0
   12.5125    7.9521   -1.6227 C   0  0  0  0  0  0  0  0  0  0  0  0
   12.1856    6.8045   -2.2783 C   0  0  0  0  0  0  0  0  0  0  0  0
   11.7972    6.8480   -3.6062 C   0  0  0  0  0  0  0  0  0  0  0  0
   11.7266    8.0376   -4.3091 C   0  0  0  0  0  0  0  0  0  0  0  0
   12.0651    9.1823   -3.6132 C   0  0  0  0  0  0  0  0  0  0  0  0
   12.4547    9.1552   -2.2875 C   0  0  0  0  0  0  0  0  0  0  0  0
 36 37  2  0
 37 38  1  0
 38 39  2  0
 39 24  1  0
 24 25  2  0
 25 26  1  0
 26 27  2  0
 27 28  1  0
 28 29  1  0
 29 30  2  0
 30 31  1  0
 31 32  2  0
 32  1  1  0
  1  2  2  0
  2  3  1  0
  3  4  2  0
  4  5  1  0
  5  6  2  0
  5  7  1  0
  7  8  1  0
  8  9  1  0
  9 10  2  0
 10 11  1  0
 11 12  2  0
 11 13  1  0
 13 14  1  0
 14 15  2  0
 15 16  1  0
 16 17  1  0
 16 18  1  0
 15 19  1  0
 19 20  1  0
 20 21  1  0
 20 22  1  0
 22 23  1  0
 31 33  1  0
 33 34  1  0
 28 35  2  0
 39 40  1  0
 40 41  2  0
 41 36  1  0
 35 24  1  0
 33 27  1  0
  6  1  1  0
 18  9  1  0
 10  4  1  0
 18 13  2  0
 23 14  1  0
M  END
>  <minimizedAffinity>  (906) 
-16.61901

$$$$
Mol: 166_5 - SminaDock
     RDKit          3D

 40 46  0  0  0  0  0  0  0  0999 V2000
    5.2709   -1.7565  -19.7288 H   0  0  0  0  0  0  0  0  0  0  0  0
    6.0372   -2.0309  -19.1049 O   0  0  0  0  0  0  0  0  0  0  0  0
    6.3035   -1.3686  -17.9216 C   0  0  0  0  0  0  0  0  0  0  0  0
    7.4829   -0.6687  -17.8281 C   0  0  0  0  0  0  0  0  0  0  0  0
    7.8003    0.2859  -16.8699 C   0  0  0  0  0  0  0  0  0  0  0  0
    7.0548    0.8239  -15.8513 C   0  0  0  0  0  0  0  0  0  0  0  0
    7.6132    1.9347  -15.2532 C   0  0  0  0  0  0  0  0  0  0  0  0
    7.0163    2.6159  -14.2133 C   0  0  0  0  0  0  0  0  0  0  0  0
    5.8006    2.1582  -13.7534 C   0  0  0  0  0  0  0  0  0  0  0  0
    5.2595    1.0720  -14.3417 N   0  0  0  0  0  0  0  0  0  0  0  0
    5.8349    0.4041  -15.3543 C   0  0  0  0  0  0  0  0  0  0  0  0
    5.1140   -0.6832  -15.8162 C   0  0  0  0  0  0  0  0  0  0  0  0
    4.1239   -0.9614  -15.0927 O   0  0  0  0  0  0  0  0  0  0  0  0
    5.3299   -1.4873  -16.9409 C   0  0  0  0  0  0  0  0  0  0  0  0
    5.0419    2.7631  -12.6645 C   0  0  0  0  0  0  0  0  0  0  0  0
    5.6365    3.9461  -12.0353 C   0  0  0  0  0  0  0  0  0  0  0  0
    6.9210    4.4258  -12.5238 C   0  0  0  0  0  0  0  0  0  0  0  0
    7.4881    5.5591  -11.9147 C   0  0  0  0  0  0  0  0  0  0  0  0
    8.6998    5.9768  -12.4079 C   0  0  0  0  0  0  0  0  0  0  0  0
    9.3349    5.3618  -13.4131 N   0  0  0  0  0  0  0  0  0  0  0  0
    8.7984    4.2694  -14.0075 C   0  0  0  0  0  0  0  0  0  0  0  0
    7.5842    3.7919  -13.5663 C   0  0  0  0  0  0  0  0  0  0  0  0
    9.2628    7.1412  -11.7686 N   0  0  0  0  0  0  0  0  0  0  0  0
    9.6059    7.0905  -10.5441 C   0  0  0  0  0  0  0  0  0  0  0  0
    9.4532    5.9636   -9.8277 N   0  0  0  0  0  0  0  0  0  0  0  0
    9.8039    5.8817   -8.5447 C   0  0  0  0  0  0  0  0  0  0  0  0
   10.3447    6.9809   -7.9111 C   0  0  0  0  0  0  0  0  0  0  0  0
   10.7278    6.9532   -6.5784 C   0  0  0  0  0  0  0  0  0  0  0  0
   11.2654    8.0584   -5.9629 C   0  0  0  0  0  0  0  0  0  0  0  0
   11.4157    9.2203   -6.7258 C   0  0  0  0  0  0  0  0  0  0  0  0
   11.0372    9.2554   -8.0512 C   0  0  0  0  0  0  0  0  0  0  0  0
   10.4998    8.1462   -8.6620 C   0  0  0  0  0  0  0  0  0  0  0  0
   10.1261    8.1680   -9.9569 N   0  0  0  0  0  0  0  0  0  0  0  0
   10.2385    9.0448  -10.5365 H   0  0  0  0  0  0  0  0  0  0  0  0
   11.6654    8.0165   -4.5602 C   0  0  0  0  0  0  0  0  0  0  0  0
   12.0235    9.2005   -3.9327 C   0  0  0  0  0  0  0  0  0  0  0  0
   12.4016    9.1595   -2.6061 C   0  0  0  0  0  0  0  0  0  0  0  0
   12.4229    7.9694   -1.9201 C   0  0  0  0  0  0  0  0  0  0  0  0
   12.0668    6.8081   -2.5520 C   0  0  0  0  0  0  0  0  0  0  0  0
   11.6873    6.8384   -3.8782 C   0  0  0  0  0  0  0  0  0  0  0  0
  1  2  1  0
  2  3  1  0
  3  4  1  0
  4  5  2  0
  5  6  1  0
  6  7  2  0
  7  8  1  0
  8  9  2  0
  9 10  1  0
 10 11  2  0
 11 12  1  0
 12 13  2  0
 12 14  1  0
  9 15  1  0
 15 16  1  0
 16 17  1  0
 17 18  2  0
 18 19  1  0
 19 23  1  0
 23 24  2  0
 24 25  1  0
 25 26  2  0
 26 27  1  0
 27 28  2  0
 28 29  1  0
 29 35  1  0
 35 36  2  0
 36 37  1  0
 37 38  2  0
 38 39  1  0
 39 40  2  0
 29 30  2  0
 30 31  1  0
 31 32  2  0
 32 33  1  0
 33 34  1  0
 19 20  2  0
 20 21  1  0
 21 22  2  0
 14  3  2  0
 22 17  1  0
 11  6  1  0
 33 24  1  0
 22  8  1  0
 32 27  1  0
 40 35  1  0
M  END
>  <minimizedAffinity>  (907) 
-16.57736

$$$$
Mol: 172_27 - SminaDock
     RDKit          3D

 38 44  0  0  0  0  0  0  0  0999 V2000
    7.4871   -0.5089  -17.2956 C   0  0  0  0  0  0  0  0  0  0  0  0
    6.4645   -0.2342  -16.2921 N   0  0  0  0  0  0  0  0  0  0  0  0
    5.3447   -0.9674  -16.1203 C   0  0  0  0  0  0  0  0  0  0  0  0
    5.0067   -1.9931  -16.7898 O   0  0  0  0  0  0  0  0  0  0  0  0
    4.6048   -0.4231  -15.0845 C   0  0  0  0  0  0  0  0  0  0  0  0
    3.5014   -0.8054  -14.6104 O   0  0  0  0  0  0  0  0  0  0  0  0
    5.2999    0.6798  -14.6102 C   0  0  0  0  0  0  0  0  0  0  0  0
    5.0655    1.6057  -13.6066 C   0  0  0  0  0  0  0  0  0  0  0  0
    5.9479    2.6335  -13.3384 C   0  0  0  0  0  0  0  0  0  0  0  0
    5.9562    3.6706  -12.4147 C   0  0  0  0  0  0  0  0  0  0  0  0
    5.0490    3.8808  -11.5545 O   0  0  0  0  0  0  0  0  0  0  0  0
    7.1048    4.4297  -12.5846 C   0  0  0  0  0  0  0  0  0  0  0  0
    7.6103    5.5452  -11.9587 C   0  0  0  0  0  0  0  0  0  0  0  0
    8.8063    6.0758  -12.3689 C   0  0  0  0  0  0  0  0  0  0  0  0
    9.5160    5.4991  -13.4113 C   0  0  0  0  0  0  0  0  0  0  0  0
    8.9757    4.3806  -14.0139 C   0  0  0  0  0  0  0  0  0  0  0  0
    7.7803    3.8160  -13.6349 C   0  0  0  0  0  0  0  0  0  0  0  0
    7.0917    2.7240  -14.1042 C   0  0  0  0  0  0  0  0  0  0  0  0
    7.3211    1.7918  -15.1099 C   0  0  0  0  0  0  0  0  0  0  0  0
    6.4429    0.7688  -15.3767 C   0  0  0  0  0  0  0  0  0  0  0  0
    9.3806    7.2261  -11.7629 N   0  0  0  0  0  0  0  0  0  0  0  0
    9.7071    7.1566  -10.5133 C   0  0  0  0  0  0  0  0  0  0  0  0
    9.5291    6.0572   -9.7725 N   0  0  0  0  0  0  0  0  0  0  0  0
    9.8668    5.9810   -8.4741 C   0  0  0  0  0  0  0  0  0  0  0  0
   10.4258    7.0815   -7.8589 C   0  0  0  0  0  0  0  0  0  0  0  0
   10.7780    7.0210   -6.5280 C   0  0  0  0  0  0  0  0  0  0  0  0
   11.3365    8.1261   -5.9206 C   0  0  0  0  0  0  0  0  0  0  0  0
   11.5193    9.2533   -6.6793 C   0  0  0  0  0  0  0  0  0  0  0  0
   11.1637    9.3104   -8.0176 C   0  0  0  0  0  0  0  0  0  0  0  0
   10.6086    8.2162   -8.6265 C   0  0  0  0  0  0  0  0  0  0  0  0
   10.2520    8.2346   -9.9201 N   0  0  0  0  0  0  0  0  0  0  0  0
   10.4208    9.1368  -10.4470 H   0  0  0  0  0  0  0  0  0  0  0  0
   11.7068    8.0527   -4.5091 C   0  0  0  0  0  0  0  0  0  0  0  0
   12.0873    9.1935   -3.8480 C   0  0  0  0  0  0  0  0  0  0  0  0
   12.4374    9.1062   -2.5020 C   0  0  0  0  0  0  0  0  0  0  0  0
   12.4125    7.9176   -1.8220 C   0  0  0  0  0  0  0  0  0  0  0  0
   12.0271    6.7637   -2.4929 C   0  0  0  0  0  0  0  0  0  0  0  0
   11.6836    6.8753   -3.8304 C   0  0  0  0  0  0  0  0  0  0  0  0
  1  2  1  0
  2  3  1  0
  3  4  2  0
  3  5  1  0
  5  6  2  0
  5  7  1  0
  7  8  2  0
  8  9  1  0
  9 10  1  0
 10 11  2  0
 10 12  1  0
 12 13  2  0
 13 14  1  0
 14 21  1  0
 21 22  2  0
 22 23  1  0
 23 24  2  0
 24 25  1  0
 25 26  2  0
 26 27  1  0
 27 33  1  0
 33 34  2  0
 34 35  1  0
 35 36  2  0
 36 37  1  0
 37 38  2  0
 27 28  2  0
 28 29  1  0
 29 30  2  0
 30 31  1  0
 14 15  2  0
 15 16  1  0
 16 17  2  0
 17 18  1  0
 18 19  1  0
 19 20  2  0
 20  2  1  0
 20  7  1  0
 18  9  2  0
 17 12  1  0
 31 22  1  0
 30 25  1  0
 38 33  1  0
 31 32  1  0
M  END
>  <minimizedAffinity>  (908) 
-16.60484

$$$$
Mol: 191_61 - SminaDock
     RDKit          3D

 43 50  0  0  0  0  0  0  0  0999 V2000
   11.8416    2.5413  -18.3714 H   0  0  0  0  0  0  0  0  0  0  0  0
   10.9817    3.0319  -18.0516 N   0  0  0  0  0  0  0  0  0  0  0  0
   10.6175    2.9696  -16.7954 C   0  0  0  0  0  0  0  0  0  0  0  0
   11.2949    2.2823  -15.7994 O   0  0  0  0  0  0  0  0  0  0  0  0
   10.5606    2.3828  -14.5924 C   0  0  0  0  0  0  0  0  0  0  0  0
    9.2141    2.9413  -15.0016 C   0  0  2  0  0  0  0  0  0  0  0  0
    8.6375    3.8292  -13.9968 C   0  0  0  0  0  0  0  0  0  0  0  0
    9.2164    4.9891  -13.4653 C   0  0  0  0  0  0  0  0  0  0  0  0
    8.5497    5.7318  -12.5181 C   0  0  0  0  0  0  0  0  0  0  0  0
    7.3028    5.2804  -12.1276 C   0  0  0  0  0  0  0  0  0  0  0  0
    6.7398    4.1277  -12.6629 C   0  0  0  0  0  0  0  0  0  0  0  0
    7.3912    3.3784  -13.6058 C   0  0  0  0  0  0  0  0  0  0  0  0
    7.1262    2.1563  -14.3644 C   0  0  0  0  0  0  0  0  0  0  0  0
    8.2046    1.8930  -15.1911 C   0  0  0  0  0  0  0  0  0  0  0  0
    8.2080    0.7745  -16.0256 C   0  0  0  0  0  0  0  0  0  0  0  0
    7.1380   -0.0696  -16.0285 C   0  0  0  0  0  0  0  0  0  0  0  0
    6.0461    0.1564  -15.2217 C   0  0  0  0  0  0  0  0  0  0  0  0
    4.9779   -0.7219  -15.2510 C   0  0  0  0  0  0  0  0  0  0  0  0
    3.9184   -0.4479  -14.4276 C   0  0  0  0  0  0  0  0  0  0  0  0
    3.9292    0.6202  -13.6392 N   0  0  0  0  0  0  0  0  0  0  0  0
    4.9682    1.5112  -13.5832 C   0  0  0  0  0  0  0  0  0  0  0  0
    6.0501    1.2808  -14.3870 C   0  0  0  0  0  0  0  0  0  0  0  0
    9.4681    3.6009  -16.2662 N   0  0  1  0  0  0  0  0  0  0  0  0
    9.6991    4.6062  -16.1273 H   0  0  0  0  0  0  0  0  0  0  0  0
    8.6185    3.4718  -16.8596 H   0  0  0  0  0  0  0  0  0  0  0  0
    9.0946    6.9136  -11.9486 N   0  0  0  0  0  0  0  0  0  0  0  0
    9.4750    6.8996  -10.7344 C   0  0  0  0  0  0  0  0  0  0  0  0
    9.3621    5.7843  -10.0045 N   0  0  0  0  0  0  0  0  0  0  0  0
    9.7504    5.7417   -8.7413 C   0  0  0  0  0  0  0  0  0  0  0  0
   10.2810    6.8716   -8.1706 C   0  0  0  0  0  0  0  0  0  0  0  0
   10.6952    6.8625   -6.8605 C   0  0  0  0  0  0  0  0  0  0  0  0
   11.2309    7.9685   -6.2524 C   0  0  0  0  0  0  0  0  0  0  0  0
   11.3528    9.1246   -6.9932 C   0  0  0  0  0  0  0  0  0  0  0  0
   10.9422    9.1708   -8.3281 C   0  0  0  0  0  0  0  0  0  0  0  0
   10.4082    8.0461   -8.9127 C   0  0  0  0  0  0  0  0  0  0  0  0
    9.9910    8.0101  -10.1906 N   0  0  0  0  0  0  0  0  0  0  0  0
   10.0963    8.9139  -10.7398 H   0  0  0  0  0  0  0  0  0  0  0  0
   11.6680    7.9453   -4.8601 C   0  0  0  0  0  0  0  0  0  0  0  0
   12.3767    8.9849   -4.3429 C   0  0  0  0  0  0  0  0  0  0  0  0
   12.7735    8.9287   -3.0235 C   0  0  0  0  0  0  0  0  0  0  0  0
   12.4600    7.8356   -2.2299 C   0  0  0  0  0  0  0  0  0  0  0  0
   11.7384    6.7955   -2.7865 C   0  0  0  0  0  0  0  0  0  0  0  0
   11.3463    6.8581   -4.1019 C   0  0  0  0  0  0  0  0  0  0  0  0
  1  2  1  0
  2  3  2  0
  3  4  1  0
  4  5  1  0
  6  5  1  1
  6  7  1  0
  7  8  2  0
  8  9  1  0
  9 26  1  0
 26 27  2  0
 27 28  1  0
 28 29  2  0
 29 30  1  0
 30 31  2  0
 31 32  1  0
 32 38  1  0
 38 39  2  0
 39 40  1  0
 40 41  2  0
 41 42  1  0
 42 43  2  0
 32 33  2  0
 33 34  1  0
 34 35  2  0
 35 36  1  0
 36 37  1  0
  9 10  2  0
 10 11  1  0
 11 12  2  0
 12 13  1  0
 13 14  2  0
 14 15  1  0
 15 16  2  0
 16 17  1  0
 17 18  2  0
 18 19  1  0
 19 20  2  0
 20 21  1  0
 21 22  2  0
  6 23  1  0
 23 24  1  1
 23 25  1  0
 23  3  1  0
 14  6  1  0
 22 17  1  0
 12  7  1  0
 22 13  1  0
 36 27  1  0
 35 30  1  0
 43 38  1  0
M  CHG  1  23   1
M  END
>  <minimizedAffinity>  (909) 
-16.59621

$$$$
Mol: 171_56 - SminaDock
     RDKit          3D

 38 44  0  0  0  0  0  0  0  0999 V2000
    8.9088    5.8413  -12.4674 C   0  0  0  0  0  0  0  0  0  0  0  0
    9.6707    5.0867  -13.3383 C   0  0  0  0  0  0  0  0  0  0  0  0
    9.0826    3.9364  -13.8505 C   0  0  0  0  0  0  0  0  0  0  0  0
    7.7975    3.5543  -13.5128 C   0  0  0  0  0  0  0  0  0  0  0  0
    7.0575    4.3198  -12.6448 C   0  0  0  0  0  0  0  0  0  0  0  0
    7.6200    5.4681  -12.1220 C   0  0  0  0  0  0  0  0  0  0  0  0
    5.7055    3.9081  -12.2965 C   0  0  0  0  0  0  0  0  0  0  0  0
    5.0774    4.6586  -11.4923 O   0  0  0  0  0  0  0  0  0  0  0  0
    5.0627    2.6917  -12.8272 C   0  0  0  0  0  0  0  0  0  0  0  0
    5.9279    1.9680  -13.7258 N   0  0  0  0  0  0  0  0  0  0  0  0
    7.1734    2.3453  -14.0484 C   0  0  0  0  0  0  0  0  0  0  0  0
    7.6720    1.4415  -14.8989 N   0  0  0  0  0  0  0  0  0  0  0  0
    6.7495    0.4854  -15.1230 C   0  0  0  0  0  0  0  0  0  0  0  0
    5.6459    0.8192  -14.3802 C   0  0  0  0  0  0  0  0  0  0  0  0
    4.5149   -0.0018  -14.4147 C   0  0  0  0  0  0  0  0  0  0  0  0
    4.5155   -1.1398  -15.1935 C   0  0  0  0  0  0  0  0  0  0  0  0
    5.6716   -1.4000  -15.9104 C   0  0  0  0  0  0  0  0  0  0  0  0
    5.7157   -2.4312  -16.6366 O   0  0  0  0  0  0  0  0  0  0  0  0
    6.7525   -0.6238  -15.8833 N   0  0  0  0  0  0  0  0  0  0  0  0
    7.6137   -0.8692  -16.4526 H   0  0  0  0  0  0  0  0  0  0  0  0
   11.2744    8.0772   -5.9700 C   0  0  0  0  0  0  0  0  0  0  0  0
   11.3915    9.2278   -6.7218 C   0  0  0  0  0  0  0  0  0  0  0  0
   11.0361    9.2384   -8.0565 C   0  0  0  0  0  0  0  0  0  0  0  0
   10.5526    8.1083   -8.6901 C   0  0  0  0  0  0  0  0  0  0  0  0
   10.4346    6.9553   -7.9391 C   0  0  0  0  0  0  0  0  0  0  0  0
    9.9505    5.8475   -8.5976 C   0  0  0  0  0  0  0  0  0  0  0  0
    9.6060    5.8625   -9.8955 N   0  0  0  0  0  0  0  0  0  0  0  0
    9.7246    6.9910  -10.6192 C   0  0  0  0  0  0  0  0  0  0  0  0
    9.3993    7.0383  -11.8782 N   0  0  0  0  0  0  0  0  0  0  0  0
   10.2018    8.1014   -9.9890 N   0  0  0  0  0  0  0  0  0  0  0  0
   10.2986    8.9710  -10.5266 H   0  0  0  0  0  0  0  0  0  0  0  0
   10.7917    6.9525   -6.6060 C   0  0  0  0  0  0  0  0  0  0  0  0
   12.3516    7.9861   -1.8706 C   0  0  0  0  0  0  0  0  0  0  0  0
   11.9868    6.8099   -2.4910 C   0  0  0  0  0  0  0  0  0  0  0  0
   11.6459    6.8881   -3.8207 C   0  0  0  0  0  0  0  0  0  0  0  0
   11.6531    8.0598   -4.5390 C   0  0  0  0  0  0  0  0  0  0  0  0
   12.0167    9.2180   -3.9113 C   0  0  0  0  0  0  0  0  0  0  0  0
   12.3644    9.1781   -2.5811 C   0  0  0  0  0  0  0  0  0  0  0  0
 33 34  2  0
 34 35  1  0
 35 36  2  0
 36 21  1  0
 21 22  2  0
 22 23  1  0
 23 24  2  0
 24 25  1  0
 25 26  1  0
 26 27  2  0
 27 28  1  0
 28 29  2  0
 29  1  1  0
  1  2  2  0
  2  3  1  0
  3  4  2  0
  4  5  1  0
  5  6  2  0
  5  7  1  0
  7  8  2  0
  7  9  1  0
  9 10  1  0
 10 11  1  0
 11 12  2  0
 12 13  1  0
 13 14  2  0
 14 15  1  0
 15 16  2  0
 16 17  1  0
 17 18  2  0
 17 19  1  0
 19 20  1  0
 28 30  1  0
 30 31  1  0
 25 32  2  0
 36 37  1  0
 37 38  2  0
 38 33  1  0
 32 21  1  0
 30 24  1  0
  6  1  1  0
 14 10  1  0
 11  4  1  0
 19 13  1  0
M  END
>  <minimizedAffinity>  (910) 
-16.55015

$$$$
Mol: 102_37 - SminaDock
     RDKit          3D

 38 44  0  0  0  0  0  0  0  0999 V2000
    8.1615    5.2391  -12.6666 C   0  0  0  0  0  0  0  0  0  0  0  0
    6.9188    4.9007  -12.1687 C   0  0  0  0  0  0  0  0  0  0  0  0
    6.2465    3.7819  -12.5624 C   0  0  0  0  0  0  0  0  0  0  0  0
    6.8370    2.9417  -13.5086 C   0  0  0  0  0  0  0  0  0  0  0  0
    8.0667    3.2756  -13.9968 C   0  0  0  0  0  0  0  0  0  0  0  0
    8.7445    4.4089  -13.5982 C   0  0  0  0  0  0  0  0  0  0  0  0
    8.7549    2.3385  -14.9078 C   0  0  0  0  0  0  0  0  0  0  0  0
    9.9360    2.6999  -15.5001 C   0  0  0  0  0  0  0  0  0  0  0  0
   10.4856    1.8122  -16.4393 C   0  0  0  0  0  0  0  0  0  0  0  0
    9.8873    0.6392  -16.7620 C   0  0  0  0  0  0  0  0  0  0  0  0
    8.6819    0.3094  -16.1304 C   0  0  0  0  0  0  0  0  0  0  0  0
    8.1310    1.1632  -15.2090 C   0  0  0  0  0  0  0  0  0  0  0  0
    6.9082    0.6868  -14.5137 C   0  0  0  0  0  0  0  0  0  0  0  0
    6.0785    1.7911  -14.0252 C   0  0  0  0  0  0  0  0  0  0  0  0
   10.3807   -0.3425  -17.7374 C   0  0  0  0  0  0  0  0  0  0  0  0
   11.6551    0.0407  -18.3414 C   0  0  0  0  0  0  0  0  0  0  0  0
   12.2193   -0.7661  -19.2023 O   0  0  0  0  0  0  0  0  0  0  0  0
   12.2999    1.2505  -18.0296 N   0  0  0  0  0  0  0  0  0  0  0  0
   11.7525    2.1494  -17.0955 C   0  0  0  0  0  0  0  0  0  0  0  0
   12.2982    3.2437  -16.7869 O   0  0  0  0  0  0  0  0  0  0  0  0
   11.2033    7.9142   -6.6049 C   0  0  0  0  0  0  0  0  0  0  0  0
   11.3818    8.9535   -7.4894 C   0  0  0  0  0  0  0  0  0  0  0  0
   10.9243    8.8136   -8.7796 C   0  0  0  0  0  0  0  0  0  0  0  0
   10.2841    7.6625   -9.2377 C   0  0  0  0  0  0  0  0  0  0  0  0
   10.1130    6.6312   -8.3396 C   0  0  0  0  0  0  0  0  0  0  0  0
   10.5720    6.7752   -7.0507 C   0  0  0  0  0  0  0  0  0  0  0  0
    9.4799    5.4985   -8.7975 C   0  0  0  0  0  0  0  0  0  0  0  0
    9.0379    5.4186  -10.1193 C   0  0  0  0  0  0  0  0  0  0  0  0
    9.2232    6.4677  -10.9952 C   0  0  0  0  0  0  0  0  0  0  0  0
    8.8199    6.4263  -12.2261 N   0  0  0  0  0  0  0  0  0  0  0  0
    9.8507    7.5658  -10.5074 N   0  0  0  0  0  0  0  0  0  0  0  0
    9.9919    8.3615  -11.1725 H   0  0  0  0  0  0  0  0  0  0  0  0
   12.4571    7.9506   -2.5610 C   0  0  0  0  0  0  0  0  0  0  0  0
   12.7487    9.0415   -3.3580 C   0  0  0  0  0  0  0  0  0  0  0  0
   12.3375    9.0246   -4.6754 C   0  0  0  0  0  0  0  0  0  0  0  0
   11.6488    7.9628   -5.2245 C   0  0  0  0  0  0  0  0  0  0  0  0
   11.3810    6.8900   -4.3783 C   0  0  0  0  0  0  0  0  0  0  0  0
   11.7613    6.8469   -3.0656 C   0  0  0  0  0  0  0  0  0  0  0  0
 33 34  2  0
 34 35  1  0
 35 36  2  0
 36 21  1  0
 21 22  2  0
 22 23  1  0
 23 24  2  0
 24 25  1  0
 25 26  2  0
 25 27  1  0
 27 28  2  0
 28 29  1  0
 29 30  2  0
 30  1  1  0
  1  2  2  0
  2  3  1  0
  3  4  2  0
  4  5  1  0
  5  6  2  0
  5  7  1  0
  7  8  2  0
  8  9  1  0
  9 10  2  0
 10 11  1  0
 11 12  2  0
 12 13  1  0
 13 14  1  0
 10 15  1  0
 15 16  1  0
 16 17  2  0
 16 18  1  0
 18 19  1  0
 19 20  2  0
 29 31  1  0
 31 32  1  0
 36 37  1  0
 37 38  2  0
 38 33  1  0
 26 21  1  0
  6  1  1  0
 12  7  1  0
 31 24  1  0
 14  4  1  0
 19  9  1  0
M  CHG  1  18  -1
M  END
>  <minimizedAffinity>  (911) 
-16.62197

$$$$
Mol: 145_11 - SminaDock
     RDKit          3D

 39 45  0  0  0  0  0  0  0  0999 V2000
    8.8207    5.9758  -12.2822 C   0  0  0  0  0  0  0  0  0  0  0  0
    7.6450    5.4442  -11.8320 C   0  0  0  0  0  0  0  0  0  0  0  0
    7.0698    4.3092  -12.4133 C   0  0  0  0  0  0  0  0  0  0  0  0
    7.6982    3.7081  -13.4653 C   0  0  0  0  0  0  0  0  0  0  0  0
    8.8955    4.2554  -13.9188 C   0  0  0  0  0  0  0  0  0  0  0  0
    9.4674    5.3849  -13.3398 C   0  0  0  0  0  0  0  0  0  0  0  0
    9.5193    3.6406  -14.9800 O   0  0  0  0  0  0  0  0  0  0  0  0
    9.1172    2.5075  -15.6657 C   0  0  0  0  0  0  0  0  0  0  0  0
    7.8197    1.9564  -15.1438 C   0  0  0  0  0  0  0  0  0  0  0  0
    7.1272    2.5079  -14.0977 C   0  0  0  0  0  0  0  0  0  0  0  0
    5.9353    1.9705  -13.6412 C   0  0  0  0  0  0  0  0  0  0  0  0
    5.4294    0.8314  -14.2711 C   0  0  0  0  0  0  0  0  0  0  0  0
    4.3056    0.2783  -13.8822 O   0  0  0  0  0  0  0  0  0  0  0  0
    3.7772   -0.7779  -14.4189 C   0  0  0  0  0  0  0  0  0  0  0  0
    2.6945   -1.2985  -14.0330 O   0  0  0  0  0  0  0  0  0  0  0  0
    4.4107   -1.3819  -15.4656 N   0  0  0  0  0  0  0  0  0  0  0  0
    4.0256   -2.2336  -15.9303 H   0  0  0  0  0  0  0  0  0  0  0  0
    5.5776   -0.8491  -15.9070 C   0  0  0  0  0  0  0  0  0  0  0  0
    6.1954   -1.3726  -16.8683 O   0  0  0  0  0  0  0  0  0  0  0  0
    6.1243    0.2745  -15.3241 C   0  0  0  0  0  0  0  0  0  0  0  0
    7.3085    0.8325  -15.7556 C   0  0  0  0  0  0  0  0  0  0  0  0
   11.3084    8.0422   -5.8138 C   0  0  0  0  0  0  0  0  0  0  0  0
   11.4378    9.1919   -6.5664 C   0  0  0  0  0  0  0  0  0  0  0  0
   11.0781    9.2636   -7.8957 C   0  0  0  0  0  0  0  0  0  0  0  0
   10.5620    8.1448   -8.5238 C   0  0  0  0  0  0  0  0  0  0  0  0
   10.4267    6.9843   -7.7804 C   0  0  0  0  0  0  0  0  0  0  0  0
    9.9154    5.8481   -8.3688 C   0  0  0  0  0  0  0  0  0  0  0  0
    9.5703    5.9361   -9.6590 N   0  0  0  0  0  0  0  0  0  0  0  0
    9.6874    7.0309  -10.3958 C   0  0  0  0  0  0  0  0  0  0  0  0
    9.3623    7.1462  -11.6355 N   0  0  0  0  0  0  0  0  0  0  0  0
   10.1917    8.1483   -9.8131 N   0  0  0  0  0  0  0  0  0  0  0  0
   10.3075    9.0444  -10.3474 H   0  0  0  0  0  0  0  0  0  0  0  0
   10.7949    6.9327   -6.4428 C   0  0  0  0  0  0  0  0  0  0  0  0
   12.4819    8.0362   -1.7272 C   0  0  0  0  0  0  0  0  0  0  0  0
   12.4529    9.2136   -2.4408 C   0  0  0  0  0  0  0  0  0  0  0  0
   12.0675    9.2231   -3.7858 C   0  0  0  0  0  0  0  0  0  0  0  0
   11.7139    8.0582   -4.4100 C   0  0  0  0  0  0  0  0  0  0  0  0
   11.7539    6.8980   -3.6670 C   0  0  0  0  0  0  0  0  0  0  0  0
   12.1308    6.8722   -2.3428 C   0  0  0  0  0  0  0  0  0  0  0  0
 34 35  2  0
 35 36  1  0
 36 37  2  0
 37 22  1  0
 22 23  2  0
 23 24  1  0
 24 25  2  0
 25 26  1  0
 26 27  1  0
 27 28  2  0
 28 29  1  0
 29 30  2  0
 30  1  1  0
  1  2  2  0
  2  3  1  0
  3  4  2  0
  4  5  1  0
  5  6  2  0
  5  7  1  0
  7  8  1  0
  8  9  1  0
  9 10  2  0
 10 11  1  0
 11 12  2  0
 12 13  1  0
 13 14  1  0
 14 15  2  0
 14 16  1  0
 16 17  1  0
 16 18  1  0
 18 19  2  0
 18 20  1  0
 20 21  2  0
 29 31  1  0
 31 32  1  0
 26 33  2  0
 37 38  1  0
 38 39  2  0
 39 34  1  0
 33 22  1  0
 31 25  1  0
  6  1  1  0
 21  9  1  0
 10  4  1  0
 20 12  1  0
M  END
>  <minimizedAffinity>  (912) 
-16.64393

$$$$
Mol: 145_3 - SminaDock
     RDKit          3D

 41 48  0  0  0  0  0  0  0  0999 V2000
    9.0342    6.4045  -12.3738 C   0  0  0  0  0  0  0  0  0  0  0  0
    7.9535    5.6549  -11.9660 C   0  0  0  0  0  0  0  0  0  0  0  0
    7.5762    4.5038  -12.6667 C   0  0  0  0  0  0  0  0  0  0  0  0
    8.3090    4.1515  -13.7618 C   0  0  0  0  0  0  0  0  0  0  0  0
    9.4032    4.8851  -14.1944 C   0  0  0  0  0  0  0  0  0  0  0  0
    9.7536    6.0232  -13.4783 C   0  0  0  0  0  0  0  0  0  0  0  0
   10.3464    4.6535  -15.3122 C   0  0  0  0  0  0  0  0  0  0  0  0
   10.7191    3.1564  -15.3473 C   0  0  0  0  0  0  0  0  0  0  0  0
    9.6572    2.4365  -16.0887 C   0  0  2  0  0  0  0  0  0  0  0  0
    8.4666    2.1344  -15.3029 C   0  0  0  0  0  0  0  0  0  0  0  0
    7.9979    0.9343  -15.7363 C   0  0  0  0  0  0  0  0  0  0  0  0
    6.7800    0.5218  -15.2084 C   0  0  0  0  0  0  0  0  0  0  0  0
    6.0947    1.2907  -14.2961 C   0  0  0  0  0  0  0  0  0  0  0  0
    6.5942    2.5337  -13.8488 C   0  0  0  0  0  0  0  0  0  0  0  0
    7.7832    2.9297  -14.3638 C   0  0  0  0  0  0  0  0  0  0  0  0
    8.9791    0.3034  -16.6379 C   0  0  0  0  0  0  0  0  0  0  0  0
    9.0253   -0.8996  -17.2284 N   0  0  0  0  0  0  0  0  0  0  0  0
   10.1033   -1.2657  -17.9058 N   0  0  0  0  0  0  0  0  0  0  0  0
   10.1498   -2.2055  -18.3721 H   0  0  0  0  0  0  0  0  0  0  0  0
   11.1792   -0.4486  -18.0227 C   0  0  0  0  0  0  0  0  0  0  0  0
   12.1778   -0.8762  -18.6894 O   0  0  0  0  0  0  0  0  0  0  0  0
   11.1928    0.7949  -17.4438 C   0  0  0  0  0  0  0  0  0  0  0  0
   10.0562    1.1964  -16.7253 C   0  0  0  0  0  0  0  0  0  0  0  0
   11.3028    8.1636   -5.7738 C   0  0  0  0  0  0  0  0  0  0  0  0
   11.3303    9.3874   -6.4039 C   0  0  0  0  0  0  0  0  0  0  0  0
   10.9683    9.5569   -7.7230 C   0  0  0  0  0  0  0  0  0  0  0  0
   10.5523    8.4624   -8.4777 C   0  0  0  0  0  0  0  0  0  0  0  0
   10.5307    7.2425   -7.8297 C   0  0  0  0  0  0  0  0  0  0  0  0
   10.1203    6.1569   -8.5705 C   0  0  0  0  0  0  0  0  0  0  0  0
    9.7748    6.3310   -9.8367 N   0  0  0  0  0  0  0  0  0  0  0  0
    9.7996    7.5174  -10.4543 C   0  0  0  0  0  0  0  0  0  0  0  0
    9.4437    7.5773  -11.6878 N   0  0  0  0  0  0  0  0  0  0  0  0
   10.1941    8.5951   -9.7624 N   0  0  0  0  0  0  0  0  0  0  0  0
   10.2143    9.5118  -10.2356 H   0  0  0  0  0  0  0  0  0  0  0  0
   10.8969    7.0835   -6.5024 C   0  0  0  0  0  0  0  0  0  0  0  0
   12.4477    7.8600   -1.7335 C   0  0  0  0  0  0  0  0  0  0  0  0
   12.4177    9.1020   -2.3148 C   0  0  0  0  0  0  0  0  0  0  0  0
   12.0344    9.1813   -3.6591 C   0  0  0  0  0  0  0  0  0  0  0  0
   11.7002    8.0482   -4.3673 C   0  0  0  0  0  0  0  0  0  0  0  0
   11.7456    6.8058   -3.7326 C   0  0  0  0  0  0  0  0  0  0  0  0
   12.1190    6.7111   -2.4168 C   0  0  0  0  0  0  0  0  0  0  0  0
 36 37  2  0
 37 38  1  0
 38 39  2  0
 39 24  1  0
 24 25  2  0
 25 26  1  0
 26 27  2  0
 27 28  1  0
 28 29  1  0
 29 30  2  0
 30 31  1  0
 31 32  2  0
 32  1  1  0
  1  2  2  0
  2  3  1  0
  3  4  2  0
  4  5  1  0
  5  6  2  0
  5  7  1  0
  7  8  1  0
  9  8  1  1
  9 10  1  0
 10 11  2  0
 11 12  1  0
 12 13  2  0
 13 14  1  0
 14 15  2  0
 11 16  1  0
 16 17  2  0
 17 18  1  0
 18 19  1  0
 18 20  1  0
 20 21  2  0
 20 22  1  0
 22 23  2  0
 31 33  1  0
 33 34  1  0
 28 35  2  0
 39 40  1  0
 40 41  2  0
 41 36  1  0
 35 24  1  0
 33 27  1  0
  6  1  1  0
 23  9  1  0
 15  4  1  0
 23 16  1  0
 15 10  1  0
M  END
>  <minimizedAffinity>  (913) 
-16.63968

$$$$
Mol: 193_23 - SminaDock
     RDKit          3D

 43 50  0  0  0  0  0  0  0  0999 V2000
    2.1160   -0.5678  -13.1862 H   0  0  0  0  0  0  0  0  0  0  0  0
    2.6432   -0.9982  -13.9700 N   0  0  0  0  0  0  0  0  0  0  0  0
    3.7702   -0.4935  -14.3433 C   0  0  0  0  0  0  0  0  0  0  0  0
    4.4835   -1.0661  -15.3947 C   0  0  0  0  0  0  0  0  0  0  0  0
    5.6917   -0.5331  -15.8009 C   0  0  0  0  0  0  0  0  0  0  0  0
    6.1923    0.5859  -15.1477 C   0  0  0  0  0  0  0  0  0  0  0  0
    7.3910    1.1371  -15.5297 C   0  0  0  0  0  0  0  0  0  0  0  0
    7.8580    2.2691  -14.8383 C   0  0  0  0  0  0  0  0  0  0  0  0
    7.1532    2.8265  -13.8071 C   0  0  0  0  0  0  0  0  0  0  0  0
    5.9612    2.2766  -13.4293 N   0  0  0  0  0  0  0  0  0  0  0  0
    5.4446    2.7237  -12.6381 H   0  0  0  0  0  0  0  0  0  0  0  0
    5.4542    1.1974  -14.0423 C   0  0  0  0  0  0  0  0  0  0  0  0
    4.2560    0.6167  -13.6870 C   0  0  0  0  0  0  0  0  0  0  0  0
    7.8476    3.9957  -13.2559 C   0  0  0  0  0  0  0  0  0  0  0  0
    7.5672    4.8821  -12.2422 C   0  0  0  0  0  0  0  0  0  0  0  0
    8.4058    5.9197  -11.9216 C   0  0  0  0  0  0  0  0  0  0  0  0
    9.5604    6.0309  -12.6775 C   0  0  0  0  0  0  0  0  0  0  0  0
    9.8662    5.1645  -13.6918 C   0  0  0  0  0  0  0  0  0  0  0  0
    8.9934    4.1207  -13.9923 C   0  0  0  0  0  0  0  0  0  0  0  0
    9.0925    3.0577  -15.0262 C   0  0  2  0  0  0  0  0  0  0  0  0
    9.1545    3.6890  -16.4016 C   0  0  0  0  0  0  0  0  0  0  0  0
    9.9215    2.8902  -17.4023 C   0  0  0  0  0  0  0  0  0  0  0  0
   11.1466    2.4821  -16.8729 O   0  0  0  0  0  0  0  0  0  0  0  0
   10.9422    1.5691  -15.8620 C   0  0  0  0  0  0  0  0  0  0  0  0
   10.3137    2.2451  -14.6936 C   0  0  0  0  0  0  0  0  0  0  0  0
   10.5057    7.0754  -12.4265 N   0  0  0  0  0  0  0  0  0  0  0  0
   10.7957    7.3469  -11.1968 C   0  0  0  0  0  0  0  0  0  0  0  0
   11.6880    8.3306  -10.9116 N   0  0  0  0  0  0  0  0  0  0  0  0
   12.0061    8.6313   -9.6433 C   0  0  0  0  0  0  0  0  0  0  0  0
   11.4357    7.9489   -8.5852 C   0  0  0  0  0  0  0  0  0  0  0  0
   11.7455    8.2366   -7.2679 C   0  0  0  0  0  0  0  0  0  0  0  0
   11.1731    7.5494   -6.1985 C   0  0  0  0  0  0  0  0  0  0  0  0
   10.2742    6.5592   -6.5141 C   0  0  0  0  0  0  0  0  0  0  0  0
    9.9534    6.2596   -7.8206 C   0  0  0  0  0  0  0  0  0  0  0  0
   10.5351    6.9560   -8.8692 C   0  0  0  0  0  0  0  0  0  0  0  0
   10.2518    6.6949  -10.1520 N   0  0  0  0  0  0  0  0  0  0  0  0
    9.5604    5.9326  -10.3248 H   0  0  0  0  0  0  0  0  0  0  0  0
   11.5076    7.8610   -4.8305 C   0  0  0  0  0  0  0  0  0  0  0  0
   11.6931    9.1401   -4.3430 C   0  0  0  0  0  0  0  0  0  0  0  0
   12.0131    9.3992   -3.0190 C   0  0  0  0  0  0  0  0  0  0  0  0
   12.1560    8.3369   -2.1346 C   0  0  0  0  0  0  0  0  0  0  0  0
   11.9738    7.0597   -2.6088 C   0  0  0  0  0  0  0  0  0  0  0  0
   11.6565    6.8222   -3.9264 C   0  0  0  0  0  0  0  0  0  0  0  0
  1  2  1  0
  2  3  2  0
  3  4  1  0
  4  5  2  0
  5  6  1  0
  6  7  2  0
  7  8  1  0
  8  9  2  0
  9 10  1  0
 10 11  1  0
 10 12  1  0
 12 13  2  0
  9 14  1  0
 14 15  2  0
 15 16  1  0
 16 17  2  0
 17 26  1  0
 26 27  2  0
 27 28  1  0
 28 29  2  0
 29 30  1  0
 30 31  2  0
 31 32  1  0
 32 38  1  0
 38 39  2  0
 39 40  1  0
 40 41  2  0
 41 42  1  0
 42 43  2  0
 32 33  2  0
 33 34  1  0
 34 35  2  0
 35 36  1  0
 36 37  1  0
 17 18  1  0
 18 19  2  0
 19 20  1  0
 20 21  1  6
 21 22  1  0
 22 23  1  0
 23 24  1  0
 24 25  1  0
 13  3  1  0
 19 14  1  0
 25 20  1  0
 12  6  1  0
 36 27  1  0
 20  8  1  0
 35 30  1  0
 43 38  1  0
M  END
>  <minimizedAffinity>  (914) 
-16.63592

$$$$
Mol: 193_7 - SminaDock
     RDKit          3D

 35 41  0  0  0  0  0  0  0  0999 V2000
   11.2514    7.9824   -6.0089 C   0  0  0  0  0  0  0  0  0  0  0  0
   11.4754    9.0918   -6.8222 C   0  0  0  0  0  0  0  0  0  0  0  0
   11.1154    9.0764   -8.1528 C   0  0  0  0  0  0  0  0  0  0  0  0
   10.5165    7.9570   -8.7342 C   0  0  0  0  0  0  0  0  0  0  0  0
   10.3015    6.8643   -7.9118 C   0  0  0  0  0  0  0  0  0  0  0  0
    9.7078    5.7660   -8.5002 C   0  0  0  0  0  0  0  0  0  0  0  0
    9.3859    5.8229   -9.7911 N   0  0  0  0  0  0  0  0  0  0  0  0
    9.6061    6.8962  -10.5650 C   0  0  0  0  0  0  0  0  0  0  0  0
    9.2587    6.8713  -11.8218 N   0  0  0  0  0  0  0  0  0  0  0  0
   10.1827    7.9883  -10.0314 N   0  0  0  0  0  0  0  0  0  0  0  0
   10.3554    8.8169  -10.6189 H   0  0  0  0  0  0  0  0  0  0  0  0
   10.6604    6.8767   -6.5811 C   0  0  0  0  0  0  0  0  0  0  0  0
    8.6550    5.6874  -12.3114 C   0  0  0  0  0  0  0  0  0  0  0  0
    9.4476    4.8440  -13.0551 C   0  0  0  0  0  0  0  0  0  0  0  0
    8.9558    3.6526  -13.5845 C   0  0  0  0  0  0  0  0  0  0  0  0
    7.6448    3.3349  -13.3445 C   0  0  0  0  0  0  0  0  0  0  0  0
    6.8510    4.1810  -12.5990 C   0  0  0  0  0  0  0  0  0  0  0  0
    7.3398    5.3792  -12.0644 C   0  0  0  0  0  0  0  0  0  0  0  0
    5.4426    3.8788  -12.3219 C   0  0  0  0  0  0  0  0  0  0  0  0
    4.9141    2.6284  -12.8545 C   0  0  0  0  0  0  0  0  0  0  0  0
    5.7908    1.7726  -13.6408 C   0  0  0  0  0  0  0  0  0  0  0  0
    7.0990    2.0831  -13.8880 C   0  0  0  0  0  0  0  0  0  0  0  0
    7.8809    1.2257  -14.6409 C   0  0  0  0  0  0  0  0  0  0  0  0
    7.3409    0.0602  -15.1408 C   0  0  0  0  0  0  0  0  0  0  0  0
    6.0105   -0.2545  -14.8891 C   0  0  0  0  0  0  0  0  0  0  0  0
    5.2294   -1.2744  -15.2258 O   0  0  0  0  0  0  0  0  0  0  0  0
    4.0336   -1.1185  -14.7450 N   0  0  0  0  0  0  0  0  0  0  0  0
    3.9563    0.0299  -14.0532 C   0  0  0  0  0  0  0  0  0  0  0  0
    5.2175    0.5801  -14.1456 C   0  0  0  0  0  0  0  0  0  0  0  0
   12.4091    8.0502   -1.9040 C   0  0  0  0  0  0  0  0  0  0  0  0
   12.3572    9.2243   -2.6467 C   0  0  0  0  0  0  0  0  0  0  0  0
   11.9829    9.2108   -3.9767 C   0  0  0  0  0  0  0  0  0  0  0  0
   11.6498    8.0588   -4.6189 C   0  0  0  0  0  0  0  0  0  0  0  0
   11.7043    6.8825   -3.8655 C   0  0  0  0  0  0  0  0  0  0  0  0
   12.0762    6.8823   -2.5376 C   0  0  0  0  0  0  0  0  0  0  0  0
 30 31  2  0
 31 32  1  0
 32 33  2  0
 33  1  1  0
  1  2  2  0
  2  3  1  0
  3  4  2  0
  4  5  1  0
  5  6  1  0
  6  7  2  0
  7  8  1  0
  8  9  2  0
  9 13  1  0
 13 14  2  0
 14 15  1  0
 15 16  2  0
 16 17  1  0
 17 18  2  0
 17 19  1  0
 19 20  1  0
 20 21  1  0
 21 22  2  0
 22 23  1  0
 23 24  2  0
 24 25  1  0
 25 26  1  0
 26 27  1  0
 27 28  2  0
 28 29  1  0
  8 10  1  0
 10 11  1  0
  5 12  2  0
 33 34  1  0
 34 35  2  0
 35 30  1  0
 12  1  1  0
 10  4  1  0
 18 13  1  0
 29 21  1  0
 22 16  1  0
 29 25  2  0
M  END
>  <minimizedAffinity>  (915) 
-16.63723

$$$$
Mol: 78_29 - SminaDock
     RDKit          3D

 41 47  0  0  0  0  0  0  0  0999 V2000
    6.0959    1.3708  -18.0466 O   0  0  0  0  0  0  0  0  0  0  0  0
    6.8037    1.1782  -16.8427 C   0  0  0  0  0  0  0  0  0  0  0  0
    8.0454    1.5752  -16.6595 C   0  0  0  0  0  0  0  0  0  0  0  0
    8.5477    1.2550  -15.2977 C   0  0  1  0  0  0  0  0  0  0  0  0
    9.6889    0.2665  -15.3471 C   0  0  0  0  0  0  0  0  0  0  0  0
   10.5107    0.5246  -16.5274 C   0  0  0  0  0  0  0  0  0  0  0  0
   10.6240   -0.7405  -17.1081 C   0  0  0  0  0  0  0  0  0  0  0  0
   11.3411   -0.9577  -18.2652 C   0  0  0  0  0  0  0  0  0  0  0  0
   11.9572    0.1331  -18.8455 C   0  0  0  0  0  0  0  0  0  0  0  0
   11.8445    1.3908  -18.2673 C   0  0  0  0  0  0  0  0  0  0  0  0
   11.1241    1.6013  -17.1067 C   0  0  0  0  0  0  0  0  0  0  0  0
   11.2879    3.0590  -16.8667 C   0  0  0  0  0  0  0  0  0  0  0  0
   11.3337    3.3858  -15.4042 C   0  0  0  0  0  0  0  0  0  0  0  0
   10.0510    3.3199  -14.7058 C   0  0  0  0  0  0  0  0  0  0  0  0
   10.0675    4.4635  -13.9037 C   0  0  0  0  0  0  0  0  0  0  0  0
    9.0579    4.8254  -13.0549 C   0  0  0  0  0  0  0  0  0  0  0  0
    7.9407    3.9803  -13.0015 C   0  0  0  0  0  0  0  0  0  0  0  0
    7.8948    2.8285  -13.7930 C   0  0  0  0  0  0  0  0  0  0  0  0
    8.9238    2.5071  -14.6226 C   0  0  0  0  0  0  0  0  0  0  0  0
    7.4012    0.5577  -14.6804 C   0  0  0  0  0  0  0  0  0  0  0  0
    7.2638    0.0343  -13.5381 O   0  0  0  0  0  0  0  0  0  0  0  0
    6.3668    0.5519  -15.6526 N   0  0  0  0  0  0  0  0  0  0  0  0
    5.1215    1.1827  -18.0153 H   0  0  0  0  0  0  0  0  0  0  0  0
    9.0402    5.9810  -12.2365 N   0  0  0  0  0  0  0  0  0  0  0  0
    8.7606    6.8829  -12.7098 H   0  0  0  0  0  0  0  0  0  0  0  0
    9.3552    6.0459  -10.8704 C   0  0  0  0  0  0  0  0  0  0  0  0
    8.8837    5.2070   -9.9026 C   0  0  0  0  0  0  0  0  0  0  0  0
    9.2547    5.3974   -8.5984 C   0  0  0  0  0  0  0  0  0  0  0  0
   10.0990    6.4268   -8.2428 C   0  0  0  0  0  0  0  0  0  0  0  0
   10.4416    6.5984   -6.9232 C   0  0  0  0  0  0  0  0  0  0  0  0
   11.2795    7.6370   -6.5244 C   0  0  0  0  0  0  0  0  0  0  0  0
   11.7260    8.4599   -7.5453 C   0  0  0  0  0  0  0  0  0  0  0  0
   11.3964    8.3056   -8.8683 C   0  0  0  0  0  0  0  0  0  0  0  0
   10.5624    7.2641   -9.2398 C   0  0  0  0  0  0  0  0  0  0  0  0
   10.1945    7.0653  -10.5015 N   0  0  0  0  0  0  0  0  0  0  0  0
   11.6771    7.8412   -5.1495 C   0  0  0  0  0  0  0  0  0  0  0  0
   12.3535    8.9439   -4.7449 C   0  0  0  0  0  0  0  0  0  0  0  0
   12.7519    9.1635   -3.4372 C   0  0  0  0  0  0  0  0  0  0  0  0
   12.4380    8.1913   -2.4860 C   0  0  0  0  0  0  0  0  0  0  0  0
   11.7565    7.0740   -2.8823 C   0  0  0  0  0  0  0  0  0  0  0  0
   11.3792    6.8928   -4.1829 C   0  0  0  0  0  0  0  0  0  0  0  0
  1  2  1  0
  2  3  2  0
  3  4  1  0
  4  5  1  6
  5  6  1  0
  6  7  2  0
  7  8  1  0
  8  9  2  0
  9 10  1  0
 10 11  2  0
 11 12  1  0
 12 13  1  0
 13 14  1  0
 14 15  2  0
 15 16  1  0
 16 24  1  0
 24 26  1  0
 26 27  2  0
 27 28  1  0
 28 29  2  0
 29 30  1  0
 30 31  2  0
 31 36  1  0
 36 37  2  0
 37 38  1  0
 38 39  2  0
 39 40  1  0
 40 41  2  0
 31 32  1  0
 32 33  2  0
 33 34  1  0
 34 35  2  0
 16 17  2  0
 17 18  1  0
 18 19  2  0
  4 20  1  0
 20 21  2  0
 20 22  1  0
 22  2  1  0
 19  4  1  0
 11  6  1  0
 19 14  1  0
 35 26  1  0
 34 29  1  0
 41 36  1  0
  1 23  1  0
 24 25  1  0
M  CHG  1  22  -1
M  END
>  <minimizedAffinity>  (916) 
-16.56782

$$$$
Mol: 163_46 - SminaDock
     RDKit          3D

 39 45  0  0  0  0  0  0  0  0999 V2000
    2.2942    0.4722  -14.7438 H   0  0  0  0  0  0  0  0  0  0  0  0
    2.9683   -0.1197  -14.2532 O   0  0  0  0  0  0  0  0  0  0  0  0
    4.1896   -0.3675  -14.8423 C   0  0  0  0  0  0  0  0  0  0  0  0
    5.2737    0.4621  -14.6392 C   0  0  0  0  0  0  0  0  0  0  0  0
    5.4305    1.5767  -13.9214 N   0  0  0  0  0  0  0  0  0  0  0  0
    6.7045    1.9864  -14.0739 C   0  0  0  0  0  0  0  0  0  0  0  0
    7.4194    1.1633  -14.8879 C   0  0  0  0  0  0  0  0  0  0  0  0
    6.5491    0.1697  -15.2779 C   0  0  0  0  0  0  0  0  0  0  0  0
    6.6010   -0.9313  -16.0570 N   0  0  0  0  0  0  0  0  0  0  0  0
    5.5215   -1.7242  -16.2363 C   0  0  0  0  0  0  0  0  0  0  0  0
    5.6015   -2.7380  -16.9648 O   0  0  0  0  0  0  0  0  0  0  0  0
    4.3501   -1.4464  -15.6435 N   0  0  0  0  0  0  0  0  0  0  0  0
    3.5063   -2.0658  -15.7833 H   0  0  0  0  0  0  0  0  0  0  0  0
    8.8331    1.3370  -15.2519 C   0  0  0  0  0  0  0  0  0  0  0  0
    9.5150    2.5146  -14.6662 C   0  0  0  0  0  0  0  0  0  0  0  0
    8.6981    3.3720  -13.7944 C   0  0  0  0  0  0  0  0  0  0  0  0
    9.3278    4.4830  -13.2397 C   0  0  0  0  0  0  0  0  0  0  0  0
    8.6768    5.3674  -12.4049 C   0  0  0  0  0  0  0  0  0  0  0  0
    7.3502    5.1186  -12.1246 C   0  0  0  0  0  0  0  0  0  0  0  0
    6.6915    4.0153  -12.6639 C   0  0  0  0  0  0  0  0  0  0  0  0
    7.3682    3.1481  -13.4955 C   0  0  0  0  0  0  0  0  0  0  0  0
    9.3040    6.4849  -11.8445 N   0  0  0  0  0  0  0  0  0  0  0  0
    9.6328    6.5806  -10.5925 C   0  0  0  0  0  0  0  0  0  0  0  0
   10.2343    7.6828  -10.1132 N   0  0  0  0  0  0  0  0  0  0  0  0
   10.5800    7.7857   -8.8032 C   0  0  0  0  0  0  0  0  0  0  0  0
   11.1993    8.9218   -8.3118 C   0  0  0  0  0  0  0  0  0  0  0  0
   11.5447    9.0081   -6.9708 C   0  0  0  0  0  0  0  0  0  0  0  0
   11.2843    7.9729   -6.0894 C   0  0  0  0  0  0  0  0  0  0  0  0
   10.6649    6.8508   -6.6082 C   0  0  0  0  0  0  0  0  0  0  0  0
   10.3135    6.7449   -7.9377 C   0  0  0  0  0  0  0  0  0  0  0  0
    9.6895    5.6027   -8.4373 C   0  0  0  0  0  0  0  0  0  0  0  0
    9.3792    5.5754   -9.7397 N   0  0  0  0  0  0  0  0  0  0  0  0
    8.9136    4.7210  -10.1085 H   0  0  0  0  0  0  0  0  0  0  0  0
   11.6276    8.0213   -4.6824 C   0  0  0  0  0  0  0  0  0  0  0  0
   11.5888    6.8782   -3.9178 C   0  0  0  0  0  0  0  0  0  0  0  0
   11.9192    6.9157   -2.5557 C   0  0  0  0  0  0  0  0  0  0  0  0
   12.2872    8.1048   -1.9708 C   0  0  0  0  0  0  0  0  0  0  0  0
   12.3279    9.2386   -2.7204 C   0  0  0  0  0  0  0  0  0  0  0  0
   11.9991    9.1962   -4.0714 C   0  0  0  0  0  0  0  0  0  0  0  0
  1  2  1  0
  2  3  1  0
  3  4  2  0
  4  5  1  0
  5  6  2  0
  6  7  1  0
  7  8  2  0
  8  9  1  0
  9 10  1  0
 10 11  2  0
 10 12  1  0
 12 13  1  0
  7 14  1  0
 14 15  1  0
 15 16  1  0
 16 17  2  0
 17 18  1  0
 18 22  1  0
 22 23  2  0
 23 24  1  0
 24 25  2  0
 25 26  1  0
 26 27  2  0
 27 28  1  0
 28 34  1  0
 34 35  2  0
 35 36  1  0
 36 37  2  0
 37 38  1  0
 38 39  2  0
 28 29  2  0
 29 30  1  0
 30 31  2  0
 31 32  1  0
 32 33  1  0
 18 19  2  0
 19 20  1  0
 20 21  2  0
 12  3  1  0
 21 16  1  0
  8  4  1  0
 32 23  1  0
 21  6  1  0
 30 25  1  0
 39 34  1  0
M  CHG  1   9  -1
M  END
>  <minimizedAffinity>  (917) 
-16.62038

$$$$
Mol: 163_52 - SminaDock
     RDKit          3D

 38 44  0  0  0  0  0  0  0  0999 V2000
    8.7970    5.8973  -12.3464 C   0  0  0  0  0  0  0  0  0  0  0  0
    9.4629    5.1587  -13.2915 C   0  0  0  0  0  0  0  0  0  0  0  0
    8.8590    4.0302  -13.8600 C   0  0  0  0  0  0  0  0  0  0  0  0
    7.5816    3.6195  -13.4958 C   0  0  0  0  0  0  0  0  0  0  0  0
    6.9308    4.3707  -12.5492 C   0  0  0  0  0  0  0  0  0  0  0  0
    7.5418    5.5049  -11.9800 C   0  0  0  0  0  0  0  0  0  0  0  0
    5.5644    4.0089  -12.1098 C   0  0  0  0  0  0  0  0  0  0  0  0
    4.9777    2.8020  -12.6917 C   0  0  0  0  0  0  0  0  0  0  0  0
    5.7459    2.0783  -13.6995 C   0  0  0  0  0  0  0  0  0  0  0  0
    7.0099    2.4257  -14.1207 C   0  0  0  0  0  0  0  0  0  0  0  0
    7.6839    1.6918  -15.0762 C   0  0  0  0  0  0  0  0  0  0  0  0
    7.0846    0.5797  -15.6301 C   0  0  0  0  0  0  0  0  0  0  0  0
    7.4822   -0.3411  -16.5818 C   0  0  0  0  0  0  0  0  0  0  0  0
    8.7163   -0.3754  -17.2898 N   0  0  0  0  0  0  0  0  0  0  0  0
    9.2178    0.5287  -17.5144 H   0  0  0  0  0  0  0  0  0  0  0  0
    9.1782   -1.2351  -17.6130 H   0  0  0  0  0  0  0  0  0  0  0  0
    6.4731   -1.2187  -16.7233 N   0  0  0  0  0  0  0  0  0  0  0  0
    5.5183   -0.8687  -15.9184 O   0  0  0  0  0  0  0  0  0  0  0  0
    5.8045    0.1960  -15.2292 C   0  0  0  0  0  0  0  0  0  0  0  0
    5.1640    0.9602  -14.2679 C   0  0  0  0  0  0  0  0  0  0  0  0
   11.3278    8.0718   -5.9874 C   0  0  0  0  0  0  0  0  0  0  0  0
   11.5751    9.1697   -6.7570 C   0  0  0  0  0  0  0  0  0  0  0  0
   11.2436    9.2065   -8.0956 C   0  0  0  0  0  0  0  0  0  0  0  0
   10.6467    8.1077   -8.6751 C   0  0  0  0  0  0  0  0  0  0  0  0
   10.3175    8.1369   -9.9932 N   0  0  0  0  0  0  0  0  0  0  0  0
    9.7379    7.0421  -10.5121 C   0  0  0  0  0  0  0  0  0  0  0  0
    9.4221    7.0609  -11.7599 N   0  0  0  0  0  0  0  0  0  0  0  0
    9.4823    5.9475   -9.7796 N   0  0  0  0  0  0  0  0  0  0  0  0
    9.0263    5.1090  -10.2243 H   0  0  0  0  0  0  0  0  0  0  0  0
    9.7998    5.9035   -8.4833 C   0  0  0  0  0  0  0  0  0  0  0  0
   10.4000    7.0051   -7.8955 C   0  0  0  0  0  0  0  0  0  0  0  0
   10.7298    6.9777   -6.5779 C   0  0  0  0  0  0  0  0  0  0  0  0
   12.3278    7.9616   -1.9156 C   0  0  0  0  0  0  0  0  0  0  0  0
   12.3579    9.1570   -2.6101 C   0  0  0  0  0  0  0  0  0  0  0  0
   12.0294    9.2014   -3.9523 C   0  0  0  0  0  0  0  0  0  0  0  0
   11.6738    8.0218   -4.5700 C   0  0  0  0  0  0  0  0  0  0  0  0
   11.6422    6.8386   -3.8894 C   0  0  0  0  0  0  0  0  0  0  0  0
   11.9733    6.8053   -2.5441 C   0  0  0  0  0  0  0  0  0  0  0  0
 33 34  2  0
 34 35  1  0
 35 36  2  0
 36 21  1  0
 21 22  1  0
 22 23  2  0
 23 24  1  0
 24 25  2  0
 25 26  1  0
 26 27  2  0
 27  1  1  0
  1  2  2  0
  2  3  1  0
  3  4  2  0
  4  5  1  0
  5  6  2  0
  5  7  1  0
  7  8  1  0
  8  9  1  0
  9 10  2  0
 10 11  1  0
 11 12  2  0
 12 13  1  0
 13 14  1  0
 14 15  1  0
 14 16  1  0
 13 17  2  0
 17 18  1  0
 18 19  1  0
 19 20  2  0
 26 28  1  0
 28 29  1  0
 28 30  1  0
 30 31  2  0
 31 32  1  0
 36 37  1  0
 37 38  2  0
 38 33  1  0
 32 21  2  0
 31 24  1  0
  6  1  1  0
 20  9  1  0
 10  4  1  0
 19 12  1  0
M  END
>  <minimizedAffinity>  (918) 
-16.56078

$$$$
Mol: 155_28 - SminaDock
     RDKit          3D

 44 51  0  0  0  0  0  0  0  0999 V2000
    8.9232   -1.7718  -17.0958 H   0  0  0  0  0  0  0  0  0  0  0  0
    8.5743   -0.8616  -17.3686 O   0  0  0  0  0  0  0  0  0  0  0  0
    9.0551    0.3230  -16.7645 C   0  0  0  0  0  0  0  0  0  0  0  0
    8.1600    0.9964  -16.0373 C   0  0  0  0  0  0  0  0  0  0  0  0
    8.6266    2.1840  -15.4374 C   0  0  0  0  0  0  0  0  0  0  0  0
    7.7916    2.8145  -14.5284 C   0  0  0  0  0  0  0  0  0  0  0  0
    6.5213    2.2743  -14.2698 C   0  0  0  0  0  0  0  0  0  0  0  0
    6.1130    1.1098  -14.8912 C   0  0  0  0  0  0  0  0  0  0  0  0
    6.9252    0.4639  -15.7744 C   0  0  0  0  0  0  0  0  0  0  0  0
    6.2192   -0.7172  -16.2957 C   0  0  0  0  0  0  0  0  0  0  0  0
    4.7612   -0.4111  -15.9459 C   0  0  0  0  0  0  0  0  0  0  0  0
    4.8961    0.3885  -14.7131 N   0  0  0  0  0  0  0  0  0  0  0  0
    3.9382    0.3132  -13.6586 C   0  0  0  0  0  0  0  0  0  0  0  0
    5.7305    2.9016  -13.4278 C   0  0  0  0  0  0  0  0  0  0  0  0
    6.0955    4.0964  -12.7623 N   0  0  0  0  0  0  0  0  0  0  0  0
    5.4298    4.5633  -12.1025 H   0  0  0  0  0  0  0  0  0  0  0  0
    7.3702    4.6678  -12.9882 C   0  0  0  0  0  0  0  0  0  0  0  0
    7.7799    5.7807  -12.3017 C   0  0  0  0  0  0  0  0  0  0  0  0
    9.0471    6.2770  -12.4660 C   0  0  0  0  0  0  0  0  0  0  0  0
    9.9094    5.6472  -13.3252 C   0  0  0  0  0  0  0  0  0  0  0  0
    9.5079    4.5098  -14.0373 C   0  0  0  0  0  0  0  0  0  0  0  0
    8.2440    4.0420  -13.8673 C   0  0  0  0  0  0  0  0  0  0  0  0
    9.7908    2.7766  -16.0557 C   0  0  0  0  0  0  0  0  0  0  0  0
   10.9532    1.8416  -16.1601 C   0  0  0  0  0  0  0  0  0  0  0  0
   10.4090    0.7054  -16.9512 N   0  0  0  0  0  0  0  0  0  0  0  0
   11.2592    0.0263  -17.8788 C   0  0  0  0  0  0  0  0  0  0  0  0
    9.4220    7.4411  -11.7313 N   0  0  0  0  0  0  0  0  0  0  0  0
    9.7616    7.2799  -10.5030 C   0  0  0  0  0  0  0  0  0  0  0  0
    9.7762    6.0847   -9.9003 N   0  0  0  0  0  0  0  0  0  0  0  0
   10.1418    5.9837   -8.6105 C   0  0  0  0  0  0  0  0  0  0  0  0
   10.5109    7.0829   -7.8647 C   0  0  0  0  0  0  0  0  0  0  0  0
   10.8908    6.9977   -6.5343 C   0  0  0  0  0  0  0  0  0  0  0  0
   11.2545    8.1228   -5.8191 C   0  0  0  0  0  0  0  0  0  0  0  0
   11.2340    9.3480   -6.4555 C   0  0  0  0  0  0  0  0  0  0  0  0
   10.8550    9.4361   -7.7844 C   0  0  0  0  0  0  0  0  0  0  0  0
   10.4921    8.3142   -8.4985 C   0  0  0  0  0  0  0  0  0  0  0  0
   10.1174    8.3584   -9.7928 N   0  0  0  0  0  0  0  0  0  0  0  0
   10.1239    9.3299  -10.2202 H   0  0  0  0  0  0  0  0  0  0  0  0
   11.6568    8.0585   -4.4219 C   0  0  0  0  0  0  0  0  0  0  0  0
   12.0117    9.2033   -3.7522 C   0  0  0  0  0  0  0  0  0  0  0  0
   12.3906    9.1333   -2.4313 C   0  0  0  0  0  0  0  0  0  0  0  0
   12.4249    7.9250   -1.7476 C   0  0  0  0  0  0  0  0  0  0  0  0
   12.0596    6.7725   -2.4489 C   0  0  0  0  0  0  0  0  0  0  0  0
   11.6843    6.8668   -3.7691 C   0  0  0  0  0  0  0  0  0  0  0  0
  1  2  1  0
  2  3  1  0
  3  4  2  0
  4  5  1  0
  5  6  2  0
  6  7  1  0
  7  8  1  0
  8  9  2  0
  9 10  1  0
 10 11  1  0
 11 12  1  0
 12 13  1  0
  7 14  2  0
 14 15  1  0
 15 16  1  0
 15 17  1  0
 17 18  2  0
 18 19  1  0
 19 27  1  0
 27 28  2  0
 28 29  1  0
 29 30  2  0
 30 31  1  0
 31 32  2  0
 32 33  1  0
 33 39  1  0
 39 40  2  0
 40 41  1  0
 41 42  2  0
 42 43  1  0
 43 44  2  0
 33 34  2  0
 34 35  1  0
 35 36  2  0
 36 37  1  0
 37 38  1  0
 19 20  2  0
 20 21  1  0
 21 22  2  0
  5 23  1  0
 23 24  1  0
 24 25  1  0
 25 26  1  0
 25  3  1  0
  9  4  1  0
 22 17  1  0
 22  6  1  0
 12  8  1  0
 37 28  1  0
 36 31  1  0
 44 39  1  0
M  END
>  <minimizedAffinity>  (919) 
-16.63537

$$$$
Mol: 155_36 - SminaDock
     RDKit          3D

 40 46  0  0  0  0  0  0  0  0999 V2000
    8.2204    5.2916  -12.4019 C   0  0  0  0  0  0  0  0  0  0  0  0
    6.9008    5.3030  -12.0305 C   0  0  0  0  0  0  0  0  0  0  0  0
    6.0893    4.2947  -12.4918 C   0  0  0  0  0  0  0  0  0  0  0  0
    6.5595    3.2727  -13.3157 C   0  0  0  0  0  0  0  0  0  0  0  0
    7.8963    3.3144  -13.6559 C   0  0  0  0  0  0  0  0  0  0  0  0
    8.7511    4.3155  -13.2112 C   0  0  0  0  0  0  0  0  0  0  0  0
    8.5978    2.3316  -14.5188 C   0  0  0  0  0  0  0  0  0  0  0  0
    7.7441    2.0243  -15.7642 C   0  0  0  0  0  0  0  0  0  0  0  0
    6.7253    1.0467  -15.4930 C   0  0  0  0  0  0  0  0  0  0  0  0
    5.7013    1.2167  -14.5444 C   0  0  0  0  0  0  0  0  0  0  0  0
    4.7200    0.2774  -14.3310 C   0  0  0  0  0  0  0  0  0  0  0  0
    4.7312   -0.8844  -15.0728 C   0  0  0  0  0  0  0  0  0  0  0  0
    5.7076   -1.1023  -16.0108 C   0  0  0  0  0  0  0  0  0  0  0  0
    6.6923   -0.1112  -16.1930 C   0  0  0  0  0  0  0  0  0  0  0  0
    7.7896   -0.2402  -17.1315 C   0  0  0  0  0  0  0  0  0  0  0  0
    7.2349   -0.3172  -18.4333 O   0  0  0  0  0  0  0  0  0  0  0  0
    6.2878   -1.2951  -18.7857 C   0  0  0  0  0  0  0  0  0  0  0  0
    5.7731   -1.0643  -19.9126 O   0  0  0  0  0  0  0  0  0  0  0  0
    5.7965   -2.5131  -18.0974 C   0  0  0  0  0  0  0  0  0  0  0  0
    5.5975   -2.3306  -16.6979 O   0  0  0  0  0  0  0  0  0  0  0  0
    5.5227    2.3421  -13.6603 N   0  0  0  0  0  0  0  0  0  0  0  0
    4.5887    2.4947  -13.2385 H   0  0  0  0  0  0  0  0  0  0  0  0
   11.2442    7.7885   -6.2701 C   0  0  0  0  0  0  0  0  0  0  0  0
   11.7108    8.6711   -7.2219 C   0  0  0  0  0  0  0  0  0  0  0  0
   11.3473    8.5250   -8.5453 C   0  0  0  0  0  0  0  0  0  0  0  0
   10.5183    7.5142   -8.9803 C   0  0  0  0  0  0  0  0  0  0  0  0
   10.1541    7.3564  -10.2638 N   0  0  0  0  0  0  0  0  0  0  0  0
    9.3449    6.3658  -10.6754 C   0  0  0  0  0  0  0  0  0  0  0  0
    9.0705    6.3238  -11.9354 N   0  0  0  0  0  0  0  0  0  0  0  0
    8.8720    5.4875   -9.7731 N   0  0  0  0  0  0  0  0  0  0  0  0
    8.2467    4.7309  -10.1244 H   0  0  0  0  0  0  0  0  0  0  0  0
    9.2188    5.6160   -8.4674 C   0  0  0  0  0  0  0  0  0  0  0  0
   10.0494    6.6277   -8.0261 C   0  0  0  0  0  0  0  0  0  0  0  0
   10.4133    6.7728   -6.6967 C   0  0  0  0  0  0  0  0  0  0  0  0
   12.3700    8.1720   -2.1758 C   0  0  0  0  0  0  0  0  0  0  0  0
   12.0101    6.9465   -2.6850 C   0  0  0  0  0  0  0  0  0  0  0  0
   11.6441    6.8420   -4.0296 C   0  0  0  0  0  0  0  0  0  0  0  0
   11.6356    7.9507   -4.8652 C   0  0  0  0  0  0  0  0  0  0  0  0
   11.9983    9.1672   -4.3388 C   0  0  0  0  0  0  0  0  0  0  0  0
   12.3653    9.2786   -2.9955 C   0  0  0  0  0  0  0  0  0  0  0  0
 35 36  2  0
 36 37  1  0
 37 38  2  0
 38 23  1  0
 23 24  1  0
 24 25  2  0
 25 26  1  0
 26 27  2  0
 27 28  1  0
 28 29  2  0
 29  1  1  0
  1  2  2  0
  2  3  1  0
  3  4  2  0
  4  5  1  0
  5  6  2  0
  5  7  1  0
  7  8  1  0
  8  9  1  0
  9 10  2  0
 10 11  1  0
 11 12  2  0
 12 13  1  0
 13 14  2  0
 14 15  1  0
 15 16  1  0
 16 17  1  0
 17 18  2  0
 17 19  1  0
 19 20  1  0
 10 21  1  0
 21 22  1  0
 28 30  1  0
 30 31  1  0
 30 32  1  0
 32 33  2  0
 33 34  1  0
 38 39  1  0
 39 40  2  0
 40 35  1  0
 34 23  2  0
 33 26  1  0
  6  1  1  0
 14  9  1  0
 21  4  1  0
 20 13  1  0
M  END
>  <minimizedAffinity>  (920) 
-16.60298

$$$$
Mol: 188_37 - SminaDock
     RDKit          3D

 36 42  0  0  0  0  0  0  0  0999 V2000
    7.5307    1.3602  -15.2248 C   0  0  0  0  0  0  0  0  0  0  0  0
    6.9634    0.2812  -15.8141 N   0  0  0  0  0  0  0  0  0  0  0  0
    5.7416   -0.1497  -15.4918 C   0  0  0  0  0  0  0  0  0  0  0  0
    4.9735   -1.1917  -15.9383 N   0  0  0  0  0  0  0  0  0  0  0  0
    3.8154   -1.2077  -15.3030 N   0  0  0  0  0  0  0  0  0  0  0  0
    3.0144   -1.8825  -15.4227 H   0  0  0  0  0  0  0  0  0  0  0  0
    3.8211   -0.1764  -14.4385 C   0  0  0  0  0  0  0  0  0  0  0  0
    5.0150    0.5100  -14.5298 C   0  0  0  0  0  0  0  0  0  0  0  0
    5.5773    1.6066  -13.9226 C   0  0  0  0  0  0  0  0  0  0  0  0
    6.8600    2.0567  -14.2635 C   0  0  0  0  0  0  0  0  0  0  0  0
    7.4370    3.2237  -13.6227 C   0  0  0  0  0  0  0  0  0  0  0  0
    8.7248    3.6153  -13.9861 C   0  0  0  0  0  0  0  0  0  0  0  0
    9.2435    4.7195  -13.3387 C   0  0  0  0  0  0  0  0  0  0  0  0
    8.5732    5.4231  -12.3886 C   0  0  0  0  0  0  0  0  0  0  0  0
    7.3090    5.0190  -12.0491 C   0  0  0  0  0  0  0  0  0  0  0  0
    6.7177    3.8975  -12.6725 C   0  0  0  0  0  0  0  0  0  0  0  0
    5.3621    3.5003  -12.2997 C   0  0  0  0  0  0  0  0  0  0  0  0
    4.7922    2.2853  -12.8931 C   0  0  0  0  0  0  0  0  0  0  0  0
    9.1268    6.5654  -11.7232 N   0  0  0  0  0  0  0  0  0  0  0  0
    9.4804    6.5759  -10.4915 C   0  0  0  0  0  0  0  0  0  0  0  0
    9.3541    5.4651   -9.6911 C   0  0  0  0  0  0  0  0  0  0  0  0
    9.7594    5.5533   -8.3535 C   0  0  0  0  0  0  0  0  0  0  0  0
   10.2690    6.7220   -7.8607 C   0  0  0  0  0  0  0  0  0  0  0  0
   10.6838    6.8512   -6.5324 C   0  0  0  0  0  0  0  0  0  0  0  0
   11.1957    8.0326   -6.0419 C   0  0  0  0  0  0  0  0  0  0  0  0
   11.3050    9.1229   -6.8796 C   0  0  0  0  0  0  0  0  0  0  0  0
   10.8943    8.9880   -8.1873 C   0  0  0  0  0  0  0  0  0  0  0  0
   10.3788    7.8115   -8.6962 C   0  0  0  0  0  0  0  0  0  0  0  0
    9.9831    7.7114   -9.9860 N   0  0  0  0  0  0  0  0  0  0  0  0
   10.0901    8.5786  -10.5816 H   0  0  0  0  0  0  0  0  0  0  0  0
   11.5956    8.0607   -4.6550 C   0  0  0  0  0  0  0  0  0  0  0  0
   11.6448    6.8993   -3.9375 C   0  0  0  0  0  0  0  0  0  0  0  0
   12.0244    6.8900   -2.6032 C   0  0  0  0  0  0  0  0  0  0  0  0
   12.3490    8.0968   -2.0330 C   0  0  0  0  0  0  0  0  0  0  0  0
   12.3057    9.2652   -2.7332 C   0  0  0  0  0  0  0  0  0  0  0  0
   11.9231    9.2465   -4.0644 C   0  0  0  0  0  0  0  0  0  0  0  0
  1  2  2  0
  2  3  1  0
  3  4  2  0
  4  5  1  0
  5  6  1  0
  5  7  1  0
  7  8  2  0
  8  9  1  0
  9 10  2  0
 10 11  1  0
 11 12  2  0
 12 13  1  0
 13 14  2  0
 14 19  1  0
 19 20  2  0
 20 21  1  0
 21 22  2  0
 22 23  1  0
 23 24  2  0
 24 25  1  0
 25 31  1  0
 31 32  2  0
 32 33  1  0
 33 34  2  0
 34 35  1  0
 35 36  2  0
 25 26  2  0
 26 27  1  0
 27 28  2  0
 28 29  1  0
 29 30  1  0
 14 15  1  0
 15 16  2  0
 16 17  1  0
 17 18  1  0
 10  1  1  0
 16 11  1  0
  8  3  1  0
 18  9  1  0
 29 20  1  0
 28 23  1  0
 36 31  1  0
M  END
>  <minimizedAffinity>  (921) 
-16.64529

$$$$
Mol: 117_57 - SminaDock
     RDKit          3D

 39 46  0  0  0  0  0  0  0  0999 V2000
    9.1989    6.3861  -12.2495 C   0  0  0  0  0  0  0  0  0  0  0  0
   10.1046    5.7138  -13.0561 C   0  0  0  0  0  0  0  0  0  0  0  0
    9.7244    4.5660  -13.7044 C   0  0  0  0  0  0  0  0  0  0  0  0
    8.4392    4.0946  -13.5438 C   0  0  0  0  0  0  0  0  0  0  0  0
    7.5189    4.7459  -12.7460 C   0  0  0  0  0  0  0  0  0  0  0  0
    7.9165    5.8935  -12.1043 C   0  0  0  0  0  0  0  0  0  0  0  0
    6.2339    4.0456  -12.7434 C   0  0  0  0  0  0  0  0  0  0  0  0
    6.4340    2.8652  -13.6327 C   0  0  0  0  0  0  0  0  0  0  0  0
    5.5500    1.8693  -13.9844 C   0  0  0  0  0  0  0  0  0  0  0  0
    5.9518    0.8555  -14.8350 C   0  0  0  0  0  0  0  0  0  0  0  0
    7.2586    0.9025  -15.2989 C   0  0  0  0  0  0  0  0  0  0  0  0
    8.1469    1.9192  -14.9339 C   0  0  0  0  0  0  0  0  0  0  0  0
    7.7233    2.9265  -14.0785 C   0  0  0  0  0  0  0  0  0  0  0  0
    7.4535   -0.2201  -16.1512 O   0  0  0  0  0  0  0  0  0  0  0  0
    6.1901   -0.3084  -16.7461 C   0  0  1  0  0  0  0  0  0  0  0  0
    5.6937   -1.5522  -17.2593 C   0  0  0  0  0  0  0  0  0  0  0  0
    6.2462   -2.4844  -17.8660 O   0  0  0  0  0  0  0  0  0  0  0  0
    4.2852   -1.4916  -16.8899 N   0  0  0  0  0  0  0  0  0  0  0  0
    4.1144   -0.4156  -15.9581 N   0  0  0  0  0  0  0  0  0  0  0  0
    3.1973   -0.9524  -14.9412 C   0  0  0  0  0  0  0  0  0  0  0  0
    5.3950   -0.3404  -15.4147 C   0  0  2  0  0  0  0  0  0  0  0  0
   11.4188    8.2862   -5.5965 C   0  0  0  0  0  0  0  0  0  0  0  0
   11.4458    9.4964   -6.2452 C   0  0  0  0  0  0  0  0  0  0  0  0
   11.0815    9.5827   -7.5787 C   0  0  0  0  0  0  0  0  0  0  0  0
   10.6806    8.4705   -8.3051 C   0  0  0  0  0  0  0  0  0  0  0  0
   10.3264    8.5471   -9.6001 N   0  0  0  0  0  0  0  0  0  0  0  0
    9.9328    7.4630  -10.3207 C   0  0  0  0  0  0  0  0  0  0  0  0
    9.6008    7.5864  -11.5724 N   0  0  0  0  0  0  0  0  0  0  0  0
    9.9133    6.2878   -9.6669 N   0  0  0  0  0  0  0  0  0  0  0  0
    9.6199    5.4234  -10.1706 H   0  0  0  0  0  0  0  0  0  0  0  0
   10.2590    6.1610   -8.3708 C   0  0  0  0  0  0  0  0  0  0  0  0
   10.6522    7.2518   -7.6565 C   0  0  0  0  0  0  0  0  0  0  0  0
   11.0196    7.1768   -6.3185 C   0  0  0  0  0  0  0  0  0  0  0  0
   12.5171    7.8787   -1.5020 C   0  0  0  0  0  0  0  0  0  0  0  0
   12.4531    9.1174   -2.0964 C   0  0  0  0  0  0  0  0  0  0  0  0
   12.0979    9.2550   -3.4223 C   0  0  0  0  0  0  0  0  0  0  0  0
   11.7923    8.1550   -4.2065 C   0  0  0  0  0  0  0  0  0  0  0  0
   11.8577    6.9234   -3.6091 C   0  0  0  0  0  0  0  0  0  0  0  0
   12.2124    6.7808   -2.2836 C   0  0  0  0  0  0  0  0  0  0  0  0
 34 35  2  0
 35 36  1  0
 36 37  2  0
 37 22  1  0
 22 23  1  0
 23 24  2  0
 24 25  1  0
 25 26  2  0
 26 27  1  0
 27 28  2  0
 28  1  1  0
  1  2  2  0
  2  3  1  0
  3  4  2  0
  4  5  1  0
  5  6  2  0
  5  7  1  0
  7  8  1  0
  8  9  2  0
  9 10  1  0
 10 11  2  0
 11 12  1  0
 12 13  2  0
 11 14  1  0
 15 14  1  1
 15 16  1  0
 16 17  2  0
 16 18  1  0
 18 19  1  0
 19 20  1  0
 21 19  1  6
 27 29  1  0
 29 30  1  0
 29 31  1  0
 31 32  2  0
 32 33  1  0
 37 38  1  0
 38 39  2  0
 39 34  1  0
 33 22  2  0
 32 25  1  0
  6  1  1  0
 13  8  1  0
 21 15  1  0
 13  4  1  0
 21 10  1  0
M  CHG  1  18  -1
M  END
>  <minimizedAffinity>  (922) 
-16.63481

$$$$
Mol: 188_22 - SminaDock
     RDKit          3D

 37 43  0  0  0  0  0  0  0  0999 V2000
    4.8879   -2.5584  -17.3297 H   0  0  0  0  0  0  0  0  0  0  0  0
    4.9538   -2.4736  -16.3197 O   0  0  0  0  0  0  0  0  0  0  0  0
    5.3657   -1.3064  -15.7054 C   0  0  0  0  0  0  0  0  0  0  0  0
    6.5239   -0.6477  -15.7861 N   0  0  0  0  0  0  0  0  0  0  0  0
    6.5070    0.4497  -15.0219 C   0  0  0  0  0  0  0  0  0  0  0  0
    7.4001    1.4636  -14.7351 C   0  0  0  0  0  0  0  0  0  0  0  0
    7.0928    2.5031  -13.8768 C   0  0  0  0  0  0  0  0  0  0  0  0
    5.8540    2.5411  -13.2789 C   0  0  0  0  0  0  0  0  0  0  0  0
    4.9430    1.5171  -13.5644 C   0  0  0  0  0  0  0  0  0  0  0  0
    5.2651    0.4886  -14.4219 C   0  0  0  0  0  0  0  0  0  0  0  0
    4.5874   -0.6020  -14.8607 N   0  0  0  0  0  0  0  0  0  0  0  0
    3.2289   -0.9223  -14.4551 C   0  0  0  0  0  0  0  0  0  0  0  0
    5.7417    3.7120  -12.4205 C   0  0  0  0  0  0  0  0  0  0  0  0
    7.0532    4.3960  -12.5523 C   0  0  0  0  0  0  0  0  0  0  0  0
    7.5828    5.5425  -12.0048 C   0  0  0  0  0  0  0  0  0  0  0  0
    8.8492    5.9761  -12.2893 C   0  0  0  0  0  0  0  0  0  0  0  0
    9.6316    5.2496  -13.1517 C   0  0  0  0  0  0  0  0  0  0  0  0
    9.1214    4.1036  -13.7077 C   0  0  0  0  0  0  0  0  0  0  0  0
    7.8373    3.6690  -13.4158 C   0  0  0  0  0  0  0  0  0  0  0  0
    9.3246    7.1819  -11.6770 N   0  0  0  0  0  0  0  0  0  0  0  0
    9.6820    7.1344  -10.4289 C   0  0  0  0  0  0  0  0  0  0  0  0
   10.1369    8.2297   -9.7944 N   0  0  0  0  0  0  0  0  0  0  0  0
   10.5179    8.2216   -8.5000 C   0  0  0  0  0  0  0  0  0  0  0  0
   10.9834    9.3482   -7.8560 C   0  0  0  0  0  0  0  0  0  0  0  0
   11.3712    9.3312   -6.5317 C   0  0  0  0  0  0  0  0  0  0  0  0
   11.3096    8.1704   -5.7820 C   0  0  0  0  0  0  0  0  0  0  0  0
   10.8414    7.0471   -6.4379 C   0  0  0  0  0  0  0  0  0  0  0  0
   10.4528    7.0589   -7.7610 C   0  0  0  0  0  0  0  0  0  0  0  0
    9.9858    5.9356   -8.4130 C   0  0  0  0  0  0  0  0  0  0  0  0
    9.6170    5.9983   -9.7114 N   0  0  0  0  0  0  0  0  0  0  0  0
    9.2758    5.1214  -10.1406 H   0  0  0  0  0  0  0  0  0  0  0  0
   11.7163    8.1403   -4.3817 C   0  0  0  0  0  0  0  0  0  0  0  0
   11.7597    6.9250   -3.7329 C   0  0  0  0  0  0  0  0  0  0  0  0
   12.1442    6.8448   -2.3879 C   0  0  0  0  0  0  0  0  0  0  0  0
   12.4837    7.9778   -1.6969 C   0  0  0  0  0  0  0  0  0  0  0  0
   12.4448    9.2010   -2.3342 C   0  0  0  0  0  0  0  0  0  0  0  0
   12.0657    9.2555   -3.6501 C   0  0  0  0  0  0  0  0  0  0  0  0
  1  2  1  0
  2  3  1  0
  3  4  2  0
  4  5  1  0
  5  6  2  0
  6  7  1  0
  7  8  2  0
  8  9  1  0
  9 10  2  0
 10 11  1  0
 11 12  1  0
  8 13  1  0
 13 14  1  0
 14 15  2  0
 15 16  1  0
 16 20  1  0
 20 21  2  0
 21 22  1  0
 22 23  2  0
 23 24  1  0
 24 25  2  0
 25 26  1  0
 26 32  1  0
 32 33  2  0
 33 34  1  0
 34 35  2  0
 35 36  1  0
 36 37  2  0
 26 27  2  0
 27 28  1  0
 28 29  2  0
 29 30  1  0
 30 31  1  0
 16 17  2  0
 17 18  1  0
 18 19  2  0
 11  3  1  0
 19 14  1  0
 10  5  1  0
 30 21  1  0
 19  7  1  0
 28 23  1  0
 37 32  1  0
M  END
>  <minimizedAffinity>  (923) 
-16.62398

$$$$
Mol: 129_17 - SminaDock
     RDKit          3D

 40 46  0  0  0  0  0  0  0  0999 V2000
    9.6884    5.8082  -13.7975 N   0  0  0  0  0  0  0  0  0  0  0  0
   10.0088    6.2545  -12.6302 C   0  0  0  0  0  0  0  0  0  0  0  0
    9.4843    5.7910  -11.4832 N   0  0  0  0  0  0  0  0  0  0  0  0
    9.8198    6.2563  -10.2820 C   0  0  0  0  0  0  0  0  0  0  0  0
    9.2490    5.7431   -9.1371 C   0  0  0  0  0  0  0  0  0  0  0  0
    9.6206    6.2488   -7.9145 C   0  0  0  0  0  0  0  0  0  0  0  0
   10.5522    7.2606   -7.7855 C   0  0  0  0  0  0  0  0  0  0  0  0
   11.1030    7.7488   -8.9706 C   0  0  0  0  0  0  0  0  0  0  0  0
   10.7501    7.2634  -10.1911 C   0  0  0  0  0  0  0  0  0  0  0  0
   11.2881    7.7375  -11.3798 C   0  0  0  0  0  0  0  0  0  0  0  0
   10.9250    7.2441  -12.5666 N   0  0  0  0  0  0  0  0  0  0  0  0
   11.3786    7.6567  -13.4202 H   0  0  0  0  0  0  0  0  0  0  0  0
    7.6447    4.7253  -12.9835 C   0  0  0  0  0  0  0  0  0  0  0  0
    6.6903    3.7339  -12.9987 C   0  0  0  0  0  0  0  0  0  0  0  0
    6.8523    2.7322  -13.9480 C   0  0  0  0  0  0  0  0  0  0  0  0
    7.9105    2.7248  -14.8312 C   0  0  0  0  0  0  0  0  0  0  0  0
    8.8483    3.7576  -14.7688 C   0  0  0  0  0  0  0  0  0  0  0  0
    8.7136    4.7568  -13.8445 C   0  0  0  0  0  0  0  0  0  0  0  0
    8.2074    1.7336  -15.8745 C   0  0  0  0  0  0  0  0  0  0  0  0
    7.0843    1.4232  -16.8040 C   0  0  0  0  0  0  0  0  0  0  0  0
    5.9795    0.6818  -16.1697 C   0  0  0  0  0  0  0  0  0  0  0  0
    5.3953    0.7877  -14.9201 C   0  0  0  0  0  0  0  0  0  0  0  0
    4.3558   -0.0422  -14.5643 C   0  0  0  0  0  0  0  0  0  0  0  0
    3.8874   -0.9762  -15.4309 N   0  0  0  0  0  0  0  0  0  0  0  0
    3.0918   -1.6208  -15.1754 H   0  0  0  0  0  0  0  0  0  0  0  0
    4.4285   -1.1091  -16.6524 C   0  0  0  0  0  0  0  0  0  0  0  0
    3.9653   -1.9887  -17.4286 O   0  0  0  0  0  0  0  0  0  0  0  0
    5.4703   -0.2786  -17.0114 C   0  0  0  0  0  0  0  0  0  0  0  0
    5.7699    1.7287  -13.8740 C   0  0  0  0  0  0  0  0  0  0  0  0
    5.1236    1.6977  -12.8044 O   0  0  0  0  0  0  0  0  0  0  0  0
   10.9447    7.7950   -6.4936 C   0  0  0  0  0  0  0  0  0  0  0  0
   10.9601    9.1542   -6.3111 C   0  0  0  0  0  0  0  0  0  0  0  0
   11.3387    9.6586   -5.0654 C   0  0  0  0  0  0  0  0  0  0  0  0
   11.6912    8.8234   -4.0338 C   0  0  0  0  0  0  0  0  0  0  0  0
   12.0670    9.3269   -2.7964 C   0  0  0  0  0  0  0  0  0  0  0  0
   12.4130    8.4803   -1.7863 C   0  0  0  0  0  0  0  0  0  0  0  0
   12.4055    7.1081   -1.9449 C   0  0  0  0  0  0  0  0  0  0  0  0
   12.0302    6.6308   -3.1782 C   0  0  0  0  0  0  0  0  0  0  0  0
   11.6758    7.4650   -4.2162 C   0  0  0  0  0  0  0  0  0  0  0  0
   11.2963    6.9692   -5.4640 C   0  0  0  0  0  0  0  0  0  0  0  0
 13 14  2  0
 14 15  1  0
 15 16  2  0
 16 17  1  0
 17 18  2  0
 18  1  1  0
  1  2  2  0
  2  3  1  0
  3  4  2  0
  4  5  1  0
  5  6  2  0
  6  7  1  0
  7 31  1  0
 31 32  2  0
 32 33  1  0
 33 34  2  0
 34 35  1  0
 35 36  2  0
 36 37  1  0
 37 38  2  0
 38 39  1  0
 39 40  2  0
  7  8  2  0
  8  9  1  0
  9 10  2  0
 10 11  1  0
 11 12  1  0
 16 19  1  0
 19 20  1  0
 20 21  1  0
 21 22  1  0
 22 23  2  0
 23 24  1  0
 24 25  1  0
 24 26  1  0
 26 27  2  0
 26 28  1  0
 22 29  1  0
 29 30  2  0
 18 13  1  0
 11  2  1  0
 28 21  2  0
 29 15  1  0
  9  4  1  0
 40 31  1  0
 39 34  1  0
M  END
>  <minimizedAffinity>  (924) 
-16.56751

$$$$
Mol: 128_36 - SminaDock
     RDKit          3D

 37 43  0  0  0  0  0  0  0  0999 V2000
    8.1354    5.0410  -12.7912 C   0  0  0  0  0  0  0  0  0  0  0  0
    6.8002    4.9079  -12.4931 C   0  0  0  0  0  0  0  0  0  0  0  0
    6.1452    3.7369  -12.8856 C   0  0  0  0  0  0  0  0  0  0  0  0
    6.8298    2.7450  -13.5552 C   0  0  0  0  0  0  0  0  0  0  0  0
    8.1614    2.8756  -13.8592 C   0  0  0  0  0  0  0  0  0  0  0  0
    8.8080    4.0457  -13.4618 C   0  0  0  0  0  0  0  0  0  0  0  0
    8.8161    1.8681  -14.6798 C   0  0  1  0  0  0  0  0  0  0  0  0
    8.3396    0.4990  -14.4092 C   0  0  0  0  0  0  0  0  0  0  0  0
    6.8673    0.4319  -14.3315 C   0  0  0  0  0  0  0  0  0  0  0  0
    6.1893   -0.7270  -14.6855 C   0  0  0  0  0  0  0  0  0  0  0  0
    4.8329   -0.8705  -14.5273 C   0  0  0  0  0  0  0  0  0  0  0  0
    4.1099    0.1738  -13.9967 C   0  0  0  0  0  0  0  0  0  0  0  0
    4.7563    1.3489  -13.6338 C   0  0  0  0  0  0  0  0  0  0  0  0
    6.1098    1.4674  -13.8035 C   0  0  0  0  0  0  0  0  0  0  0  0
    8.3860    2.1806  -16.1333 C   0  0  0  0  0  0  0  0  0  0  0  0
    9.6018    2.0798  -16.9155 N   0  0  0  0  0  0  0  0  0  0  0  0
    9.5173    2.7621  -18.1683 C   0  0  0  0  0  0  0  0  0  0  0  0
   10.5875    2.7101  -16.0199 C   0  0  0  0  0  0  0  0  0  0  0  0
   10.3055    1.9877  -14.7486 C   0  0  0  0  0  0  0  0  0  0  0  0
   11.1294    7.7370   -6.7929 C   0  0  0  0  0  0  0  0  0  0  0  0
   11.4595    8.6949   -7.7251 C   0  0  0  0  0  0  0  0  0  0  0  0
   11.0819    8.5897   -9.0470 C   0  0  0  0  0  0  0  0  0  0  0  0
   10.3429    7.4960   -9.4939 C   0  0  0  0  0  0  0  0  0  0  0  0
    9.9758    7.3947  -10.7824 N   0  0  0  0  0  0  0  0  0  0  0  0
    9.2555    6.3230  -11.2057 C   0  0  0  0  0  0  0  0  0  0  0  0
    8.8889    6.1960  -12.4303 N   0  0  0  0  0  0  0  0  0  0  0  0
    8.9417    5.3989  -10.2869 N   0  0  0  0  0  0  0  0  0  0  0  0
    8.3856    4.5779  -10.6287 H   0  0  0  0  0  0  0  0  0  0  0  0
    9.2855    5.4594   -8.9973 C   0  0  0  0  0  0  0  0  0  0  0  0
   10.0186    6.5439   -8.5516 C   0  0  0  0  0  0  0  0  0  0  0  0
   10.3983    6.6486   -7.2196 C   0  0  0  0  0  0  0  0  0  0  0  0
   12.3188    8.0733   -2.6943 C   0  0  0  0  0  0  0  0  0  0  0  0
   12.4742    9.1234   -3.5851 C   0  0  0  0  0  0  0  0  0  0  0  0
   12.0951    9.0319   -4.9139 C   0  0  0  0  0  0  0  0  0  0  0  0
   11.5433    7.8714   -5.3909 C   0  0  0  0  0  0  0  0  0  0  0  0
   11.3817    6.8082   -4.5048 C   0  0  0  0  0  0  0  0  0  0  0  0
   11.7625    6.9105   -3.1852 C   0  0  0  0  0  0  0  0  0  0  0  0
 32 33  2  0
 33 34  1  0
 34 35  2  0
 35 20  1  0
 20 21  1  0
 21 22  2  0
 22 23  1  0
 23 24  2  0
 24 25  1  0
 25 26  2  0
 26  1  1  0
  1  2  2  0
  2  3  1  0
  3  4  2  0
  4  5  1  0
  5  6  2  0
  5  7  1  0
  7  8  1  1
  8  9  1  0
  9 10  2  0
 10 11  1  0
 11 12  2  0
 12 13  1  0
 13 14  2  0
  7 15  1  0
 15 16  1  0
 16 17  1  0
 16 18  1  0
 18 19  1  0
 25 27  1  0
 27 28  1  0
 27 29  1  0
 29 30  2  0
 30 31  1  0
 35 36  1  0
 36 37  2  0
 37 32  1  0
 31 20  2  0
 30 23  1  0
  6  1  1  0
 19  7  1  0
 14  4  1  0
 14  9  1  0
M  END
>  <minimizedAffinity>  (925) 
-16.56712

$$$$
Mol: 129_10 - SminaDock
     RDKit          3D

 39 45  0  0  0  0  0  0  0  0999 V2000
    8.3080    5.1772  -12.7230 C   0  0  0  0  0  0  0  0  0  0  0  0
    7.1162    4.8394  -12.1330 C   0  0  0  0  0  0  0  0  0  0  0  0
    6.4252    3.7225  -12.5856 C   0  0  0  0  0  0  0  0  0  0  0  0
    6.9279    2.9486  -13.6246 C   0  0  0  0  0  0  0  0  0  0  0  0
    8.1273    3.2757  -14.2230 C   0  0  0  0  0  0  0  0  0  0  0  0
    8.8111    4.3902  -13.7708 C   0  0  0  0  0  0  0  0  0  0  0  0
    8.6993    2.3919  -15.2297 C   0  0  2  0  0  0  0  0  0  0  0  0
    7.6651    1.7643  -16.0782 C   0  0  0  0  0  0  0  0  0  0  0  0
    6.5525    1.1948  -15.3047 C   0  0  0  0  0  0  0  0  0  0  0  0
    5.8653    0.0707  -15.7541 C   0  0  0  0  0  0  0  0  0  0  0  0
    4.7564   -0.3529  -15.0694 C   0  0  0  0  0  0  0  0  0  0  0  0
    4.3167    0.3141  -13.9516 C   0  0  0  0  0  0  0  0  0  0  0  0
    4.9969    1.4436  -13.4862 C   0  0  0  0  0  0  0  0  0  0  0  0
    6.0986    1.8516  -14.1755 C   0  0  0  0  0  0  0  0  0  0  0  0
    9.5236    1.3202  -14.4728 C   0  0  0  0  0  0  0  0  0  0  0  0
    9.9931    0.3365  -15.5000 C   0  0  0  0  0  0  0  0  0  0  0  0
   10.7540    0.9200  -16.5491 N   0  0  2  0  0  0  0  0  0  0  0  0
   10.7813    0.2026  -17.3358 H   0  0  0  0  0  0  0  0  0  0  0  0
   11.7570    1.0068  -16.2639 H   0  0  0  0  0  0  0  0  0  0  0  0
   10.2529    2.1287  -17.1242 C   0  0  0  0  0  0  0  0  0  0  0  0
    9.7603    3.1057  -16.0687 C   0  0  0  0  0  0  0  0  0  0  0  0
   11.2197    7.8074   -6.6431 C   0  0  0  0  0  0  0  0  0  0  0  0
   11.5206    8.8128   -7.5402 C   0  0  0  0  0  0  0  0  0  0  0  0
   11.1385    8.7321   -8.8838 C   0  0  0  0  0  0  0  0  0  0  0  0
   10.4370    7.5942   -9.2968 C   0  0  0  0  0  0  0  0  0  0  0  0
   10.0479    7.4622  -10.5698 N   0  0  0  0  0  0  0  0  0  0  0  0
    9.3687    6.3893  -11.0343 C   0  0  0  0  0  0  0  0  0  0  0  0
    9.0180    6.3100  -12.2685 N   0  0  0  0  0  0  0  0  0  0  0  0
    9.0667    5.4093  -10.1953 N   0  0  0  0  0  0  0  0  0  0  0  0
    8.5368    4.5550  -10.5364 H   0  0  0  0  0  0  0  0  0  0  0  0
    9.4382    5.4958   -8.8991 C   0  0  0  0  0  0  0  0  0  0  0  0
   10.1295    6.5878   -8.4233 C   0  0  0  0  0  0  0  0  0  0  0  0
   10.5309    6.7236   -7.1167 C   0  0  0  0  0  0  0  0  0  0  0  0
   12.3602    8.0141   -2.5522 C   0  0  0  0  0  0  0  0  0  0  0  0
   12.6755    9.0376   -3.4007 C   0  0  0  0  0  0  0  0  0  0  0  0
   12.3066    8.9784   -4.7416 C   0  0  0  0  0  0  0  0  0  0  0  0
   11.6163    7.8901   -5.2435 C   0  0  0  0  0  0  0  0  0  0  0  0
   11.3197    6.8846   -4.3564 C   0  0  0  0  0  0  0  0  0  0  0  0
   11.6741    6.9221   -3.0295 C   0  0  0  0  0  0  0  0  0  0  0  0
 34 35  2  0
 35 36  1  0
 36 37  2  0
 37 22  1  0
 22 23  1  0
 23 24  2  0
 24 25  1  0
 25 26  2  0
 26 27  1  0
 27 28  2  0
 28  1  1  0
  1  2  2  0
  2  3  1  0
  3  4  2  0
  4  5  1  0
  5  6  2  0
  5  7  1  0
  7  8  1  6
  8  9  1  0
  9 10  2  0
 10 11  1  0
 11 12  2  0
 12 13  1  0
 13 14  2  0
  7 15  1  0
 15 16  1  0
 16 17  1  0
 17 18  1  6
 17 19  1  0
 17 20  1  0
 20 21  1  0
 27 29  1  0
 29 30  1  0
 29 31  1  0
 31 32  2  0
 32 33  1  0
 37 38  1  0
 38 39  2  0
 39 34  1  0
 33 22  2  0
 32 25  1  0
  6  1  1  0
 21  7  1  0
 14  4  1  0
 14  9  1  0
M  CHG  1  17   1
M  END
>  <minimizedAffinity>  (926) 
-16.62384

$$$$
Mol: 185_31 - SminaDock
     RDKit          3D

 41 47  0  0  0  0  0  0  0  0999 V2000
    9.1969    5.9170  -12.6393 C   0  0  0  0  0  0  0  0  0  0  0  0
    7.9739    6.1040  -12.0262 C   0  0  0  0  0  0  0  0  0  0  0  0
    7.0049    5.1454  -12.2379 C   0  0  0  0  0  0  0  0  0  0  0  0
    7.2254    4.0293  -13.0303 C   0  0  0  0  0  0  0  0  0  0  0  0
    8.4278    3.8354  -13.6394 C   0  0  0  0  0  0  0  0  0  0  0  0
    9.4110    4.7892  -13.4366 C   0  0  0  0  0  0  0  0  0  0  0  0
    8.7795    2.6947  -14.5009 C   0  0  1  0  0  0  0  0  0  0  0  0
    9.1318    3.1993  -15.9065 C   0  0  0  0  0  0  0  0  0  0  0  0
   10.0345    1.9990  -13.9920 C   0  0  0  0  0  0  0  0  0  0  0  0
    7.6775    1.7383  -14.6562 C   0  0  0  0  0  0  0  0  0  0  0  0
    6.4371    1.8700  -14.0708 C   0  0  0  0  0  0  0  0  0  0  0  0
    5.6179    0.8011  -14.4121 C   0  0  0  0  0  0  0  0  0  0  0  0
    4.3247    0.4288  -14.1227 C   0  0  0  0  0  0  0  0  0  0  0  0
    3.7841   -0.7284  -14.6325 C   0  0  0  0  0  0  0  0  0  0  0  0
    2.6366   -1.1382  -14.4259 O   0  0  0  0  0  0  0  0  0  0  0  0
    4.6117   -1.4619  -15.4295 N   0  0  0  0  0  0  0  0  0  0  0  0
    4.2684   -2.3559  -15.8531 H   0  0  0  0  0  0  0  0  0  0  0  0
    5.8509   -1.1024  -15.7049 N   0  0  0  0  0  0  0  0  0  0  0  0
    6.4272    0.0155  -15.2345 C   0  0  0  0  0  0  0  0  0  0  0  0
    7.6313    0.5938  -15.3580 N   0  0  0  0  0  0  0  0  0  0  0  0
    8.4104    0.1955  -15.9243 H   0  0  0  0  0  0  0  0  0  0  0  0
    6.1812    3.0353  -13.2334 C   0  0  0  0  0  0  0  0  0  0  0  0
    5.0452    3.1544  -12.6983 O   0  0  0  0  0  0  0  0  0  0  0  0
   11.0562    7.5209   -6.2832 C   0  0  0  0  0  0  0  0  0  0  0  0
   10.0776    6.5942   -6.5747 C   0  0  0  0  0  0  0  0  0  0  0  0
    9.7103    6.2775   -7.8659 C   0  0  0  0  0  0  0  0  0  0  0  0
   10.3346    6.9018   -8.9246 C   0  0  0  0  0  0  0  0  0  0  0  0
   10.0183    6.6339  -10.2088 N   0  0  0  0  0  0  0  0  0  0  0  0
   10.5933    7.2111  -11.2556 C   0  0  0  0  0  0  0  0  0  0  0  0
   10.2182    6.8856  -12.4434 N   0  0  0  0  0  0  0  0  0  0  0  0
   11.5528    8.1208  -11.0151 N   0  0  0  0  0  0  0  0  0  0  0  0
   11.9993    8.5695  -11.8600 H   0  0  0  0  0  0  0  0  0  0  0  0
   11.9261    8.4435   -9.7511 C   0  0  0  0  0  0  0  0  0  0  0  0
   11.3157    7.8322   -8.6800 C   0  0  0  0  0  0  0  0  0  0  0  0
   11.6631    8.1293   -7.3672 C   0  0  0  0  0  0  0  0  0  0  0  0
   12.1613    8.4214   -2.2821 C   0  0  0  0  0  0  0  0  0  0  0  0
   11.9985    9.4522   -3.1933 C   0  0  0  0  0  0  0  0  0  0  0  0
   11.6374    9.1356   -4.4946 C   0  0  0  0  0  0  0  0  0  0  0  0
   11.4345    7.8466   -4.9181 C   0  0  0  0  0  0  0  0  0  0  0  0
   11.6005    6.8360   -4.0002 C   0  0  0  0  0  0  0  0  0  0  0  0
   11.9630    7.1193   -2.6847 C   0  0  0  0  0  0  0  0  0  0  0  0
 36 37  2  0
 37 38  1  0
 38 39  2  0
 39 24  1  0
 24 25  1  0
 25 26  2  0
 26 27  1  0
 27 28  2  0
 28 29  1  0
 29 30  2  0
 30  1  1  0
  1  2  2  0
  2  3  1  0
  3  4  2  0
  4  5  1  0
  5  6  2  0
  5  7  1  0
  7  8  1  6
  7  9  1  0
  7 10  1  0
 10 11  2  0
 11 12  1  0
 12 13  2  0
 13 14  1  0
 14 15  2  0
 14 16  1  0
 16 17  1  0
 16 18  1  0
 18 19  2  0
 19 20  1  0
 20 21  1  0
 11 22  1  0
 22 23  2  0
 29 31  1  0
 31 32  1  0
 31 33  1  0
 33 34  2  0
 34 35  1  0
 39 40  1  0
 40 41  2  0
 41 36  1  0
 35 24  2  0
 34 27  1  0
  6  1  1  0
 20 10  1  0
 22  4  1  0
 19 12  1  0
M  END
>  <minimizedAffinity>  (927) 
-16.55617

$$$$
Mol: 185_54 - SminaDock
     RDKit          3D

 44 51  0  0  0  0  0  0  0  0999 V2000
    8.0258    4.9475  -12.6990 C   0  0  0  0  0  0  0  0  0  0  0  0
    6.8403    4.5631  -12.1164 C   0  0  0  0  0  0  0  0  0  0  0  0
    6.1638    3.4636  -12.5880 C   0  0  0  0  0  0  0  0  0  0  0  0
    6.6724    2.7398  -13.6489 C   0  0  0  0  0  0  0  0  0  0  0  0
    7.8501    3.1187  -14.2257 C   0  0  0  0  0  0  0  0  0  0  0  0
    8.5388    4.2402  -13.7470 C   0  0  0  0  0  0  0  0  0  0  0  0
    8.2163    2.1731  -15.3158 C   0  0  1  0  0  0  0  0  0  0  0  0
    7.0493    1.2914  -15.4185 C   0  0  0  0  0  0  0  0  0  0  0  0
    6.1828    1.5916  -14.4099 C   0  0  0  0  0  0  0  0  0  0  0  0
    5.0219    0.9393  -14.1960 N   0  0  0  0  0  0  0  0  0  0  0  0
    4.3782    1.1886  -13.4154 H   0  0  0  0  0  0  0  0  0  0  0  0
    4.6553   -0.0557  -14.9832 C   0  0  0  0  0  0  0  0  0  0  0  0
    3.5746   -0.6703  -14.7919 O   0  0  0  0  0  0  0  0  0  0  0  0
    5.4486   -0.4269  -16.0149 C   0  0  0  0  0  0  0  0  0  0  0  0
    5.0645   -1.4613  -16.8381 C   0  0  0  0  0  0  0  0  0  0  0  0
    5.8546   -1.8623  -17.9055 C   0  0  0  0  0  0  0  0  0  0  0  0
    7.0333   -1.1982  -18.1201 C   0  0  0  0  0  0  0  0  0  0  0  0
    7.3993   -0.1689  -17.2877 C   0  0  0  0  0  0  0  0  0  0  0  0
    6.6347    0.2473  -16.2235 C   0  0  0  0  0  0  0  0  0  0  0  0
    8.6464    2.8994  -16.5148 C   0  0  0  0  0  0  0  0  0  0  0  0
   10.0613    2.6362  -16.9768 C   0  0  0  0  0  0  0  0  0  0  0  0
   10.9708    2.8871  -15.8609 N   0  0  2  0  0  0  0  0  0  0  0  0
   11.0958    3.8971  -15.6869 H   0  0  0  0  0  0  0  0  0  0  0  0
   11.9408    2.5779  -16.2074 H   0  0  0  0  0  0  0  0  0  0  0  0
   10.6571    2.0688  -14.7400 C   0  0  0  0  0  0  0  0  0  0  0  0
    9.3643    1.3296  -14.7954 C   0  0  0  0  0  0  0  0  0  0  0  0
   11.1548    7.7240   -6.6872 C   0  0  0  0  0  0  0  0  0  0  0  0
   11.3963    8.7127   -7.6506 C   0  0  0  0  0  0  0  0  0  0  0  0
   10.9586    8.5736   -8.9488 C   0  0  0  0  0  0  0  0  0  0  0  0
   10.2583    7.4281   -9.3259 C   0  0  0  0  0  0  0  0  0  0  0  0
   10.0023    6.4331   -8.4020 C   0  0  0  0  0  0  0  0  0  0  0  0
   10.4590    6.6170   -7.1187 C   0  0  0  0  0  0  0  0  0  0  0  0
    9.3047    5.2898   -8.7769 C   0  0  0  0  0  0  0  0  0  0  0  0
    8.8943    5.2081  -10.0871 C   0  0  0  0  0  0  0  0  0  0  0  0
    9.1526    6.2030  -11.0025 C   0  0  0  0  0  0  0  0  0  0  0  0
    8.7534    6.0952  -12.2258 N   0  0  0  0  0  0  0  0  0  0  0  0
    9.8331    7.2985  -10.6000 N   0  0  0  0  0  0  0  0  0  0  0  0
   10.0330    8.0656  -11.3040 H   0  0  0  0  0  0  0  0  0  0  0  0
   12.5406    8.2534   -2.7289 C   0  0  0  0  0  0  0  0  0  0  0  0
   12.6988    9.2043   -3.6626 N   0  0  0  0  0  0  0  0  0  0  0  0
   12.2588    9.0400   -4.9270 C   0  0  0  0  0  0  0  0  0  0  0  0
   11.6254    7.8931   -5.3309 C   0  0  0  0  0  0  0  0  0  0  0  0
   11.4517    6.9048   -4.3923 C   0  0  0  0  0  0  0  0  0  0  0  0
   11.9112    7.0815   -3.0798 C   0  0  0  0  0  0  0  0  0  0  0  0
 39 40  2  0
 40 41  1  0
 41 42  2  0
 42 27  1  0
 27 28  2  0
 28 29  1  0
 29 30  2  0
 30 31  1  0
 31 32  2  0
 31 33  1  0
 33 34  2  0
 34 35  1  0
 35 36  2  0
 36  1  1  0
  1  2  2  0
  2  3  1  0
  3  4  2  0
  4  5  1  0
  5  6  2  0
  5  7  1  0
  7  8  1  0
  8  9  2  0
  9 10  1  0
 10 11  1  0
 10 12  1  0
 12 13  2  0
 12 14  1  0
 14 15  2  0
 15 16  1  0
 16 17  2  0
 17 18  1  0
 18 19  2  0
  7 20  1  6
 20 21  1  0
 21 22  1  0
 22 23  1  1
 22 24  1  0
 22 25  1  0
 25 26  1  0
 35 37  1  0
 37 38  1  0
 42 43  1  0
 43 44  2  0
 44 39  1  0
 32 27  1  0
  6  1  1  0
 26  7  1  0
 37 30  1  0
  9  4  1  0
 19 14  1  0
 19  8  1  0
M  CHG  1  22   1
M  END
>  <minimizedAffinity>  (928) 
-16.62925

$$$$
Mol: 163_10 - SminaDock
     RDKit          3D

 38 44  0  0  0  0  0  0  0  0999 V2000
    9.7598    0.0721  -16.5154 H   0  0  0  0  0  0  0  0  0  0  0  0
    8.9477   -0.4483  -16.1612 O   0  0  0  0  0  0  0  0  0  0  0  0
    8.0381    0.2633  -15.3878 C   0  0  0  0  0  0  0  0  0  0  0  0
    8.3631    1.4197  -14.7895 N   0  0  0  0  0  0  0  0  0  0  0  0
    7.5463    2.1479  -14.0394 C   0  0  0  0  0  0  0  0  0  0  0  0
    6.2514    1.7295  -13.8255 C   0  0  0  0  0  0  0  0  0  0  0  0
    5.8386    0.5517  -14.4050 C   0  0  0  0  0  0  0  0  0  0  0  0
    4.6518   -0.1673  -14.4165 C   0  0  0  0  0  0  0  0  0  0  0  0
    4.8529   -1.2564  -15.1653 N   0  0  0  0  0  0  0  0  0  0  0  0
    6.0808   -1.3005  -15.6417 N   0  0  0  0  0  0  0  0  0  0  0  0
    6.7748   -0.2229  -15.2275 C   0  0  0  0  0  0  0  0  0  0  0  0
    5.2669    2.4667  -13.0059 C   0  0  0  0  0  0  0  0  0  0  0  0
    5.7980    3.7115  -12.4352 C   0  0  0  0  0  0  0  0  0  0  0  0
    5.0834    4.4593  -11.7173 O   0  0  0  0  0  0  0  0  0  0  0  0
    7.1672    4.1422  -12.6679 C   0  0  0  0  0  0  0  0  0  0  0  0
    7.6448    5.3323  -12.1038 C   0  0  0  0  0  0  0  0  0  0  0  0
    8.9399    5.7586  -12.3103 C   0  0  0  0  0  0  0  0  0  0  0  0
    9.7778    4.9918  -13.0901 C   0  0  0  0  0  0  0  0  0  0  0  0
    9.3404    3.8035  -13.6677 C   0  0  0  0  0  0  0  0  0  0  0  0
    8.0413    3.4076  -13.4409 C   0  0  0  0  0  0  0  0  0  0  0  0
    9.3315    6.9725  -11.6960 N   0  0  0  0  0  0  0  0  0  0  0  0
    9.6915    6.9512  -10.4653 C   0  0  0  0  0  0  0  0  0  0  0  0
    9.7057    5.8136   -9.7500 N   0  0  0  0  0  0  0  0  0  0  0  0
   10.0839    5.7869   -8.4508 C   0  0  0  0  0  0  0  0  0  0  0  0
   10.4764    6.9328   -7.7897 C   0  0  0  0  0  0  0  0  0  0  0  0
   10.8692    6.9515   -6.4675 C   0  0  0  0  0  0  0  0  0  0  0  0
   11.2589    8.1060   -5.8220 C   0  0  0  0  0  0  0  0  0  0  0  0
   11.2428    9.2738   -6.5617 C   0  0  0  0  0  0  0  0  0  0  0  0
   10.8481    9.2600   -7.8932 C   0  0  0  0  0  0  0  0  0  0  0  0
   10.4606    8.0984   -8.5274 C   0  0  0  0  0  0  0  0  0  0  0  0
   10.0787    8.0848   -9.8155 N   0  0  0  0  0  0  0  0  0  0  0  0
   10.0780    8.9815  -10.3429 H   0  0  0  0  0  0  0  0  0  0  0  0
   11.6752    8.1240   -4.4145 C   0  0  0  0  0  0  0  0  0  0  0  0
   11.7344    6.9364   -3.6907 C   0  0  0  0  0  0  0  0  0  0  0  0
   12.1082    6.8582   -2.3851 C   0  0  0  0  0  0  0  0  0  0  0  0
   12.4510    8.0095   -1.7259 C   0  0  0  0  0  0  0  0  0  0  0  0
   12.4052    9.2162   -2.4126 C   0  0  0  0  0  0  0  0  0  0  0  0
   12.0195    9.2754   -3.7499 C   0  0  0  0  0  0  0  0  0  0  0  0
  1  2  1  0
  2  3  1  0
  3  4  1  0
  4  5  1  0
  5  6  2  0
  6  7  1  0
  7  8  2  0
  8  9  1  0
  9 10  2  0
 10 11  1  0
  6 12  1  0
 12 13  1  0
 13 14  2  0
 13 15  1  0
 15 16  2  0
 16 17  1  0
 17 21  1  0
 21 22  2  0
 22 23  1  0
 23 24  2  0
 24 25  1  0
 25 26  2  0
 26 27  1  0
 27 33  1  0
 33 34  2  0
 34 35  1  0
 35 36  2  0
 36 37  1  0
 37 38  2  0
 27 28  2  0
 28 29  1  0
 29 30  2  0
 30 31  1  0
 31 32  1  0
 17 18  2  0
 18 19  1  0
 19 20  2  0
 11  3  2  0
 20 15  1  0
 20  5  1  0
 11  7  1  0
 31 22  1  0
 30 25  1  0
 38 33  1  0
M  CHG  1   4  -1
M  END
>  <minimizedAffinity>  (929) 
-16.58805

$$$$
Mol: 162_50 - SminaDock
     RDKit          3D

 40 46  0  0  0  0  0  0  0  0999 V2000
    8.7244    5.6617  -12.2767 C   0  0  0  0  0  0  0  0  0  0  0  0
    9.4903    4.8808  -13.1224 C   0  0  0  0  0  0  0  0  0  0  0  0
    8.8858    3.7575  -13.6362 C   0  0  0  0  0  0  0  0  0  0  0  0
    7.5701    3.4348  -13.3135 C   0  0  0  0  0  0  0  0  0  0  0  0
    6.8349    4.2262  -12.4733 C   0  0  0  0  0  0  0  0  0  0  0  0
    7.4238    5.3717  -11.9380 C   0  0  0  0  0  0  0  0  0  0  0  0
    5.5032    3.8748  -12.1633 N   0  0  0  0  0  0  0  0  0  0  0  0
    4.9534    4.4848  -11.5210 H   0  0  0  0  0  0  0  0  0  0  0  0
    4.8513    2.7125  -12.6861 C   0  0  0  0  0  0  0  0  0  0  0  0
    5.6702    1.8919  -13.5798 C   0  0  0  0  0  0  0  0  0  0  0  0
    6.9702    2.2269  -13.8872 C   0  0  0  0  0  0  0  0  0  0  0  0
    7.4242    1.2800  -14.7170 N   0  0  0  0  0  0  0  0  0  0  0  0
    8.3808    1.2811  -15.1101 H   0  0  0  0  0  0  0  0  0  0  0  0
    6.4667    0.3364  -14.9637 C   0  0  0  0  0  0  0  0  0  0  0  0
    6.5001   -0.7764  -15.7329 N   0  0  0  0  0  0  0  0  0  0  0  0
    5.4213   -1.5616  -15.8218 C   0  0  0  0  0  0  0  0  0  0  0  0
    5.4319   -2.7540  -16.6352 N   0  0  0  0  0  0  0  0  0  0  0  0
    4.5512   -3.0458  -17.0867 H   0  0  0  0  0  0  0  0  0  0  0  0
    6.2854   -3.3284  -16.7849 H   0  0  0  0  0  0  0  0  0  0  0  0
    4.2943   -1.2020  -15.1139 C   0  0  0  0  0  0  0  0  0  0  0  0
    4.2334   -0.0763  -14.3247 C   0  0  0  0  0  0  0  0  0  0  0  0
    5.3646    0.7342  -14.2401 C   0  0  0  0  0  0  0  0  0  0  0  0
   11.3052    8.0338   -5.9061 C   0  0  0  0  0  0  0  0  0  0  0  0
   11.5240    9.1303   -6.7357 C   0  0  0  0  0  0  0  0  0  0  0  0
   11.1656    9.0974   -8.0734 C   0  0  0  0  0  0  0  0  0  0  0  0
   10.5794    7.9824   -8.6382 C   0  0  0  0  0  0  0  0  0  0  0  0
   10.3581    6.8897   -7.8237 C   0  0  0  0  0  0  0  0  0  0  0  0
    9.7709    5.7874   -8.4120 C   0  0  0  0  0  0  0  0  0  0  0  0
    9.4276    5.7698   -9.7148 N   0  0  0  0  0  0  0  0  0  0  0  0
    9.6464    6.8415  -10.5065 C   0  0  0  0  0  0  0  0  0  0  0  0
    9.3198    6.8176  -11.7371 N   0  0  0  0  0  0  0  0  0  0  0  0
   10.2269    7.9372   -9.9344 N   0  0  0  0  0  0  0  0  0  0  0  0
   10.4009    8.7798  -10.5496 H   0  0  0  0  0  0  0  0  0  0  0  0
   10.7189    6.9309   -6.4897 C   0  0  0  0  0  0  0  0  0  0  0  0
   12.4149    8.0595   -1.8031 C   0  0  0  0  0  0  0  0  0  0  0  0
   12.3191    9.2581   -2.4789 C   0  0  0  0  0  0  0  0  0  0  0  0
   11.9563    9.2551   -3.8212 C   0  0  0  0  0  0  0  0  0  0  0  0
   11.6883    8.0859   -4.5001 C   0  0  0  0  0  0  0  0  0  0  0  0
   11.7951    6.9019   -3.7879 C   0  0  0  0  0  0  0  0  0  0  0  0
   12.1529    6.8714   -2.4550 C   0  0  0  0  0  0  0  0  0  0  0  0
 35 36  2  0
 36 37  1  0
 37 38  2  0
 38 23  1  0
 23 24  2  0
 24 25  1  0
 25 26  2  0
 26 27  1  0
 27 28  1  0
 28 29  2  0
 29 30  1  0
 30 31  2  0
 31  1  1  0
  1  2  2  0
  2  3  1  0
  3  4  2  0
  4  5  1  0
  5  6  2  0
  5  7  1  0
  7  8  1  0
  7  9  1  0
  9 10  1  0
 10 11  2  0
 11 12  1  0
 12 13  1  0
 12 14  1  0
 14 15  2  0
 15 16  1  0
 16 17  1  0
 17 18  1  0
 17 19  1  0
 16 20  2  0
 20 21  1  0
 21 22  2  0
 30 32  1  0
 32 33  1  0
 27 34  2  0
 38 39  1  0
 39 40  2  0
 40 35  1  0
 34 23  1  0
 32 26  1  0
  6  1  1  0
 22 10  1  0
 11  4  1  0
 22 14  1  0
M  END
>  <minimizedAffinity>  (930) 
-16.61532

$$$$
Mol: 163_33 - SminaDock
     RDKit          3D

 39 45  0  0  0  0  0  0  0  0999 V2000
    8.7974    5.8543  -12.2731 C   0  0  0  0  0  0  0  0  0  0  0  0
    9.3874    5.3103  -13.4090 C   0  0  0  0  0  0  0  0  0  0  0  0
    8.8234    4.2474  -14.0845 C   0  0  0  0  0  0  0  0  0  0  0  0
    7.6506    3.7307  -13.6049 C   0  0  0  0  0  0  0  0  0  0  0  0
    7.0215    4.2369  -12.4774 C   0  0  0  0  0  0  0  0  0  0  0  0
    7.6166    5.3135  -11.8138 C   0  0  0  0  0  0  0  0  0  0  0  0
    5.7970    3.7127  -11.9988 N   0  0  0  0  0  0  0  0  0  0  0  0
    5.2729    4.2026  -11.2167 H   0  0  0  0  0  0  0  0  0  0  0  0
    5.2210    2.5419  -12.5212 C   0  0  0  0  0  0  0  0  0  0  0  0
    5.8353    2.0459  -13.7397 C   0  0  0  0  0  0  0  0  0  0  0  0
    7.0096    2.5871  -14.2484 C   0  0  0  0  0  0  0  0  0  0  0  0
    7.5320    2.0310  -15.3914 C   0  0  0  0  0  0  0  0  0  0  0  0
    8.5817    2.4735  -15.8923 O   0  0  0  0  0  0  0  0  0  0  0  0
    6.9107    0.9779  -16.0063 N   0  0  0  0  0  0  0  0  0  0  0  0
    7.3523    0.6000  -16.8665 H   0  0  0  0  0  0  0  0  0  0  0  0
    5.7870    0.4701  -15.5101 C   0  0  0  0  0  0  0  0  0  0  0  0
    5.1466   -0.6123  -16.1413 C   0  0  0  0  0  0  0  0  0  0  0  0
    3.9763   -1.1355  -15.6184 C   0  0  0  0  0  0  0  0  0  0  0  0
    3.4014   -0.6073  -14.4561 C   0  0  0  0  0  0  0  0  0  0  0  0
    4.0356    0.4522  -13.8447 C   0  0  0  0  0  0  0  0  0  0  0  0
    5.1963    0.9574  -14.3795 C   0  0  0  0  0  0  0  0  0  0  0  0
   11.3705    8.0311   -5.8133 C   0  0  0  0  0  0  0  0  0  0  0  0
   11.6288    9.1244   -6.6122 C   0  0  0  0  0  0  0  0  0  0  0  0
   11.3008    9.1577   -7.9492 C   0  0  0  0  0  0  0  0  0  0  0  0
   10.6900    8.0666   -8.5309 C   0  0  0  0  0  0  0  0  0  0  0  0
   10.3408    8.0315   -9.8371 N   0  0  0  0  0  0  0  0  0  0  0  0
    9.7475    6.9667  -10.3940 C   0  0  0  0  0  0  0  0  0  0  0  0
    9.4278    6.9465  -11.6189 N   0  0  0  0  0  0  0  0  0  0  0  0
    9.4867    5.8904   -9.6321 N   0  0  0  0  0  0  0  0  0  0  0  0
    9.0274    5.0301  -10.0038 H   0  0  0  0  0  0  0  0  0  0  0  0
    9.8119    5.8601   -8.3115 C   0  0  0  0  0  0  0  0  0  0  0  0
   10.4189    6.9518   -7.7459 C   0  0  0  0  0  0  0  0  0  0  0  0
   10.7619    6.9431   -6.3913 C   0  0  0  0  0  0  0  0  0  0  0  0
   12.4591    8.0786   -1.6701 C   0  0  0  0  0  0  0  0  0  0  0  0
   12.1472    6.9032   -2.3219 C   0  0  0  0  0  0  0  0  0  0  0  0
   11.7975    6.8940   -3.6565 C   0  0  0  0  0  0  0  0  0  0  0  0
   11.7433    8.0590   -4.4023 C   0  0  0  0  0  0  0  0  0  0  0  0
   12.0558    9.2353   -3.7488 C   0  0  0  0  0  0  0  0  0  0  0  0
   12.4050    9.2411   -2.4142 C   0  0  0  0  0  0  0  0  0  0  0  0
 34 35  2  0
 35 36  1  0
 36 37  2  0
 37 22  1  0
 22 23  1  0
 23 24  2  0
 24 25  1  0
 25 26  2  0
 26 27  1  0
 27 28  2  0
 28  1  1  0
  1  2  2  0
  2  3  1  0
  3  4  2  0
  4  5  1  0
  5  6  2  0
  5  7  1  0
  7  8  1  0
  7  9  1  0
  9 10  1  0
 10 11  2  0
 11 12  1  0
 12 13  2  0
 12 14  1  0
 14 15  1  0
 14 16  1  0
 16 17  2  0
 17 18  1  0
 18 19  2  0
 19 20  1  0
 20 21  2  0
 27 29  1  0
 29 30  1  0
 29 31  1  0
 31 32  2  0
 32 33  1  0
 37 38  1  0
 38 39  2  0
 39 34  1  0
 33 22  2  0
 32 25  1  0
  6  1  1  0
 21 10  1  0
 11  4  1  0
 21 16  1  0
M  END
>  <minimizedAffinity>  (931) 
-16.60542

$$$$
Mol: 162_28 - SminaDock
     RDKit          3D

 38 44  0  0  0  0  0  0  0  0999 V2000
    8.9550    5.9881  -12.2786 C   0  0  0  0  0  0  0  0  0  0  0  0
    9.8158    5.1751  -12.9852 C   0  0  0  0  0  0  0  0  0  0  0  0
    9.3357    4.0054  -13.5381 C   0  0  0  0  0  0  0  0  0  0  0  0
    8.0035    3.7038  -13.3546 C   0  0  0  0  0  0  0  0  0  0  0  0
    7.1271    4.4982  -12.6547 C   0  0  0  0  0  0  0  0  0  0  0  0
    7.6271    5.6636  -12.1097 C   0  0  0  0  0  0  0  0  0  0  0  0
    5.7007    4.1956  -12.4465 C   0  0  0  0  0  0  0  0  0  0  0  0
    5.2865    2.9876  -13.0392 O   0  0  0  0  0  0  0  0  0  0  0  0
    6.1374    2.1695  -13.7460 C   0  0  0  0  0  0  0  0  0  0  0  0
    7.4690    2.4565  -13.9379 C   0  0  0  0  0  0  0  0  0  0  0  0
    8.2940    1.6795  -14.6138 O   0  0  0  0  0  0  0  0  0  0  0  0
    7.8168    0.5757  -15.1289 C   0  0  0  0  0  0  0  0  0  0  0  0
    8.5681   -0.2141  -15.7923 O   0  0  0  0  0  0  0  0  0  0  0  0
    6.4987    0.1989  -14.9931 C   0  0  0  0  0  0  0  0  0  0  0  0
    5.9939   -0.9809  -15.5450 C   0  0  0  0  0  0  0  0  0  0  0  0
    4.6617   -1.3097  -15.3773 C   0  0  0  0  0  0  0  0  0  0  0  0
    3.8589   -0.4497  -14.6591 C   0  0  0  0  0  0  0  0  0  0  0  0
    2.6467   -0.7426  -14.5028 O   0  0  0  0  0  0  0  0  0  0  0  0
    4.3510    0.6541  -14.1479 O   0  0  0  0  0  0  0  0  0  0  0  0
    5.6157    0.9911  -14.2927 C   0  0  0  0  0  0  0  0  0  0  0  0
   11.3267    8.1830   -5.8002 C   0  0  0  0  0  0  0  0  0  0  0  0
   11.4039    9.3421   -6.5437 C   0  0  0  0  0  0  0  0  0  0  0  0
   11.0372    9.3758   -7.8734 C   0  0  0  0  0  0  0  0  0  0  0  0
   10.5744    8.2480   -8.5247 C   0  0  0  0  0  0  0  0  0  0  0  0
   10.2175    8.2828   -9.8199 N   0  0  0  0  0  0  0  0  0  0  0  0
    9.7632    7.1747  -10.4568 C   0  0  0  0  0  0  0  0  0  0  0  0
    9.4188    7.1982  -11.6975 N   0  0  0  0  0  0  0  0  0  0  0  0
    9.6893    6.0466   -9.7288 N   0  0  0  0  0  0  0  0  0  0  0  0
    9.3366    5.1697  -10.2086 H   0  0  0  0  0  0  0  0  0  0  0  0
   10.0346    5.9630   -8.4316 C   0  0  0  0  0  0  0  0  0  0  0  0
   10.4966    7.0883   -7.7823 C   0  0  0  0  0  0  0  0  0  0  0  0
   10.8658    7.0535   -6.4432 C   0  0  0  0  0  0  0  0  0  0  0  0
   12.4317    7.9464   -1.7145 C   0  0  0  0  0  0  0  0  0  0  0  0
   12.4388    9.1471   -2.3734 C   0  0  0  0  0  0  0  0  0  0  0  0
   12.0868    9.2820   -3.7087 C   0  0  0  0  0  0  0  0  0  0  0  0
   11.7165    8.1478   -4.3859 C   0  0  0  0  0  0  0  0  0  0  0  0
   11.7047    6.9148   -3.7250 C   0  0  0  0  0  0  0  0  0  0  0  0
   12.0540    6.8022   -2.4124 C   0  0  0  0  0  0  0  0  0  0  0  0
 33 34  2  0
 34 35  1  0
 35 36  2  0
 36 21  1  0
 21 22  1  0
 22 23  2  0
 23 24  1  0
 24 25  2  0
 25 26  1  0
 26 27  2  0
 27  1  1  0
  1  2  2  0
  2  3  1  0
  3  4  2  0
  4  5  1  0
  5  6  2  0
  5  7  1  0
  7  8  1  0
  8  9  1  0
  9 10  2  0
 10 11  1  0
 11 12  1  0
 12 13  2  0
 12 14  1  0
 14 15  1  0
 15 16  2  0
 16 17  1  0
 17 18  2  0
 17 19  1  0
 19 20  1  0
 26 28  1  0
 28 29  1  0
 28 30  1  0
 30 31  2  0
 31 32  1  0
 36 37  1  0
 37 38  2  0
 38 33  1  0
 32 21  2  0
 31 24  1  0
  6  1  1  0
 20  9  1  0
 10  4  1  0
 20 14  2  0
M  END
>  <minimizedAffinity>  (932) 
-16.61478

$$$$
Mol: 196_45 - SminaDock
     RDKit          3D

 44 50  0  0  0  0  0  0  0  0999 V2000
    8.4953    3.0163  -15.0701 N   0  0  0  0  0  0  0  0  0  0  0  0
    7.8637    1.9861  -15.6600 C   0  0  0  0  0  0  0  0  0  0  0  0
    8.4046    1.5229  -16.6573 O   0  0  0  0  0  0  0  0  0  0  0  0
    6.6952    1.5321  -15.1299 C   0  0  0  0  0  0  0  0  0  0  0  0
    6.0185    0.4745  -15.7107 C   0  0  0  0  0  0  0  0  0  0  0  0
    6.5212   -0.1250  -16.8270 C   0  0  0  0  0  0  0  0  0  0  0  0
    5.7999   -1.1927  -17.3799 C   0  0  0  0  0  0  0  0  0  0  0  0
    4.6242   -1.6180  -16.8114 C   0  0  0  0  0  0  0  0  0  0  0  0
    4.1494   -0.9955  -15.6943 C   0  0  0  0  0  0  0  0  0  0  0  0
    4.8286    0.0516  -15.1269 C   0  0  0  0  0  0  0  0  0  0  0  0
    4.3100    0.6473  -14.0013 C   0  0  0  0  0  0  0  0  0  0  0  0
    4.9777    1.6978  -13.4204 C   0  0  0  0  0  0  0  0  0  0  0  0
    6.1509    2.1358  -13.9724 C   0  0  0  0  0  0  0  0  0  0  0  0
    6.8334    3.1939  -13.3966 C   0  0  0  0  0  0  0  0  0  0  0  0
    6.3697    3.8403  -12.2635 C   0  0  0  0  0  0  0  0  0  0  0  0
    7.0784    4.8859  -11.7253 C   0  0  0  0  0  0  0  0  0  0  0  0
    8.2452    5.3200  -12.2761 C   0  0  0  0  0  0  0  0  0  0  0  0
    8.6979    4.6766  -13.3961 C   0  0  0  0  0  0  0  0  0  0  0  0
    8.0201    3.6184  -13.9759 C   0  0  0  0  0  0  0  0  0  0  0  0
    8.9998    6.4085  -11.7311 N   0  0  0  0  0  0  0  0  0  0  0  0
    9.3528    6.4851  -10.5138 C   0  0  0  0  0  0  0  0  0  0  0  0
    9.0060    5.4793   -9.6395 C   0  0  0  0  0  0  0  0  0  0  0  0
    9.3864    5.5592   -8.3209 C   0  0  0  0  0  0  0  0  0  0  0  0
   10.1212    6.6709   -7.9037 C   0  0  0  0  0  0  0  0  0  0  0  0
   10.5056    6.7515   -6.5691 C   0  0  0  0  0  0  0  0  0  0  0  0
   11.2282    7.8247   -6.1132 C   0  0  0  0  0  0  0  0  0  0  0  0
   11.5440    8.7988   -7.0388 C   0  0  0  0  0  0  0  0  0  0  0  0
   11.1706    8.7324   -8.3612 C   0  0  0  0  0  0  0  0  0  0  0  0
   10.4506    7.6605   -8.8099 C   0  0  0  0  0  0  0  0  0  0  0  0
   10.0585    7.5528  -10.1132 N   0  0  0  0  0  0  0  0  0  0  0  0
   10.3343    8.3284  -10.7536 H   0  0  0  0  0  0  0  0  0  0  0  0
   11.6516    7.9454   -4.7123 C   0  0  0  0  0  0  0  0  0  0  0  0
   11.9908    9.1719   -4.1754 C   0  0  0  0  0  0  0  0  0  0  0  0
   12.3848    9.2713   -2.8639 C   0  0  0  0  0  0  0  0  0  0  0  0
   12.4627    8.1769   -2.0260 C   0  0  0  0  0  0  0  0  0  0  0  0
   12.1230    6.9475   -2.5633 C   0  0  0  0  0  0  0  0  0  0  0  0
   11.7243    6.8514   -3.8927 C   0  0  0  0  0  0  0  0  0  0  0  0
   11.7176    1.3897  -14.4198 H   0  0  0  0  0  0  0  0  0  0  0  0
   11.0012    2.1114  -14.2609 O   0  0  0  0  0  0  0  0  0  0  0  0
   10.8966    3.0775  -15.2386 C   0  0  0  0  0  0  0  0  0  0  0  0
    9.7203    3.5002  -15.6165 C   0  0  0  0  0  0  0  0  0  0  0  0
   12.0644    3.6039  -15.8253 N   0  0  0  0  0  0  0  0  0  0  0  0
   12.9685    3.6468  -15.3292 H   0  0  0  0  0  0  0  0  0  0  0  0
   12.0082    3.9639  -16.8002 H   0  0  0  0  0  0  0  0  0  0  0  0
 38 39  1  0
 39 40  1  0
 40 41  2  0
 41  1  1  0
  1  2  1  0
  2  3  2  0
  2  4  1  0
  4  5  2  0
  5  6  1  0
  6  7  2  0
  7  8  1  0
  8  9  2  0
  9 10  1  0
 10 11  2  0
 11 12  1  0
 12 13  2  0
 13 14  1  0
 14 15  2  0
 15 16  1  0
 16 17  2  0
 17 20  1  0
 20 21  2  0
 21 22  1  0
 22 23  2  0
 23 24  1  0
 24 25  2  0
 25 26  1  0
 26 32  1  0
 32 33  2  0
 33 34  1  0
 34 35  2  0
 35 36  1  0
 36 37  2  0
 26 27  2  0
 27 28  1  0
 28 29  2  0
 29 30  1  0
 30 31  1  0
 17 18  1  0
 18 19  2  0
 40 42  1  0
 42 43  1  0
 42 44  1  0
 19  1  1  0
 13  4  1  0
 19 14  1  0
 10  5  1  0
 30 21  1  0
 29 24  1  0
 37 32  1  0
M  END
>  <minimizedAffinity>  (933) 
-16.56330

$$$$
Mol: 188_1 - SminaDock
     RDKit          3D

 37 43  0  0  0  0  0  0  0  0999 V2000
    9.2413    6.5778  -12.2648 C   0  0  0  0  0  0  0  0  0  0  0  0
   10.1548    6.1452  -13.2001 C   0  0  0  0  0  0  0  0  0  0  0  0
    9.8717    5.0330  -13.9223 C   0  0  0  0  0  0  0  0  0  0  0  0
    8.6669    4.3479  -13.7085 C   0  0  0  0  0  0  0  0  0  0  0  0
    7.7440    4.7661  -12.7788 C   0  0  0  0  0  0  0  0  0  0  0  0
    8.0573    5.9202  -12.0420 C   0  0  0  0  0  0  0  0  0  0  0  0
    6.4709    4.0777  -12.5239 C   0  0  0  0  0  0  0  0  0  0  0  0
    6.2594    2.8831  -13.3593 C   0  0  0  0  0  0  0  0  0  0  0  0
    7.1299    2.4024  -14.3060 C   0  0  0  0  0  0  0  0  0  0  0  0
    6.8753    1.2735  -15.0602 C   0  0  0  0  0  0  0  0  0  0  0  0
    5.6942    0.5756  -14.8722 C   0  0  0  0  0  0  0  0  0  0  0  0
    5.4332   -0.5532  -15.6220 C   0  0  0  0  0  0  0  0  0  0  0  0
    4.2468   -1.2111  -15.3980 C   0  0  0  0  0  0  0  0  0  0  0  0
    3.3423   -0.7564  -14.4506 C   0  0  0  0  0  0  0  0  0  0  0  0
    3.6414    0.3673  -13.7291 C   0  0  0  0  0  0  0  0  0  0  0  0
    4.8233    1.0608  -13.9215 C   0  0  0  0  0  0  0  0  0  0  0  0
    5.0695    2.1794  -13.1702 C   0  0  0  0  0  0  0  0  0  0  0  0
    8.3839    3.1583  -14.4938 C   0  0  0  0  0  0  0  0  0  0  0  0
    9.2171    2.7650  -15.3459 O   0  0  0  0  0  0  0  0  0  0  0  0
   11.3831    8.2879   -5.5541 C   0  0  0  0  0  0  0  0  0  0  0  0
   11.3529    9.5265   -6.1795 C   0  0  0  0  0  0  0  0  0  0  0  0
   10.9878    9.6637   -7.5027 C   0  0  0  0  0  0  0  0  0  0  0  0
   10.6367    8.5750   -8.2622 C   0  0  0  0  0  0  0  0  0  0  0  0
   10.2749    8.6892   -9.5657 N   0  0  0  0  0  0  0  0  0  0  0  0
    9.9318    7.6227  -10.3078 C   0  0  0  0  0  0  0  0  0  0  0  0
    9.5928    7.7487  -11.5379 N   0  0  0  0  0  0  0  0  0  0  0  0
    9.9539    6.4158   -9.7235 N   0  0  0  0  0  0  0  0  0  0  0  0
    9.6906    5.5655  -10.2792 H   0  0  0  0  0  0  0  0  0  0  0  0
   10.3067    6.2469   -8.4280 C   0  0  0  0  0  0  0  0  0  0  0  0
   10.6590    7.3337   -7.6624 C   0  0  0  0  0  0  0  0  0  0  0  0
   11.0287    7.1998   -6.3246 C   0  0  0  0  0  0  0  0  0  0  0  0
   12.4914    7.8301   -1.5284 C   0  0  0  0  0  0  0  0  0  0  0  0
   12.1675    6.7297   -2.2811 C   0  0  0  0  0  0  0  0  0  0  0  0
   11.8051    6.8794   -3.5977 C   0  0  0  0  0  0  0  0  0  0  0  0
   11.7672    8.1354   -4.1608 C   0  0  0  0  0  0  0  0  0  0  0  0
   12.0954    9.2262   -3.3895 C   0  0  0  0  0  0  0  0  0  0  0  0
   12.4590    9.0858   -2.0723 C   0  0  0  0  0  0  0  0  0  0  0  0
 32 33  2  0
 33 34  1  0
 34 35  2  0
 35 20  1  0
 20 21  1  0
 21 22  2  0
 22 23  1  0
 23 24  2  0
 24 25  1  0
 25 26  2  0
 26  1  1  0
  1  2  2  0
  2  3  1  0
  3  4  2  0
  4  5  1  0
  5  6  2  0
  5  7  1  0
  7  8  1  0
  8  9  2  0
  9 10  1  0
 10 11  2  0
 11 12  1  0
 12 13  2  0
 13 14  1  0
 14 15  2  0
 15 16  1  0
 16 17  2  0
  9 18  1  0
 18 19  2  0
 25 27  1  0
 27 28  1  0
 27 29  1  0
 29 30  2  0
 30 31  1  0
 35 36  1  0
 36 37  2  0
 37 32  1  0
 31 20  2  0
 30 23  1  0
  6  1  1  0
 17  8  1  0
 18  4  1  0
 16 11  1  0
M  END
>  <minimizedAffinity>  (934) 
-16.58684

$$$$
Mol: 186_41 - SminaDock
     RDKit          3D

 43 50  0  0  0  0  0  0  0  0999 V2000
   11.0056    2.0408  -19.1665 H   0  0  0  0  0  0  0  0  0  0  0  0
   10.2255    2.5281  -18.7317 O   0  0  0  0  0  0  0  0  0  0  0  0
    9.8163    2.2213  -17.4347 C   0  0  0  0  0  0  0  0  0  0  0  0
   10.4689    1.5552  -16.5535 N   0  0  0  0  0  0  0  0  0  0  0  0
    9.7526    1.4306  -15.3358 C   0  0  0  0  0  0  0  0  0  0  0  0
   10.2300    0.9157  -14.2926 O   0  0  0  0  0  0  0  0  0  0  0  0
    8.4066    2.0127  -15.5792 C   0  0  2  0  0  0  0  0  0  0  0  0
    8.0212    2.9835  -14.5468 C   0  0  0  0  0  0  0  0  0  0  0  0
    8.6702    4.1295  -14.1371 C   0  0  0  0  0  0  0  0  0  0  0  0
    8.1407    4.9238  -13.1352 C   0  0  0  0  0  0  0  0  0  0  0  0
    6.9395    4.5196  -12.5672 C   0  0  0  0  0  0  0  0  0  0  0  0
    6.2921    3.3730  -12.9787 C   0  0  0  0  0  0  0  0  0  0  0  0
    6.8081    2.5726  -13.9751 C   0  0  0  0  0  0  0  0  0  0  0  0
    6.4041    1.3380  -14.6323 C   0  0  0  0  0  0  0  0  0  0  0  0
    7.3465    1.0057  -15.5795 C   0  0  0  0  0  0  0  0  0  0  0  0
    7.1746   -0.1378  -16.3369 C   0  0  0  0  0  0  0  0  0  0  0  0
    6.0766   -0.9560  -16.1643 C   0  0  0  0  0  0  0  0  0  0  0  0
    5.1601   -0.5962  -15.2150 C   0  0  0  0  0  0  0  0  0  0  0  0
    5.2996    0.5555  -14.4276 C   0  0  0  0  0  0  0  0  0  0  0  0
    4.2059    0.5681  -13.6167 C   0  0  0  0  0  0  0  0  0  0  0  0
    3.4309   -0.5006  -13.8745 N   0  0  0  0  0  0  0  0  0  0  0  0
    4.0052   -1.1861  -14.8247 N   0  0  0  0  0  0  0  0  0  0  0  0
    3.6178   -2.0712  -15.2246 H   0  0  0  0  0  0  0  0  0  0  0  0
    8.5718    2.6169  -16.8820 N   0  0  0  0  0  0  0  0  0  0  0  0
    7.8900    3.2362  -17.3333 H   0  0  0  0  0  0  0  0  0  0  0  0
    8.7831    6.1104  -12.6891 N   0  0  0  0  0  0  0  0  0  0  0  0
    9.1410    6.1740  -11.4585 C   0  0  0  0  0  0  0  0  0  0  0  0
    8.9287    5.1685  -10.5984 N   0  0  0  0  0  0  0  0  0  0  0  0
    9.3224    5.2709   -9.2941 C   0  0  0  0  0  0  0  0  0  0  0  0
    9.9462    6.4261   -8.8609 C   0  0  0  0  0  0  0  0  0  0  0  0
   10.3582    6.5597   -7.5390 C   0  0  0  0  0  0  0  0  0  0  0  0
   10.9821    7.7006   -7.0810 C   0  0  0  0  0  0  0  0  0  0  0  0
   11.1803    8.7101   -7.9998 C   0  0  0  0  0  0  0  0  0  0  0  0
   10.7766    8.5883   -9.3109 C   0  0  0  0  0  0  0  0  0  0  0  0
   10.1560    7.4483   -9.7577 C   0  0  0  0  0  0  0  0  0  0  0  0
    9.7463    7.2904  -11.0305 N   0  0  0  0  0  0  0  0  0  0  0  0
    9.9286    8.0985  -11.6788 H   0  0  0  0  0  0  0  0  0  0  0  0
   11.4270    7.8681   -5.6915 C   0  0  0  0  0  0  0  0  0  0  0  0
   12.0115    9.0346   -5.2500 C   0  0  0  0  0  0  0  0  0  0  0  0
   12.4037    9.1159   -3.9281 C   0  0  0  0  0  0  0  0  0  0  0  0
   12.2224    8.0646   -3.0564 C   0  0  0  0  0  0  0  0  0  0  0  0
   11.6335    6.8826   -3.4918 C   0  0  0  0  0  0  0  0  0  0  0  0
   11.2546    6.8278   -4.8033 C   0  0  0  0  0  0  0  0  0  0  0  0
  1  2  1  0
  2  3  1  0
  3  4  2  0
  4  5  1  0
  5  6  2  0
  5  7  1  0
  7  8  1  0
  8  9  2  0
  9 10  1  0
 10 26  1  0
 26 27  2  0
 27 28  1  0
 28 29  2  0
 29 30  1  0
 30 31  2  0
 31 32  1  0
 32 38  1  0
 38 39  2  0
 39 40  1  0
 40 41  2  0
 41 42  1  0
 42 43  2  0
 32 33  2  0
 33 34  1  0
 34 35  2  0
 35 36  1  0
 36 37  1  0
 10 11  2  0
 11 12  1  0
 12 13  2  0
 13 14  1  0
 14 15  2  0
 15 16  1  0
 16 17  2  0
 17 18  1  0
 18 19  2  0
 19 20  1  0
 20 21  2  0
 21 22  1  0
 22 23  1  0
  7 24  1  6
 24 25  1  0
 24  3  1  0
 15  7  1  0
 22 18  1  0
 13  8  1  0
 19 14  1  0
 36 27  1  0
 35 30  1  0
 43 38  1  0
M  END
>  <minimizedAffinity>  (935) 
-16.62261

$$$$
Mol: 186_15 - SminaDock
     RDKit          3D

 38 44  0  0  0  0  0  0  0  0999 V2000
    8.7695    5.9578  -12.4090 C   0  0  0  0  0  0  0  0  0  0  0  0
    9.4246    5.3220  -13.4362 C   0  0  0  0  0  0  0  0  0  0  0  0
    8.8980    4.1941  -14.0603 C   0  0  0  0  0  0  0  0  0  0  0  0
    7.6778    3.6934  -13.6377 C   0  0  0  0  0  0  0  0  0  0  0  0
    7.0014    4.3030  -12.6177 C   0  0  0  0  0  0  0  0  0  0  0  0
    7.5675    5.4430  -12.0112 C   0  0  0  0  0  0  0  0  0  0  0  0
    5.7149    3.8115  -12.1252 C   0  0  0  0  0  0  0  0  0  0  0  0
    5.0983    2.6601  -12.7895 C   0  0  0  0  0  0  0  0  0  0  0  0
    5.8677    2.0175  -13.8725 C   0  0  0  0  0  0  0  0  0  0  0  0
    5.2859    0.9073  -14.4465 C   0  0  0  0  0  0  0  0  0  0  0  0
    5.9713    0.2856  -15.4683 C   0  0  0  0  0  0  0  0  0  0  0  0
    7.1901    0.7749  -15.8820 C   0  0  0  0  0  0  0  0  0  0  0  0
    7.7682    1.8996  -15.2924 C   0  0  0  0  0  0  0  0  0  0  0  0
    7.0942    2.5154  -14.2835 C   0  0  0  0  0  0  0  0  0  0  0  0
    7.7230   -0.0113  -16.9431 N   0  0  0  0  0  0  0  0  0  0  0  0
    8.9765    0.1845  -17.6395 C   0  0  0  0  0  0  0  0  0  0  0  0
    6.7723   -1.0518  -17.2005 C   0  0  0  0  0  0  0  0  0  0  0  0
    6.9182   -1.9388  -18.0825 O   0  0  0  0  0  0  0  0  0  0  0  0
    5.6491   -0.8949  -16.2842 C   0  0  0  0  0  0  0  0  0  0  0  0
    4.6289   -1.6177  -16.2136 O   0  0  0  0  0  0  0  0  0  0  0  0
   11.2727    8.0514   -5.9053 C   0  0  0  0  0  0  0  0  0  0  0  0
   11.3987    9.2007   -6.6675 C   0  0  0  0  0  0  0  0  0  0  0  0
   11.0279    9.2393   -7.9958 C   0  0  0  0  0  0  0  0  0  0  0  0
   10.5099    8.1143   -8.6206 C   0  0  0  0  0  0  0  0  0  0  0  0
   10.3830    6.9678   -7.8650 C   0  0  0  0  0  0  0  0  0  0  0  0
    9.8642    5.8504   -8.4995 C   0  0  0  0  0  0  0  0  0  0  0  0
    9.5152    5.9248   -9.7887 N   0  0  0  0  0  0  0  0  0  0  0  0
    9.6356    7.0391  -10.5337 C   0  0  0  0  0  0  0  0  0  0  0  0
    9.3056    7.1205  -11.7627 N   0  0  0  0  0  0  0  0  0  0  0  0
   10.1438    8.1362   -9.9140 N   0  0  0  0  0  0  0  0  0  0  0  0
   10.2391    9.0045  -10.4891 H   0  0  0  0  0  0  0  0  0  0  0  0
   10.7569    6.9357   -6.5324 C   0  0  0  0  0  0  0  0  0  0  0  0
   12.4315    7.9543   -1.8221 C   0  0  0  0  0  0  0  0  0  0  0  0
   12.3764    9.1602   -2.4902 C   0  0  0  0  0  0  0  0  0  0  0  0
   12.0028    9.1962   -3.8077 C   0  0  0  0  0  0  0  0  0  0  0  0
   11.6740    8.0420   -4.4996 C   0  0  0  0  0  0  0  0  0  0  0  0
   11.7432    6.8534   -3.7882 C   0  0  0  0  0  0  0  0  0  0  0  0
   12.1082    6.7712   -2.4825 C   0  0  0  0  0  0  0  0  0  0  0  0
 33 34  2  0
 34 35  1  0
 35 36  2  0
 36 21  1  0
 21 22  2  0
 22 23  1  0
 23 24  2  0
 24 25  1  0
 25 26  1  0
 26 27  2  0
 27 28  1  0
 28 29  2  0
 29  1  1  0
  1  2  2  0
  2  3  1  0
  3  4  2  0
  4  5  1  0
  5  6  2  0
  5  7  1  0
  7  8  1  0
  8  9  1  0
  9 10  2  0
 10 11  1  0
 11 12  2  0
 12 13  1  0
 13 14  2  0
 12 15  1  0
 15 16  1  0
 15 17  1  0
 17 18  2  0
 17 19  1  0
 19 20  2  0
 28 30  1  0
 30 31  1  0
 25 32  2  0
 36 37  1  0
 37 38  2  0
 38 33  1  0
 32 21  1  0
 30 24  1  0
  6  1  1  0
 14  9  1  0
 14  4  1  0
 19 11  1  0
M  END
>  <minimizedAffinity>  (936) 
-16.59411

$$$$
Mol: 124_30 - SminaDock
     RDKit          3D

 41 48  0  0  0  0  0  0  0  0999 V2000
    9.1239    7.4870  -12.1352 C   0  0  0  0  0  0  0  0  0  0  0  0
    8.3173    8.5868  -12.2349 C   0  0  0  0  0  0  0  0  0  0  0  0
    6.9599    8.4488  -12.5625 C   0  0  0  0  0  0  0  0  0  0  0  0
    6.4540    7.1873  -12.7825 C   0  0  0  0  0  0  0  0  0  0  0  0
    7.2334    6.0532  -12.6926 C   0  0  0  0  0  0  0  0  0  0  0  0
    8.5531    6.2085  -12.3721 C   0  0  0  0  0  0  0  0  0  0  0  0
    6.6862    4.7159  -12.9228 C   0  0  0  0  0  0  0  0  0  0  0  0
    5.5264    4.2596  -12.3359 C   0  0  0  0  0  0  0  0  0  0  0  0
    5.0194    2.9899  -12.5731 C   0  0  0  0  0  0  0  0  0  0  0  0
    5.6683    2.1194  -13.4210 C   0  0  0  0  0  0  0  0  0  0  0  0
    6.8313    2.5734  -14.0107 C   0  0  0  0  0  0  0  0  0  0  0  0
    7.3381    3.8287  -13.7798 C   0  0  0  0  0  0  0  0  0  0  0  0
    7.6409    1.7569  -14.9513 C   0  0  1  0  0  0  0  0  0  0  0  0
    9.1054    1.7848  -14.9578 C   0  0  0  0  0  0  0  0  0  0  0  0
    8.4236    0.5881  -14.3334 C   0  0  0  0  0  0  0  0  0  0  0  0
    6.8394    1.4761  -16.1998 C   0  0  0  0  0  0  0  0  0  0  0  0
    5.6992    0.5865  -16.0054 C   0  0  0  0  0  0  0  0  0  0  0  0
    5.4192   -0.0569  -17.2134 C   0  0  0  0  0  0  0  0  0  0  0  0
    4.3997   -0.9619  -17.3692 C   0  0  0  0  0  0  0  0  0  0  0  0
    3.6189   -1.2425  -16.2712 C   0  0  0  0  0  0  0  0  0  0  0  0
    3.8866   -0.6071  -15.0572 C   0  0  0  0  0  0  0  0  0  0  0  0
    4.9165    0.2998  -14.9201 C   0  0  0  0  0  0  0  0  0  0  0  0
    4.9709    0.8100  -13.5509 C   0  0  0  0  0  0  0  0  0  0  0  0
   10.4911    7.5536  -11.7830 N   0  0  0  0  0  0  0  0  0  0  0  0
   11.2072    7.4895  -12.5861 H   0  0  0  0  0  0  0  0  0  0  0  0
   11.3236    7.6528   -5.4266 C   0  0  0  0  0  0  0  0  0  0  0  0
   10.1497    7.0239   -5.7723 C   0  0  0  0  0  0  0  0  0  0  0  0
    9.7514    6.8729   -7.0939 C   0  0  0  0  0  0  0  0  0  0  0  0
   10.5325    7.3569   -8.1390 C   0  0  0  0  0  0  0  0  0  0  0  0
   10.1683    7.2223   -9.4196 N   0  0  0  0  0  0  0  0  0  0  0  0
   10.9300    7.6961  -10.4650 C   0  0  0  0  0  0  0  0  0  0  0  0
   12.0670    8.3047  -10.1276 N   0  0  0  0  0  0  0  0  0  0  0  0
   12.4698    8.4612   -8.8613 C   0  0  0  0  0  0  0  0  0  0  0  0
   11.7063    7.9864   -7.8043 C   0  0  0  0  0  0  0  0  0  0  0  0
   12.0946    8.1326   -6.4940 C   0  0  0  0  0  0  0  0  0  0  0  0
   12.6367    8.2188   -1.4454 C   0  0  0  0  0  0  0  0  0  0  0  0
   12.4685    6.9291   -1.9180 C   0  0  0  0  0  0  0  0  0  0  0  0
   12.0394    6.7785   -3.2202 C   0  0  0  0  0  0  0  0  0  0  0  0
   11.7759    7.8288   -4.0538 C   0  0  0  0  0  0  0  0  0  0  0  0
   11.9474    9.0705   -3.5704 N   0  0  0  0  0  0  0  0  0  0  0  0
   12.3713    9.2781   -2.2866 C   0  0  0  0  0  0  0  0  0  0  0  0
 36 37  2  0
 37 38  1  0
 38 39  2  0
 39 26  1  0
 26 27  2  0
 27 28  1  0
 28 29  2  0
 29 30  1  0
 30 31  2  0
 31 24  1  0
 24  1  1  0
  1  2  2  0
  2  3  1  0
  3  4  2  0
  4  5  1  0
  5  7  1  0
  7  8  2  0
  8  9  1  0
  9 10  2  0
 10 11  1  0
 11 12  2  0
 11 13  1  0
 13 14  1  6
 14 15  1  0
 13 16  1  0
 16 17  1  0
 17 18  2  0
 18 19  1  0
 19 20  2  0
 20 21  1  0
 21 22  2  0
 22 23  1  0
  5  6  2  0
 31 32  1  0
 32 33  2  0
 33 34  1  0
 34 35  2  0
 39 40  1  0
 40 41  2  0
 41 36  1  0
 35 26  1  0
 34 29  1  0
  6  1  1  0
 12  7  1  0
 15 13  1  0
 22 17  1  0
 23 10  1  0
 24 25  1  0
M  END
>  <minimizedAffinity>  (937) 
-16.62888

$$$$
Mol: 125_20 - SminaDock
     RDKit          3D

 40 45  0  0  0  0  0  0  0  0999 V2000
    3.5796   -1.6484  -16.4252 H   0  0  0  0  0  0  0  0  0  0  0  0
    4.2941   -1.6184  -15.6851 O   0  0  0  0  0  0  0  0  0  0  0  0
    4.1616   -0.5958  -14.7693 C   0  0  0  0  0  0  0  0  0  0  0  0
    5.1084    0.3288  -14.6644 C   0  0  0  0  0  0  0  0  0  0  0  0
    6.2300    0.2424  -15.4946 C   0  0  0  0  0  0  0  0  0  0  0  0
    7.1999    1.2121  -15.3696 C   0  0  0  0  0  0  0  0  0  0  0  0
    7.0277    2.2332  -14.4290 C   0  0  0  0  0  0  0  0  0  0  0  0
    5.9192    2.3084  -13.6163 C   0  0  0  0  0  0  0  0  0  0  0  0
    4.9545    1.3418  -13.7426 C   0  0  0  0  0  0  0  0  0  0  0  0
    5.6141    3.3228  -12.5773 C   0  0  0  0  0  0  0  0  0  0  0  0
    5.8945    4.7409  -13.0154 C   0  0  0  0  0  0  0  0  0  0  0  0
    7.3737    4.9892  -13.0635 C   0  0  0  0  0  0  0  0  0  0  0  0
    7.7834    6.1036  -12.3653 C   0  0  0  0  0  0  0  0  0  0  0  0
    9.1233    6.4745  -12.3083 C   0  0  0  0  0  0  0  0  0  0  0  0
   10.0957    5.7384  -12.9505 C   0  0  0  0  0  0  0  0  0  0  0  0
    9.6928    4.6219  -13.6510 C   0  0  0  0  0  0  0  0  0  0  0  0
    8.3665    4.2557  -13.7070 C   0  0  0  0  0  0  0  0  0  0  0  0
    8.0880    3.0521  -14.4876 C   0  0  0  0  0  0  0  0  0  0  0  0
    9.5320    7.6339  -11.5804 N   0  0  0  0  0  0  0  0  0  0  0  0
    9.8800    7.5384  -10.3229 C   0  0  0  0  0  0  0  0  0  0  0  0
    9.8421    6.2968   -9.7226 C   0  0  0  0  0  0  0  0  0  0  0  0
   10.2011    6.2095   -8.4369 N   0  0  0  0  0  0  0  0  0  0  0  0
   10.5983    7.2806   -7.7018 C   0  0  0  0  0  0  0  0  0  0  0  0
   10.9630    7.1579   -6.3773 C   0  0  0  0  0  0  0  0  0  0  0  0
   11.3725    8.2510   -5.6148 C   0  0  0  0  0  0  0  0  0  0  0  0
   11.3969    9.4721   -6.2494 C   0  0  0  0  0  0  0  0  0  0  0  0
   11.0325    9.6104   -7.5817 C   0  0  0  0  0  0  0  0  0  0  0  0
   10.6303    8.5188   -8.3204 C   0  0  0  0  0  0  0  0  0  0  0  0
   10.2679    8.6177   -9.6244 N   0  0  0  0  0  0  0  0  0  0  0  0
   10.2947    9.5502  -10.0811 H   0  0  0  0  0  0  0  0  0  0  0  0
   11.7550    8.1106   -4.2184 C   0  0  0  0  0  0  0  0  0  0  0  0
   12.1075    9.2255   -3.4931 C   0  0  0  0  0  0  0  0  0  0  0  0
   12.4708    9.0578   -2.1516 C   0  0  0  0  0  0  0  0  0  0  0  0
   12.4783    7.8061   -1.5606 C   0  0  0  0  0  0  0  0  0  0  0  0
   12.1241    6.6949   -2.2938 C   0  0  0  0  0  0  0  0  0  0  0  0
   11.7632    6.8656   -3.6281 C   0  0  0  0  0  0  0  0  0  0  0  0
    3.0053   -0.5517  -13.9498 N   0  0  0  0  0  0  0  0  0  0  0  0
    2.6421    0.3759  -13.6058 H   0  0  0  0  0  0  0  0  0  0  0  0
    2.3254   -1.6565  -13.5749 O   0  0  0  0  0  0  0  0  0  0  0  0
    1.3503   -1.4174  -13.6136 H   0  0  0  0  0  0  0  0  0  0  0  0
  1  2  1  0
  2  3  1  0
  3  4  2  0
  4  5  1  0
  5  6  2  0
  6  7  1  0
  7  8  1  0
  8  9  2  0
  8 10  1  0
 10 11  1  0
 11 12  1  0
 12 13  2  0
 13 14  1  0
 14 19  1  0
 19 20  2  0
 20 21  1  0
 21 22  2  0
 22 23  1  0
 23 24  2  0
 24 25  1  0
 25 31  1  0
 31 32  2  0
 32 33  1  0
 33 34  2  0
 34 35  1  0
 35 36  2  0
 25 26  2  0
 26 27  1  0
 27 28  2  0
 28 29  1  0
 29 30  1  0
 14 15  2  0
 15 16  1  0
 16 17  2  0
 17 18  1  0
  3 37  1  0
 37 38  1  0
 37 39  1  0
 39 40  1  0
  9  4  1  0
 17 12  1  0
 18  7  2  0
 29 20  1  0
 28 23  1  0
 36 31  1  0
M  END
>  <minimizedAffinity>  (938) 
-16.58105

$$$$
Mol: 123_42 - SminaDock
     RDKit          3D

 35 40  0  0  0  0  0  0  0  0999 V2000
   11.2719    8.1225   -5.9186 C   0  0  0  0  0  0  0  0  0  0  0  0
   11.2973    9.3127   -6.6369 C   0  0  0  0  0  0  0  0  0  0  0  0
   10.9099    9.3604   -7.9635 C   0  0  0  0  0  0  0  0  0  0  0  0
   10.4845    8.2321   -8.6239 C   0  0  0  0  0  0  0  0  0  0  0  0
   10.4523    7.0328   -7.9218 C   0  0  0  0  0  0  0  0  0  0  0  0
   10.0216    5.9248   -8.6145 C   0  0  0  0  0  0  0  0  0  0  0  0
    9.6404    5.9446   -9.9024 N   0  0  0  0  0  0  0  0  0  0  0  0
    9.6857    7.1385  -10.5565 C   0  0  0  0  0  0  0  0  0  0  0  0
    9.3233    7.1562  -11.7809 N   0  0  0  0  0  0  0  0  0  0  0  0
   10.0992    8.2486   -9.9232 N   0  0  0  0  0  0  0  0  0  0  0  0
   10.1433    9.1798  -10.4041 H   0  0  0  0  0  0  0  0  0  0  0  0
   10.8422    7.0006   -6.5972 C   0  0  0  0  0  0  0  0  0  0  0  0
    8.8865    6.0207  -12.4752 C   0  0  0  0  0  0  0  0  0  0  0  0
    9.7360    5.2589  -13.2445 C   0  0  0  0  0  0  0  0  0  0  0  0
    9.2631    4.1528  -13.9090 C   0  0  0  0  0  0  0  0  0  0  0  0
    7.9244    3.7866  -13.8156 C   0  0  0  0  0  0  0  0  0  0  0  0
    7.0891    4.5413  -13.0550 C   0  0  0  0  0  0  0  0  0  0  0  0
    7.5556    5.6637  -12.3772 C   0  0  0  0  0  0  0  0  0  0  0  0
    5.6371    4.3305  -12.8189 C   0  0  0  0  0  0  0  0  0  0  0  0
    5.5124    2.9518  -12.1750 C   0  0  0  0  0  0  0  0  0  0  0  0
    5.5470    1.9369  -13.2612 C   0  0  0  0  0  0  0  0  0  0  0  0
    6.4849    1.8172  -14.2688 C   0  0  0  0  0  0  0  0  0  0  0  0
    6.3134    0.7905  -15.1741 C   0  0  0  0  0  0  0  0  0  0  0  0
    5.2975   -0.0839  -15.1254 N   0  0  0  0  0  0  0  0  0  0  0  0
    5.1906   -1.1284  -16.1101 C   0  0  0  0  0  0  0  0  0  0  0  0
    4.3764    0.0148  -14.1552 C   0  0  0  0  0  0  0  0  0  0  0  0
    3.4247   -0.8035  -14.1089 O   0  0  0  0  0  0  0  0  0  0  0  0
    4.5091    1.0397  -13.2155 C   0  0  0  0  0  0  0  0  0  0  0  0
    7.7039    2.5868  -14.6163 C   0  0  0  0  0  0  0  0  0  0  0  0
   12.4447    7.9311   -1.8598 C   0  0  0  0  0  0  0  0  0  0  0  0
   12.4107    9.1415   -2.5117 C   0  0  0  0  0  0  0  0  0  0  0  0
   12.0208    9.1842   -3.8519 C   0  0  0  0  0  0  0  0  0  0  0  0
   11.6710    8.0435   -4.5314 C   0  0  0  0  0  0  0  0  0  0  0  0
   11.7115    6.8442   -3.8626 C   0  0  0  0  0  0  0  0  0  0  0  0
   12.0983    6.7755   -2.5211 C   0  0  0  0  0  0  0  0  0  0  0  0
 30 31  2  0
 31 32  1  0
 32 33  2  0
 33  1  1  0
  1  2  2  0
  2  3  1  0
  3  4  2  0
  4  5  1  0
  5  6  1  0
  6  7  2  0
  7  8  1  0
  8  9  2  0
  9 13  1  0
 13 14  2  0
 14 15  1  0
 15 16  2  0
 16 17  1  0
 17 18  2  0
 17 19  1  0
 19 20  1  0
 20 21  1  0
 21 22  1  0
 22 23  2  0
 23 24  1  0
 24 25  1  0
 24 26  1  0
 26 27  2  0
 26 28  1  0
 22 29  1  0
  8 10  1  0
 10 11  1  0
  5 12  2  0
 33 34  1  0
 34 35  2  0
 35 30  1  0
 12  1  1  0
 10  4  1  0
 18 13  1  0
 28 21  2  0
 29 16  1  0
M  END
>  <minimizedAffinity>  (939) 
-16.63909

$$$$
Mol: 80_13 - SminaDock
     RDKit          3D

 44 50  0  0  0  0  0  0  0  0999 V2000
    4.5359   -0.2880  -11.2004 H   0  0  0  0  0  0  0  0  0  0  0  0
    4.9837    0.6300  -11.3237 O   0  0  0  0  0  0  0  0  0  0  0  0
    5.3291    0.9458  -12.6491 C   0  0  0  0  0  0  0  0  0  0  0  0
    5.5561   -0.0877  -13.3825 N   0  0  0  0  0  0  0  0  0  0  0  0
    5.9294   -0.0738  -14.7778 C   0  0  0  0  0  0  0  0  0  0  0  0
    5.5037   -1.1360  -15.5069 C   0  0  0  0  0  0  0  0  0  0  0  0
    5.7924   -1.1978  -16.8650 C   0  0  0  0  0  0  0  0  0  0  0  0
    6.5184   -0.1672  -17.4748 C   0  0  0  0  0  0  0  0  0  0  0  0
    6.9547    0.9143  -16.7458 C   0  0  0  0  0  0  0  0  0  0  0  0
    6.6510    0.9324  -15.4187 C   0  0  0  0  0  0  0  0  0  0  0  0
    7.1758    2.1212  -14.7464 C   0  0  0  0  0  0  0  0  0  0  0  0
    8.3383    2.5388  -15.3333 C   0  0  0  0  0  0  0  0  0  0  0  0
    8.9286    3.6817  -14.7917 C   0  0  0  0  0  0  0  0  0  0  0  0
    8.4015    4.3765  -13.7255 C   0  0  0  0  0  0  0  0  0  0  0  0
    7.2232    3.9145  -13.1618 C   0  0  0  0  0  0  0  0  0  0  0  0
    6.6027    2.7981  -13.6552 C   0  0  0  0  0  0  0  0  0  0  0  0
    5.3670    2.3935  -12.9522 C   0  0  0  0  0  0  0  0  0  0  0  0
    9.0735    5.5290  -13.2463 N   0  0  0  0  0  0  0  0  0  0  0  0
    9.3237    5.8063  -12.0461 C   0  0  0  0  0  0  0  0  0  0  0  0
    8.9442    4.9635  -11.0300 C   0  0  0  0  0  0  0  0  0  0  0  0
    9.2221    5.2745   -9.6912 C   0  0  0  0  0  0  0  0  0  0  0  0
    9.8873    6.4478   -9.4070 C   0  0  0  0  0  0  0  0  0  0  0  0
   10.1945    6.8205   -8.1163 C   0  0  0  0  0  0  0  0  0  0  0  0
   10.8508    7.9807   -7.8474 C   0  0  0  0  0  0  0  0  0  0  0  0
   11.2255    8.8164   -8.8778 C   0  0  0  0  0  0  0  0  0  0  0  0
   10.9152    8.4377  -10.1645 C   0  0  0  0  0  0  0  0  0  0  0  0
   10.2493    7.2609  -10.4399 C   0  0  0  0  0  0  0  0  0  0  0  0
    9.9685    6.9369  -11.7245 N   0  0  0  0  0  0  0  0  0  0  0  0
   10.2752    7.6042  -12.4500 H   0  0  0  0  0  0  0  0  0  0  0  0
   11.1711    8.3660   -6.4701 C   0  0  0  0  0  0  0  0  0  0  0  0
   11.1859    9.6634   -6.0694 C   0  0  0  0  0  0  0  0  0  0  0  0
   11.4891   10.0010   -4.7715 C   0  0  0  0  0  0  0  0  0  0  0  0
   11.7882    9.0314   -3.8339 C   0  0  0  0  0  0  0  0  0  0  0  0
   12.0957    9.3416   -2.5264 C   0  0  0  0  0  0  0  0  0  0  0  0
   12.3866    8.3050   -1.6399 C   0  0  0  0  0  0  0  0  0  0  0  0
   12.3728    6.9723   -2.0459 C   0  0  0  0  0  0  0  0  0  0  0  0
   12.0649    6.6809   -3.3508 C   0  0  0  0  0  0  0  0  0  0  0  0
   11.7793    7.6950   -4.2222 C   0  0  0  0  0  0  0  0  0  0  0  0
   11.4707    7.3885   -5.5333 C   0  0  0  0  0  0  0  0  0  0  0  0
    5.3199   -2.3528  -17.6150 C   0  0  0  0  0  0  0  0  0  0  0  0
    6.0686   -3.3187  -17.8580 O   0  0  0  0  0  0  0  0  0  0  0  0
    3.9737   -2.3396  -18.0604 N   0  0  0  0  0  0  0  0  0  0  0  0
    3.1967   -2.0782  -17.4222 H   0  0  0  0  0  0  0  0  0  0  0  0
    3.7446   -2.5915  -19.0323 H   0  0  0  0  0  0  0  0  0  0  0  0
  1  2  1  0
  2  3  1  0
  3  4  2  0
  4  5  1  0
  5  6  2  0
  6  7  1  0
  7 40  1  0
 40 41  2  0
 40 42  1  0
 42 43  1  0
 42 44  1  0
  7  8  2  0
  8  9  1  0
  9 10  2  0
 10 11  1  0
 11 12  2  0
 12 13  1  0
 13 14  2  0
 14 18  1  0
 18 19  2  0
 19 20  1  0
 20 21  2  0
 21 22  1  0
 22 23  2  0
 23 24  1  0
 24 30  1  0
 30 31  2  0
 31 32  1  0
 32 33  2  0
 33 34  1  0
 34 35  2  0
 35 36  1  0
 36 37  2  0
 37 38  1  0
 38 39  2  0
 24 25  2  0
 25 26  1  0
 26 27  2  0
 27 28  1  0
 28 29  1  0
 14 15  1  0
 15 16  2  0
 16 17  1  0
 17  3  1  0
 10  5  1  0
 16 11  1  0
 28 19  1  0
 27 22  1  0
 39 30  1  0
 38 33  1  0
M  END
>  <minimizedAffinity>  (940) 
-16.61505

$$$$
Mol: 88_12 - SminaDock
     RDKit          3D

 49 56  0  0  0  0  0  0  0  0999 V2000
    8.0169    3.3683  -13.9525 C   0  0  0  0  0  0  0  0  0  0  0  0
    9.2389    3.0940  -14.5668 C   0  0  0  0  0  0  0  0  0  0  0  0
   10.3127    3.9362  -14.4602 C   0  0  0  0  0  0  0  0  0  0  0  0
   10.1838    5.0938  -13.7206 C   0  0  0  0  0  0  0  0  0  0  0  0
    8.9961    5.3975  -13.1003 C   0  0  0  0  0  0  0  0  0  0  0  0
    7.9360    4.5291  -13.2295 C   0  0  0  0  0  0  0  0  0  0  0  0
    3.2741   -1.6331  -13.1457 H   0  0  0  0  0  0  0  0  0  0  0  0
    3.0182   -0.8005  -13.6782 O   0  0  0  0  0  0  0  0  0  0  0  0
    3.8517   -0.4415  -14.7458 C   0  0  0  0  0  0  0  0  0  0  0  0
    3.6786   -0.9893  -15.9301 C   0  0  0  0  0  0  0  0  0  0  0  0
    4.5435   -0.6318  -16.9920 N   0  0  0  0  0  0  0  0  0  0  0  0
    4.3698   -1.3445  -18.2636 C   0  0  0  0  0  0  0  0  0  0  0  0
    5.5557    0.3526  -16.9092 C   0  0  0  0  0  0  0  0  0  0  0  0
    5.7264    0.9087  -15.5637 C   0  0  0  0  0  0  0  0  0  0  0  0
    6.7485    1.8447  -15.3403 C   0  0  0  0  0  0  0  0  0  0  0  0
    6.9505    2.4109  -14.0970 C   0  0  0  0  0  0  0  0  0  0  0  0
    6.0974    2.0109  -13.0876 C   0  0  0  0  0  0  0  0  0  0  0  0
    5.0850    1.0911  -13.2859 C   0  0  0  0  0  0  0  0  0  0  0  0
    4.8984    0.5391  -14.5239 C   0  0  0  0  0  0  0  0  0  0  0  0
   11.5673    3.6963  -15.0743 N   0  0  0  0  0  0  0  0  0  0  0  0
   11.8665    4.3656  -16.1544 C   0  0  0  0  0  0  0  0  0  0  0  0
   13.0957    4.1343  -16.7678 C   0  0  0  0  0  0  0  0  0  0  0  0
   13.4348    4.8122  -17.8959 C   0  0  0  0  0  0  0  0  0  0  0  0
   12.5499    5.7359  -18.4336 C   0  0  0  0  0  0  0  0  0  0  0  0
   12.8543    6.4367  -19.5714 C   0  0  0  0  0  0  0  0  0  0  0  0
   11.9603    7.3518  -20.0957 C   0  0  0  0  0  0  0  0  0  0  0  0
   10.7361    7.5793  -19.4803 C   0  0  0  0  0  0  0  0  0  0  0  0
   10.4548    6.8652  -18.3419 C   0  0  0  0  0  0  0  0  0  0  0  0
   11.3474    5.9368  -17.7995 C   0  0  0  0  0  0  0  0  0  0  0  0
   11.0381    5.2562  -16.6894 N   0  0  0  0  0  0  0  0  0  0  0  0
   10.1251    5.4600  -16.2613 H   0  0  0  0  0  0  0  0  0  0  0  0
    8.9447    6.5502  -12.3277 N   0  0  0  0  0  0  0  0  0  0  0  0
    8.5544    7.4509  -12.7246 H   0  0  0  0  0  0  0  0  0  0  0  0
    9.3967    6.6113  -10.9931 C   0  0  0  0  0  0  0  0  0  0  0  0
   10.0854    7.6427  -10.4865 N   0  0  0  0  0  0  0  0  0  0  0  0
   10.4794    7.7075   -9.2055 C   0  0  0  0  0  0  0  0  0  0  0  0
   11.1923    8.7986   -8.7012 C   0  0  0  0  0  0  0  0  0  0  0  0
   11.5796    8.8390   -7.3750 C   0  0  0  0  0  0  0  0  0  0  0  0
   11.2883    7.8244   -6.4963 C   0  0  0  0  0  0  0  0  0  0  0  0
   10.5856    6.7386   -6.9782 C   0  0  0  0  0  0  0  0  0  0  0  0
   10.2006    6.7033   -8.3063 C   0  0  0  0  0  0  0  0  0  0  0  0
    9.4867    5.6210   -8.8116 C   0  0  0  0  0  0  0  0  0  0  0  0
    9.0911    5.5648  -10.1127 C   0  0  0  0  0  0  0  0  0  0  0  0
   11.6877    7.8551   -5.0769 C   0  0  0  0  0  0  0  0  0  0  0  0
   12.3551    8.9507   -4.5827 C   0  0  0  0  0  0  0  0  0  0  0  0
   12.7357    9.0092   -3.2529 C   0  0  0  0  0  0  0  0  0  0  0  0
   12.4642    7.9799   -2.3755 C   0  0  0  0  0  0  0  0  0  0  0  0
   11.7945    6.8801   -2.8694 C   0  0  0  0  0  0  0  0  0  0  0  0
   11.4085    6.8181   -4.2142 C   0  0  0  0  0  0  0  0  0  0  0  0
  7  8  1  0
  8  9  1  0
  9 10  2  0
 10 11  1  0
 11 12  1  0
 11 13  1  0
 13 14  1  0
 14 15  2  0
 15 16  1  0
 16  1  1  0
  1  2  2  0
  2  3  1  0
  3 20  1  0
 20 21  2  0
 21 22  1  0
 22 23  2  0
 23 24  1  0
 24 25  2  0
 25 26  1  0
 26 27  2  0
 27 28  1  0
 28 29  2  0
 29 30  1  0
 30 31  1  0
  3  4  2  0
  4  5  1  0
  5 32  1  0
 32 33  1  0
 32 34  1  0
 34 35  2  0
 35 36  1  0
 36 37  2  0
 37 38  1  0
 38 39  2  0
 39 44  1  0
 44 45  2  0
 45 46  1  0
 46 47  2  0
 47 48  1  0
 48 49  2  0
 39 40  1  0
 40 41  2  0
 41 42  1  0
 42 43  2  0
  5  6  2  0
 16 17  2  0
 17 18  1  0
 18 19  2  0
 19  9  1  0
 19 14  1  0
  6  1  1  0
 30 21  1  0
 43 34  1  0
 29 24  1  0
 41 36  1  0
 49 44  1  0
M  END
>  <minimizedAffinity>  (941) 
-16.58288

$$$$
Mol: 156_22 - SminaDock
     RDKit          3D

 37 43  0  0  0  0  0  0  0  0999 V2000
    8.8515    5.9464  -12.2960 C   0  0  0  0  0  0  0  0  0  0  0  0
    9.5850    5.0434  -13.0333 C   0  0  0  0  0  0  0  0  0  0  0  0
    8.9935    3.8971  -13.5803 C   0  0  0  0  0  0  0  0  0  0  0  0
    7.6552    3.6795  -13.3707 C   0  0  0  0  0  0  0  0  0  0  0  0
    6.9035    4.5697  -12.6408 C   0  0  0  0  0  0  0  0  0  0  0  0
    7.5241    5.7010  -12.1084 C   0  0  0  0  0  0  0  0  0  0  0  0
    5.4466    4.3960  -12.5050 C   0  0  0  0  0  0  0  0  0  0  0  0
    5.0023    2.9956  -12.5451 C   0  0  0  0  0  0  0  0  0  0  0  0
    5.7206    2.1544  -13.5145 C   0  0  0  0  0  0  0  0  0  0  0  0
    7.0378    2.4253  -13.8343 C   0  0  0  0  0  0  0  0  0  0  0  0
    7.7507    1.5922  -14.6629 C   0  0  0  0  0  0  0  0  0  0  0  0
    7.1182    0.4530  -15.1896 C   0  0  0  0  0  0  0  0  0  0  0  0
    5.8095    0.1677  -14.8874 C   0  0  0  0  0  0  0  0  0  0  0  0
    4.9552   -0.7774  -15.2018 O   0  0  0  0  0  0  0  0  0  0  0  0
    3.8003   -0.5611  -14.6197 C   0  0  0  0  0  0  0  0  0  0  0  0
    2.7949   -1.3033  -14.7402 O   0  0  0  0  0  0  0  0  0  0  0  0
    3.8693    0.5635  -13.8875 N   0  0  0  0  0  0  0  0  0  0  0  0
    3.1549    1.0323  -13.3016 H   0  0  0  0  0  0  0  0  0  0  0  0
    5.1256    1.0210  -14.0538 C   0  0  0  0  0  0  0  0  0  0  0  0
   11.3863    8.0818   -5.8745 C   0  0  0  0  0  0  0  0  0  0  0  0
   11.6346    9.1950   -6.6596 C   0  0  0  0  0  0  0  0  0  0  0  0
   11.2955    9.2249   -8.0100 C   0  0  0  0  0  0  0  0  0  0  0  0
   10.6983    8.1405   -8.6127 C   0  0  0  0  0  0  0  0  0  0  0  0
   10.4377    7.0033   -7.8371 C   0  0  0  0  0  0  0  0  0  0  0  0
    9.8420    5.9368   -8.4637 C   0  0  0  0  0  0  0  0  0  0  0  0
    9.5313    6.0026   -9.7636 N   0  0  0  0  0  0  0  0  0  0  0  0
    9.7852    7.1026  -10.5063 C   0  0  0  0  0  0  0  0  0  0  0  0
    9.4643    7.1038  -11.7455 N   0  0  0  0  0  0  0  0  0  0  0  0
   10.3769    8.1820   -9.9158 N   0  0  0  0  0  0  0  0  0  0  0  0
   10.5495    9.0018  -10.5325 H   0  0  0  0  0  0  0  0  0  0  0  0
   10.7855    7.0055   -6.5024 C   0  0  0  0  0  0  0  0  0  0  0  0
   12.4184    7.9715   -1.7422 C   0  0  0  0  0  0  0  0  0  0  0  0
   12.4411    9.1534   -2.4252 C   0  0  0  0  0  0  0  0  0  0  0  0
   12.1058    9.1800   -3.7614 C   0  0  0  0  0  0  0  0  0  0  0  0
   11.7403    8.0466   -4.4592 C   0  0  0  0  0  0  0  0  0  0  0  0
   11.7255    6.8674   -3.7468 C   0  0  0  0  0  0  0  0  0  0  0  0
   12.0549    6.7997   -2.4071 C   0  0  0  0  0  0  0  0  0  0  0  0
 32 33  2  0
 33 34  1  0
 34 35  2  0
 35 20  1  0
 20 21  2  0
 21 22  1  0
 22 23  2  0
 23 24  1  0
 24 25  1  0
 25 26  2  0
 26 27  1  0
 27 28  2  0
 28  1  1  0
  1  2  2  0
  2  3  1  0
  3  4  2  0
  4  5  1  0
  5  6  2  0
  5  7  1  0
  7  8  1  0
  8  9  1  0
  9 10  2  0
 10 11  1  0
 11 12  2  0
 12 13  1  0
 13 14  1  0
 14 15  1  0
 15 16  2  0
 15 17  1  0
 17 18  1  0
 17 19  1  0
 27 29  1  0
 29 30  1  0
 24 31  2  0
 35 36  1  0
 36 37  2  0
 37 32  1  0
 31 20  1  0
 29 23  1  0
  6  1  1  0
 19  9  1  0
 10  4  1  0
 19 13  2  0
M  END
>  <minimizedAffinity>  (942) 
-16.57273

$$$$
Mol: 174_45 - SminaDock
     RDKit          3D

 37 43  0  0  0  0  0  0  0  0999 V2000
    8.8268    5.8297  -12.3944 C   0  0  0  0  0  0  0  0  0  0  0  0
    9.4913    5.1346  -13.3858 C   0  0  0  0  0  0  0  0  0  0  0  0
    8.9378    4.0134  -13.9691 C   0  0  0  0  0  0  0  0  0  0  0  0
    7.6969    3.5398  -13.5859 C   0  0  0  0  0  0  0  0  0  0  0  0
    7.0506    4.2482  -12.5950 C   0  0  0  0  0  0  0  0  0  0  0  0
    7.5970    5.3702  -12.0066 C   0  0  0  0  0  0  0  0  0  0  0  0
    5.7800    3.5420  -12.3861 C   0  0  0  0  0  0  0  0  0  0  0  0
    4.9278    3.8986  -11.5580 O   0  0  0  0  0  0  0  0  0  0  0  0
    5.7076    2.3959  -13.2907 C   0  0  0  0  0  0  0  0  0  0  0  0
    4.7393    1.4242  -13.4908 C   0  0  0  0  0  0  0  0  0  0  0  0
    4.9672    0.4347  -14.4534 C   0  0  0  0  0  0  0  0  0  0  0  0
    6.1291    0.4134  -15.1972 C   0  0  0  0  0  0  0  0  0  0  0  0
    7.0562    1.4018  -14.9575 C   0  0  0  0  0  0  0  0  0  0  0  0
    6.8796    2.4021  -14.0181 C   0  0  0  0  0  0  0  0  0  0  0  0
    6.0914   -0.7581  -16.1442 C   0  0  0  0  0  0  0  0  0  0  0  0
    4.8335   -1.3820  -15.8760 N   0  0  0  0  0  0  0  0  0  0  0  0
    4.5027   -2.2434  -16.3839 H   0  0  0  0  0  0  0  0  0  0  0  0
    4.1358   -0.6959  -14.8711 C   0  0  0  0  0  0  0  0  0  0  0  0
    2.9977   -0.9663  -14.3843 O   0  0  0  0  0  0  0  0  0  0  0  0
   11.2895    7.9469   -6.0036 C   0  0  0  0  0  0  0  0  0  0  0  0
   11.5474    9.0897   -6.7608 C   0  0  0  0  0  0  0  0  0  0  0  0
   11.2007    9.0714   -8.0948 C   0  0  0  0  0  0  0  0  0  0  0  0
   10.6183    7.9735   -8.6817 C   0  0  0  0  0  0  0  0  0  0  0  0
   10.3764    6.8574   -7.9027 C   0  0  0  0  0  0  0  0  0  0  0  0
    9.7918    5.7577   -8.4955 C   0  0  0  0  0  0  0  0  0  0  0  0
    9.4896    5.8312   -9.7966 N   0  0  0  0  0  0  0  0  0  0  0  0
    9.7209    6.9078  -10.5550 C   0  0  0  0  0  0  0  0  0  0  0  0
    9.4336    6.9911  -11.8108 N   0  0  0  0  0  0  0  0  0  0  0  0
   10.2917    7.9852   -9.9825 N   0  0  0  0  0  0  0  0  0  0  0  0
   10.4886    8.8564  -10.5583 H   0  0  0  0  0  0  0  0  0  0  0  0
   10.7078    6.8406   -6.5745 C   0  0  0  0  0  0  0  0  0  0  0  0
   12.3761    8.0891   -1.9604 C   0  0  0  0  0  0  0  0  0  0  0  0
   12.3269    9.2619   -2.7048 C   0  0  0  0  0  0  0  0  0  0  0  0
   11.9686    9.2208   -4.0379 C   0  0  0  0  0  0  0  0  0  0  0  0
   11.6678    7.9996   -4.5928 C   0  0  0  0  0  0  0  0  0  0  0  0
   11.7115    6.8282   -3.8701 C   0  0  0  0  0  0  0  0  0  0  0  0
   12.0667    6.8757   -2.5507 C   0  0  0  0  0  0  0  0  0  0  0  0
 32 33  2  0
 33 34  1  0
 34 35  2  0
 35 20  1  0
 20 21  2  0
 21 22  1  0
 22 23  2  0
 23 24  1  0
 24 25  1  0
 25 26  2  0
 26 27  1  0
 27 28  2  0
 28  1  1  0
  1  2  2  0
  2  3  1  0
  3  4  2  0
  4  5  1  0
  5  6  2  0
  5  7  1  0
  7  8  2  0
  7  9  1  0
  9 10  2  0
 10 11  1  0
 11 12  2  0
 12 13  1  0
 13 14  2  0
 12 15  1  0
 15 16  1  0
 16 17  1  0
 16 18  1  0
 18 19  2  0
 27 29  1  0
 29 30  1  0
 24 31  2  0
 35 36  1  0
 36 37  2  0
 37 32  1  0
 31 20  1  0
 29 23  1  0
  6  1  1  0
 14  9  1  0
 14  4  1  0
 18 11  1  0
M  END
>  <minimizedAffinity>  (943) 
-16.56139

$$$$
Mol: 174_62 - SminaDock
     RDKit          3D

 39 45  0  0  0  0  0  0  0  0999 V2000
    4.6743   -3.3280  -16.5656 H   0  0  0  0  0  0  0  0  0  0  0  0
    5.4639   -2.6581  -16.4778 N   0  0  0  0  0  0  0  0  0  0  0  0
    5.3372   -1.6265  -15.7412 C   0  0  0  0  0  0  0  0  0  0  0  0
    6.3365   -0.7118  -15.5848 N   0  0  0  0  0  0  0  0  0  0  0  0
    6.2072    0.3710  -14.8125 C   0  0  0  0  0  0  0  0  0  0  0  0
    7.2533    1.2496  -14.6979 C   0  0  0  0  0  0  0  0  0  0  0  0
    7.1359    2.3847  -13.8942 C   0  0  0  0  0  0  0  0  0  0  0  0
    5.9627    2.6308  -13.2078 C   0  0  0  0  0  0  0  0  0  0  0  0
    4.9142    1.7278  -13.3375 C   0  0  0  0  0  0  0  0  0  0  0  0
    5.0215    0.6056  -14.1284 C   0  0  0  0  0  0  0  0  0  0  0  0
    4.0236   -0.3278  -14.2969 C   0  0  0  0  0  0  0  0  0  0  0  0
    4.1901   -1.4118  -15.0860 N   0  0  0  0  0  0  0  0  0  0  0  0
    3.4089   -2.1254  -15.2037 H   0  0  0  0  0  0  0  0  0  0  0  0
    6.1278    3.8861  -12.4547 C   0  0  0  0  0  0  0  0  0  0  0  0
    5.2863    4.4213  -11.7243 O   0  0  0  0  0  0  0  0  0  0  0  0
    7.4791    4.3947  -12.7251 C   0  0  0  0  0  0  0  0  0  0  0  0
    8.1879    5.5248  -12.3018 C   0  0  0  0  0  0  0  0  0  0  0  0
    9.4672    5.7757  -12.7135 C   0  0  0  0  0  0  0  0  0  0  0  0
   10.0307    4.8349  -13.5811 C   0  0  0  0  0  0  0  0  0  0  0  0
    9.3460    3.7167  -14.0072 C   0  0  0  0  0  0  0  0  0  0  0  0
    8.0460    3.4757  -13.5834 C   0  0  0  0  0  0  0  0  0  0  0  0
   10.2284    6.9144  -12.3578 N   0  0  0  0  0  0  0  0  0  0  0  0
   10.4778    7.6367  -13.1024 H   0  0  0  0  0  0  0  0  0  0  0  0
   10.7181    7.2120  -11.0700 C   0  0  0  0  0  0  0  0  0  0  0  0
   11.8364    7.8554  -10.7897 N   0  0  0  0  0  0  0  0  0  0  0  0
   12.2719    8.1285   -9.5642 C   0  0  0  0  0  0  0  0  0  0  0  0
   11.5432    7.7332   -8.4685 C   0  0  0  0  0  0  0  0  0  0  0  0
   11.9343    7.9914   -7.1598 C   0  0  0  0  0  0  0  0  0  0  0  0
   11.1700    7.5850   -6.0950 C   0  0  0  0  0  0  0  0  0  0  0  0
    9.9870    6.9024   -6.3875 C   0  0  0  0  0  0  0  0  0  0  0  0
    9.5835    6.6374   -7.6724 C   0  0  0  0  0  0  0  0  0  0  0  0
   10.3474    7.0453   -8.7366 C   0  0  0  0  0  0  0  0  0  0  0  0
    9.9678    6.8036  -10.0102 N   0  0  0  0  0  0  0  0  0  0  0  0
   11.5834    7.8620   -4.7266 C   0  0  0  0  0  0  0  0  0  0  0  0
   11.6110    6.8026   -3.8143 C   0  0  0  0  0  0  0  0  0  0  0  0
   11.9989    6.9871   -2.4966 C   0  0  0  0  0  0  0  0  0  0  0  0
   12.3725    8.2245   -2.0367 C   0  0  0  0  0  0  0  0  0  0  0  0
   12.3480    9.2768   -2.9382 C   0  0  0  0  0  0  0  0  0  0  0  0
   11.9592    9.1009   -4.2610 C   0  0  0  0  0  0  0  0  0  0  0  0
  1  2  1  0
  2  3  2  0
  3  4  1  0
  4  5  2  0
  5  6  1  0
  6  7  2  0
  7  8  1  0
  8  9  2  0
  9 10  1  0
 10 11  2  0
 11 12  1  0
 12 13  1  0
  8 14  1  0
 14 15  2  0
 14 16  1  0
 16 17  2  0
 17 18  1  0
 18 22  1  0
 22 23  1  0
 22 24  1  0
 24 25  2  0
 25 26  1  0
 26 27  2  0
 27 28  1  0
 28 29  2  0
 29 34  1  0
 34 35  2  0
 35 36  1  0
 36 37  2  0
 37 38  1  0
 38 39  2  0
 29 30  1  0
 30 31  2  0
 31 32  1  0
 32 33  2  0
 18 19  2  0
 19 20  1  0
 20 21  2  0
 12  3  1  0
 21 16  1  0
 10  5  1  0
 33 24  1  0
 21  7  1  0
 32 27  1  0
 39 34  1  0
M  END
>  <minimizedAffinity>  (944) 
-16.59266

$$$$
Mol: 199_29 - SminaDock
     RDKit          3D

 39 45  0  0  0  0  0  0  0  0999 V2000
    8.4344    5.4484  -12.3010 C   0  0  0  0  0  0  0  0  0  0  0  0
    7.1539    5.1618  -11.9497 C   0  0  0  0  0  0  0  0  0  0  0  0
    6.5131    4.0383  -12.4864 C   0  0  0  0  0  0  0  0  0  0  0  0
    7.2047    3.2581  -13.3557 C   0  0  0  0  0  0  0  0  0  0  0  0
    6.5353    2.1454  -13.8720 C   0  0  0  0  0  0  0  0  0  0  0  0
    5.2350    1.8584  -13.5124 C   0  0  0  0  0  0  0  0  0  0  0  0
    4.6461    0.7280  -14.0767 C   0  0  0  0  0  0  0  0  0  0  0  0
    3.4505    0.1937  -13.9426 O   0  0  0  0  0  0  0  0  0  0  0  0
    3.3223   -0.8648  -14.6561 N   0  0  0  0  0  0  0  0  0  0  0  0
    4.4556   -1.1201  -15.3370 C   0  0  0  0  0  0  0  0  0  0  0  0
    5.3185   -0.0872  -14.9633 C   0  0  0  0  0  0  0  0  0  0  0  0
    6.6025    0.2062  -15.3112 C   0  0  0  0  0  0  0  0  0  0  0  0
    7.2158    1.3377  -14.7566 C   0  0  0  0  0  0  0  0  0  0  0  0
    8.5057    1.6504  -15.0931 C   0  0  0  0  0  0  0  0  0  0  0  0
    9.1020    0.8946  -15.9033 O   0  0  0  0  0  0  0  0  0  0  0  0
    9.1840    2.7177  -14.6136 N   0  0  0  0  0  0  0  0  0  0  0  0
   10.5116    2.9733  -15.0087 C   0  0  0  0  0  0  0  0  0  0  0  0
   11.2330    3.9237  -14.6326 O   0  0  0  0  0  0  0  0  0  0  0  0
   11.1841    2.0377  -15.9843 C   0  0  0  0  0  0  0  0  0  0  0  0
    8.5365    3.5193  -13.7478 C   0  0  0  0  0  0  0  0  0  0  0  0
    9.1026    4.6325  -13.1860 C   0  0  0  0  0  0  0  0  0  0  0  0
   11.2530    7.8945   -6.1256 C   0  0  0  0  0  0  0  0  0  0  0  0
   11.5146    8.9264   -7.0283 C   0  0  0  0  0  0  0  0  0  0  0  0
   11.1339    8.8603   -8.3476 C   0  0  0  0  0  0  0  0  0  0  0  0
   10.4659    7.7257   -8.7953 C   0  0  0  0  0  0  0  0  0  0  0  0
   10.2072    6.7022   -7.8977 C   0  0  0  0  0  0  0  0  0  0  0  0
    9.5418    5.6041   -8.4016 C   0  0  0  0  0  0  0  0  0  0  0  0
    9.1853    5.5755   -9.6981 N   0  0  0  0  0  0  0  0  0  0  0  0
    9.4509    6.5859  -10.5457 C   0  0  0  0  0  0  0  0  0  0  0  0
    9.1177    6.5739  -11.7817 N   0  0  0  0  0  0  0  0  0  0  0  0
   10.1067    7.6808  -10.0718 N   0  0  0  0  0  0  0  0  0  0  0  0
   10.3201    8.4747  -10.7201 H   0  0  0  0  0  0  0  0  0  0  0  0
   10.5910    6.7683   -6.5663 C   0  0  0  0  0  0  0  0  0  0  0  0
   12.4661    8.1341   -2.0661 C   0  0  0  0  0  0  0  0  0  0  0  0
   12.4509    9.2718   -2.8505 C   0  0  0  0  0  0  0  0  0  0  0  0
   12.0554    9.1845   -4.1678 C   0  0  0  0  0  0  0  0  0  0  0  0
   11.6738    8.0048   -4.7345 C   0  0  0  0  0  0  0  0  0  0  0  0
   11.6941    6.8674   -3.9326 C   0  0  0  0  0  0  0  0  0  0  0  0
   12.0848    6.9369   -2.6205 C   0  0  0  0  0  0  0  0  0  0  0  0
 34 35  2  0
 35 36  1  0
 36 37  2  0
 37 22  1  0
 22 23  2  0
 23 24  1  0
 24 25  2  0
 25 26  1  0
 26 27  1  0
 27 28  2  0
 28 29  1  0
 29 30  2  0
 30  1  1  0
  1  2  2  0
  2  3  1  0
  3  4  2  0
  4  5  1  0
  5  6  2  0
  6  7  1  0
  7  8  1  0
  8  9  1  0
  9 10  2  0
 10 11  1  0
 11 12  1  0
 12 13  2  0
 13 14  1  0
 14 15  2  0
 14 16  1  0
 16 17  1  0
 17 18  2  0
 17 19  1  0
 16 20  1  0
 20 21  2  0
 29 31  1  0
 31 32  1  0
 26 33  2  0
 37 38  1  0
 38 39  2  0
 39 34  1  0
 33 22  1  0
 31 25  1  0
 21  1  1  0
 20  4  1  0
 13  5  1  0
 11  7  2  0
M  END
>  <minimizedAffinity>  (945) 
-16.61520

$$$$
Mol: 200_11 - SminaDock
     RDKit          3D

 45 52  0  0  0  0  0  0  0  0999 V2000
    4.8390   -1.3683  -16.3315 C   0  0  0  0  0  0  0  0  0  0  0  0
    6.1375   -0.8483  -16.6687 N   0  0  0  0  0  0  0  0  0  0  0  0
    6.8590   -1.3773  -17.5878 C   0  0  0  0  0  0  0  0  0  0  0  0
    6.3625   -2.5035  -18.2937 O   0  0  0  0  0  0  0  0  0  0  0  0
    8.1397   -0.9050  -17.9479 N   0  0  0  0  0  0  0  0  0  0  0  0
    8.7028    0.2496  -17.3796 C   0  0  1  0  0  0  0  0  0  0  0  0
   10.0589   -0.1313  -16.7956 C   0  0  0  0  0  0  0  0  0  0  0  0
   11.0275    0.2007  -17.8826 C   0  0  0  0  0  0  0  0  0  0  0  0
   10.3754    0.8871  -18.8705 O   0  0  0  0  0  0  0  0  0  0  0  0
    9.1432    1.2745  -18.4064 C   0  0  0  0  0  0  0  0  0  0  0  0
    7.8957    0.8306  -16.3093 C   0  0  0  0  0  0  0  0  0  0  0  0
    8.3752    1.9580  -15.6050 C   0  0  0  0  0  0  0  0  0  0  0  0
    7.6035    2.4968  -14.6278 C   0  0  0  0  0  0  0  0  0  0  0  0
    6.3571    1.9895  -14.2847 C   0  0  0  0  0  0  0  0  0  0  0  0
    5.9123    0.8910  -14.9846 C   0  0  0  0  0  0  0  0  0  0  0  0
    6.6740    0.3080  -15.9944 C   0  0  0  0  0  0  0  0  0  0  0  0
    5.5534    2.5858  -13.2343 C   0  0  0  0  0  0  0  0  0  0  0  0
    4.4340    2.0425  -12.9777 O   0  0  0  0  0  0  0  0  0  0  0  0
    5.9925    3.7648  -12.4862 C   0  0  0  0  0  0  0  0  0  0  0  0
    7.3134    4.2644  -12.8899 C   0  0  0  0  0  0  0  0  0  0  0  0
    7.7691    5.3857  -12.1949 C   0  0  0  0  0  0  0  0  0  0  0  0
    9.0003    5.8879  -12.5347 C   0  0  0  0  0  0  0  0  0  0  0  0
    9.7762    5.3119  -13.5304 C   0  0  0  0  0  0  0  0  0  0  0  0
    9.3021    4.2062  -14.2004 C   0  0  0  0  0  0  0  0  0  0  0  0
    8.0648    3.6775  -13.8811 C   0  0  0  0  0  0  0  0  0  0  0  0
    5.3459   -2.5167  -18.4954 H   0  0  0  0  0  0  0  0  0  0  0  0
    8.7156   -1.4347  -18.6768 H   0  0  0  0  0  0  0  0  0  0  0  0
    9.4940    7.0436  -11.8687 N   0  0  0  0  0  0  0  0  0  0  0  0
    9.6198    7.9329  -12.3881 H   0  0  0  0  0  0  0  0  0  0  0  0
    9.8220    7.0067  -10.4931 C   0  0  0  0  0  0  0  0  0  0  0  0
    9.5374    5.9157   -9.7103 C   0  0  0  0  0  0  0  0  0  0  0  0
    9.8874    5.9429   -8.3548 C   0  0  0  0  0  0  0  0  0  0  0  0
   10.5077    7.0308   -7.7814 C   0  0  0  0  0  0  0  0  0  0  0  0
   10.8422    7.0375   -6.4239 C   0  0  0  0  0  0  0  0  0  0  0  0
   11.4567    8.1303   -5.8545 C   0  0  0  0  0  0  0  0  0  0  0  0
   11.7299    9.2100   -6.6640 C   0  0  0  0  0  0  0  0  0  0  0  0
   11.3903    9.1907   -8.0214 C   0  0  0  0  0  0  0  0  0  0  0  0
   10.7744    8.1026   -8.6020 C   0  0  0  0  0  0  0  0  0  0  0  0
   10.4386    8.0740   -9.9002 N   0  0  0  0  0  0  0  0  0  0  0  0
   11.7922    8.1227   -4.4174 C   0  0  0  0  0  0  0  0  0  0  0  0
   12.1308    9.2377   -3.7173 C   0  0  0  0  0  0  0  0  0  0  0  0
   12.4246    9.1127   -2.3680 C   0  0  0  0  0  0  0  0  0  0  0  0
   12.3839    7.8980   -1.7182 C   0  0  0  0  0  0  0  0  0  0  0  0
   12.0408    6.7735   -2.4322 C   0  0  0  0  0  0  0  0  0  0  0  0
   11.7459    6.8909   -3.7799 C   0  0  0  0  0  0  0  0  0  0  0  0
  1  2  1  0
  2  3  2  0
  3  4  1  0
  3  5  1  0
  6  5  1  0
  6  7  1  1
  7  8  1  0
  8  9  1  0
  9 10  1  0
  6 11  1  0
 11 12  2  0
 12 13  1  0
 13 14  2  0
 14 15  1  0
 15 16  2  0
 14 17  1  0
 17 18  2  0
 17 19  1  0
 19 20  1  0
 20 21  2  0
 21 22  1  0
 22 28  1  0
 28 30  1  0
 30 31  2  0
 31 32  1  0
 32 33  2  0
 33 34  1  0
 34 35  2  0
 35 40  1  0
 40 41  2  0
 41 42  1  0
 42 43  2  0
 43 44  1  0
 44 45  2  0
 35 36  1  0
 36 37  2  0
 37 38  1  0
 38 39  2  0
 22 23  2  0
 23 24  1  0
 24 25  2  0
 16  2  1  0
 25 20  1  0
 10  6  1  0
 16 11  1  0
 39 30  1  0
 25 13  1  0
 38 33  1  0
 45 40  1  0
  4 26  1  0
  5 27  1  0
 28 29  1  0
M  CHG  1   2   1
M  END
>  <minimizedAffinity>  (946) 
-16.63807

$$$$
Mol: 82_0 - SminaDock
     RDKit          3D

 35 40  0  0  0  0  0  0  0  0999 V2000
    9.1329    6.4774  -12.3311 N   0  0  0  0  0  0  0  0  0  0  0  0
    9.4963    7.2701  -12.9425 H   0  0  0  0  0  0  0  0  0  0  0  0
    9.4533    2.6818  -14.7488 O   0  0  0  0  0  0  0  0  0  0  0  0
    8.5685    3.3805  -14.1984 C   0  0  0  0  0  0  0  0  0  0  0  0
    8.9298    4.6734  -13.9025 C   0  0  0  0  0  0  0  0  0  0  0  0
    8.3703    5.5150  -12.9715 C   0  0  0  0  0  0  0  0  0  0  0  0
    7.0191    5.4886  -12.5756 C   0  0  0  0  0  0  0  0  0  0  0  0
    6.1344    4.4341  -12.6518 C   0  0  0  0  0  0  0  0  0  0  0  0
    6.3530    3.1431  -13.1641 C   0  0  0  0  0  0  0  0  0  0  0  0
    7.3627    2.7408  -13.9741 C   0  0  0  0  0  0  0  0  0  0  0  0
    7.4827    1.5599  -14.8242 C   0  0  0  0  0  0  0  0  0  0  0  0
    6.1813    0.8310  -15.0144 C   0  0  0  0  0  0  0  0  0  0  0  0
    6.0437    0.4198  -16.3244 C   0  0  0  0  0  0  0  0  0  0  0  0
    4.9107   -0.2648  -16.6751 C   0  0  0  0  0  0  0  0  0  0  0  0
    3.9189   -0.5410  -15.7342 C   0  0  0  0  0  0  0  0  0  0  0  0
    4.0899   -0.1105  -14.4190 C   0  0  0  0  0  0  0  0  0  0  0  0
    5.2208    0.5714  -14.0736 C   0  0  0  0  0  0  0  0  0  0  0  0
    5.2403    0.9550  -12.6481 C   0  0  0  0  0  0  0  0  0  0  0  0
    5.2212    2.4396  -12.5788 C   0  0  0  0  0  0  0  0  0  0  0  0
    9.4538    6.4691  -10.9405 C   0  0  0  0  0  0  0  0  0  0  0  0
    9.1202    5.4610  -10.0764 C   0  0  0  0  0  0  0  0  0  0  0  0
    9.5028    5.5444   -8.7274 C   0  0  0  0  0  0  0  0  0  0  0  0
   10.2108    6.6178   -8.2325 C   0  0  0  0  0  0  0  0  0  0  0  0
   10.5943    6.7160   -6.9138 C   0  0  0  0  0  0  0  0  0  0  0  0
   11.3089    7.8114   -6.4405 C   0  0  0  0  0  0  0  0  0  0  0  0
   11.6306    8.8114   -7.3317 C   0  0  0  0  0  0  0  0  0  0  0  0
   11.2443    8.7071   -8.6507 C   0  0  0  0  0  0  0  0  0  0  0  0
   10.5248    7.6091   -9.1353 C   0  0  0  0  0  0  0  0  0  0  0  0
   10.1573    7.5220  -10.4170 N   0  0  0  0  0  0  0  0  0  0  0  0
   11.6932    7.8673   -5.0211 C   0  0  0  0  0  0  0  0  0  0  0  0
   11.3665    6.8540   -4.1623 C   0  0  0  0  0  0  0  0  0  0  0  0
   11.7253    6.9080   -2.8346 C   0  0  0  0  0  0  0  0  0  0  0  0
   12.4243    7.9884   -2.3400 C   0  0  0  0  0  0  0  0  0  0  0  0
   12.7502    9.0053   -3.2093 C   0  0  0  0  0  0  0  0  0  0  0  0
   12.3913    8.9477   -4.5305 C   0  0  0  0  0  0  0  0  0  0  0  0
  3  4  2  0
  4  5  1  0
  5  6  2  0
  6  1  1  0
  1 20  1  0
 20 21  2  0
 21 22  1  0
 22 23  2  0
 23 24  1  0
 24 25  2  0
 25 30  1  0
 30 31  2  0
 31 32  1  0
 32 33  2  0
 33 34  1  0
 34 35  2  0
 25 26  1  0
 26 27  2  0
 27 28  1  0
 28 29  2  0
  6  7  1  0
  7  8  2  0
  8  9  1  0
  9 10  2  0
 10 11  1  0
 11 12  1  0
 12 13  2  0
 13 14  1  0
 14 15  2  0
 15 16  1  0
 16 17  2  0
 17 18  1  0
 18 19  1  0
 10  4  1  0
 17 12  1  0
 29 20  1  0
 19  9  1  0
 28 23  1  0
 35 30  1  0
  1  2  1  0
M  END
>  <minimizedAffinity>  (947) 
-16.64079

$$$$
Mol: 199_15 - SminaDock
     RDKit          3D

 36 42  0  0  0  0  0  0  0  0999 V2000
    3.4373   -0.9774  -14.6643 C   0  0  0  0  0  0  0  0  0  0  0  0
    3.5166    0.2204  -14.0312 N   0  0  0  0  0  0  0  0  0  0  0  0
    4.7791    0.6677  -14.0752 C   0  0  0  0  0  0  0  0  0  0  0  0
    5.4102    1.8171  -13.5943 C   0  0  0  0  0  0  0  0  0  0  0  0
    6.7649    2.0521  -13.7748 C   0  0  0  0  0  0  0  0  0  0  0  0
    7.4566    1.0800  -14.4595 C   0  0  0  0  0  0  0  0  0  0  0  0
    6.8364   -0.0679  -14.9426 C   0  0  0  0  0  0  0  0  0  0  0  0
    5.4932   -0.2815  -14.7535 C   0  0  0  0  0  0  0  0  0  0  0  0
    4.6512   -1.2338  -15.0797 O   0  0  0  0  0  0  0  0  0  0  0  0
    8.8791    1.2647  -14.6586 C   0  0  0  0  0  0  0  0  0  0  0  0
    9.5509    0.3042  -15.1904 O   0  0  0  0  0  0  0  0  0  0  0  0
    9.5557    2.4987  -14.2741 C   0  0  0  0  0  0  0  0  0  0  0  0
    8.7491    3.4580  -13.5070 C   0  0  0  0  0  0  0  0  0  0  0  0
    9.3938    4.6173  -13.0125 C   0  0  0  0  0  0  0  0  0  0  0  0
    8.6528    5.5242  -12.3168 C   0  0  0  0  0  0  0  0  0  0  0  0
    7.2996    5.3184  -12.0976 C   0  0  0  0  0  0  0  0  0  0  0  0
    6.6587    4.1910  -12.5746 C   0  0  0  0  0  0  0  0  0  0  0  0
    7.4152    3.2590  -13.2878 C   0  0  0  0  0  0  0  0  0  0  0  0
    9.3299    6.6744  -11.8337 N   0  0  0  0  0  0  0  0  0  0  0  0
    9.6480    6.7344  -10.5973 C   0  0  0  0  0  0  0  0  0  0  0  0
    9.3265    5.6856   -9.7687 C   0  0  0  0  0  0  0  0  0  0  0  0
    9.6505    5.6984   -8.4074 C   0  0  0  0  0  0  0  0  0  0  0  0
   10.3038    6.8084   -7.9441 C   0  0  0  0  0  0  0  0  0  0  0  0
   10.6631    6.9070   -6.6123 C   0  0  0  0  0  0  0  0  0  0  0  0
   11.3178    7.9893   -6.0851 C   0  0  0  0  0  0  0  0  0  0  0  0
   11.6453    9.0460   -6.9050 C   0  0  0  0  0  0  0  0  0  0  0  0
   11.2993    8.9760   -8.2392 C   0  0  0  0  0  0  0  0  0  0  0  0
   10.6387    7.8802   -8.7635 C   0  0  0  0  0  0  0  0  0  0  0  0
   10.2950    7.7964  -10.0594 N   0  0  0  0  0  0  0  0  0  0  0  0
   10.5215    8.5696  -10.7163 H   0  0  0  0  0  0  0  0  0  0  0  0
   11.6677    8.0308   -4.6714 C   0  0  0  0  0  0  0  0  0  0  0  0
   12.0525    9.1885   -4.0247 C   0  0  0  0  0  0  0  0  0  0  0  0
   12.3774    9.2057   -2.6921 C   0  0  0  0  0  0  0  0  0  0  0  0
   12.3278    8.0434   -1.9455 C   0  0  0  0  0  0  0  0  0  0  0  0
   11.9460    6.8621   -2.5601 C   0  0  0  0  0  0  0  0  0  0  0  0
   11.6257    6.8777   -3.9006 C   0  0  0  0  0  0  0  0  0  0  0  0
  1  2  2  0
  2  3  1  0
  3  4  2  0
  4  5  1  0
  5  6  2  0
  6  7  1  0
  7  8  2  0
  8  9  1  0
  6 10  1  0
 10 11  2  0
 10 12  1  0
 12 13  1  0
 13 14  2  0
 14 15  1  0
 15 19  1  0
 19 20  2  0
 20 21  1  0
 21 22  2  0
 22 23  1  0
 23 24  2  0
 24 25  1  0
 25 31  1  0
 31 32  2  0
 32 33  1  0
 33 34  2  0
 34 35  1  0
 35 36  2  0
 25 26  2  0
 26 27  1  0
 27 28  2  0
 28 29  1  0
 29 30  1  0
 15 16  2  0
 16 17  1  0
 17 18  2  0
  9  1  1  0
 18 13  1  0
  8  3  1  0
 29 20  1  0
 18  5  1  0
 28 23  1  0
 36 31  1  0
M  END
>  <minimizedAffinity>  (948) 
-16.58580

$$$$
Mol: 199_16 - SminaDock
     RDKit          3D

 40 46  0  0  0  0  0  0  0  0999 V2000
    2.8122   -0.6784  -15.3259 H   0  0  0  0  0  0  0  0  0  0  0  0
    3.6707   -0.4553  -14.8195 O   0  0  0  0  0  0  0  0  0  0  0  0
    4.8787   -0.2766  -15.4850 C   0  0  0  0  0  0  0  0  0  0  0  0
    5.6997    0.7114  -15.1354 C   0  0  0  0  0  0  0  0  0  0  0  0
    5.3432    1.5690  -14.0966 C   0  0  0  0  0  0  0  0  0  0  0  0
    6.1690    2.5998  -13.7106 C   0  0  0  0  0  0  0  0  0  0  0  0
    7.3706    2.8070  -14.3455 C   0  0  0  0  0  0  0  0  0  0  0  0
    7.7421    1.9713  -15.3743 C   0  0  0  0  0  0  0  0  0  0  0  0
    6.9040    0.9323  -15.7591 C   0  0  0  0  0  0  0  0  0  0  0  0
    7.3012    0.0753  -16.8253 N   0  0  0  0  0  0  0  0  0  0  0  0
    8.5603    0.3175  -17.4670 C   0  0  0  0  0  0  0  0  0  0  0  0
    6.4859   -0.9990  -17.2586 C   0  0  0  0  0  0  0  0  0  0  0  0
    6.8364   -1.7568  -18.2007 O   0  0  0  0  0  0  0  0  0  0  0  0
    5.2174   -1.1893  -16.5625 C   0  0  0  0  0  0  0  0  0  0  0  0
    4.4485   -2.1201  -16.8951 O   0  0  0  0  0  0  0  0  0  0  0  0
    7.9608    3.8445  -13.7912 C   0  0  0  0  0  0  0  0  0  0  0  0
    9.1711    4.4533  -14.0605 C   0  0  0  0  0  0  0  0  0  0  0  0
    9.6115    5.5488  -13.3485 C   0  0  0  0  0  0  0  0  0  0  0  0
    8.8497    6.0754  -12.3358 C   0  0  0  0  0  0  0  0  0  0  0  0
    7.6388    5.4744  -12.0589 C   0  0  0  0  0  0  0  0  0  0  0  0
    7.1982    4.3759  -12.7735 C   0  0  0  0  0  0  0  0  0  0  0  0
    6.0968    3.6505  -12.6876 C   0  0  0  0  0  0  0  0  0  0  0  0
    9.3599    7.1973  -11.6445 N   0  0  0  0  0  0  0  0  0  0  0  0
    9.6982    7.1439  -10.4052 C   0  0  0  0  0  0  0  0  0  0  0  0
    9.5559    5.9540   -9.7387 C   0  0  0  0  0  0  0  0  0  0  0  0
    9.9137    5.8527   -8.3897 C   0  0  0  0  0  0  0  0  0  0  0  0
   10.4096    6.9616   -7.7414 C   0  0  0  0  0  0  0  0  0  0  0  0
   10.7669    6.8706   -6.4041 C   0  0  0  0  0  0  0  0  0  0  0  0
   11.2560    8.0065   -5.8046 C   0  0  0  0  0  0  0  0  0  0  0  0
   11.3826    9.1957   -6.5245 C   0  0  0  0  0  0  0  0  0  0  0  0
   11.0221    9.2656   -7.8528 C   0  0  0  0  0  0  0  0  0  0  0  0
   10.5325    8.1318   -8.4556 C   0  0  0  0  0  0  0  0  0  0  0  0
   10.1828    8.2148   -9.7582 N   0  0  0  0  0  0  0  0  0  0  0  0
   10.3000    9.1450  -10.2582 H   0  0  0  0  0  0  0  0  0  0  0  0
   11.6663    8.0392   -4.4086 C   0  0  0  0  0  0  0  0  0  0  0  0
   11.9152    9.2395   -3.7512 C   0  0  0  0  0  0  0  0  0  0  0  0
   12.3060    9.2635   -2.4261 C   0  0  0  0  0  0  0  0  0  0  0  0
   12.4541    8.0817   -1.7363 C   0  0  0  0  0  0  0  0  0  0  0  0
   12.2148    6.8552   -2.3572 C   0  0  0  0  0  0  0  0  0  0  0  0
   11.8211    6.8692   -3.6984 C   0  0  0  0  0  0  0  0  0  0  0  0
  1  2  1  0
  2  3  1  0
  3  4  2  0
  4  5  1  0
  5  6  2  0
  6  7  1  0
  7  8  1  0
  8  9  2  0
  9 10  1  0
 10 11  1  0
 10 12  1  0
 12 13  2  0
 12 14  1  0
 14 15  2  0
  7 16  2  0
 16 17  1  0
 17 18  2  0
 18 19  1  0
 19 23  1  0
 23 24  2  0
 24 25  1  0
 25 26  2  0
 26 27  1  0
 27 28  2  0
 28 29  1  0
 29 35  1  0
 35 36  2  0
 36 37  1  0
 37 38  2  0
 38 39  1  0
 39 40  2  0
 29 30  2  0
 30 31  1  0
 31 32  2  0
 32 33  1  0
 33 34  1  0
 19 20  2  0
 20 21  1  0
 21 22  2  0
 14  3  1  0
 21 16  1  0
  9  4  1  0
 33 24  1  0
 22  6  1  0
 32 27  1  0
 40 35  1  0
M  END
>  <minimizedAffinity>  (949) 
-16.64460

$$$$
Mol: 86_16 - SminaDock
     RDKit          3D

 36 41  0  0  0  0  0  0  0  0999 V2000
    9.0121    5.3992  -13.4597 N   0  0  0  0  0  0  0  0  0  0  0  0
    9.4051    5.9183  -12.3718 C   0  0  0  0  0  0  0  0  0  0  0  0
   10.2498    7.0052  -12.4121 C   0  0  0  0  0  0  0  0  0  0  0  0
   10.7078    7.6092  -11.2361 C   0  0  0  0  0  0  0  0  0  0  0  0
   10.3027    7.1029  -10.0029 C   0  0  0  0  0  0  0  0  0  0  0  0
   10.7493    7.6922   -8.8402 C   0  0  0  0  0  0  0  0  0  0  0  0
   10.3445    7.1864   -7.6247 C   0  0  0  0  0  0  0  0  0  0  0  0
    9.4984    6.0972   -7.6329 C   0  0  0  0  0  0  0  0  0  0  0  0
    9.0622    5.5214   -8.7890 C   0  0  0  0  0  0  0  0  0  0  0  0
    9.4551    6.0118  -10.0201 C   0  0  0  0  0  0  0  0  0  0  0  0
    9.0242    5.4429  -11.1758 N   0  0  0  0  0  0  0  0  0  0  0  0
    8.3873    4.6245  -11.0734 H   0  0  0  0  0  0  0  0  0  0  0  0
    5.7961   -2.3959  -15.0552 H   0  0  0  0  0  0  0  0  0  0  0  0
    5.5099   -1.6502  -14.4026 O   0  0  0  0  0  0  0  0  0  0  0  0
    6.2580   -0.4805  -14.2768 C   0  0  0  0  0  0  0  0  0  0  0  0
    7.5297   -0.5195  -14.5188 N   0  0  0  0  0  0  0  0  0  0  0  0
    8.3708    0.6260  -14.4155 C   0  0  0  0  0  0  0  0  0  0  0  0
    9.6003    0.5280  -14.6631 O   0  0  0  0  0  0  0  0  0  0  0  0
    7.8448    1.9294  -14.0260 C   0  0  0  0  0  0  0  0  0  0  0  0
    8.6586    3.0549  -13.9221 C   0  0  0  0  0  0  0  0  0  0  0  0
    8.1434    4.2799  -13.5521 C   0  0  0  0  0  0  0  0  0  0  0  0
    6.7906    4.3417  -13.2901 C   0  0  0  0  0  0  0  0  0  0  0  0
    5.9770    3.2173  -13.3937 C   0  0  0  0  0  0  0  0  0  0  0  0
    6.4930    2.0097  -13.7600 C   0  0  0  0  0  0  0  0  0  0  0  0
    5.6694    0.7947  -13.8821 C   0  0  0  0  0  0  0  0  0  0  0  0
    4.4349    0.8559  -13.6419 O   0  0  0  0  0  0  0  0  0  0  0  0
   10.8054    7.7950   -6.3760 C   0  0  0  0  0  0  0  0  0  0  0  0
   10.8201    9.1585   -6.2718 C   0  0  0  0  0  0  0  0  0  0  0  0
   11.2503    9.7384   -5.1058 C   0  0  0  0  0  0  0  0  0  0  0  0
   11.6598    8.9114   -4.0622 C   0  0  0  0  0  0  0  0  0  0  0  0
   12.0977    9.4451   -2.8780 C   0  0  0  0  0  0  0  0  0  0  0  0
   12.5028    8.6104   -1.8461 C   0  0  0  0  0  0  0  0  0  0  0  0
   12.4846    7.2485   -1.9596 C   0  0  0  0  0  0  0  0  0  0  0  0
   12.0464    6.7068   -3.1452 C   0  0  0  0  0  0  0  0  0  0  0  0
   11.6364    7.5217   -4.1908 C   0  0  0  0  0  0  0  0  0  0  0  0
   11.2045    6.9611   -5.3603 C   0  0  0  0  0  0  0  0  0  0  0  0
 13 14  1  0
 14 15  1  0
 15 16  2  0
 16 17  1  0
 17 18  2  0
 17 19  1  0
 19 20  2  0
 20 21  1  0
 21  1  1  0
  1  2  2  0
  2  3  1  0
  3  4  2  0
  4  5  1  0
  5  6  2  0
  6  7  1  0
  7 27  1  0
 27 28  2  0
 28 29  1  0
 29 30  2  0
 30 31  1  0
 31 32  2  0
 32 33  1  0
 33 34  2  0
 34 35  1  0
 35 36  2  0
  7  8  2  0
  8  9  1  0
  9 10  2  0
 10 11  1  0
 11 12  1  0
 21 22  2  0
 22 23  1  0
 23 24  2  0
 24 25  1  0
 25 26  2  0
 25 15  1  0
 24 19  1  0
 11  2  1  0
 10  5  1  0
 36 27  1  0
 35 30  1  0
M  END
>  <minimizedAffinity>  (950) 
-16.58889

$$$$
Mol: 159_56 - SminaDock
     RDKit          3D

 39 45  0  0  0  0  0  0  0  0999 V2000
    8.5032    5.8012  -12.2478 C   0  0  0  0  0  0  0  0  0  0  0  0
    7.1633    5.6620  -11.9894 C   0  0  0  0  0  0  0  0  0  0  0  0
    6.4341    4.5881  -12.4646 C   0  0  0  0  0  0  0  0  0  0  0  0
    7.1012    3.6479  -13.2162 C   0  0  0  0  0  0  0  0  0  0  0  0
    8.4397    3.7411  -13.5024 C   0  0  0  0  0  0  0  0  0  0  0  0
    9.1352    4.8463  -12.9992 C   0  0  0  0  0  0  0  0  0  0  0  0
    9.2428    2.8217  -14.2760 C   0  0  0  0  0  0  0  0  0  0  0  0
   10.3681    3.3220  -14.6187 O   0  0  0  0  0  0  0  0  0  0  0  0
    9.0465    1.4618  -14.7438 C   0  0  0  0  0  0  0  0  0  0  0  0
    7.6508    1.0779  -15.0121 C   0  0  0  0  0  0  0  0  0  0  0  0
    7.6413    0.0321  -15.9171 C   0  0  0  0  0  0  0  0  0  0  0  0
    6.4600   -0.5521  -16.3679 C   0  0  0  0  0  0  0  0  0  0  0  0
    5.2388   -0.0842  -15.9060 C   0  0  0  0  0  0  0  0  0  0  0  0
    5.2586    0.9610  -15.0020 C   0  0  0  0  0  0  0  0  0  0  0  0
    6.4404    1.5285  -14.5655 C   0  0  0  0  0  0  0  0  0  0  0  0
    6.1898    2.5912  -13.6351 C   0  0  0  0  0  0  0  0  0  0  0  0
    5.0557    2.6485  -13.0961 O   0  0  0  0  0  0  0  0  0  0  0  0
    4.1067   -0.6960  -16.3831 O   0  0  0  0  0  0  0  0  0  0  0  0
    4.0550   -1.3178  -17.6718 C   0  0  0  0  0  0  0  0  0  0  0  0
    5.3288   -2.0795  -17.9529 C   0  0  0  0  0  0  0  0  0  0  0  0
    6.4415   -1.5914  -17.2667 O   0  0  0  0  0  0  0  0  0  0  0  0
   11.3492    8.0043   -5.9373 C   0  0  0  0  0  0  0  0  0  0  0  0
   11.6719    9.0511   -6.7762 C   0  0  0  0  0  0  0  0  0  0  0  0
   11.2994    9.0250   -8.1129 C   0  0  0  0  0  0  0  0  0  0  0  0
   10.6002    7.9677   -8.6563 C   0  0  0  0  0  0  0  0  0  0  0  0
   10.2328    7.9280   -9.9485 N   0  0  0  0  0  0  0  0  0  0  0  0
    9.5449    6.8922  -10.4920 C   0  0  0  0  0  0  0  0  0  0  0  0
    9.2124    6.9020  -11.7512 N   0  0  0  0  0  0  0  0  0  0  0  0
    9.2256    5.8670   -9.6825 N   0  0  0  0  0  0  0  0  0  0  0  0
    8.6915    5.0669  -10.1118 H   0  0  0  0  0  0  0  0  0  0  0  0
    9.5755    5.8699   -8.3840 C   0  0  0  0  0  0  0  0  0  0  0  0
   10.2777    6.9212   -7.8176 C   0  0  0  0  0  0  0  0  0  0  0  0
   10.6498    6.9504   -6.4881 C   0  0  0  0  0  0  0  0  0  0  0  0
   12.4770    8.0201   -1.8011 C   0  0  0  0  0  0  0  0  0  0  0  0
   12.0938    6.8532   -2.4290 C   0  0  0  0  0  0  0  0  0  0  0  0
   11.7334    6.8622   -3.7609 C   0  0  0  0  0  0  0  0  0  0  0  0
   11.7372    8.0205   -4.5231 C   0  0  0  0  0  0  0  0  0  0  0  0
   12.1219    9.1845   -3.8875 C   0  0  0  0  0  0  0  0  0  0  0  0
   12.4842    9.1773   -2.5498 C   0  0  0  0  0  0  0  0  0  0  0  0
 34 35  2  0
 35 36  1  0
 36 37  2  0
 37 22  1  0
 22 23  1  0
 23 24  2  0
 24 25  1  0
 25 26  2  0
 26 27  1  0
 27 28  2  0
 28  1  1  0
  1  2  2  0
  2  3  1  0
  3  4  2  0
  4  5  1  0
  5  6  2  0
  5  7  1  0
  7  8  2  0
  7  9  1  0
  9 10  1  0
 10 11  2  0
 11 12  1  0
 12 13  2  0
 13 14  1  0
 14 15  2  0
 15 16  1  0
 16 17  2  0
 13 18  1  0
 18 19  1  0
 19 20  1  0
 20 21  1  0
 27 29  1  0
 29 30  1  0
 29 31  1  0
 31 32  2  0
 32 33  1  0
 37 38  1  0
 38 39  2  0
 39 34  1  0
 33 22  2  0
 32 25  1  0
  6  1  1  0
 15 10  1  0
 16  4  1  0
 21 12  1  0
M  END
>  <minimizedAffinity>  (951) 
-16.59147

$$$$
Mol: 187_3 - SminaDock
     RDKit          3D

 50 58  0  0  0  0  0  0  0  0999 V2000
    8.7971    6.2180  -12.3410 C   0  0  0  0  0  0  0  0  0  0  0  0
    7.5276    5.8510  -11.9292 C   0  0  0  0  0  0  0  0  0  0  0  0
    6.8584    4.7760  -12.4770 C   0  0  0  0  0  0  0  0  0  0  0  0
    7.5147    4.0717  -13.4654 C   0  0  0  0  0  0  0  0  0  0  0  0
    8.7749    4.3812  -13.9224 C   0  0  0  0  0  0  0  0  0  0  0  0
    9.3980    5.4638  -13.3412 C   0  0  0  0  0  0  0  0  0  0  0  0
    9.1260    3.4289  -14.9527 C   0  0  1  0  0  0  0  0  0  0  0  0
    9.6837    3.8720  -16.1911 N   0  0  0  0  0  0  0  0  0  0  0  0
   10.9669    3.3163  -15.9153 C   0  0  1  0  0  0  0  0  0  0  0  0
   12.0248    4.3715  -15.8657 C   0  0  0  0  0  0  0  0  0  0  0  0
   12.9251    4.4215  -14.9932 O   0  0  0  0  0  0  0  0  0  0  0  0
   11.9038    5.3292  -16.9275 N   0  0  0  0  0  0  0  0  0  0  0  0
   10.7140    5.7058  -17.2442 C   0  0  0  0  0  0  0  0  0  0  0  0
   10.5063    6.7149  -18.3575 C   0  0  0  0  0  0  0  0  0  0  0  0
    9.6087    5.1768  -16.5377 N   0  0  2  0  0  0  0  0  0  0  0  0
    9.3585    5.8397  -15.7704 H   0  0  0  0  0  0  0  0  0  0  0  0
    8.7779    5.2699  -17.2091 H   0  0  0  0  0  0  0  0  0  0  0  0
   10.4711    2.7869  -14.6205 C   0  0  0  0  0  0  0  0  0  0  0  0
    8.0197    2.5132  -15.0876 N   0  0  0  0  0  0  0  0  0  0  0  0
    7.0807    2.8966  -14.2217 C   0  0  0  0  0  0  0  0  0  0  0  0
    6.0224    1.9940  -14.3811 C   0  0  0  0  0  0  0  0  0  0  0  0
    6.3890    1.0954  -15.3558 C   0  0  0  0  0  0  0  0  0  0  0  0
    5.7673   -0.0021  -15.9316 C   0  0  0  0  0  0  0  0  0  0  0  0
    6.3823   -0.7470  -16.9181 C   0  0  0  0  0  0  0  0  0  0  0  0
    7.6434   -0.4184  -17.3635 C   0  0  0  0  0  0  0  0  0  0  0  0
    8.2648    0.6711  -16.7943 C   0  0  0  0  0  0  0  0  0  0  0  0
    7.6465    1.4231  -15.7998 C   0  0  0  0  0  0  0  0  0  0  0  0
   11.3987    8.1132   -5.8553 C   0  0  0  0  0  0  0  0  0  0  0  0
   11.6613    9.2407   -6.6061 C   0  0  0  0  0  0  0  0  0  0  0  0
   11.3104    9.2925   -7.9408 C   0  0  0  0  0  0  0  0  0  0  0  0
   10.6889    8.2354   -8.5811 C   0  0  0  0  0  0  0  0  0  0  0  0
   10.4289    7.1109   -7.8256 C   0  0  0  0  0  0  0  0  0  0  0  0
    9.8057    6.0556   -8.4764 C   0  0  0  0  0  0  0  0  0  0  0  0
    9.5053    6.1940   -9.7612 N   0  0  0  0  0  0  0  0  0  0  0  0
    9.7640    7.2961  -10.4878 C   0  0  0  0  0  0  0  0  0  0  0  0
    9.4334    7.3362  -11.7353 N   0  0  0  0  0  0  0  0  0  0  0  0
   10.3601    8.3226   -9.8908 N   0  0  0  0  0  0  0  0  0  0  0  0
   10.5790    9.1956  -10.4157 H   0  0  0  0  0  0  0  0  0  0  0  0
   10.7767    7.0582   -6.5005 C   0  0  0  0  0  0  0  0  0  0  0  0
   12.4405    7.8652   -1.7137 C   0  0  0  0  0  0  0  0  0  0  0  0
   12.0768    6.7366   -2.4163 C   0  0  0  0  0  0  0  0  0  0  0  0
   11.7418    6.8200   -3.7503 C   0  0  0  0  0  0  0  0  0  0  0  0
   11.7517    8.0140   -4.4431 C   0  0  0  0  0  0  0  0  0  0  0  0
   12.1170    9.1428   -3.7343 C   0  0  0  0  0  0  0  0  0  0  0  0
   12.4593    9.0750   -2.3818 C   0  0  0  0  0  0  0  0  0  0  0  0
    8.2798   -1.2224  -18.4124 C   0  0  0  0  0  0  0  0  0  0  0  0
    7.6836   -1.5928  -19.4373 O   0  0  0  0  0  0  0  0  0  0  0  0
    9.6410   -1.6061  -18.2687 N   0  0  0  0  0  0  0  0  0  0  0  0
   10.4041   -0.8954  -18.2939 H   0  0  0  0  0  0  0  0  0  0  0  0
    9.9160   -2.6042  -18.1345 H   0  0  0  0  0  0  0  0  0  0  0  0
 40 41  2  0
 41 42  1  0
 42 43  2  0
 43 28  1  0
 28 29  2  0
 29 30  1  0
 30 31  2  0
 31 32  1  0
 32 33  1  0
 33 34  2  0
 34 35  1  0
 35 36  2  0
 36  1  1  0
  1  2  2  0
  2  3  1  0
  3  4  2  0
  4  5  1  0
  5  6  2  0
  5  7  1  0
  7  8  1  0
  8  9  1  0
  9 10  1  0
 10 11  2  0
 10 12  1  0
 12 13  2  0
 13 14  1  0
 13 15  1  0
 15 16  1  1
 15 17  1  0
  9 18  1  1
  7 19  1  0
 19 20  1  0
 20 21  2  0
 21 22  1  0
 22 23  2  0
 23 24  1  0
 24 25  2  0
 25 46  1  0
 46 47  2  0
 46 48  1  0
 48 49  1  0
 48 50  1  0
 25 26  1  0
 26 27  2  0
 35 37  1  0
 37 38  1  0
 32 39  2  0
 43 44  1  0
 44 45  2  0
 45 40  1  0
 39 28  1  0
 37 31  1  0
  6  1  1  0
  7 18  1  1
 27 19  1  0
 20  4  1  0
 27 22  1  0
 15  8  1  0
M  CHG  1  15   1
M  END
>  <minimizedAffinity>  (952) 
-16.58569

$$$$
Mol: 122_56 - SminaDock
     RDKit          3D

 43 50  0  0  0  0  0  0  0  0999 V2000
    7.8144    5.3526  -12.6034 C   0  0  0  0  0  0  0  0  0  0  0  0
    8.7362    6.3846  -12.4330 C   0  0  0  0  0  0  0  0  0  0  0  0
   10.0498    6.2608  -12.8088 C   0  0  0  0  0  0  0  0  0  0  0  0
   10.4207    5.0598  -13.3654 C   0  0  0  0  0  0  0  0  0  0  0  0
    9.5344    3.9955  -13.5555 C   0  0  0  0  0  0  0  0  0  0  0  0
    8.2271    4.1599  -13.1692 C   0  0  0  0  0  0  0  0  0  0  0  0
    7.2516    3.0840  -13.4551 C   0  0  0  0  0  0  0  0  0  0  0  0
    5.9650    3.1901  -12.9761 C   0  0  0  0  0  0  0  0  0  0  0  0
    5.0830    2.1456  -13.1574 C   0  0  0  0  0  0  0  0  0  0  0  0
    5.4814    0.9975  -13.8144 C   0  0  0  0  0  0  0  0  0  0  0  0
    6.7434    0.9007  -14.2829 C   0  0  0  0  0  0  0  0  0  0  0  0
    7.6516    1.9427  -14.1135 C   0  0  0  0  0  0  0  0  0  0  0  0
    8.9835    1.8554  -14.7108 C   0  0  0  0  0  0  0  0  0  0  0  0
    9.9980    2.7052  -14.0695 C   0  0  0  0  0  0  0  0  0  0  0  0
    6.9533   -0.3214  -14.9106 O   0  0  0  0  0  0  0  0  0  0  0  0
    5.6615   -0.8830  -15.1855 C   0  0  1  0  0  0  0  0  0  0  0  0
    4.7448   -0.2788  -14.1460 C   0  0  0  0  0  0  0  0  0  0  0  0
    5.1818   -0.5483  -16.5364 C   0  0  0  0  0  0  0  0  0  0  0  0
    5.9907    0.1968  -17.3641 C   0  0  0  0  0  0  0  0  0  0  0  0
    5.5452    0.5145  -18.6360 C   0  0  0  0  0  0  0  0  0  0  0  0
    4.3123    0.1012  -19.0885 C   0  0  0  0  0  0  0  0  0  0  0  0
    3.9135    0.3996  -20.2603 O   0  0  0  0  0  0  0  0  0  0  0  0
    3.5459   -0.6248  -18.2572 N   0  0  0  0  0  0  0  0  0  0  0  0
    2.6142   -0.9242  -18.6298 H   0  0  0  0  0  0  0  0  0  0  0  0
    3.9703   -0.9410  -17.0135 C   0  0  0  0  0  0  0  0  0  0  0  0
   11.0499    7.3428  -12.6414 C   0  0  0  0  0  0  0  0  0  0  0  0
   11.6446    7.3981  -11.3488 N   0  0  0  0  0  0  0  0  0  0  0  0
   11.1358    7.8743  -10.2810 C   0  0  0  0  0  0  0  0  0  0  0  0
    9.9826    8.4270  -10.0478 O   0  0  0  0  0  0  0  0  0  0  0  0
    9.8556    8.7837   -8.7935 N   0  0  0  0  0  0  0  0  0  0  0  0
    9.0180    9.2418   -8.3889 H   0  0  0  0  0  0  0  0  0  0  0  0
   10.9806    8.4572   -8.1378 C   0  0  0  0  0  0  0  0  0  0  0  0
   11.8158    7.8748   -9.0633 C   0  0  0  0  0  0  0  0  0  0  0  0
   11.2735    8.6699   -6.7294 C   0  0  0  0  0  0  0  0  0  0  0  0
   11.4159    9.9278   -6.1832 C   0  0  0  0  0  0  0  0  0  0  0  0
   11.6928   10.1270   -4.8489 C   0  0  0  0  0  0  0  0  0  0  0  0
   11.8432    9.0561   -3.9825 C   0  0  0  0  0  0  0  0  0  0  0  0
   12.1206    9.2444   -2.6446 C   0  0  0  0  0  0  0  0  0  0  0  0
   12.2570    8.1363   -1.8421 C   0  0  0  0  0  0  0  0  0  0  0  0
   12.1242    6.8500   -2.3384 C   0  0  0  0  0  0  0  0  0  0  0  0
   11.8475    6.7147   -3.6788 C   0  0  0  0  0  0  0  0  0  0  0  0
   11.7018    7.7863   -4.5229 C   0  0  0  0  0  0  0  0  0  0  0  0
   11.4234    7.6061   -5.8663 C   0  0  0  0  0  0  0  0  0  0  0  0
  1  2  2  0
  2  3  1  0
  3 26  1  0
 26 27  1  0
 27 28  2  0
 28 29  1  0
 29 30  1  0
 30 31  1  0
 30 32  1  0
 32 34  1  0
 34 35  2  0
 35 36  1  0
 36 37  2  0
 37 38  1  0
 38 39  2  0
 39 40  1  0
 40 41  2  0
 41 42  1  0
 42 43  2  0
 32 33  2  0
  3  4  2  0
  4  5  1  0
  5  6  2  0
  6  7  1  0
  7  8  2  0
  8  9  1  0
  9 10  2  0
 10 11  1  0
 11 12  2  0
 12 13  1  0
 13 14  1  0
 11 15  1  0
 15 16  1  0
 16 18  1  6
 18 19  1  0
 19 20  2  0
 20 21  1  0
 21 22  2  0
 21 23  1  0
 23 24  1  0
 23 25  1  0
 16 17  1  0
  6  1  1  0
 12  7  1  0
 25 18  2  0
 33 28  1  0
 14  5  1  0
 43 34  1  0
 17 10  1  0
 42 37  1  0
M  END
>  <minimizedAffinity>  (953) 
-16.62347

$$$$
Mol: 122_59 - SminaDock
     RDKit          3D

 39 45  0  0  0  0  0  0  0  0999 V2000
    7.7454    4.6371  -12.8744 C   0  0  0  0  0  0  0  0  0  0  0  0
    6.4690    4.5147  -12.3741 C   0  0  0  0  0  0  0  0  0  0  0  0
    5.6507    3.4600  -12.6960 C   0  0  0  0  0  0  0  0  0  0  0  0
    6.1314    2.4720  -13.5650 C   0  0  0  0  0  0  0  0  0  0  0  0
    7.4004    2.5827  -14.0696 C   0  0  0  0  0  0  0  0  0  0  0  0
    8.2201    3.6691  -13.7275 C   0  0  0  0  0  0  0  0  0  0  0  0
    7.6295    1.4059  -14.9488 C   0  0  2  0  0  0  0  0  0  0  0  0
    8.7645    0.6292  -14.3882 C   0  0  0  0  0  0  0  0  0  0  0  0
    8.5190   -0.3420  -13.6017 O   0  0  0  0  0  0  0  0  0  0  0  0
   10.0849    0.9907  -14.7443 N   0  0  0  0  0  0  0  0  0  0  0  0
   10.3423    1.7693  -15.9178 C   0  0  0  0  0  0  0  0  0  0  0  0
   11.5094    2.1079  -16.2622 O   0  0  0  0  0  0  0  0  0  0  0  0
    9.2338    2.1655  -16.7098 N   0  0  0  0  0  0  0  0  0  0  0  0
    7.9219    1.7975  -16.3430 C   0  0  0  0  0  0  0  0  0  0  0  0
    6.9617    1.7878  -17.1757 O   0  0  0  0  0  0  0  0  0  0  0  0
    6.3607    0.6548  -14.8662 C   0  0  0  0  0  0  0  0  0  0  0  0
    5.9876   -0.5206  -15.4704 C   0  0  0  0  0  0  0  0  0  0  0  0
    4.7287   -1.0542  -15.2488 C   0  0  0  0  0  0  0  0  0  0  0  0
    3.8318   -0.3918  -14.4043 C   0  0  0  0  0  0  0  0  0  0  0  0
    4.2021    0.7810  -13.8005 C   0  0  0  0  0  0  0  0  0  0  0  0
    5.4530    1.2785  -14.0422 C   0  0  0  0  0  0  0  0  0  0  0  0
   11.0680    7.5795   -7.0572 C   0  0  0  0  0  0  0  0  0  0  0  0
   11.4360    8.4321   -8.0795 C   0  0  0  0  0  0  0  0  0  0  0  0
   11.0105    8.2304   -9.3773 C   0  0  0  0  0  0  0  0  0  0  0  0
   10.1980    7.1696   -9.7206 C   0  0  0  0  0  0  0  0  0  0  0  0
    9.7813    6.9718  -10.9916 N   0  0  0  0  0  0  0  0  0  0  0  0
    8.9899    5.9357  -11.3167 C   0  0  0  0  0  0  0  0  0  0  0  0
    8.5828    5.7344  -12.5333 N   0  0  0  0  0  0  0  0  0  0  0  0
    8.6151    5.0888  -10.3443 N   0  0  0  0  0  0  0  0  0  0  0  0
    8.0089    4.2872  -10.5685 H   0  0  0  0  0  0  0  0  0  0  0  0
    9.0153    5.2565   -9.0534 C   0  0  0  0  0  0  0  0  0  0  0  0
    9.8281    6.3153   -8.7026 C   0  0  0  0  0  0  0  0  0  0  0  0
   10.2551    6.5178   -7.3995 C   0  0  0  0  0  0  0  0  0  0  0  0
   11.7371    7.0888   -3.3853 C   0  0  0  0  0  0  0  0  0  0  0  0
   12.3842    8.2110   -3.0883 N   0  0  0  0  0  0  0  0  0  0  0  0
   12.6213    9.1359   -4.0263 C   0  0  0  0  0  0  0  0  0  0  0  0
   12.2010    8.9614   -5.3493 C   0  0  0  0  0  0  0  0  0  0  0  0
   11.5262    7.8061   -5.6894 C   0  0  0  0  0  0  0  0  0  0  0  0
   11.3108    6.8890   -4.6808 C   0  0  0  0  0  0  0  0  0  0  0  0
 34 35  2  0
 35 36  1  0
 36 37  2  0
 37 38  1  0
 38 22  1  0
 22 23  1  0
 23 24  2  0
 24 25  1  0
 25 26  2  0
 26 27  1  0
 27 28  2  0
 28  1  1  0
  1  2  2  0
  2  3  1  0
  3  4  2  0
  4  5  1  0
  5  6  2  0
  5  7  1  0
  7  8  1  1
  8  9  2  0
  8 10  1  0
 10 11  1  0
 11 12  2  0
 11 13  1  0
 13 14  1  0
 14 15  2  0
  7 16  1  0
 16 17  2  0
 17 18  1  0
 18 19  2  0
 19 20  1  0
 20 21  2  0
 27 29  1  0
 29 30  1  0
 29 31  1  0
 31 32  2  0
 32 33  1  0
 38 39  2  0
 39 34  1  0
 33 22  2  0
 32 25  1  0
  6  1  1  0
 14  7  1  0
 21 16  1  0
 21  4  1  0
M  CHG  2  10  -1  13  -1
M  END
>  <minimizedAffinity>  (954) 
-16.62268

$$$$
Mol: 159_46 - SminaDock
     RDKit          3D

 43 49  0  0  0  0  0  0  0  0999 V2000
    8.5222    5.7724  -12.3569 C   0  0  0  0  0  0  0  0  0  0  0  0
    7.1543    5.7685  -12.5324 C   0  0  0  0  0  0  0  0  0  0  0  0
    6.5252    4.7026  -13.1481 C   0  0  0  0  0  0  0  0  0  0  0  0
    7.2200    3.6045  -13.6121 C   0  0  0  0  0  0  0  0  0  0  0  0
    6.6085    2.5326  -14.2290 C   0  0  0  0  0  0  0  0  0  0  0  0
    7.3232    1.4373  -14.6894 C   0  0  0  0  0  0  0  0  0  0  0  0
    8.6918    1.4342  -14.5173 C   0  0  0  0  0  0  0  0  0  0  0  0
    9.2891    2.5144  -13.8982 C   0  0  0  0  0  0  0  0  0  0  0  0
    8.5881    3.6079  -13.4369 C   0  0  0  0  0  0  0  0  0  0  0  0
    9.2228    4.6779  -12.8184 C   0  0  0  0  0  0  0  0  0  0  0  0
   11.2989    8.0236   -5.9357 C   0  0  0  0  0  0  0  0  0  0  0  0
   11.5787    9.0788   -6.7801 C   0  0  0  0  0  0  0  0  0  0  0  0
   11.1991    9.0262   -8.1182 C   0  0  0  0  0  0  0  0  0  0  0  0
   10.5390    7.9384   -8.6508 C   0  0  0  0  0  0  0  0  0  0  0  0
   10.1653    7.8777   -9.9511 N   0  0  0  0  0  0  0  0  0  0  0  0
    9.5222    6.8186  -10.4695 C   0  0  0  0  0  0  0  0  0  0  0  0
    9.2046    6.8520  -11.7278 N   0  0  0  0  0  0  0  0  0  0  0  0
    9.2438    5.7886   -9.6644 N   0  0  0  0  0  0  0  0  0  0  0  0
    8.7487    4.9587  -10.0369 H   0  0  0  0  0  0  0  0  0  0  0  0
    9.6001    5.8056   -8.3509 C   0  0  0  0  0  0  0  0  0  0  0  0
   10.2613    6.8861   -7.8031 C   0  0  0  0  0  0  0  0  0  0  0  0
   10.6361    6.9332   -6.4735 C   0  0  0  0  0  0  0  0  0  0  0  0
   12.4365    8.0257   -1.8438 C   0  0  0  0  0  0  0  0  0  0  0  0
   12.0986    6.8607   -2.5041 C   0  0  0  0  0  0  0  0  0  0  0  0
   11.7310    6.8685   -3.8302 C   0  0  0  0  0  0  0  0  0  0  0  0
   11.6965    8.0770   -4.5299 C   0  0  0  0  0  0  0  0  0  0  0  0
   12.0280    9.2414   -3.8919 C   0  0  0  0  0  0  0  0  0  0  0  0
   12.3862    9.1963   -2.5823 C   0  0  0  0  0  0  0  0  0  0  0  0
    9.5609    0.3028  -14.9772 C   0  0  0  0  0  0  0  0  0  0  0  0
   10.2849    0.6955  -16.2062 C   0  0  0  0  0  0  0  0  0  0  0  0
   10.1518   -0.2980  -17.1794 C   0  0  0  0  0  0  0  0  0  0  0  0
   10.8700   -0.7450  -18.2641 C   0  0  0  0  0  0  0  0  0  0  0  0
   11.9902   -0.2156  -18.9141 C   0  0  0  0  0  0  0  0  0  0  0  0
   12.6403    1.0118  -18.9009 C   0  0  0  0  0  0  0  0  0  0  0  0
   13.5425    0.9795  -19.9477 C   0  0  0  0  0  0  0  0  0  0  0  0
   14.3349    2.0859  -20.1707 C   0  0  0  0  0  0  0  0  0  0  0  0
   14.2873    3.2353  -19.4112 C   0  0  0  0  0  0  0  0  0  0  0  0
   15.0481    4.2283  -19.6675 O   0  0  0  0  0  0  0  0  0  0  0  0
   13.3963    3.2937  -18.3611 C   0  0  0  0  0  0  0  0  0  0  0  0
   12.5682    2.2145  -18.0809 C   0  0  0  0  0  0  0  0  0  0  0  0
   11.8065    2.6052  -16.9749 C   0  0  0  0  0  0  0  0  0  0  0  0
   11.9554    3.8087  -16.6694 O   0  0  0  0  0  0  0  0  0  0  0  0
   10.9288    1.9140  -16.1655 C   0  0  0  0  0  0  0  0  0  0  0  0
 23 24  2  0
 24 25  1  0
 25 26  2  0
 26 11  1  0
 11 12  1  0
 12 13  2  0
 13 14  1  0
 14 15  2  0
 15 16  1  0
 16 17  2  0
 17  1  1  0
  1  2  2  0
  2  3  1  0
  3  4  2  0
  4  5  1  0
  5  6  2  0
  6  7  1  0
  7 29  1  0
 29 30  1  0
 30 31  1  0
 31 32  2  0
 32 33  1  0
 33 34  2  0
 34 35  1  0
 35 36  2  0
 36 37  1  0
 37 38  2  0
 37 39  1  0
 39 40  2  0
 40 41  1  0
 41 42  2  0
 41 43  1  0
  7  8  2  0
  8  9  1  0
  9 10  2  0
 16 18  1  0
 18 19  1  0
 18 20  1  0
 20 21  2  0
 21 22  1  0
 26 27  1  0
 27 28  2  0
 28 23  1  0
 22 11  2  0
 21 14  1  0
 10  1  1  0
  9  4  1  0
 43 30  2  0
 40 34  1  0
M  END
>  <minimizedAffinity>  (955) 
-16.63683

$$$$
Mol: 198_1 - SminaDock
     RDKit          3D

 43 50  0  0  0  0  0  0  0  0999 V2000
    8.2356   -0.3712  -16.9675 C   0  0  0  0  0  0  0  0  0  0  0  0
    6.7924   -0.4783  -17.0904 N   0  0  0  0  0  0  0  0  0  0  0  0
    6.2394   -1.0336  -18.3050 C   0  0  0  0  0  0  0  0  0  0  0  0
    6.8975   -1.8682  -19.2247 O   0  0  0  0  0  0  0  0  0  0  0  0
    4.9934   -0.6452  -18.4485 C   0  0  0  0  0  0  0  0  0  0  0  0
    4.6332    0.2186  -17.3039 C   0  0  0  0  0  0  0  0  0  0  0  0
    5.6795   -0.1891  -16.2840 C   0  0  1  0  0  0  0  0  0  0  0  0
    5.1077   -1.4419  -15.6472 C   0  0  0  0  0  0  0  0  0  0  0  0
    5.7113   -2.5349  -15.6798 O   0  0  0  0  0  0  0  0  0  0  0  0
    3.8755   -1.2480  -15.0418 O   0  0  0  0  0  0  0  0  0  0  0  0
    3.6364   -0.1229  -14.1976 C   0  0  0  0  0  0  0  0  0  0  0  0
    4.8281    0.8012  -14.2357 C   0  0  0  0  0  0  0  0  0  0  0  0
    4.9309    1.7412  -13.2021 C   0  0  0  0  0  0  0  0  0  0  0  0
    5.9846    2.6319  -13.1645 C   0  0  0  0  0  0  0  0  0  0  0  0
    6.9613    2.6265  -14.1333 C   0  0  0  0  0  0  0  0  0  0  0  0
    6.8424    1.6928  -15.1440 C   0  0  0  0  0  0  0  0  0  0  0  0
    5.7973    0.7897  -15.2044 C   0  0  0  0  0  0  0  0  0  0  0  0
    7.9097    3.6842  -13.8136 C   0  0  0  0  0  0  0  0  0  0  0  0
    9.0739    4.1241  -14.4553 C   0  0  0  0  0  0  0  0  0  0  0  0
    9.7963    5.1735  -13.9407 C   0  0  0  0  0  0  0  0  0  0  0  0
    9.4302    5.8409  -12.7928 C   0  0  0  0  0  0  0  0  0  0  0  0
    8.2902    5.4131  -12.1597 C   0  0  0  0  0  0  0  0  0  0  0  0
    7.5380    4.3425  -12.6685 C   0  0  0  0  0  0  0  0  0  0  0  0
    6.2970    3.6950  -12.1831 C   0  0  0  0  0  0  0  0  0  0  0  0
    7.9266   -1.8546  -19.2524 H   0  0  0  0  0  0  0  0  0  0  0  0
   10.2348    6.9120  -12.3670 N   0  0  0  0  0  0  0  0  0  0  0  0
   10.6285    7.6109  -13.0630 H   0  0  0  0  0  0  0  0  0  0  0  0
   10.6028    7.1731  -11.0140 C   0  0  0  0  0  0  0  0  0  0  0  0
   11.8221    7.8399  -10.8221 C   0  0  0  0  0  0  0  0  0  0  0  0
   12.2029    8.0838   -9.5222 C   0  0  0  0  0  0  0  0  0  0  0  0
   11.4338    7.6978   -8.4404 C   0  0  0  0  0  0  0  0  0  0  0  0
   11.8568    7.9575   -7.1308 C   0  0  0  0  0  0  0  0  0  0  0  0
   11.1235    7.5834   -6.0343 C   0  0  0  0  0  0  0  0  0  0  0  0
    9.9190    6.9232   -6.2807 C   0  0  0  0  0  0  0  0  0  0  0  0
    9.5053    6.6693   -7.5768 C   0  0  0  0  0  0  0  0  0  0  0  0
   10.2428    7.0453   -8.6785 C   0  0  0  0  0  0  0  0  0  0  0  0
    9.8713    6.8078   -9.9472 N   0  0  0  0  0  0  0  0  0  0  0  0
   11.5508    7.8484   -4.6631 C   0  0  0  0  0  0  0  0  0  0  0  0
   11.7736    6.8420   -3.7502 C   0  0  0  0  0  0  0  0  0  0  0  0
   12.1785    7.0690   -2.4494 C   0  0  0  0  0  0  0  0  0  0  0  0
   12.3616    8.3826   -2.0734 C   0  0  0  0  0  0  0  0  0  0  0  0
   12.1466    9.3877   -2.9623 C   0  0  0  0  0  0  0  0  0  0  0  0
   11.7474    9.1166   -4.2356 N   0  0  0  0  0  0  0  0  0  0  0  0
  1  2  1  0
  2  3  1  0
  3  4  1  0
  3  5  2  0
  5  6  1  0
  7  6  1  6
  7  8  1  0
  8  9  2  0
  8 10  1  0
 10 11  1  0
 11 12  1  0
 12 13  2  0
 13 14  1  0
 14 15  2  0
 15 16  1  0
 16 17  2  0
 15 18  1  0
 18 19  2  0
 19 20  1  0
 20 21  2  0
 21 26  1  0
 26 28  1  0
 28 29  2  0
 29 30  1  0
 30 31  2  0
 31 32  1  0
 32 33  2  0
 33 38  1  0
 38 39  2  0
 39 40  1  0
 40 41  2  0
 41 42  1  0
 42 43  2  0
 33 34  1  0
 34 35  2  0
 35 36  1  0
 36 37  2  0
 21 22  1  0
 22 23  2  0
 23 24  1  0
  7  2  1  0
 17 12  1  0
 23 18  1  0
 17  7  1  0
 37 28  1  0
 24 14  1  0
 36 31  1  0
 43 38  1  0
  4 25  1  0
 26 27  1  0
M  END
>  <minimizedAffinity>  (956) 
-16.55050

$$$$
Mol: 81_1 - SminaDock
     RDKit          3D

 42 49  0  0  0  0  0  0  0  0999 V2000
    8.3463    5.0800  -13.6139 N   0  0  0  0  0  0  0  0  0  0  0  0
    8.8624    5.5797  -12.5454 C   0  0  0  0  0  0  0  0  0  0  0  0
    9.7679    6.6073  -12.6811 C   0  0  0  0  0  0  0  0  0  0  0  0
   10.3868    7.2204  -11.5864 C   0  0  0  0  0  0  0  0  0  0  0  0
   10.0475    6.7457  -10.3392 C   0  0  0  0  0  0  0  0  0  0  0  0
   10.6271    7.3130   -9.2211 C   0  0  0  0  0  0  0  0  0  0  0  0
   10.3064    6.8572   -7.9503 C   0  0  0  0  0  0  0  0  0  0  0  0
    9.4093    5.8406   -7.8345 C   0  0  0  0  0  0  0  0  0  0  0  0
    8.8163    5.2582   -8.9537 C   0  0  0  0  0  0  0  0  0  0  0  0
    9.1399    5.7160  -10.2081 C   0  0  0  0  0  0  0  0  0  0  0  0
    8.5746    5.1620  -11.2912 N   0  0  0  0  0  0  0  0  0  0  0  0
    7.8912    4.3872  -11.1959 H   0  0  0  0  0  0  0  0  0  0  0  0
    8.9712    1.7120  -15.8620 C   0  0  0  0  0  0  0  0  0  0  0  0
    8.0970    0.6580  -15.7927 C   0  0  0  0  0  0  0  0  0  0  0  0
    6.9902    0.7028  -14.9692 C   0  0  0  0  0  0  0  0  0  0  0  0
    6.7172    1.8073  -14.1827 C   0  0  0  0  0  0  0  0  0  0  0  0
    5.6249    1.8721  -13.3590 C   0  0  0  0  0  0  0  0  0  0  0  0
    5.4231    3.0049  -12.6089 C   0  0  0  0  0  0  0  0  0  0  0  0
    6.3032    4.0638  -12.6798 C   0  0  0  0  0  0  0  0  0  0  0  0
    7.4133    4.0233  -13.5035 C   0  0  0  0  0  0  0  0  0  0  0  0
    7.5911    2.8768  -14.2435 C   0  0  0  0  0  0  0  0  0  0  0  0
    8.6950    2.8107  -15.0763 C   0  0  0  0  0  0  0  0  0  0  0  0
   13.0806   -0.6910  -19.6652 C   0  0  0  0  0  0  0  0  0  0  0  0
   13.8829    0.4120  -19.8597 C   0  0  0  0  0  0  0  0  0  0  0  0
   13.5307    1.5717  -19.2010 C   0  0  0  0  0  0  0  0  0  0  0  0
   12.4239    1.6451  -18.3768 C   0  0  0  0  0  0  0  0  0  0  0  0
   12.0652    2.7978  -17.7160 C   0  0  0  0  0  0  0  0  0  0  0  0
   10.9352    2.8388  -16.8863 C   0  0  0  0  0  0  0  0  0  0  0  0
   10.1551    1.7169  -16.7146 C   0  0  0  0  0  0  0  0  0  0  0  0
   10.5456    0.6117  -17.3818 N   0  0  0  0  0  0  0  0  0  0  0  0
   11.6183    0.5431  -18.1798 C   0  0  0  0  0  0  0  0  0  0  0  0
   11.9749   -0.6229  -18.8437 C   0  0  0  0  0  0  0  0  0  0  0  0
   10.9656    7.5127   -6.8115 C   0  0  0  0  0  0  0  0  0  0  0  0
   10.9877    6.9337   -5.5934 N   0  0  0  0  0  0  0  0  0  0  0  0
   11.5671    7.4707   -4.5154 C   0  0  0  0  0  0  0  0  0  0  0  0
   11.5512    6.8200   -3.2965 C   0  0  0  0  0  0  0  0  0  0  0  0
   12.1509    7.3722   -2.1738 C   0  0  0  0  0  0  0  0  0  0  0  0
   12.7831    8.6090   -2.2753 C   0  0  0  0  0  0  0  0  0  0  0  0
   12.7825    9.2300   -3.4965 C   0  0  0  0  0  0  0  0  0  0  0  0
   12.1888    8.6923   -4.6255 C   0  0  0  0  0  0  0  0  0  0  0  0
   12.2085    9.3465   -5.8379 C   0  0  0  0  0  0  0  0  0  0  0  0
   11.5846    8.7296   -6.9225 C   0  0  0  0  0  0  0  0  0  0  0  0
 23 24  2  0
 24 25  1  0
 25 26  2  0
 26 27  1  0
 27 28  2  0
 28 29  1  0
 29 13  1  0
 13 14  2  0
 14 15  1  0
 15 16  2  0
 16 17  1  0
 17 18  2  0
 18 19  1  0
 19 20  2  0
 20  1  1  0
  1  2  2  0
  2  3  1  0
  3  4  2  0
  4  5  1  0
  5  6  2  0
  6  7  1  0
  7 33  1  0
 33 34  2  0
 34 35  1  0
 35 36  2  0
 36 37  1  0
 37 38  2  0
 38 39  1  0
 39 40  2  0
 40 41  1  0
 41 42  2  0
  7  8  2  0
  8  9  1  0
  9 10  2  0
 10 11  1  0
 11 12  1  0
 20 21  1  0
 21 22  2  0
 29 30  2  0
 30 31  1  0
 31 32  2  0
 32 23  1  0
 31 26  1  0
 22 13  1  0
 21 16  1  0
 11  2  1  0
 10  5  1  0
 42 33  1  0
 40 35  1  0
M  END
>  <minimizedAffinity>  (957) 
-16.63901

$$$$
Mol: 187_41 - SminaDock
     RDKit          3D

 43 50  0  0  0  0  0  0  0  0999 V2000
   11.1956    1.4682  -17.3344 H   0  0  0  0  0  0  0  0  0  0  0  0
   10.2973    1.9633  -17.2001 N   0  0  0  0  0  0  0  0  0  0  0  0
    9.6419    1.8711  -16.0929 C   0  0  0  0  0  0  0  0  0  0  0  0
    8.4338    2.4889  -15.8052 O   0  0  0  0  0  0  0  0  0  0  0  0
    8.2327    2.3688  -14.4183 C   0  0  1  0  0  0  0  0  0  0  0  0
    8.3522    3.6536  -13.7019 C   0  0  0  0  0  0  0  0  0  0  0  0
    9.3328    4.6022  -13.5235 C   0  0  0  0  0  0  0  0  0  0  0  0
    9.1444    5.7366  -12.7753 C   0  0  0  0  0  0  0  0  0  0  0  0
    7.9312    5.9629  -12.1642 C   0  0  0  0  0  0  0  0  0  0  0  0
    6.9349    5.0276  -12.3285 C   0  0  0  0  0  0  0  0  0  0  0  0
    7.1354    3.8754  -13.0920 C   0  0  0  0  0  0  0  0  0  0  0  0
    6.2331    2.7900  -13.3817 C   0  0  0  0  0  0  0  0  0  0  0  0
    4.9493    2.3056  -13.1644 C   0  0  0  0  0  0  0  0  0  0  0  0
    4.8277    1.1042  -13.8298 C   0  0  0  0  0  0  0  0  0  0  0  0
    3.7870    0.2083  -13.9523 C   0  0  0  0  0  0  0  0  0  0  0  0
    3.9443   -0.9445  -14.6987 C   0  0  0  0  0  0  0  0  0  0  0  0
    5.1560   -1.1793  -15.3146 C   0  0  0  0  0  0  0  0  0  0  0  0
    6.1999   -0.2662  -15.1829 C   0  0  0  0  0  0  0  0  0  0  0  0
    6.0503    0.8957  -14.4344 C   0  0  0  0  0  0  0  0  0  0  0  0
    6.8870    1.9304  -14.1492 N   0  0  0  0  0  0  0  0  0  0  0  0
    9.1512    1.3732  -13.9495 N   0  0  0  0  0  0  0  0  0  0  0  0
    9.5617    1.5656  -13.0314 H   0  0  0  0  0  0  0  0  0  0  0  0
   10.0511    1.1093  -14.9601 N   0  0  1  0  0  0  0  0  0  0  0  0
   10.0613    0.0906  -15.2103 H   0  0  0  0  0  0  0  0  0  0  0  0
   11.0295    1.3904  -14.7210 H   0  0  0  0  0  0  0  0  0  0  0  0
   10.1906    6.7037  -12.6111 N   0  0  0  0  0  0  0  0  0  0  0  0
   10.5031    6.9999  -11.3805 C   0  0  0  0  0  0  0  0  0  0  0  0
    9.9013    6.4508  -10.3175 N   0  0  0  0  0  0  0  0  0  0  0  0
   10.2441    6.7749   -9.0526 C   0  0  0  0  0  0  0  0  0  0  0  0
    9.6081    6.1941   -7.9665 C   0  0  0  0  0  0  0  0  0  0  0  0
    9.9926    6.5564   -6.6728 C   0  0  0  0  0  0  0  0  0  0  0  0
   10.9949    7.4827   -6.4622 C   0  0  0  0  0  0  0  0  0  0  0  0
   11.5995    8.0344   -7.5728 C   0  0  0  0  0  0  0  0  0  0  0  0
   11.2493    7.7037   -8.8627 C   0  0  0  0  0  0  0  0  0  0  0  0
   11.8512    8.2528   -9.9716 C   0  0  0  0  0  0  0  0  0  0  0  0
   11.4962    7.9176  -11.2205 N   0  0  0  0  0  0  0  0  0  0  0  0
   11.9530    8.3341  -12.0719 H   0  0  0  0  0  0  0  0  0  0  0  0
   11.3826    7.8482   -5.1035 C   0  0  0  0  0  0  0  0  0  0  0  0
   11.5633    9.1645   -4.7372 C   0  0  0  0  0  0  0  0  0  0  0  0
   11.9338    9.4946   -3.4356 C   0  0  0  0  0  0  0  0  0  0  0  0
   12.1337    8.5316   -2.4686 C   0  0  0  0  0  0  0  0  0  0  0  0
   11.9526    7.2148   -2.8369 C   0  0  0  0  0  0  0  0  0  0  0  0
   11.5809    6.8836   -4.1424 C   0  0  0  0  0  0  0  0  0  0  0  0
  1  2  1  0
  2  3  2  0
  3  4  1  0
  5  4  1  6
  5  6  1  0
  6  7  2  0
  7  8  1  0
  8 26  1  0
 26 27  2  0
 27 28  1  0
 28 29  2  0
 29 30  1  0
 30 31  2  0
 31 32  1  0
 32 38  1  0
 38 39  2  0
 39 40  1  0
 40 41  2  0
 41 42  1  0
 42 43  2  0
 32 33  2  0
 33 34  1  0
 34 35  2  0
 35 36  1  0
 36 37  1  0
  8  9  2  0
  9 10  1  0
 10 11  2  0
 11 12  1  0
 12 13  2  0
 13 14  1  0
 14 15  2  0
 15 16  1  0
 16 17  2  0
 17 18  1  0
 18 19  2  0
 19 20  1  0
  5 21  1  0
 21 22  1  0
 21 23  1  0
 23 24  1  6
 23 25  1  0
 23  3  1  0
 20  5  1  0
 11  6  1  0
 20 12  1  0
 36 27  1  0
 19 14  1  0
 34 29  1  0
 43 38  1  0
M  CHG  1  23   1
M  END
>  <minimizedAffinity>  (958) 
-16.55411

$$$$
Mol: 120_60 - SminaDock
     RDKit          3D

 36 42  0  0  0  0  0  0  0  0999 V2000
   11.1176    7.6791   -6.9749 C   0  0  0  0  0  0  0  0  0  0  0  0
   11.3975    8.5648   -7.9856 C   0  0  0  0  0  0  0  0  0  0  0  0
   10.9039    8.3085   -9.2386 C   0  0  0  0  0  0  0  0  0  0  0  0
   10.1362    7.2007   -9.5393 C   0  0  0  0  0  0  0  0  0  0  0  0
    9.8597    6.3144   -8.5150 C   0  0  0  0  0  0  0  0  0  0  0  0
    9.0954    5.2199   -8.8332 C   0  0  0  0  0  0  0  0  0  0  0  0
    8.6336    5.0164  -10.0900 N   0  0  0  0  0  0  0  0  0  0  0  0
    8.9105    5.8851  -11.0721 C   0  0  0  0  0  0  0  0  0  0  0  0
    8.4966    5.7405  -12.2868 N   0  0  0  0  0  0  0  0  0  0  0  0
    9.6578    6.9614  -10.7749 N   0  0  0  0  0  0  0  0  0  0  0  0
    9.9101    7.6805  -11.5011 H   0  0  0  0  0  0  0  0  0  0  0  0
   10.3418    6.5469   -7.2490 C   0  0  0  0  0  0  0  0  0  0  0  0
    7.7034    4.6318  -12.6814 C   0  0  0  0  0  0  0  0  0  0  0  0
    6.4375    4.5011  -12.2033 C   0  0  0  0  0  0  0  0  0  0  0  0
    5.6899    3.4292  -12.5927 C   0  0  0  0  0  0  0  0  0  0  0  0
    6.2307    2.4895  -13.4694 C   0  0  0  0  0  0  0  0  0  0  0  0
    7.4942    2.5977  -13.9615 C   0  0  0  0  0  0  0  0  0  0  0  0
    8.2386    3.7041  -13.5473 C   0  0  0  0  0  0  0  0  0  0  0  0
    7.7698    1.4608  -14.8523 C   0  0  2  0  0  0  0  0  0  0  0  0
    6.5393    0.6536  -14.8463 C   0  0  0  0  0  0  0  0  0  0  0  0
    6.2320   -0.5412  -15.5148 C   0  0  0  0  0  0  0  0  0  0  0  0
    4.9904   -1.1052  -15.3396 C   0  0  0  0  0  0  0  0  0  0  0  0
    4.0688   -0.4952  -14.5156 C   0  0  0  0  0  0  0  0  0  0  0  0
    4.3887    0.6759  -13.8689 C   0  0  0  0  0  0  0  0  0  0  0  0
    5.6417    1.2814  -14.0211 C   0  0  0  0  0  0  0  0  0  0  0  0
    8.9109    0.6204  -14.3302 C   0  0  0  0  0  0  0  0  0  0  0  0
    9.7658    0.2124  -15.5114 C   0  0  0  0  0  0  0  0  0  0  0  0
   10.3923    1.4116  -15.9209 O   0  0  0  0  0  0  0  0  0  0  0  0
    9.4960    2.2487  -16.5282 C   0  0  0  0  0  0  0  0  0  0  0  0
    8.0628    2.0364  -16.2178 C   0  0  0  0  0  0  0  0  0  0  0  0
   12.4928    8.1931   -3.0159 C   0  0  0  0  0  0  0  0  0  0  0  0
   12.7205    9.1651   -3.9507 C   0  0  0  0  0  0  0  0  0  0  0  0
   12.2688    9.0034   -5.2641 C   0  0  0  0  0  0  0  0  0  0  0  0
   11.5909    7.8573   -5.6142 C   0  0  0  0  0  0  0  0  0  0  0  0
   11.3696    6.8882   -4.6618 C   0  0  0  0  0  0  0  0  0  0  0  0
   11.8159    7.0432   -3.3557 C   0  0  0  0  0  0  0  0  0  0  0  0
 31 32  2  0
 32 33  1  0
 33 34  2  0
 34  1  1  0
  1  2  2  0
  2  3  1  0
  3  4  2  0
  4  5  1  0
  5  6  1  0
  6  7  2  0
  7  8  1  0
  8  9  2  0
  9 13  1  0
 13 14  2  0
 14 15  1  0
 15 16  2  0
 16 17  1  0
 17 18  2  0
 17 19  1  0
 19 20  1  0
 20 21  2  0
 21 22  1  0
 22 23  2  0
 23 24  1  0
 24 25  2  0
 19 26  1  1
 26 27  1  0
 27 28  1  0
 28 29  1  0
 29 30  1  0
  8 10  1  0
 10 11  1  0
  5 12  2  0
 34 35  1  0
 35 36  2  0
 36 31  1  0
 12  1  1  0
 10  4  1  0
 18 13  1  0
 30 19  1  0
 25 16  1  0
 25 20  1  0
M  END
>  <minimizedAffinity>  (959) 
-16.49342

$$$$
Mol: 198_29 - SminaDock
     RDKit          3D

 47 55  0  0  0  0  0  0  0  0999 V2000
   11.5738    6.8482  -13.9549 C   0  0  0  0  0  0  0  0  0  0  0  0
   12.5614    7.8399  -13.8557 C   0  0  0  0  0  0  0  0  0  0  0  0
   13.3885    8.1357  -14.9111 C   0  0  0  0  0  0  0  0  0  0  0  0
   13.2131    7.4207  -16.0752 C   0  0  0  0  0  0  0  0  0  0  0  0
   12.2587    6.4419  -16.2141 C   0  0  0  0  0  0  0  0  0  0  0  0
   11.4214    6.1541  -15.1214 C   0  0  0  0  0  0  0  0  0  0  0  0
   10.3949    5.1206  -15.2468 C   0  0  0  0  0  0  0  0  0  0  0  0
   10.2437    4.4152  -16.4441 C   0  0  0  0  0  0  0  0  0  0  0  0
    9.2799    3.4486  -16.6015 C   0  0  0  0  0  0  0  0  0  0  0  0
    8.3995    3.1203  -15.5706 C   0  0  0  0  0  0  0  0  0  0  0  0
    8.5367    3.8052  -14.3896 C   0  0  0  0  0  0  0  0  0  0  0  0
    9.5249    4.7916  -14.2388 C   0  0  0  0  0  0  0  0  0  0  0  0
    7.5025    3.2892  -13.4544 C   0  0  0  0  0  0  0  0  0  0  0  0
    6.7848    2.2559  -14.2368 C   0  0  0  0  0  0  0  0  0  0  0  0
    5.7224    1.4109  -13.9445 C   0  0  0  0  0  0  0  0  0  0  0  0
    5.2079    0.5080  -14.8483 C   0  0  0  0  0  0  0  0  0  0  0  0
    5.7559    0.4210  -16.1064 C   0  0  0  0  0  0  0  0  0  0  0  0
    6.8132    1.2406  -16.4423 C   0  0  0  0  0  0  0  0  0  0  0  0
    7.3115    2.1473  -15.4984 C   0  0  0  0  0  0  0  0  0  0  0  0
    5.2603   -0.5166  -17.1204 C   0  0  1  0  0  0  0  0  0  0  0  0
    3.9022   -1.0247  -16.8363 C   0  0  0  0  0  0  0  0  0  0  0  0
    3.3118   -1.6486  -17.7618 O   0  0  0  0  0  0  0  0  0  0  0  0
    3.3401   -0.8030  -15.5939 O   0  0  0  0  0  0  0  0  0  0  0  0
    4.0648   -0.3677  -14.4641 C   0  0  0  0  0  0  0  0  0  0  0  0
    5.2789    0.1585  -18.4384 C   0  0  0  0  0  0  0  0  0  0  0  0
    4.4041    0.9348  -18.8654 O   0  0  0  0  0  0  0  0  0  0  0  0
    6.4196   -0.2157  -19.1067 O   0  0  0  0  0  0  0  0  0  0  0  0
    6.9107   -1.4244  -18.5851 C   0  0  0  0  0  0  0  0  0  0  0  0
    6.2709   -1.6365  -17.2501 C   0  0  0  0  0  0  0  0  0  0  0  0
   11.0329    7.5150   -6.7456 C   0  0  0  0  0  0  0  0  0  0  0  0
    9.8614    6.8354   -7.0169 C   0  0  0  0  0  0  0  0  0  0  0  0
    9.5981    6.5196   -8.3202 C   0  0  0  0  0  0  0  0  0  0  0  0
   10.4702    6.8658   -9.3338 C   0  0  0  0  0  0  0  0  0  0  0  0
   11.6512    7.5546   -9.0314 C   0  0  0  0  0  0  0  0  0  0  0  0
   11.9232    7.8745   -7.7337 C   0  0  0  0  0  0  0  0  0  0  0  0
   12.5407    7.9153  -10.0099 C   0  0  0  0  0  0  0  0  0  0  0  0
   12.2097    7.5610  -11.3240 C   0  0  0  0  0  0  0  0  0  0  0  0
   11.0542    6.8839  -11.6407 C   0  0  0  0  0  0  0  0  0  0  0  0
   10.7506    6.5514  -12.8471 N   0  0  0  0  0  0  0  0  0  0  0  0
   10.2169    6.5588  -10.6125 N   0  0  0  0  0  0  0  0  0  0  0  0
    9.3439    6.0442  -10.8769 H   0  0  0  0  0  0  0  0  0  0  0  0
   11.8320    8.4260   -2.6510 C   0  0  0  0  0  0  0  0  0  0  0  0
   11.6712    7.1223   -3.0797 C   0  0  0  0  0  0  0  0  0  0  0  0
   11.4102    6.8349   -4.4208 C   0  0  0  0  0  0  0  0  0  0  0  0
   11.3068    7.8489   -5.3495 C   0  0  0  0  0  0  0  0  0  0  0  0
   11.4676    9.1392   -4.9162 C   0  0  0  0  0  0  0  0  0  0  0  0
   11.7247    9.4357   -3.5995 C   0  0  0  0  0  0  0  0  0  0  0  0
 42 43  2  0
 43 44  1  0
 44 45  2  0
 45 30  1  0
 30 31  2  0
 31 32  1  0
 32 33  2  0
 33 34  1  0
 34 35  2  0
 34 36  1  0
 36 37  2  0
 37 38  1  0
 38 39  2  0
 39  1  1  0
  1  2  2  0
  2  3  1  0
  3  4  2  0
  4  5  1  0
  5  6  2  0
  6  7  1  0
  7  8  2  0
  8  9  1  0
  9 10  2  0
 10 11  1  0
 11 12  2  0
 11 13  1  0
 13 14  1  0
 14 15  2  0
 15 16  1  0
 16 17  2  0
 17 18  1  0
 18 19  2  0
 17 20  1  0
 20 21  1  0
 21 22  2  0
 21 23  1  0
 23 24  1  0
 20 25  1  0
 25 26  2  0
 25 27  1  0
 27 28  1  0
 28 29  1  0
 38 40  1  0
 40 41  1  0
 45 46  1  0
 46 47  2  0
 47 42  1  0
 35 30  1  0
  6  1  1  0
 12  7  1  0
 19 14  1  0
 20 29  1  6
 40 33  1  0
 19 10  1  0
 24 16  1  0
M  END
>  <minimizedAffinity>  (960) 
-16.50817

$$$$
Mol: 199_2 - SminaDock
     RDKit          3D

 37 43  0  0  0  0  0  0  0  0999 V2000
    8.4670    5.4843  -12.2866 C   0  0  0  0  0  0  0  0  0  0  0  0
    7.2896    5.0180  -11.7651 C   0  0  0  0  0  0  0  0  0  0  0  0
    6.5737    3.9419  -12.3225 C   0  0  0  0  0  0  0  0  0  0  0  0
    7.0566    3.3162  -13.4381 C   0  0  0  0  0  0  0  0  0  0  0  0
    8.2423    3.7787  -13.9712 C   0  0  0  0  0  0  0  0  0  0  0  0
    8.7045    3.1705  -15.0499 N   0  0  0  0  0  0  0  0  0  0  0  0
    8.0795    2.1177  -15.6626 C   0  0  0  0  0  0  0  0  0  0  0  0
    8.6115    1.6282  -16.6717 O   0  0  0  0  0  0  0  0  0  0  0  0
    6.9058    1.6511  -15.1443 C   0  0  0  0  0  0  0  0  0  0  0  0
    6.2572    0.5924  -15.7417 C   0  0  0  0  0  0  0  0  0  0  0  0
    6.7366   -0.0374  -16.8601 C   0  0  0  0  0  0  0  0  0  0  0  0
    6.0451   -1.0998  -17.4245 C   0  0  0  0  0  0  0  0  0  0  0  0
    4.8619   -1.5314  -16.8583 C   0  0  0  0  0  0  0  0  0  0  0  0
    4.3573   -0.9170  -15.7348 C   0  0  0  0  0  0  0  0  0  0  0  0
    5.0513    0.1494  -15.1684 C   0  0  0  0  0  0  0  0  0  0  0  0
    4.5389    0.7532  -14.0501 C   0  0  0  0  0  0  0  0  0  0  0  0
    5.1697    1.8123  -13.4365 C   0  0  0  0  0  0  0  0  0  0  0  0
    6.3493    2.2540  -13.9884 C   0  0  0  0  0  0  0  0  0  0  0  0
    8.9470    4.8519  -13.4069 C   0  0  0  0  0  0  0  0  0  0  0  0
   11.3020    8.0049   -6.0563 C   0  0  0  0  0  0  0  0  0  0  0  0
   11.5656    9.0462   -6.9208 C   0  0  0  0  0  0  0  0  0  0  0  0
   11.1795    8.9683   -8.2421 C   0  0  0  0  0  0  0  0  0  0  0  0
   10.5160    7.8302   -8.7168 C   0  0  0  0  0  0  0  0  0  0  0  0
   10.2431    6.7777   -7.8679 C   0  0  0  0  0  0  0  0  0  0  0  0
   10.6473    6.8979   -6.5538 C   0  0  0  0  0  0  0  0  0  0  0  0
    9.5918    5.6375   -8.2951 C   0  0  0  0  0  0  0  0  0  0  0  0
    9.2058    5.5590   -9.6166 C   0  0  0  0  0  0  0  0  0  0  0  0
    9.4897    6.6231  -10.4447 C   0  0  0  0  0  0  0  0  0  0  0  0
    9.1434    6.5764  -11.6759 N   0  0  0  0  0  0  0  0  0  0  0  0
   10.1299    7.7260   -9.9924 N   0  0  0  0  0  0  0  0  0  0  0  0
   10.3500    8.5434  -10.6211 H   0  0  0  0  0  0  0  0  0  0  0  0
   12.4288    8.0727   -1.9249 C   0  0  0  0  0  0  0  0  0  0  0  0
   12.4128    9.2363   -2.6746 C   0  0  0  0  0  0  0  0  0  0  0  0
   12.0490    9.2081   -4.0054 C   0  0  0  0  0  0  0  0  0  0  0  0
   11.6878    8.0289   -4.6441 C   0  0  0  0  0  0  0  0  0  0  0  0
   11.7147    6.8815   -3.8638 C   0  0  0  0  0  0  0  0  0  0  0  0
   12.0754    6.8914   -2.5335 C   0  0  0  0  0  0  0  0  0  0  0  0
 32 33  2  0
 33 34  1  0
 34 35  2  0
 35 20  1  0
 20 21  2  0
 21 22  1  0
 22 23  2  0
 23 24  1  0
 24 25  2  0
 24 26  1  0
 26 27  2  0
 27 28  1  0
 28 29  2  0
 29  1  1  0
  1  2  2  0
  2  3  1  0
  3  4  2  0
  4  5  1  0
  5  6  1  0
  6  7  1  0
  7  8  2  0
  7  9  1  0
  9 10  2  0
 10 11  1  0
 11 12  2  0
 12 13  1  0
 13 14  2  0
 14 15  1  0
 15 16  2  0
 16 17  1  0
 17 18  2  0
  5 19  2  0
 28 30  1  0
 30 31  1  0
 35 36  1  0
 36 37  2  0
 37 32  1  0
 25 20  1  0
 19  1  1  0
 30 23  1  0
 18  4  1  0
 18  9  1  0
 15 10  1  0
M  CHG  1   6  -1
M  END
>  <minimizedAffinity>  (961) 
-16.51601

$$$$
Mol: 200_34 - SminaDock
     RDKit          3D

 41 47  0  0  0  0  0  0  0  0999 V2000
    8.5819    1.9097  -15.2513 O   0  0  0  0  0  0  0  0  0  0  0  0
    7.6726    2.3619  -14.5283 C   0  0  0  0  0  0  0  0  0  0  0  0
    7.9191    3.6029  -13.7824 C   0  0  0  0  0  0  0  0  0  0  0  0
    9.1981    4.0831  -13.9640 C   0  0  0  0  0  0  0  0  0  0  0  0
    9.6047    5.2304  -13.3310 C   0  0  0  0  0  0  0  0  0  0  0  0
    8.7846    5.9515  -12.4999 C   0  0  0  0  0  0  0  0  0  0  0  0
    7.4884    5.4713  -12.3126 C   0  0  0  0  0  0  0  0  0  0  0  0
    7.0719    4.3214  -12.9429 C   0  0  0  0  0  0  0  0  0  0  0  0
    5.6589    3.9394  -12.6426 C   0  0  0  0  0  0  0  0  0  0  0  0
    5.5447    2.4787  -12.2089 C   0  0  0  0  0  0  0  0  0  0  0  0
    5.4545    1.6426  -13.4502 C   0  0  0  0  0  0  0  0  0  0  0  0
    4.4865    0.8017  -13.8110 N   0  0  0  0  0  0  0  0  0  0  0  0
    4.7742    0.2457  -14.9990 C   0  0  0  0  0  0  0  0  0  0  0  0
    3.9675   -0.6822  -15.6516 C   0  0  0  0  0  0  0  0  0  0  0  0
    2.7641   -0.6943  -15.2606 O   0  0  0  0  0  0  0  0  0  0  0  0
    4.3475   -1.5271  -16.6195 N   0  0  0  0  0  0  0  0  0  0  0  0
    5.5322   -1.6118  -17.2880 C   0  0  0  0  0  0  0  0  0  0  0  0
    5.6775   -2.6690  -17.9472 O   0  0  0  0  0  0  0  0  0  0  0  0
    6.5644   -0.6905  -17.3225 C   0  0  0  0  0  0  0  0  0  0  0  0
    6.6875    0.4912  -16.6006 C   0  0  0  0  0  0  0  0  0  0  0  0
    6.0037    0.7566  -15.4382 C   0  0  0  0  0  0  0  0  0  0  0  0
    6.4213    1.6224  -14.4715 C   0  0  0  0  0  0  0  0  0  0  0  0
    3.6311    0.6122  -13.2362 H   0  0  0  0  0  0  0  0  0  0  0  0
    9.2058    7.1241  -11.8143 N   0  0  0  0  0  0  0  0  0  0  0  0
    9.2067    8.0445  -12.3206 H   0  0  0  0  0  0  0  0  0  0  0  0
    9.6214    7.0677  -10.4675 C   0  0  0  0  0  0  0  0  0  0  0  0
    9.4488    5.9518   -9.7393 N   0  0  0  0  0  0  0  0  0  0  0  0
    9.8235    5.9124   -8.4466 C   0  0  0  0  0  0  0  0  0  0  0  0
   10.3940    7.0088   -7.8258 C   0  0  0  0  0  0  0  0  0  0  0  0
   10.7698    6.9832   -6.4919 C   0  0  0  0  0  0  0  0  0  0  0  0
   11.3274    8.0902   -5.8717 C   0  0  0  0  0  0  0  0  0  0  0  0
   11.4942    9.2181   -6.6354 C   0  0  0  0  0  0  0  0  0  0  0  0
   11.1202    9.2412   -7.9626 C   0  0  0  0  0  0  0  0  0  0  0  0
   10.5627    8.1447   -8.5915 C   0  0  0  0  0  0  0  0  0  0  0  0
   10.1722    8.1365   -9.8846 N   0  0  0  0  0  0  0  0  0  0  0  0
   11.7166    8.0696   -4.4660 C   0  0  0  0  0  0  0  0  0  0  0  0
   11.7644    6.8807   -3.7367 C   0  0  0  0  0  0  0  0  0  0  0  0
   12.1380    6.8511   -2.4105 C   0  0  0  0  0  0  0  0  0  0  0  0
   12.4839    8.0124   -1.7418 C   0  0  0  0  0  0  0  0  0  0  0  0
   12.4396    9.1891   -2.4506 C   0  0  0  0  0  0  0  0  0  0  0  0
   12.0608    9.2174   -3.7959 C   0  0  0  0  0  0  0  0  0  0  0  0
  1  2  2  0
  2  3  1  0
  3  4  2  0
  4  5  1  0
  5  6  2  0
  6 24  1  0
 24 26  1  0
 26 27  2  0
 27 28  1  0
 28 29  2  0
 29 30  1  0
 30 31  2  0
 31 36  1  0
 36 37  2  0
 37 38  1  0
 38 39  2  0
 39 40  1  0
 40 41  2  0
 31 32  1  0
 32 33  2  0
 33 34  1  0
 34 35  2  0
  6  7  1  0
  7  8  2  0
  8  9  1  0
  9 10  1  0
 10 11  1  0
 11 12  1  0
 12 13  1  0
 13 14  1  0
 14 15  2  0
 14 16  1  0
 16 17  1  0
 17 18  2  0
 17 19  1  0
 19 20  2  0
 20 21  1  0
 21 22  1  0
 22  2  1  0
  8  3  1  0
 22 11  2  0
 35 26  1  0
 21 13  2  0
 34 29  1  0
 41 36  1  0
 24 25  1  0
 12 23  1  0
M  CHG  1  16  -1
M  END
>  <minimizedAffinity>  (962) 
-16.46319

$$$$
Mol: 200_35 - SminaDock
     RDKit          3D

 45 52  0  0  0  0  0  0  0  0999 V2000
    5.4015   -1.3727  -16.9869 C   0  0  0  0  0  0  0  0  0  0  0  0
    4.4484   -1.0315  -16.1094 N   0  0  0  0  0  0  0  0  0  0  0  0
    4.6328    0.0126  -15.2706 C   0  0  0  0  0  0  0  0  0  0  0  0
    5.7861    0.7607  -15.2780 C   0  0  0  0  0  0  0  0  0  0  0  0
    5.9905    1.8300  -14.4277 C   0  0  0  0  0  0  0  0  0  0  0  0
    7.1618    2.5551  -14.4663 C   0  0  0  0  0  0  0  0  0  0  0  0
    8.1556    2.2280  -15.3557 C   0  0  0  0  0  0  0  0  0  0  0  0
    7.9335    1.1435  -16.2094 C   0  0  0  0  0  0  0  0  0  0  0  0
    6.7690    0.4125  -16.1800 C   0  0  0  0  0  0  0  0  0  0  0  0
    6.5662   -0.6623  -17.0356 C   0  0  0  0  0  0  0  0  0  0  0  0
    9.2927    3.1573  -15.1867 C   0  0  1  0  0  0  0  0  0  0  0  0
   10.5273    2.3988  -14.8440 C   0  0  0  0  0  0  0  0  0  0  0  0
   10.8888    2.2478  -13.6492 O   0  0  0  0  0  0  0  0  0  0  0  0
   11.3152    1.8332  -15.8795 N   0  0  0  0  0  0  0  0  0  0  0  0
   11.9885    1.0673  -15.6598 H   0  0  0  0  0  0  0  0  0  0  0  0
   11.2268    2.2676  -17.2120 C   0  0  0  0  0  0  0  0  0  0  0  0
   11.9287    1.7685  -18.1528 O   0  0  0  0  0  0  0  0  0  0  0  0
   10.3025    3.3196  -17.5142 N   0  0  0  0  0  0  0  0  0  0  0  0
   10.2065    3.6708  -18.4895 H   0  0  0  0  0  0  0  0  0  0  0  0
    9.5095    3.8918  -16.4836 C   0  0  0  0  0  0  0  0  0  0  0  0
    9.0044    5.0240  -16.7020 O   0  0  0  0  0  0  0  0  0  0  0  0
    8.8871    4.0737  -14.1148 C   0  0  0  0  0  0  0  0  0  0  0  0
    9.5195    5.1633  -13.5025 C   0  0  0  0  0  0  0  0  0  0  0  0
    8.8539    5.8278  -12.5023 C   0  0  0  0  0  0  0  0  0  0  0  0
    7.5977    5.4504  -12.0963 C   0  0  0  0  0  0  0  0  0  0  0  0
    6.9562    4.3840  -12.6823 C   0  0  0  0  0  0  0  0  0  0  0  0
    7.6260    3.6991  -13.7035 C   0  0  0  0  0  0  0  0  0  0  0  0
    9.4735    6.9339  -11.8627 N   0  0  0  0  0  0  0  0  0  0  0  0
    9.7459    6.8732  -10.6141 C   0  0  0  0  0  0  0  0  0  0  0  0
   10.3410    7.9704  -10.0595 N   0  0  0  0  0  0  0  0  0  0  0  0
   10.6673    8.0015   -8.7573 C   0  0  0  0  0  0  0  0  0  0  0  0
   11.2719    9.0973   -8.1634 C   0  0  0  0  0  0  0  0  0  0  0  0
   11.5935    9.0911   -6.8212 C   0  0  0  0  0  0  0  0  0  0  0  0
   11.3269    7.9952   -6.0151 C   0  0  0  0  0  0  0  0  0  0  0  0
   10.7242    6.9117   -6.6204 C   0  0  0  0  0  0  0  0  0  0  0  0
   10.3935    6.9009   -7.9706 C   0  0  0  0  0  0  0  0  0  0  0  0
    9.7922    5.8150   -8.5714 C   0  0  0  0  0  0  0  0  0  0  0  0
    9.4629    5.7835   -9.8846 N   0  0  0  0  0  0  0  0  0  0  0  0
    9.0075    4.9554  -10.3264 H   0  0  0  0  0  0  0  0  0  0  0  0
   11.6891    8.0392   -4.6035 C   0  0  0  0  0  0  0  0  0  0  0  0
   12.0402    9.2276   -3.9969 C   0  0  0  0  0  0  0  0  0  0  0  0
   12.3876    9.2795   -2.6487 C   0  0  0  0  0  0  0  0  0  0  0  0
   12.3877    8.1340   -1.8853 C   0  0  0  0  0  0  0  0  0  0  0  0
   12.0396    6.9289   -2.4682 C   0  0  0  0  0  0  0  0  0  0  0  0
   11.7025    6.9162   -3.8026 C   0  0  0  0  0  0  0  0  0  0  0  0
  1  2  2  0
  2  3  1  0
  3  4  2  0
  4  5  1  0
  5  6  2  0
  6  7  1  0
  7  8  2  0
  8  9  1  0
  9 10  2  0
  7 11  1  0
 11 12  1  1
 12 13  2  0
 12 14  1  0
 14 15  1  0
 14 16  1  0
 16 17  2  0
 16 18  1  0
 18 19  1  0
 18 20  1  0
 20 21  2  0
 11 22  1  0
 22 23  2  0
 23 24  1  0
 24 28  1  0
 28 29  2  0
 29 30  1  0
 30 31  2  0
 31 32  1  0
 32 33  2  0
 33 34  1  0
 34 40  1  0
 40 41  2  0
 41 42  1  0
 42 43  2  0
 43 44  1  0
 44 45  2  0
 34 35  2  0
 35 36  1  0
 36 37  2  0
 37 38  1  0
 38 39  1  0
 24 25  2  0
 25 26  1  0
 26 27  2  0
 10  1  1  0
 20 11  1  0
 27 22  1  0
  9  4  1  0
 38 29  1  0
 27  6  1  0
 36 31  1  0
 45 40  1  0
M  END
>  <minimizedAffinity>  (963) 
-16.47926

$$$$
Mol: 198_48 - SminaDock
     RDKit          3D

 37 43  0  0  0  0  0  0  0  0999 V2000
    8.4635    5.7033  -12.3580 C   0  0  0  0  0  0  0  0  0  0  0  0
    7.3117    5.2237  -11.7872 C   0  0  0  0  0  0  0  0  0  0  0  0
    6.6901    4.1038  -12.3381 C   0  0  0  0  0  0  0  0  0  0  0  0
    7.2060    3.4569  -13.4532 C   0  0  0  0  0  0  0  0  0  0  0  0
    8.3577    3.9329  -14.0273 C   0  0  0  0  0  0  0  0  0  0  0  0
    8.9703    5.0616  -13.4596 C   0  0  0  0  0  0  0  0  0  0  0  0
    8.7061    3.0912  -15.1838 C   0  0  0  0  0  0  0  0  0  0  0  0
    7.6621    2.0718  -15.2511 C   0  0  0  0  0  0  0  0  0  0  0  0
    7.4271    0.9872  -16.1198 C   0  0  0  0  0  0  0  0  0  0  0  0
    6.3256    0.1882  -15.9141 C   0  0  0  0  0  0  0  0  0  0  0  0
    5.4325    0.4038  -14.8855 C   0  0  0  0  0  0  0  0  0  0  0  0
    5.6664    1.4632  -14.0409 C   0  0  0  0  0  0  0  0  0  0  0  0
    6.7799    2.2945  -14.2252 C   0  0  0  0  0  0  0  0  0  0  0  0
    4.2568   -0.4804  -14.6965 C   0  0  0  0  0  0  0  0  0  0  0  0
    3.6090   -0.6650  -16.0525 C   0  0  0  0  0  0  0  0  0  0  0  0
    4.5998   -0.9332  -17.1147 C   0  0  0  0  0  0  0  0  0  0  0  0
    4.2231   -1.1284  -18.2450 O   0  0  0  0  0  0  0  0  0  0  0  0
    6.0418   -0.9646  -16.8079 C   0  0  1  0  0  0  0  0  0  0  0  0
    6.9006   -0.9555  -18.0493 C   0  0  0  0  0  0  0  0  0  0  0  0
   11.2369    7.9488   -6.0932 C   0  0  0  0  0  0  0  0  0  0  0  0
   11.5218    9.0489   -6.9047 C   0  0  0  0  0  0  0  0  0  0  0  0
   11.1559    9.0488   -8.2330 C   0  0  0  0  0  0  0  0  0  0  0  0
   10.5063    7.9882   -8.8118 C   0  0  0  0  0  0  0  0  0  0  0  0
   10.2252    6.8989   -8.0043 C   0  0  0  0  0  0  0  0  0  0  0  0
    9.5751    5.7958   -8.5094 C   0  0  0  0  0  0  0  0  0  0  0  0
    9.2184    5.8117   -9.8276 N   0  0  0  0  0  0  0  0  0  0  0  0
    9.4883    6.8642  -10.6144 C   0  0  0  0  0  0  0  0  0  0  0  0
    9.1298    6.8288  -11.8433 N   0  0  0  0  0  0  0  0  0  0  0  0
   10.1321    7.9486  -10.1004 N   0  0  0  0  0  0  0  0  0  0  0  0
   10.3310    8.7475  -10.7179 H   0  0  0  0  0  0  0  0  0  0  0  0
   10.5872    6.8897   -6.6746 C   0  0  0  0  0  0  0  0  0  0  0  0
   12.4102    8.0186   -1.9722 C   0  0  0  0  0  0  0  0  0  0  0  0
   12.0826    6.8372   -2.6076 C   0  0  0  0  0  0  0  0  0  0  0  0
   11.7053    6.8215   -3.9363 C   0  0  0  0  0  0  0  0  0  0  0  0
   11.6399    7.9825   -4.6840 C   0  0  0  0  0  0  0  0  0  0  0  0
   11.9660    9.1654   -4.0548 C   0  0  0  0  0  0  0  0  0  0  0  0
   12.3461    9.1785   -2.7148 C   0  0  0  0  0  0  0  0  0  0  0  0
 32 33  2  0
 33 34  1  0
 34 35  2  0
 35 20  1  0
 20 21  2  0
 21 22  1  0
 22 23  2  0
 23 24  1  0
 24 25  1  0
 25 26  2  0
 26 27  1  0
 27 28  2  0
 28  1  1  0
  1  2  2  0
  2  3  1  0
  3  4  2  0
  4  5  1  0
  5  6  2  0
  5  7  1  0
  7  8  1  0
  8  9  2  0
  9 10  1  0
 10 11  2  0
 11 12  1  0
 12 13  2  0
 11 14  1  0
 14 15  1  0
 15 16  1  0
 16 17  2  0
 16 18  1  0
 18 19  1  6
 27 29  1  0
 29 30  1  0
 24 31  2  0
 35 36  1  0
 36 37  2  0
 37 32  1  0
 31 20  1  0
 29 23  1  0
  6  1  1  0
 13  8  1  0
 13  4  1  0
 18 10  1  0
M  END
>  <minimizedAffinity>  (964) 
-16.52184

$$$$
Mol: 198_25 - SminaDock
     RDKit          3D

 42 48  0  0  0  0  0  0  0  0999 V2000
    3.0586   -1.2438  -14.2125 O   0  0  0  0  0  0  0  0  0  0  0  0
    4.0736   -0.5071  -14.1568 C   0  0  0  0  0  0  0  0  0  0  0  0
    5.2930   -0.9180  -14.6524 C   0  0  0  0  0  0  0  0  0  0  0  0
    6.3949   -0.0699  -14.5694 C   0  0  0  0  0  0  0  0  0  0  0  0
    6.2098    1.1490  -13.9869 C   0  0  0  0  0  0  0  0  0  0  0  0
    4.9636    1.5578  -13.4884 C   0  0  0  0  0  0  0  0  0  0  0  0
    4.8155    2.8093  -12.9291 C   0  0  0  0  0  0  0  0  0  0  0  0
    5.8586    3.7063  -12.8268 C   0  0  0  0  0  0  0  0  0  0  0  0
    7.0626    3.2986  -13.3041 C   0  0  0  0  0  0  0  0  0  0  0  0
    8.0365    4.2476  -13.1546 C   0  0  0  0  0  0  0  0  0  0  0  0
    7.7870    5.0587  -12.0892 C   0  0  0  0  0  0  0  0  0  0  0  0
    8.6881    6.0768  -11.8610 C   0  0  0  0  0  0  0  0  0  0  0  0
    9.8049    6.2614  -12.6874 C   0  0  0  0  0  0  0  0  0  0  0  0
   10.0099    5.4128  -13.7463 C   0  0  0  0  0  0  0  0  0  0  0  0
    9.1358    4.4004  -13.9928 C   0  0  0  0  0  0  0  0  0  0  0  0
    9.5035    3.6062  -15.0503 N   0  0  0  0  0  0  0  0  0  0  0  0
    9.3753    2.2200  -15.0340 C   0  0  0  0  0  0  0  0  0  0  0  0
   10.1914    1.5604  -15.6974 O   0  0  0  0  0  0  0  0  0  0  0  0
    8.4280    1.4882  -14.3514 C   0  0  0  0  0  0  0  0  0  0  0  0
    8.6061    0.1621  -14.0832 O   0  0  0  0  0  0  0  0  0  0  0  0
    7.2436    2.0212  -13.8840 C   0  0  0  0  0  0  0  0  0  0  0  0
    3.9313    0.7042  -13.5934 N   0  0  0  0  0  0  0  0  0  0  0  0
    9.0356   -0.2300  -13.2568 H   0  0  0  0  0  0  0  0  0  0  0  0
    3.0152    1.0386  -13.2117 H   0  0  0  0  0  0  0  0  0  0  0  0
   10.6416    7.3483  -12.3736 N   0  0  0  0  0  0  0  0  0  0  0  0
   10.9467    8.0387  -13.1283 H   0  0  0  0  0  0  0  0  0  0  0  0
   11.0835    7.5206  -11.0304 C   0  0  0  0  0  0  0  0  0  0  0  0
   12.3410    7.9661  -10.7056 C   0  0  0  0  0  0  0  0  0  0  0  0
   12.7081    8.1153   -9.3616 C   0  0  0  0  0  0  0  0  0  0  0  0
   11.8342    7.8238   -8.3385 C   0  0  0  0  0  0  0  0  0  0  0  0
   12.1807    7.9602   -7.0087 C   0  0  0  0  0  0  0  0  0  0  0  0
   11.3083    7.6638   -5.9843 C   0  0  0  0  0  0  0  0  0  0  0  0
   10.0468    7.2159   -6.3442 C   0  0  0  0  0  0  0  0  0  0  0  0
    9.7014    7.0801   -7.6720 C   0  0  0  0  0  0  0  0  0  0  0  0
   10.5801    7.3784   -8.7023 C   0  0  0  0  0  0  0  0  0  0  0  0
   10.2401    7.2401   -9.9917 N   0  0  0  0  0  0  0  0  0  0  0  0
   11.6486    7.7991   -4.5687 C   0  0  0  0  0  0  0  0  0  0  0  0
   12.0066    9.0332   -4.0630 C   0  0  0  0  0  0  0  0  0  0  0  0
   12.3307    9.1518   -2.7090 C   0  0  0  0  0  0  0  0  0  0  0  0
   12.2991    8.0601   -1.8725 C   0  0  0  0  0  0  0  0  0  0  0  0
   11.9427    6.8184   -2.3649 C   0  0  0  0  0  0  0  0  0  0  0  0
   11.6285    6.7303   -3.7010 C   0  0  0  0  0  0  0  0  0  0  0  0
  1  2  2  0
  2  3  1  0
  3  4  2  0
  4  5  1  0
  5  6  2  0
  6  7  1  0
  7  8  2  0
  8  9  1  0
  9 10  2  0
 10 11  1  0
 11 12  2  0
 12 13  1  0
 13 25  1  0
 25 27  1  0
 27 28  2  0
 28 29  1  0
 29 30  2  0
 30 31  1  0
 31 32  2  0
 32 37  1  0
 37 38  2  0
 38 39  1  0
 39 40  2  0
 40 41  1  0
 41 42  2  0
 32 33  1  0
 33 34  2  0
 34 35  1  0
 35 36  2  0
 13 14  2  0
 14 15  1  0
 15 16  2  0
 16 17  1  0
 17 18  2  0
 17 19  1  0
 19 20  1  0
 19 21  2  0
  6 22  1  0
 22  2  1  0
 21  5  1  0
 21  9  1  0
 15 10  1  0
 36 27  1  0
 35 30  1  0
 42 37  1  0
 25 26  1  0
 20 23  1  0
 22 24  1  0
M  END
>  <minimizedAffinity>  (965) 
-16.53358

$$$$
Mol: 82_36 - SminaDock
     RDKit          3D

 40 47  0  0  0  0  0  0  0  0999 V2000
    8.1503    5.0725  -13.0510 N   0  0  0  0  0  0  0  0  0  0  0  0
    8.5818    5.3943  -11.8828 C   0  0  0  0  0  0  0  0  0  0  0  0
    8.2408    4.6447  -10.7809 C   0  0  0  0  0  0  0  0  0  0  0  0
    8.6862    4.9582   -9.5144 C   0  0  0  0  0  0  0  0  0  0  0  0
    9.4942    6.0542   -9.3621 C   0  0  0  0  0  0  0  0  0  0  0  0
    9.9586    6.3916   -8.0957 C   0  0  0  0  0  0  0  0  0  0  0  0
   10.7647    7.4872   -7.9611 C   0  0  0  0  0  0  0  0  0  0  0  0
   11.0978    8.2294   -9.0766 C   0  0  0  0  0  0  0  0  0  0  0  0
   10.6497    7.9153  -10.3451 C   0  0  0  0  0  0  0  0  0  0  0  0
    9.8259    6.7961  -10.4857 C   0  0  0  0  0  0  0  0  0  0  0  0
    9.3809    6.4732  -11.7104 N   0  0  0  0  0  0  0  0  0  0  0  0
    9.6345    7.0351  -12.5453 H   0  0  0  0  0  0  0  0  0  0  0  0
    8.5083    1.6461  -19.7563 H   0  0  0  0  0  0  0  0  0  0  0  0
    7.5722    1.4283  -19.4675 O   0  0  0  0  0  0  0  0  0  0  0  0
    7.6186    0.1066  -19.0264 C   0  0  2  0  0  0  0  0  0  0  0  0
    6.3765   -0.6570  -19.4313 C   0  0  0  0  0  0  0  0  0  0  0  0
    6.0904   -1.4720  -18.1867 C   0  0  0  0  0  0  0  0  0  0  0  0
    6.3860   -0.5157  -17.1398 N   0  0  0  0  0  0  0  0  0  0  0  0
    6.0376    0.1539  -15.9424 C   0  0  0  0  0  0  0  0  0  0  0  0
    5.0379   -0.1500  -15.0198 C   0  0  0  0  0  0  0  0  0  0  0  0
    4.8956    0.6632  -13.9207 C   0  0  0  0  0  0  0  0  0  0  0  0
    5.6980    1.7638  -13.6933 C   0  0  0  0  0  0  0  0  0  0  0  0
    5.5329    2.5738  -12.5672 C   0  0  0  0  0  0  0  0  0  0  0  0
    6.3393    3.6660  -12.3528 C   0  0  0  0  0  0  0  0  0  0  0  0
    7.3215    3.9585  -13.2666 C   0  0  0  0  0  0  0  0  0  0  0  0
    7.4882    3.1484  -14.3952 C   0  0  0  0  0  0  0  0  0  0  0  0
    6.6808    2.0585  -14.6054 C   0  0  0  0  0  0  0  0  0  0  0  0
    6.8304    1.2531  -15.7048 C   0  0  0  0  0  0  0  0  0  0  0  0
    7.8053    1.3452  -16.8355 C   0  0  0  0  0  0  0  0  0  0  0  0
    7.7036    0.0199  -17.5209 C   0  0  2  0  0  0  0  0  0  0  0  0
   11.3055    7.9217   -6.6713 C   0  0  0  0  0  0  0  0  0  0  0  0
   11.9485    9.1300   -6.5114 C   0  0  0  0  0  0  0  0  0  0  0  0
   12.4542    9.5203   -5.2781 C   0  0  0  0  0  0  0  0  0  0  0  0
   12.3330    8.7131   -4.1643 C   0  0  0  0  0  0  0  0  0  0  0  0
   12.8457    9.1257   -2.9519 C   0  0  0  0  0  0  0  0  0  0  0  0
   12.7158    8.3027   -1.8456 C   0  0  0  0  0  0  0  0  0  0  0  0
   12.0810    7.0875   -1.9592 C   0  0  0  0  0  0  0  0  0  0  0  0
   11.5727    6.6989   -3.2015 C   0  0  0  0  0  0  0  0  0  0  0  0
   11.6897    7.5041   -4.3246 C   0  0  0  0  0  0  0  0  0  0  0  0
   11.1867    7.1156   -5.5499 C   0  0  0  0  0  0  0  0  0  0  0  0
 13 14  1  0
 15 14  1  1
 15 16  1  0
 16 17  1  0
 17 18  1  0
 18 19  1  0
 19 20  2  0
 20 21  1  0
 21 22  2  0
 22 23  1  0
 23 24  2  0
 24 25  1  0
 25  1  1  0
  1  2  2  0
  2  3  1  0
  3  4  2  0
  4  5  1  0
  5  6  2  0
  6  7  1  0
  7 31  1  0
 31 32  2  0
 32 33  1  0
 33 34  2  0
 34 35  1  0
 35 36  2  0
 36 37  1  0
 37 38  2  0
 38 39  1  0
 39 40  2  0
  7  8  2  0
  8  9  1  0
  9 10  2  0
 10 11  1  0
 11 12  1  0
 25 26  2  0
 26 27  1  0
 27 28  2  0
 28 29  1  0
 30 29  1  1
 30 15  1  0
 30 18  1  0
 28 19  1  0
 27 22  1  0
 11  2  1  0
 10  5  1  0
 40 31  1  0
 39 34  1  0
M  END
>  <minimizedAffinity>  (966) 
-16.45089

$$$$
Mol: 87_4 - SminaDock
     RDKit          3D

 34 39  0  0  0  0  0  0  0  0999 V2000
   11.0869    7.5240   -6.0796 C   0  0  0  0  0  0  0  0  0  0  0  0
    9.9277    6.8368   -6.3766 C   0  0  0  0  0  0  0  0  0  0  0  0
    9.5498    6.5977   -7.6962 C   0  0  0  0  0  0  0  0  0  0  0  0
   10.3213    7.0397   -8.7497 C   0  0  0  0  0  0  0  0  0  0  0  0
   11.4823    7.7279   -8.4580 C   0  0  0  0  0  0  0  0  0  0  0  0
   11.8495    7.9607   -7.1458 C   0  0  0  0  0  0  0  0  0  0  0  0
   12.2873    8.1893   -9.4935 C   0  0  0  0  0  0  0  0  0  0  0  0
   11.9502    7.9734  -10.8115 C   0  0  0  0  0  0  0  0  0  0  0  0
   10.7649    7.2713  -11.0673 C   0  0  0  0  0  0  0  0  0  0  0  0
   10.4108    7.0468  -12.2765 N   0  0  0  0  0  0  0  0  0  0  0  0
   10.0148    6.8423  -10.0417 N   0  0  0  0  0  0  0  0  0  0  0  0
    9.1172    6.3109  -10.2120 H   0  0  0  0  0  0  0  0  0  0  0  0
    9.1946    6.3264  -12.5153 C   0  0  0  0  0  0  0  0  0  0  0  0
    7.9654    6.8595  -12.1584 C   0  0  0  0  0  0  0  0  0  0  0  0
    6.8002    6.1496  -12.3929 C   0  0  0  0  0  0  0  0  0  0  0  0
    6.8399    4.9137  -12.9789 C   0  0  0  0  0  0  0  0  0  0  0  0
    8.0320    4.3457  -13.3503 C   0  0  0  0  0  0  0  0  0  0  0  0
    9.1996    5.0841  -13.1021 C   0  0  0  0  0  0  0  0  0  0  0  0
    8.2799    3.0719  -13.9993 C   0  0  2  0  0  0  0  0  0  0  0  0
    8.5900    3.2415  -15.4779 C   0  0  0  0  0  0  0  0  0  0  0  0
    7.2872    2.0263  -13.7634 C   0  0  0  0  0  0  0  0  0  0  0  0
    7.6958    0.8407  -14.3982 C   0  0  0  0  0  0  0  0  0  0  0  0
    6.9472   -0.2724  -14.3322 C   0  0  0  0  0  0  0  0  0  0  0  0
    5.7499   -0.3248  -13.6497 C   0  0  0  0  0  0  0  0  0  0  0  0
    5.3405    0.8163  -13.0293 C   0  0  0  0  0  0  0  0  0  0  0  0
    6.1212    1.9794  -13.0973 C   0  0  0  0  0  0  0  0  0  0  0  0
    5.4079    3.0402  -12.3185 C   0  0  0  0  0  0  0  0  0  0  0  0
    5.4512    4.3509  -13.0913 C   0  0  0  0  0  0  0  0  0  0  0  0
   12.2696    8.2690   -2.1006 C   0  0  0  0  0  0  0  0  0  0  0  0
   12.0940    6.9613   -2.4995 C   0  0  0  0  0  0  0  0  0  0  0  0
   11.7046    6.7468   -3.8134 C   0  0  0  0  0  0  0  0  0  0  0  0
   11.4955    7.7809   -4.7021 C   0  0  0  0  0  0  0  0  0  0  0  0
   11.6773    9.0905   -4.2823 C   0  0  0  0  0  0  0  0  0  0  0  0
   12.0639    9.3305   -2.9823 C   0  0  0  0  0  0  0  0  0  0  0  0
 29 30  2  0
 30 31  1  0
 31 32  2  0
 32  1  1  0
  1  2  2  0
  2  3  1  0
  3  4  2  0
  4  5  1  0
  5  6  2  0
  5  7  1  0
  7  8  2  0
  8  9  1  0
  9 10  2  0
 10 13  1  0
 13 14  2  0
 14 15  1  0
 15 16  2  0
 16 17  1  0
 17 18  2  0
 17 19  1  0
 19 20  1  6
 19 21  1  0
 21 22  2  0
 22 23  1  0
 23 24  2  0
 24 25  1  0
 25 26  2  0
 26 27  1  0
 27 28  1  0
  9 11  1  0
 11 12  1  0
 32 33  1  0
 33 34  2  0
 34 29  1  0
  6  1  1  0
 18 13  1  0
 26 21  1  0
 11  4  1  0
 28 16  1  0
M  END
>  <minimizedAffinity>  (967) 
-16.49275

$$$$
Mol: 188_14 - SminaDock
     RDKit          3D

 42 49  0  0  0  0  0  0  0  0999 V2000
   10.5611    5.0115  -18.4204 H   0  0  0  0  0  0  0  0  0  0  0  0
   11.2005    4.5019  -17.8112 O   0  0  0  0  0  0  0  0  0  0  0  0
   10.6432    3.8691  -16.6679 C   0  0  0  0  0  0  0  0  0  0  0  0
    9.4279    3.9368  -16.2860 N   0  0  0  0  0  0  0  0  0  0  0  0
    9.2385    3.1752  -15.1019 C   0  0  1  0  0  0  0  0  0  0  0  0
   10.5562    2.6095  -14.7958 C   0  0  0  0  0  0  0  0  0  0  0  0
   10.8655    1.8533  -13.8130 O   0  0  0  0  0  0  0  0  0  0  0  0
   11.4343    3.0661  -15.8095 N   0  0  0  0  0  0  0  0  0  0  0  0
    8.7869    4.1310  -14.0362 C   0  0  0  0  0  0  0  0  0  0  0  0
    9.3823    5.2697  -13.5089 C   0  0  0  0  0  0  0  0  0  0  0  0
    8.7498    5.9715  -12.5366 C   0  0  0  0  0  0  0  0  0  0  0  0
    7.5097    5.5276  -12.0894 C   0  0  0  0  0  0  0  0  0  0  0  0
    6.9118    4.4011  -12.6054 C   0  0  0  0  0  0  0  0  0  0  0  0
    7.5661    3.6766  -13.6097 C   0  0  0  0  0  0  0  0  0  0  0  0
    7.1939    2.4681  -14.3348 C   0  0  0  0  0  0  0  0  0  0  0  0
    8.1847    2.1486  -15.2305 C   0  0  0  0  0  0  0  0  0  0  0  0
    8.0180    1.0277  -16.0159 C   0  0  0  0  0  0  0  0  0  0  0  0
    6.8927    0.2256  -15.9272 C   0  0  0  0  0  0  0  0  0  0  0  0
    5.8976    0.5473  -15.0271 C   0  0  0  0  0  0  0  0  0  0  0  0
    6.0582    1.6703  -14.2358 C   0  0  0  0  0  0  0  0  0  0  0  0
    4.9120   -0.4156  -15.1587 C   0  0  0  0  0  0  0  0  0  0  0  0
    5.2978   -1.3100  -16.1222 C   0  0  0  0  0  0  0  0  0  0  0  0
    6.4962   -0.8980  -16.5680 N   0  0  0  0  0  0  0  0  0  0  0  0
    7.0705   -1.3671  -17.3142 H   0  0  0  0  0  0  0  0  0  0  0  0
    9.2627    7.1425  -11.9292 N   0  0  0  0  0  0  0  0  0  0  0  0
    9.6021    7.1142  -10.7010 C   0  0  0  0  0  0  0  0  0  0  0  0
    9.4690    5.9572   -9.9798 C   0  0  0  0  0  0  0  0  0  0  0  0
    9.8277    5.9212   -8.6932 N   0  0  0  0  0  0  0  0  0  0  0  0
   10.3179    7.0414   -8.1329 C   0  0  0  0  0  0  0  0  0  0  0  0
   10.6787    6.9486   -6.7893 C   0  0  0  0  0  0  0  0  0  0  0  0
   11.1890    8.0528   -6.1511 C   0  0  0  0  0  0  0  0  0  0  0  0
   11.3254    9.2219   -6.8721 C   0  0  0  0  0  0  0  0  0  0  0  0
   10.9691    9.3241   -8.2093 C   0  0  0  0  0  0  0  0  0  0  0  0
   10.4604    8.2136   -8.8365 C   0  0  0  0  0  0  0  0  0  0  0  0
   10.0909    8.2242  -10.1340 N   0  0  0  0  0  0  0  0  0  0  0  0
   10.2144    9.1346  -10.6348 H   0  0  0  0  0  0  0  0  0  0  0  0
   11.5858    8.0097   -4.7403 C   0  0  0  0  0  0  0  0  0  0  0  0
   11.6168    6.8198   -4.0586 C   0  0  0  0  0  0  0  0  0  0  0  0
   11.9919    6.7795   -2.7320 C   0  0  0  0  0  0  0  0  0  0  0  0
   12.3515    7.9130   -2.0263 C   0  0  0  0  0  0  0  0  0  0  0  0
   12.3141    9.1060   -2.7319 C   0  0  0  0  0  0  0  0  0  0  0  0
   11.9400    9.1558   -4.0591 C   0  0  0  0  0  0  0  0  0  0  0  0
  1  2  1  0
  2  3  1  0
  3  4  2  0
  5  4  1  6
  5  6  1  0
  6  7  2  0
  6  8  1  0
  5  9  1  0
  9 10  2  0
 10 11  1  0
 11 25  1  0
 25 26  2  0
 26 27  1  0
 27 28  2  0
 28 29  1  0
 29 30  2  0
 30 31  1  0
 31 37  1  0
 37 38  2  0
 38 39  1  0
 39 40  2  0
 40 41  1  0
 41 42  2  0
 31 32  2  0
 32 33  1  0
 33 34  2  0
 34 35  1  0
 35 36  1  0
 11 12  2  0
 12 13  1  0
 13 14  2  0
 14 15  1  0
 15 16  2  0
 16 17  1  0
 17 18  2  0
 18 19  1  0
 19 20  2  0
 19 21  1  0
 21 22  2  0
 22 23  1  0
 23 24  1  0
  8  3  1  0
 14  9  1  0
 20 15  1  0
 16  5  1  0
 23 18  1  0
 35 26  1  0
 34 29  1  0
 42 37  1  0
M  CHG  1   8  -1
M  END
>  <minimizedAffinity>  (968) 
-16.49253

$$$$
Mol: 159_31 - SminaDock
     RDKit          3D

 41 47  0  0  0  0  0  0  0  0999 V2000
    6.7404   -1.6483  -18.6017 O   0  0  0  0  0  0  0  0  0  0  0  0
    6.4044   -1.1277  -17.5003 C   0  0  0  0  0  0  0  0  0  0  0  0
    7.0975   -0.0223  -16.9425 N   0  0  0  0  0  0  0  0  0  0  0  0
    6.5294    0.6650  -15.8368 C   0  0  0  0  0  0  0  0  0  0  0  0
    7.1963    1.7601  -15.2715 C   0  0  0  0  0  0  0  0  0  0  0  0
    6.6985    2.4673  -14.2010 C   0  0  0  0  0  0  0  0  0  0  0  0
    5.4982    2.0734  -13.6708 C   0  0  0  0  0  0  0  0  0  0  0  0
    4.8153    0.9757  -14.2294 C   0  0  0  0  0  0  0  0  0  0  0  0
    5.3273    0.2914  -15.2906 C   0  0  0  0  0  0  0  0  0  0  0  0
    4.6567   -0.8043  -15.8567 O   0  0  0  0  0  0  0  0  0  0  0  0
    5.2459   -1.6877  -16.7606 C   0  0  2  0  0  0  0  0  0  0  0  0
    5.6218   -2.8515  -16.0700 O   0  0  0  0  0  0  0  0  0  0  0  0
    4.2874   -2.0468  -17.6964 F   0  0  0  0  0  0  0  0  0  0  0  0
    4.9405    2.7390  -12.4823 C   0  0  0  0  0  0  0  0  0  0  0  0
    5.4695    4.0656  -12.1543 C   0  0  0  0  0  0  0  0  0  0  0  0
    6.8072    4.3644  -12.6421 C   0  0  0  0  0  0  0  0  0  0  0  0
    7.5273    5.4539  -12.1063 C   0  0  0  0  0  0  0  0  0  0  0  0
    8.7660    5.8024  -12.5877 C   0  0  0  0  0  0  0  0  0  0  0  0
    9.3012    5.0605  -13.6162 C   0  0  0  0  0  0  0  0  0  0  0  0
    8.6327    3.9921  -14.1644 C   0  0  0  0  0  0  0  0  0  0  0  0
    7.3805    3.6531  -13.6639 C   0  0  0  0  0  0  0  0  0  0  0  0
    7.9959    0.2795  -17.3283 H   0  0  0  0  0  0  0  0  0  0  0  0
    5.1550   -2.9293  -15.2023 H   0  0  0  0  0  0  0  0  0  0  0  0
    9.5239    6.8799  -12.0673 N   0  0  0  0  0  0  0  0  0  0  0  0
    9.8142    7.6275  -12.7413 H   0  0  0  0  0  0  0  0  0  0  0  0
    9.8446    6.8942  -10.6941 C   0  0  0  0  0  0  0  0  0  0  0  0
    9.4576    5.8713   -9.9251 N   0  0  0  0  0  0  0  0  0  0  0  0
    9.7299    5.8361   -8.5895 C   0  0  0  0  0  0  0  0  0  0  0  0
   10.4199    6.8668   -7.9897 C   0  0  0  0  0  0  0  0  0  0  0  0
   10.7093    6.8583   -6.6189 C   0  0  0  0  0  0  0  0  0  0  0  0
   11.3949    7.9005   -6.0408 C   0  0  0  0  0  0  0  0  0  0  0  0
   11.7798    8.9406   -6.8615 C   0  0  0  0  0  0  0  0  0  0  0  0
   11.4973    8.9539   -8.2138 C   0  0  0  0  0  0  0  0  0  0  0  0
   10.8103    7.9126   -8.7997 C   0  0  0  0  0  0  0  0  0  0  0  0
   10.5165    7.9012  -10.1199 N   0  0  0  0  0  0  0  0  0  0  0  0
   11.7270    7.9520   -4.6029 C   0  0  0  0  0  0  0  0  0  0  0  0
   12.0776    9.1368   -4.0191 C   0  0  0  0  0  0  0  0  0  0  0  0
   12.3841    9.1770   -2.6862 C   0  0  0  0  0  0  0  0  0  0  0  0
   12.3440    8.0340   -1.9186 C   0  0  0  0  0  0  0  0  0  0  0  0
   11.9933    6.8358   -2.4925 C   0  0  0  0  0  0  0  0  0  0  0  0
   11.6884    6.8116   -3.8319 C   0  0  0  0  0  0  0  0  0  0  0  0
  1  2  2  0
  2  3  1  0
  3  4  1  0
  4  5  2  0
  5  6  1  0
  6  7  2  0
  7  8  1  0
  8  9  2  0
  9 10  1  0
 10 11  1  0
 11 12  1  0
 11 13  1  6
  7 14  1  0
 14 15  1  0
 15 16  1  0
 16 17  2  0
 17 18  1  0
 18 24  1  0
 24 26  1  0
 26 27  2  0
 27 28  1  0
 28 29  2  0
 29 30  1  0
 30 31  2  0
 31 36  1  0
 36 37  2  0
 37 38  1  0
 38 39  2  0
 39 40  1  0
 40 41  2  0
 31 32  1  0
 32 33  2  0
 33 34  1  0
 34 35  2  0
 18 19  2  0
 19 20  1  0
 20 21  2  0
 11  2  1  0
 21 16  1  0
  9  4  1  0
 35 26  1  0
 21  6  1  0
 34 29  1  0
 41 36  1  0
  3 22  1  0
 12 23  1  0
 24 25  1  0
M  END
>  <minimizedAffinity>  (969) 
-16.45313

$$$$
Mol: 123_24 - SminaDock
     RDKit          3D

 43 50  0  0  0  0  0  0  0  0999 V2000
    8.3922    5.3681  -13.3631 N   0  0  0  0  0  0  0  0  0  0  0  0
    8.2233    6.0732  -14.0933 H   0  0  0  0  0  0  0  0  0  0  0  0
    7.2095    2.7709  -12.1598 H   0  0  0  0  0  0  0  0  0  0  0  0
    7.1167    3.4003  -12.9427 O   0  0  0  0  0  0  0  0  0  0  0  0
    8.1457    4.0143  -13.6216 C   0  0  0  0  0  0  0  0  0  0  0  0
    8.8700    3.3367  -14.4863 C   0  0  0  0  0  0  0  0  0  0  0  0
    8.5501    1.9831  -14.6807 C   0  0  0  0  0  0  0  0  0  0  0  0
    9.2937    1.2712  -15.5772 C   0  0  0  0  0  0  0  0  0  0  0  0
   10.3361    1.8093  -16.2971 C   0  0  0  0  0  0  0  0  0  0  0  0
   10.6587    3.1263  -16.1180 C   0  0  0  0  0  0  0  0  0  0  0  0
    9.9048    3.8681  -15.2017 C   0  0  0  0  0  0  0  0  0  0  0  0
   11.7350    3.8555  -16.8028 C   0  0  0  0  0  0  0  0  0  0  0  0
   12.4736    3.0095  -17.7416 C   0  0  0  0  0  0  0  0  0  0  0  0
   13.5332    3.5893  -18.4643 C   0  0  0  0  0  0  0  0  0  0  0  0
   14.2363    2.8257  -19.3414 C   0  0  0  0  0  0  0  0  0  0  0  0
   13.9250    1.5155  -19.5234 C   0  0  0  0  0  0  0  0  0  0  0  0
   14.6664    0.7905  -20.4201 C   0  0  0  0  0  0  0  0  0  0  0  0
   14.3511   -0.5372  -20.6042 C   0  0  0  0  0  0  0  0  0  0  0  0
   13.3262   -1.1278  -19.9151 C   0  0  0  0  0  0  0  0  0  0  0  0
   12.5807   -0.3760  -19.0057 C   0  0  0  0  0  0  0  0  0  0  0  0
   12.8730    0.9336  -18.8080 C   0  0  0  0  0  0  0  0  0  0  0  0
   12.1335    1.6830  -17.9045 C   0  0  0  0  0  0  0  0  0  0  0  0
   11.0322    1.0852  -17.1532 C   0  0  0  0  0  0  0  0  0  0  0  0
    8.8811    5.7417  -12.0535 C   0  0  0  0  0  0  0  0  0  0  0  0
    8.4682    5.0763  -10.9599 N   0  0  0  0  0  0  0  0  0  0  0  0
    8.8863    5.3849   -9.7099 C   0  0  0  0  0  0  0  0  0  0  0  0
    9.7746    6.4175   -9.4869 C   0  0  0  0  0  0  0  0  0  0  0  0
   10.2024    6.7362   -8.2034 C   0  0  0  0  0  0  0  0  0  0  0  0
   11.0871    7.7700   -7.9913 C   0  0  0  0  0  0  0  0  0  0  0  0
   11.5311    8.4732   -9.0909 C   0  0  0  0  0  0  0  0  0  0  0  0
   11.1032    8.1542  -10.3727 C   0  0  0  0  0  0  0  0  0  0  0  0
   10.2092    7.1115  -10.5980 C   0  0  0  0  0  0  0  0  0  0  0  0
    9.7674    6.7772  -11.8662 C   0  0  0  0  0  0  0  0  0  0  0  0
   11.5325    8.1050   -6.6468 C   0  0  0  0  0  0  0  0  0  0  0  0
   12.1995    9.2841   -6.4170 C   0  0  0  0  0  0  0  0  0  0  0  0
   12.6098    9.5627   -5.1125 C   0  0  0  0  0  0  0  0  0  0  0  0
   12.3622    8.6936   -4.0770 C   0  0  0  0  0  0  0  0  0  0  0  0
   12.7715    8.9837   -2.8068 C   0  0  0  0  0  0  0  0  0  0  0  0
   12.5530    8.1574   -1.7361 C   0  0  0  0  0  0  0  0  0  0  0  0
   11.8755    6.9678   -1.9915 C   0  0  0  0  0  0  0  0  0  0  0  0
   11.4444    6.6319   -3.2508 C   0  0  0  0  0  0  0  0  0  0  0  0
   11.6833    7.4877   -4.2963 C   0  0  0  0  0  0  0  0  0  0  0  0
   11.2976    7.2539   -5.5940 C   0  0  0  0  0  0  0  0  0  0  0  0
  3  4  1  0
  4  5  1  0
  5  6  2  0
  6  7  1  0
  7  8  2  0
  8  9  1  0
  9 10  1  0
 10 11  2  0
 10 12  1  0
 12 13  1  0
 13 14  2  0
 14 15  1  0
 15 16  2  0
 16 17  1  0
 17 18  2  0
 18 19  1  0
 19 20  2  0
 20 21  1  0
 21 22  2  0
 22 23  1  0
  5  1  1  0
  1  2  1  0
  1 24  1  0
 24 25  2  0
 25 26  1  0
 26 27  2  0
 27 28  1  0
 28 29  2  0
 29 34  1  0
 34 35  2  0
 35 36  1  0
 36 37  2  0
 37 38  1  0
 38 39  2  0
 39 40  1  0
 40 41  2  0
 41 42  1  0
 42 43  2  0
 29 30  1  0
 30 31  2  0
 31 32  1  0
 32 33  2  0
 11  6  1  0
 22 13  1  0
 33 24  1  0
 23  9  2  0
 32 27  1  0
 21 16  1  0
 43 34  1  0
 42 37  1  0
M  END
>  <minimizedAffinity>  (970) 
-16.46194

$$$$
Mol: 125_27 - SminaDock
     RDKit          3D

 37 43  0  0  0  0  0  0  0  0999 V2000
    6.2000   -2.8190  -17.9609 H   0  0  0  0  0  0  0  0  0  0  0  0
    5.5941   -2.2167  -17.3896 O   0  0  0  0  0  0  0  0  0  0  0  0
    6.0889   -1.1129  -16.7251 C   0  0  0  0  0  0  0  0  0  0  0  0
    7.2242   -0.4980  -16.9680 N   0  0  0  0  0  0  0  0  0  0  0  0
    7.4434    0.6087  -16.1095 C   0  0  1  0  0  0  0  0  0  0  0  0
    6.2368    0.6125  -15.2317 C   0  0  0  0  0  0  0  0  0  0  0  0
    5.4406   -0.4148  -15.6140 C   0  0  0  0  0  0  0  0  0  0  0  0
    4.2732   -0.5698  -14.8640 C   0  0  0  0  0  0  0  0  0  0  0  0
    3.9688    0.2801  -13.8005 C   0  0  0  0  0  0  0  0  0  0  0  0
    4.8175    1.3373  -13.4257 C   0  0  0  0  0  0  0  0  0  0  0  0
    5.9403    1.4682  -14.1704 C   0  0  0  0  0  0  0  0  0  0  0  0
    6.7892    2.5827  -13.7561 C   0  0  0  0  0  0  0  0  0  0  0  0
    6.0290    3.5713  -13.2047 C   0  0  0  0  0  0  0  0  0  0  0  0
    6.7132    4.7073  -12.7536 C   0  0  0  0  0  0  0  0  0  0  0  0
    8.0950    4.7717  -12.8873 C   0  0  0  0  0  0  0  0  0  0  0  0
    8.8032    3.7472  -13.4515 C   0  0  0  0  0  0  0  0  0  0  0  0
    8.1649    2.5852  -13.9197 C   0  0  0  0  0  0  0  0  0  0  0  0
    9.1324    1.6427  -14.4989 C   0  0  0  0  0  0  0  0  0  0  0  0
    8.6759    0.4923  -15.2820 C   0  0  0  0  0  0  0  0  0  0  0  0
    8.8374    5.9007  -12.4464 N   0  0  0  0  0  0  0  0  0  0  0  0
    9.2078    6.0839  -11.2453 C   0  0  0  0  0  0  0  0  0  0  0  0
    9.9064    7.1558  -10.8544 N   0  0  0  0  0  0  0  0  0  0  0  0
   10.3005    7.3541   -9.5832 C   0  0  0  0  0  0  0  0  0  0  0  0
   11.0196    8.4656   -9.2021 C   0  0  0  0  0  0  0  0  0  0  0  0
   11.4046    8.6324   -7.8904 C   0  0  0  0  0  0  0  0  0  0  0  0
   11.0876    7.6995   -6.9130 C   0  0  0  0  0  0  0  0  0  0  0  0
   10.3670    6.5962   -7.3220 C   0  0  0  0  0  0  0  0  0  0  0  0
    9.9740    6.4147   -8.6321 C   0  0  0  0  0  0  0  0  0  0  0  0
    9.2560    5.3069   -9.0177 C   0  0  0  0  0  0  0  0  0  0  0  0
    8.8880    5.1655  -10.3179 N   0  0  0  0  0  0  0  0  0  0  0  0
    8.3445    4.3175  -10.5844 H   0  0  0  0  0  0  0  0  0  0  0  0
   11.4868    7.8604   -5.5185 C   0  0  0  0  0  0  0  0  0  0  0  0
   12.0746    9.0142   -5.0433 C   0  0  0  0  0  0  0  0  0  0  0  0
   12.4460    9.1481   -3.7197 C   0  0  0  0  0  0  0  0  0  0  0  0
   12.2402    8.1214   -2.8165 C   0  0  0  0  0  0  0  0  0  0  0  0
   11.6538    6.9687   -3.2878 C   0  0  0  0  0  0  0  0  0  0  0  0
   11.2825    6.8381   -4.6163 C   0  0  0  0  0  0  0  0  0  0  0  0
  1  2  1  0
  2  3  1  0
  3  4  2  0
  4  5  1  0
  5  6  1  0
  6  7  2  0
  7  8  1  0
  8  9  2  0
  9 10  1  0
 10 11  2  0
 11 12  1  0
 12 13  2  0
 13 14  1  0
 14 15  2  0
 15 20  1  0
 20 21  2  0
 21 22  1  0
 22 23  2  0
 23 24  1  0
 24 25  2  0
 25 26  1  0
 26 32  1  0
 32 33  2  0
 33 34  1  0
 34 35  2  0
 35 36  1  0
 36 37  2  0
 26 27  2  0
 27 28  1  0
 28 29  2  0
 29 30  1  0
 30 31  1  0
 15 16  1  0
 16 17  2  0
 17 18  1  0
 18 19  1  0
  7  3  1  0
 17 12  1  0
  5 19  1  1
 11  6  1  0
 30 21  1  0
 28 23  1  0
 37 32  1  0
M  END
>  <minimizedAffinity>  (971) 
-16.51445

$$$$
Mol: 166_45 - SminaDock
     RDKit          3D

 38 44  0  0  0  0  0  0  0  0999 V2000
    8.7077    5.7736  -12.3468 C   0  0  0  0  0  0  0  0  0  0  0  0
    7.4605    5.3186  -12.0138 C   0  0  0  0  0  0  0  0  0  0  0  0
    6.8748    4.1956  -12.5992 C   0  0  0  0  0  0  0  0  0  0  0  0
    7.5654    3.4957  -13.5600 C   0  0  0  0  0  0  0  0  0  0  0  0
    8.8449    3.9661  -13.8987 C   0  0  0  0  0  0  0  0  0  0  0  0
    9.4068    5.0794  -13.3077 C   0  0  0  0  0  0  0  0  0  0  0  0
    9.6324    3.2574  -14.9220 C   0  0  0  0  0  0  0  0  0  0  0  0
    9.0117    2.1433  -15.4770 O   0  0  0  0  0  0  0  0  0  0  0  0
    7.7691    1.6711  -15.1609 C   0  0  0  0  0  0  0  0  0  0  0  0
    7.0294    2.3189  -14.2161 C   0  0  0  0  0  0  0  0  0  0  0  0
    5.7778    1.8662  -13.8791 C   0  0  0  0  0  0  0  0  0  0  0  0
    5.2358    0.7311  -14.4979 C   0  0  0  0  0  0  0  0  0  0  0  0
    3.9916    0.2399  -14.1962 C   0  0  0  0  0  0  0  0  0  0  0  0
    3.4468   -0.8728  -14.7949 C   0  0  0  0  0  0  0  0  0  0  0  0
    4.1887   -1.5204  -15.7407 N   0  0  0  0  0  0  0  0  0  0  0  0
    3.7859   -2.3762  -16.2105 H   0  0  0  0  0  0  0  0  0  0  0  0
    5.4048   -1.0491  -16.0428 C   0  0  0  0  0  0  0  0  0  0  0  0
    6.0744   -1.6585  -16.9166 O   0  0  0  0  0  0  0  0  0  0  0  0
    5.9728    0.0670  -15.4543 C   0  0  0  0  0  0  0  0  0  0  0  0
    7.2301    0.5364  -15.7809 C   0  0  0  0  0  0  0  0  0  0  0  0
   11.2425    8.0854   -5.8978 C   0  0  0  0  0  0  0  0  0  0  0  0
   11.3100    9.2007   -6.7113 C   0  0  0  0  0  0  0  0  0  0  0  0
   10.9189    9.1856   -8.0251 C   0  0  0  0  0  0  0  0  0  0  0  0
   10.4310    8.0267   -8.5981 C   0  0  0  0  0  0  0  0  0  0  0  0
   10.3511    6.8953   -7.8117 C   0  0  0  0  0  0  0  0  0  0  0  0
    9.8593    5.7536   -8.4152 C   0  0  0  0  0  0  0  0  0  0  0  0
    9.4776    5.7440   -9.7031 N   0  0  0  0  0  0  0  0  0  0  0  0
    9.5619    6.8548  -10.4550 C   0  0  0  0  0  0  0  0  0  0  0  0
    9.2162    6.9249  -11.6954 N   0  0  0  0  0  0  0  0  0  0  0  0
   10.0402    7.9826   -9.8846 N   0  0  0  0  0  0  0  0  0  0  0  0
   10.1305    8.8870  -10.4232 H   0  0  0  0  0  0  0  0  0  0  0  0
   10.7487    6.9221   -6.4869 C   0  0  0  0  0  0  0  0  0  0  0  0
   12.4534    8.0569   -1.8345 C   0  0  0  0  0  0  0  0  0  0  0  0
   12.3326    9.2549   -2.5009 C   0  0  0  0  0  0  0  0  0  0  0  0
   11.9404    9.2752   -3.8194 C   0  0  0  0  0  0  0  0  0  0  0  0
   11.6605    8.1132   -4.5039 C   0  0  0  0  0  0  0  0  0  0  0  0
   11.7884    6.9254   -3.8161 C   0  0  0  0  0  0  0  0  0  0  0  0
   12.1823    6.8850   -2.4871 C   0  0  0  0  0  0  0  0  0  0  0  0
 33 34  2  0
 34 35  1  0
 35 36  2  0
 36 21  1  0
 21 22  2  0
 22 23  1  0
 23 24  2  0
 24 25  1  0
 25 26  1  0
 26 27  2  0
 27 28  1  0
 28 29  2  0
 29  1  1  0
  1  2  2  0
  2  3  1  0
  3  4  2  0
  4  5  1  0
  5  6  2  0
  5  7  1  0
  7  8  1  0
  8  9  1  0
  9 10  2  0
 10 11  1  0
 11 12  2  0
 12 13  1  0
 13 14  2  0
 14 15  1  0
 15 16  1  0
 15 17  1  0
 17 18  2  0
 17 19  1  0
 19 20  2  0
 28 30  1  0
 30 31  1  0
 25 32  2  0
 36 37  1  0
 37 38  2  0
 38 33  1  0
 32 21  1  0
 30 24  1  0
  6  1  1  0
 20  9  1  0
 10  4  1  0
 19 12  1  0
M  END
>  <minimizedAffinity>  (972) 
-16.49073

$$$$
Mol: 167_18 - SminaDock
     RDKit          3D

 38 44  0  0  0  0  0  0  0  0999 V2000
    5.6736    5.4792  -11.6635 O   0  0  0  0  0  0  0  0  0  0  0  0
    6.1232    4.5012  -12.3430 C   0  0  0  0  0  0  0  0  0  0  0  0
    5.2087    3.3898  -12.6670 C   0  0  0  0  0  0  0  0  0  0  0  0
    5.9087    2.3740  -13.4801 C   0  0  0  0  0  0  0  0  0  0  0  0
    7.2287    2.4460  -13.8585 C   0  0  0  0  0  0  0  0  0  0  0  0
    7.5692    1.3552  -14.5948 N   0  0  0  0  0  0  0  0  0  0  0  0
    6.4878    0.5561  -14.7111 C   0  0  0  0  0  0  0  0  0  0  0  0
    6.2228   -0.6538  -15.3232 C   0  0  0  0  0  0  0  0  0  0  0  0
    4.9648   -1.2084  -15.2427 C   0  0  0  0  0  0  0  0  0  0  0  0
    3.9311   -0.6020  -14.5645 C   0  0  0  0  0  0  0  0  0  0  0  0
    2.6468   -1.1652  -14.4802 O   0  0  0  0  0  0  0  0  0  0  0  0
    4.1930    0.5842  -13.9647 N   0  0  0  0  0  0  0  0  0  0  0  0
    5.3684    1.1905  -13.9899 C   0  0  0  0  0  0  0  0  0  0  0  0
    8.0596    3.5765  -13.4800 C   0  0  0  0  0  0  0  0  0  0  0  0
    9.3968    3.6724  -13.8431 C   0  0  0  0  0  0  0  0  0  0  0  0
   10.1553    4.7711  -13.4547 C   0  0  0  0  0  0  0  0  0  0  0  0
    9.6277    5.7944  -12.7074 C   0  0  0  0  0  0  0  0  0  0  0  0
    8.3013    5.6903  -12.3523 C   0  0  0  0  0  0  0  0  0  0  0  0
    7.5183    4.5905  -12.7333 C   0  0  0  0  0  0  0  0  0  0  0  0
    2.5393   -2.0543  -13.9963 H   0  0  0  0  0  0  0  0  0  0  0  0
   10.3967    6.9159  -12.2931 N   0  0  0  0  0  0  0  0  0  0  0  0
   10.6963    7.6062  -13.0524 H   0  0  0  0  0  0  0  0  0  0  0  0
   10.7878    7.1792  -10.9581 C   0  0  0  0  0  0  0  0  0  0  0  0
   11.9437    7.8864  -10.7243 C   0  0  0  0  0  0  0  0  0  0  0  0
   12.3634    8.1840   -9.4214 C   0  0  0  0  0  0  0  0  0  0  0  0
   11.6122    7.7661   -8.3436 C   0  0  0  0  0  0  0  0  0  0  0  0
   11.9663    8.0260   -7.0419 C   0  0  0  0  0  0  0  0  0  0  0  0
   11.2038    7.6042   -5.9525 C   0  0  0  0  0  0  0  0  0  0  0  0
   10.0602    6.9039   -6.2526 C   0  0  0  0  0  0  0  0  0  0  0  0
    9.6795    6.6278   -7.5557 C   0  0  0  0  0  0  0  0  0  0  0  0
   10.4608    7.0609   -8.6184 C   0  0  0  0  0  0  0  0  0  0  0  0
   10.0742    6.7836   -9.8853 N   0  0  0  0  0  0  0  0  0  0  0  0
   11.6088    7.8803   -4.5856 C   0  0  0  0  0  0  0  0  0  0  0  0
   11.7440    6.8466   -3.6655 C   0  0  0  0  0  0  0  0  0  0  0  0
   12.1261    7.0583   -2.3554 C   0  0  0  0  0  0  0  0  0  0  0  0
   12.3856    8.3421   -1.9353 C   0  0  0  0  0  0  0  0  0  0  0  0
   12.2617    9.3858   -2.8199 C   0  0  0  0  0  0  0  0  0  0  0  0
   11.8755    9.1588   -4.1391 C   0  0  0  0  0  0  0  0  0  0  0  0
  1  2  2  0
  2  3  1  0
  3  4  1  0
  4  5  1  0
  5  6  2  0
  6  7  1  0
  7  8  2  0
  8  9  1  0
  9 10  2  0
 10 11  1  0
 10 12  1  0
 12 13  1  0
  5 14  1  0
 14 15  2  0
 15 16  1  0
 16 17  2  0
 17 21  1  0
 21 23  1  0
 23 24  2  0
 24 25  1  0
 25 26  2  0
 26 27  1  0
 27 28  2  0
 28 33  1  0
 33 34  2  0
 34 35  1  0
 35 36  2  0
 36 37  1  0
 37 38  2  0
 28 29  1  0
 29 30  2  0
 30 31  1  0
 31 32  2  0
 17 18  1  0
 18 19  2  0
 19  2  1  0
 13  4  2  0
 19 14  1  0
 13  7  1  0
 32 23  1  0
 31 26  1  0
 38 33  1  0
 11 20  1  0
 21 22  1  0
M  CHG  1  12  -1
M  END
>  <minimizedAffinity>  (973) 
-16.54046

$$$$
Mol: 133_54 - SminaDock
     RDKit          3D

 39 45  0  0  0  0  0  0  0  0999 V2000
    2.5268   -1.1368  -15.5521 H   0  0  0  0  0  0  0  0  0  0  0  0
    3.1297   -1.3212  -14.7618 O   0  0  0  0  0  0  0  0  0  0  0  0
    4.0129   -0.2708  -14.4090 C   0  0  0  0  0  0  0  0  0  0  0  0
    3.5523    0.7656  -13.6944 N   0  0  0  0  0  0  0  0  0  0  0  0
    4.2907    1.7899  -13.3185 N   0  0  0  0  0  0  0  0  0  0  0  0
    5.5795    1.7707  -13.6858 C   0  0  0  0  0  0  0  0  0  0  0  0
    6.1607    0.7634  -14.4129 C   0  0  0  0  0  0  0  0  0  0  0  0
    5.3264   -0.3037  -14.7890 C   0  0  0  0  0  0  0  0  0  0  0  0
    7.6047    0.7026  -14.7229 C   0  0  0  0  0  0  0  0  0  0  0  0
    8.2384    2.0338  -14.8129 C   0  0  1  0  0  0  0  0  0  0  0  0
    7.7350    2.9959  -13.8570 C   0  0  0  0  0  0  0  0  0  0  0  0
    8.5377    4.0701  -13.4591 C   0  0  0  0  0  0  0  0  0  0  0  0
    7.9889    5.0209  -12.6277 C   0  0  0  0  0  0  0  0  0  0  0  0
    6.6843    4.9724  -12.1629 C   0  0  0  0  0  0  0  0  0  0  0  0
    5.9149    3.8966  -12.5718 C   0  0  0  0  0  0  0  0  0  0  0  0
    6.4437    2.9261  -13.4061 C   0  0  0  0  0  0  0  0  0  0  0  0
    9.7444    1.7946  -14.5346 C   0  0  0  0  0  0  0  0  0  0  0  0
   10.2101    0.6247  -15.3853 C   0  0  0  0  0  0  0  0  0  0  0  0
    9.7859    0.7582  -16.7060 O   0  0  0  0  0  0  0  0  0  0  0  0
    9.4208    2.0385  -17.0296 C   0  0  0  0  0  0  0  0  0  0  0  0
    8.2414    2.5734  -16.2428 C   0  0  0  0  0  0  0  0  0  0  0  0
    8.8091    6.1100  -12.2200 N   0  0  0  0  0  0  0  0  0  0  0  0
    9.2028    6.2644  -11.0070 C   0  0  0  0  0  0  0  0  0  0  0  0
    8.8385    5.3760  -10.0704 N   0  0  0  0  0  0  0  0  0  0  0  0
    9.2088    5.4692   -8.7849 C   0  0  0  0  0  0  0  0  0  0  0  0
   10.0131    6.5538   -8.4286 C   0  0  0  0  0  0  0  0  0  0  0  0
   10.4353    6.7110   -7.1113 C   0  0  0  0  0  0  0  0  0  0  0  0
   11.2302    7.7637   -6.7155 C   0  0  0  0  0  0  0  0  0  0  0  0
   11.5979    8.6710   -7.6891 C   0  0  0  0  0  0  0  0  0  0  0  0
   11.1826    8.5235   -9.0038 C   0  0  0  0  0  0  0  0  0  0  0  0
   10.3848    7.4626   -9.3900 C   0  0  0  0  0  0  0  0  0  0  0  0
    9.9762    7.3082  -10.6669 N   0  0  0  0  0  0  0  0  0  0  0  0
   10.2733    8.0127  -11.3726 H   0  0  0  0  0  0  0  0  0  0  0  0
   11.6390    7.8789   -5.3207 C   0  0  0  0  0  0  0  0  0  0  0  0
   12.2822    9.0016   -4.8328 C   0  0  0  0  0  0  0  0  0  0  0  0
   12.6654    9.1038   -3.5120 C   0  0  0  0  0  0  0  0  0  0  0  0
   12.4228    8.0860   -2.6139 C   0  0  0  0  0  0  0  0  0  0  0  0
   11.7820    6.9648   -3.0936 C   0  0  0  0  0  0  0  0  0  0  0  0
   11.3948    6.8595   -4.4259 C   0  0  0  0  0  0  0  0  0  0  0  0
  1  2  1  0
  2  3  1  0
  3  4  2  0
  4  5  1  0
  5  6  2  0
  6  7  1  0
  7  8  2  0
  7  9  1  0
 10  9  1  6
 10 11  1  0
 11 12  2  0
 12 13  1  0
 13 22  1  0
 22 23  2  0
 23 24  1  0
 24 25  2  0
 25 26  1  0
 26 27  2  0
 27 28  1  0
 28 34  1  0
 34 35  2  0
 35 36  1  0
 36 37  2  0
 37 38  1  0
 38 39  2  0
 28 29  2  0
 29 30  1  0
 30 31  2  0
 31 32  1  0
 32 33  1  0
 13 14  2  0
 14 15  1  0
 15 16  2  0
 10 17  1  0
 17 18  1  0
 18 19  1  0
 19 20  1  0
 20 21  1  0
  8  3  1  0
 21 10  1  0
 16  6  1  0
 16 11  1  0
 32 23  1  0
 31 26  1  0
 39 34  1  0
M  END
>  <minimizedAffinity>  (974) 
-16.53597

$$$$
Mol: 167_27 - SminaDock
     RDKit          3D

 36 42  0  0  0  0  0  0  0  0999 V2000
   11.2051    7.6745   -6.8068 C   0  0  0  0  0  0  0  0  0  0  0  0
   11.6012    8.5285   -7.8155 C   0  0  0  0  0  0  0  0  0  0  0  0
   11.1724    8.3689   -9.1171 C   0  0  0  0  0  0  0  0  0  0  0  0
   10.3229    7.3437   -9.4776 C   0  0  0  0  0  0  0  0  0  0  0  0
    9.9206    6.4838   -8.4766 C   0  0  0  0  0  0  0  0  0  0  0  0
    9.0704    5.4632   -8.8559 C   0  0  0  0  0  0  0  0  0  0  0  0
    8.6689    5.3336  -10.1382 N   0  0  0  0  0  0  0  0  0  0  0  0
    9.0658    6.1765  -11.1077 C   0  0  0  0  0  0  0  0  0  0  0  0
    8.6729    6.0412  -12.3378 N   0  0  0  0  0  0  0  0  0  0  0  0
    9.8938    7.1731  -10.7466 N   0  0  0  0  0  0  0  0  0  0  0  0
   10.2084    7.8314  -11.4856 H   0  0  0  0  0  0  0  0  0  0  0  0
   10.3547    6.6511   -7.1771 C   0  0  0  0  0  0  0  0  0  0  0  0
    7.7967    4.9593  -12.6367 C   0  0  0  0  0  0  0  0  0  0  0  0
    6.5711    4.8024  -12.0433 C   0  0  0  0  0  0  0  0  0  0  0  0
    5.7813    3.7269  -12.3880 C   0  0  0  0  0  0  0  0  0  0  0  0
    6.1871    2.7874  -13.3243 C   0  0  0  0  0  0  0  0  0  0  0  0
    7.4133    2.9472  -13.9157 C   0  0  0  0  0  0  0  0  0  0  0  0
    8.2154    4.0397  -13.5657 C   0  0  0  0  0  0  0  0  0  0  0  0
    7.6253    1.8332  -14.8697 C   0  0  0  0  0  0  0  0  0  0  0  0
    6.3964    1.0177  -14.7672 C   0  0  0  0  0  0  0  0  0  0  0  0
    5.5428    1.5717  -13.8586 C   0  0  0  0  0  0  0  0  0  0  0  0
    4.3261    1.0236  -13.5630 C   0  0  0  0  0  0  0  0  0  0  0  0
    3.9343   -0.1327  -14.2001 C   0  0  0  0  0  0  0  0  0  0  0  0
    4.7550   -0.7265  -15.1195 C   0  0  0  0  0  0  0  0  0  0  0  0
    5.9760   -0.1580  -15.4021 C   0  0  0  0  0  0  0  0  0  0  0  0
    6.5439   -0.9148  -16.2968 O   0  0  0  0  0  0  0  0  0  0  0  0
    5.7488   -1.9205  -16.5875 C   0  0  0  0  0  0  0  0  0  0  0  0
    6.0040   -2.8378  -17.4210 O   0  0  0  0  0  0  0  0  0  0  0  0
    4.6162   -1.8362  -15.8683 N   0  0  0  0  0  0  0  0  0  0  0  0
    3.7798   -2.4548  -15.8458 H   0  0  0  0  0  0  0  0  0  0  0  0
   12.4656    8.0299   -2.7398 C   0  0  0  0  0  0  0  0  0  0  0  0
   12.7552    9.0333   -3.6406 C   0  0  0  0  0  0  0  0  0  0  0  0
   12.3518    8.9310   -4.9666 C   0  0  0  0  0  0  0  0  0  0  0  0
   11.6538    7.8336   -5.4265 C   0  0  0  0  0  0  0  0  0  0  0  0
   11.3727    6.8401   -4.5136 C   0  0  0  0  0  0  0  0  0  0  0  0
   11.7680    6.9305   -3.1948 C   0  0  0  0  0  0  0  0  0  0  0  0
 31 32  2  0
 32 33  1  0
 33 34  2  0
 34  1  1  0
  1  2  2  0
  2  3  1  0
  3  4  2  0
  4  5  1  0
  5  6  1  0
  6  7  2  0
  7  8  1  0
  8  9  2  0
  9 13  1  0
 13 14  2  0
 14 15  1  0
 15 16  2  0
 16 17  1  0
 17 18  2  0
 17 19  1  0
 19 20  1  0
 20 21  2  0
 21 22  1  0
 22 23  2  0
 23 24  1  0
 24 25  2  0
 25 26  1  0
 26 27  1  0
 27 28  2  0
 27 29  1  0
 29 30  1  0
  8 10  1  0
 10 11  1  0
  5 12  2  0
 34 35  1  0
 35 36  2  0
 36 31  1  0
 12  1  1  0
 10  4  1  0
 18 13  1  0
 25 20  1  0
 21 16  1  0
 29 24  1  0
M  END
>  <minimizedAffinity>  (975) 
-16.45992

$$$$
Mol: 151_60 - SminaDock
     RDKit          3D

 37 43  0  0  0  0  0  0  0  0999 V2000
    8.0219    1.7983  -15.3519 C   0  0  0  0  0  0  0  0  0  0  0  0
    7.4561    0.7199  -15.9318 N   0  0  0  0  0  0  0  0  0  0  0  0
    6.2293    0.2821  -15.6033 C   0  0  0  0  0  0  0  0  0  0  0  0
    5.6924   -0.8407  -16.2373 C   0  0  0  0  0  0  0  0  0  0  0  0
    4.4313   -1.2821  -15.8931 C   0  0  0  0  0  0  0  0  0  0  0  0
    3.6683   -0.6377  -14.9239 C   0  0  0  0  0  0  0  0  0  0  0  0
    4.2247    0.4659  -14.3169 C   0  0  0  0  0  0  0  0  0  0  0  0
    5.4833    0.9267  -14.6435 C   0  0  0  0  0  0  0  0  0  0  0  0
    6.0331    2.0509  -14.0161 C   0  0  0  0  0  0  0  0  0  0  0  0
    7.2922    2.4589  -14.3880 C   0  0  0  0  0  0  0  0  0  0  0  0
    7.8732    3.6307  -13.7402 C   0  0  0  0  0  0  0  0  0  0  0  0
    9.1226    4.1038  -14.0584 C   0  0  0  0  0  0  0  0  0  0  0  0
    9.6257    5.2319  -13.4087 C   0  0  0  0  0  0  0  0  0  0  0  0
    8.8970    5.8891  -12.4488 C   0  0  0  0  0  0  0  0  0  0  0  0
    7.6375    5.3962  -12.1410 C   0  0  0  0  0  0  0  0  0  0  0  0
    7.1286    4.2904  -12.7691 C   0  0  0  0  0  0  0  0  0  0  0  0
    5.7959    3.8584  -12.3687 C   0  0  0  0  0  0  0  0  0  0  0  0
    5.1627    4.4755  -11.4856 O   0  0  0  0  0  0  0  0  0  0  0  0
    5.1824    2.6930  -12.9984 C   0  0  0  0  0  0  0  0  0  0  0  0
    9.4120    7.0331  -11.8002 N   0  0  0  0  0  0  0  0  0  0  0  0
    9.7330    6.9905  -10.5528 C   0  0  0  0  0  0  0  0  0  0  0  0
   10.2298    8.0877   -9.9201 N   0  0  0  0  0  0  0  0  0  0  0  0
   10.5806    8.0917   -8.6199 C   0  0  0  0  0  0  0  0  0  0  0  0
   11.0846    9.2111   -7.9904 C   0  0  0  0  0  0  0  0  0  0  0  0
   11.4415    9.2011   -6.6571 C   0  0  0  0  0  0  0  0  0  0  0  0
   11.3070    8.0553   -5.8886 C   0  0  0  0  0  0  0  0  0  0  0  0
   10.8019    6.9423   -6.5285 C   0  0  0  0  0  0  0  0  0  0  0  0
   10.4438    6.9476   -7.8614 C   0  0  0  0  0  0  0  0  0  0  0  0
    9.9401    5.8346   -8.5017 C   0  0  0  0  0  0  0  0  0  0  0  0
    9.5991    5.8764   -9.8159 N   0  0  0  0  0  0  0  0  0  0  0  0
    9.2203    5.0184  -10.2705 H   0  0  0  0  0  0  0  0  0  0  0  0
   11.6932    8.0754   -4.4829 C   0  0  0  0  0  0  0  0  0  0  0  0
   12.0265    9.2488   -3.8263 C   0  0  0  0  0  0  0  0  0  0  0  0
   12.3919    9.2677   -2.4969 C   0  0  0  0  0  0  0  0  0  0  0  0
   12.4403    8.1054   -1.7608 C   0  0  0  0  0  0  0  0  0  0  0  0
   12.1118    6.9288   -2.3977 C   0  0  0  0  0  0  0  0  0  0  0  0
   11.7453    6.9159   -3.7341 C   0  0  0  0  0  0  0  0  0  0  0  0
  1  2  2  0
  2  3  1  0
  3  4  2  0
  4  5  1  0
  5  6  2  0
  6  7  1  0
  7  8  2  0
  8  9  1  0
  9 10  2  0
 10 11  1  0
 11 12  2  0
 12 13  1  0
 13 14  2  0
 14 20  1  0
 20 21  2  0
 21 22  1  0
 22 23  2  0
 23 24  1  0
 24 25  2  0
 25 26  1  0
 26 32  1  0
 32 33  2  0
 33 34  1  0
 34 35  2  0
 35 36  1  0
 36 37  2  0
 26 27  2  0
 27 28  1  0
 28 29  2  0
 29 30  1  0
 30 31  1  0
 14 15  1  0
 15 16  2  0
 16 17  1  0
 17 18  2  0
 17 19  1  0
 10  1  1  0
 16 11  1  0
  8  3  1  0
 19  9  1  0
 30 21  1  0
 28 23  1  0
 37 32  1  0
M  END
>  <minimizedAffinity>  (976) 
-16.49714

$$$$
Mol: 183_13 - SminaDock
     RDKit          3D

 37 43  0  0  0  0  0  0  0  0999 V2000
    8.6689    5.8567  -12.3647 C   0  0  0  0  0  0  0  0  0  0  0  0
    9.4592    5.1671  -13.2752 C   0  0  0  0  0  0  0  0  0  0  0  0
    8.9890    3.9981  -13.8305 C   0  0  0  0  0  0  0  0  0  0  0  0
    7.7413    3.4812  -13.5084 C   0  0  0  0  0  0  0  0  0  0  0  0
    6.9791    4.1832  -12.6046 C   0  0  0  0  0  0  0  0  0  0  0  0
    7.4308    5.3600  -12.0337 C   0  0  0  0  0  0  0  0  0  0  0  0
    5.6883    3.4343  -12.4202 C   0  0  0  0  0  0  0  0  0  0  0  0
    5.8194    2.2548  -13.3116 C   0  0  0  0  0  0  0  0  0  0  0  0
    7.0355    2.2801  -13.9578 C   0  0  0  0  0  0  0  0  0  0  0  0
    7.4119    1.2799  -14.8584 C   0  0  0  0  0  0  0  0  0  0  0  0
    6.5569    0.2237  -15.1257 C   0  0  0  0  0  0  0  0  0  0  0  0
    6.6188   -0.8636  -15.9151 N   0  0  0  0  0  0  0  0  0  0  0  0
    5.4876   -1.5973  -15.8075 C   0  0  0  0  0  0  0  0  0  0  0  0
    5.1942   -2.8178  -16.4953 N   0  0  0  0  0  0  0  0  0  0  0  0
    5.4660   -3.0078  -17.4828 H   0  0  0  0  0  0  0  0  0  0  0  0
    4.6787   -3.5509  -15.9672 H   0  0  0  0  0  0  0  0  0  0  0  0
    4.7116   -0.9401  -14.9275 N   0  0  0  0  0  0  0  0  0  0  0  0
    5.3283    0.1772  -14.4877 C   0  0  0  0  0  0  0  0  0  0  0  0
    4.9933    1.1829  -13.6059 C   0  0  0  0  0  0  0  0  0  0  0  0
   11.2017    8.0726   -5.9223 C   0  0  0  0  0  0  0  0  0  0  0  0
   11.2331    9.2488   -6.6516 C   0  0  0  0  0  0  0  0  0  0  0  0
   10.8228    9.2752   -7.9674 C   0  0  0  0  0  0  0  0  0  0  0  0
   10.3660    8.1467   -8.6157 C   0  0  0  0  0  0  0  0  0  0  0  0
   10.3350    6.9684   -7.8832 C   0  0  0  0  0  0  0  0  0  0  0  0
    9.8759    5.8524   -8.5475 C   0  0  0  0  0  0  0  0  0  0  0  0
    9.4792    5.8935   -9.8300 N   0  0  0  0  0  0  0  0  0  0  0  0
    9.5134    7.0482  -10.5358 C   0  0  0  0  0  0  0  0  0  0  0  0
    9.1303    7.0785  -11.7678 N   0  0  0  0  0  0  0  0  0  0  0  0
    9.9605    8.1483   -9.8982 N   0  0  0  0  0  0  0  0  0  0  0  0
   10.0053    9.0627  -10.4012 H   0  0  0  0  0  0  0  0  0  0  0  0
   10.7457    6.9423   -6.5667 C   0  0  0  0  0  0  0  0  0  0  0  0
   12.4674    7.9705   -1.8503 C   0  0  0  0  0  0  0  0  0  0  0  0
   12.1058    6.8092   -2.4929 C   0  0  0  0  0  0  0  0  0  0  0  0
   11.6977    6.8529   -3.8103 C   0  0  0  0  0  0  0  0  0  0  0  0
   11.6360    8.0407   -4.5263 C   0  0  0  0  0  0  0  0  0  0  0  0
   12.0075    9.1847   -3.8447 C   0  0  0  0  0  0  0  0  0  0  0  0
   12.4200    9.1677   -2.5246 C   0  0  0  0  0  0  0  0  0  0  0  0
 32 33  2  0
 33 34  1  0
 34 35  2  0
 35 20  1  0
 20 21  2  0
 21 22  1  0
 22 23  2  0
 23 24  1  0
 24 25  1  0
 25 26  2  0
 26 27  1  0
 27 28  2  0
 28  1  1  0
  1  2  2  0
  2  3  1  0
  3  4  2  0
  4  5  1  0
  5  6  2  0
  5  7  1  0
  7  8  1  0
  8  9  2  0
  9 10  1  0
 10 11  2  0
 11 12  1  0
 12 13  2  0
 13 14  1  0
 14 15  1  0
 14 16  1  0
 13 17  1  0
 17 18  1  0
 18 19  2  0
 27 29  1  0
 29 30  1  0
 24 31  2  0
 35 36  1  0
 36 37  2  0
 37 32  1  0
 31 20  1  0
 29 23  1  0
  6  1  1  0
 19  8  1  0
  9  4  1  0
 18 11  1  0
M  CHG  1  17  -1
M  END
>  <minimizedAffinity>  (977) 
-16.50639

$$$$
Mol: 166_34 - SminaDock
     RDKit          3D

 40 46  0  0  0  0  0  0  0  0999 V2000
    4.6882    1.6805  -11.9600 H   0  0  0  0  0  0  0  0  0  0  0  0
    4.9936    2.2816  -12.7326 O   0  0  0  0  0  0  0  0  0  0  0  0
    5.6199    1.8339  -13.8549 C   0  0  0  0  0  0  0  0  0  0  0  0
    6.7902    2.3670  -14.3190 C   0  0  0  0  0  0  0  0  0  0  0  0
    7.3678    1.8571  -15.4687 C   0  0  0  0  0  0  0  0  0  0  0  0
    6.7528    0.8392  -16.1033 N   0  0  0  0  0  0  0  0  0  0  0  0
    5.6024    0.3056  -15.6586 C   0  0  0  0  0  0  0  0  0  0  0  0
    4.9671   -0.7477  -16.3179 C   0  0  0  0  0  0  0  0  0  0  0  0
    5.5016   -1.2014  -17.3601 O   0  0  0  0  0  0  0  0  0  0  0  0
    3.8120   -1.2428  -15.8243 N   0  0  0  0  0  0  0  0  0  0  0  0
    3.3353   -2.0388  -16.3257 H   0  0  0  0  0  0  0  0  0  0  0  0
    3.2100   -0.7868  -14.7159 C   0  0  0  0  0  0  0  0  0  0  0  0
    3.8132    0.2630  -14.0305 C   0  0  0  0  0  0  0  0  0  0  0  0
    4.9864    0.7741  -14.5221 C   0  0  0  0  0  0  0  0  0  0  0  0
    8.6037    2.3425  -16.0555 C   0  0  0  0  0  0  0  0  0  0  0  0
    9.2813    3.4453  -15.3534 C   0  0  0  0  0  0  0  0  0  0  0  0
    8.6271    3.9507  -14.1519 C   0  0  0  0  0  0  0  0  0  0  0  0
    9.2548    5.0082  -13.4898 C   0  0  0  0  0  0  0  0  0  0  0  0
    8.7588    5.5844  -12.3485 C   0  0  0  0  0  0  0  0  0  0  0  0
    7.5854    5.0890  -11.8393 C   0  0  0  0  0  0  0  0  0  0  0  0
    6.9147    4.0248  -12.4695 C   0  0  0  0  0  0  0  0  0  0  0  0
    7.4336    3.4666  -13.6112 C   0  0  0  0  0  0  0  0  0  0  0  0
    9.3971    6.6572  -11.6829 N   0  0  0  0  0  0  0  0  0  0  0  0
    9.6969    6.6687  -10.4473 C   0  0  0  0  0  0  0  0  0  0  0  0
   10.3011    7.7487   -9.9385 N   0  0  0  0  0  0  0  0  0  0  0  0
   10.6641    7.8692   -8.6411 C   0  0  0  0  0  0  0  0  0  0  0  0
   11.2786    8.9767   -8.1400 C   0  0  0  0  0  0  0  0  0  0  0  0
   11.6296    9.0416   -6.7877 C   0  0  0  0  0  0  0  0  0  0  0  0
   11.3644    7.9934   -5.9334 C   0  0  0  0  0  0  0  0  0  0  0  0
   10.7431    6.8887   -6.4687 C   0  0  0  0  0  0  0  0  0  0  0  0
   10.3869    6.8055   -7.8085 C   0  0  0  0  0  0  0  0  0  0  0  0
    9.7653    5.6951   -8.3335 C   0  0  0  0  0  0  0  0  0  0  0  0
    9.4295    5.6367   -9.6326 N   0  0  0  0  0  0  0  0  0  0  0  0
    8.9535    4.7599   -9.9850 H   0  0  0  0  0  0  0  0  0  0  0  0
   11.7400    8.0905   -4.5310 C   0  0  0  0  0  0  0  0  0  0  0  0
   12.1101    9.2731   -3.9472 C   0  0  0  0  0  0  0  0  0  0  0  0
   12.4550    9.3010   -2.6145 C   0  0  0  0  0  0  0  0  0  0  0  0
   12.4398    8.1571   -1.8332 C   0  0  0  0  0  0  0  0  0  0  0  0
   12.0663    6.9727   -2.4285 C   0  0  0  0  0  0  0  0  0  0  0  0
   11.7164    6.9386   -3.7766 C   0  0  0  0  0  0  0  0  0  0  0  0
  1  2  1  0
  2  3  1  0
  3  4  2  0
  4  5  1  0
  5  6  2  0
  6  7  1  0
  7  8  1  0
  8  9  2  0
  8 10  1  0
 10 11  1  0
 10 12  1  0
 12 13  2  0
 13 14  1  0
  5 15  1  0
 15 16  1  0
 16 17  1  0
 17 18  2  0
 18 19  1  0
 19 23  1  0
 23 24  2  0
 24 25  1  0
 25 26  2  0
 26 27  1  0
 27 28  2  0
 28 29  1  0
 29 35  1  0
 35 36  2  0
 36 37  1  0
 37 38  2  0
 38 39  1  0
 39 40  2  0
 29 30  2  0
 30 31  1  0
 31 32  2  0
 32 33  1  0
 33 34  1  0
 19 20  2  0
 20 21  1  0
 21 22  2  0
 14  3  1  0
 22 17  1  0
 22  4  1  0
 14  7  2  0
 33 24  1  0
 31 26  1  0
 40 35  1  0
M  END
>  <minimizedAffinity>  (978) 
-16.48136

$$$$
Mol: 166_38 - SminaDock
     RDKit          3D

 38 44  0  0  0  0  0  0  0  0999 V2000
    8.6972    5.8377  -12.4648 C   0  0  0  0  0  0  0  0  0  0  0  0
    9.2808    5.2480  -13.5492 C   0  0  0  0  0  0  0  0  0  0  0  0
    8.7338    4.1220  -14.1675 C   0  0  0  0  0  0  0  0  0  0  0  0
    7.5714    3.5959  -13.6635 C   0  0  0  0  0  0  0  0  0  0  0  0
    6.9804    4.1873  -12.5674 C   0  0  0  0  0  0  0  0  0  0  0  0
    7.5370    5.3182  -11.9545 C   0  0  0  0  0  0  0  0  0  0  0  0
    5.7768    3.5990  -11.9722 C   0  0  0  0  0  0  0  0  0  0  0  0
    5.0092    2.6833  -12.8321 C   0  0  0  0  0  0  0  0  0  0  0  0
    5.7461    1.9918  -13.8828 C   0  0  0  0  0  0  0  0  0  0  0  0
    6.9525    2.4607  -14.3489 C   0  0  0  0  0  0  0  0  0  0  0  0
    7.5966    1.8129  -15.4032 C   0  0  0  0  0  0  0  0  0  0  0  0
    7.0654    0.6966  -16.0101 C   0  0  0  0  0  0  0  0  0  0  0  0
    7.6298    0.0279  -17.0226 N   0  0  0  0  0  0  0  0  0  0  0  0
    7.0490   -1.0689  -17.5736 C   0  0  0  0  0  0  0  0  0  0  0  0
    7.5514   -1.7166  -18.5212 O   0  0  0  0  0  0  0  0  0  0  0  0
    5.8422   -1.4986  -17.0684 C   0  0  0  0  0  0  0  0  0  0  0  0
    5.2661   -2.5189  -17.5546 O   0  0  0  0  0  0  0  0  0  0  0  0
    5.2865   -0.8312  -16.0635 O   0  0  0  0  0  0  0  0  0  0  0  0
    5.8557    0.2349  -15.5313 C   0  0  0  0  0  0  0  0  0  0  0  0
    5.1980    0.8519  -14.4962 C   0  0  0  0  0  0  0  0  0  0  0  0
   11.2556    8.0596   -6.0156 C   0  0  0  0  0  0  0  0  0  0  0  0
   11.4429    9.1815   -6.8128 C   0  0  0  0  0  0  0  0  0  0  0  0
   11.0742    9.1768   -8.1522 C   0  0  0  0  0  0  0  0  0  0  0  0
   10.5108    8.0625   -8.7375 C   0  0  0  0  0  0  0  0  0  0  0  0
   10.3182    6.9385   -7.9562 C   0  0  0  0  0  0  0  0  0  0  0  0
    9.7556    5.8363   -8.5596 C   0  0  0  0  0  0  0  0  0  0  0  0
    9.4014    5.8505   -9.8775 N   0  0  0  0  0  0  0  0  0  0  0  0
    9.5972    6.9510  -10.6172 C   0  0  0  0  0  0  0  0  0  0  0  0
    9.2722    6.9788  -11.8560 N   0  0  0  0  0  0  0  0  0  0  0  0
   10.1417    8.0230  -10.0389 N   0  0  0  0  0  0  0  0  0  0  0  0
   10.3222    8.9248  -10.5704 H   0  0  0  0  0  0  0  0  0  0  0  0
   10.6882    6.9579   -6.6309 C   0  0  0  0  0  0  0  0  0  0  0  0
   12.3654    7.9498   -1.9247 C   0  0  0  0  0  0  0  0  0  0  0  0
   12.3537    9.1604   -2.5923 C   0  0  0  0  0  0  0  0  0  0  0  0
   11.9892    9.1944   -3.9340 C   0  0  0  0  0  0  0  0  0  0  0  0
   11.6405    8.0551   -4.6123 C   0  0  0  0  0  0  0  0  0  0  0  0
   11.6542    6.8531   -3.9419 C   0  0  0  0  0  0  0  0  0  0  0  0
   12.0155    6.8182   -2.6113 C   0  0  0  0  0  0  0  0  0  0  0  0
 33 34  2  0
 34 35  1  0
 35 36  2  0
 36 21  1  0
 21 22  2  0
 22 23  1  0
 23 24  2  0
 24 25  1  0
 25 26  1  0
 26 27  2  0
 27 28  1  0
 28 29  2  0
 29  1  1  0
  1  2  2  0
  2  3  1  0
  3  4  2  0
  4  5  1  0
  5  6  2  0
  5  7  1  0
  7  8  1  0
  8  9  1  0
  9 10  2  0
 10 11  1  0
 11 12  2  0
 12 13  1  0
 13 14  1  0
 14 15  2  0
 14 16  1  0
 16 17  2  0
 16 18  1  0
 18 19  1  0
 19 20  2  0
 28 30  1  0
 30 31  1  0
 25 32  2  0
 36 37  1  0
 37 38  2  0
 38 33  1  0
 32 21  1  0
 30 24  1  0
  6  1  1  0
 20  9  1  0
 10  4  1  0
 19 12  1  0
M  CHG  1  13  -1
M  END
>  <minimizedAffinity>  (979) 
-16.49767

$$$$
Mol: 195_36 - SminaDock
     RDKit          3D

 37 43  0  0  0  0  0  0  0  0999 V2000
    8.7037    5.7228  -12.3578 C   0  0  0  0  0  0  0  0  0  0  0  0
    9.4886    5.0719  -13.3142 C   0  0  0  0  0  0  0  0  0  0  0  0
    9.0139    3.9497  -13.9586 C   0  0  0  0  0  0  0  0  0  0  0  0
    7.7645    3.4703  -13.6586 C   0  0  0  0  0  0  0  0  0  0  0  0
    7.0114    4.1144  -12.7250 C   0  0  0  0  0  0  0  0  0  0  0  0
    7.4537    5.2394  -12.0606 C   0  0  0  0  0  0  0  0  0  0  0  0
    5.7197    3.3910  -12.6004 C   0  0  0  0  0  0  0  0  0  0  0  0
    5.8478    2.2739  -13.5685 C   0  0  0  0  0  0  0  0  0  0  0  0
    4.9702    1.2449  -13.9133 C   0  0  0  0  0  0  0  0  0  0  0  0
    5.3470    0.3282  -14.8575 C   0  0  0  0  0  0  0  0  0  0  0  0
    6.5524    0.3681  -15.4886 C   0  0  0  0  0  0  0  0  0  0  0  0
    7.4345    1.3825  -15.1579 C   0  0  0  0  0  0  0  0  0  0  0  0
    7.0660    2.3098  -14.2095 C   0  0  0  0  0  0  0  0  0  0  0  0
    6.6618   -0.7185  -16.4223 N   0  0  0  0  0  0  0  0  0  0  0  0
    7.4965   -0.9154  -17.0398 H   0  0  0  0  0  0  0  0  0  0  0  0
    5.4519   -1.4592  -16.3523 C   0  0  0  0  0  0  0  0  0  0  0  0
    5.2345   -2.4878  -17.0597 O   0  0  0  0  0  0  0  0  0  0  0  0
    4.6108   -0.8186  -15.3747 C   0  0  0  0  0  0  0  0  0  0  0  0
    3.4516   -1.2169  -15.0572 O   0  0  0  0  0  0  0  0  0  0  0  0
   11.2168    7.9685   -5.8853 C   0  0  0  0  0  0  0  0  0  0  0  0
   11.2886    9.0928   -6.6756 C   0  0  0  0  0  0  0  0  0  0  0  0
   10.8869    9.0705   -8.0112 C   0  0  0  0  0  0  0  0  0  0  0  0
   10.4133    7.9157   -8.5503 C   0  0  0  0  0  0  0  0  0  0  0  0
   10.3274    6.7602   -7.7790 C   0  0  0  0  0  0  0  0  0  0  0  0
   10.7327    6.8127   -6.4584 C   0  0  0  0  0  0  0  0  0  0  0  0
    9.8393    5.6360   -8.3996 C   0  0  0  0  0  0  0  0  0  0  0  0
    9.4499    5.6351   -9.7189 C   0  0  0  0  0  0  0  0  0  0  0  0
    9.5479    6.8006  -10.4588 C   0  0  0  0  0  0  0  0  0  0  0  0
    9.2063    6.8774  -11.7004 N   0  0  0  0  0  0  0  0  0  0  0  0
   10.0316    7.9097   -9.8384 N   0  0  0  0  0  0  0  0  0  0  0  0
   10.0948    8.7809  -10.4251 H   0  0  0  0  0  0  0  0  0  0  0  0
   12.4709    8.0833   -1.8066 C   0  0  0  0  0  0  0  0  0  0  0  0
   12.3563    9.2518   -2.5418 C   0  0  0  0  0  0  0  0  0  0  0  0
   11.9513    9.2175   -3.8608 C   0  0  0  0  0  0  0  0  0  0  0  0
   11.6452    8.0308   -4.5008 C   0  0  0  0  0  0  0  0  0  0  0  0
   11.7716    6.8713   -3.7301 C   0  0  0  0  0  0  0  0  0  0  0  0
   12.1689    6.8871   -2.4305 C   0  0  0  0  0  0  0  0  0  0  0  0
 32 33  2  0
 33 34  1  0
 34 35  2  0
 35 20  1  0
 20 21  2  0
 21 22  1  0
 22 23  2  0
 23 24  1  0
 24 25  2  0
 24 26  1  0
 26 27  2  0
 27 28  1  0
 28 29  2  0
 29  1  1  0
  1  2  2  0
  2  3  1  0
  3  4  2  0
  4  5  1  0
  5  6  2  0
  5  7  1  0
  7  8  1  0
  8  9  2  0
  9 10  1  0
 10 11  2  0
 11 12  1  0
 12 13  2  0
 11 14  1  0
 14 15  1  0
 14 16  1  0
 16 17  2  0
 16 18  1  0
 18 19  2  0
 28 30  1  0
 30 31  1  0
 35 36  1  0
 36 37  2  0
 37 32  1  0
 25 20  1  0
  6  1  1  0
 13  8  1  0
 30 23  1  0
 13  4  1  0
 18 10  1  0
M  END
>  <minimizedAffinity>  (980) 
-16.49033

$$$$
Mol: 195_38 - SminaDock
     RDKit          3D

 45 52  0  0  0  0  0  0  0  0999 V2000
   10.6697   -0.5070  -16.5066 H   0  0  0  0  0  0  0  0  0  0  0  0
   10.3913   -0.1726  -15.5755 N   0  0  0  0  0  0  0  0  0  0  0  0
    9.5933    0.8520  -15.4127 C   0  0  0  0  0  0  0  0  0  0  0  0
    9.0573    1.5708  -16.4653 O   0  0  0  0  0  0  0  0  0  0  0  0
    8.3501    2.6945  -15.9619 C   0  0  0  0  0  0  0  0  0  0  0  0
    8.0310    2.2180  -14.5477 C   0  0  1  0  0  0  0  0  0  0  0  0
    7.8221    3.3378  -13.6267 C   0  0  0  0  0  0  0  0  0  0  0  0
    8.6470    4.3709  -13.1916 C   0  0  0  0  0  0  0  0  0  0  0  0
    8.1658    5.3128  -12.2928 C   0  0  0  0  0  0  0  0  0  0  0  0
    6.8824    5.2463  -11.8190 C   0  0  0  0  0  0  0  0  0  0  0  0
    6.0523    4.2081  -12.2563 C   0  0  0  0  0  0  0  0  0  0  0  0
    6.5420    3.2785  -13.1498 C   0  0  0  0  0  0  0  0  0  0  0  0
    5.8706    2.1025  -13.7549 C   0  0  0  0  0  0  0  0  0  0  0  0
    6.7650    1.4834  -14.5816 C   0  0  0  0  0  0  0  0  0  0  0  0
    6.3976    0.3420  -15.2855 C   0  0  0  0  0  0  0  0  0  0  0  0
    5.1216   -0.1333  -15.1215 C   0  0  0  0  0  0  0  0  0  0  0  0
    4.4401   -1.2176  -15.6547 C   0  0  0  0  0  0  0  0  0  0  0  0
    4.9909   -2.0377  -16.4920 N   0  0  0  0  0  0  0  0  0  0  0  0
    4.3967   -2.8248  -16.8385 H   0  0  0  0  0  0  0  0  0  0  0  0
    3.2063   -1.2115  -15.1481 N   0  0  0  0  0  0  0  0  0  0  0  0
    2.4869   -1.9336  -15.3952 H   0  0  0  0  0  0  0  0  0  0  0  0
    3.0759   -0.2084  -14.3452 O   0  0  0  0  0  0  0  0  0  0  0  0
    4.2091    0.4856  -14.2876 C   0  0  0  0  0  0  0  0  0  0  0  0
    4.5766    1.6164  -13.5918 C   0  0  0  0  0  0  0  0  0  0  0  0
    9.1559    1.3831  -14.1685 N   0  0  2  0  0  0  0  0  0  0  0  0
    9.8802    2.0434  -13.7731 H   0  0  0  0  0  0  0  0  0  0  0  0
    8.9022    0.6582  -13.4808 H   0  0  0  0  0  0  0  0  0  0  0  0
    9.0764    6.3124  -11.8875 N   0  0  0  0  0  0  0  0  0  0  0  0
    9.4984    6.9578  -12.6309 H   0  0  0  0  0  0  0  0  0  0  0  0
    9.4543    6.4900  -10.5340 C   0  0  0  0  0  0  0  0  0  0  0  0
    9.0447    5.5642   -9.6018 N   0  0  0  0  0  0  0  0  0  0  0  0
    9.3938    5.6793   -8.3198 C   0  0  0  0  0  0  0  0  0  0  0  0
   10.1725    6.7069   -7.8343 C   0  0  0  0  0  0  0  0  0  0  0  0
   10.5421    6.8408   -6.5145 C   0  0  0  0  0  0  0  0  0  0  0  0
   11.3309    7.8928   -6.0581 C   0  0  0  0  0  0  0  0  0  0  0  0
   11.7304    8.8093   -7.0086 C   0  0  0  0  0  0  0  0  0  0  0  0
   11.3600    8.6768   -8.3363 C   0  0  0  0  0  0  0  0  0  0  0  0
   10.5786    7.6310   -8.7768 C   0  0  0  0  0  0  0  0  0  0  0  0
   10.2067    7.4796  -10.0547 N   0  0  0  0  0  0  0  0  0  0  0  0
   11.7071    8.0094   -4.6538 C   0  0  0  0  0  0  0  0  0  0  0  0
   12.0482    9.1925   -4.0357 C   0  0  0  0  0  0  0  0  0  0  0  0
   12.3984    9.2357   -2.6867 C   0  0  0  0  0  0  0  0  0  0  0  0
   12.4063    8.0753   -1.9471 C   0  0  0  0  0  0  0  0  0  0  0  0
   12.0679    6.8859   -2.5504 C   0  0  0  0  0  0  0  0  0  0  0  0
   11.7238    6.8638   -3.8884 C   0  0  0  0  0  0  0  0  0  0  0  0
  1  2  1  0
  2  3  2  0
  3  4  1  0
  4  5  1  0
  6  5  1  6
  6  7  1  0
  7  8  2  0
  8  9  1  0
  9 28  1  0
 28 29  1  0
 28 30  1  0
 30 31  2  0
 31 32  1  0
 32 33  2  0
 33 34  1  0
 34 35  2  0
 35 40  1  0
 40 41  2  0
 41 42  1  0
 42 43  2  0
 43 44  1  0
 44 45  2  0
 35 36  1  0
 36 37  2  0
 37 38  1  0
 38 39  2  0
  9 10  2  0
 10 11  1  0
 11 12  2  0
 12 13  1  0
 13 14  2  0
 14 15  1  0
 15 16  2  0
 16 17  1  0
 17 18  2  0
 18 19  1  0
 17 20  1  0
 20 21  1  0
 20 22  1  0
 22 23  1  0
 23 24  2  0
  6 25  1  0
 25 26  1  1
 25 27  1  0
 25  3  1  0
 14  6  1  0
 23 16  1  0
 12  7  1  0
 24 13  1  0
 39 30  1  0
 38 33  1  0
 45 40  1  0
M  CHG  1  25   1
M  END
>  <minimizedAffinity>  (981) 
-16.54854

$$$$
Mol: 166_60 - SminaDock
     RDKit          3D

 38 44  0  0  0  0  0  0  0  0999 V2000
    2.4933   -1.6973  -14.0949 H   0  0  0  0  0  0  0  0  0  0  0  0
    2.7085   -0.9131  -14.7121 O   0  0  0  0  0  0  0  0  0  0  0  0
    4.0239   -0.8054  -15.1448 C   0  0  0  0  0  0  0  0  0  0  0  0
    4.8390    0.2212  -14.7163 C   0  0  0  0  0  0  0  0  0  0  0  0
    4.6665    1.2633  -13.8930 N   0  0  0  0  0  0  0  0  0  0  0  0
    5.7987    1.9852  -13.8087 C   0  0  0  0  0  0  0  0  0  0  0  0
    6.7931    1.4369  -14.5928 C   0  0  0  0  0  0  0  0  0  0  0  0
    7.8816    2.1655  -14.4868 O   0  0  0  0  0  0  0  0  0  0  0  0
    7.6783    3.1829  -13.6694 C   0  0  0  0  0  0  0  0  0  0  0  0
    8.4980    4.2272  -13.2296 C   0  0  0  0  0  0  0  0  0  0  0  0
    7.9911    5.1476  -12.3645 C   0  0  0  0  0  0  0  0  0  0  0  0
    6.6861    5.0629  -11.9192 C   0  0  0  0  0  0  0  0  0  0  0  0
    5.8559    4.0416  -12.3382 C   0  0  0  0  0  0  0  0  0  0  0  0
    6.3749    3.0969  -13.2255 C   0  0  0  0  0  0  0  0  0  0  0  0
    6.2268    0.3172  -15.1856 C   0  0  0  0  0  0  0  0  0  0  0  0
    6.6636   -0.6393  -16.0496 C   0  0  0  0  0  0  0  0  0  0  0  0
    7.8493   -0.5759  -16.4641 O   0  0  0  0  0  0  0  0  0  0  0  0
    5.8108   -1.6213  -16.4312 N   0  0  0  0  0  0  0  0  0  0  0  0
    4.5632   -1.6970  -16.0015 N   0  0  0  0  0  0  0  0  0  0  0  0
    3.9235   -2.4830  -16.3234 H   0  0  0  0  0  0  0  0  0  0  0  0
    8.8035    6.2031  -11.9135 N   0  0  0  0  0  0  0  0  0  0  0  0
    9.1955    6.3075  -10.6800 C   0  0  0  0  0  0  0  0  0  0  0  0
    8.8335    5.3926   -9.7651 N   0  0  0  0  0  0  0  0  0  0  0  0
    9.2647    5.5457   -8.5021 C   0  0  0  0  0  0  0  0  0  0  0  0
   10.0547    6.6033   -8.1398 C   0  0  0  0  0  0  0  0  0  0  0  0
   10.4883    6.7363   -6.8161 C   0  0  0  0  0  0  0  0  0  0  0  0
   11.2824    7.7941   -6.4372 C   0  0  0  0  0  0  0  0  0  0  0  0
   11.6328    8.7098   -7.3984 C   0  0  0  0  0  0  0  0  0  0  0  0
   11.2082    8.5884   -8.7168 C   0  0  0  0  0  0  0  0  0  0  0  0
   10.4101    7.5206   -9.0859 C   0  0  0  0  0  0  0  0  0  0  0  0
    9.9705    7.3525  -10.3434 N   0  0  0  0  0  0  0  0  0  0  0  0
   10.2499    8.0676  -11.0721 H   0  0  0  0  0  0  0  0  0  0  0  0
   11.7244    7.9222   -5.0681 C   0  0  0  0  0  0  0  0  0  0  0  0
   12.4904    8.9870   -4.6182 C   0  0  0  0  0  0  0  0  0  0  0  0
   12.8718    9.0358   -3.2952 C   0  0  0  0  0  0  0  0  0  0  0  0
   12.5164    8.0600   -2.4043 C   0  0  0  0  0  0  0  0  0  0  0  0
   11.7628    7.0036   -2.8271 C   0  0  0  0  0  0  0  0  0  0  0  0
   11.3807    6.9538   -4.1497 C   0  0  0  0  0  0  0  0  0  0  0  0
  1  2  1  0
  2  3  1  0
  3  4  2  0
  4  5  1  0
  5  6  2  0
  6  7  1  0
  7  8  1  0
  8  9  1  0
  9 10  2  0
 10 11  1  0
 11 21  1  0
 21 22  2  0
 22 23  1  0
 23 24  2  0
 24 25  1  0
 25 26  2  0
 26 27  1  0
 27 33  1  0
 33 34  2  0
 34 35  1  0
 35 36  2  0
 36 37  1  0
 37 38  2  0
 27 28  2  0
 28 29  1  0
 29 30  2  0
 30 31  1  0
 31 32  1  0
 11 12  2  0
 12 13  1  0
 13 14  2  0
  7 15  2  0
 15 16  1  0
 16 17  2  0
 16 18  1  0
 18 19  1  0
 19 20  1  0
 19  3  1  0
 15  4  1  0
 14  6  1  0
 14  9  1  0
 31 22  1  0
 30 25  1  0
 38 33  1  0
M  CHG  1  18  -1
M  END
>  <minimizedAffinity>  (982) 
-16.50706

$$$$
Mol: 95_22 - SminaDock
     RDKit          3D

 38 44  0  0  0  0  0  0  0  0999 V2000
   10.6048    1.3728  -15.9454 O   0  0  0  0  0  0  0  0  0  0  0  0
    9.5161    1.6180  -15.1415 C   0  0  0  0  0  0  0  0  0  0  0  0
    8.5225    0.7458  -14.9347 C   0  0  0  0  0  0  0  0  0  0  0  0
    7.3688    0.9626  -14.0877 C   0  0  2  0  0  0  0  0  0  0  0  0
    6.1434    0.3261  -14.6602 C   0  0  0  0  0  0  0  0  0  0  0  0
    6.1567   -0.4239  -15.7876 C   0  0  0  0  0  0  0  0  0  0  0  0
    4.9612   -0.9698  -16.2605 C   0  0  0  0  0  0  0  0  0  0  0  0
    3.8094   -0.7225  -15.5578 C   0  0  0  0  0  0  0  0  0  0  0  0
    3.8222    0.0565  -14.3943 C   0  0  0  0  0  0  0  0  0  0  0  0
    4.9893    0.5971  -13.9207 C   0  0  0  0  0  0  0  0  0  0  0  0
    5.0666    1.4005  -12.7203 C   0  0  0  0  0  0  0  0  0  0  0  0
    6.0267    2.5719  -12.7494 C   0  0  0  0  0  0  0  0  0  0  0  0
    7.1082    2.3832  -13.7783 C   0  0  1  0  0  0  0  0  0  0  0  0
    8.2877    3.2186  -13.6603 C   0  0  0  0  0  0  0  0  0  0  0  0
    8.2696    4.3906  -12.8863 C   0  0  0  0  0  0  0  0  0  0  0  0
    9.3514    5.2292  -12.9331 C   0  0  0  0  0  0  0  0  0  0  0  0
   10.4434    4.9463  -13.7158 C   0  0  0  0  0  0  0  0  0  0  0  0
   10.4644    3.7925  -14.4759 C   0  0  0  0  0  0  0  0  0  0  0  0
    9.3722    2.9130  -14.4466 C   0  0  0  0  0  0  0  0  0  0  0  0
   10.6248    1.8317  -16.8576 H   0  0  0  0  0  0  0  0  0  0  0  0
    9.3445    6.3988  -12.1447 N   0  0  0  0  0  0  0  0  0  0  0  0
    9.0644    7.3133  -12.6186 H   0  0  0  0  0  0  0  0  0  0  0  0
    9.6711    6.4901  -10.7817 C   0  0  0  0  0  0  0  0  0  0  0  0
    9.1477    5.5666   -9.8616 C   0  0  0  0  0  0  0  0  0  0  0  0
    9.4233    5.6296   -8.5172 C   0  0  0  0  0  0  0  0  0  0  0  0
   10.2528    6.6495   -8.0589 C   0  0  0  0  0  0  0  0  0  0  0  0
   10.5474    6.7374   -6.6932 C   0  0  0  0  0  0  0  0  0  0  0  0
   11.3647    7.7461   -6.2377 C   0  0  0  0  0  0  0  0  0  0  0  0
   11.8620    8.6356   -7.1641 C   0  0  0  0  0  0  0  0  0  0  0  0
   11.5729    8.5498   -8.5075 C   0  0  0  0  0  0  0  0  0  0  0  0
   10.7398    7.5270   -8.9941 C   0  0  0  0  0  0  0  0  0  0  0  0
   10.4556    7.4417  -10.2921 N   0  0  0  0  0  0  0  0  0  0  0  0
   11.6950    7.8673   -4.8006 C   0  0  0  0  0  0  0  0  0  0  0  0
   12.1532    9.0598   -4.2817 C   0  0  0  0  0  0  0  0  0  0  0  0
   12.4553    9.1433   -2.9404 C   0  0  0  0  0  0  0  0  0  0  0  0
   12.3198    8.0754   -2.0778 C   0  0  0  0  0  0  0  0  0  0  0  0
   11.8615    6.8959   -2.6165 C   0  0  0  0  0  0  0  0  0  0  0  0
   11.5568    6.7983   -3.9498 C   0  0  0  0  0  0  0  0  0  0  0  0
  1  2  1  0
  2  3  2  0
  4  3  1  6
  4  5  1  0
  5  6  2  0
  6  7  1  0
  7  8  2  0
  8  9  1  0
  9 10  2  0
 10 11  1  0
 11 12  1  0
 13 12  1  1
 13 14  1  0
 14 15  2  0
 15 16  1  0
 16 21  1  0
 21 23  1  0
 23 24  2  0
 24 25  1  0
 25 26  2  0
 26 27  1  0
 27 28  2  0
 28 33  1  0
 33 34  2  0
 34 35  1  0
 35 36  2  0
 36 37  1  0
 37 38  2  0
 28 29  1  0
 29 30  2  0
 30 31  1  0
 31 32  2  0
 16 17  2  0
 17 18  1  0
 18 19  2  0
 19  2  1  0
 13  4  1  0
 19 14  1  0
 10  5  1  0
 32 23  1  0
 31 26  1  0
 38 33  1  0
  1 20  1  0
 21 22  1  0
M  END
>  <minimizedAffinity>  (983) 
-16.50959

$$$$
Mol: 195_5 - SminaDock
     RDKit          3D

 45 52  0  0  0  0  0  0  0  0999 V2000
    9.0155    5.8457  -12.6148 C   0  0  0  0  0  0  0  0  0  0  0  0
    7.8212    5.9874  -11.9461 C   0  0  0  0  0  0  0  0  0  0  0  0
    6.8253    5.0540  -12.1460 C   0  0  0  0  0  0  0  0  0  0  0  0
    7.0099    3.9753  -13.0105 C   0  0  0  0  0  0  0  0  0  0  0  0
    8.1829    3.8176  -13.6809 C   0  0  0  0  0  0  0  0  0  0  0  0
    9.1962    4.7930  -13.4590 C   0  0  0  0  0  0  0  0  0  0  0  0
    8.4661    2.7332  -14.5980 C   0  0  1  0  0  0  0  0  0  0  0  0
    7.3793    1.7558  -14.7776 C   0  0  0  0  0  0  0  0  0  0  0  0
    7.3579    0.6292  -15.5716 N   0  0  0  0  0  0  0  0  0  0  0  0
    6.1812    0.0113  -15.4527 C   0  0  0  0  0  0  0  0  0  0  0  0
    5.6390   -1.1326  -16.0117 C   0  0  0  0  0  0  0  0  0  0  0  0
    4.3921   -1.5077  -15.6871 N   0  0  0  0  0  0  0  0  0  0  0  0
    3.9272   -2.3694  -16.0805 H   0  0  0  0  0  0  0  0  0  0  0  0
    3.6284   -0.7922  -14.8131 C   0  0  0  0  0  0  0  0  0  0  0  0
    4.1312    0.3671  -14.2242 C   0  0  0  0  0  0  0  0  0  0  0  0
    5.4039    0.8125  -14.5110 C   0  0  0  0  0  0  0  0  0  0  0  0
    6.1899    1.8787  -14.1241 C   0  0  0  0  0  0  0  0  0  0  0  0
    5.9480    2.9934  -13.2100 C   0  0  0  0  0  0  0  0  0  0  0  0
    4.8438    3.0870  -12.6185 O   0  0  0  0  0  0  0  0  0  0  0  0
    8.9699    3.2009  -15.8806 N   0  0  0  0  0  0  0  0  0  0  0  0
    8.4375    3.6445  -16.6550 H   0  0  0  0  0  0  0  0  0  0  0  0
   10.2258    2.9812  -15.9295 C   0  0  0  0  0  0  0  0  0  0  0  0
   11.1230    3.2885  -17.0187 N   0  0  0  0  0  0  0  0  0  0  0  0
   11.7377    4.1093  -16.9994 H   0  0  0  0  0  0  0  0  0  0  0  0
   11.1330    2.6505  -17.8369 H   0  0  0  0  0  0  0  0  0  0  0  0
   10.7127    2.3819  -14.7798 O   0  0  0  0  0  0  0  0  0  0  0  0
    9.6361    1.9465  -14.0124 C   0  0  0  0  0  0  0  0  0  0  0  0
   11.0290    7.5016   -6.3673 C   0  0  0  0  0  0  0  0  0  0  0  0
   10.0058    6.6092   -6.5925 C   0  0  0  0  0  0  0  0  0  0  0  0
    9.6389    6.3071   -7.8797 C   0  0  0  0  0  0  0  0  0  0  0  0
   10.2726    6.8778   -8.9680 C   0  0  0  0  0  0  0  0  0  0  0  0
    9.9203    6.5895  -10.2142 N   0  0  0  0  0  0  0  0  0  0  0  0
   10.5131    7.1269  -11.2835 C   0  0  0  0  0  0  0  0  0  0  0  0
   10.0902    6.7803  -12.4510 N   0  0  0  0  0  0  0  0  0  0  0  0
   11.5105    7.9977  -11.0983 N   0  0  0  0  0  0  0  0  0  0  0  0
   11.9912    8.4322  -11.9150 H   0  0  0  0  0  0  0  0  0  0  0  0
   11.9148    8.3309   -9.8395 C   0  0  0  0  0  0  0  0  0  0  0  0
   11.2967    7.7712   -8.7380 C   0  0  0  0  0  0  0  0  0  0  0  0
   11.6778    8.0856   -7.4398 C   0  0  0  0  0  0  0  0  0  0  0  0
   12.2175    8.4208   -2.3811 C   0  0  0  0  0  0  0  0  0  0  0  0
   12.0372    9.4353   -3.3250 C   0  0  0  0  0  0  0  0  0  0  0  0
   11.6569    9.1461   -4.6021 C   0  0  0  0  0  0  0  0  0  0  0  0
   11.4389    7.8444   -4.9992 C   0  0  0  0  0  0  0  0  0  0  0  0
   11.6138    6.8475   -4.0788 C   0  0  0  0  0  0  0  0  0  0  0  0
   11.9964    7.1292   -2.7922 C   0  0  0  0  0  0  0  0  0  0  0  0
 40 41  2  0
 41 42  1  0
 42 43  2  0
 43 28  1  0
 28 29  1  0
 29 30  2  0
 30 31  1  0
 31 32  2  0
 32 33  1  0
 33 34  2  0
 34  1  1  0
  1  2  2  0
  2  3  1  0
  3  4  2  0
  4  5  1  0
  5  6  2  0
  5  7  1  0
  7  8  1  0
  8  9  2  0
  9 10  1  0
 10 11  2  0
 11 12  1  0
 12 13  1  0
 12 14  1  0
 14 15  2  0
 15 16  1  0
 16 17  2  0
 17 18  1  0
 18 19  2  0
  7 20  1  0
 20 21  1  0
 20 22  2  0
 22 23  1  0
 23 24  1  0
 23 25  1  0
 22 26  1  0
 26 27  1  0
 33 35  1  0
 35 36  1  0
 35 37  1  0
 37 38  2  0
 38 39  1  0
 43 44  1  0
 44 45  2  0
 45 40  1  0
 39 28  2  0
 38 31  1  0
  6  1  1  0
  7 27  1  1
 18  4  1  0
 17  8  1  0
 16 10  1  0
M  CHG  1  20   1
M  END
>  <minimizedAffinity>  (984) 
-16.49662

$$$$
Mol: 156_54 - SminaDock
     RDKit          3D

 41 47  0  0  0  0  0  0  0  0999 V2000
    3.8160   -0.5700  -15.2043 C   0  0  2  0  0  0  0  0  0  0  0  0
    4.8977   -1.5239  -15.6438 C   0  0  0  0  0  0  0  0  0  0  0  0
    6.0688   -0.8328  -16.2077 C   0  0  0  0  0  0  0  0  0  0  0  0
    6.6531   -1.2407  -17.2581 O   0  0  0  0  0  0  0  0  0  0  0  0
    6.5517    0.3594  -15.5133 C   0  0  0  0  0  0  0  0  0  0  0  0
    7.8228    0.7838  -15.7294 C   0  0  0  0  0  0  0  0  0  0  0  0
    8.2998    1.9224  -15.0739 C   0  0  0  0  0  0  0  0  0  0  0  0
    7.4630    2.5885  -14.2202 C   0  0  0  0  0  0  0  0  0  0  0  0
    6.1571    2.1236  -14.0199 C   0  0  0  0  0  0  0  0  0  0  0  0
    5.6751    0.9920  -14.6681 C   0  0  0  0  0  0  0  0  0  0  0  0
    4.3055    0.5749  -14.4062 C   0  0  0  0  0  0  0  0  0  0  0  0
    7.9647    3.7849  -13.5306 C   0  0  0  0  0  0  0  0  0  0  0  0
    7.1455    4.4655  -12.6749 C   0  0  0  0  0  0  0  0  0  0  0  0
    7.6233    5.6016  -12.0218 C   0  0  0  0  0  0  0  0  0  0  0  0
    8.9066    6.0449  -12.2279 C   0  0  0  0  0  0  0  0  0  0  0  0
    9.7057    5.3390  -13.0942 C   0  0  0  0  0  0  0  0  0  0  0  0
    9.2783    4.2136  -13.7603 C   0  0  0  0  0  0  0  0  0  0  0  0
   10.2008    3.5283  -14.6619 C   0  0  0  0  0  0  0  0  0  0  0  0
    9.6771    2.3397  -15.3421 C   0  0  0  0  0  0  0  0  0  0  0  0
    9.3882    7.2012  -11.5612 N   0  0  0  0  0  0  0  0  0  0  0  0
    9.7316    7.1413  -10.3262 C   0  0  0  0  0  0  0  0  0  0  0  0
    9.6374    5.9827   -9.6558 N   0  0  0  0  0  0  0  0  0  0  0  0
    9.9979    5.8978   -8.3402 C   0  0  0  0  0  0  0  0  0  0  0  0
   10.4664    7.0205   -7.6900 C   0  0  0  0  0  0  0  0  0  0  0  0
   10.8440    6.9774   -6.3501 C   0  0  0  0  0  0  0  0  0  0  0  0
   11.3107    8.1044   -5.7075 C   0  0  0  0  0  0  0  0  0  0  0  0
   11.3819    9.2613   -6.4555 C   0  0  0  0  0  0  0  0  0  0  0  0
   11.0099    9.3139   -7.7842 C   0  0  0  0  0  0  0  0  0  0  0  0
   10.5435    8.1856   -8.4248 C   0  0  0  0  0  0  0  0  0  0  0  0
   10.1818    8.2533   -9.7295 N   0  0  0  0  0  0  0  0  0  0  0  0
   10.2346    9.1257  -10.2965 H   0  0  0  0  0  0  0  0  0  0  0  0
   11.7140    8.0831   -4.2974 C   0  0  0  0  0  0  0  0  0  0  0  0
   11.7872    6.8871   -3.6144 C   0  0  0  0  0  0  0  0  0  0  0  0
   12.1680    6.8519   -2.2790 C   0  0  0  0  0  0  0  0  0  0  0  0
   12.4839    8.0080   -1.5954 C   0  0  0  0  0  0  0  0  0  0  0  0
   12.4135    9.2082   -2.2707 C   0  0  0  0  0  0  0  0  0  0  0  0
   12.0324    9.2325   -3.6033 C   0  0  0  0  0  0  0  0  0  0  0  0
    3.5681   -1.4181  -12.7782 H   0  0  0  0  0  0  0  0  0  0  0  0
    2.8034   -0.9931  -13.2306 O   0  0  0  0  0  0  0  0  0  0  0  0
    2.7514   -1.3142  -14.5622 N   0  0  0  0  0  0  0  0  0  0  0  0
    2.8346   -2.3413  -14.6953 H   0  0  0  0  0  0  0  0  0  0  0  0
 38 39  1  0
 39 40  1  0
 40 41  1  0
  1 40  1  1
  1  2  1  0
  2  3  1  0
  3  4  2  0
  3  5  1  0
  5  6  2  0
  6  7  1  0
  7  8  2  0
  8  9  1  0
  9 10  2  0
 10 11  1  0
  8 12  1  0
 12 13  2  0
 13 14  1  0
 14 15  2  0
 15 20  1  0
 20 21  2  0
 21 22  1  0
 22 23  2  0
 23 24  1  0
 24 25  2  0
 25 26  1  0
 26 32  1  0
 32 33  2  0
 33 34  1  0
 34 35  2  0
 35 36  1  0
 36 37  2  0
 26 27  2  0
 27 28  1  0
 28 29  2  0
 29 30  1  0
 30 31  1  0
 15 16  1  0
 16 17  2  0
 17 18  1  0
 18 19  1  0
 11  1  1  0
 17 12  1  0
 10  5  1  0
 30 21  1  0
 19  7  1  0
 29 24  1  0
 37 32  1  0
M  END
>  <minimizedAffinity>  (985) 
-16.46490

$$$$
Mol: 156_58 - SminaDock
     RDKit          3D

 37 43  0  0  0  0  0  0  0  0999 V2000
    6.0180   -2.9152  -16.4553 H   0  0  0  0  0  0  0  0  0  0  0  0
    5.7878   -1.9942  -16.8217 O   0  0  0  0  0  0  0  0  0  0  0  0
    6.3096   -0.8442  -16.2383 C   0  0  0  0  0  0  0  0  0  0  0  0
    7.4576   -0.2077  -16.4957 N   0  0  0  0  0  0  0  0  0  0  0  0
    7.6138    0.8645  -15.7291 N   0  0  0  0  0  0  0  0  0  0  0  0
    6.5224    0.9207  -14.9476 C   0  0  0  0  0  0  0  0  0  0  0  0
    6.1567    1.8201  -13.9465 C   0  0  0  0  0  0  0  0  0  0  0  0
    5.0087    1.7152  -13.2265 C   0  0  0  0  0  0  0  0  0  0  0  0
    4.1675    0.6512  -13.5229 C   0  0  0  0  0  0  0  0  0  0  0  0
    4.5098   -0.2635  -14.5243 C   0  0  0  0  0  0  0  0  0  0  0  0
    5.6836   -0.1311  -15.2350 C   0  0  0  0  0  0  0  0  0  0  0  0
    6.9342    2.9801  -13.5771 C   0  0  0  0  0  0  0  0  0  0  0  0
    6.1639    3.9738  -13.0577 C   0  0  0  0  0  0  0  0  0  0  0  0
    6.7922    5.1477  -12.6363 C   0  0  0  0  0  0  0  0  0  0  0  0
    8.1744    5.2645  -12.7615 C   0  0  0  0  0  0  0  0  0  0  0  0
    8.9407    4.2481  -13.2930 C   0  0  0  0  0  0  0  0  0  0  0  0
    8.3255    3.0997  -13.7052 C   0  0  0  0  0  0  0  0  0  0  0  0
    9.2367    2.0948  -14.3127 C   0  0  0  0  0  0  0  0  0  0  0  0
    8.7445    1.7620  -15.7368 C   0  0  0  0  0  0  0  0  0  0  0  0
    8.8394    6.4438  -12.3394 N   0  0  0  0  0  0  0  0  0  0  0  0
    9.2326    6.5261  -11.1309 C   0  0  0  0  0  0  0  0  0  0  0  0
    9.0275    5.5230  -10.2620 N   0  0  0  0  0  0  0  0  0  0  0  0
    9.4194    5.5431   -8.9780 C   0  0  0  0  0  0  0  0  0  0  0  0
   10.0783    6.6548   -8.4921 C   0  0  0  0  0  0  0  0  0  0  0  0
   10.5089    6.7302   -7.1724 C   0  0  0  0  0  0  0  0  0  0  0  0
   11.1704    7.8322   -6.6714 C   0  0  0  0  0  0  0  0  0  0  0  0
   11.3853    8.8752   -7.5685 C   0  0  0  0  0  0  0  0  0  0  0  0
   10.9607    8.8054   -8.8770 C   0  0  0  0  0  0  0  0  0  0  0  0
   10.2981    7.6953   -9.3692 C   0  0  0  0  0  0  0  0  0  0  0  0
    9.8815    7.6157  -10.6442 N   0  0  0  0  0  0  0  0  0  0  0  0
   10.0575    8.4246  -11.3081 H   0  0  0  0  0  0  0  0  0  0  0  0
   11.6197    7.9059   -5.2942 C   0  0  0  0  0  0  0  0  0  0  0  0
   12.3316    8.9844   -4.8348 C   0  0  0  0  0  0  0  0  0  0  0  0
   12.7535    9.0329   -3.4980 C   0  0  0  0  0  0  0  0  0  0  0  0
   12.4436    7.9784   -2.6430 C   0  0  0  0  0  0  0  0  0  0  0  0
   11.7293    6.8948   -3.1012 C   0  0  0  0  0  0  0  0  0  0  0  0
   11.3293    6.8804   -4.4255 C   0  0  0  0  0  0  0  0  0  0  0  0
  1  2  1  0
  2  3  1  0
  3  4  2  0
  4  5  1  0
  5  6  1  0
  6  7  2  0
  7  8  1  0
  8  9  2  0
  9 10  1  0
 10 11  2  0
  7 12  1  0
 12 13  2  0
 13 14  1  0
 14 15  2  0
 15 20  1  0
 20 21  2  0
 21 22  1  0
 22 23  2  0
 23 24  1  0
 24 25  2  0
 25 26  1  0
 26 32  1  0
 32 33  2  0
 33 34  1  0
 34 35  2  0
 35 36  1  0
 36 37  2  0
 26 27  2  0
 27 28  1  0
 28 29  2  0
 29 30  1  0
 30 31  1  0
 15 16  1  0
 16 17  2  0
 17 18  1  0
 18 19  1  0
 11  3  1  0
 17 12  1  0
 19  5  1  0
 11  6  1  0
 30 21  1  0
 29 24  1  0
 37 32  1  0
M  END
>  <minimizedAffinity>  (986) 
-16.46670

$$$$
Mol: 142_40 - SminaDock
     RDKit          3D

 43 50  0  0  0  0  0  0  0  0999 V2000
   12.0103    2.0374  -13.7724 H   0  0  0  0  0  0  0  0  0  0  0  0
   10.9822    2.0820  -13.7412 O   0  0  0  0  0  0  0  0  0  0  0  0
   10.2394    2.6665  -14.7492 C   0  0  0  0  0  0  0  0  0  0  0  0
   10.7013    3.2479  -15.7700 N   0  0  0  0  0  0  0  0  0  0  0  0
    9.7010    3.7416  -16.6161 C   0  0  0  0  0  0  0  0  0  0  0  0
    9.8398    4.3762  -17.7248 O   0  0  0  0  0  0  0  0  0  0  0  0
    8.4672    3.4162  -16.0307 N   0  0  0  0  0  0  0  0  0  0  0  0
    7.4846    3.6016  -16.3400 H   0  0  0  0  0  0  0  0  0  0  0  0
    8.7497    2.6962  -14.7792 C   0  0  2  0  0  0  0  0  0  0  0  0
    8.2253    3.5733  -13.7087 C   0  0  0  0  0  0  0  0  0  0  0  0
    9.0237    4.6172  -13.2229 C   0  0  0  0  0  0  0  0  0  0  0  0
    8.5028    5.4778  -12.3091 C   0  0  0  0  0  0  0  0  0  0  0  0
    7.2098    5.2967  -11.8910 C   0  0  0  0  0  0  0  0  0  0  0  0
    6.3988    4.2614  -12.3620 C   0  0  0  0  0  0  0  0  0  0  0  0
    6.9344    3.3970  -13.2827 C   0  0  0  0  0  0  0  0  0  0  0  0
    6.1439    2.2388  -13.7149 C   0  0  0  0  0  0  0  0  0  0  0  0
    4.8042    2.0826  -13.3854 C   0  0  0  0  0  0  0  0  0  0  0  0
    4.0583    1.0389  -13.8724 C   0  0  0  0  0  0  0  0  0  0  0  0
    4.6638    0.1007  -14.7284 C   0  0  0  0  0  0  0  0  0  0  0  0
    5.9818    0.2442  -15.0578 C   0  0  0  0  0  0  0  0  0  0  0  0
    6.7284    1.3170  -14.5485 C   0  0  0  0  0  0  0  0  0  0  0  0
    8.1564    1.3548  -14.8642 C   0  0  0  0  0  0  0  0  0  0  0  0
    6.4203   -0.8344  -15.9613 C   0  0  0  0  0  0  0  0  0  0  0  0
    5.1229   -1.4562  -16.4457 C   0  0  0  0  0  0  0  0  0  0  0  0
    4.1226   -1.1068  -15.3965 C   0  0  0  0  0  0  0  0  0  0  0  0
    9.2149    6.5677  -11.7467 N   0  0  0  0  0  0  0  0  0  0  0  0
    9.5516    6.6476  -10.5189 C   0  0  0  0  0  0  0  0  0  0  0  0
   10.2270    7.6927  -10.0113 N   0  0  0  0  0  0  0  0  0  0  0  0
   10.5904    7.7978   -8.7272 C   0  0  0  0  0  0  0  0  0  0  0  0
   11.2827    8.8762   -8.2227 C   0  0  0  0  0  0  0  0  0  0  0  0
   11.6542    8.9790   -6.8998 C   0  0  0  0  0  0  0  0  0  0  0  0
   11.3331    7.9735   -6.0166 C   0  0  0  0  0  0  0  0  0  0  0  0
   10.6350    6.8813   -6.5153 C   0  0  0  0  0  0  0  0  0  0  0  0
   10.2643    6.7847   -7.8488 C   0  0  0  0  0  0  0  0  0  0  0  0
    9.5709    5.7051   -8.3551 C   0  0  0  0  0  0  0  0  0  0  0  0
    9.2265    5.6522   -9.6752 N   0  0  0  0  0  0  0  0  0  0  0  0
    8.6999    4.8217  -10.0371 H   0  0  0  0  0  0  0  0  0  0  0  0
   11.7084    8.0398   -4.5971 C   0  0  0  0  0  0  0  0  0  0  0  0
   11.7232    6.9157   -3.7985 C   0  0  0  0  0  0  0  0  0  0  0  0
   12.0738    6.9663   -2.4662 C   0  0  0  0  0  0  0  0  0  0  0  0
   12.4281    8.1673   -1.8781 C   0  0  0  0  0  0  0  0  0  0  0  0
   12.4157    9.2866   -2.6639 C   0  0  0  0  0  0  0  0  0  0  0  0
   12.0648    9.2381   -3.9989 C   0  0  0  0  0  0  0  0  0  0  0  0
  1  2  1  0
  2  3  1  0
  3  4  2  0
  4  5  1  0
  5  6  2  0
  5  7  1  0
  7  8  1  0
  9  7  1  0
  9 10  1  0
 10 11  2  0
 11 12  1  0
 12 26  1  0
 26 27  2  0
 27 28  1  0
 28 29  2  0
 29 30  1  0
 30 31  2  0
 31 32  1  0
 32 38  1  0
 38 39  2  0
 39 40  1  0
 40 41  2  0
 41 42  1  0
 42 43  2  0
 32 33  2  0
 33 34  1  0
 34 35  2  0
 35 36  1  0
 36 37  1  0
 12 13  2  0
 13 14  1  0
 14 15  2  0
 15 16  1  0
 16 17  2  0
 17 18  1  0
 18 19  2  0
 19 20  1  0
 20 21  2  0
 21 22  1  0
 20 23  1  0
 23 24  1  0
 24 25  1  0
  9  3  1  0
 15 10  1  0
 21 16  1  0
  9 22  1  6
 36 27  1  0
 25 19  1  0
 34 29  1  0
 43 38  1  0
M  END
>  <minimizedAffinity>  (987) 
-16.45858

$$$$
Mol: 105_38 - SminaDock
     RDKit          3D

 43 49  0  0  0  0  0  0  0  0999 V2000
    8.0958    3.6553  -13.6167 C   0  0  0  0  0  0  0  0  0  0  0  0
    6.7488    3.7013  -13.3285 C   0  0  0  0  0  0  0  0  0  0  0  0
    6.2156    4.7212  -12.5457 C   0  0  0  0  0  0  0  0  0  0  0  0
    7.0513    5.7013  -12.0512 C   0  0  0  0  0  0  0  0  0  0  0  0
    8.4185    5.6907  -12.3197 C   0  0  0  0  0  0  0  0  0  0  0  0
    8.8819    4.6606  -13.0958 C   0  0  0  0  0  0  0  0  0  0  0  0
   13.1208    1.2622  -19.1651 C   0  0  0  0  0  0  0  0  0  0  0  0
   12.9344    2.5306  -18.5998 C   0  0  0  0  0  0  0  0  0  0  0  0
   11.9945    2.7655  -17.6242 C   0  0  0  0  0  0  0  0  0  0  0  0
   11.1756    1.7739  -17.1386 C   0  0  0  0  0  0  0  0  0  0  0  0
   11.3347    0.5183  -17.6739 C   0  0  0  0  0  0  0  0  0  0  0  0
   12.2938    0.2831  -18.6679 C   0  0  0  0  0  0  0  0  0  0  0  0
   10.3578   -0.3152  -16.9892 C   0  0  0  0  0  0  0  0  0  0  0  0
   10.1849   -1.5253  -17.1917 O   0  0  0  0  0  0  0  0  0  0  0  0
    9.6108    0.4840  -16.0284 C   0  0  0  0  0  0  0  0  0  0  0  0
    8.6008    0.2581  -15.1282 C   0  0  0  0  0  0  0  0  0  0  0  0
    8.1087    1.3019  -14.3393 C   0  0  0  0  0  0  0  0  0  0  0  0
    8.6166    2.5759  -14.4393 C   0  0  0  0  0  0  0  0  0  0  0  0
    9.6298    2.7965  -15.3438 C   0  0  0  0  0  0  0  0  0  0  0  0
   10.1226    1.7586  -16.1318 C   0  0  0  0  0  0  0  0  0  0  0  0
   15.4307    2.1999  -21.3391 H   0  0  0  0  0  0  0  0  0  0  0  0
   14.9875    2.1861  -20.4324 O   0  0  0  0  0  0  0  0  0  0  0  0
   14.1287    1.0683  -20.1927 C   0  0  0  0  0  0  0  0  0  0  0  0
   14.3579    0.0776  -20.8949 N   0  0  0  0  0  0  0  0  0  0  0  0
   13.8379   -1.1925  -21.0439 C   0  0  0  0  0  0  0  0  0  0  0  0
    9.2697    6.7041  -11.8073 N   0  0  0  0  0  0  0  0  0  0  0  0
    9.5869    6.7631  -10.5787 C   0  0  0  0  0  0  0  0  0  0  0  0
    9.0759    5.7975   -9.7238 C   0  0  0  0  0  0  0  0  0  0  0  0
    9.3794    5.8062   -8.3790 C   0  0  0  0  0  0  0  0  0  0  0  0
   10.2054    6.8050   -7.9176 C   0  0  0  0  0  0  0  0  0  0  0  0
   10.5537    6.8819   -6.5887 C   0  0  0  0  0  0  0  0  0  0  0  0
   11.3800    7.8802   -6.1209 C   0  0  0  0  0  0  0  0  0  0  0  0
   11.8640    8.8184   -7.0095 C   0  0  0  0  0  0  0  0  0  0  0  0
   11.5362    8.7764   -8.3595 C   0  0  0  0  0  0  0  0  0  0  0  0
   10.7079    7.7634   -8.7882 C   0  0  0  0  0  0  0  0  0  0  0  0
   10.3960    7.7316  -10.0953 N   0  0  0  0  0  0  0  0  0  0  0  0
   10.7643    8.4403  -10.7535 H   0  0  0  0  0  0  0  0  0  0  0  0
   11.7187    7.9217   -4.7103 C   0  0  0  0  0  0  0  0  0  0  0  0
   11.6618    6.7798   -3.9423 C   0  0  0  0  0  0  0  0  0  0  0  0
   11.9835    6.8033   -2.5830 C   0  0  0  0  0  0  0  0  0  0  0  0
   12.3646    7.9933   -2.0022 C   0  0  0  0  0  0  0  0  0  0  0  0
   12.4246    9.1402   -2.7617 C   0  0  0  0  0  0  0  0  0  0  0  0
   12.1032    9.1204   -4.1232 C   0  0  0  0  0  0  0  0  0  0  0  0
 21 22  1  0
 22 23  1  0
 23 24  2  0
 24 25  1  0
 23  7  1  0
  7  8  2  0
  8  9  1  0
  9 10  2  0
 10 11  1  0
 11 12  2  0
 11 13  1  0
 13 14  2  0
 13 15  1  0
 15 16  2  0
 16 17  1  0
 17 18  2  0
 18  1  1  0
  1  2  2  0
  2  3  1  0
  3  4  2  0
  4  5  1  0
  5 26  1  0
 26 27  2  0
 27 28  1  0
 28 29  2  0
 29 30  1  0
 30 31  2  0
 31 32  1  0
 32 38  1  0
 38 39  2  0
 39 40  1  0
 40 41  2  0
 41 42  1  0
 42 43  2  0
 32 33  2  0
 33 34  1  0
 34 35  2  0
 35 36  1  0
 36 37  1  0
  5  6  2  0
 18 19  1  0
 19 20  2  0
 12  7  1  0
 20 15  1  0
 20 10  1  0
  6  1  1  0
 36 27  1  0
 35 30  1  0
 43 38  1  0
M  END
>  <minimizedAffinity>  (988) 
-16.49964

$$$$
Mol: 105_23 - SminaDock
     RDKit          3D

 39 44  0  0  0  0  0  0  0  0999 V2000
    4.0840   -2.7907  -15.2419 H   0  0  0  0  0  0  0  0  0  0  0  0
    4.4201   -1.8895  -15.5177 O   0  0  0  0  0  0  0  0  0  0  0  0
    4.2396   -0.7963  -14.6714 C   0  0  0  0  0  0  0  0  0  0  0  0
    5.1925    0.1335  -14.5846 C   0  0  0  0  0  0  0  0  0  0  0  0
    6.3337   -0.0125  -15.3368 C   0  0  0  0  0  0  0  0  0  0  0  0
    7.3161    0.9689  -15.2318 C   0  0  0  0  0  0  0  0  0  0  0  0
    7.1639    2.0570  -14.4052 C   0  0  0  0  0  0  0  0  0  0  0  0
    6.0063    2.2051  -13.6422 C   0  0  0  0  0  0  0  0  0  0  0  0
    5.0363    1.2341  -13.7472 C   0  0  0  0  0  0  0  0  0  0  0  0
    5.6187    3.2725  -12.6925 C   0  0  0  0  0  0  0  0  0  0  0  0
    5.8916    4.6536  -13.1833 C   0  0  0  0  0  0  0  0  0  0  0  0
    7.3496    4.9186  -13.1168 C   0  0  0  0  0  0  0  0  0  0  0  0
    7.6516    6.0839  -12.4184 C   0  0  0  0  0  0  0  0  0  0  0  0
    8.9663    6.4433  -12.2887 C   0  0  0  0  0  0  0  0  0  0  0  0
    9.9725    5.6767  -12.8326 C   0  0  0  0  0  0  0  0  0  0  0  0
    9.6599    4.5246  -13.5221 C   0  0  0  0  0  0  0  0  0  0  0  0
    8.3498    4.1255  -13.6765 C   0  0  0  0  0  0  0  0  0  0  0  0
    8.1905    2.8913  -14.4243 C   0  0  0  0  0  0  0  0  0  0  0  0
    3.0685   -0.6317  -13.8897 N   0  0  0  0  0  0  0  0  0  0  0  0
    3.1192   -0.4352  -12.8814 H   0  0  0  0  0  0  0  0  0  0  0  0
    2.1385   -0.7106  -14.3415 H   0  0  0  0  0  0  0  0  0  0  0  0
    9.3732    7.6245  -11.5879 N   0  0  0  0  0  0  0  0  0  0  0  0
    9.7486    7.5263  -10.3366 C   0  0  0  0  0  0  0  0  0  0  0  0
    9.7465    6.3012   -9.7193 C   0  0  0  0  0  0  0  0  0  0  0  0
   10.1386    6.2018   -8.4137 C   0  0  0  0  0  0  0  0  0  0  0  0
   10.5360    7.3068   -7.7044 C   0  0  0  0  0  0  0  0  0  0  0  0
   10.9245    7.2230   -6.4182 N   0  0  0  0  0  0  0  0  0  0  0  0
   11.3242    8.2864   -5.6805 C   0  0  0  0  0  0  0  0  0  0  0  0
   11.3184    9.4977   -6.3158 C   0  0  0  0  0  0  0  0  0  0  0  0
   10.9274    9.6418   -7.6410 C   0  0  0  0  0  0  0  0  0  0  0  0
   10.5320    8.5431   -8.3468 C   0  0  0  0  0  0  0  0  0  0  0  0
   10.1375    8.6093   -9.6435 N   0  0  0  0  0  0  0  0  0  0  0  0
   10.1512    9.5563  -10.0816 H   0  0  0  0  0  0  0  0  0  0  0  0
   11.7316    8.1359   -4.3001 C   0  0  0  0  0  0  0  0  0  0  0  0
   11.7610    6.8672   -3.7066 C   0  0  0  0  0  0  0  0  0  0  0  0
   12.1419    6.6763   -2.3958 C   0  0  0  0  0  0  0  0  0  0  0  0
   12.5124    7.7487   -1.6152 C   0  0  0  0  0  0  0  0  0  0  0  0
   12.4850    8.9972   -2.1943 C   0  0  0  0  0  0  0  0  0  0  0  0
   12.0992    9.2046   -3.5272 C   0  0  0  0  0  0  0  0  0  0  0  0
  1  2  1  0
  2  3  1  0
  3  4  2  0
  4  5  1  0
  5  6  2  0
  6  7  1  0
  7  8  1  0
  8  9  2  0
  8 10  1  0
 10 11  1  0
 11 12  1  0
 12 13  2  0
 13 14  1  0
 14 22  1  0
 22 23  2  0
 23 24  1  0
 24 25  2  0
 25 26  1  0
 26 27  2  0
 27 28  1  0
 28 34  1  0
 34 35  2  0
 35 36  1  0
 36 37  2  0
 37 38  1  0
 38 39  2  0
 28 29  2  0
 29 30  1  0
 30 31  2  0
 31 32  1  0
 32 33  1  0
 14 15  2  0
 15 16  1  0
 16 17  2  0
 17 18  1  0
  3 19  1  0
 19 20  1  0
 19 21  1  0
  9  4  1  0
 17 12  1  0
 18  7  2  0
 32 23  1  0
 31 26  1  0
 39 34  1  0
M  END
>  <minimizedAffinity>  (989) 
-16.53707

$$$$
Mol: 106_3 - SminaDock
     RDKit          3D

 36 41  0  0  0  0  0  0  0  0999 V2000
   11.1916    7.8656   -6.6343 C   0  0  0  0  0  0  0  0  0  0  0  0
   11.3622    8.9154   -7.5120 C   0  0  0  0  0  0  0  0  0  0  0  0
   10.9449    8.8644   -8.8245 C   0  0  0  0  0  0  0  0  0  0  0  0
   10.3220    7.7153   -9.3088 C   0  0  0  0  0  0  0  0  0  0  0  0
   10.1443    6.6566   -8.4424 C   0  0  0  0  0  0  0  0  0  0  0  0
   10.5758    6.7301   -7.1136 C   0  0  0  0  0  0  0  0  0  0  0  0
    9.5287    5.5169   -8.9147 C   0  0  0  0  0  0  0  0  0  0  0  0
    9.1193    5.4897  -10.2324 C   0  0  0  0  0  0  0  0  0  0  0  0
    9.3254    6.5817  -11.0502 C   0  0  0  0  0  0  0  0  0  0  0  0
    8.9208    6.5065  -12.2832 N   0  0  0  0  0  0  0  0  0  0  0  0
    9.9255    7.6952  -10.5936 N   0  0  0  0  0  0  0  0  0  0  0  0
   10.0653    8.5062  -11.2442 H   0  0  0  0  0  0  0  0  0  0  0  0
    8.2888    5.3560  -12.7924 C   0  0  0  0  0  0  0  0  0  0  0  0
    7.1215    4.9497  -12.1465 C   0  0  0  0  0  0  0  0  0  0  0  0
    6.4918    3.8251  -12.6357 C   0  0  0  0  0  0  0  0  0  0  0  0
    6.9701    3.1074  -13.7180 C   0  0  0  0  0  0  0  0  0  0  0  0
    8.1090    3.5079  -14.3442 C   0  0  0  0  0  0  0  0  0  0  0  0
    8.7616    4.6394  -13.8688 C   0  0  0  0  0  0  0  0  0  0  0  0
    8.7260    2.8373  -15.5049 C   0  0  0  0  0  0  0  0  0  0  0  0
    8.0921    1.5083  -15.8363 C   0  0  2  0  0  0  0  0  0  0  0  0
    8.7470    0.3897  -15.1247 C   0  0  0  0  0  0  0  0  0  0  0  0
    8.3504    0.0979  -13.9719 O   0  0  0  0  0  0  0  0  0  0  0  0
    9.8011   -0.3636  -15.6907 N   0  0  0  0  0  0  0  0  0  0  0  0
   10.0621   -0.2537  -17.0736 C   0  0  0  0  0  0  0  0  0  0  0  0
   10.9981   -0.9148  -17.6085 O   0  0  0  0  0  0  0  0  0  0  0  0
    9.2939    0.5882  -17.8890 N   0  0  0  0  0  0  0  0  0  0  0  0
    8.2442    1.3388  -17.3258 C   0  0  0  0  0  0  0  0  0  0  0  0
    7.4010    1.8906  -18.0547 O   0  0  0  0  0  0  0  0  0  0  0  0
    6.5972    1.5146  -15.5752 C   0  0  0  0  0  0  0  0  0  0  0  0
    6.2277    1.9035  -14.1824 C   0  0  0  0  0  0  0  0  0  0  0  0
   12.4706    7.9831   -2.5439 C   0  0  0  0  0  0  0  0  0  0  0  0
   11.7844    6.8943   -3.0477 C   0  0  0  0  0  0  0  0  0  0  0  0
   11.3811    6.8750   -4.3670 C   0  0  0  0  0  0  0  0  0  0  0  0
   11.6326    7.9148   -5.2387 C   0  0  0  0  0  0  0  0  0  0  0  0
   12.3178    8.9995   -4.7316 C   0  0  0  0  0  0  0  0  0  0  0  0
   12.7250    9.0257   -3.4106 C   0  0  0  0  0  0  0  0  0  0  0  0
 31 32  2  0
 32 33  1  0
 33 34  2  0
 34  1  1  0
  1  2  2  0
  2  3  1  0
  3  4  2  0
  4  5  1  0
  5  6  2  0
  5  7  1  0
  7  8  2  0
  8  9  1  0
  9 10  2  0
 10 13  1  0
 13 14  2  0
 14 15  1  0
 15 16  2  0
 16 17  1  0
 17 18  2  0
 17 19  1  0
 20 19  1  1
 20 21  1  0
 21 22  2  0
 21 23  1  0
 23 24  1  0
 24 25  2  0
 24 26  1  0
 26 27  1  0
 27 28  2  0
 20 29  1  0
 29 30  1  0
  9 11  1  0
 11 12  1  0
 34 35  1  0
 35 36  2  0
 36 31  1  0
  6  1  1  0
 18 13  1  0
 27 20  1  0
 11  4  1  0
 30 16  1  0
M  CHG  2  23  -1  26  -1
M  END
>  <minimizedAffinity>  (990) 
-16.48045

$$$$
Mol: 100_29 - SminaDock
     RDKit          3D

 39 45  0  0  0  0  0  0  0  0999 V2000
    8.3188    4.9417  -13.6224 N   0  0  0  0  0  0  0  0  0  0  0  0
    8.8411    5.4642  -12.5586 C   0  0  0  0  0  0  0  0  0  0  0  0
    9.7720    6.4706  -12.7025 C   0  0  0  0  0  0  0  0  0  0  0  0
   10.3763    7.0785  -11.5962 C   0  0  0  0  0  0  0  0  0  0  0  0
   10.0002    6.6272  -10.3496 C   0  0  0  0  0  0  0  0  0  0  0  0
   10.5870    7.2157   -9.2332 C   0  0  0  0  0  0  0  0  0  0  0  0
   10.2564    6.8114   -7.9552 C   0  0  0  0  0  0  0  0  0  0  0  0
    9.3262    5.8067   -7.8336 C   0  0  0  0  0  0  0  0  0  0  0  0
    8.7235    5.2005   -8.9303 C   0  0  0  0  0  0  0  0  0  0  0  0
    9.0691    5.6205  -10.2012 C   0  0  0  0  0  0  0  0  0  0  0  0
    8.5237    5.0762  -11.3122 N   0  0  0  0  0  0  0  0  0  0  0  0
    7.8115    4.3067  -11.2189 H   0  0  0  0  0  0  0  0  0  0  0  0
    2.9320   -1.0861  -13.5635 H   0  0  0  0  0  0  0  0  0  0  0  0
    3.6492   -1.0690  -14.3274 N   0  0  0  0  0  0  0  0  0  0  0  0
    4.5367   -0.1116  -14.3716 C   0  0  0  0  0  0  0  0  0  0  0  0
    5.4448   -0.1500  -15.3965 C   0  0  0  0  0  0  0  0  0  0  0  0
    5.4555   -1.1288  -16.3500 C   0  0  0  0  0  0  0  0  0  0  0  0
    6.3821   -1.1379  -17.3667 C   0  0  0  0  0  0  0  0  0  0  0  0
    7.3150   -0.1233  -17.4053 C   0  0  0  0  0  0  0  0  0  0  0  0
    7.3321    0.8792  -16.4591 C   0  0  0  0  0  0  0  0  0  0  0  0
    6.4025    0.8713  -15.4556 C   0  0  0  0  0  0  0  0  0  0  0  0
    6.3951    1.8711  -14.4853 C   0  0  0  0  0  0  0  0  0  0  0  0
    7.3296    2.8806  -14.5304 C   0  0  0  0  0  0  0  0  0  0  0  0
    7.3560    3.9047  -13.5732 C   0  0  0  0  0  0  0  0  0  0  0  0
    6.3962    3.8436  -12.5879 C   0  0  0  0  0  0  0  0  0  0  0  0
    5.4593    2.8352  -12.5391 C   0  0  0  0  0  0  0  0  0  0  0  0
    5.4381    1.8227  -13.4907 C   0  0  0  0  0  0  0  0  0  0  0  0
    4.5148    0.8400  -13.4319 N   0  0  0  0  0  0  0  0  0  0  0  0
    3.8333    0.8834  -12.6489 H   0  0  0  0  0  0  0  0  0  0  0  0
   10.8946    7.4541   -6.8133 C   0  0  0  0  0  0  0  0  0  0  0  0
   11.4536    8.7126   -6.8962 C   0  0  0  0  0  0  0  0  0  0  0  0
   12.0581    9.3453   -5.8521 C   0  0  0  0  0  0  0  0  0  0  0  0
   12.1285    8.7053   -4.6208 C   0  0  0  0  0  0  0  0  0  0  0  0
   12.7374    9.3099   -3.5193 C   0  0  0  0  0  0  0  0  0  0  0  0
   12.7967    8.6589   -2.3081 C   0  0  0  0  0  0  0  0  0  0  0  0
   12.2622    7.4045   -2.1503 C   0  0  0  0  0  0  0  0  0  0  0  0
   11.6596    6.8116   -3.2486 C   0  0  0  0  0  0  0  0  0  0  0  0
   11.5833    7.4408   -4.4826 C   0  0  0  0  0  0  0  0  0  0  0  0
   10.9778    6.8342   -5.5705 C   0  0  0  0  0  0  0  0  0  0  0  0
 13 14  1  0
 14 15  2  0
 15 16  1  0
 16 17  2  0
 17 18  1  0
 18 19  2  0
 19 20  1  0
 20 21  2  0
 21 22  1  0
 22 23  2  0
 23 24  1  0
 24  1  1  0
  1  2  2  0
  2  3  1  0
  3  4  2  0
  4  5  1  0
  5  6  2  0
  6  7  1  0
  7 30  1  0
 30 31  2  0
 31 32  1  0
 32 33  2  0
 33 34  1  0
 34 35  2  0
 35 36  1  0
 36 37  2  0
 37 38  1  0
 38 39  2  0
  7  8  2  0
  8  9  1  0
  9 10  2  0
 10 11  1  0
 11 12  1  0
 24 25  2  0
 25 26  1  0
 26 27  2  0
 27 28  1  0
 28 29  1  0
 28 15  1  0
 21 16  1  0
 27 22  1  0
 11  2  1  0
 10  5  1  0
 39 30  1  0
 38 33  1  0
M  END
>  <minimizedAffinity>  (991) 
-16.49174

$$$$
Mol: 172_52 - SminaDock
     RDKit          3D

 39 45  0  0  0  0  0  0  0  0999 V2000
    8.7623    0.0062  -17.3093 H   0  0  0  0  0  0  0  0  0  0  0  0
    8.1830   -0.3192  -16.5597 O   0  0  0  0  0  0  0  0  0  0  0  0
    6.8485    0.0428  -16.7467 C   0  0  2  0  0  0  0  0  0  0  0  0
    6.2678    0.7070  -15.5721 C   0  0  0  0  0  0  0  0  0  0  0  0
    7.0127    1.7898  -15.0625 C   0  0  0  0  0  0  0  0  0  0  0  0
    6.5617    2.4942  -13.9597 C   0  0  0  0  0  0  0  0  0  0  0  0
    5.3678    2.1121  -13.3730 C   0  0  0  0  0  0  0  0  0  0  0  0
    4.6176    1.0517  -13.8552 C   0  0  0  0  0  0  0  0  0  0  0  0
    5.0927    0.3534  -14.9708 C   0  0  0  0  0  0  0  0  0  0  0  0
    4.3101   -0.7853  -15.4985 C   0  0  0  0  0  0  0  0  0  0  0  0
    4.6453   -1.0140  -16.8660 N   0  0  0  0  0  0  0  0  0  0  0  0
    4.3035   -0.2848  -17.5246 H   0  0  0  0  0  0  0  0  0  0  0  0
    6.0729   -1.2025  -17.0603 C   0  0  0  0  0  0  0  0  0  0  0  0
    4.8771    2.8675  -12.1876 C   0  0  0  0  0  0  0  0  0  0  0  0
    5.6965    3.9019  -11.7782 O   0  0  0  0  0  0  0  0  0  0  0  0
    6.8746    4.2851  -12.3503 C   0  0  0  0  0  0  0  0  0  0  0  0
    7.5972    5.3434  -11.8424 C   0  0  0  0  0  0  0  0  0  0  0  0
    8.8036    5.7293  -12.4345 C   0  0  0  0  0  0  0  0  0  0  0  0
    9.2961    5.0601  -13.5386 C   0  0  0  0  0  0  0  0  0  0  0  0
    8.5627    4.0038  -14.0359 C   0  0  0  0  0  0  0  0  0  0  0  0
    7.3691    3.6042  -13.4686 C   0  0  0  0  0  0  0  0  0  0  0  0
    9.4955    6.8250  -11.8583 N   0  0  0  0  0  0  0  0  0  0  0  0
    9.7982    6.8722  -10.6055 C   0  0  0  0  0  0  0  0  0  0  0  0
   10.4650    7.9461  -10.0897 N   0  0  0  0  0  0  0  0  0  0  0  0
   10.7699    7.9800   -8.7800 C   0  0  0  0  0  0  0  0  0  0  0  0
   11.4471    9.0590   -8.2226 C   0  0  0  0  0  0  0  0  0  0  0  0
   11.7414    9.0560   -6.8675 C   0  0  0  0  0  0  0  0  0  0  0  0
   11.3880    8.0146   -6.0307 C   0  0  0  0  0  0  0  0  0  0  0  0
   10.7186    6.9472   -6.5805 C   0  0  0  0  0  0  0  0  0  0  0  0
   10.4218    6.9433   -7.9311 C   0  0  0  0  0  0  0  0  0  0  0  0
    9.7485    5.8809   -8.5040 C   0  0  0  0  0  0  0  0  0  0  0  0
    9.4445    5.8479   -9.8118 N   0  0  0  0  0  0  0  0  0  0  0  0
    8.9376    5.0455  -10.2410 H   0  0  0  0  0  0  0  0  0  0  0  0
   11.7089    8.0339   -4.6003 C   0  0  0  0  0  0  0  0  0  0  0  0
   12.0882    9.1983   -3.9651 C   0  0  0  0  0  0  0  0  0  0  0  0
   12.3896    9.2045   -2.6125 C   0  0  0  0  0  0  0  0  0  0  0  0
   12.3245    8.0593   -1.8476 C   0  0  0  0  0  0  0  0  0  0  0  0
   11.9440    6.8956   -2.4883 C   0  0  0  0  0  0  0  0  0  0  0  0
   11.6419    6.8805   -3.8369 C   0  0  0  0  0  0  0  0  0  0  0  0
  1  2  1  0
  3  2  1  1
  3  4  1  0
  4  5  2  0
  5  6  1  0
  6  7  2  0
  7  8  1  0
  8  9  2  0
  9 10  1  0
 10 11  1  0
 11 12  1  0
 11 13  1  0
  7 14  1  0
 14 15  1  0
 15 16  1  0
 16 17  2  0
 17 18  1  0
 18 22  1  0
 22 23  2  0
 23 24  1  0
 24 25  2  0
 25 26  1  0
 26 27  2  0
 27 28  1  0
 28 34  1  0
 34 35  2  0
 35 36  1  0
 36 37  2  0
 37 38  1  0
 38 39  2  0
 28 29  2  0
 29 30  1  0
 30 31  2  0
 31 32  1  0
 32 33  1  0
 18 19  2  0
 19 20  1  0
 20 21  2  0
 13  3  1  0
 21 16  1  0
  9  4  1  0
 32 23  1  0
 21  6  1  0
 30 25  1  0
 39 34  1  0
M  END
>  <minimizedAffinity>  (992) 
-16.47030

$$$$
Mol: 172_61 - SminaDock
     RDKit          3D

 40 46  0  0  0  0  0  0  0  0999 V2000
    8.6019    0.3430  -17.1721 C   0  0  0  0  0  0  0  0  0  0  0  0
    7.3399    0.2055  -16.4703 N   0  0  0  0  0  0  0  0  0  0  0  0
    6.5112   -0.8009  -16.8043 C   0  0  0  0  0  0  0  0  0  0  0  0
    6.8439   -1.6060  -17.7192 O   0  0  0  0  0  0  0  0  0  0  0  0
    5.2854   -0.9864  -16.1675 C   0  0  0  0  0  0  0  0  0  0  0  0
    4.5479   -1.9407  -16.5157 O   0  0  0  0  0  0  0  0  0  0  0  0
    4.9628   -0.0863  -15.1767 C   0  0  0  0  0  0  0  0  0  0  0  0
    3.8655   -0.2221  -14.5805 O   0  0  0  0  0  0  0  0  0  0  0  0
    5.7901    0.9538  -14.8127 C   0  0  0  0  0  0  0  0  0  0  0  0
    5.4190    1.8279  -13.8126 C   0  0  0  0  0  0  0  0  0  0  0  0
    6.2732    2.8652  -13.4682 C   0  0  0  0  0  0  0  0  0  0  0  0
    6.1938    3.8826  -12.5332 C   0  0  0  0  0  0  0  0  0  0  0  0
    5.2538    4.1123  -11.7220 O   0  0  0  0  0  0  0  0  0  0  0  0
    7.3564    4.6268  -12.6437 C   0  0  0  0  0  0  0  0  0  0  0  0
    7.8123    5.7575  -11.9586 C   0  0  0  0  0  0  0  0  0  0  0  0
    9.0479    6.2801  -12.3090 C   0  0  0  0  0  0  0  0  0  0  0  0
    9.8073    5.6994  -13.3073 C   0  0  0  0  0  0  0  0  0  0  0  0
    9.3522    4.5867  -13.9772 C   0  0  0  0  0  0  0  0  0  0  0  0
    8.1159    4.0492  -13.6393 C   0  0  0  0  0  0  0  0  0  0  0  0
    7.4590    2.9487  -14.1673 C   0  0  0  0  0  0  0  0  0  0  0  0
    7.7964    2.0755  -15.1446 N   0  0  0  0  0  0  0  0  0  0  0  0
    6.9900    1.0596  -15.5016 C   0  0  0  0  0  0  0  0  0  0  0  0
    9.5453    7.4293  -11.6351 N   0  0  0  0  0  0  0  0  0  0  0  0
    9.8749    7.3848  -10.4024 C   0  0  0  0  0  0  0  0  0  0  0  0
    9.7482    6.2287   -9.7332 N   0  0  0  0  0  0  0  0  0  0  0  0
   10.0782    6.1167   -8.4341 C   0  0  0  0  0  0  0  0  0  0  0  0
   10.5638    7.1923   -7.7305 C   0  0  0  0  0  0  0  0  0  0  0  0
   10.9195    7.1425   -6.3989 C   0  0  0  0  0  0  0  0  0  0  0  0
   11.4033    8.2262   -5.7100 C   0  0  0  0  0  0  0  0  0  0  0  0
   11.5306    9.4180   -6.4123 C   0  0  0  0  0  0  0  0  0  0  0  0
   11.1796    9.4846   -7.7430 C   0  0  0  0  0  0  0  0  0  0  0  0
   10.6925    8.3838   -8.4274 C   0  0  0  0  0  0  0  0  0  0  0  0
   10.3452    8.4477   -9.7422 N   0  0  0  0  0  0  0  0  0  0  0  0
    9.3819    5.3713  -10.2192 H   0  0  0  0  0  0  0  0  0  0  0  0
   11.7666    8.1241   -4.2999 C   0  0  0  0  0  0  0  0  0  0  0  0
   11.7897    6.8982   -3.6664 C   0  0  0  0  0  0  0  0  0  0  0  0
   12.1298    6.7779   -2.3350 C   0  0  0  0  0  0  0  0  0  0  0  0
   12.4585    7.8991   -1.5998 C   0  0  0  0  0  0  0  0  0  0  0  0
   12.4422    9.1348   -2.2120 C   0  0  0  0  0  0  0  0  0  0  0  0
   12.1022    9.2299   -3.5321 C   0  0  0  0  0  0  0  0  0  0  0  0
  1  2  1  0
  2  3  1  0
  3  4  2  0
  3  5  1  0
  5  6  2  0
  5  7  1  0
  7  8  2  0
  7  9  1  0
  9 10  2  0
 10 11  1  0
 11 12  1  0
 12 13  2  0
 12 14  1  0
 14 15  2  0
 15 16  1  0
 16 23  1  0
 23 24  2  0
 24 25  1  0
 25 26  1  0
 26 27  2  0
 27 28  1  0
 28 29  2  0
 29 35  1  0
 35 36  2  0
 36 37  1  0
 37 38  2  0
 38 39  1  0
 39 40  2  0
 29 30  1  0
 30 31  2  0
 31 32  1  0
 32 33  2  0
 16 17  2  0
 17 18  1  0
 18 19  2  0
 19 20  1  0
 20 21  1  0
 21 22  2  0
 22  2  1  0
 22  9  1  0
 20 11  2  0
 19 14  1  0
 33 24  1  0
 32 27  1  0
 40 35  1  0
 25 34  1  0
M  END
>  <minimizedAffinity>  (993) 
-16.51413

$$$$
Mol: 143_0 - SminaDock
     RDKit          3D

 38 44  0  0  0  0  0  0  0  0999 V2000
    8.5209    5.6251  -12.2757 C   0  0  0  0  0  0  0  0  0  0  0  0
    7.2772    5.3277  -11.7659 C   0  0  0  0  0  0  0  0  0  0  0  0
    6.5611    4.2382  -12.2739 C   0  0  0  0  0  0  0  0  0  0  0  0
    7.1165    3.4910  -13.2698 C   0  0  0  0  0  0  0  0  0  0  0  0
    8.3689    3.7806  -13.7973 C   0  0  0  0  0  0  0  0  0  0  0  0
    9.0666    4.8452  -13.2967 C   0  0  0  0  0  0  0  0  0  0  0  0
    8.8954    3.0184  -14.9597 C   0  0  0  0  0  0  0  0  0  0  0  0
    8.4945    1.6129  -14.7701 C   0  0  0  0  0  0  0  0  0  0  0  0
    7.0576    1.4337  -14.6441 C   0  0  0  0  0  0  0  0  0  0  0  0
    6.3320    0.3921  -15.2379 C   0  0  0  0  0  0  0  0  0  0  0  0
    5.0036    0.1881  -14.9030 C   0  0  0  0  0  0  0  0  0  0  0  0
    4.3995    1.0310  -13.9737 C   0  0  0  0  0  0  0  0  0  0  0  0
    5.0885    2.0628  -13.3822 C   0  0  0  0  0  0  0  0  0  0  0  0
    6.4152    2.2635  -13.7218 C   0  0  0  0  0  0  0  0  0  0  0  0
    4.2392   -0.9174  -15.5115 C   0  0  0  0  0  0  0  0  0  0  0  0
    4.7549   -1.4173  -16.8079 C   0  0  0  0  0  0  0  0  0  0  0  0
    6.1978   -1.4603  -16.8499 N   0  0  0  0  0  0  0  0  0  0  0  0
    6.7067   -2.2277  -17.3217 H   0  0  0  0  0  0  0  0  0  0  0  0
    6.9831   -0.4367  -16.2376 C   0  0  0  0  0  0  0  0  0  0  0  0
    8.1711   -0.2537  -16.5420 O   0  0  0  0  0  0  0  0  0  0  0  0
   11.3066    7.9892   -5.9746 C   0  0  0  0  0  0  0  0  0  0  0  0
   11.5916    9.0237   -6.8541 C   0  0  0  0  0  0  0  0  0  0  0  0
   11.2215    8.9522   -8.1615 C   0  0  0  0  0  0  0  0  0  0  0  0
   10.5522    7.8670   -8.6834 C   0  0  0  0  0  0  0  0  0  0  0  0
   10.1882    7.8043   -9.9798 N   0  0  0  0  0  0  0  0  0  0  0  0
    9.5294    6.7303  -10.4789 C   0  0  0  0  0  0  0  0  0  0  0  0
    9.2116    6.7388  -11.7288 N   0  0  0  0  0  0  0  0  0  0  0  0
    9.2513    5.7312   -9.6404 N   0  0  0  0  0  0  0  0  0  0  0  0
    8.7430    4.8909  -10.0035 H   0  0  0  0  0  0  0  0  0  0  0  0
    9.5931    5.7433   -8.3336 C   0  0  0  0  0  0  0  0  0  0  0  0
   10.2618    6.8270   -7.8143 C   0  0  0  0  0  0  0  0  0  0  0  0
   10.6376    6.8921   -6.4728 C   0  0  0  0  0  0  0  0  0  0  0  0
   12.4392    8.0948   -1.8978 C   0  0  0  0  0  0  0  0  0  0  0  0
   12.4117    9.2585   -2.6245 C   0  0  0  0  0  0  0  0  0  0  0  0
   12.0456    9.2424   -3.9518 C   0  0  0  0  0  0  0  0  0  0  0  0
   11.6997    8.0618   -4.5783 C   0  0  0  0  0  0  0  0  0  0  0  0
   11.7267    6.8733   -3.8406 C   0  0  0  0  0  0  0  0  0  0  0  0
   12.0988    6.9165   -2.5054 C   0  0  0  0  0  0  0  0  0  0  0  0
 33 34  2  0
 34 35  1  0
 35 36  2  0
 36 21  1  0
 21 22  1  0
 22 23  2  0
 23 24  1  0
 24 25  2  0
 25 26  1  0
 26 27  2  0
 27  1  1  0
  1  2  2  0
  2  3  1  0
  3  4  2  0
  4  5  1  0
  5  6  2  0
  5  7  1  0
  7  8  1  0
  8  9  1  0
  9 10  2  0
 10 11  1  0
 11 12  2  0
 12 13  1  0
 13 14  2  0
 11 15  1  0
 15 16  1  0
 16 17  1  0
 17 18  1  0
 17 19  1  0
 19 20  2  0
 26 28  1  0
 28 29  1  0
 28 30  1  0
 30 31  2  0
 31 32  1  0
 36 37  1  0
 37 38  2  0
 38 33  1  0
 32 21  2  0
 31 24  1  0
  6  1  1  0
 14  9  1  0
 14  4  1  0
 19 10  1  0
M  END
>  <minimizedAffinity>  (994) 
-16.48934

$$$$
Mol: 143_22 - SminaDock
     RDKit          3D

 38 44  0  0  0  0  0  0  0  0999 V2000
   10.1303    0.8127  -13.7113 H   0  0  0  0  0  0  0  0  0  0  0  0
    9.9234    0.0296  -14.3089 O   0  0  0  0  0  0  0  0  0  0  0  0
    9.6957    0.5424  -15.5635 C   0  0  1  0  0  0  0  0  0  0  0  0
    8.2653    0.2310  -16.0514 C   0  0  0  0  0  0  0  0  0  0  0  0
    7.4884    1.1661  -15.1937 C   0  0  0  0  0  0  0  0  0  0  0  0
    6.2036    1.0240  -14.7448 C   0  0  0  0  0  0  0  0  0  0  0  0
    5.6595    1.9426  -13.8897 C   0  0  0  0  0  0  0  0  0  0  0  0
    6.4490    3.0001  -13.5051 C   0  0  0  0  0  0  0  0  0  0  0  0
    5.9301    3.9527  -12.6180 C   0  0  0  0  0  0  0  0  0  0  0  0
    6.6593    5.0275  -12.1782 C   0  0  0  0  0  0  0  0  0  0  0  0
    7.9595    5.1992  -12.6127 C   0  0  0  0  0  0  0  0  0  0  0  0
    8.4852    4.2717  -13.4855 C   0  0  0  0  0  0  0  0  0  0  0  0
    7.7588    3.2005  -13.9260 C   0  0  0  0  0  0  0  0  0  0  0  0
    8.2963    2.2428  -14.8094 C   0  0  0  0  0  0  0  0  0  0  0  0
    9.5348    2.0823  -15.5313 C   0  0  1  0  0  0  0  0  0  0  0  0
   10.7728    2.7655  -15.2159 C   0  0  0  0  0  0  0  0  0  0  0  0
   11.7354    2.5481  -16.4294 C   0  0  0  0  0  0  0  0  0  0  0  0
   11.3547    3.3706  -17.4646 O   0  0  0  0  0  0  0  0  0  0  0  0
    9.9963    3.6284  -17.4734 C   0  0  0  0  0  0  0  0  0  0  0  0
    9.2407    2.3967  -17.0172 C   0  0  0  0  0  0  0  0  0  0  0  0
    8.7144    6.3134  -12.1555 N   0  0  0  0  0  0  0  0  0  0  0  0
    9.1200    6.3820  -10.9135 C   0  0  0  0  0  0  0  0  0  0  0  0
    8.8360    5.4044  -10.0356 N   0  0  0  0  0  0  0  0  0  0  0  0
    9.2558    5.4763   -8.7517 C   0  0  0  0  0  0  0  0  0  0  0  0
    9.9879    6.5556   -8.3064 C   0  0  0  0  0  0  0  0  0  0  0  0
   10.4383    6.6640   -6.9872 C   0  0  0  0  0  0  0  0  0  0  0  0
   11.1685    7.7555   -6.5708 C   0  0  0  0  0  0  0  0  0  0  0  0
   11.4549    8.7530   -7.4775 C   0  0  0  0  0  0  0  0  0  0  0  0
   11.0111    8.6512   -8.7871 C   0  0  0  0  0  0  0  0  0  0  0  0
   10.2799    7.5584   -9.2042 C   0  0  0  0  0  0  0  0  0  0  0  0
    9.8337    7.4293  -10.4698 N   0  0  0  0  0  0  0  0  0  0  0  0
   10.0576    8.1899  -11.1429 H   0  0  0  0  0  0  0  0  0  0  0  0
   11.6290    7.8519   -5.1945 C   0  0  0  0  0  0  0  0  0  0  0  0
   12.2983    8.9872   -4.7492 C   0  0  0  0  0  0  0  0  0  0  0  0
   12.7335    9.0762   -3.4455 C   0  0  0  0  0  0  0  0  0  0  0  0
   12.5328    8.0654   -2.5316 C   0  0  0  0  0  0  0  0  0  0  0  0
   11.8703    6.9360   -2.9637 C   0  0  0  0  0  0  0  0  0  0  0  0
   11.4338    6.8465   -4.2710 C   0  0  0  0  0  0  0  0  0  0  0  0
  1  2  1  0
  3  2  1  1
  3  4  1  0
  4  5  1  0
  5  6  2  0
  6  7  1  0
  7  8  2  0
  8  9  1  0
  9 10  2  0
 10 11  1  0
 11 21  1  0
 21 22  2  0
 22 23  1  0
 23 24  2  0
 24 25  1  0
 25 26  2  0
 26 27  1  0
 27 33  1  0
 33 34  2  0
 34 35  1  0
 35 36  2  0
 36 37  1  0
 37 38  2  0
 27 28  2  0
 28 29  1  0
 29 30  2  0
 30 31  1  0
 31 32  1  0
 11 12  2  0
 12 13  1  0
 13 14  2  0
 14 15  1  0
 15 16  1  1
 16 17  1  0
 17 18  1  0
 18 19  1  0
 19 20  1  0
 15  3  1  0
 14  5  1  0
 20 15  1  0
 13  8  1  0
 31 22  1  0
 30 25  1  0
 38 33  1  0
M  END
>  <minimizedAffinity>  (995) 
-16.45523

$$$$
Mol: 144_63 - SminaDock
     RDKit          3D

 38 44  0  0  0  0  0  0  0  0999 V2000
    8.7806    5.8371  -12.5329 C   0  0  0  0  0  0  0  0  0  0  0  0
    9.3600    5.1528  -13.5950 C   0  0  0  0  0  0  0  0  0  0  0  0
    8.7177    4.0586  -14.1117 C   0  0  0  0  0  0  0  0  0  0  0  0
    7.5272    3.6425  -13.5958 C   0  0  0  0  0  0  0  0  0  0  0  0
    6.9467    4.3050  -12.5518 C   0  0  0  0  0  0  0  0  0  0  0  0
    7.5860    5.4263  -12.0085 C   0  0  0  0  0  0  0  0  0  0  0  0
    5.6724    3.9432  -11.8888 C   0  0  0  0  0  0  0  0  0  0  0  0
    4.9678    2.8323  -12.5475 C   0  0  0  0  0  0  0  0  0  0  0  0
    5.6425    2.1199  -13.6381 C   0  0  0  0  0  0  0  0  0  0  0  0
    4.9573    1.0018  -14.1451 C   0  0  0  0  0  0  0  0  0  0  0  0
    5.5076    0.2951  -15.1730 C   0  0  0  0  0  0  0  0  0  0  0  0
    4.8845   -0.8120  -15.7153 C   0  0  0  0  0  0  0  0  0  0  0  0
    5.4992   -1.4867  -16.7609 C   0  0  0  0  0  0  0  0  0  0  0  0
    6.7190   -1.0594  -17.2558 C   0  0  0  0  0  0  0  0  0  0  0  0
    7.2944   -1.6610  -18.2077 O   0  0  0  0  0  0  0  0  0  0  0  0
    7.3600    0.0146  -16.7560 N   0  0  0  0  0  0  0  0  0  0  0  0
    6.7803    0.6991  -15.7268 C   0  0  0  0  0  0  0  0  0  0  0  0
    7.3931    1.7840  -15.1966 N   0  0  0  0  0  0  0  0  0  0  0  0
    8.3190    2.0449  -15.6288 H   0  0  0  0  0  0  0  0  0  0  0  0
    6.8447    2.4739  -14.1847 C   0  0  0  0  0  0  0  0  0  0  0  0
   11.2870    7.9641   -6.0560 C   0  0  0  0  0  0  0  0  0  0  0  0
   11.5548    9.0794   -6.8410 C   0  0  0  0  0  0  0  0  0  0  0  0
   11.2263    9.0946   -8.1803 C   0  0  0  0  0  0  0  0  0  0  0  0
   10.6223    8.0146   -8.7986 C   0  0  0  0  0  0  0  0  0  0  0  0
   10.3555    6.9067   -8.0220 C   0  0  0  0  0  0  0  0  0  0  0  0
    9.7528    5.8380   -8.6528 C   0  0  0  0  0  0  0  0  0  0  0  0
    9.4376    5.8710   -9.9677 N   0  0  0  0  0  0  0  0  0  0  0  0
    9.7007    6.9542  -10.7178 C   0  0  0  0  0  0  0  0  0  0  0  0
    9.4010    6.9796  -11.9560 N   0  0  0  0  0  0  0  0  0  0  0  0
   10.2942    8.0028  -10.0899 N   0  0  0  0  0  0  0  0  0  0  0  0
   10.5116    8.8597  -10.6462 H   0  0  0  0  0  0  0  0  0  0  0  0
   10.6860    6.8944   -6.6796 C   0  0  0  0  0  0  0  0  0  0  0  0
   12.3283    7.9669   -1.9031 C   0  0  0  0  0  0  0  0  0  0  0  0
   11.9626    6.8003   -2.5511 C   0  0  0  0  0  0  0  0  0  0  0  0
   11.6306    6.8192   -3.8897 C   0  0  0  0  0  0  0  0  0  0  0  0
   11.6436    7.9737   -4.6420 C   0  0  0  0  0  0  0  0  0  0  0  0
   12.0138    9.1400   -3.9763 C   0  0  0  0  0  0  0  0  0  0  0  0
   12.3472    9.1278   -2.6363 C   0  0  0  0  0  0  0  0  0  0  0  0
 33 34  2  0
 34 35  1  0
 35 36  2  0
 36 21  1  0
 21 22  2  0
 22 23  1  0
 23 24  2  0
 24 25  1  0
 25 26  1  0
 26 27  2  0
 27 28  1  0
 28 29  2  0
 29  1  1  0
  1  2  2  0
  2  3  1  0
  3  4  2  0
  4  5  1  0
  5  6  2  0
  5  7  1  0
  7  8  1  0
  8  9  1  0
  9 10  1  0
 10 11  2  0
 11 12  1  0
 12 13  2  0
 13 14  1  0
 14 15  2  0
 14 16  1  0
 16 17  2  0
 17 18  1  0
 18 19  1  0
 18 20  1  0
 28 30  1  0
 30 31  1  0
 25 32  2  0
 36 37  1  0
 37 38  2  0
 38 33  1  0
 32 21  1  0
 30 24  1  0
  6  1  1  0
 20  9  2  0
 20  4  1  0
 17 11  1  0
M  END
>  <minimizedAffinity>  (996) 
-16.45259

$$$$
Mol: 153_46 - SminaDock
     RDKit          3D

 37 43  0  0  0  0  0  0  0  0999 V2000
    8.7825    5.9462  -12.4029 C   0  0  0  0  0  0  0  0  0  0  0  0
    9.4446    5.2243  -13.3603 C   0  0  0  0  0  0  0  0  0  0  0  0
    8.9032    4.0903  -13.9825 C   0  0  0  0  0  0  0  0  0  0  0  0
    7.6484    3.6973  -13.6032 C   0  0  0  0  0  0  0  0  0  0  0  0
    6.9524    4.3983  -12.6439 C   0  0  0  0  0  0  0  0  0  0  0  0
    7.5262    5.5307  -12.0410 C   0  0  0  0  0  0  0  0  0  0  0  0
    5.6081    4.0715  -12.1595 C   0  0  0  0  0  0  0  0  0  0  0  0
    4.9596    2.8929  -12.7654 C   0  0  0  0  0  0  0  0  0  0  0  0
    5.7506    2.1902  -13.7762 C   0  0  0  0  0  0  0  0  0  0  0  0
    5.1280    1.0703  -14.3417 C   0  0  0  0  0  0  0  0  0  0  0  0
    5.7404    0.3021  -15.3077 C   0  0  0  0  0  0  0  0  0  0  0  0
    6.9998    0.6828  -15.6983 C   0  0  0  0  0  0  0  0  0  0  0  0
    7.6717    1.7782  -15.1801 C   0  0  0  0  0  0  0  0  0  0  0  0
    7.0172    2.5266  -14.2068 C   0  0  0  0  0  0  0  0  0  0  0  0
    5.0824   -0.8437  -15.8750 N   0  0  0  0  0  0  0  0  0  0  0  0
    5.6514   -1.5010  -16.4211 H   0  0  0  0  0  0  0  0  0  0  0  0
    3.6607   -0.9914  -15.6363 C   0  0  0  0  0  0  0  0  0  0  0  0
    3.4164   -0.6869  -14.1741 C   0  0  0  0  0  0  0  0  0  0  0  0
    3.8485    0.6656  -13.9595 O   0  0  0  0  0  0  0  0  0  0  0  0
   11.3169    8.0574   -5.9385 C   0  0  0  0  0  0  0  0  0  0  0  0
   11.5570    9.1816   -6.7327 C   0  0  0  0  0  0  0  0  0  0  0  0
   11.2114    9.1913   -8.0670 C   0  0  0  0  0  0  0  0  0  0  0  0
   10.6180    8.1106   -8.6882 C   0  0  0  0  0  0  0  0  0  0  0  0
   10.2813    8.1125   -9.9768 N   0  0  0  0  0  0  0  0  0  0  0  0
    9.6989    7.0327  -10.5573 C   0  0  0  0  0  0  0  0  0  0  0  0
    9.3976    7.0981  -11.8072 N   0  0  0  0  0  0  0  0  0  0  0  0
    9.4483    5.9320   -9.8385 N   0  0  0  0  0  0  0  0  0  0  0  0
    8.9970    5.1194  -10.3253 H   0  0  0  0  0  0  0  0  0  0  0  0
    9.7832    5.9220   -8.5442 C   0  0  0  0  0  0  0  0  0  0  0  0
   10.3771    6.9965   -7.9118 C   0  0  0  0  0  0  0  0  0  0  0  0
   10.7232    6.9876   -6.5771 C   0  0  0  0  0  0  0  0  0  0  0  0
   12.3630    7.9713   -1.8453 C   0  0  0  0  0  0  0  0  0  0  0  0
   12.3042    9.1793   -2.5010 C   0  0  0  0  0  0  0  0  0  0  0  0
   11.9565    9.1944   -3.8559 C   0  0  0  0  0  0  0  0  0  0  0  0
   11.6760    8.0375   -4.5360 C   0  0  0  0  0  0  0  0  0  0  0  0
   11.7389    6.8377   -3.8672 C   0  0  0  0  0  0  0  0  0  0  0  0
   12.0853    6.7955   -2.5074 C   0  0  0  0  0  0  0  0  0  0  0  0
 32 33  2  0
 33 34  1  0
 34 35  2  0
 35 20  1  0
 20 21  1  0
 21 22  2  0
 22 23  1  0
 23 24  2  0
 24 25  1  0
 25 26  2  0
 26  1  1  0
  1  2  2  0
  2  3  1  0
  3  4  2  0
  4  5  1  0
  5  6  2  0
  5  7  1  0
  7  8  1  0
  8  9  1  0
  9 10  2  0
 10 11  1  0
 11 12  2  0
 12 13  1  0
 13 14  2  0
 11 15  1  0
 15 16  1  0
 15 17  1  0
 17 18  1  0
 18 19  1  0
 25 27  1  0
 27 28  1  0
 27 29  1  0
 29 30  2  0
 30 31  1  0
 35 36  1  0
 36 37  2  0
 37 32  1  0
 31 20  2  0
 30 23  1  0
  6  1  1  0
 14  9  1  0
 14  4  1  0
 19 10  1  0
M  END
>  <minimizedAffinity>  (997) 
-16.45819

$$$$
Mol: 153_30 - SminaDock
     RDKit          3D

 37 43  0  0  0  0  0  0  0  0999 V2000
    8.8269    6.0173  -12.3214 C   0  0  0  0  0  0  0  0  0  0  0  0
    9.5341    5.4394  -13.3375 C   0  0  0  0  0  0  0  0  0  0  0  0
    9.0666    4.3134  -13.9945 C   0  0  0  0  0  0  0  0  0  0  0  0
    7.8470    3.7380  -13.6271 C   0  0  0  0  0  0  0  0  0  0  0  0
    7.1445    4.3268  -12.6025 C   0  0  0  0  0  0  0  0  0  0  0  0
    7.6419    5.4788  -11.9453 C   0  0  0  0  0  0  0  0  0  0  0  0
    5.8664    3.7698  -12.1138 C   0  0  0  0  0  0  0  0  0  0  0  0
    5.2654    2.7025  -12.9125 C   0  0  0  0  0  0  0  0  0  0  0  0
    6.1144    2.0961  -13.9550 C   0  0  0  0  0  0  0  0  0  0  0  0
    5.6440    0.9594  -14.6296 C   0  0  0  0  0  0  0  0  0  0  0  0
    6.3814    0.3679  -15.6300 C   0  0  0  0  0  0  0  0  0  0  0  0
    7.6010    0.8587  -16.0107 C   0  0  0  0  0  0  0  0  0  0  0  0
    8.0845    1.9936  -15.3456 C   0  0  0  0  0  0  0  0  0  0  0  0
    7.3376    2.5709  -14.3505 C   0  0  0  0  0  0  0  0  0  0  0  0
    8.4361    0.2774  -17.0688 C   0  0  0  0  0  0  0  0  0  0  0  0
    7.6601   -0.6250  -17.9991 C   0  0  0  0  0  0  0  0  0  0  0  0
    6.6670   -1.3610  -17.3186 O   0  0  0  0  0  0  0  0  0  0  0  0
    5.8839   -0.8174  -16.3292 C   0  0  0  0  0  0  0  0  0  0  0  0
    4.7632   -1.3346  -16.0369 O   0  0  0  0  0  0  0  0  0  0  0  0
   11.2973    8.0938   -5.7802 C   0  0  0  0  0  0  0  0  0  0  0  0
   11.3722    9.2758   -6.5096 C   0  0  0  0  0  0  0  0  0  0  0  0
   10.9922    9.3442   -7.8409 C   0  0  0  0  0  0  0  0  0  0  0  0
   10.5220    8.2125   -8.4793 C   0  0  0  0  0  0  0  0  0  0  0  0
   10.4339    7.0232   -7.7886 C   0  0  0  0  0  0  0  0  0  0  0  0
    9.9554    5.8827   -8.4448 C   0  0  0  0  0  0  0  0  0  0  0  0
    9.6066    6.0155   -9.7223 N   0  0  0  0  0  0  0  0  0  0  0  0
    9.6843    7.1664  -10.4154 C   0  0  0  0  0  0  0  0  0  0  0  0
    9.3131    7.1701  -11.6551 N   0  0  0  0  0  0  0  0  0  0  0  0
   10.1396    8.2424   -9.7835 N   0  0  0  0  0  0  0  0  0  0  0  0
   10.1987    9.1414  -10.3313 H   0  0  0  0  0  0  0  0  0  0  0  0
   10.8178    6.9937   -6.4760 C   0  0  0  0  0  0  0  0  0  0  0  0
   12.4515    7.9327   -1.7687 C   0  0  0  0  0  0  0  0  0  0  0  0
   12.1389    6.7603   -2.3972 C   0  0  0  0  0  0  0  0  0  0  0  0
   11.7551    6.8405   -3.7412 C   0  0  0  0  0  0  0  0  0  0  0  0
   11.6956    8.0414   -4.3966 C   0  0  0  0  0  0  0  0  0  0  0  0
   12.0180    9.1907   -3.7258 C   0  0  0  0  0  0  0  0  0  0  0  0
   12.4032    9.1468   -2.3908 C   0  0  0  0  0  0  0  0  0  0  0  0
 32 33  2  0
 33 34  1  0
 34 35  2  0
 35 20  1  0
 20 21  2  0
 21 22  1  0
 22 23  2  0
 23 24  1  0
 24 25  1  0
 25 26  2  0
 26 27  1  0
 27 28  2  0
 28  1  1  0
  1  2  2  0
  2  3  1  0
  3  4  2  0
  4  5  1  0
  5  6  2  0
  5  7  1  0
  7  8  1  0
  8  9  1  0
  9 10  2  0
 10 11  1  0
 11 12  2  0
 12 13  1  0
 13 14  2  0
 12 15  1  0
 15 16  1  0
 16 17  1  0
 17 18  1  0
 18 19  2  0
 27 29  1  0
 29 30  1  0
 24 31  2  0
 35 36  1  0
 36 37  2  0
 37 32  1  0
 31 20  1  0
 29 23  1  0
  6  1  1  0
 14  9  1  0
 14  4  1  0
 18 11  1  0
M  END
>  <minimizedAffinity>  (998) 
-16.51991

$$$$
Mol: 153_20 - SminaDock
     RDKit          3D

 39 45  0  0  0  0  0  0  0  0999 V2000
    5.3649    2.2181  -12.8773 C   0  0  0  0  0  0  0  0  0  0  0  0
    4.5250    1.2356  -13.2300 N   0  0  0  0  0  0  0  0  0  0  0  0
    4.6821    0.5324  -14.3955 C   0  0  0  0  0  0  0  0  0  0  0  0
    3.7987   -0.4752  -14.7159 C   0  0  0  0  0  0  0  0  0  0  0  0
    3.9566   -1.1887  -15.8809 C   0  0  0  0  0  0  0  0  0  0  0  0
    4.9878   -0.9227  -16.7517 C   0  0  0  0  0  0  0  0  0  0  0  0
    5.9002    0.0999  -16.4461 C   0  0  0  0  0  0  0  0  0  0  0  0
    5.7088    0.7889  -15.2762 C   0  0  0  0  0  0  0  0  0  0  0  0
    6.5898    1.7858  -14.9559 C   0  0  0  0  0  0  0  0  0  0  0  0
    6.3889    2.4865  -13.7424 C   0  0  0  0  0  0  0  0  0  0  0  0
    7.2562    3.5679  -13.2908 C   0  0  0  0  0  0  0  0  0  0  0  0
    6.5286    4.4725  -12.5754 C   0  0  0  0  0  0  0  0  0  0  0  0
    7.2087    5.5648  -12.0452 C   0  0  0  0  0  0  0  0  0  0  0  0
    8.5802    5.6976  -12.2588 C   0  0  0  0  0  0  0  0  0  0  0  0
    9.2697    4.7553  -12.9916 C   0  0  0  0  0  0  0  0  0  0  0  0
    8.6258    3.6616  -13.5296 C   0  0  0  0  0  0  0  0  0  0  0  0
    9.4807    2.7506  -14.2930 C   0  0  0  0  0  0  0  0  0  0  0  0
    9.0043    1.9234  -15.2841 N   0  0  1  0  0  0  0  0  0  0  0  0
    9.6858    1.8700  -16.0871 H   0  0  0  0  0  0  0  0  0  0  0  0
    9.0221    0.9167  -14.9191 H   0  0  0  0  0  0  0  0  0  0  0  0
    7.7007    2.0579  -15.8663 C   0  0  0  0  0  0  0  0  0  0  0  0
    9.2637    6.8258  -11.7048 N   0  0  0  0  0  0  0  0  0  0  0  0
    9.6061    6.8843  -10.4801 C   0  0  0  0  0  0  0  0  0  0  0  0
    9.3132    5.8436   -9.6763 N   0  0  0  0  0  0  0  0  0  0  0  0
    9.6592    5.8592   -8.3582 C   0  0  0  0  0  0  0  0  0  0  0  0
   10.3108    6.9374   -7.8365 C   0  0  0  0  0  0  0  0  0  0  0  0
   10.6629    6.9521   -6.4943 C   0  0  0  0  0  0  0  0  0  0  0  0
   11.3294    8.0389   -5.9322 C   0  0  0  0  0  0  0  0  0  0  0  0
   11.6186    9.0902   -6.7709 C   0  0  0  0  0  0  0  0  0  0  0  0
   11.2665    9.0673   -8.0976 C   0  0  0  0  0  0  0  0  0  0  0  0
   10.6086    7.9985   -8.6600 C   0  0  0  0  0  0  0  0  0  0  0  0
   10.2481    7.9450   -9.9633 N   0  0  0  0  0  0  0  0  0  0  0  0
   10.4901    8.7696  -10.5620 H   0  0  0  0  0  0  0  0  0  0  0  0
   11.6938    8.0457   -4.5273 C   0  0  0  0  0  0  0  0  0  0  0  0
   11.6718    6.8431   -3.8257 C   0  0  0  0  0  0  0  0  0  0  0  0
   12.0059    6.7933   -2.4995 C   0  0  0  0  0  0  0  0  0  0  0  0
   12.3677    7.9698   -1.8685 C   0  0  0  0  0  0  0  0  0  0  0  0
   12.3920    9.1674   -2.5584 C   0  0  0  0  0  0  0  0  0  0  0  0
   12.0535    9.2184   -3.9024 C   0  0  0  0  0  0  0  0  0  0  0  0
  1  2  2  0
  2  3  1  0
  3  4  2  0
  4  5  1  0
  5  6  2  0
  6  7  1  0
  7  8  2  0
  8  9  1  0
  9 10  2  0
 10 11  1  0
 11 12  2  0
 12 13  1  0
 13 14  2  0
 14 22  1  0
 22 23  2  0
 23 24  1  0
 24 25  2  0
 25 26  1  0
 26 27  2  0
 27 28  1  0
 28 34  1  0
 34 35  2  0
 35 36  1  0
 36 37  2  0
 37 38  1  0
 38 39  2  0
 28 29  2  0
 29 30  1  0
 30 31  2  0
 31 32  1  0
 32 33  1  0
 14 15  1  0
 15 16  2  0
 16 17  1  0
 17 18  1  0
 18 19  1  6
 18 20  1  0
 18 21  1  0
 10  1  1  0
 16 11  1  0
  8  3  1  0
 21  9  1  0
 32 23  1  0
 31 26  1  0
 39 34  1  0
M  CHG  1  18   1
M  END
>  <minimizedAffinity>  (999) 
-16.46517

$$$$
