
 OpenBabel10082411353D

  6  6  0  0  0  0  0  0  0  0999 V2000
   11.4365    9.6604   -3.6165 C   0  0  0  0  0  0  0  0  0  0  0  0
   10.8250    9.5735   -4.8660 C   0  0  0  0  0  0  0  0  0  0  0  0
   12.8345    9.3086   -3.6042 C   0  0  0  0  0  0  0  0  0  0  0  0
   10.8204    8.1767   -5.1650 O   0  0  0  0  0  0  0  0  0  0  0  0
   12.8081    7.7501   -3.5541 C   0  0  0  0  0  0  0  0  0  0  0  0
   12.0894    7.4554   -4.9289 C   0  0  0  0  0  0  0  0  0  0  0  0
  1  2  1  0  0  0  0
  1  3  1  0  0  0  0
  2  4  1  0  0  0  0
  3  5  1  0  0  0  0
  4  6  1  0  0  0  0
  5  6  1  0  0  0  0
M  END
$$$$

 OpenBabel10082411353D

 56 69  0  0  0  0  0  0  0  0999 V2000
    8.0806    9.0240  -12.7589 C   0  0  0  0  0  0  0  0  0  0  0  0
    8.6514    7.8645  -12.2948 C   0  0  0  0  0  0  0  0  0  0  0  0
    9.9575    7.9974  -11.8426 C   0  0  0  0  0  0  0  0  0  0  0  0
   10.7657    6.8667  -11.6050 C   0  0  1  0  0  0  0  0  0  0  0  0
   10.7682    5.9590  -12.8271 C   0  0  0  0  0  0  0  0  0  0  0  0
   12.1553    7.3846  -11.2315 C   0  0  0  0  0  0  0  0  0  0  0  0
    8.0676    6.6451  -12.2974 C   0  0  0  0  0  0  0  0  0  0  0  0
   10.1892    6.1240  -10.3860 C   0  0  0  0  0  0  0  0  0  0  0  0
   11.8375    5.4373  -13.3240 O   0  0  0  0  0  0  0  0  0  0  0  0
    8.6785    5.4761  -13.0273 C   0  0  1  0  0  0  0  0  0  0  0  0
    9.1969    5.2405  -10.4969 C   0  0  2  0  0  0  0  0  0  0  0  0
    7.2213    6.2210  -11.3074 C   0  0  2  0  0  0  0  0  0  0  0  0
   12.5590    7.6872   -9.9896 C   0  0  0  0  0  0  0  0  0  0  0  0
    9.7633    5.0333  -12.9720 C   0  0  1  0  0  0  0  0  0  0  0  0
   10.0661    4.0167  -14.0373 N   0  0  0  0  0  0  0  0  0  0  0  0
   13.6906    8.3004   -9.6233 O   0  0  0  0  0  0  0  0  0  0  0  0
    7.6357    4.5123  -12.6317 C   0  0  2  0  0  0  0  0  0  0  0  0
    6.8831    4.9171  -11.7031 C   0  0  2  0  0  0  0  0  0  0  0  0
   10.5937    6.6967   -9.1779 C   0  0  0  0  0  0  0  0  0  0  0  0
    9.5087    4.3263  -11.6925 C   0  0  2  0  0  0  0  0  0  0  0  0
   11.6359    7.4449   -8.9125 C   0  0  0  0  0  0  0  0  0  0  0  0
   11.9716    7.9159   -7.6200 C   0  0  0  0  0  0  0  0  0  0  0  0
    8.4648    3.6122  -12.2840 C   0  0  1  0  0  0  0  0  0  0  0  0
    7.9253    2.8004  -11.3926 C   0  0  0  0  0  0  0  0  0  0  0  0
    5.6047    4.5059  -11.7589 C   0  0  0  0  0  0  0  0  0  0  0  0
    7.6606    4.1297  -10.5699 C   0  0  0  0  0  0  0  0  0  0  0  0
   10.9559    7.6849   -6.6057 C   0  0  0  0  0  0  0  0  0  0  0  0
    8.0094    4.5092   -9.5664 C   0  0  0  0  0  0  0  0  0  0  0  0
    8.3033    4.0627   -8.4980 C   0  0  0  0  0  0  0  0  0  0  0  0
    6.3587    7.1012  -11.0392 O   0  0  0  0  0  0  0  0  0  0  0  0
   11.0186    3.9598  -14.9226 C   0  0  0  0  0  0  0  0  0  0  0  0
    8.1758    5.8633  -10.2511 C   0  0  1  0  0  0  0  0  0  0  0  0
   11.4648    2.7104  -15.2650 O   0  0  0  0  0  0  0  0  0  0  0  0
    9.9512    6.8220   -6.8436 C   0  0  0  0  0  0  0  0  0  0  0  0
    9.6899    6.3705   -8.1082 C   0  0  2  0  0  0  0  0  0  0  0  0
   11.2597    8.2901   -5.2396 C   0  0  0  0  0  0  0  0  0  0  0  0
   11.6068    9.7354   -5.2006 C   0  0  0  0  0  0  0  0  0  0  0  0
   10.9469    4.9352  -15.8306 C   0  0  0  0  0  0  0  0  0  0  0  0
    9.2417    4.9555   -7.8256 C   0  0  0  0  0  0  0  0  0  0  0  0
   11.3657    7.7043   -4.0379 C   0  0  0  0  0  0  0  0  0  0  0  0
   11.4469   10.6225   -6.4157 C   0  0  0  0  0  0  0  0  0  0  0  0
   11.9077   10.2897   -3.9889 C   0  0  0  0  0  0  0  0  0  0  0  0
   11.9472    9.5143   -2.8307 C   0  0  0  0  0  0  0  0  0  0  0  0
    9.3030    2.8335  -13.6243 C   0  0  0  0  0  0  0  0  0  0  0  0
   11.0706    6.0966   -4.1041 S   0  0  0  0  0  0  0  0  0  0  0  0
   11.7343    8.3349   -3.0045 C   0  0  0  0  0  0  0  0  0  0  0  0
   12.1398    5.5239   -4.8589 O   0  0  0  0  0  0  0  0  0  0  0  0
   11.2273    5.7924   -2.5132 O   0  0  0  0  0  0  0  0  0  0  0  0
    9.7296    5.7465   -4.5156 C   0  0  1  0  0  0  0  0  0  0  0  0
    8.8786    6.8007   -5.9523 C   0  0  0  0  0  0  0  0  0  0  0  0
    7.8637    7.2355   -6.3338 O   0  0  0  0  0  0  0  0  0  0  0  0
    9.2748    4.5977   -3.7261 C   0  0  0  0  0  0  0  0  0  0  0  0
    8.9272    5.9732   -4.9825 C   0  0  1  0  0  0  0  0  0  0  0  0
    8.0741    4.1655   -4.4505 C   0  0  0  0  0  0  0  0  0  0  0  0
    7.8584    5.0158   -5.4188 N   0  0  0  0  0  0  0  0  0  0  0  0
    7.2554    3.3622   -4.0339 O   0  0  0  0  0  0  0  0  0  0  0  0
  1  2  1  0  0  0  0
  2  3  1  0  0  0  0
  2  7  2  0  0  0  0
  4  3  1  6  0  0  0
  4  5  1  0  0  0  0
  4  6  1  0  0  0  0
  4  8  1  0  0  0  0
  5  9  2  0  0  0  0
  6 13  1  0  0  0  0
  7 12  1  0  0  0  0
  8 19  2  0  0  0  0
 10  7  1  1  0  0  0
 10 14  1  0  0  0  0
 10 17  1  0  0  0  0
 11  8  1  6  0  0  0
 11 20  1  0  0  0  0
 11 32  1  0  0  0  0
 12 18  1  0  0  0  0
 12 30  1  1  0  0  0
 12 32  1  0  0  0  0
 13 16  2  0  0  0  0
 13 21  1  0  0  0  0
 14  5  1  1  0  0  0
 14 15  1  0  0  0  0
 14 20  1  0  0  0  0
 15 31  1  0  0  0  0
 15 44  1  0  0  0  0
 17 18  1  0  0  0  0
 17 23  1  0  0  0  0
 18 25  1  0  0  0  0
 18 26  1  0  0  0  0
 19 21  1  0  0  0  0
 19 35  1  0  0  0  0
 20 23  1  0  0  0  0
 21 22  2  0  0  0  0
 22 27  1  0  0  0  0
 23 24  1  0  0  0  0
 23 44  1  0  0  0  0
 24 26  1  0  0  0  0
 26 28  2  0  0  0  0
 27 34  2  0  0  0  0
 27 36  1  0  0  0  0
 28 29  1  0  0  0  0
 28 32  1  0  0  0  0
 29 39  2  0  0  0  0
 31 33  2  0  0  0  0
 31 38  1  0  0  0  0
 34 35  1  0  0  0  0
 34 50  1  0  0  0  0
 35 39  1  0  0  0  0
 36 37  1  0  0  0  0
 36 40  2  0  0  0  0
 37 41  1  0  0  0  0
 37 42  2  0  0  0  0
 40 45  1  0  0  0  0
 40 46  1  0  0  0  0
 42 43  1  0  0  0  0
 43 46  2  0  0  0  0
 45 47  2  0  0  0  0
 45 48  2  0  0  0  0
 45 49  1  0  0  0  0
 49 52  1  0  0  0  0
 49 53  1  0  0  0  0
 50 51  2  0  0  0  0
 50 53  1  0  0  0  0
 52 54  1  0  0  0  0
 53 55  1  0  0  0  0
 54 55  1  0  0  0  0
 54 56  2  0  0  0  0
M  END
$$$$

 OpenBabel10082411353D

 56 69  0  0  0  0  0  0  0  0999 V2000
    8.0806    9.0240  -12.7589 C   0  0  0  0  0  0  0  0  0  0  0  0
    8.6514    7.8645  -12.2948 C   0  0  0  0  0  0  0  0  0  0  0  0
    9.9575    7.9974  -11.8426 C   0  0  0  0  0  0  0  0  0  0  0  0
   10.7657    6.8667  -11.6050 C   0  0  1  0  0  0  0  0  0  0  0  0
   10.7682    5.9590  -12.8271 C   0  0  0  0  0  0  0  0  0  0  0  0
   12.1553    7.3846  -11.2315 C   0  0  0  0  0  0  0  0  0  0  0  0
    8.0676    6.6451  -12.2974 C   0  0  0  0  0  0  0  0  0  0  0  0
   10.1892    6.1240  -10.3860 C   0  0  0  0  0  0  0  0  0  0  0  0
   11.8375    5.4373  -13.3240 O   0  0  0  0  0  0  0  0  0  0  0  0
    8.6785    5.4761  -13.0273 C   0  0  1  0  0  0  0  0  0  0  0  0
    9.1969    5.2405  -10.4969 C   0  0  2  0  0  0  0  0  0  0  0  0
    7.2213    6.2210  -11.3074 C   0  0  2  0  0  0  0  0  0  0  0  0
   12.5590    7.6872   -9.9896 C   0  0  0  0  0  0  0  0  0  0  0  0
    9.7633    5.0333  -12.9720 C   0  0  1  0  0  0  0  0  0  0  0  0
   10.0661    4.0167  -14.0373 N   0  0  0  0  0  0  0  0  0  0  0  0
   13.6906    8.3004   -9.6233 O   0  0  0  0  0  0  0  0  0  0  0  0
    7.6357    4.5123  -12.6317 C   0  0  2  0  0  0  0  0  0  0  0  0
    6.8831    4.9171  -11.7031 C   0  0  2  0  0  0  0  0  0  0  0  0
   10.5937    6.6967   -9.1779 C   0  0  0  0  0  0  0  0  0  0  0  0
    9.5087    4.3263  -11.6925 C   0  0  2  0  0  0  0  0  0  0  0  0
   11.6359    7.4449   -8.9125 C   0  0  0  0  0  0  0  0  0  0  0  0
   11.9716    7.9159   -7.6200 C   0  0  0  0  0  0  0  0  0  0  0  0
    8.4648    3.6122  -12.2840 C   0  0  1  0  0  0  0  0  0  0  0  0
    7.9253    2.8004  -11.3926 C   0  0  0  0  0  0  0  0  0  0  0  0
    5.6047    4.5059  -11.7589 C   0  0  0  0  0  0  0  0  0  0  0  0
    7.6606    4.1297  -10.5699 C   0  0  0  0  0  0  0  0  0  0  0  0
   10.9559    7.6849   -6.6057 C   0  0  0  0  0  0  0  0  0  0  0  0
    8.0094    4.5092   -9.5664 C   0  0  0  0  0  0  0  0  0  0  0  0
    8.3033    4.0627   -8.4980 C   0  0  0  0  0  0  0  0  0  0  0  0
    6.3587    7.1012  -11.0392 O   0  0  0  0  0  0  0  0  0  0  0  0
   11.0186    3.9598  -14.9226 C   0  0  0  0  0  0  0  0  0  0  0  0
    8.1758    5.8633  -10.2511 C   0  0  1  0  0  0  0  0  0  0  0  0
   11.4648    2.7104  -15.2650 O   0  0  0  0  0  0  0  0  0  0  0  0
    9.9512    6.8220   -6.8436 C   0  0  0  0  0  0  0  0  0  0  0  0
    9.6899    6.3705   -8.1082 C   0  0  2  0  0  0  0  0  0  0  0  0
   11.2597    8.2901   -5.2396 C   0  0  0  0  0  0  0  0  0  0  0  0
   11.6068    9.7354   -5.2006 C   0  0  0  0  0  0  0  0  0  0  0  0
   10.9469    4.9352  -15.8306 C   0  0  0  0  0  0  0  0  0  0  0  0
    9.2417    4.9555   -7.8256 C   0  0  0  0  0  0  0  0  0  0  0  0
   11.3657    7.7043   -4.0379 C   0  0  0  0  0  0  0  0  0  0  0  0
   11.4469   10.6225   -6.4157 C   0  0  0  0  0  0  0  0  0  0  0  0
   11.9077   10.2897   -3.9889 C   0  0  0  0  0  0  0  0  0  0  0  0
   11.9472    9.5143   -2.8307 C   0  0  0  0  0  0  0  0  0  0  0  0
    9.3030    2.8335  -13.6243 C   0  0  0  0  0  0  0  0  0  0  0  0
   11.0706    6.0966   -4.1041 S   0  0  0  0  0  0  0  0  0  0  0  0
   11.7343    8.3349   -3.0045 C   0  0  0  0  0  0  0  0  0  0  0  0
   12.1398    5.5239   -4.8589 O   0  0  0  0  0  0  0  0  0  0  0  0
   11.2273    5.7924   -2.5132 O   0  0  0  0  0  0  0  0  0  0  0  0
    9.7296    5.7465   -4.5156 C   0  0  1  0  0  0  0  0  0  0  0  0
    8.8786    6.8007   -5.9523 C   0  0  0  0  0  0  0  0  0  0  0  0
    7.8637    7.2355   -6.3338 O   0  0  0  0  0  0  0  0  0  0  0  0
    9.2748    4.5977   -3.7261 C   0  0  0  0  0  0  0  0  0  0  0  0
    7.8333    4.3200   -3.9940 C   0  0  0  0  0  0  0  0  0  0  0  0
    8.7571    6.2327   -5.0898 C   0  0  1  0  0  0  0  0  0  0  0  0
    7.4472    5.1158   -4.4097 C   0  0  0  0  0  0  0  0  0  0  0  0
    7.8175    5.7052   -5.5467 C   0  0  0  0  0  0  0  0  0  0  0  0
  1  2  1  0  0  0  0
  2  3  1  0  0  0  0
  2  7  2  0  0  0  0
  4  3  1  6  0  0  0
  4  5  1  0  0  0  0
  4  6  1  0  0  0  0
  4  8  1  0  0  0  0
  5  9  2  0  0  0  0
  6 13  1  0  0  0  0
  7 12  1  0  0  0  0
  8 19  2  0  0  0  0
 10  7  1  1  0  0  0
 10 14  1  0  0  0  0
 10 17  1  0  0  0  0
 11  8  1  6  0  0  0
 11 20  1  0  0  0  0
 11 32  1  0  0  0  0
 12 18  1  0  0  0  0
 12 30  1  1  0  0  0
 12 32  1  0  0  0  0
 13 16  2  0  0  0  0
 13 21  1  0  0  0  0
 14  5  1  1  0  0  0
 14 15  1  0  0  0  0
 14 20  1  0  0  0  0
 15 31  1  0  0  0  0
 15 44  1  0  0  0  0
 17 18  1  0  0  0  0
 17 23  1  0  0  0  0
 18 25  1  0  0  0  0
 18 26  1  0  0  0  0
 19 21  1  0  0  0  0
 19 35  1  0  0  0  0
 20 23  1  0  0  0  0
 21 22  2  0  0  0  0
 22 27  1  0  0  0  0
 23 24  1  0  0  0  0
 23 44  1  0  0  0  0
 24 26  1  0  0  0  0
 26 28  2  0  0  0  0
 27 34  2  0  0  0  0
 27 36  1  0  0  0  0
 28 29  1  0  0  0  0
 28 32  1  0  0  0  0
 29 39  2  0  0  0  0
 31 33  2  0  0  0  0
 31 38  1  0  0  0  0
 34 35  1  0  0  0  0
 34 50  1  0  0  0  0
 35 39  1  0  0  0  0
 36 37  1  0  0  0  0
 36 40  2  0  0  0  0
 37 41  1  0  0  0  0
 37 42  2  0  0  0  0
 40 45  1  0  0  0  0
 40 46  1  0  0  0  0
 42 43  1  0  0  0  0
 43 46  2  0  0  0  0
 45 47  2  0  0  0  0
 45 48  2  0  0  0  0
 45 49  1  0  0  0  0
 49 52  1  0  0  0  0
 49 54  1  0  0  0  0
 50 51  2  0  0  0  0
 50 54  1  0  0  0  0
 52 53  1  0  0  0  0
 53 55  1  0  0  0  0
 54 56  1  0  0  0  0
 55 56  1  0  0  0  0
M  END
$$$$

 OpenBabel10082411353D

 56 71  0  0  0  0  0  0  0  0999 V2000
    8.0806    9.0240  -12.7589 C   0  0  0  0  0  0  0  0  0  0  0  0
    8.6514    7.8645  -12.2948 C   0  0  0  0  0  0  0  0  0  0  0  0
    9.9575    7.9974  -11.8426 C   0  0  0  0  0  0  0  0  0  0  0  0
   10.7657    6.8667  -11.6050 C   0  0  1  0  0  0  0  0  0  0  0  0
   10.7682    5.9590  -12.8271 C   0  0  0  0  0  0  0  0  0  0  0  0
   12.1553    7.3846  -11.2315 C   0  0  0  0  0  0  0  0  0  0  0  0
    8.0676    6.6451  -12.2974 C   0  0  0  0  0  0  0  0  0  0  0  0
   10.1892    6.1240  -10.3860 C   0  0  0  0  0  0  0  0  0  0  0  0
   11.8375    5.4373  -13.3240 O   0  0  0  0  0  0  0  0  0  0  0  0
    8.6785    5.4761  -13.0273 C   0  0  1  0  0  0  0  0  0  0  0  0
    9.1969    5.2405  -10.4969 C   0  0  2  0  0  0  0  0  0  0  0  0
    7.2213    6.2210  -11.3074 C   0  0  2  0  0  0  0  0  0  0  0  0
   12.5590    7.6872   -9.9896 C   0  0  0  0  0  0  0  0  0  0  0  0
    9.7633    5.0333  -12.9720 C   0  0  1  0  0  0  0  0  0  0  0  0
   10.0661    4.0167  -14.0373 N   0  0  0  0  0  0  0  0  0  0  0  0
   13.6906    8.3004   -9.6233 O   0  0  0  0  0  0  0  0  0  0  0  0
    7.6357    4.5123  -12.6317 C   0  0  2  0  0  0  0  0  0  0  0  0
    6.8831    4.9171  -11.7031 C   0  0  2  0  0  0  0  0  0  0  0  0
   10.5937    6.6967   -9.1779 C   0  0  0  0  0  0  0  0  0  0  0  0
    9.5087    4.3263  -11.6925 C   0  0  2  0  0  0  0  0  0  0  0  0
   11.6359    7.4449   -8.9125 C   0  0  0  0  0  0  0  0  0  0  0  0
   11.9716    7.9159   -7.6200 C   0  0  0  0  0  0  0  0  0  0  0  0
    8.4648    3.6122  -12.2840 C   0  0  1  0  0  0  0  0  0  0  0  0
    7.9253    2.8004  -11.3926 C   0  0  0  0  0  0  0  0  0  0  0  0
    5.6047    4.5059  -11.7589 C   0  0  0  0  0  0  0  0  0  0  0  0
    7.6606    4.1297  -10.5699 C   0  0  0  0  0  0  0  0  0  0  0  0
   10.9559    7.6849   -6.6057 C   0  0  0  0  0  0  0  0  0  0  0  0
    8.0094    4.5092   -9.5664 C   0  0  0  0  0  0  0  0  0  0  0  0
    8.3033    4.0627   -8.4980 C   0  0  0  0  0  0  0  0  0  0  0  0
    6.3587    7.1012  -11.0392 O   0  0  0  0  0  0  0  0  0  0  0  0
   11.0186    3.9598  -14.9226 C   0  0  0  0  0  0  0  0  0  0  0  0
    8.1758    5.8633  -10.2511 C   0  0  1  0  0  0  0  0  0  0  0  0
   11.4648    2.7104  -15.2650 O   0  0  0  0  0  0  0  0  0  0  0  0
    9.9512    6.8220   -6.8436 C   0  0  0  0  0  0  0  0  0  0  0  0
    9.6899    6.3705   -8.1082 C   0  0  2  0  0  0  0  0  0  0  0  0
   11.2597    8.2901   -5.2396 C   0  0  0  0  0  0  0  0  0  0  0  0
   11.6068    9.7354   -5.2006 C   0  0  0  0  0  0  0  0  0  0  0  0
   10.9469    4.9352  -15.8306 C   0  0  0  0  0  0  0  0  0  0  0  0
    9.2417    4.9555   -7.8256 C   0  0  0  0  0  0  0  0  0  0  0  0
   11.3657    7.7043   -4.0379 C   0  0  0  0  0  0  0  0  0  0  0  0
   11.4469   10.6225   -6.4157 C   0  0  0  0  0  0  0  0  0  0  0  0
   11.9077   10.2897   -3.9889 C   0  0  0  0  0  0  0  0  0  0  0  0
   11.9472    9.5143   -2.8307 C   0  0  0  0  0  0  0  0  0  0  0  0
    9.3030    2.8335  -13.6243 C   0  0  0  0  0  0  0  0  0  0  0  0
   11.0706    6.0966   -4.1041 S   0  0  0  0  0  0  0  0  0  0  0  0
   11.7343    8.3349   -3.0045 C   0  0  0  0  0  0  0  0  0  0  0  0
   12.1398    5.5239   -4.8589 O   0  0  0  0  0  0  0  0  0  0  0  0
   11.2273    5.7924   -2.5132 O   0  0  0  0  0  0  0  0  0  0  0  0
    9.7296    5.7465   -4.5156 C   0  0  2  0  0  0  0  0  0  0  0  0
    8.8786    6.8007   -5.9523 C   0  0  0  0  0  0  0  0  0  0  0  0
    7.8637    7.2355   -6.3338 O   0  0  0  0  0  0  0  0  0  0  0  0
    9.2748    4.5977   -3.7261 C   0  0  0  0  0  0  0  0  0  0  0  0
    8.0980    4.2076   -4.4162 C   0  0  0  0  0  0  0  0  0  0  0  0
    8.9174    5.6359   -5.3766 C   0  0  1  0  0  0  0  0  0  0  0  0
    9.0485    4.8472   -6.2252 N   0  0  0  0  0  0  0  0  0  0  0  0
    8.1435    4.3496   -5.6792 C   0  0  0  0  0  0  0  0  0  0  0  0
  1  2  1  0  0  0  0
  2  3  1  0  0  0  0
  2  7  2  0  0  0  0
  4  3  1  6  0  0  0
  4  5  1  0  0  0  0
  4  6  1  0  0  0  0
  4  8  1  0  0  0  0
  5  9  2  0  0  0  0
  6 13  1  0  0  0  0
  7 12  1  0  0  0  0
  8 19  2  0  0  0  0
 10  7  1  1  0  0  0
 10 14  1  0  0  0  0
 10 17  1  0  0  0  0
 11  8  1  6  0  0  0
 11 20  1  0  0  0  0
 11 32  1  0  0  0  0
 12 18  1  0  0  0  0
 12 30  1  1  0  0  0
 12 32  1  0  0  0  0
 13 16  2  0  0  0  0
 13 21  1  0  0  0  0
 14  5  1  1  0  0  0
 14 15  1  0  0  0  0
 14 20  1  0  0  0  0
 15 31  1  0  0  0  0
 15 44  1  0  0  0  0
 17 18  1  0  0  0  0
 17 23  1  0  0  0  0
 18 25  1  0  0  0  0
 18 26  1  0  0  0  0
 19 21  1  0  0  0  0
 19 35  1  0  0  0  0
 20 23  1  0  0  0  0
 21 22  2  0  0  0  0
 22 27  1  0  0  0  0
 23 24  1  0  0  0  0
 23 44  1  0  0  0  0
 24 26  1  0  0  0  0
 26 28  2  0  0  0  0
 27 34  2  0  0  0  0
 27 36  1  0  0  0  0
 28 29  1  0  0  0  0
 28 32  1  0  0  0  0
 29 39  2  0  0  0  0
 31 33  2  0  0  0  0
 31 38  1  0  0  0  0
 34 35  1  0  0  0  0
 34 50  1  0  0  0  0
 35 39  1  0  0  0  0
 36 37  1  0  0  0  0
 36 40  2  0  0  0  0
 37 41  1  0  0  0  0
 37 42  2  0  0  0  0
 39 55  1  0  0  0  0
 40 45  1  0  0  0  0
 40 46  1  0  0  0  0
 42 43  1  0  0  0  0
 43 46  2  0  0  0  0
 45 47  2  0  0  0  0
 45 48  2  0  0  0  0
 45 49  1  0  0  0  0
 49 52  1  0  0  0  0
 49 54  1  0  0  0  0
 50 51  2  0  0  0  0
 50 54  1  0  0  0  0
 52 53  1  0  0  0  0
 53 56  2  3  0  0  0
 54 55  1  0  0  0  0
 54 56  1  0  0  0  0
 55 56  1  0  0  0  0
M  END
$$$$

 OpenBabel10082411353D

 56 71  0  0  0  0  0  0  0  0999 V2000
    8.0806    9.0240  -12.7589 C   0  0  0  0  0  0  0  0  0  0  0  0
    8.6514    7.8645  -12.2948 C   0  0  0  0  0  0  0  0  0  0  0  0
    9.9575    7.9974  -11.8426 C   0  0  0  0  0  0  0  0  0  0  0  0
   10.7657    6.8667  -11.6050 C   0  0  1  0  0  0  0  0  0  0  0  0
   10.7682    5.9590  -12.8271 C   0  0  0  0  0  0  0  0  0  0  0  0
   12.1553    7.3846  -11.2315 C   0  0  0  0  0  0  0  0  0  0  0  0
    8.0676    6.6451  -12.2974 C   0  0  0  0  0  0  0  0  0  0  0  0
   10.1892    6.1240  -10.3860 C   0  0  0  0  0  0  0  0  0  0  0  0
   11.8375    5.4373  -13.3240 O   0  0  0  0  0  0  0  0  0  0  0  0
    8.6785    5.4761  -13.0273 C   0  0  1  0  0  0  0  0  0  0  0  0
    9.1969    5.2405  -10.4969 C   0  0  2  0  0  0  0  0  0  0  0  0
    7.2213    6.2210  -11.3074 C   0  0  2  0  0  0  0  0  0  0  0  0
   12.5590    7.6872   -9.9896 C   0  0  0  0  0  0  0  0  0  0  0  0
    9.7633    5.0333  -12.9720 C   0  0  1  0  0  0  0  0  0  0  0  0
   10.0661    4.0167  -14.0373 N   0  0  0  0  0  0  0  0  0  0  0  0
   13.6906    8.3004   -9.6233 O   0  0  0  0  0  0  0  0  0  0  0  0
    7.6357    4.5123  -12.6317 C   0  0  2  0  0  0  0  0  0  0  0  0
    6.8831    4.9171  -11.7031 C   0  0  2  0  0  0  0  0  0  0  0  0
   10.5937    6.6967   -9.1779 C   0  0  0  0  0  0  0  0  0  0  0  0
    9.5087    4.3263  -11.6925 C   0  0  2  0  0  0  0  0  0  0  0  0
   11.6359    7.4449   -8.9125 C   0  0  0  0  0  0  0  0  0  0  0  0
   11.9716    7.9159   -7.6200 C   0  0  0  0  0  0  0  0  0  0  0  0
    8.4648    3.6122  -12.2840 C   0  0  1  0  0  0  0  0  0  0  0  0
    7.9253    2.8004  -11.3926 C   0  0  0  0  0  0  0  0  0  0  0  0
    5.6047    4.5059  -11.7589 C   0  0  0  0  0  0  0  0  0  0  0  0
    7.6606    4.1297  -10.5699 C   0  0  0  0  0  0  0  0  0  0  0  0
   10.9559    7.6849   -6.6057 C   0  0  0  0  0  0  0  0  0  0  0  0
    8.0094    4.5092   -9.5664 C   0  0  0  0  0  0  0  0  0  0  0  0
    8.3033    4.0627   -8.4980 C   0  0  0  0  0  0  0  0  0  0  0  0
    6.3587    7.1012  -11.0392 O   0  0  0  0  0  0  0  0  0  0  0  0
   11.0186    3.9598  -14.9226 C   0  0  0  0  0  0  0  0  0  0  0  0
    8.1758    5.8633  -10.2511 C   0  0  1  0  0  0  0  0  0  0  0  0
   11.4648    2.7104  -15.2650 O   0  0  0  0  0  0  0  0  0  0  0  0
    9.9512    6.8220   -6.8436 C   0  0  0  0  0  0  0  0  0  0  0  0
    9.6899    6.3705   -8.1082 C   0  0  2  0  0  0  0  0  0  0  0  0
   11.2597    8.2901   -5.2396 C   0  0  0  0  0  0  0  0  0  0  0  0
   11.6068    9.7354   -5.2006 C   0  0  0  0  0  0  0  0  0  0  0  0
   10.9469    4.9352  -15.8306 C   0  0  0  0  0  0  0  0  0  0  0  0
    9.2417    4.9555   -7.8256 C   0  0  0  0  0  0  0  0  0  0  0  0
   11.3657    7.7043   -4.0379 C   0  0  0  0  0  0  0  0  0  0  0  0
   11.4469   10.6225   -6.4157 C   0  0  0  0  0  0  0  0  0  0  0  0
   11.9077   10.2897   -3.9889 C   0  0  0  0  0  0  0  0  0  0  0  0
   11.9472    9.5143   -2.8307 C   0  0  0  0  0  0  0  0  0  0  0  0
    9.3030    2.8335  -13.6243 C   0  0  0  0  0  0  0  0  0  0  0  0
   11.0706    6.0966   -4.1041 S   0  0  0  0  0  0  0  0  0  0  0  0
   11.7343    8.3349   -3.0045 C   0  0  0  0  0  0  0  0  0  0  0  0
   12.1398    5.5239   -4.8589 O   0  0  0  0  0  0  0  0  0  0  0  0
   11.2273    5.7924   -2.5132 O   0  0  0  0  0  0  0  0  0  0  0  0
    9.7296    5.7465   -4.5156 C   0  0  2  0  0  0  0  0  0  0  0  0
    8.8786    6.8007   -5.9523 C   0  0  0  0  0  0  0  0  0  0  0  0
    7.8637    7.2355   -6.3338 O   0  0  0  0  0  0  0  0  0  0  0  0
    9.2748    4.5977   -3.7261 C   0  0  0  0  0  0  0  0  0  0  0  0
    8.8685    5.6587   -5.3479 C   0  0  1  0  0  0  0  0  0  0  0  0
    7.9472    4.2338   -4.1951 C   0  0  0  0  0  0  0  0  0  0  0  0
    9.1205    4.6466   -6.3486 C   0  0  1  0  0  0  0  0  0  0  0  0
    8.0264    4.6455   -5.1733 C   0  0  2  0  0  0  0  0  0  0  0  0
  1  2  1  0  0  0  0
  2  3  1  0  0  0  0
  2  7  2  0  0  0  0
  4  3  1  6  0  0  0
  4  5  1  0  0  0  0
  4  6  1  0  0  0  0
  4  8  1  0  0  0  0
  5  9  2  0  0  0  0
  6 13  1  0  0  0  0
  7 12  1  0  0  0  0
  8 19  2  0  0  0  0
 10  7  1  1  0  0  0
 10 14  1  0  0  0  0
 10 17  1  0  0  0  0
 11  8  1  6  0  0  0
 11 20  1  0  0  0  0
 11 32  1  0  0  0  0
 12 18  1  0  0  0  0
 12 30  1  1  0  0  0
 12 32  1  0  0  0  0
 13 16  2  0  0  0  0
 13 21  1  0  0  0  0
 14  5  1  1  0  0  0
 14 15  1  0  0  0  0
 14 20  1  0  0  0  0
 15 31  1  0  0  0  0
 15 44  1  0  0  0  0
 17 18  1  0  0  0  0
 17 23  1  0  0  0  0
 18 25  1  0  0  0  0
 18 26  1  0  0  0  0
 19 21  1  0  0  0  0
 19 35  1  0  0  0  0
 20 23  1  0  0  0  0
 21 22  2  0  0  0  0
 22 27  1  0  0  0  0
 23 24  1  0  0  0  0
 23 44  1  0  0  0  0
 24 26  1  0  0  0  0
 26 28  2  0  0  0  0
 27 34  2  0  0  0  0
 27 36  1  0  0  0  0
 28 29  1  0  0  0  0
 28 32  1  0  0  0  0
 29 39  2  0  0  0  0
 31 33  2  0  0  0  0
 31 38  1  0  0  0  0
 34 35  1  0  0  0  0
 34 50  1  0  0  0  0
 35 39  1  0  0  0  0
 36 37  1  0  0  0  0
 36 40  2  0  0  0  0
 37 41  1  0  0  0  0
 37 42  2  0  0  0  0
 39 55  1  0  0  0  0
 40 45  1  0  0  0  0
 40 46  1  0  0  0  0
 42 43  1  0  0  0  0
 43 46  2  0  0  0  0
 45 47  2  0  0  0  0
 45 48  2  0  0  0  0
 45 49  1  0  0  0  0
 49 52  1  0  0  0  0
 49 53  1  0  0  0  0
 50 51  2  0  0  0  0
 50 53  1  0  0  0  0
 52 54  1  0  0  0  0
 53 55  1  0  0  0  0
 53 56  1  0  0  0  0
 54 56  1  0  0  0  0
 55 56  1  0  0  0  0
M  END
$$$$

 OpenBabel10082411353D

 56 70  0  0  0  0  0  0  0  0999 V2000
    8.0806    9.0240  -12.7589 C   0  0  0  0  0  0  0  0  0  0  0  0
    8.6514    7.8645  -12.2948 C   0  0  0  0  0  0  0  0  0  0  0  0
    9.9575    7.9974  -11.8426 C   0  0  0  0  0  0  0  0  0  0  0  0
   10.7657    6.8667  -11.6050 C   0  0  1  0  0  0  0  0  0  0  0  0
   10.7682    5.9590  -12.8271 C   0  0  0  0  0  0  0  0  0  0  0  0
   12.1553    7.3846  -11.2315 C   0  0  0  0  0  0  0  0  0  0  0  0
    8.0676    6.6451  -12.2974 C   0  0  0  0  0  0  0  0  0  0  0  0
   10.1892    6.1240  -10.3860 C   0  0  0  0  0  0  0  0  0  0  0  0
   11.8375    5.4373  -13.3240 O   0  0  0  0  0  0  0  0  0  0  0  0
    8.6785    5.4761  -13.0273 C   0  0  1  0  0  0  0  0  0  0  0  0
    9.1969    5.2405  -10.4969 C   0  0  2  0  0  0  0  0  0  0  0  0
    7.2213    6.2210  -11.3074 C   0  0  2  0  0  0  0  0  0  0  0  0
   12.5590    7.6872   -9.9896 C   0  0  0  0  0  0  0  0  0  0  0  0
    9.7633    5.0333  -12.9720 C   0  0  1  0  0  0  0  0  0  0  0  0
   10.0661    4.0167  -14.0373 N   0  0  0  0  0  0  0  0  0  0  0  0
   13.6906    8.3004   -9.6233 O   0  0  0  0  0  0  0  0  0  0  0  0
    7.6357    4.5123  -12.6317 C   0  0  2  0  0  0  0  0  0  0  0  0
    6.8831    4.9171  -11.7031 C   0  0  2  0  0  0  0  0  0  0  0  0
   10.5937    6.6967   -9.1779 C   0  0  0  0  0  0  0  0  0  0  0  0
    9.5087    4.3263  -11.6925 C   0  0  2  0  0  0  0  0  0  0  0  0
   11.6359    7.4449   -8.9125 C   0  0  0  0  0  0  0  0  0  0  0  0
   11.9716    7.9159   -7.6200 C   0  0  0  0  0  0  0  0  0  0  0  0
    8.4648    3.6122  -12.2840 C   0  0  1  0  0  0  0  0  0  0  0  0
    7.9253    2.8004  -11.3926 C   0  0  0  0  0  0  0  0  0  0  0  0
    5.6047    4.5059  -11.7589 C   0  0  0  0  0  0  0  0  0  0  0  0
    7.6606    4.1297  -10.5699 C   0  0  0  0  0  0  0  0  0  0  0  0
   10.9559    7.6849   -6.6057 C   0  0  0  0  0  0  0  0  0  0  0  0
    8.0094    4.5092   -9.5664 C   0  0  0  0  0  0  0  0  0  0  0  0
    8.3033    4.0627   -8.4980 C   0  0  0  0  0  0  0  0  0  0  0  0
    6.3587    7.1012  -11.0392 O   0  0  0  0  0  0  0  0  0  0  0  0
   11.0186    3.9598  -14.9226 C   0  0  0  0  0  0  0  0  0  0  0  0
    8.1758    5.8633  -10.2511 C   0  0  1  0  0  0  0  0  0  0  0  0
   11.4648    2.7104  -15.2650 O   0  0  0  0  0  0  0  0  0  0  0  0
    9.9512    6.8220   -6.8436 C   0  0  0  0  0  0  0  0  0  0  0  0
    9.6899    6.3705   -8.1082 C   0  0  2  0  0  0  0  0  0  0  0  0
   11.2597    8.2901   -5.2396 C   0  0  0  0  0  0  0  0  0  0  0  0
   11.6068    9.7354   -5.2006 C   0  0  0  0  0  0  0  0  0  0  0  0
   10.9469    4.9352  -15.8306 C   0  0  0  0  0  0  0  0  0  0  0  0
    9.2417    4.9555   -7.8256 C   0  0  0  0  0  0  0  0  0  0  0  0
   11.3657    7.7043   -4.0379 C   0  0  0  0  0  0  0  0  0  0  0  0
   11.4469   10.6225   -6.4157 C   0  0  0  0  0  0  0  0  0  0  0  0
   11.9077   10.2897   -3.9889 C   0  0  0  0  0  0  0  0  0  0  0  0
   11.9472    9.5143   -2.8307 C   0  0  0  0  0  0  0  0  0  0  0  0
    9.3030    2.8335  -13.6243 C   0  0  0  0  0  0  0  0  0  0  0  0
   11.0706    6.0966   -4.1041 S   0  0  0  0  0  0  0  0  0  0  0  0
   11.7343    8.3349   -3.0045 C   0  0  0  0  0  0  0  0  0  0  0  0
   12.1398    5.5239   -4.8589 O   0  0  0  0  0  0  0  0  0  0  0  0
   11.2273    5.7924   -2.5132 O   0  0  0  0  0  0  0  0  0  0  0  0
    9.7296    5.7465   -4.5156 C   0  0  2  0  0  0  0  0  0  0  0  0
    8.8786    6.8007   -5.9523 C   0  0  0  0  0  0  0  0  0  0  0  0
    7.8637    7.2355   -6.3338 O   0  0  0  0  0  0  0  0  0  0  0  0
    9.2748    4.5977   -3.7261 C   0  0  0  0  0  0  0  0  0  0  0  0
    7.8333    4.3200   -3.9940 C   0  0  0  0  0  0  0  0  0  0  0  0
    8.9025    5.6450   -5.3994 C   0  0  1  0  0  0  0  0  0  0  0  0
    9.1448    4.6767   -6.4330 C   0  0  0  0  0  0  0  0  0  0  0  0
    7.6356    4.7744   -4.8124 C   0  0  0  0  0  0  0  0  0  0  0  0
  1  2  1  0  0  0  0
  2  3  1  0  0  0  0
  2  7  2  0  0  0  0
  4  3  1  6  0  0  0
  4  5  1  0  0  0  0
  4  6  1  0  0  0  0
  4  8  1  0  0  0  0
  5  9  2  0  0  0  0
  6 13  1  0  0  0  0
  7 12  1  0  0  0  0
  8 19  2  0  0  0  0
 10  7  1  1  0  0  0
 10 14  1  0  0  0  0
 10 17  1  0  0  0  0
 11  8  1  6  0  0  0
 11 20  1  0  0  0  0
 11 32  1  0  0  0  0
 12 18  1  0  0  0  0
 12 30  1  1  0  0  0
 12 32  1  0  0  0  0
 13 16  2  0  0  0  0
 13 21  1  0  0  0  0
 14  5  1  1  0  0  0
 14 15  1  0  0  0  0
 14 20  1  0  0  0  0
 15 31  1  0  0  0  0
 15 44  1  0  0  0  0
 17 18  1  0  0  0  0
 17 23  1  0  0  0  0
 18 25  1  0  0  0  0
 18 26  1  0  0  0  0
 19 21  1  0  0  0  0
 19 35  1  0  0  0  0
 20 23  1  0  0  0  0
 21 22  2  0  0  0  0
 22 27  1  0  0  0  0
 23 24  1  0  0  0  0
 23 44  1  0  0  0  0
 24 26  1  0  0  0  0
 26 28  2  0  0  0  0
 27 34  2  0  0  0  0
 27 36  1  0  0  0  0
 28 29  1  0  0  0  0
 28 32  1  0  0  0  0
 29 39  2  0  0  0  0
 31 33  2  0  0  0  0
 31 38  1  0  0  0  0
 34 35  1  0  0  0  0
 34 50  1  0  0  0  0
 35 39  1  0  0  0  0
 36 37  1  0  0  0  0
 36 40  2  0  0  0  0
 37 41  1  0  0  0  0
 37 42  2  0  0  0  0
 39 55  1  0  0  0  0
 40 45  1  0  0  0  0
 40 46  1  0  0  0  0
 42 43  1  0  0  0  0
 43 46  2  0  0  0  0
 45 47  2  0  0  0  0
 45 48  2  0  0  0  0
 45 49  1  0  0  0  0
 49 52  1  0  0  0  0
 49 54  1  0  0  0  0
 50 51  2  0  0  0  0
 50 54  1  0  0  0  0
 52 53  1  0  0  0  0
 53 56  1  0  0  0  0
 54 55  1  0  0  0  0
 54 56  1  0  0  0  0
M  END
$$$$

 OpenBabel10082411353D

 56 70  0  0  0  0  0  0  0  0999 V2000
    8.0806    9.0240  -12.7589 C   0  0  0  0  0  0  0  0  0  0  0  0
    8.6514    7.8645  -12.2948 C   0  0  0  0  0  0  0  0  0  0  0  0
    9.9575    7.9974  -11.8426 C   0  0  0  0  0  0  0  0  0  0  0  0
   10.7657    6.8667  -11.6050 C   0  0  1  0  0  0  0  0  0  0  0  0
   10.7682    5.9590  -12.8271 C   0  0  0  0  0  0  0  0  0  0  0  0
   12.1553    7.3846  -11.2315 C   0  0  0  0  0  0  0  0  0  0  0  0
    8.0676    6.6451  -12.2974 C   0  0  0  0  0  0  0  0  0  0  0  0
   10.1892    6.1240  -10.3860 C   0  0  0  0  0  0  0  0  0  0  0  0
   11.8375    5.4373  -13.3240 O   0  0  0  0  0  0  0  0  0  0  0  0
    8.6785    5.4761  -13.0273 C   0  0  1  0  0  0  0  0  0  0  0  0
    9.1969    5.2405  -10.4969 C   0  0  2  0  0  0  0  0  0  0  0  0
    7.2213    6.2210  -11.3074 C   0  0  2  0  0  0  0  0  0  0  0  0
   12.5590    7.6872   -9.9896 C   0  0  0  0  0  0  0  0  0  0  0  0
    9.7633    5.0333  -12.9720 C   0  0  1  0  0  0  0  0  0  0  0  0
   10.0661    4.0167  -14.0373 N   0  0  0  0  0  0  0  0  0  0  0  0
   13.6906    8.3004   -9.6233 O   0  0  0  0  0  0  0  0  0  0  0  0
    7.6357    4.5123  -12.6317 C   0  0  2  0  0  0  0  0  0  0  0  0
    6.8831    4.9171  -11.7031 C   0  0  2  0  0  0  0  0  0  0  0  0
   10.5937    6.6967   -9.1779 C   0  0  0  0  0  0  0  0  0  0  0  0
    9.5087    4.3263  -11.6925 C   0  0  2  0  0  0  0  0  0  0  0  0
   11.6359    7.4449   -8.9125 C   0  0  0  0  0  0  0  0  0  0  0  0
   11.9716    7.9159   -7.6200 C   0  0  0  0  0  0  0  0  0  0  0  0
    8.4648    3.6122  -12.2840 C   0  0  1  0  0  0  0  0  0  0  0  0
    7.9253    2.8004  -11.3926 C   0  0  0  0  0  0  0  0  0  0  0  0
    5.6047    4.5059  -11.7589 C   0  0  0  0  0  0  0  0  0  0  0  0
    7.6606    4.1297  -10.5699 C   0  0  0  0  0  0  0  0  0  0  0  0
   10.9559    7.6849   -6.6057 C   0  0  0  0  0  0  0  0  0  0  0  0
    8.0094    4.5092   -9.5664 C   0  0  0  0  0  0  0  0  0  0  0  0
    8.3033    4.0627   -8.4980 C   0  0  0  0  0  0  0  0  0  0  0  0
    6.3587    7.1012  -11.0392 O   0  0  0  0  0  0  0  0  0  0  0  0
   11.0186    3.9598  -14.9226 C   0  0  0  0  0  0  0  0  0  0  0  0
    8.1758    5.8633  -10.2511 C   0  0  1  0  0  0  0  0  0  0  0  0
   11.4648    2.7104  -15.2650 O   0  0  0  0  0  0  0  0  0  0  0  0
    9.9512    6.8220   -6.8436 C   0  0  0  0  0  0  0  0  0  0  0  0
    9.6899    6.3705   -8.1082 C   0  0  2  0  0  0  0  0  0  0  0  0
   11.2597    8.2901   -5.2396 C   0  0  0  0  0  0  0  0  0  0  0  0
   11.6068    9.7354   -5.2006 C   0  0  0  0  0  0  0  0  0  0  0  0
   10.9469    4.9352  -15.8306 C   0  0  0  0  0  0  0  0  0  0  0  0
    9.2417    4.9555   -7.8256 C   0  0  0  0  0  0  0  0  0  0  0  0
   11.3657    7.7043   -4.0379 C   0  0  0  0  0  0  0  0  0  0  0  0
   11.4469   10.6225   -6.4157 C   0  0  0  0  0  0  0  0  0  0  0  0
   11.9077   10.2897   -3.9889 C   0  0  0  0  0  0  0  0  0  0  0  0
   11.9472    9.5143   -2.8307 C   0  0  0  0  0  0  0  0  0  0  0  0
    9.3030    2.8335  -13.6243 C   0  0  0  0  0  0  0  0  0  0  0  0
   11.0706    6.0966   -4.1041 S   0  0  0  0  0  0  0  0  0  0  0  0
   11.7343    8.3349   -3.0045 C   0  0  0  0  0  0  0  0  0  0  0  0
   12.1398    5.5239   -4.8589 O   0  0  0  0  0  0  0  0  0  0  0  0
   11.2273    5.7924   -2.5132 O   0  0  0  0  0  0  0  0  0  0  0  0
    9.7296    5.7465   -4.5156 C   0  0  2  0  0  0  0  0  0  0  0  0
    8.8786    6.8007   -5.9523 C   0  0  0  0  0  0  0  0  0  0  0  0
    7.8637    7.2355   -6.3338 O   0  0  0  0  0  0  0  0  0  0  0  0
    9.2748    4.5977   -3.7261 C   0  0  0  0  0  0  0  0  0  0  0  0
    8.8685    5.6587   -5.3479 C   0  0  2  0  0  0  0  0  0  0  0  0
    7.9472    4.2338   -4.1951 C   0  0  0  0  0  0  0  0  0  0  0  0
    7.8565    5.2915   -4.6992 C   0  0  0  0  0  0  0  0  0  0  0  0
    9.2630    4.5777   -6.3461 N   0  0  0  0  0  0  0  0  0  0  0  0
  1  2  1  0  0  0  0
  2  3  1  0  0  0  0
  2  7  2  0  0  0  0
  4  3  1  6  0  0  0
  4  5  1  0  0  0  0
  4  6  1  0  0  0  0
  4  8  1  0  0  0  0
  5  9  2  0  0  0  0
  6 13  1  0  0  0  0
  7 12  1  0  0  0  0
  8 19  2  0  0  0  0
 10  7  1  1  0  0  0
 10 14  1  0  0  0  0
 10 17  1  0  0  0  0
 11  8  1  6  0  0  0
 11 20  1  0  0  0  0
 11 32  1  0  0  0  0
 12 18  1  0  0  0  0
 12 30  1  1  0  0  0
 12 32  1  0  0  0  0
 13 16  2  0  0  0  0
 13 21  1  0  0  0  0
 14  5  1  1  0  0  0
 14 15  1  0  0  0  0
 14 20  1  0  0  0  0
 15 31  1  0  0  0  0
 15 44  1  0  0  0  0
 17 18  1  0  0  0  0
 17 23  1  0  0  0  0
 18 25  1  0  0  0  0
 18 26  1  0  0  0  0
 19 21  1  0  0  0  0
 19 35  1  0  0  0  0
 20 23  1  0  0  0  0
 21 22  2  0  0  0  0
 22 27  1  0  0  0  0
 23 24  1  0  0  0  0
 23 44  1  0  0  0  0
 24 26  1  0  0  0  0
 26 28  2  0  0  0  0
 27 34  2  0  0  0  0
 27 36  1  0  0  0  0
 28 29  1  0  0  0  0
 28 32  1  0  0  0  0
 29 39  2  0  0  0  0
 31 33  2  0  0  0  0
 31 38  1  0  0  0  0
 34 35  1  0  0  0  0
 34 50  1  0  0  0  0
 35 39  1  0  0  0  0
 36 37  1  0  0  0  0
 36 40  2  0  0  0  0
 37 41  1  0  0  0  0
 37 42  2  0  0  0  0
 39 56  1  0  0  0  0
 40 45  1  0  0  0  0
 40 46  1  0  0  0  0
 42 43  1  0  0  0  0
 43 46  2  0  0  0  0
 45 47  2  0  0  0  0
 45 48  2  0  0  0  0
 45 49  1  0  0  0  0
 49 52  1  0  0  0  0
 49 53  1  0  0  0  0
 50 51  2  0  0  0  0
 50 53  1  0  0  0  0
 52 54  1  0  0  0  0
 53 55  1  0  0  0  0
 53 56  1  0  0  0  0
 54 55  1  0  0  0  0
M  END
$$$$

 OpenBabel10082411353D

 56 70  0  0  0  0  0  0  0  0999 V2000
    8.0806    9.0240  -12.7589 C   0  0  0  0  0  0  0  0  0  0  0  0
    8.6514    7.8645  -12.2948 C   0  0  0  0  0  0  0  0  0  0  0  0
    9.9575    7.9974  -11.8426 C   0  0  0  0  0  0  0  0  0  0  0  0
   10.7657    6.8667  -11.6050 C   0  0  1  0  0  0  0  0  0  0  0  0
   10.7682    5.9590  -12.8271 C   0  0  0  0  0  0  0  0  0  0  0  0
   12.1553    7.3846  -11.2315 C   0  0  0  0  0  0  0  0  0  0  0  0
    8.0676    6.6451  -12.2974 C   0  0  0  0  0  0  0  0  0  0  0  0
   10.1892    6.1240  -10.3860 C   0  0  0  0  0  0  0  0  0  0  0  0
   11.8375    5.4373  -13.3240 O   0  0  0  0  0  0  0  0  0  0  0  0
    8.6785    5.4761  -13.0273 C   0  0  1  0  0  0  0  0  0  0  0  0
    9.1969    5.2405  -10.4969 C   0  0  2  0  0  0  0  0  0  0  0  0
    7.2213    6.2210  -11.3074 C   0  0  2  0  0  0  0  0  0  0  0  0
   12.5590    7.6872   -9.9896 C   0  0  0  0  0  0  0  0  0  0  0  0
    9.7633    5.0333  -12.9720 C   0  0  1  0  0  0  0  0  0  0  0  0
   10.0661    4.0167  -14.0373 N   0  0  0  0  0  0  0  0  0  0  0  0
   13.6906    8.3004   -9.6233 O   0  0  0  0  0  0  0  0  0  0  0  0
    7.6357    4.5123  -12.6317 C   0  0  2  0  0  0  0  0  0  0  0  0
    6.8831    4.9171  -11.7031 C   0  0  2  0  0  0  0  0  0  0  0  0
   10.5937    6.6967   -9.1779 C   0  0  0  0  0  0  0  0  0  0  0  0
    9.5087    4.3263  -11.6925 C   0  0  2  0  0  0  0  0  0  0  0  0
   11.6359    7.4449   -8.9125 C   0  0  0  0  0  0  0  0  0  0  0  0
   11.9716    7.9159   -7.6200 C   0  0  0  0  0  0  0  0  0  0  0  0
    8.4648    3.6122  -12.2840 C   0  0  1  0  0  0  0  0  0  0  0  0
    7.9253    2.8004  -11.3926 C   0  0  0  0  0  0  0  0  0  0  0  0
    5.6047    4.5059  -11.7589 C   0  0  0  0  0  0  0  0  0  0  0  0
    7.6606    4.1297  -10.5699 C   0  0  0  0  0  0  0  0  0  0  0  0
   10.9559    7.6849   -6.6057 C   0  0  0  0  0  0  0  0  0  0  0  0
    8.0094    4.5092   -9.5664 C   0  0  0  0  0  0  0  0  0  0  0  0
    8.3033    4.0627   -8.4980 C   0  0  0  0  0  0  0  0  0  0  0  0
    6.3587    7.1012  -11.0392 O   0  0  0  0  0  0  0  0  0  0  0  0
   11.0186    3.9598  -14.9226 C   0  0  0  0  0  0  0  0  0  0  0  0
    8.1758    5.8633  -10.2511 C   0  0  1  0  0  0  0  0  0  0  0  0
   11.4648    2.7104  -15.2650 O   0  0  0  0  0  0  0  0  0  0  0  0
    9.9512    6.8220   -6.8436 C   0  0  0  0  0  0  0  0  0  0  0  0
    9.6899    6.3705   -8.1082 C   0  0  2  0  0  0  0  0  0  0  0  0
   11.2597    8.2901   -5.2396 C   0  0  0  0  0  0  0  0  0  0  0  0
   11.6068    9.7354   -5.2006 C   0  0  0  0  0  0  0  0  0  0  0  0
   10.9469    4.9352  -15.8306 C   0  0  0  0  0  0  0  0  0  0  0  0
    9.2417    4.9555   -7.8256 C   0  0  0  0  0  0  0  0  0  0  0  0
   11.3657    7.7043   -4.0379 C   0  0  0  0  0  0  0  0  0  0  0  0
   11.4469   10.6225   -6.4157 C   0  0  0  0  0  0  0  0  0  0  0  0
   11.9077   10.2897   -3.9889 C   0  0  0  0  0  0  0  0  0  0  0  0
   11.9472    9.5143   -2.8307 C   0  0  0  0  0  0  0  0  0  0  0  0
    9.3030    2.8335  -13.6243 C   0  0  0  0  0  0  0  0  0  0  0  0
   11.0706    6.0966   -4.1041 S   0  0  0  0  0  0  0  0  0  0  0  0
   11.7343    8.3349   -3.0045 C   0  0  0  0  0  0  0  0  0  0  0  0
   12.1398    5.5239   -4.8589 O   0  0  0  0  0  0  0  0  0  0  0  0
   11.2273    5.7924   -2.5132 O   0  0  0  0  0  0  0  0  0  0  0  0
    9.7296    5.7465   -4.5156 C   0  0  2  0  0  0  0  0  0  0  0  0
    8.8786    6.8007   -5.9523 C   0  0  0  0  0  0  0  0  0  0  0  0
    7.8637    7.2355   -6.3338 O   0  0  0  0  0  0  0  0  0  0  0  0
    9.2748    4.5977   -3.7261 C   0  0  0  0  0  0  0  0  0  0  0  0
    8.8685    5.6587   -5.3479 C   0  0  2  0  0  0  0  0  0  0  0  0
    7.9472    4.2338   -4.1951 C   0  0  0  0  0  0  0  0  0  0  0  0
    7.8565    5.2915   -4.6992 N   0  0  0  0  0  0  0  0  0  0  0  0
    9.1938    4.7064   -6.4335 C   0  0  0  0  0  0  0  0  0  0  0  0
  1  2  1  0  0  0  0
  2  3  1  0  0  0  0
  2  7  2  0  0  0  0
  4  3  1  6  0  0  0
  4  5  1  0  0  0  0
  4  6  1  0  0  0  0
  4  8  1  0  0  0  0
  5  9  2  0  0  0  0
  6 13  1  0  0  0  0
  7 12  1  0  0  0  0
  8 19  2  0  0  0  0
 10  7  1  1  0  0  0
 10 14  1  0  0  0  0
 10 17  1  0  0  0  0
 11  8  1  6  0  0  0
 11 20  1  0  0  0  0
 11 32  1  0  0  0  0
 12 18  1  0  0  0  0
 12 30  1  1  0  0  0
 12 32  1  0  0  0  0
 13 16  2  0  0  0  0
 13 21  1  0  0  0  0
 14  5  1  1  0  0  0
 14 15  1  0  0  0  0
 14 20  1  0  0  0  0
 15 31  1  0  0  0  0
 15 44  1  0  0  0  0
 17 18  1  0  0  0  0
 17 23  1  0  0  0  0
 18 25  1  0  0  0  0
 18 26  1  0  0  0  0
 19 21  1  0  0  0  0
 19 35  1  0  0  0  0
 20 23  1  0  0  0  0
 21 22  2  0  0  0  0
 22 27  1  0  0  0  0
 23 24  1  0  0  0  0
 23 44  1  0  0  0  0
 24 26  1  0  0  0  0
 26 28  2  0  0  0  0
 27 34  2  0  0  0  0
 27 36  1  0  0  0  0
 28 29  1  0  0  0  0
 28 32  1  0  0  0  0
 29 39  2  0  0  0  0
 31 33  2  0  0  0  0
 31 38  1  0  0  0  0
 34 35  1  0  0  0  0
 34 50  1  0  0  0  0
 35 39  1  0  0  0  0
 36 37  1  0  0  0  0
 36 40  2  0  0  0  0
 37 41  1  0  0  0  0
 37 42  2  0  0  0  0
 39 56  1  0  0  0  0
 40 45  1  0  0  0  0
 40 46  1  0  0  0  0
 42 43  1  0  0  0  0
 43 46  2  0  0  0  0
 45 47  2  0  0  0  0
 45 48  2  0  0  0  0
 45 49  1  0  0  0  0
 49 52  1  0  0  0  0
 49 53  1  0  0  0  0
 50 51  2  0  0  0  0
 50 53  1  0  0  0  0
 52 54  1  0  0  0  0
 53 55  1  0  0  0  0
 53 56  1  0  0  0  0
 54 55  1  0  0  0  0
M  END
$$$$

 OpenBabel10082411353D

 56 70  0  0  0  0  0  0  0  0999 V2000
    8.0806    9.0240  -12.7589 C   0  0  0  0  0  0  0  0  0  0  0  0
    8.6514    7.8645  -12.2948 C   0  0  0  0  0  0  0  0  0  0  0  0
    9.9575    7.9974  -11.8426 C   0  0  0  0  0  0  0  0  0  0  0  0
   10.7657    6.8667  -11.6050 C   0  0  1  0  0  0  0  0  0  0  0  0
   10.7682    5.9590  -12.8271 C   0  0  0  0  0  0  0  0  0  0  0  0
   12.1553    7.3846  -11.2315 C   0  0  0  0  0  0  0  0  0  0  0  0
    8.0676    6.6451  -12.2974 C   0  0  0  0  0  0  0  0  0  0  0  0
   10.1892    6.1240  -10.3860 C   0  0  0  0  0  0  0  0  0  0  0  0
   11.8375    5.4373  -13.3240 O   0  0  0  0  0  0  0  0  0  0  0  0
    8.6785    5.4761  -13.0273 C   0  0  1  0  0  0  0  0  0  0  0  0
    9.1969    5.2405  -10.4969 C   0  0  2  0  0  0  0  0  0  0  0  0
    7.2213    6.2210  -11.3074 C   0  0  2  0  0  0  0  0  0  0  0  0
   12.5590    7.6872   -9.9896 C   0  0  0  0  0  0  0  0  0  0  0  0
    9.7633    5.0333  -12.9720 C   0  0  1  0  0  0  0  0  0  0  0  0
   10.0661    4.0167  -14.0373 N   0  0  0  0  0  0  0  0  0  0  0  0
   13.6906    8.3004   -9.6233 O   0  0  0  0  0  0  0  0  0  0  0  0
    7.6357    4.5123  -12.6317 C   0  0  2  0  0  0  0  0  0  0  0  0
    6.8831    4.9171  -11.7031 C   0  0  2  0  0  0  0  0  0  0  0  0
   10.5937    6.6967   -9.1779 C   0  0  0  0  0  0  0  0  0  0  0  0
    9.5087    4.3263  -11.6925 C   0  0  2  0  0  0  0  0  0  0  0  0
   11.6359    7.4449   -8.9125 C   0  0  0  0  0  0  0  0  0  0  0  0
   11.9716    7.9159   -7.6200 C   0  0  0  0  0  0  0  0  0  0  0  0
    8.4648    3.6122  -12.2840 C   0  0  1  0  0  0  0  0  0  0  0  0
    7.9253    2.8004  -11.3926 C   0  0  0  0  0  0  0  0  0  0  0  0
    5.6047    4.5059  -11.7589 C   0  0  0  0  0  0  0  0  0  0  0  0
    7.6606    4.1297  -10.5699 C   0  0  0  0  0  0  0  0  0  0  0  0
   10.9559    7.6849   -6.6057 C   0  0  0  0  0  0  0  0  0  0  0  0
    8.0094    4.5092   -9.5664 C   0  0  0  0  0  0  0  0  0  0  0  0
    8.3033    4.0627   -8.4980 C   0  0  0  0  0  0  0  0  0  0  0  0
    6.3587    7.1012  -11.0392 O   0  0  0  0  0  0  0  0  0  0  0  0
   11.0186    3.9598  -14.9226 C   0  0  0  0  0  0  0  0  0  0  0  0
    8.1758    5.8633  -10.2511 C   0  0  1  0  0  0  0  0  0  0  0  0
   11.4648    2.7104  -15.2650 O   0  0  0  0  0  0  0  0  0  0  0  0
    9.9512    6.8220   -6.8436 C   0  0  0  0  0  0  0  0  0  0  0  0
    9.6899    6.3705   -8.1082 C   0  0  2  0  0  0  0  0  0  0  0  0
   11.2597    8.2901   -5.2396 C   0  0  0  0  0  0  0  0  0  0  0  0
   11.6068    9.7354   -5.2006 C   0  0  0  0  0  0  0  0  0  0  0  0
   10.9469    4.9352  -15.8306 C   0  0  0  0  0  0  0  0  0  0  0  0
    9.2417    4.9555   -7.8256 C   0  0  0  0  0  0  0  0  0  0  0  0
   11.3657    7.7043   -4.0379 C   0  0  0  0  0  0  0  0  0  0  0  0
   11.4469   10.6225   -6.4157 C   0  0  0  0  0  0  0  0  0  0  0  0
   11.9077   10.2897   -3.9889 C   0  0  0  0  0  0  0  0  0  0  0  0
   11.9472    9.5143   -2.8307 C   0  0  0  0  0  0  0  0  0  0  0  0
    9.3030    2.8335  -13.6243 C   0  0  0  0  0  0  0  0  0  0  0  0
   11.0706    6.0966   -4.1041 S   0  0  0  0  0  0  0  0  0  0  0  0
   11.7343    8.3349   -3.0045 C   0  0  0  0  0  0  0  0  0  0  0  0
   12.1398    5.5239   -4.8589 O   0  0  0  0  0  0  0  0  0  0  0  0
   11.2273    5.7924   -2.5132 O   0  0  0  0  0  0  0  0  0  0  0  0
    9.7296    5.7465   -4.5156 C   0  0  2  0  0  0  0  0  0  0  0  0
    8.8786    6.8007   -5.9523 C   0  0  0  0  0  0  0  0  0  0  0  0
    9.3176    4.5037   -3.9953 C   0  0  0  0  0  0  0  0  0  0  0  0
    7.8548    7.3603   -6.2401 O   0  0  0  0  0  0  0  0  0  0  0  0
    8.8510    5.6334   -5.4201 C   0  0  1  0  0  0  0  0  0  0  0  0
    9.1691    4.5700   -6.3537 N   0  0  0  0  0  0  0  0  0  0  0  0
    8.2621    3.5554   -5.8649 C   0  0  0  0  0  0  0  0  0  0  0  0
    8.4871    3.5012   -4.6395 C   0  0  0  0  0  0  0  0  0  0  0  0
  1  2  1  0  0  0  0
  2  3  1  0  0  0  0
  2  7  2  0  0  0  0
  4  3  1  6  0  0  0
  4  5  1  0  0  0  0
  4  6  1  0  0  0  0
  4  8  1  0  0  0  0
  5  9  2  0  0  0  0
  6 13  1  0  0  0  0
  7 12  1  0  0  0  0
  8 19  2  0  0  0  0
 10  7  1  1  0  0  0
 10 14  1  0  0  0  0
 10 17  1  0  0  0  0
 11  8  1  6  0  0  0
 11 20  1  0  0  0  0
 11 32  1  0  0  0  0
 12 18  1  0  0  0  0
 12 30  1  1  0  0  0
 12 32  1  0  0  0  0
 13 16  2  0  0  0  0
 13 21  1  0  0  0  0
 14  5  1  1  0  0  0
 14 15  1  0  0  0  0
 14 20  1  0  0  0  0
 15 31  1  0  0  0  0
 15 44  1  0  0  0  0
 17 18  1  0  0  0  0
 17 23  1  0  0  0  0
 18 25  1  0  0  0  0
 18 26  1  0  0  0  0
 19 21  1  0  0  0  0
 19 35  1  0  0  0  0
 20 23  1  0  0  0  0
 21 22  2  0  0  0  0
 22 27  1  0  0  0  0
 23 24  1  0  0  0  0
 23 44  1  0  0  0  0
 24 26  1  0  0  0  0
 26 28  2  0  0  0  0
 27 34  2  0  0  0  0
 27 36  1  0  0  0  0
 28 29  1  0  0  0  0
 28 32  1  0  0  0  0
 29 39  2  0  0  0  0
 31 33  2  0  0  0  0
 31 38  1  0  0  0  0
 34 35  1  0  0  0  0
 34 50  1  0  0  0  0
 35 39  1  0  0  0  0
 36 37  1  0  0  0  0
 36 40  2  0  0  0  0
 37 41  1  0  0  0  0
 37 42  2  0  0  0  0
 39 54  1  0  0  0  0
 40 45  1  0  0  0  0
 40 46  1  0  0  0  0
 42 43  1  0  0  0  0
 43 46  2  0  0  0  0
 45 47  2  0  0  0  0
 45 48  2  0  0  0  0
 45 49  1  0  0  0  0
 49 51  1  0  0  0  0
 49 53  1  0  0  0  0
 50 52  2  0  0  0  0
 50 53  1  0  0  0  0
 51 56  1  0  0  0  0
 53 54  1  0  0  0  0
 54 55  1  0  0  0  0
 55 56  2  0  0  0  0
M  END
$$$$

 OpenBabel10082411353D

 56 70  0  0  0  0  0  0  0  0999 V2000
    8.0806    9.0240  -12.7589 C   0  0  0  0  0  0  0  0  0  0  0  0
    8.6514    7.8645  -12.2948 C   0  0  0  0  0  0  0  0  0  0  0  0
    9.9575    7.9974  -11.8426 C   0  0  0  0  0  0  0  0  0  0  0  0
   10.7657    6.8667  -11.6050 C   0  0  1  0  0  0  0  0  0  0  0  0
   10.7682    5.9590  -12.8271 C   0  0  0  0  0  0  0  0  0  0  0  0
   12.1553    7.3846  -11.2315 C   0  0  0  0  0  0  0  0  0  0  0  0
    8.0676    6.6451  -12.2974 C   0  0  0  0  0  0  0  0  0  0  0  0
   10.1892    6.1240  -10.3860 C   0  0  0  0  0  0  0  0  0  0  0  0
   11.8375    5.4373  -13.3240 O   0  0  0  0  0  0  0  0  0  0  0  0
    8.6785    5.4761  -13.0273 C   0  0  1  0  0  0  0  0  0  0  0  0
    9.1969    5.2405  -10.4969 C   0  0  2  0  0  0  0  0  0  0  0  0
    7.2213    6.2210  -11.3074 C   0  0  2  0  0  0  0  0  0  0  0  0
   12.5590    7.6872   -9.9896 C   0  0  0  0  0  0  0  0  0  0  0  0
    9.7633    5.0333  -12.9720 C   0  0  1  0  0  0  0  0  0  0  0  0
   10.0661    4.0167  -14.0373 N   0  0  0  0  0  0  0  0  0  0  0  0
   13.6906    8.3004   -9.6233 O   0  0  0  0  0  0  0  0  0  0  0  0
    7.6357    4.5123  -12.6317 C   0  0  2  0  0  0  0  0  0  0  0  0
    6.8831    4.9171  -11.7031 C   0  0  2  0  0  0  0  0  0  0  0  0
   10.5937    6.6967   -9.1779 C   0  0  0  0  0  0  0  0  0  0  0  0
    9.5087    4.3263  -11.6925 C   0  0  2  0  0  0  0  0  0  0  0  0
   11.6359    7.4449   -8.9125 C   0  0  0  0  0  0  0  0  0  0  0  0
   11.9716    7.9159   -7.6200 C   0  0  0  0  0  0  0  0  0  0  0  0
    8.4648    3.6122  -12.2840 C   0  0  1  0  0  0  0  0  0  0  0  0
    7.9253    2.8004  -11.3926 C   0  0  0  0  0  0  0  0  0  0  0  0
    5.6047    4.5059  -11.7589 C   0  0  0  0  0  0  0  0  0  0  0  0
    7.6606    4.1297  -10.5699 C   0  0  0  0  0  0  0  0  0  0  0  0
   10.9559    7.6849   -6.6057 C   0  0  0  0  0  0  0  0  0  0  0  0
    8.0094    4.5092   -9.5664 C   0  0  0  0  0  0  0  0  0  0  0  0
    8.3033    4.0627   -8.4980 C   0  0  0  0  0  0  0  0  0  0  0  0
    6.3587    7.1012  -11.0392 O   0  0  0  0  0  0  0  0  0  0  0  0
   11.0186    3.9598  -14.9226 C   0  0  0  0  0  0  0  0  0  0  0  0
    8.1758    5.8633  -10.2511 C   0  0  1  0  0  0  0  0  0  0  0  0
   11.4648    2.7104  -15.2650 O   0  0  0  0  0  0  0  0  0  0  0  0
    9.9512    6.8220   -6.8436 C   0  0  0  0  0  0  0  0  0  0  0  0
    9.6899    6.3705   -8.1082 C   0  0  2  0  0  0  0  0  0  0  0  0
   11.2597    8.2901   -5.2396 C   0  0  0  0  0  0  0  0  0  0  0  0
   11.6068    9.7354   -5.2006 C   0  0  0  0  0  0  0  0  0  0  0  0
   10.9469    4.9352  -15.8306 C   0  0  0  0  0  0  0  0  0  0  0  0
    9.2417    4.9555   -7.8256 C   0  0  0  0  0  0  0  0  0  0  0  0
   11.3657    7.7043   -4.0379 C   0  0  0  0  0  0  0  0  0  0  0  0
   11.4469   10.6225   -6.4157 C   0  0  0  0  0  0  0  0  0  0  0  0
   11.9077   10.2897   -3.9889 C   0  0  0  0  0  0  0  0  0  0  0  0
   11.9472    9.5143   -2.8307 C   0  0  0  0  0  0  0  0  0  0  0  0
    9.3030    2.8335  -13.6243 C   0  0  0  0  0  0  0  0  0  0  0  0
   11.0706    6.0966   -4.1041 S   0  0  0  0  0  0  0  0  0  0  0  0
   11.7343    8.3349   -3.0045 C   0  0  0  0  0  0  0  0  0  0  0  0
   12.1398    5.5239   -4.8589 O   0  0  0  0  0  0  0  0  0  0  0  0
   11.2273    5.7924   -2.5132 O   0  0  0  0  0  0  0  0  0  0  0  0
    9.7296    5.7465   -4.5156 C   0  0  2  0  0  0  0  0  0  0  0  0
    8.8786    6.8007   -5.9523 C   0  0  0  0  0  0  0  0  0  0  0  0
    7.8637    7.2355   -6.3338 O   0  0  0  0  0  0  0  0  0  0  0  0
    9.2748    4.5977   -3.7261 C   0  0  0  0  0  0  0  0  0  0  0  0
    8.8685    5.6587   -5.3479 C   0  0  2  0  0  0  0  0  0  0  0  0
    7.9472    4.2338   -4.1951 C   0  0  0  0  0  0  0  0  0  0  0  0
    7.8565    5.2915   -4.6992 N   0  0  0  0  0  0  0  0  0  0  0  0
    9.1938    4.7064   -6.4335 N   0  0  0  0  0  0  0  0  0  0  0  0
  1  2  1  0  0  0  0
  2  3  1  0  0  0  0
  2  7  2  0  0  0  0
  4  3  1  6  0  0  0
  4  5  1  0  0  0  0
  4  6  1  0  0  0  0
  4  8  1  0  0  0  0
  5  9  2  0  0  0  0
  6 13  1  0  0  0  0
  7 12  1  0  0  0  0
  8 19  2  0  0  0  0
 10  7  1  1  0  0  0
 10 14  1  0  0  0  0
 10 17  1  0  0  0  0
 11  8  1  6  0  0  0
 11 20  1  0  0  0  0
 11 32  1  0  0  0  0
 12 18  1  0  0  0  0
 12 30  1  1  0  0  0
 12 32  1  0  0  0  0
 13 16  2  0  0  0  0
 13 21  1  0  0  0  0
 14  5  1  1  0  0  0
 14 15  1  0  0  0  0
 14 20  1  0  0  0  0
 15 31  1  0  0  0  0
 15 44  1  0  0  0  0
 17 18  1  0  0  0  0
 17 23  1  0  0  0  0
 18 25  1  0  0  0  0
 18 26  1  0  0  0  0
 19 21  1  0  0  0  0
 19 35  1  0  0  0  0
 20 23  1  0  0  0  0
 21 22  2  0  0  0  0
 22 27  1  0  0  0  0
 23 24  1  0  0  0  0
 23 44  1  0  0  0  0
 24 26  1  0  0  0  0
 26 28  2  0  0  0  0
 27 34  2  0  0  0  0
 27 36  1  0  0  0  0
 28 29  1  0  0  0  0
 28 32  1  0  0  0  0
 29 39  2  0  0  0  0
 31 33  2  0  0  0  0
 31 38  1  0  0  0  0
 34 35  1  0  0  0  0
 34 50  1  0  0  0  0
 35 39  1  0  0  0  0
 36 37  1  0  0  0  0
 36 40  2  0  0  0  0
 37 41  1  0  0  0  0
 37 42  2  0  0  0  0
 39 56  1  0  0  0  0
 40 45  1  0  0  0  0
 40 46  1  0  0  0  0
 42 43  1  0  0  0  0
 43 46  2  0  0  0  0
 45 47  2  0  0  0  0
 45 48  2  0  0  0  0
 45 49  1  0  0  0  0
 49 52  1  0  0  0  0
 49 53  1  0  0  0  0
 50 51  2  0  0  0  0
 50 53  1  0  0  0  0
 52 54  1  0  0  0  0
 53 55  1  0  0  0  0
 53 56  1  0  0  0  0
 54 55  1  0  0  0  0
M  END
$$$$

 OpenBabel10082411353D

 56 70  0  0  0  0  0  0  0  0999 V2000
    8.0806    9.0240  -12.7589 C   0  0  0  0  0  0  0  0  0  0  0  0
    8.6514    7.8645  -12.2948 C   0  0  0  0  0  0  0  0  0  0  0  0
    9.9575    7.9974  -11.8426 C   0  0  0  0  0  0  0  0  0  0  0  0
   10.7657    6.8667  -11.6050 C   0  0  1  0  0  0  0  0  0  0  0  0
   10.7682    5.9590  -12.8271 C   0  0  0  0  0  0  0  0  0  0  0  0
   12.1553    7.3846  -11.2315 C   0  0  0  0  0  0  0  0  0  0  0  0
    8.0676    6.6451  -12.2974 C   0  0  0  0  0  0  0  0  0  0  0  0
   10.1892    6.1240  -10.3860 C   0  0  0  0  0  0  0  0  0  0  0  0
   11.8375    5.4373  -13.3240 O   0  0  0  0  0  0  0  0  0  0  0  0
    8.6785    5.4761  -13.0273 C   0  0  1  0  0  0  0  0  0  0  0  0
    9.1969    5.2405  -10.4969 C   0  0  2  0  0  0  0  0  0  0  0  0
    7.2213    6.2210  -11.3074 C   0  0  2  0  0  0  0  0  0  0  0  0
   12.5590    7.6872   -9.9896 C   0  0  0  0  0  0  0  0  0  0  0  0
    9.7633    5.0333  -12.9720 C   0  0  1  0  0  0  0  0  0  0  0  0
   10.0661    4.0167  -14.0373 N   0  0  0  0  0  0  0  0  0  0  0  0
   13.6906    8.3004   -9.6233 O   0  0  0  0  0  0  0  0  0  0  0  0
    7.6357    4.5123  -12.6317 C   0  0  2  0  0  0  0  0  0  0  0  0
    6.8831    4.9171  -11.7031 C   0  0  2  0  0  0  0  0  0  0  0  0
   10.5937    6.6967   -9.1779 C   0  0  0  0  0  0  0  0  0  0  0  0
    9.5087    4.3263  -11.6925 C   0  0  2  0  0  0  0  0  0  0  0  0
   11.6359    7.4449   -8.9125 C   0  0  0  0  0  0  0  0  0  0  0  0
   11.9716    7.9159   -7.6200 C   0  0  0  0  0  0  0  0  0  0  0  0
    8.4648    3.6122  -12.2840 C   0  0  1  0  0  0  0  0  0  0  0  0
    7.9253    2.8004  -11.3926 C   0  0  0  0  0  0  0  0  0  0  0  0
    5.6047    4.5059  -11.7589 C   0  0  0  0  0  0  0  0  0  0  0  0
    7.6606    4.1297  -10.5699 C   0  0  0  0  0  0  0  0  0  0  0  0
   10.9559    7.6849   -6.6057 C   0  0  0  0  0  0  0  0  0  0  0  0
    8.0094    4.5092   -9.5664 C   0  0  0  0  0  0  0  0  0  0  0  0
    8.3033    4.0627   -8.4980 C   0  0  0  0  0  0  0  0  0  0  0  0
    6.3587    7.1012  -11.0392 O   0  0  0  0  0  0  0  0  0  0  0  0
   11.0186    3.9598  -14.9226 C   0  0  0  0  0  0  0  0  0  0  0  0
    8.1758    5.8633  -10.2511 C   0  0  1  0  0  0  0  0  0  0  0  0
   11.4648    2.7104  -15.2650 O   0  0  0  0  0  0  0  0  0  0  0  0
    9.9512    6.8220   -6.8436 C   0  0  0  0  0  0  0  0  0  0  0  0
    9.6899    6.3705   -8.1082 C   0  0  2  0  0  0  0  0  0  0  0  0
   11.2597    8.2901   -5.2396 C   0  0  0  0  0  0  0  0  0  0  0  0
   11.6068    9.7354   -5.2006 C   0  0  0  0  0  0  0  0  0  0  0  0
   10.9469    4.9352  -15.8306 C   0  0  0  0  0  0  0  0  0  0  0  0
    9.2417    4.9555   -7.8256 C   0  0  0  0  0  0  0  0  0  0  0  0
   11.3657    7.7043   -4.0379 C   0  0  0  0  0  0  0  0  0  0  0  0
   11.4469   10.6225   -6.4157 C   0  0  0  0  0  0  0  0  0  0  0  0
   11.9077   10.2897   -3.9889 C   0  0  0  0  0  0  0  0  0  0  0  0
   11.9472    9.5143   -2.8307 C   0  0  0  0  0  0  0  0  0  0  0  0
    9.3030    2.8335  -13.6243 C   0  0  0  0  0  0  0  0  0  0  0  0
   11.0706    6.0966   -4.1041 S   0  0  0  0  0  0  0  0  0  0  0  0
   11.7343    8.3349   -3.0045 C   0  0  0  0  0  0  0  0  0  0  0  0
   12.1398    5.5239   -4.8589 O   0  0  0  0  0  0  0  0  0  0  0  0
   11.2273    5.7924   -2.5132 O   0  0  0  0  0  0  0  0  0  0  0  0
    9.7296    5.7465   -4.5156 C   0  0  2  0  0  0  0  0  0  0  0  0
    8.8786    6.8007   -5.9523 C   0  0  0  0  0  0  0  0  0  0  0  0
    9.3176    4.5037   -3.9953 C   0  0  0  0  0  0  0  0  0  0  0  0
    7.8548    7.3603   -6.2401 O   0  0  0  0  0  0  0  0  0  0  0  0
    8.8510    5.6334   -5.4201 C   0  0  1  0  0  0  0  0  0  0  0  0
    9.1691    4.5700   -6.3537 N   0  0  0  0  0  0  0  0  0  0  0  0
    8.2621    3.5554   -5.8649 C   0  0  0  0  0  0  0  0  0  0  0  0
    8.3327    4.0461   -4.5373 C   0  0  0  0  0  0  0  0  0  0  0  0
  1  2  1  0  0  0  0
  2  3  1  0  0  0  0
  2  7  2  0  0  0  0
  4  3  1  6  0  0  0
  4  5  1  0  0  0  0
  4  6  1  0  0  0  0
  4  8  1  0  0  0  0
  5  9  2  0  0  0  0
  6 13  1  0  0  0  0
  7 12  1  0  0  0  0
  8 19  2  0  0  0  0
 10  7  1  1  0  0  0
 10 14  1  0  0  0  0
 10 17  1  0  0  0  0
 11  8  1  6  0  0  0
 11 20  1  0  0  0  0
 11 32  1  0  0  0  0
 12 18  1  0  0  0  0
 12 30  1  1  0  0  0
 12 32  1  0  0  0  0
 13 16  2  0  0  0  0
 13 21  1  0  0  0  0
 14  5  1  1  0  0  0
 14 15  1  0  0  0  0
 14 20  1  0  0  0  0
 15 31  1  0  0  0  0
 15 44  1  0  0  0  0
 17 18  1  0  0  0  0
 17 23  1  0  0  0  0
 18 25  1  0  0  0  0
 18 26  1  0  0  0  0
 19 21  1  0  0  0  0
 19 35  1  0  0  0  0
 20 23  1  0  0  0  0
 21 22  2  0  0  0  0
 22 27  1  0  0  0  0
 23 24  1  0  0  0  0
 23 44  1  0  0  0  0
 24 26  1  0  0  0  0
 26 28  2  0  0  0  0
 27 34  2  0  0  0  0
 27 36  1  0  0  0  0
 28 29  1  0  0  0  0
 28 32  1  0  0  0  0
 29 39  2  0  0  0  0
 31 33  2  0  0  0  0
 31 38  1  0  0  0  0
 34 35  1  0  0  0  0
 34 50  1  0  0  0  0
 35 39  1  0  0  0  0
 36 37  1  0  0  0  0
 36 40  2  0  0  0  0
 37 41  1  0  0  0  0
 37 42  2  0  0  0  0
 39 54  1  0  0  0  0
 40 45  1  0  0  0  0
 40 46  1  0  0  0  0
 42 43  1  0  0  0  0
 43 46  2  0  0  0  0
 45 47  2  0  0  0  0
 45 48  2  0  0  0  0
 45 49  1  0  0  0  0
 49 51  1  0  0  0  0
 49 53  1  0  0  0  0
 50 52  2  0  0  0  0
 50 53  1  0  0  0  0
 51 56  1  0  0  0  0
 53 54  1  0  0  0  0
 54 55  1  0  0  0  0
 55 56  1  0  0  0  0
M  END
$$$$

 OpenBabel10082411353D

 28 30  0  0  0  0  0  0  0  0999 V2000
   13.4846    9.3979   -5.2029 C   0  0  0  0  0  0  0  0  0  0  0  0
   12.7871    9.3913   -6.3118 C   0  0  0  0  0  0  0  0  0  0  0  0
   11.3648    9.1424   -6.2947 C   0  0  0  0  0  0  0  0  0  0  0  0
   10.8726    9.0146   -5.0034 C   0  0  0  0  0  0  0  0  0  0  0  0
    9.3815    8.7865   -5.0373 F   0  0  0  0  0  0  0  0  0  0  0  0
   11.4703    9.0293   -3.8455 C   0  0  0  0  0  0  0  0  0  0  0  0
   10.7697    8.8716   -2.6325 F   0  0  0  0  0  0  0  0  0  0  0  0
   12.8710    9.2169   -3.9429 C   0  0  0  0  0  0  0  0  0  0  0  0
   10.4781    9.1384   -7.6682 C   0  0  0  0  0  0  0  0  0  0  0  0
   11.1390    9.1306   -8.8047 C   0  0  0  0  0  0  0  0  0  0  0  0
   10.8705    7.9638   -9.7397 C   0  0  0  0  0  0  0  0  0  0  0  0
   10.2908    8.0632  -10.8488 C   0  0  0  0  0  0  0  0  0  0  0  0
   10.4238    7.0375  -11.8282 C   0  0  0  0  0  0  0  0  0  0  0  0
    9.2433    8.9518  -11.2558 C   0  0  0  0  0  0  0  0  0  0  0  0
    8.5277    8.8707  -12.4031 C   0  0  0  0  0  0  0  0  0  0  0  0
    7.4469    9.8411  -12.5572 F   0  0  0  0  0  0  0  0  0  0  0  0
    8.5235    7.7173  -13.1606 C   0  0  0  0  0  0  0  0  0  0  0  0
   11.4736    5.9938  -11.5885 F   0  0  0  0  0  0  0  0  0  0  0  0
    9.6094    6.6956  -12.8849 C   0  0  0  0  0  0  0  0  0  0  0  0
    9.6904    5.6572  -13.7565 C   0  0  1  0  0  0  0  0  0  0  0  0
    8.9757    4.4312  -13.4176 C   0  0  2  0  0  0  0  0  0  0  0  0
    9.4032    5.7906  -15.1518 C   0  0  0  0  0  0  0  0  0  0  0  0
    9.3846    4.4307  -15.6388 C   0  0  0  0  0  0  0  0  0  0  0  0
    9.1898    3.9343  -12.0897 O   0  0  0  0  0  0  0  0  0  0  0  0
    9.1285    3.5712  -14.5284 C   0  0  1  0  0  0  0  0  0  0  0  0
   10.3483    2.5951  -14.3276 C   0  0  0  0  0  0  0  0  0  0  0  0
   10.1145    1.4358  -13.9926 O   0  0  0  0  0  0  0  0  0  0  0  0
   11.5186    3.0236  -14.3728 O   0  0  0  0  0  0  0  0  0  0  0  0
  1  2  1  0  0  0  0
  1  8  2  0  0  0  0
  2  3  2  0  0  0  0
  3  4  1  0  0  0  0
  3  9  1  0  0  0  0
  4  5  1  0  0  0  0
  4  6  2  0  0  0  0
  6  7  1  0  0  0  0
  6  8  1  0  0  0  0
  9 10  1  0  0  0  0
 10 11  1  0  0  0  0
 11 12  1  0  0  0  0
 12 13  2  0  0  0  0
 12 14  1  0  0  0  0
 13 18  1  0  0  0  0
 13 19  1  0  0  0  0
 14 15  2  0  0  0  0
 15 16  1  0  0  0  0
 15 17  1  0  0  0  0
 17 19  2  0  0  0  0
 20 19  1  1  0  0  0
 20 21  1  0  0  0  0
 20 22  1  0  0  0  0
 21 24  1  1  0  0  0
 21 25  1  0  0  0  0
 22 23  1  0  0  0  0
 23 25  1  0  0  0  0
 25 26  1  1  0  0  0
 26 27  2  0  0  0  0
 26 28  1  0  0  0  0
M  END
$$$$

 OpenBabel10082411353D

 56 69  0  0  0  0  0  0  0  0999 V2000
    8.0806    9.0240  -12.7589 C   0  0  0  0  0  0  0  0  0  0  0  0
    8.6514    7.8645  -12.2948 C   0  0  0  0  0  0  0  0  0  0  0  0
    9.9575    7.9974  -11.8426 C   0  0  0  0  0  0  0  0  0  0  0  0
   10.7657    6.8667  -11.6050 C   0  0  1  0  0  0  0  0  0  0  0  0
   10.7682    5.9590  -12.8271 C   0  0  0  0  0  0  0  0  0  0  0  0
   12.1553    7.3846  -11.2315 C   0  0  0  0  0  0  0  0  0  0  0  0
    8.0676    6.6451  -12.2974 C   0  0  0  0  0  0  0  0  0  0  0  0
   10.1892    6.1240  -10.3860 C   0  0  0  0  0  0  0  0  0  0  0  0
   11.8375    5.4373  -13.3240 O   0  0  0  0  0  0  0  0  0  0  0  0
    8.6785    5.4761  -13.0273 C   0  0  1  0  0  0  0  0  0  0  0  0
    9.1969    5.2405  -10.4969 C   0  0  2  0  0  0  0  0  0  0  0  0
    7.2213    6.2210  -11.3074 C   0  0  2  0  0  0  0  0  0  0  0  0
   12.5590    7.6872   -9.9896 C   0  0  0  0  0  0  0  0  0  0  0  0
    9.7633    5.0333  -12.9720 C   0  0  1  0  0  0  0  0  0  0  0  0
   10.0661    4.0167  -14.0373 N   0  0  0  0  0  0  0  0  0  0  0  0
   13.6906    8.3004   -9.6233 O   0  0  0  0  0  0  0  0  0  0  0  0
    7.6357    4.5123  -12.6317 C   0  0  2  0  0  0  0  0  0  0  0  0
    6.8831    4.9171  -11.7031 C   0  0  2  0  0  0  0  0  0  0  0  0
   10.5937    6.6967   -9.1779 C   0  0  0  0  0  0  0  0  0  0  0  0
    9.5087    4.3263  -11.6925 C   0  0  2  0  0  0  0  0  0  0  0  0
   11.6359    7.4449   -8.9125 C   0  0  0  0  0  0  0  0  0  0  0  0
   11.9716    7.9159   -7.6200 C   0  0  0  0  0  0  0  0  0  0  0  0
    8.4648    3.6122  -12.2840 C   0  0  1  0  0  0  0  0  0  0  0  0
    7.9253    2.8004  -11.3926 C   0  0  0  0  0  0  0  0  0  0  0  0
    5.6047    4.5059  -11.7589 C   0  0  0  0  0  0  0  0  0  0  0  0
    7.6606    4.1297  -10.5699 C   0  0  0  0  0  0  0  0  0  0  0  0
   10.9559    7.6849   -6.6057 C   0  0  0  0  0  0  0  0  0  0  0  0
    8.0094    4.5092   -9.5664 C   0  0  0  0  0  0  0  0  0  0  0  0
    8.3033    4.0627   -8.4980 C   0  0  0  0  0  0  0  0  0  0  0  0
    6.3587    7.1012  -11.0392 O   0  0  0  0  0  0  0  0  0  0  0  0
   11.0186    3.9598  -14.9226 C   0  0  0  0  0  0  0  0  0  0  0  0
    8.1758    5.8633  -10.2511 C   0  0  1  0  0  0  0  0  0  0  0  0
   11.4648    2.7104  -15.2650 O   0  0  0  0  0  0  0  0  0  0  0  0
    9.9512    6.8220   -6.8436 C   0  0  0  0  0  0  0  0  0  0  0  0
    9.6899    6.3705   -8.1082 C   0  0  2  0  0  0  0  0  0  0  0  0
   11.2597    8.2901   -5.2396 C   0  0  0  0  0  0  0  0  0  0  0  0
   11.6068    9.7354   -5.2006 C   0  0  0  0  0  0  0  0  0  0  0  0
   10.9469    4.9352  -15.8306 C   0  0  0  0  0  0  0  0  0  0  0  0
    9.2417    4.9555   -7.8256 C   0  0  0  0  0  0  0  0  0  0  0  0
   11.3657    7.7043   -4.0379 C   0  0  0  0  0  0  0  0  0  0  0  0
   11.4469   10.6225   -6.4157 C   0  0  0  0  0  0  0  0  0  0  0  0
   11.9077   10.2897   -3.9889 C   0  0  0  0  0  0  0  0  0  0  0  0
   11.9472    9.5143   -2.8307 C   0  0  0  0  0  0  0  0  0  0  0  0
    9.3030    2.8335  -13.6243 C   0  0  0  0  0  0  0  0  0  0  0  0
   11.0706    6.0966   -4.1041 S   0  0  0  0  0  0  0  0  0  0  0  0
   11.7343    8.3349   -3.0045 C   0  0  0  0  0  0  0  0  0  0  0  0
   12.1398    5.5239   -4.8589 O   0  0  0  0  0  0  0  0  0  0  0  0
   11.2273    5.7924   -2.5132 O   0  0  0  0  0  0  0  0  0  0  0  0
    9.7296    5.7465   -4.5156 C   0  0  1  0  0  0  0  0  0  0  0  0
    8.8786    6.8007   -5.9523 C   0  0  0  0  0  0  0  0  0  0  0  0
    7.8637    7.2355   -6.3338 O   0  0  0  0  0  0  0  0  0  0  0  0
    9.2748    4.5977   -3.7261 C   0  0  0  0  0  0  0  0  0  0  0  0
    8.9272    5.9732   -4.9825 C   0  0  1  0  0  0  0  0  0  0  0  0
    8.0741    4.1655   -4.4505 C   0  0  0  0  0  0  0  0  0  0  0  0
    8.3420    4.8932   -5.3822 N   0  0  0  0  0  0  0  0  0  0  0  0
    7.2017    4.3234   -3.7685 C   0  0  0  0  0  0  0  0  0  0  0  0
  1  2  1  0  0  0  0
  2  3  1  0  0  0  0
  2  7  2  0  0  0  0
  4  3  1  6  0  0  0
  4  5  1  0  0  0  0
  4  6  1  0  0  0  0
  4  8  1  0  0  0  0
  5  9  2  0  0  0  0
  6 13  1  0  0  0  0
  7 12  1  0  0  0  0
  8 19  2  0  0  0  0
 10  7  1  1  0  0  0
 10 14  1  0  0  0  0
 10 17  1  0  0  0  0
 11  8  1  6  0  0  0
 11 20  1  0  0  0  0
 11 32  1  0  0  0  0
 12 18  1  0  0  0  0
 12 30  1  1  0  0  0
 12 32  1  0  0  0  0
 13 16  2  0  0  0  0
 13 21  1  0  0  0  0
 14  5  1  1  0  0  0
 14 15  1  0  0  0  0
 14 20  1  0  0  0  0
 15 31  1  0  0  0  0
 15 44  1  0  0  0  0
 17 18  1  0  0  0  0
 17 23  1  0  0  0  0
 18 25  1  0  0  0  0
 18 26  1  0  0  0  0
 19 21  1  0  0  0  0
 19 35  1  0  0  0  0
 20 23  1  0  0  0  0
 21 22  2  0  0  0  0
 22 27  1  0  0  0  0
 23 24  1  0  0  0  0
 23 44  1  0  0  0  0
 24 26  1  0  0  0  0
 26 28  2  0  0  0  0
 27 34  2  0  0  0  0
 27 36  1  0  0  0  0
 28 29  1  0  0  0  0
 28 32  1  0  0  0  0
 29 39  2  0  0  0  0
 31 33  2  0  0  0  0
 31 38  1  0  0  0  0
 34 35  1  0  0  0  0
 34 50  1  0  0  0  0
 35 39  1  0  0  0  0
 36 37  1  0  0  0  0
 36 40  2  0  0  0  0
 37 41  1  0  0  0  0
 37 42  2  0  0  0  0
 40 45  1  0  0  0  0
 40 46  1  0  0  0  0
 42 43  1  0  0  0  0
 43 46  2  0  0  0  0
 45 47  2  0  0  0  0
 45 48  2  0  0  0  0
 45 49  1  0  0  0  0
 49 52  1  0  0  0  0
 49 53  1  0  0  0  0
 50 51  2  0  0  0  0
 50 53  1  0  0  0  0
 52 54  1  0  0  0  0
 53 55  1  0  0  0  0
 54 55  1  0  0  0  0
 54 56  2  0  0  0  0
M  END
$$$$

 OpenBabel10082411353D

 56 69  0  0  0  0  0  0  0  0999 V2000
    8.0806    9.0240  -12.7589 C   0  0  0  0  0  0  0  0  0  0  0  0
    8.6514    7.8645  -12.2948 C   0  0  0  0  0  0  0  0  0  0  0  0
    9.9575    7.9974  -11.8426 C   0  0  0  0  0  0  0  0  0  0  0  0
   10.7657    6.8667  -11.6050 C   0  0  1  0  0  0  0  0  0  0  0  0
   10.7682    5.9590  -12.8271 C   0  0  0  0  0  0  0  0  0  0  0  0
   12.1553    7.3846  -11.2315 C   0  0  0  0  0  0  0  0  0  0  0  0
    8.0676    6.6451  -12.2974 C   0  0  0  0  0  0  0  0  0  0  0  0
   10.1892    6.1240  -10.3860 C   0  0  0  0  0  0  0  0  0  0  0  0
   11.8375    5.4373  -13.3240 O   0  0  0  0  0  0  0  0  0  0  0  0
    8.6785    5.4761  -13.0273 C   0  0  1  0  0  0  0  0  0  0  0  0
    9.1969    5.2405  -10.4969 C   0  0  2  0  0  0  0  0  0  0  0  0
    7.2213    6.2210  -11.3074 C   0  0  2  0  0  0  0  0  0  0  0  0
   12.5590    7.6872   -9.9896 C   0  0  0  0  0  0  0  0  0  0  0  0
    9.7633    5.0333  -12.9720 C   0  0  1  0  0  0  0  0  0  0  0  0
   10.0661    4.0167  -14.0373 N   0  0  0  0  0  0  0  0  0  0  0  0
   13.6906    8.3004   -9.6233 O   0  0  0  0  0  0  0  0  0  0  0  0
    7.6357    4.5123  -12.6317 C   0  0  2  0  0  0  0  0  0  0  0  0
    6.8831    4.9171  -11.7031 C   0  0  2  0  0  0  0  0  0  0  0  0
   10.5937    6.6967   -9.1779 C   0  0  0  0  0  0  0  0  0  0  0  0
    9.5087    4.3263  -11.6925 C   0  0  2  0  0  0  0  0  0  0  0  0
   11.6359    7.4449   -8.9125 C   0  0  0  0  0  0  0  0  0  0  0  0
   11.9716    7.9159   -7.6200 C   0  0  0  0  0  0  0  0  0  0  0  0
    8.4648    3.6122  -12.2840 C   0  0  1  0  0  0  0  0  0  0  0  0
    7.9253    2.8004  -11.3926 C   0  0  0  0  0  0  0  0  0  0  0  0
    5.6047    4.5059  -11.7589 C   0  0  0  0  0  0  0  0  0  0  0  0
    7.6606    4.1297  -10.5699 C   0  0  0  0  0  0  0  0  0  0  0  0
   10.9559    7.6849   -6.6057 C   0  0  0  0  0  0  0  0  0  0  0  0
    8.0094    4.5092   -9.5664 C   0  0  0  0  0  0  0  0  0  0  0  0
    8.3033    4.0627   -8.4980 C   0  0  0  0  0  0  0  0  0  0  0  0
    6.3587    7.1012  -11.0392 O   0  0  0  0  0  0  0  0  0  0  0  0
   11.0186    3.9598  -14.9226 C   0  0  0  0  0  0  0  0  0  0  0  0
    8.1758    5.8633  -10.2511 C   0  0  1  0  0  0  0  0  0  0  0  0
   11.4648    2.7104  -15.2650 O   0  0  0  0  0  0  0  0  0  0  0  0
    9.9512    6.8220   -6.8436 C   0  0  0  0  0  0  0  0  0  0  0  0
    9.6899    6.3705   -8.1082 C   0  0  2  0  0  0  0  0  0  0  0  0
   11.2597    8.2901   -5.2396 C   0  0  0  0  0  0  0  0  0  0  0  0
   11.6068    9.7354   -5.2006 C   0  0  0  0  0  0  0  0  0  0  0  0
   10.9469    4.9352  -15.8306 C   0  0  0  0  0  0  0  0  0  0  0  0
    9.2417    4.9555   -7.8256 C   0  0  0  0  0  0  0  0  0  0  0  0
   11.3657    7.7043   -4.0379 C   0  0  0  0  0  0  0  0  0  0  0  0
   11.4469   10.6225   -6.4157 C   0  0  0  0  0  0  0  0  0  0  0  0
   11.9077   10.2897   -3.9889 C   0  0  0  0  0  0  0  0  0  0  0  0
   11.9472    9.5143   -2.8307 C   0  0  0  0  0  0  0  0  0  0  0  0
    9.3030    2.8335  -13.6243 C   0  0  0  0  0  0  0  0  0  0  0  0
   11.0706    6.0966   -4.1041 S   0  0  0  0  0  0  0  0  0  0  0  0
   11.7343    8.3349   -3.0045 C   0  0  0  0  0  0  0  0  0  0  0  0
   12.1398    5.5239   -4.8589 O   0  0  0  0  0  0  0  0  0  0  0  0
   11.2273    5.7924   -2.5132 O   0  0  0  0  0  0  0  0  0  0  0  0
    9.7296    5.7465   -4.5156 C   0  0  1  0  0  0  0  0  0  0  0  0
    8.8786    6.8007   -5.9523 C   0  0  0  0  0  0  0  0  0  0  0  0
    7.8637    7.2355   -6.3338 O   0  0  0  0  0  0  0  0  0  0  0  0
    9.2748    4.5977   -3.7261 C   0  0  0  0  0  0  0  0  0  0  0  0
    7.8333    4.3200   -3.9940 C   0  0  0  0  0  0  0  0  0  0  0  0
    8.7571    6.2327   -5.0898 C   0  0  0  0  0  0  0  0  0  0  0  0
    7.4472    5.1158   -4.4097 C   0  0  0  0  0  0  0  0  0  0  0  0
    7.5887    6.0120   -4.7049 C   0  0  0  0  0  0  0  0  0  0  0  0
  1  2  1  0  0  0  0
  2  3  1  0  0  0  0
  2  7  2  0  0  0  0
  4  3  1  6  0  0  0
  4  5  1  0  0  0  0
  4  6  1  0  0  0  0
  4  8  1  0  0  0  0
  5  9  2  0  0  0  0
  6 13  1  0  0  0  0
  7 12  1  0  0  0  0
  8 19  2  0  0  0  0
 10  7  1  1  0  0  0
 10 14  1  0  0  0  0
 10 17  1  0  0  0  0
 11  8  1  6  0  0  0
 11 20  1  0  0  0  0
 11 32  1  0  0  0  0
 12 18  1  0  0  0  0
 12 30  1  1  0  0  0
 12 32  1  0  0  0  0
 13 16  2  0  0  0  0
 13 21  1  0  0  0  0
 14  5  1  1  0  0  0
 14 15  1  0  0  0  0
 14 20  1  0  0  0  0
 15 31  1  0  0  0  0
 15 44  1  0  0  0  0
 17 18  1  0  0  0  0
 17 23  1  0  0  0  0
 18 25  1  0  0  0  0
 18 26  1  0  0  0  0
 19 21  1  0  0  0  0
 19 35  1  0  0  0  0
 20 23  1  0  0  0  0
 21 22  2  0  0  0  0
 22 27  1  0  0  0  0
 23 24  1  0  0  0  0
 23 44  1  0  0  0  0
 24 26  1  0  0  0  0
 26 28  2  0  0  0  0
 27 34  2  0  0  0  0
 27 36  1  0  0  0  0
 28 29  1  0  0  0  0
 28 32  1  0  0  0  0
 29 39  2  0  0  0  0
 31 33  2  0  0  0  0
 31 38  1  0  0  0  0
 34 35  1  0  0  0  0
 34 50  1  0  0  0  0
 35 39  1  0  0  0  0
 36 37  1  0  0  0  0
 36 40  2  0  0  0  0
 37 41  1  0  0  0  0
 37 42  2  0  0  0  0
 40 45  1  0  0  0  0
 40 46  1  0  0  0  0
 42 43  1  0  0  0  0
 43 46  2  0  0  0  0
 45 47  2  0  0  0  0
 45 48  2  0  0  0  0
 45 49  1  0  0  0  0
 49 52  1  0  0  0  0
 49 54  1  0  0  0  0
 50 51  2  0  0  0  0
 50 54  1  0  0  0  0
 52 53  1  0  0  0  0
 53 55  1  0  0  0  0
 54 56  2  0  0  0  0
 55 56  1  0  0  0  0
M  END
$$$$

 OpenBabel10082411353D

 56 69  0  0  0  0  0  0  0  0999 V2000
    8.0806    9.0240  -12.7589 C   0  0  0  0  0  0  0  0  0  0  0  0
    8.6514    7.8645  -12.2948 C   0  0  0  0  0  0  0  0  0  0  0  0
    9.9575    7.9974  -11.8426 C   0  0  0  0  0  0  0  0  0  0  0  0
   10.7657    6.8667  -11.6050 C   0  0  1  0  0  0  0  0  0  0  0  0
   10.7682    5.9590  -12.8271 C   0  0  0  0  0  0  0  0  0  0  0  0
   12.1553    7.3846  -11.2315 C   0  0  0  0  0  0  0  0  0  0  0  0
    8.0676    6.6451  -12.2974 C   0  0  0  0  0  0  0  0  0  0  0  0
   10.1892    6.1240  -10.3860 C   0  0  0  0  0  0  0  0  0  0  0  0
   11.8375    5.4373  -13.3240 O   0  0  0  0  0  0  0  0  0  0  0  0
    8.6785    5.4761  -13.0273 C   0  0  1  0  0  0  0  0  0  0  0  0
    9.1969    5.2405  -10.4969 C   0  0  2  0  0  0  0  0  0  0  0  0
    7.2213    6.2210  -11.3074 C   0  0  2  0  0  0  0  0  0  0  0  0
   12.5590    7.6872   -9.9896 C   0  0  0  0  0  0  0  0  0  0  0  0
    9.7633    5.0333  -12.9720 C   0  0  1  0  0  0  0  0  0  0  0  0
   10.0661    4.0167  -14.0373 N   0  0  0  0  0  0  0  0  0  0  0  0
   13.6906    8.3004   -9.6233 O   0  0  0  0  0  0  0  0  0  0  0  0
    7.6357    4.5123  -12.6317 C   0  0  2  0  0  0  0  0  0  0  0  0
    6.8831    4.9171  -11.7031 C   0  0  2  0  0  0  0  0  0  0  0  0
   10.5937    6.6967   -9.1779 C   0  0  0  0  0  0  0  0  0  0  0  0
    9.5087    4.3263  -11.6925 C   0  0  2  0  0  0  0  0  0  0  0  0
   11.6359    7.4449   -8.9125 C   0  0  0  0  0  0  0  0  0  0  0  0
   11.9716    7.9159   -7.6200 C   0  0  0  0  0  0  0  0  0  0  0  0
    8.4648    3.6122  -12.2840 C   0  0  1  0  0  0  0  0  0  0  0  0
    7.9253    2.8004  -11.3926 C   0  0  0  0  0  0  0  0  0  0  0  0
    5.6047    4.5059  -11.7589 C   0  0  0  0  0  0  0  0  0  0  0  0
    7.6606    4.1297  -10.5699 C   0  0  0  0  0  0  0  0  0  0  0  0
   10.9559    7.6849   -6.6057 C   0  0  0  0  0  0  0  0  0  0  0  0
    8.0094    4.5092   -9.5664 C   0  0  0  0  0  0  0  0  0  0  0  0
    8.3033    4.0627   -8.4980 C   0  0  0  0  0  0  0  0  0  0  0  0
    6.3587    7.1012  -11.0392 O   0  0  0  0  0  0  0  0  0  0  0  0
   11.0186    3.9598  -14.9226 C   0  0  0  0  0  0  0  0  0  0  0  0
    8.1758    5.8633  -10.2511 C   0  0  1  0  0  0  0  0  0  0  0  0
   11.4648    2.7104  -15.2650 O   0  0  0  0  0  0  0  0  0  0  0  0
    9.9512    6.8220   -6.8436 C   0  0  0  0  0  0  0  0  0  0  0  0
    9.6899    6.3705   -8.1082 C   0  0  2  0  0  0  0  0  0  0  0  0
   11.2597    8.2901   -5.2396 C   0  0  0  0  0  0  0  0  0  0  0  0
   11.6068    9.7354   -5.2006 C   0  0  0  0  0  0  0  0  0  0  0  0
   10.9469    4.9352  -15.8306 C   0  0  0  0  0  0  0  0  0  0  0  0
    9.2417    4.9555   -7.8256 C   0  0  0  0  0  0  0  0  0  0  0  0
   11.3657    7.7043   -4.0379 C   0  0  0  0  0  0  0  0  0  0  0  0
   11.4469   10.6225   -6.4157 C   0  0  0  0  0  0  0  0  0  0  0  0
   11.9077   10.2897   -3.9889 C   0  0  0  0  0  0  0  0  0  0  0  0
   11.9472    9.5143   -2.8307 C   0  0  0  0  0  0  0  0  0  0  0  0
    9.3030    2.8335  -13.6243 C   0  0  0  0  0  0  0  0  0  0  0  0
   11.0706    6.0966   -4.1041 S   0  0  0  0  0  0  0  0  0  0  0  0
   11.7343    8.3349   -3.0045 C   0  0  0  0  0  0  0  0  0  0  0  0
   12.1398    5.5239   -4.8589 O   0  0  0  0  0  0  0  0  0  0  0  0
   11.2273    5.7924   -2.5132 O   0  0  0  0  0  0  0  0  0  0  0  0
    9.7296    5.7465   -4.5156 C   0  0  1  0  0  0  0  0  0  0  0  0
    8.8786    6.8007   -5.9523 C   0  0  0  0  0  0  0  0  0  0  0  0
    7.8637    7.2355   -6.3338 O   0  0  0  0  0  0  0  0  0  0  0  0
    9.2748    4.5977   -3.7261 C   0  0  0  0  0  0  0  0  0  0  0  0
    8.7641    6.2147   -5.0724 C   0  0  1  0  0  0  0  0  0  0  0  0
    8.3238    4.1417   -4.4632 C   0  0  0  0  0  0  0  0  0  0  0  0
    7.9155    4.5627   -3.8417 C   0  0  0  0  0  0  0  0  0  0  0  0
    7.7256    5.3797   -5.1939 N   0  0  0  0  0  0  0  0  0  0  0  0
  1  2  1  0  0  0  0
  2  3  1  0  0  0  0
  2  7  2  0  0  0  0
  4  3  1  6  0  0  0
  4  5  1  0  0  0  0
  4  6  1  0  0  0  0
  4  8  1  0  0  0  0
  5  9  2  0  0  0  0
  6 13  1  0  0  0  0
  7 12  1  0  0  0  0
  8 19  2  0  0  0  0
 10  7  1  1  0  0  0
 10 14  1  0  0  0  0
 10 17  1  0  0  0  0
 11  8  1  6  0  0  0
 11 20  1  0  0  0  0
 11 32  1  0  0  0  0
 12 18  1  0  0  0  0
 12 30  1  1  0  0  0
 12 32  1  0  0  0  0
 13 16  2  0  0  0  0
 13 21  1  0  0  0  0
 14  5  1  1  0  0  0
 14 15  1  0  0  0  0
 14 20  1  0  0  0  0
 15 31  1  0  0  0  0
 15 44  1  0  0  0  0
 17 18  1  0  0  0  0
 17 23  1  0  0  0  0
 18 25  1  0  0  0  0
 18 26  1  0  0  0  0
 19 21  1  0  0  0  0
 19 35  1  0  0  0  0
 20 23  1  0  0  0  0
 21 22  2  0  0  0  0
 22 27  1  0  0  0  0
 23 24  1  0  0  0  0
 23 44  1  0  0  0  0
 24 26  1  0  0  0  0
 26 28  2  0  0  0  0
 27 34  2  0  0  0  0
 27 36  1  0  0  0  0
 28 29  1  0  0  0  0
 28 32  1  0  0  0  0
 29 39  2  0  0  0  0
 31 33  2  0  0  0  0
 31 38  1  0  0  0  0
 34 35  1  0  0  0  0
 34 50  1  0  0  0  0
 35 39  1  0  0  0  0
 36 37  1  0  0  0  0
 36 40  2  0  0  0  0
 37 41  1  0  0  0  0
 37 42  2  0  0  0  0
 40 45  1  0  0  0  0
 40 46  1  0  0  0  0
 42 43  1  0  0  0  0
 43 46  2  0  0  0  0
 45 47  2  0  0  0  0
 45 48  2  0  0  0  0
 45 49  1  0  0  0  0
 49 52  1  0  0  0  0
 49 53  1  0  0  0  0
 50 51  2  0  0  0  0
 50 53  1  0  0  0  0
 52 55  1  0  0  0  0
 53 56  1  0  0  0  0
 54 55  1  0  0  0  0
 54 56  1  0  0  0  0
M  END
$$$$

 OpenBabel10082411353D

 56 68  0  0  0  0  0  0  0  0999 V2000
    8.0806    9.0240  -12.7589 C   0  0  0  0  0  0  0  0  0  0  0  0
    8.6514    7.8645  -12.2948 C   0  0  0  0  0  0  0  0  0  0  0  0
    9.9575    7.9974  -11.8426 C   0  0  0  0  0  0  0  0  0  0  0  0
   10.7657    6.8667  -11.6050 C   0  0  1  0  0  0  0  0  0  0  0  0
   10.7682    5.9590  -12.8271 C   0  0  0  0  0  0  0  0  0  0  0  0
   12.1553    7.3846  -11.2315 C   0  0  0  0  0  0  0  0  0  0  0  0
    8.0676    6.6451  -12.2974 C   0  0  0  0  0  0  0  0  0  0  0  0
   10.1892    6.1240  -10.3860 C   0  0  0  0  0  0  0  0  0  0  0  0
   11.8375    5.4373  -13.3240 O   0  0  0  0  0  0  0  0  0  0  0  0
    8.6785    5.4761  -13.0273 C   0  0  1  0  0  0  0  0  0  0  0  0
    9.1969    5.2405  -10.4969 C   0  0  2  0  0  0  0  0  0  0  0  0
    7.2213    6.2210  -11.3074 C   0  0  2  0  0  0  0  0  0  0  0  0
   12.5590    7.6872   -9.9896 C   0  0  0  0  0  0  0  0  0  0  0  0
    9.7633    5.0333  -12.9720 C   0  0  1  0  0  0  0  0  0  0  0  0
   10.0661    4.0167  -14.0373 N   0  0  0  0  0  0  0  0  0  0  0  0
   13.6906    8.3004   -9.6233 O   0  0  0  0  0  0  0  0  0  0  0  0
    7.6357    4.5123  -12.6317 C   0  0  2  0  0  0  0  0  0  0  0  0
    6.8831    4.9171  -11.7031 C   0  0  2  0  0  0  0  0  0  0  0  0
   10.5937    6.6967   -9.1779 C   0  0  0  0  0  0  0  0  0  0  0  0
    9.5087    4.3263  -11.6925 C   0  0  2  0  0  0  0  0  0  0  0  0
   11.6359    7.4449   -8.9125 C   0  0  0  0  0  0  0  0  0  0  0  0
   11.9716    7.9159   -7.6200 C   0  0  0  0  0  0  0  0  0  0  0  0
    8.4648    3.6122  -12.2840 C   0  0  1  0  0  0  0  0  0  0  0  0
    7.9253    2.8004  -11.3926 C   0  0  0  0  0  0  0  0  0  0  0  0
    5.6047    4.5059  -11.7589 C   0  0  0  0  0  0  0  0  0  0  0  0
    7.6606    4.1297  -10.5699 C   0  0  0  0  0  0  0  0  0  0  0  0
   10.9559    7.6849   -6.6057 C   0  0  0  0  0  0  0  0  0  0  0  0
    8.0094    4.5092   -9.5664 C   0  0  0  0  0  0  0  0  0  0  0  0
    8.3033    4.0627   -8.4980 C   0  0  0  0  0  0  0  0  0  0  0  0
    6.3587    7.1012  -11.0392 O   0  0  0  0  0  0  0  0  0  0  0  0
   11.0186    3.9598  -14.9226 C   0  0  0  0  0  0  0  0  0  0  0  0
    8.1758    5.8633  -10.2511 C   0  0  1  0  0  0  0  0  0  0  0  0
   11.4648    2.7104  -15.2650 O   0  0  0  0  0  0  0  0  0  0  0  0
    9.9512    6.8220   -6.8436 C   0  0  0  0  0  0  0  0  0  0  0  0
    9.6899    6.3705   -8.1082 C   0  0  2  0  0  0  0  0  0  0  0  0
   11.2597    8.2901   -5.2396 C   0  0  0  0  0  0  0  0  0  0  0  0
   11.6068    9.7354   -5.2006 C   0  0  0  0  0  0  0  0  0  0  0  0
   10.9469    4.9352  -15.8306 C   0  0  0  0  0  0  0  0  0  0  0  0
    9.2417    4.9555   -7.8256 C   0  0  0  0  0  0  0  0  0  0  0  0
   11.3657    7.7043   -4.0379 C   0  0  0  0  0  0  0  0  0  0  0  0
   11.4469   10.6225   -6.4157 C   0  0  0  0  0  0  0  0  0  0  0  0
   11.9077   10.2897   -3.9889 C   0  0  0  0  0  0  0  0  0  0  0  0
   11.9472    9.5143   -2.8307 C   0  0  0  0  0  0  0  0  0  0  0  0
    9.3030    2.8335  -13.6243 C   0  0  0  0  0  0  0  0  0  0  0  0
   11.0706    6.0966   -4.1041 S   0  0  0  0  0  0  0  0  0  0  0  0
   11.7343    8.3349   -3.0045 C   0  0  0  0  0  0  0  0  0  0  0  0
   12.1398    5.5239   -4.8589 O   0  0  0  0  0  0  0  0  0  0  0  0
   11.2273    5.7924   -2.5132 O   0  0  0  0  0  0  0  0  0  0  0  0
    9.7296    5.7465   -4.5156 C   0  0  2  0  0  0  0  0  0  0  0  0
    8.8786    6.8007   -5.9523 C   0  0  0  0  0  0  0  0  0  0  0  0
    9.3176    4.5037   -3.9953 C   0  0  0  0  0  0  0  0  0  0  0  0
    7.8548    7.3603   -6.2401 O   0  0  0  0  0  0  0  0  0  0  0  0
    8.8510    5.6334   -5.4201 C   0  0  1  0  0  0  0  0  0  0  0  0
    9.0519    4.7304   -6.0221 S   0  0  0  0  0  0  0  0  0  0  0  0
    8.1625    4.1956   -4.5172 C   0  0  0  0  0  0  0  0  0  0  0  0
    8.2337    4.1752   -5.7244 C   0  0  0  0  0  0  0  0  0  0  0  0
  1  2  1  0  0  0  0
  2  3  1  0  0  0  0
  2  7  2  0  0  0  0
  4  3  1  6  0  0  0
  4  5  1  0  0  0  0
  4  6  1  0  0  0  0
  4  8  1  0  0  0  0
  5  9  2  0  0  0  0
  6 13  1  0  0  0  0
  7 12  1  0  0  0  0
  8 19  2  0  0  0  0
 10  7  1  1  0  0  0
 10 14  1  0  0  0  0
 10 17  1  0  0  0  0
 11  8  1  6  0  0  0
 11 20  1  0  0  0  0
 11 32  1  0  0  0  0
 12 18  1  0  0  0  0
 12 30  1  1  0  0  0
 12 32  1  0  0  0  0
 13 16  2  0  0  0  0
 13 21  1  0  0  0  0
 14  5  1  1  0  0  0
 14 15  1  0  0  0  0
 14 20  1  0  0  0  0
 15 31  1  0  0  0  0
 15 44  1  0  0  0  0
 17 18  1  0  0  0  0
 17 23  1  0  0  0  0
 18 25  1  0  0  0  0
 18 26  1  0  0  0  0
 19 21  1  0  0  0  0
 19 35  1  0  0  0  0
 20 23  1  0  0  0  0
 21 22  2  0  0  0  0
 22 27  1  0  0  0  0
 23 24  1  0  0  0  0
 23 44  1  0  0  0  0
 24 26  1  0  0  0  0
 26 28  2  0  0  0  0
 27 34  2  0  0  0  0
 27 36  1  0  0  0  0
 28 29  1  0  0  0  0
 28 32  1  0  0  0  0
 29 39  2  0  0  0  0
 31 33  2  0  0  0  0
 31 38  1  0  0  0  0
 34 35  1  0  0  0  0
 34 50  1  0  0  0  0
 35 39  1  0  0  0  0
 36 37  1  0  0  0  0
 36 40  2  0  0  0  0
 37 41  1  0  0  0  0
 37 42  2  0  0  0  0
 40 45  1  0  0  0  0
 40 46  1  0  0  0  0
 42 43  1  0  0  0  0
 43 46  2  0  0  0  0
 45 47  2  0  0  0  0
 45 48  2  0  0  0  0
 45 49  1  0  0  0  0
 49 51  1  0  0  0  0
 49 53  1  0  0  0  0
 50 52  2  0  0  0  0
 50 53  1  0  0  0  0
 51 55  1  0  0  0  0
 53 54  1  0  0  0  0
 54 56  2  0  0  0  0
M  END
$$$$

 OpenBabel10082411353D

 56 69  0  0  0  0  0  0  0  0999 V2000
    8.0806    9.0240  -12.7589 C   0  0  0  0  0  0  0  0  0  0  0  0
    8.6514    7.8645  -12.2948 C   0  0  0  0  0  0  0  0  0  0  0  0
    9.9575    7.9974  -11.8426 C   0  0  0  0  0  0  0  0  0  0  0  0
   10.7657    6.8667  -11.6050 C   0  0  1  0  0  0  0  0  0  0  0  0
   10.7682    5.9590  -12.8271 C   0  0  0  0  0  0  0  0  0  0  0  0
   12.1553    7.3846  -11.2315 C   0  0  0  0  0  0  0  0  0  0  0  0
    8.0676    6.6451  -12.2974 C   0  0  0  0  0  0  0  0  0  0  0  0
   10.1892    6.1240  -10.3860 C   0  0  0  0  0  0  0  0  0  0  0  0
   11.8375    5.4373  -13.3240 O   0  0  0  0  0  0  0  0  0  0  0  0
    8.6785    5.4761  -13.0273 C   0  0  1  0  0  0  0  0  0  0  0  0
    9.1969    5.2405  -10.4969 C   0  0  2  0  0  0  0  0  0  0  0  0
    7.2213    6.2210  -11.3074 C   0  0  2  0  0  0  0  0  0  0  0  0
   12.5590    7.6872   -9.9896 C   0  0  0  0  0  0  0  0  0  0  0  0
    9.7633    5.0333  -12.9720 C   0  0  1  0  0  0  0  0  0  0  0  0
   10.0661    4.0167  -14.0373 N   0  0  0  0  0  0  0  0  0  0  0  0
   13.6906    8.3004   -9.6233 O   0  0  0  0  0  0  0  0  0  0  0  0
    7.6357    4.5123  -12.6317 C   0  0  2  0  0  0  0  0  0  0  0  0
    6.8831    4.9171  -11.7031 C   0  0  2  0  0  0  0  0  0  0  0  0
   10.5937    6.6967   -9.1779 C   0  0  0  0  0  0  0  0  0  0  0  0
    9.5087    4.3263  -11.6925 C   0  0  2  0  0  0  0  0  0  0  0  0
   11.6359    7.4449   -8.9125 C   0  0  0  0  0  0  0  0  0  0  0  0
   11.9716    7.9159   -7.6200 C   0  0  0  0  0  0  0  0  0  0  0  0
    8.4648    3.6122  -12.2840 C   0  0  1  0  0  0  0  0  0  0  0  0
    7.9253    2.8004  -11.3926 C   0  0  0  0  0  0  0  0  0  0  0  0
    5.6047    4.5059  -11.7589 C   0  0  0  0  0  0  0  0  0  0  0  0
    7.6606    4.1297  -10.5699 C   0  0  0  0  0  0  0  0  0  0  0  0
   10.9559    7.6849   -6.6057 C   0  0  0  0  0  0  0  0  0  0  0  0
    8.0094    4.5092   -9.5664 C   0  0  0  0  0  0  0  0  0  0  0  0
    8.3033    4.0627   -8.4980 C   0  0  0  0  0  0  0  0  0  0  0  0
    6.3587    7.1012  -11.0392 O   0  0  0  0  0  0  0  0  0  0  0  0
   11.0186    3.9598  -14.9226 C   0  0  0  0  0  0  0  0  0  0  0  0
    8.1758    5.8633  -10.2511 C   0  0  1  0  0  0  0  0  0  0  0  0
   11.4648    2.7104  -15.2650 O   0  0  0  0  0  0  0  0  0  0  0  0
    9.9512    6.8220   -6.8436 C   0  0  0  0  0  0  0  0  0  0  0  0
    9.6899    6.3705   -8.1082 C   0  0  2  0  0  0  0  0  0  0  0  0
   11.2597    8.2901   -5.2396 C   0  0  0  0  0  0  0  0  0  0  0  0
   11.6068    9.7354   -5.2006 C   0  0  0  0  0  0  0  0  0  0  0  0
   10.9469    4.9352  -15.8306 C   0  0  0  0  0  0  0  0  0  0  0  0
    9.2417    4.9555   -7.8256 C   0  0  0  0  0  0  0  0  0  0  0  0
   11.3657    7.7043   -4.0379 C   0  0  0  0  0  0  0  0  0  0  0  0
   11.4469   10.6225   -6.4157 C   0  0  0  0  0  0  0  0  0  0  0  0
   11.9077   10.2897   -3.9889 C   0  0  0  0  0  0  0  0  0  0  0  0
   11.9472    9.5143   -2.8307 C   0  0  0  0  0  0  0  0  0  0  0  0
    9.3030    2.8335  -13.6243 C   0  0  0  0  0  0  0  0  0  0  0  0
   11.0706    6.0966   -4.1041 S   0  0  0  0  0  0  0  0  0  0  0  0
   11.7343    8.3349   -3.0045 C   0  0  0  0  0  0  0  0  0  0  0  0
   12.1398    5.5239   -4.8589 O   0  0  0  0  0  0  0  0  0  0  0  0
   11.2273    5.7924   -2.5132 O   0  0  0  0  0  0  0  0  0  0  0  0
    9.7296    5.7465   -4.5156 C   0  0  1  0  0  0  0  0  0  0  0  0
    8.8786    6.8007   -5.9523 C   0  0  0  0  0  0  0  0  0  0  0  0
    7.8637    7.2355   -6.3338 O   0  0  0  0  0  0  0  0  0  0  0  0
    9.2748    4.5977   -3.7261 C   0  0  0  0  0  0  0  0  0  0  0  0
    7.8333    4.3200   -3.9940 C   0  0  0  0  0  0  0  0  0  0  0  0
    8.7571    6.2327   -5.0898 C   0  0  1  0  0  0  0  0  0  0  0  0
    7.4472    5.1158   -4.4097 C   0  0  0  0  0  0  0  0  0  0  0  0
    7.5887    6.0120   -4.7049 C   0  0  0  0  0  0  0  0  0  0  0  0
  1  2  1  0  0  0  0
  2  3  1  0  0  0  0
  2  7  2  0  0  0  0
  4  3  1  6  0  0  0
  4  5  1  0  0  0  0
  4  6  1  0  0  0  0
  4  8  1  0  0  0  0
  5  9  2  0  0  0  0
  6 13  1  0  0  0  0
  7 12  1  0  0  0  0
  8 19  2  0  0  0  0
 10  7  1  1  0  0  0
 10 14  1  0  0  0  0
 10 17  1  0  0  0  0
 11  8  1  6  0  0  0
 11 20  1  0  0  0  0
 11 32  1  0  0  0  0
 12 18  1  0  0  0  0
 12 30  1  1  0  0  0
 12 32  1  0  0  0  0
 13 16  2  0  0  0  0
 13 21  1  0  0  0  0
 14  5  1  1  0  0  0
 14 15  1  0  0  0  0
 14 20  1  0  0  0  0
 15 31  1  0  0  0  0
 15 44  1  0  0  0  0
 17 18  1  0  0  0  0
 17 23  1  0  0  0  0
 18 25  1  0  0  0  0
 18 26  1  0  0  0  0
 19 21  1  0  0  0  0
 19 35  1  0  0  0  0
 20 23  1  0  0  0  0
 21 22  2  0  0  0  0
 22 27  1  0  0  0  0
 23 24  1  0  0  0  0
 23 44  1  0  0  0  0
 24 26  1  0  0  0  0
 26 28  2  0  0  0  0
 27 34  2  0  0  0  0
 27 36  1  0  0  0  0
 28 29  1  0  0  0  0
 28 32  1  0  0  0  0
 29 39  2  0  0  0  0
 31 33  2  0  0  0  0
 31 38  1  0  0  0  0
 34 35  1  0  0  0  0
 34 50  1  0  0  0  0
 35 39  1  0  0  0  0
 36 37  1  0  0  0  0
 36 40  2  0  0  0  0
 37 41  1  0  0  0  0
 37 42  2  0  0  0  0
 40 45  1  0  0  0  0
 40 46  1  0  0  0  0
 42 43  1  0  0  0  0
 43 46  2  0  0  0  0
 45 47  2  0  0  0  0
 45 48  2  0  0  0  0
 45 49  1  0  0  0  0
 49 52  1  0  0  0  0
 49 54  1  0  0  0  0
 50 51  2  0  0  0  0
 50 54  1  0  0  0  0
 52 53  1  0  0  0  0
 53 55  1  0  0  0  0
 54 56  1  0  0  0  0
 55 56  2  0  0  0  0
M  END
$$$$

 OpenBabel10082411353D

 56 69  0  0  0  0  0  0  0  0999 V2000
    8.0806    9.0240  -12.7589 C   0  0  0  0  0  0  0  0  0  0  0  0
    8.6514    7.8645  -12.2948 C   0  0  0  0  0  0  0  0  0  0  0  0
    9.9575    7.9974  -11.8426 C   0  0  0  0  0  0  0  0  0  0  0  0
   10.7657    6.8667  -11.6050 C   0  0  1  0  0  0  0  0  0  0  0  0
   10.7682    5.9590  -12.8271 C   0  0  0  0  0  0  0  0  0  0  0  0
   12.1553    7.3846  -11.2315 C   0  0  0  0  0  0  0  0  0  0  0  0
    8.0676    6.6451  -12.2974 C   0  0  0  0  0  0  0  0  0  0  0  0
   10.1892    6.1240  -10.3860 C   0  0  0  0  0  0  0  0  0  0  0  0
   11.8375    5.4373  -13.3240 O   0  0  0  0  0  0  0  0  0  0  0  0
    8.6785    5.4761  -13.0273 C   0  0  1  0  0  0  0  0  0  0  0  0
    9.1969    5.2405  -10.4969 C   0  0  2  0  0  0  0  0  0  0  0  0
    7.2213    6.2210  -11.3074 C   0  0  2  0  0  0  0  0  0  0  0  0
   12.5590    7.6872   -9.9896 C   0  0  0  0  0  0  0  0  0  0  0  0
    9.7633    5.0333  -12.9720 C   0  0  1  0  0  0  0  0  0  0  0  0
   10.0661    4.0167  -14.0373 N   0  0  0  0  0  0  0  0  0  0  0  0
   13.6906    8.3004   -9.6233 O   0  0  0  0  0  0  0  0  0  0  0  0
    7.6357    4.5123  -12.6317 C   0  0  2  0  0  0  0  0  0  0  0  0
    6.8831    4.9171  -11.7031 C   0  0  2  0  0  0  0  0  0  0  0  0
   10.5937    6.6967   -9.1779 C   0  0  0  0  0  0  0  0  0  0  0  0
    9.5087    4.3263  -11.6925 C   0  0  2  0  0  0  0  0  0  0  0  0
   11.6359    7.4449   -8.9125 C   0  0  0  0  0  0  0  0  0  0  0  0
   11.9716    7.9159   -7.6200 C   0  0  0  0  0  0  0  0  0  0  0  0
    8.4648    3.6122  -12.2840 C   0  0  1  0  0  0  0  0  0  0  0  0
    7.9253    2.8004  -11.3926 C   0  0  0  0  0  0  0  0  0  0  0  0
    5.6047    4.5059  -11.7589 C   0  0  0  0  0  0  0  0  0  0  0  0
    7.6606    4.1297  -10.5699 C   0  0  0  0  0  0  0  0  0  0  0  0
   10.9559    7.6849   -6.6057 C   0  0  0  0  0  0  0  0  0  0  0  0
    8.0094    4.5092   -9.5664 C   0  0  0  0  0  0  0  0  0  0  0  0
    8.3033    4.0627   -8.4980 C   0  0  0  0  0  0  0  0  0  0  0  0
    6.3587    7.1012  -11.0392 O   0  0  0  0  0  0  0  0  0  0  0  0
   11.0186    3.9598  -14.9226 C   0  0  0  0  0  0  0  0  0  0  0  0
    8.1758    5.8633  -10.2511 C   0  0  1  0  0  0  0  0  0  0  0  0
   11.4648    2.7104  -15.2650 O   0  0  0  0  0  0  0  0  0  0  0  0
    9.9512    6.8220   -6.8436 C   0  0  0  0  0  0  0  0  0  0  0  0
    9.6899    6.3705   -8.1082 C   0  0  2  0  0  0  0  0  0  0  0  0
   11.2597    8.2901   -5.2396 C   0  0  0  0  0  0  0  0  0  0  0  0
   11.6068    9.7354   -5.2006 C   0  0  0  0  0  0  0  0  0  0  0  0
   10.9469    4.9352  -15.8306 C   0  0  0  0  0  0  0  0  0  0  0  0
    9.2417    4.9555   -7.8256 C   0  0  0  0  0  0  0  0  0  0  0  0
   11.3657    7.7043   -4.0379 C   0  0  0  0  0  0  0  0  0  0  0  0
   11.4469   10.6225   -6.4157 C   0  0  0  0  0  0  0  0  0  0  0  0
   11.9077   10.2897   -3.9889 C   0  0  0  0  0  0  0  0  0  0  0  0
   11.9472    9.5143   -2.8307 C   0  0  0  0  0  0  0  0  0  0  0  0
    9.3030    2.8335  -13.6243 C   0  0  0  0  0  0  0  0  0  0  0  0
   11.0706    6.0966   -4.1041 S   0  0  0  0  0  0  0  0  0  0  0  0
   11.7343    8.3349   -3.0045 C   0  0  0  0  0  0  0  0  0  0  0  0
   12.1398    5.5239   -4.8589 O   0  0  0  0  0  0  0  0  0  0  0  0
   11.2273    5.7924   -2.5132 O   0  0  0  0  0  0  0  0  0  0  0  0
    9.7296    5.7465   -4.5156 C   0  0  2  0  0  0  0  0  0  0  0  0
    8.8786    6.8007   -5.9523 C   0  0  0  0  0  0  0  0  0  0  0  0
    9.3176    4.5037   -3.9953 C   0  0  0  0  0  0  0  0  0  0  0  0
    7.8548    7.3603   -6.2401 O   0  0  0  0  0  0  0  0  0  0  0  0
    8.8510    5.6334   -5.4201 C   0  0  1  0  0  0  0  0  0  0  0  0
    9.0519    4.7304   -6.0221 S   0  0  0  0  0  0  0  0  0  0  0  0
    8.1625    4.1956   -4.5172 C   0  0  0  0  0  0  0  0  0  0  0  0
    8.2337    4.1752   -5.7244 C   0  0  0  0  0  0  0  0  0  0  0  0
  1  2  1  0  0  0  0
  2  3  1  0  0  0  0
  2  7  2  0  0  0  0
  4  3  1  6  0  0  0
  4  5  1  0  0  0  0
  4  6  1  0  0  0  0
  4  8  1  0  0  0  0
  5  9  2  0  0  0  0
  6 13  1  0  0  0  0
  7 12  1  0  0  0  0
  8 19  2  0  0  0  0
 10  7  1  1  0  0  0
 10 14  1  0  0  0  0
 10 17  1  0  0  0  0
 11  8  1  6  0  0  0
 11 20  1  0  0  0  0
 11 32  1  0  0  0  0
 12 18  1  0  0  0  0
 12 30  1  1  0  0  0
 12 32  1  0  0  0  0
 13 16  2  0  0  0  0
 13 21  1  0  0  0  0
 14  5  1  1  0  0  0
 14 15  1  0  0  0  0
 14 20  1  0  0  0  0
 15 31  1  0  0  0  0
 15 44  1  0  0  0  0
 17 18  1  0  0  0  0
 17 23  1  0  0  0  0
 18 25  1  0  0  0  0
 18 26  1  0  0  0  0
 19 21  1  0  0  0  0
 19 35  1  0  0  0  0
 20 23  1  0  0  0  0
 21 22  2  0  0  0  0
 22 27  1  0  0  0  0
 23 24  1  0  0  0  0
 23 44  1  0  0  0  0
 24 26  1  0  0  0  0
 26 28  2  0  0  0  0
 27 34  2  0  0  0  0
 27 36  1  0  0  0  0
 28 29  1  0  0  0  0
 28 32  1  0  0  0  0
 29 39  2  0  0  0  0
 31 33  2  0  0  0  0
 31 38  1  0  0  0  0
 34 35  1  0  0  0  0
 34 50  1  0  0  0  0
 35 39  1  0  0  0  0
 36 37  1  0  0  0  0
 36 40  2  0  0  0  0
 37 41  1  0  0  0  0
 37 42  2  0  0  0  0
 40 45  1  0  0  0  0
 40 46  1  0  0  0  0
 42 43  1  0  0  0  0
 43 46  2  0  0  0  0
 45 47  2  0  0  0  0
 45 48  2  0  0  0  0
 45 49  1  0  0  0  0
 49 51  1  0  0  0  0
 49 53  1  0  0  0  0
 50 52  2  0  0  0  0
 50 53  1  0  0  0  0
 51 55  1  0  0  0  0
 53 54  1  0  0  0  0
 54 56  1  0  0  0  0
 55 56  1  0  0  0  0
M  END
$$$$

 OpenBabel10082411353D

 56 70  0  0  0  0  0  0  0  0999 V2000
    8.0806    9.0240  -12.7589 C   0  0  0  0  0  0  0  0  0  0  0  0
    8.6514    7.8645  -12.2948 C   0  0  0  0  0  0  0  0  0  0  0  0
    9.9575    7.9974  -11.8426 C   0  0  0  0  0  0  0  0  0  0  0  0
   10.7657    6.8667  -11.6050 C   0  0  1  0  0  0  0  0  0  0  0  0
   10.7682    5.9590  -12.8271 C   0  0  0  0  0  0  0  0  0  0  0  0
   12.1553    7.3846  -11.2315 C   0  0  0  0  0  0  0  0  0  0  0  0
    8.0676    6.6451  -12.2974 C   0  0  0  0  0  0  0  0  0  0  0  0
   10.1892    6.1240  -10.3860 C   0  0  0  0  0  0  0  0  0  0  0  0
   11.8375    5.4373  -13.3240 O   0  0  0  0  0  0  0  0  0  0  0  0
    8.6785    5.4761  -13.0273 C   0  0  1  0  0  0  0  0  0  0  0  0
    9.1969    5.2405  -10.4969 C   0  0  2  0  0  0  0  0  0  0  0  0
    7.2213    6.2210  -11.3074 C   0  0  2  0  0  0  0  0  0  0  0  0
   12.5590    7.6872   -9.9896 C   0  0  0  0  0  0  0  0  0  0  0  0
    9.7633    5.0333  -12.9720 C   0  0  1  0  0  0  0  0  0  0  0  0
   10.0661    4.0167  -14.0373 N   0  0  0  0  0  0  0  0  0  0  0  0
   13.6906    8.3004   -9.6233 O   0  0  0  0  0  0  0  0  0  0  0  0
    7.6357    4.5123  -12.6317 C   0  0  2  0  0  0  0  0  0  0  0  0
    6.8831    4.9171  -11.7031 C   0  0  2  0  0  0  0  0  0  0  0  0
   10.5937    6.6967   -9.1779 C   0  0  0  0  0  0  0  0  0  0  0  0
    9.5087    4.3263  -11.6925 C   0  0  2  0  0  0  0  0  0  0  0  0
   11.6359    7.4449   -8.9125 C   0  0  0  0  0  0  0  0  0  0  0  0
   11.9716    7.9159   -7.6200 C   0  0  0  0  0  0  0  0  0  0  0  0
    8.4648    3.6122  -12.2840 C   0  0  1  0  0  0  0  0  0  0  0  0
    7.9253    2.8004  -11.3926 C   0  0  0  0  0  0  0  0  0  0  0  0
    5.6047    4.5059  -11.7589 C   0  0  0  0  0  0  0  0  0  0  0  0
    7.6606    4.1297  -10.5699 C   0  0  0  0  0  0  0  0  0  0  0  0
   10.9559    7.6849   -6.6057 C   0  0  0  0  0  0  0  0  0  0  0  0
    8.0094    4.5092   -9.5664 C   0  0  0  0  0  0  0  0  0  0  0  0
    8.3033    4.0627   -8.4980 C   0  0  0  0  0  0  0  0  0  0  0  0
    6.3587    7.1012  -11.0392 O   0  0  0  0  0  0  0  0  0  0  0  0
   11.0186    3.9598  -14.9226 C   0  0  0  0  0  0  0  0  0  0  0  0
    8.1758    5.8633  -10.2511 C   0  0  1  0  0  0  0  0  0  0  0  0
   11.4648    2.7104  -15.2650 O   0  0  0  0  0  0  0  0  0  0  0  0
    9.9512    6.8220   -6.8436 C   0  0  0  0  0  0  0  0  0  0  0  0
    9.6899    6.3705   -8.1082 C   0  0  2  0  0  0  0  0  0  0  0  0
   11.2597    8.2901   -5.2396 C   0  0  0  0  0  0  0  0  0  0  0  0
   11.6068    9.7354   -5.2006 C   0  0  0  0  0  0  0  0  0  0  0  0
   10.9469    4.9352  -15.8306 C   0  0  0  0  0  0  0  0  0  0  0  0
    9.2417    4.9555   -7.8256 C   0  0  0  0  0  0  0  0  0  0  0  0
   11.3657    7.7043   -4.0379 C   0  0  0  0  0  0  0  0  0  0  0  0
   11.4469   10.6225   -6.4157 C   0  0  0  0  0  0  0  0  0  0  0  0
   11.9077   10.2897   -3.9889 C   0  0  0  0  0  0  0  0  0  0  0  0
   11.9472    9.5143   -2.8307 C   0  0  0  0  0  0  0  0  0  0  0  0
    9.3030    2.8335  -13.6243 C   0  0  0  0  0  0  0  0  0  0  0  0
   11.0706    6.0966   -4.1041 S   0  0  0  0  0  0  0  0  0  0  0  0
   11.7343    8.3349   -3.0045 C   0  0  0  0  0  0  0  0  0  0  0  0
   12.1398    5.5239   -4.8589 O   0  0  0  0  0  0  0  0  0  0  0  0
   11.2273    5.7924   -2.5132 O   0  0  0  0  0  0  0  0  0  0  0  0
    9.7296    5.7465   -4.5156 C   0  0  1  0  0  0  0  0  0  0  0  0
    8.8786    6.8007   -5.9523 C   0  0  0  0  0  0  0  0  0  0  0  0
    7.8637    7.2355   -6.3338 O   0  0  0  0  0  0  0  0  0  0  0  0
    9.2748    4.5977   -3.7261 C   0  0  0  0  0  0  0  0  0  0  0  0
    8.7641    6.2147   -5.0724 C   0  0  1  0  0  0  0  0  0  0  0  0
    8.3238    4.1417   -4.4632 C   0  0  0  0  0  0  0  0  0  0  0  0
    7.9155    4.5627   -3.8417 C   0  0  2  0  0  0  0  0  0  0  0  0
    7.7256    5.3797   -5.1939 N   0  0  1  0  0  0  0  0  0  0  0  0
  1  2  1  0  0  0  0
  2  3  1  0  0  0  0
  2  7  2  0  0  0  0
  4  3  1  6  0  0  0
  4  5  1  0  0  0  0
  4  6  1  0  0  0  0
  4  8  1  0  0  0  0
  5  9  2  0  0  0  0
  6 13  1  0  0  0  0
  7 12  1  0  0  0  0
  8 19  2  0  0  0  0
 10  7  1  1  0  0  0
 10 14  1  0  0  0  0
 10 17  1  0  0  0  0
 11  8  1  6  0  0  0
 11 20  1  0  0  0  0
 11 32  1  0  0  0  0
 12 18  1  0  0  0  0
 12 30  1  1  0  0  0
 12 32  1  0  0  0  0
 13 16  2  0  0  0  0
 13 21  1  0  0  0  0
 14  5  1  1  0  0  0
 14 15  1  0  0  0  0
 14 20  1  0  0  0  0
 15 31  1  0  0  0  0
 15 44  1  0  0  0  0
 17 18  1  0  0  0  0
 17 23  1  0  0  0  0
 18 25  1  0  0  0  0
 18 26  1  0  0  0  0
 19 21  1  0  0  0  0
 19 35  1  0  0  0  0
 20 23  1  0  0  0  0
 21 22  2  0  0  0  0
 22 27  1  0  0  0  0
 23 24  1  0  0  0  0
 23 44  1  0  0  0  0
 24 26  1  0  0  0  0
 26 28  2  0  0  0  0
 27 34  2  0  0  0  0
 27 36  1  0  0  0  0
 28 29  1  0  0  0  0
 28 32  1  0  0  0  0
 29 39  2  0  0  0  0
 31 33  2  0  0  0  0
 31 38  1  0  0  0  0
 34 35  1  0  0  0  0
 34 50  1  0  0  0  0
 35 39  1  0  0  0  0
 36 37  1  0  0  0  0
 36 40  2  0  0  0  0
 37 41  1  0  0  0  0
 37 42  2  0  0  0  0
 40 45  1  0  0  0  0
 40 46  1  0  0  0  0
 42 43  1  0  0  0  0
 43 46  2  0  0  0  0
 45 47  2  0  0  0  0
 45 48  2  0  0  0  0
 45 49  1  0  0  0  0
 49 52  1  0  0  0  0
 49 53  1  0  0  0  0
 50 51  2  0  0  0  0
 50 53  1  0  0  0  0
 52 55  1  0  0  0  0
 53 56  1  0  0  0  0
 54 55  1  0  0  0  0
 54 56  1  0  0  0  0
 55 56  1  0  0  0  0
M  END
$$$$

 OpenBabel10082411353D

 28 32  0  0  0  0  0  0  0  0999 V2000
   10.5338    9.5630   -5.0683 C   0  0  0  0  0  0  0  0  0  0  0  0
   11.6326    9.3232   -4.4343 C   0  0  0  0  0  0  0  0  0  0  0  0
   10.1175    8.4558   -5.9583 O   0  0  0  0  0  0  0  0  0  0  0  0
   11.2137    7.9307   -6.4519 C   0  0  1  0  0  0  0  0  0  0  0  0
   12.3805    8.4362   -5.4668 C   0  0  0  0  0  0  0  0  0  0  0  0
   11.1829    6.4410   -6.3835 C   0  0  0  0  0  0  0  0  0  0  0  0
   11.5307    8.4278   -7.8431 C   0  0  0  0  0  0  0  0  0  0  0  0
   10.9695    7.6928   -8.9182 C   0  0  0  0  0  0  0  0  0  0  0  0
   10.6724    8.2768  -10.0336 C   0  0  0  0  0  0  0  0  0  0  0  0
   10.0385    7.4564  -11.1366 C   0  0  0  0  0  0  0  0  0  0  0  0
   10.1397    6.1099  -11.1838 C   0  0  0  0  0  0  0  0  0  0  0  0
    9.3255    8.2273  -12.2243 C   0  0  0  0  0  0  0  0  0  0  0  0
    8.1145    8.9106  -11.7538 C   0  0  0  0  0  0  0  0  0  0  0  0
   10.4444    5.4278  -10.0118 C   0  0  0  0  0  0  0  0  0  0  0  0
   10.9789    6.1875   -8.8320 C   0  0  0  0  0  0  0  0  0  0  0  0
   11.2250    5.6168   -7.5866 C   0  0  0  0  0  0  0  0  0  0  0  0
    9.5926    5.1489  -12.1900 C   0  0  0  0  0  0  0  0  0  0  0  0
    8.3818    4.7973  -12.4219 C   0  0  0  0  0  0  0  0  0  0  0  0
   10.6536    4.7130  -13.0933 C   0  0  0  0  0  0  0  0  0  0  0  0
    7.3334    5.1704  -11.3902 C   0  0  0  0  0  0  0  0  0  0  0  0
    8.2200    3.9214  -13.3882 C   0  0  0  0  0  0  0  0  0  0  0  0
    9.0697    3.5131  -14.2843 C   0  0  0  0  0  0  0  0  0  0  0  0
   10.2997    3.7832  -14.1821 C   0  0  0  0  0  0  0  0  0  0  0  0
    8.8005    2.4077  -15.4300 C   0  0  0  0  0  0  0  0  0  0  0  0
   11.4168    3.3879  -14.9969 C   0  0  0  0  0  0  0  0  0  0  0  0
    9.8974    2.1086  -16.1806 N   0  0  0  0  0  0  0  0  0  0  0  0
   12.7469    3.8884  -14.8289 O   0  0  0  0  0  0  0  0  0  0  0  0
   11.1689    2.5055  -15.9586 C   0  0  0  0  0  0  0  0  0  0  0  0
  1  2  1  0  0  0  0
  1  3  1  0  0  0  0
  2  5  1  0  0  0  0
  3  4  1  0  0  0  0
  4  5  1  1  0  0  0
  4  6  1  0  0  0  0
  4  7  1  0  0  0  0
  6 16  1  0  0  0  0
  7  8  1  0  0  0  0
  8  9  2  0  0  0  0
  8 15  1  0  0  0  0
  9 10  1  0  0  0  0
 10 11  2  0  0  0  0
 10 12  1  0  0  0  0
 11 14  1  0  0  0  0
 11 17  1  0  0  0  0
 12 13  1  0  0  0  0
 14 15  2  0  0  0  0
 15 16  1  0  0  0  0
 17 18  1  0  0  0  0
 17 19  2  0  0  0  0
 18 20  1  0  0  0  0
 18 21  2  0  0  0  0
 19 23  1  0  0  0  0
 21 22  1  0  0  0  0
 22 23  2  0  0  0  0
 22 24  1  0  0  0  0
 23 25  1  0  0  0  0
 24 26  2  0  0  0  0
 25 27  1  0  0  0  0
 25 28  2  0  0  0  0
 26 28  1  0  0  0  0
M  END
$$$$

 OpenBabel10082411353D

 28 32  0  0  0  0  0  0  0  0999 V2000
   11.9925    6.6083   -4.7728 C   0  0  0  0  0  0  0  0  0  0  0  0
   11.4477    7.7141   -5.2577 C   0  0  0  0  0  0  0  0  0  0  0  0
   12.2896    6.5964   -3.2881 C   0  0  0  0  0  0  0  0  0  0  0  0
   11.4087    8.9270   -4.5689 C   0  0  0  0  0  0  0  0  0  0  0  0
   11.0700    7.6482   -6.7180 C   0  0  0  0  0  0  0  0  0  0  0  0
   11.9031    8.9562   -3.1377 C   0  0  0  0  0  0  0  0  0  0  0  0
   12.3774    7.8477   -2.5217 C   0  0  0  0  0  0  0  0  0  0  0  0
   10.4761    6.5776   -7.2169 C   0  0  0  0  0  0  0  0  0  0  0  0
   10.6681    8.9492   -7.1472 C   0  0  0  0  0  0  0  0  0  0  0  0
   10.1085    6.6234   -8.6282 C   0  0  0  0  0  0  0  0  0  0  0  0
   10.4500    9.0125   -8.6924 C   0  0  0  0  0  0  0  0  0  0  0  0
    9.6601    7.9334   -9.1481 N   0  0  0  0  0  0  0  0  0  0  0  0
    9.4452    7.9310  -10.5569 C   0  0  0  0  0  0  0  0  0  0  0  0
    9.6484    6.9783  -11.2444 C   0  0  0  0  0  0  0  0  0  0  0  0
    9.2204    9.1620  -11.1118 O   0  0  0  0  0  0  0  0  0  0  0  0
    8.7362    5.9509  -11.2837 C   0  0  0  0  0  0  0  0  0  0  0  0
    8.8536    4.7666  -12.1368 C   0  0  0  0  0  0  0  0  0  0  0  0
   10.6809    6.9310  -12.3353 C   0  0  0  0  0  0  0  0  0  0  0  0
    9.8671    4.6993  -13.0577 C   0  0  0  0  0  0  0  0  0  0  0  0
   11.5765    7.9772  -12.5141 O   0  0  0  0  0  0  0  0  0  0  0  0
   10.8020    5.8254  -13.2017 C   0  0  0  0  0  0  0  0  0  0  0  0
   10.0433    3.8155  -13.8024 N   0  0  0  0  0  0  0  0  0  0  0  0
    9.3779    2.5500  -13.8153 N   0  0  0  0  0  0  0  0  0  0  0  0
    9.7949    1.6901  -14.6819 C   0  0  0  0  0  0  0  0  0  0  0  0
   10.9792    3.6456  -14.8747 C   0  0  0  0  0  0  0  0  0  0  0  0
   12.0371    4.6322  -15.2341 C   0  0  0  0  0  0  0  0  0  0  0  0
   10.9921    2.2650  -15.5007 C   0  0  0  0  0  0  0  0  0  0  0  0
   11.8526    5.6962  -14.2395 C   0  0  0  0  0  0  0  0  0  0  0  0
  1  2  1  0  0  0  0
  1  3  2  0  0  0  0
  2  4  2  0  0  0  0
  2  5  1  0  0  0  0
  3  7  1  0  0  0  0
  4  6  1  0  0  0  0
  5  8  1  0  0  0  0
  5  9  1  0  0  0  0
  6  7  2  0  0  0  0
  8 10  1  0  0  0  0
  9 11  1  0  0  0  0
 10 12  1  0  0  0  0
 11 12  1  0  0  0  0
 12 13  1  0  0  0  0
 13 14  1  0  0  0  0
 13 15  2  0  0  0  0
 14 16  2  0  0  0  0
 14 18  1  0  0  0  0
 16 17  1  0  0  0  0
 17 19  2  0  0  0  0
 18 20  1  0  0  0  0
 18 21  2  0  0  0  0
 19 21  1  0  0  0  0
 19 22  1  0  0  0  0
 21 28  1  0  0  0  0
 22 23  1  0  0  0  0
 22 25  1  0  0  0  0
 23 24  2  0  0  0  0
 24 27  1  0  0  0  0
 25 26  1  0  0  0  0
 25 27  2  0  0  0  0
 26 28  2  0  0  0  0
M  END
$$$$

 OpenBabel10082411353D

 28 32  0  0  0  0  0  0  0  0999 V2000
   10.5338    9.5630   -5.0683 C   0  0  0  0  0  0  0  0  0  0  0  0
   11.6326    9.3232   -4.4343 C   0  0  0  0  0  0  0  0  0  0  0  0
   10.1175    8.4558   -5.9583 O   0  0  0  0  0  0  0  0  0  0  0  0
   11.2137    7.9307   -6.4519 C   0  0  1  0  0  0  0  0  0  0  0  0
   12.3805    8.4362   -5.4668 C   0  0  0  0  0  0  0  0  0  0  0  0
   11.1829    6.4410   -6.3835 C   0  0  0  0  0  0  0  0  0  0  0  0
   11.5307    8.4278   -7.8431 C   0  0  0  0  0  0  0  0  0  0  0  0
   10.9695    7.6928   -8.9182 C   0  0  0  0  0  0  0  0  0  0  0  0
   10.6724    8.2768  -10.0336 C   0  0  0  0  0  0  0  0  0  0  0  0
   10.0385    7.4564  -11.1366 C   0  0  0  0  0  0  0  0  0  0  0  0
   10.1397    6.1099  -11.1838 C   0  0  0  0  0  0  0  0  0  0  0  0
    9.3255    8.2273  -12.2243 C   0  0  0  0  0  0  0  0  0  0  0  0
    8.1145    8.9106  -11.7538 C   0  0  0  0  0  0  0  0  0  0  0  0
   10.4444    5.4278  -10.0118 C   0  0  0  0  0  0  0  0  0  0  0  0
   10.9789    6.1875   -8.8320 C   0  0  0  0  0  0  0  0  0  0  0  0
   11.2250    5.6168   -7.5866 C   0  0  0  0  0  0  0  0  0  0  0  0
    9.5926    5.1489  -12.1900 C   0  0  0  0  0  0  0  0  0  0  0  0
    8.3818    4.7973  -12.4219 C   0  0  0  0  0  0  0  0  0  0  0  0
   10.6536    4.7130  -13.0933 C   0  0  0  0  0  0  0  0  0  0  0  0
    7.3334    5.1704  -11.3902 C   0  0  0  0  0  0  0  0  0  0  0  0
    8.2200    3.9214  -13.3882 C   0  0  0  0  0  0  0  0  0  0  0  0
    9.0697    3.5131  -14.2843 C   0  0  0  0  0  0  0  0  0  0  0  0
   10.2997    3.7832  -14.1821 C   0  0  0  0  0  0  0  0  0  0  0  0
    8.8005    2.4077  -15.4300 C   0  0  0  0  0  0  0  0  0  0  0  0
   11.4168    3.3879  -14.9969 C   0  0  0  0  0  0  0  0  0  0  0  0
    9.8974    2.1086  -16.1806 C   0  0  0  0  0  0  0  0  0  0  0  0
    9.6134    1.1073  -17.2395 O   0  0  0  0  0  0  0  0  0  0  0  0
   11.2258    2.4197  -16.0091 C   0  0  0  0  0  0  0  0  0  0  0  0
  1  2  1  0  0  0  0
  1  3  1  0  0  0  0
  2  5  1  0  0  0  0
  3  4  1  0  0  0  0
  4  5  1  1  0  0  0
  4  6  1  0  0  0  0
  4  7  1  0  0  0  0
  6 16  1  0  0  0  0
  7  8  1  0  0  0  0
  8  9  2  0  0  0  0
  8 15  1  0  0  0  0
  9 10  1  0  0  0  0
 10 11  2  0  0  0  0
 10 12  1  0  0  0  0
 11 14  1  0  0  0  0
 11 17  1  0  0  0  0
 12 13  1  0  0  0  0
 14 15  2  0  0  0  0
 15 16  1  0  0  0  0
 17 18  1  0  0  0  0
 17 19  2  0  0  0  0
 18 20  1  0  0  0  0
 18 21  2  0  0  0  0
 19 23  1  0  0  0  0
 21 22  1  0  0  0  0
 22 23  2  0  0  0  0
 22 24  1  0  0  0  0
 23 25  1  0  0  0  0
 24 26  2  0  0  0  0
 25 28  2  0  0  0  0
 26 27  1  0  0  0  0
 26 28  1  0  0  0  0
M  END
$$$$

 OpenBabel10082411353D

 28 30  0  0  0  0  0  0  0  0999 V2000
   12.8881    8.7759   -3.5681 C   0  0  0  0  0  0  0  0  0  0  0  0
   11.9416    9.4732   -4.1220 C   0  0  0  0  0  0  0  0  0  0  0  0
   12.3556    7.6012   -2.6527 C   0  0  0  0  0  0  0  0  0  0  0  0
   11.8805    9.3400   -5.6557 C   0  0  0  0  0  0  0  0  0  0  0  0
   11.7716    6.5414   -3.3821 C   0  0  0  0  0  0  0  0  0  0  0  0
   10.8523    8.6585   -6.3310 C   0  0  0  0  0  0  0  0  0  0  0  0
   11.1142    8.2520   -7.7289 C   0  0  0  0  0  0  0  0  0  0  0  0
   10.0478    7.6568   -8.4887 C   0  0  0  0  0  0  0  0  0  0  0  0
   12.3648    8.4339   -8.3703 C   0  0  0  0  0  0  0  0  0  0  0  0
   12.6142    8.1352   -9.7322 C   0  0  0  0  0  0  0  0  0  0  0  0
   10.2852    7.3833   -9.9138 C   0  0  0  0  0  0  0  0  0  0  0  0
   11.5161    7.5808  -10.4860 C   0  0  0  0  0  0  0  0  0  0  0  0
   11.6641    7.2285  -11.8174 O   0  0  0  0  0  0  0  0  0  0  0  0
   10.8624    6.4419  -12.4395 C   0  0  0  0  0  0  0  0  0  0  0  0
   11.2693    5.8267  -13.4966 C   0  0  0  0  0  0  0  0  0  0  0  0
   10.3973    4.9870  -14.3057 C   0  0  0  0  0  0  0  0  0  0  0  0
   12.6295    5.9759  -14.0650 O   0  0  0  0  0  0  0  0  0  0  0  0
   10.8956    4.1934  -15.4489 C   0  0  0  0  0  0  0  0  0  0  0  0
    9.2617    4.6689  -13.8393 C   0  0  0  0  0  0  0  0  0  0  0  0
    9.1278    6.8012  -10.5958 C   0  0  0  0  0  0  0  0  0  0  0  0
    9.5642    6.1571  -11.9260 C   0  0  0  0  0  0  0  0  0  0  0  0
   12.7502    6.6186  -15.2675 C   0  0  0  0  0  0  0  0  0  0  0  0
    8.7679    5.3208  -12.5840 C   0  0  0  0  0  0  0  0  0  0  0  0
    7.2049    4.9098  -12.1268 C   0  0  0  0  0  0  0  0  0  0  0  0
   11.8839    3.2133  -15.1799 C   0  0  0  0  0  0  0  0  0  0  0  0
    9.7914    3.6329  -16.2977 C   0  0  0  0  0  0  0  0  0  0  0  0
    6.4341    5.7590  -12.4278 C   0  0  0  0  0  0  0  0  0  0  0  0
    7.0214    3.5039  -12.8271 C   0  0  0  0  0  0  0  0  0  0  0  0
  1  2  1  0  0  0  0
  1  3  1  0  0  0  0
  2  4  1  0  0  0  0
  3  5  1  0  0  0  0
  4  6  1  0  0  0  0
  6  7  1  0  0  0  0
  7  8  1  0  0  0  0
  7  9  2  0  0  0  0
  8 11  2  0  0  0  0
  9 10  1  0  0  0  0
 10 12  2  0  0  0  0
 11 12  1  0  0  0  0
 11 20  1  0  0  0  0
 12 13  1  0  0  0  0
 13 14  1  0  0  0  0
 14 15  2  0  0  0  0
 14 21  1  0  0  0  0
 15 16  1  0  0  0  0
 15 17  1  0  0  0  0
 16 18  1  0  0  0  0
 16 19  2  0  0  0  0
 17 22  1  0  0  0  0
 18 25  1  0  0  0  0
 18 26  1  0  0  0  0
 19 23  1  0  0  0  0
 20 21  1  0  0  0  0
 21 23  2  0  0  0  0
 23 24  1  0  0  0  0
 24 27  1  0  0  0  0
 24 28  1  0  0  0  0
M  END
$$$$

 OpenBabel10082411353D

 28 31  0  0  0  0  0  0  0  0999 V2000
   13.2485    9.2493   -6.3668 O   0  0  0  0  0  0  0  0  0  0  0  0
   12.3055    9.1779   -7.4488 C   0  0  1  0  0  0  0  0  0  0  0  0
   12.5005    8.1033   -8.2440 C   0  0  0  0  0  0  0  0  0  0  0  0
   11.7072    8.0925   -9.4886 C   0  0  0  0  0  0  0  0  0  0  0  0
   10.9116    9.4148   -7.0662 C   0  0  1  0  0  0  0  0  0  0  0  0
    9.9386    8.9657   -8.0654 C   0  0  0  0  0  0  0  0  0  0  0  0
   10.3196    7.8315   -8.9317 C   0  0  2  0  0  0  0  0  0  0  0  0
   10.1237    6.6155   -7.9733 C   0  0  2  0  0  0  0  0  0  0  0  0
    9.4711    7.7025  -10.1389 N   0  0  0  0  0  0  0  0  0  0  0  0
    8.9853    6.2010   -7.9545 O   0  0  0  0  0  0  0  0  0  0  0  0
   10.4471    8.5719   -5.8263 C   0  0  0  0  0  0  0  0  0  0  0  0
    8.8277    4.9823   -8.7016 C   0  0  0  0  0  0  0  0  0  0  0  0
   10.5671    7.0796   -6.5308 C   0  0  0  0  0  0  0  0  0  0  0  0
    9.9809    7.4743  -11.3743 C   0  0  0  0  0  0  0  0  0  0  0  0
    9.0505    7.4285  -12.4193 C   0  0  0  0  0  0  0  0  0  0  0  0
    9.0477    6.2588  -13.0112 C   0  0  0  0  0  0  0  0  0  0  0  0
   11.2333    7.5515  -11.6110 C   0  0  0  0  0  0  0  0  0  0  0  0
   11.7064    6.8083  -12.8473 C   0  0  0  0  0  0  0  0  0  0  0  0
   12.9043    6.7534  -13.2450 O   0  0  0  0  0  0  0  0  0  0  0  0
    7.5647    7.9935  -11.9086 C   0  0  0  0  0  0  0  0  0  0  0  0
   12.2998    8.0711  -10.8836 C   0  0  0  0  0  0  0  0  0  0  0  0
    8.0185    5.7908  -13.9387 C   0  0  0  0  0  0  0  0  0  0  0  0
    7.6772    9.3296  -12.0973 O   0  0  0  0  0  0  0  0  0  0  0  0
   10.7366    6.0654  -13.7084 C   0  0  0  0  0  0  0  0  0  0  0  0
   11.0645    5.1778  -14.6122 C   0  0  0  0  0  0  0  0  0  0  0  0
   11.1572    3.8348  -14.3109 C   0  0  0  0  0  0  0  0  0  0  0  0
   10.0137    3.0935  -13.9883 C   0  0  0  0  0  0  0  0  0  0  0  0
    9.8181    1.9739  -14.8953 C   0  0  0  0  0  0  0  0  0  0  0  0
  2  1  1  1  0  0  0
  2  3  1  0  0  0  0
  2  5  1  0  0  0  0
  3  4  1  0  0  0  0
  4  7  1  0  0  0  0
  4 21  2  0  0  0  0
  5  6  1  6  0  0  0
  5 11  1  0  0  0  0
  7  6  1  1  0  0  0
  7  8  1  0  0  0  0
  7  9  1  0  0  0  0
  8 10  1  1  0  0  0
  8 13  1  0  0  0  0
  9 14  1  0  0  0  0
 10 12  1  0  0  0  0
 11 13  1  0  0  0  0
 14 15  1  0  0  0  0
 14 17  2  0  0  0  0
 15 16  2  0  0  0  0
 15 20  1  0  0  0  0
 16 22  1  0  0  0  0
 16 24  1  0  0  0  0
 17 18  1  0  0  0  0
 17 21  1  0  0  0  0
 18 19  1  0  0  0  0
 18 24  2  0  0  0  0
 20 23  1  0  0  0  0
 24 25  1  0  0  0  0
 25 26  1  0  0  0  0
 26 27  1  0  0  0  0
 27 28  1  0  0  0  0
M  END
$$$$

 OpenBabel10082411353D

 28 31  0  0  0  0  0  0  0  0999 V2000
   11.6836    6.0105   -4.8831 C   0  0  0  0  0  0  0  0  0  0  0  0
   11.1291    7.0732   -5.4395 C   0  0  0  0  0  0  0  0  0  0  0  0
   10.6954    7.0156   -6.8073 C   0  0  0  0  0  0  0  0  0  0  0  0
   10.2502    8.1187   -7.5536 C   0  0  2  0  0  0  0  0  0  0  0  0
   11.1205    8.4712   -4.9629 C   0  0  0  0  0  0  0  0  0  0  0  0
   10.8655    8.3511   -8.7960 C   0  0  0  0  0  0  0  0  0  0  0  0
   10.2922    7.8843   -9.9985 C   0  0  0  0  0  0  0  0  0  0  0  0
   10.4654    9.6993   -5.6120 C   0  0  0  0  0  0  0  0  0  0  0  0
   10.3510    9.5971   -7.0014 C   0  0  0  0  0  0  0  0  0  0  0  0
   12.2462    6.3351   -3.5020 C   0  0  0  0  0  0  0  0  0  0  0  0
   11.0471    7.5309  -11.1063 C   0  0  0  0  0  0  0  0  0  0  0  0
   11.7288    8.6923   -3.6518 C   0  0  0  0  0  0  0  0  0  0  0  0
   12.3991    7.7501  -11.1145 C   0  0  0  0  0  0  0  0  0  0  0  0
   12.3738    7.7580   -2.9599 C   0  0  0  0  0  0  0  0  0  0  0  0
   13.1285    8.5075  -10.1661 O   0  0  0  0  0  0  0  0  0  0  0  0
    9.0407    7.3775  -10.0973 N   0  0  0  0  0  0  0  0  0  0  0  0
    8.9787    6.9473  -11.4664 N   0  0  0  0  0  0  0  0  0  0  0  0
   13.1012    7.4459  -12.3707 C   0  0  0  0  0  0  0  0  0  0  0  0
   12.2395    6.9724  -13.2444 C   0  0  0  0  0  0  0  0  0  0  0  0
    7.7579    6.3689  -11.9282 C   0  0  1  0  0  0  0  0  0  0  0  0
    7.4759    5.0504  -11.8148 C   0  0  0  0  0  0  0  0  0  0  0  0
   10.2318    7.0443  -11.9780 C   0  0  0  0  0  0  0  0  0  0  0  0
    6.6677    7.1344  -11.6331 O   0  0  0  0  0  0  0  0  0  0  0  0
    8.3763    4.1068  -12.2093 O   0  0  0  0  0  0  0  0  0  0  0  0
   10.9347    6.7285  -13.1738 C   0  0  0  0  0  0  0  0  0  0  0  0
    8.3629    3.4763  -13.3715 C   0  0  0  0  0  0  0  0  0  0  0  0
    9.5256    3.3871  -14.2032 C   0  0  0  0  0  0  0  0  0  0  0  0
   10.5791    2.6754  -13.6104 O   0  0  0  0  0  0  0  0  0  0  0  0
  1  2  1  0  0  0  0
  1 10  2  0  0  0  0
  2  3  1  0  0  0  0
  2  5  2  0  0  0  0
  3  4  1  0  0  0  0
  4  6  1  6  0  0  0
  4  9  1  0  0  0  0
  5  8  1  0  0  0  0
  5 12  1  0  0  0  0
  6  7  1  0  0  0  0
  7 11  1  0  0  0  0
  7 16  2  0  0  0  0
  8  9  1  0  0  0  0
 10 14  1  0  0  0  0
 11 13  2  0  0  0  0
 11 22  1  0  0  0  0
 12 14  2  0  0  0  0
 13 15  1  0  0  0  0
 13 18  1  0  0  0  0
 16 17  1  0  0  0  0
 17 20  1  0  0  0  0
 17 22  1  0  0  0  0
 18 19  2  0  0  0  0
 19 25  1  0  0  0  0
 20 21  1  0  0  0  0
 20 23  1  1  0  0  0
 21 24  1  0  0  0  0
 22 25  2  0  0  0  0
 24 26  1  0  0  0  0
 26 27  1  0  0  0  0
 27 28  1  0  0  0  0
M  END
$$$$

 OpenBabel10082411353D

 28 32  0  0  0  0  0  0  0  0999 V2000
   10.5338    9.5630   -5.0683 C   0  0  0  0  0  0  0  0  0  0  0  0
   11.6326    9.3232   -4.4343 C   0  0  0  0  0  0  0  0  0  0  0  0
   10.1175    8.4558   -5.9583 O   0  0  0  0  0  0  0  0  0  0  0  0
   11.2137    7.9307   -6.4519 C   0  0  1  0  0  0  0  0  0  0  0  0
   12.3805    8.4362   -5.4668 C   0  0  0  0  0  0  0  0  0  0  0  0
   11.1829    6.4410   -6.3835 C   0  0  0  0  0  0  0  0  0  0  0  0
   11.5307    8.4278   -7.8431 C   0  0  0  0  0  0  0  0  0  0  0  0
   10.9695    7.6928   -8.9182 C   0  0  0  0  0  0  0  0  0  0  0  0
   10.6724    8.2768  -10.0336 C   0  0  0  0  0  0  0  0  0  0  0  0
   10.0385    7.4564  -11.1366 C   0  0  0  0  0  0  0  0  0  0  0  0
   10.1397    6.1099  -11.1838 C   0  0  0  0  0  0  0  0  0  0  0  0
    9.3255    8.2273  -12.2243 C   0  0  0  0  0  0  0  0  0  0  0  0
    8.1145    8.9106  -11.7538 C   0  0  0  0  0  0  0  0  0  0  0  0
   10.4444    5.4278  -10.0118 C   0  0  0  0  0  0  0  0  0  0  0  0
   10.9789    6.1875   -8.8320 C   0  0  0  0  0  0  0  0  0  0  0  0
   11.2250    5.6168   -7.5866 C   0  0  0  0  0  0  0  0  0  0  0  0
    9.5926    5.1489  -12.1900 C   0  0  0  0  0  0  0  0  0  0  0  0
    8.3818    4.7973  -12.4219 C   0  0  0  0  0  0  0  0  0  0  0  0
   10.6536    4.7130  -13.0933 C   0  0  0  0  0  0  0  0  0  0  0  0
    7.3334    5.1704  -11.3902 C   0  0  0  0  0  0  0  0  0  0  0  0
    8.2200    3.9214  -13.3882 C   0  0  0  0  0  0  0  0  0  0  0  0
    9.0697    3.5131  -14.2843 C   0  0  0  0  0  0  0  0  0  0  0  0
   10.2997    3.7832  -14.1821 C   0  0  0  0  0  0  0  0  0  0  0  0
    8.8005    2.4077  -15.4300 C   0  0  0  0  0  0  0  0  0  0  0  0
   11.4168    3.3879  -14.9969 C   0  0  0  0  0  0  0  0  0  0  0  0
    9.8974    2.1086  -16.1806 C   0  0  0  0  0  0  0  0  0  0  0  0
    9.6134    1.1073  -17.2395 C   0  0  0  0  0  0  0  0  0  0  0  0
   11.1774    2.5012  -15.9519 C   0  0  0  0  0  0  0  0  0  0  0  0
  1  2  1  0  0  0  0
  1  3  1  0  0  0  0
  2  5  1  0  0  0  0
  3  4  1  0  0  0  0
  4  5  1  1  0  0  0
  4  6  1  0  0  0  0
  4  7  1  0  0  0  0
  6 16  1  0  0  0  0
  7  8  1  0  0  0  0
  8  9  2  0  0  0  0
  8 15  1  0  0  0  0
  9 10  1  0  0  0  0
 10 11  2  0  0  0  0
 10 12  1  0  0  0  0
 11 14  1  0  0  0  0
 11 17  1  0  0  0  0
 12 13  1  0  0  0  0
 14 15  2  0  0  0  0
 15 16  1  0  0  0  0
 17 18  1  0  0  0  0
 17 19  2  0  0  0  0
 18 20  1  0  0  0  0
 18 21  2  0  0  0  0
 19 23  1  0  0  0  0
 21 22  1  0  0  0  0
 22 23  2  0  0  0  0
 22 24  1  0  0  0  0
 23 25  1  0  0  0  0
 24 26  2  0  0  0  0
 25 28  2  0  0  0  0
 26 27  1  0  0  0  0
 26 28  1  0  0  0  0
M  END
$$$$

 OpenBabel10082411353D

 28 32  0  0  0  0  0  0  0  0999 V2000
    9.9628    9.3008   -5.6386 C   0  0  0  0  0  0  0  0  0  0  0  0
   11.0579    9.3174   -4.8874 C   0  0  0  0  0  0  0  0  0  0  0  0
   10.0238    8.5532   -6.9009 C   0  0  0  0  0  0  0  0  0  0  0  0
    8.9422    8.4514   -7.7296 O   0  0  0  0  0  0  0  0  0  0  0  0
   11.0140    7.6114   -7.2470 C   0  0  0  0  0  0  0  0  0  0  0  0
   10.8571    6.8731   -8.5114 C   0  0  0  0  0  0  0  0  0  0  0  0
   11.1242   10.0594   -3.7508 O   0  0  0  0  0  0  0  0  0  0  0  0
   12.3364    9.8197   -3.0510 C   0  0  0  0  0  0  0  0  0  0  0  0
   12.2287    8.4512   -5.2749 C   0  0  0  0  0  0  0  0  0  0  0  0
    9.4279    6.5259   -8.5572 C   0  0  2  0  0  0  0  0  0  0  0  0
   13.3632    8.4956   -4.3628 O   0  0  0  0  0  0  0  0  0  0  0  0
    9.3151    5.5378   -9.6781 C   0  0  0  0  0  0  0  0  0  0  0  0
   12.1913    7.6972   -6.4133 C   0  0  0  0  0  0  0  0  0  0  0  0
    9.6980    5.8035  -10.9178 N   0  0  0  0  0  0  0  0  0  0  0  0
   13.0976    8.4028   -3.1334 C   0  0  0  0  0  0  0  0  0  0  0  0
    9.2838    5.0303  -11.9691 C   0  0  0  0  0  0  0  0  0  0  0  0
    8.8199    7.8069   -8.7343 C   0  0  0  0  0  0  0  0  0  0  0  0
    8.4629    4.0434  -11.8588 O   0  0  0  0  0  0  0  0  0  0  0  0
    9.8577    5.4010  -13.2346 C   0  0  2  0  0  0  0  0  0  0  0  0
   10.0783    4.3287  -14.0783 C   0  0  0  0  0  0  0  0  0  0  0  0
   11.0639    6.1423  -12.9236 C   0  0  1  0  0  0  0  0  0  0  0  0
   11.4580    7.1678  -13.9333 C   0  0  0  0  0  0  0  0  0  0  0  0
   12.6989    6.8966  -14.6222 C   0  0  0  0  0  0  0  0  0  0  0  0
    9.4992    4.0916  -15.2297 C   0  0  0  0  0  0  0  0  0  0  0  0
   10.9634    3.1650  -13.6964 C   0  0  0  0  0  0  0  0  0  0  0  0
   11.0500    2.2332  -14.6768 C   0  0  0  0  0  0  0  0  0  0  0  0
   10.0503    2.5273  -15.8598 S   0  0  0  0  0  0  0  0  0  0  0  0
   10.8401    6.7947  -11.4871 C   0  0  0  0  0  0  0  0  0  0  0  0
  1  2  1  0  0  0  0
  1  3  2  0  0  0  0
  2  7  1  0  0  0  0
  2  9  2  0  0  0  0
  3  4  1  0  0  0  0
  3  5  1  0  0  0  0
  4 17  1  0  0  0  0
  5  6  1  0  0  0  0
  5 13  2  0  0  0  0
  6 10  1  0  0  0  0
  7  8  1  0  0  0  0
  8 15  1  0  0  0  0
  9 11  1  0  0  0  0
  9 13  1  0  0  0  0
 10 12  1  6  0  0  0
 10 17  1  0  0  0  0
 11 15  1  0  0  0  0
 12 14  1  0  0  0  0
 14 16  1  0  0  0  0
 14 28  1  0  0  0  0
 16 18  2  0  0  0  0
 16 19  1  0  0  0  0
 19 20  1  6  0  0  0
 19 21  1  0  0  0  0
 20 24  2  0  0  0  0
 20 25  1  0  0  0  0
 21 22  1  6  0  0  0
 21 28  1  0  0  0  0
 22 23  1  0  0  0  0
 24 27  1  0  0  0  0
 25 26  2  0  0  0  0
 26 27  1  0  0  0  0
M  END
$$$$

 OpenBabel10082411353D

 28 32  0  0  0  0  0  0  0  0999 V2000
   12.7863    7.8241  -14.2109 C   0  0  0  0  0  0  0  0  0  0  0  0
   12.4233    7.7158  -13.0289 C   0  0  0  0  0  0  0  0  0  0  0  0
   12.9219    8.1949  -11.8668 C   0  0  0  0  0  0  0  0  0  0  0  0
   11.4275    6.6086  -12.7931 C   0  0  0  0  0  0  0  0  0  0  0  0
   10.3411    6.8404  -12.0679 C   0  0  0  0  0  0  0  0  0  0  0  0
   10.7226    7.4332  -10.7281 C   0  0  0  0  0  0  0  0  0  0  0  0
   11.9330    8.1749  -10.6718 C   0  0  0  0  0  0  0  0  0  0  0  0
    9.1847    5.7774  -11.9431 C   0  0  1  0  0  0  0  0  0  0  0  0
    9.7417    7.5228   -9.7082 N   0  0  0  0  0  0  0  0  0  0  0  0
   10.0226    8.3874   -8.6769 C   0  0  0  0  0  0  0  0  0  0  0  0
   10.1341    7.7462   -7.2543 C   0  0  0  0  0  0  0  0  0  0  0  0
   11.3271    5.6181  -13.9601 C   0  0  0  0  0  0  0  0  0  0  0  0
   10.9489    8.3545   -6.3454 C   0  0  0  0  0  0  0  0  0  0  0  0
    9.4721    6.6206   -6.8773 C   0  0  0  0  0  0  0  0  0  0  0  0
    9.6492    6.0782   -5.6819 C   0  0  0  0  0  0  0  0  0  0  0  0
    8.2853    6.1002  -13.0033 C   0  0  0  0  0  0  0  0  0  0  0  0
   12.8236    6.9905  -15.2601 C   0  0  0  0  0  0  0  0  0  0  0  0
    9.5654    4.3459  -12.0159 C   0  0  0  0  0  0  0  0  0  0  0  0
   10.5093    6.6444   -4.7816 C   0  0  0  0  0  0  0  0  0  0  0  0
   11.9406    5.9200  -15.1539 C   0  0  0  0  0  0  0  0  0  0  0  0
   11.1438    7.8057   -5.1130 C   0  0  0  0  0  0  0  0  0  0  0  0
   11.9928    8.4432   -4.1235 C   0  0  0  0  0  0  0  0  0  0  0  0
   10.3446    4.3205  -13.4672 C   0  0  1  0  0  0  0  0  0  0  0  0
    9.4023    3.9353  -14.4789 C   0  0  1  0  0  0  0  0  0  0  0  0
    9.1489    2.6017  -14.5433 C   0  0  0  0  0  0  0  0  0  0  0  0
   10.2090    1.7632  -14.6149 O   0  0  0  0  0  0  0  0  0  0  0  0
    8.0583    2.1231  -15.0083 O   0  0  0  0  0  0  0  0  0  0  0  0
    8.1379    4.6787  -13.9767 C   0  0  0  0  0  0  0  0  0  0  0  0
  1  2  1  0  0  0  0
  1 17  2  0  0  0  0
  2  3  1  0  0  0  0
  2  4  2  0  0  0  0
  3  7  2  0  0  0  0
  4  5  1  0  0  0  0
  4 12  1  0  0  0  0
  5  6  2  0  0  0  0
  5  8  1  0  0  0  0
  6  7  1  0  0  0  0
  6  9  1  0  0  0  0
  8 16  1  6  0  0  0
  8 18  1  0  0  0  0
  9 10  1  0  0  0  0
 10 11  1  0  0  0  0
 11 13  1  0  0  0  0
 11 14  2  0  0  0  0
 12 20  2  0  0  0  0
 12 23  1  0  0  0  0
 13 21  2  0  0  0  0
 14 15  1  0  0  0  0
 15 19  2  0  0  0  0
 16 28  1  0  0  0  0
 17 20  1  0  0  0  0
 19 21  1  0  0  0  0
 21 22  1  0  0  0  0
 23 18  1  1  0  0  0
 23 24  1  0  0  0  0
 24 25  1  1  0  0  0
 24 28  1  0  0  0  0
 25 26  1  0  0  0  0
 25 27  2  0  0  0  0
M  END
$$$$

 OpenBabel10082411353D

 18 19  0  0  0  0  0  0  0  0999 V2000
   12.7863    7.8241  -14.2109 C   0  0  0  0  0  0  0  0  0  0  0  0
   12.4233    7.7158  -13.0289 C   0  0  0  0  0  0  0  0  0  0  0  0
   11.3194    6.8571  -12.8028 C   0  0  0  0  0  0  0  0  0  0  0  0
   12.3150    7.2021  -15.3582 C   0  0  0  0  0  0  0  0  0  0  0  0
   11.2733    6.2739  -15.1502 C   0  0  0  0  0  0  0  0  0  0  0  0
   10.8099    6.0126  -13.8600 C   0  0  0  0  0  0  0  0  0  0  0  0
    9.6782    5.1428  -13.6488 C   0  0  0  0  0  0  0  0  0  0  0  0
    8.5753    5.3880  -12.9589 N   0  0  0  0  0  0  0  0  0  0  0  0
    8.3226    6.7011  -12.3862 C   0  0  0  0  0  0  0  0  0  0  0  0
    9.8502    3.8578  -14.0728 C   0  0  0  0  0  0  0  0  0  0  0  0
    8.7942    2.9244  -13.8612 C   0  0  0  0  0  0  0  0  0  0  0  0
   11.1259    3.2842  -14.6398 C   0  0  0  0  0  0  0  0  0  0  0  0
    7.5630    4.4685  -12.9329 C   0  0  0  0  0  0  0  0  0  0  0  0
    6.3682    4.8295  -12.2626 O   0  0  0  0  0  0  0  0  0  0  0  0
    8.9902    1.5574  -14.3550 O   0  0  0  0  0  0  0  0  0  0  0  0
    7.6905    7.6551  -13.2159 C   0  0  0  0  0  0  0  0  0  0  0  0
    7.6511    3.1880  -13.2833 N   0  0  0  0  0  0  0  0  0  0  0  0
    7.3108    8.9063  -12.4583 C   0  0  0  0  0  0  0  0  0  0  0  0
  1  2  2  0  0  0  0
  1  4  1  0  0  0  0
  2  3  1  0  0  0  0
  3  6  2  0  0  0  0
  4  5  2  0  0  0  0
  5  6  1  0  0  0  0
  6  7  1  0  0  0  0
  7  8  1  0  0  0  0
  7 10  2  0  0  0  0
  8  9  1  0  0  0  0
  8 13  1  0  0  0  0
  9 16  1  0  0  0  0
 10 11  1  0  0  0  0
 10 12  1  0  0  0  0
 11 15  1  0  0  0  0
 11 17  2  0  0  0  0
 13 14  2  0  0  0  0
 13 17  1  0  0  0  0
 16 18  1  0  0  0  0
M  END
$$$$

 OpenBabel10082411353D

 28 30  0  0  0  0  0  0  0  0999 V2000
   10.9951    9.9694   -4.9946 C   0  0  0  0  0  0  0  0  0  0  0  0
   11.7938    9.3762   -4.2463 C   0  0  0  0  0  0  0  0  0  0  0  0
   10.8673    9.4548   -6.4276 C   0  0  0  0  0  0  0  0  0  0  0  0
   11.6576    7.9117   -4.2944 C   0  0  0  0  0  0  0  0  0  0  0  0
   10.5498    8.0257   -6.4521 C   0  0  0  0  0  0  0  0  0  0  0  0
   11.4715    7.2752   -5.6166 C   0  0  0  0  0  0  0  0  0  0  0  0
   10.5840    7.5390   -7.9254 C   0  0  0  0  0  0  0  0  0  0  0  0
   11.4612    8.1494   -8.8322 C   0  0  0  0  0  0  0  0  0  0  0  0
   12.6250    8.6294   -8.4338 O   0  0  0  0  0  0  0  0  0  0  0  0
   11.0835    8.4395  -10.0740 O   0  0  0  0  0  0  0  0  0  0  0  0
   11.2938    7.5612  -11.0769 C   0  0  0  0  0  0  0  0  0  0  0  0
   10.1547    7.2525  -11.9492 C   0  0  0  0  0  0  0  0  0  0  0  0
   10.4293    6.5622  -13.1348 C   0  0  0  0  0  0  0  0  0  0  0  0
   11.7295    6.4217  -13.6243 C   0  0  0  0  0  0  0  0  0  0  0  0
    8.8120    7.3918  -11.4649 C   0  0  0  0  0  0  0  0  0  0  0  0
   12.5351    7.8894  -11.6869 C   0  0  0  0  0  0  0  0  0  0  0  0
   13.5778    8.4243  -10.9673 O   0  0  0  0  0  0  0  0  0  0  0  0
    7.7211    7.1761  -12.4323 C   0  0  0  0  0  0  0  0  0  0  0  0
   12.8103    7.0723  -12.8897 C   0  0  0  0  0  0  0  0  0  0  0  0
    7.0543    5.9667  -12.3369 C   0  0  0  0  0  0  0  0  0  0  0  0
    7.2392    8.1844  -13.1320 C   0  0  0  0  0  0  0  0  0  0  0  0
   12.0288    5.6463  -14.9695 C   0  0  0  0  0  0  0  0  0  0  0  0
    6.4764    5.5077  -13.4785 O   0  0  0  0  0  0  0  0  0  0  0  0
    7.1052    5.2025  -11.3444 O   0  0  0  0  0  0  0  0  0  0  0  0
   12.3034    6.3506  -15.9502 C   0  0  0  0  0  0  0  0  0  0  0  0
   12.4972    5.4594  -17.1574 N   0  0  0  0  0  0  0  0  0  0  0  0
   12.1848    4.2463  -16.7288 C   0  0  0  0  0  0  0  0  0  0  0  0
   11.8564    3.9787  -15.2663 S   0  0  0  0  0  0  0  0  0  0  0  0
  1  2  1  0  0  0  0
  1  3  1  0  0  0  0
  2  4  1  0  0  0  0
  3  5  1  0  0  0  0
  4  6  1  0  0  0  0
  5  6  1  0  0  0  0
  5  7  1  0  0  0  0
  7  8  1  0  0  0  0
  8  9  2  0  0  0  0
  8 10  1  0  0  0  0
 10 11  1  0  0  0  0
 11 12  1  0  0  0  0
 11 16  2  0  0  0  0
 12 13  2  0  0  0  0
 12 15  1  0  0  0  0
 13 14  1  0  0  0  0
 14 19  2  0  0  0  0
 14 22  1  0  0  0  0
 15 18  1  0  0  0  0
 16 17  1  0  0  0  0
 16 19  1  0  0  0  0
 18 20  1  0  0  0  0
 18 21  2  0  0  0  0
 20 23  2  0  0  0  0
 20 24  1  0  0  0  0
 22 25  2  0  0  0  0
 22 28  1  0  0  0  0
 25 26  1  0  0  0  0
 26 27  2  0  0  0  0
 27 28  1  0  0  0  0
M  END
$$$$

 OpenBabel10082411353D

 28 31  0  0  0  0  0  0  0  0999 V2000
   10.7609    9.6228   -4.2714 C   0  0  0  0  0  0  0  0  0  0  0  0
   10.4930    9.4831   -5.5343 O   0  0  0  0  0  0  0  0  0  0  0  0
   12.1241    8.9612   -3.9683 C   0  0  0  0  0  0  0  0  0  0  0  0
   11.9595    7.4972   -3.6490 C   0  0  0  0  0  0  0  0  0  0  0  0
   10.0626    8.2718   -5.9247 C   0  0  2  0  0  0  0  0  0  0  0  0
   11.0818    7.1106   -5.8856 C   0  0  1  0  0  0  0  0  0  0  0  0
   11.4454    6.5628   -4.6426 C   0  0  0  0  0  0  0  0  0  0  0  0
    9.6916    8.5822   -7.5535 C   0  0  0  0  0  0  0  0  0  0  0  0
    9.2295    7.3942   -8.1594 O   0  0  0  0  0  0  0  0  0  0  0  0
   10.0442    6.3544   -8.2284 C   0  0  1  0  0  0  0  0  0  0  0  0
   10.6900    6.0197   -6.9340 C   0  0  0  0  0  0  0  0  0  0  0  0
    9.2093    5.3488   -9.0145 C   0  0  0  0  0  0  0  0  0  0  0  0
    9.1425    5.4986  -10.3612 C   0  0  0  0  0  0  0  0  0  0  0  0
    9.9871    6.3420  -10.9670 C   0  0  0  0  0  0  0  0  0  0  0  0
   10.0039    6.5813  -12.4468 C   0  0  0  0  0  0  0  0  0  0  0  0
    8.1137    5.0354  -11.2020 C   0  0  0  0  0  0  0  0  0  0  0  0
   11.1183    7.3985  -12.9805 C   0  0  0  0  0  0  0  0  0  0  0  0
    8.1734    5.1442  -12.6110 C   0  0  0  0  0  0  0  0  0  0  0  0
    9.1543    5.9565  -13.1977 C   0  0  0  0  0  0  0  0  0  0  0  0
   12.2554    7.4764  -12.3382 O   0  0  0  0  0  0  0  0  0  0  0  0
    7.1047    4.4537  -13.4024 C   0  0  0  0  0  0  0  0  0  0  0  0
    7.4438    3.0538  -13.6794 C   0  0  0  0  0  0  0  0  0  0  0  0
   11.3620    7.2571  -14.3544 O   0  0  0  0  0  0  0  0  0  0  0  0
    6.5374    2.0024  -13.3196 C   0  0  0  0  0  0  0  0  0  0  0  0
    8.2295    2.7109  -14.7681 C   0  0  0  0  0  0  0  0  0  0  0  0
    6.8231    0.7059  -13.4564 C   0  0  0  0  0  0  0  0  0  0  0  0
    7.9576    0.3667  -14.4713 C   0  0  0  0  0  0  0  0  0  0  0  0
    8.6223    1.3922  -14.9552 C   0  0  0  0  0  0  0  0  0  0  0  0
  1  2  1  0  0  0  0
  1  3  1  0  0  0  0
  2  5  1  0  0  0  0
  3  4  1  0  0  0  0
  4  7  1  0  0  0  0
  5  6  1  0  0  0  0
  5  8  1  6  0  0  0
  6  7  1  1  0  0  0
  6 11  1  0  0  0  0
  8  9  1  0  0  0  0
  9 10  1  0  0  0  0
 10 11  1  0  0  0  0
 10 12  1  1  0  0  0
 12 13  1  0  0  0  0
 13 14  2  0  0  0  0
 13 16  1  0  0  0  0
 14 15  1  0  0  0  0
 15 17  1  0  0  0  0
 15 19  2  0  0  0  0
 16 18  2  0  0  0  0
 17 20  1  0  0  0  0
 17 23  2  0  0  0  0
 18 19  1  0  0  0  0
 18 21  1  0  0  0  0
 21 22  1  0  0  0  0
 22 24  1  0  0  0  0
 22 25  2  0  0  0  0
 24 26  2  0  0  0  0
 25 28  1  0  0  0  0
 26 27  1  0  0  0  0
 27 28  2  0  0  0  0
M  END
$$$$

 OpenBabel10082411353D

 28 30  0  0  0  0  0  0  0  0999 V2000
   12.8881    8.7759   -3.5681 C   0  0  0  0  0  0  0  0  0  0  0  0
   11.9416    9.4732   -4.1220 C   0  0  0  0  0  0  0  0  0  0  0  0
   12.3556    7.6012   -2.6527 C   0  0  0  0  0  0  0  0  0  0  0  0
   11.8805    9.3400   -5.6557 C   0  0  0  0  0  0  0  0  0  0  0  0
   11.7716    6.5414   -3.3821 C   0  0  0  0  0  0  0  0  0  0  0  0
   10.8523    8.6585   -6.3310 C   0  0  0  0  0  0  0  0  0  0  0  0
   11.1142    8.2520   -7.7289 C   0  0  0  0  0  0  0  0  0  0  0  0
   10.0478    7.6568   -8.4887 C   0  0  0  0  0  0  0  0  0  0  0  0
   12.3648    8.4339   -8.3703 C   0  0  0  0  0  0  0  0  0  0  0  0
   12.6142    8.1352   -9.7322 C   0  0  0  0  0  0  0  0  0  0  0  0
   10.2852    7.3833   -9.9138 C   0  0  0  0  0  0  0  0  0  0  0  0
   11.5161    7.5808  -10.4860 C   0  0  0  0  0  0  0  0  0  0  0  0
   11.6641    7.2285  -11.8174 O   0  0  0  0  0  0  0  0  0  0  0  0
   10.8624    6.4419  -12.4395 C   0  0  0  0  0  0  0  0  0  0  0  0
   11.2693    5.8267  -13.4966 C   0  0  0  0  0  0  0  0  0  0  0  0
    9.5259    6.2192  -11.9953 C   0  0  0  0  0  0  0  0  0  0  0  0
    9.2551    6.6732  -10.5921 C   0  0  2  0  0  0  0  0  0  0  0  0
    8.1388    7.5201  -10.6434 O   0  0  0  0  0  0  0  0  0  0  0  0
   12.6263    6.1828  -14.1606 C   0  0  0  0  0  0  0  0  0  0  0  0
   10.5060    4.8097  -14.1219 C   0  0  0  0  0  0  0  0  0  0  0  0
   12.6450    7.4378  -14.7214 C   0  0  0  0  0  0  0  0  0  0  0  0
    8.7396    5.2583  -12.5420 C   0  0  0  0  0  0  0  0  0  0  0  0
    8.2551    8.6972  -11.3760 C   0  0  0  0  0  0  0  0  0  0  0  0
   10.9108    4.0830  -15.3397 C   0  0  0  0  0  0  0  0  0  0  0  0
    7.3647    4.9619  -12.0763 C   0  0  0  0  0  0  0  0  0  0  0  0
    9.1717    4.5536  -13.7461 C   0  0  0  0  0  0  0  0  0  0  0  0
   11.7053    2.9193  -14.9930 C   0  0  0  0  0  0  0  0  0  0  0  0
    6.3537    5.0143  -13.0163 C   0  0  0  0  0  0  0  0  0  0  0  0
  1  2  1  0  0  0  0
  1  3  1  0  0  0  0
  2  4  1  0  0  0  0
  3  5  1  0  0  0  0
  4  6  1  0  0  0  0
  6  7  1  0  0  0  0
  7  8  1  0  0  0  0
  7  9  2  0  0  0  0
  8 11  2  0  0  0  0
  9 10  1  0  0  0  0
 10 12  2  0  0  0  0
 11 12  1  0  0  0  0
 11 17  1  0  0  0  0
 12 13  1  0  0  0  0
 13 14  1  0  0  0  0
 14 15  2  0  0  0  0
 14 16  1  0  0  0  0
 15 19  1  0  0  0  0
 15 20  1  0  0  0  0
 16 17  1  0  0  0  0
 16 22  2  0  0  0  0
 17 18  1  6  0  0  0
 18 23  1  0  0  0  0
 19 21  1  0  0  0  0
 20 24  1  0  0  0  0
 20 26  2  0  0  0  0
 22 25  1  0  0  0  0
 22 26  1  0  0  0  0
 24 27  1  0  0  0  0
 25 28  1  0  0  0  0
M  END
$$$$

 OpenBabel10082411353D

 28 31  0  0  0  0  0  0  0  0999 V2000
   11.6836    6.0105   -4.8831 C   0  0  0  0  0  0  0  0  0  0  0  0
   11.1291    7.0732   -5.4395 C   0  0  0  0  0  0  0  0  0  0  0  0
   10.6954    7.0156   -6.8073 C   0  0  0  0  0  0  0  0  0  0  0  0
   10.2502    8.1187   -7.5536 C   0  0  2  0  0  0  0  0  0  0  0  0
   11.1205    8.4712   -4.9629 C   0  0  0  0  0  0  0  0  0  0  0  0
   10.8655    8.3511   -8.7960 C   0  0  0  0  0  0  0  0  0  0  0  0
   10.2922    7.8843   -9.9985 C   0  0  0  0  0  0  0  0  0  0  0  0
   10.4654    9.6993   -5.6120 C   0  0  0  0  0  0  0  0  0  0  0  0
   10.3510    9.5971   -7.0014 C   0  0  0  0  0  0  0  0  0  0  0  0
   12.2462    6.3351   -3.5020 C   0  0  0  0  0  0  0  0  0  0  0  0
   11.0471    7.5309  -11.1063 C   0  0  0  0  0  0  0  0  0  0  0  0
   11.7288    8.6923   -3.6518 C   0  0  0  0  0  0  0  0  0  0  0  0
   12.3991    7.7501  -11.1145 C   0  0  0  0  0  0  0  0  0  0  0  0
   12.3738    7.7580   -2.9599 C   0  0  0  0  0  0  0  0  0  0  0  0
   13.1285    8.5075  -10.1661 O   0  0  0  0  0  0  0  0  0  0  0  0
    9.0407    7.3775  -10.0973 N   0  0  0  0  0  0  0  0  0  0  0  0
    8.9787    6.9473  -11.4664 N   0  0  0  0  0  0  0  0  0  0  0  0
   13.1012    7.4459  -12.3707 C   0  0  0  0  0  0  0  0  0  0  0  0
   12.2395    6.9724  -13.2444 C   0  0  0  0  0  0  0  0  0  0  0  0
    7.7579    6.3689  -11.9282 C   0  0  1  0  0  0  0  0  0  0  0  0
    7.4759    5.0504  -11.8148 C   0  0  0  0  0  0  0  0  0  0  0  0
   10.2318    7.0443  -11.9780 C   0  0  0  0  0  0  0  0  0  0  0  0
    6.6677    7.1344  -11.6331 O   0  0  0  0  0  0  0  0  0  0  0  0
   12.9095    6.5928  -14.5981 O   0  0  0  0  0  0  0  0  0  0  0  0
   10.8231    6.6796  -13.2018 C   0  0  0  0  0  0  0  0  0  0  0  0
   12.5376    7.2941  -15.7460 C   0  0  0  0  0  0  0  0  0  0  0  0
    6.8986    4.2334  -12.9630 C   0  0  0  0  0  0  0  0  0  0  0  0
    6.0584    3.3473  -12.6311 C   0  0  0  0  0  0  0  0  0  0  0  0
  1  2  1  0  0  0  0
  1 10  2  0  0  0  0
  2  3  1  0  0  0  0
  2  5  2  0  0  0  0
  3  4  1  0  0  0  0
  4  6  1  6  0  0  0
  4  9  1  0  0  0  0
  5  8  1  0  0  0  0
  5 12  1  0  0  0  0
  6  7  1  0  0  0  0
  7 11  1  0  0  0  0
  7 16  2  0  0  0  0
  8  9  1  0  0  0  0
 10 14  1  0  0  0  0
 11 13  2  0  0  0  0
 11 22  1  0  0  0  0
 12 14  2  0  0  0  0
 13 15  1  0  0  0  0
 13 18  1  0  0  0  0
 16 17  1  0  0  0  0
 17 20  1  0  0  0  0
 17 22  1  0  0  0  0
 18 19  2  0  0  0  0
 19 24  1  0  0  0  0
 19 25  1  0  0  0  0
 20 21  1  0  0  0  0
 20 23  1  1  0  0  0
 21 27  1  0  0  0  0
 22 25  2  0  0  0  0
 24 26  1  0  0  0  0
 27 28  1  0  0  0  0
M  END
$$$$

 OpenBabel10082411353D

 28 31  0  0  0  0  0  0  0  0999 V2000
   11.9925    6.6083   -4.7728 C   0  0  0  0  0  0  0  0  0  0  0  0
   11.4477    7.7141   -5.2577 C   0  0  0  0  0  0  0  0  0  0  0  0
   12.2896    6.5964   -3.2881 C   0  0  0  0  0  0  0  0  0  0  0  0
   11.4087    8.9270   -4.5689 C   0  0  0  0  0  0  0  0  0  0  0  0
   11.0700    7.6482   -6.7180 C   0  0  0  0  0  0  0  0  0  0  0  0
   11.9031    8.9562   -3.1377 C   0  0  0  0  0  0  0  0  0  0  0  0
   12.3774    7.8477   -2.5217 C   0  0  0  0  0  0  0  0  0  0  0  0
   10.4761    6.5776   -7.2169 C   0  0  0  0  0  0  0  0  0  0  0  0
   10.6681    8.9492   -7.1472 C   0  0  0  0  0  0  0  0  0  0  0  0
   10.1085    6.6234   -8.6282 C   0  0  0  0  0  0  0  0  0  0  0  0
   10.4500    9.0125   -8.6924 C   0  0  0  0  0  0  0  0  0  0  0  0
    9.6601    7.9334   -9.1481 N   0  0  0  0  0  0  0  0  0  0  0  0
    9.4452    7.9310  -10.5569 C   0  0  0  0  0  0  0  0  0  0  0  0
    9.6484    6.9783  -11.2444 C   0  0  0  0  0  0  0  0  0  0  0  0
    9.2204    9.1620  -11.1118 O   0  0  0  0  0  0  0  0  0  0  0  0
    8.7362    5.9509  -11.2837 C   0  0  0  0  0  0  0  0  0  0  0  0
    8.8536    4.7666  -12.1368 C   0  0  0  0  0  0  0  0  0  0  0  0
   10.6809    6.9310  -12.3353 C   0  0  0  0  0  0  0  0  0  0  0  0
    9.8671    4.6993  -13.0577 C   0  0  0  0  0  0  0  0  0  0  0  0
   11.5765    7.9772  -12.5141 O   0  0  0  0  0  0  0  0  0  0  0  0
   10.8020    5.8254  -13.2017 C   0  0  0  0  0  0  0  0  0  0  0  0
   10.0433    3.8155  -13.8024 N   0  0  0  0  0  0  0  0  0  0  0  0
    9.3779    2.5500  -13.8153 N   0  0  0  0  0  0  0  0  0  0  0  0
    9.7949    1.6901  -14.6819 C   0  0  0  0  0  0  0  0  0  0  0  0
   10.9792    3.6456  -14.8747 C   0  0  0  0  0  0  0  0  0  0  0  0
   12.9238    7.8486  -12.0869 C   0  0  0  0  0  0  0  0  0  0  0  0
    9.3420    0.3649  -14.9333 C   0  0  0  0  0  0  0  0  0  0  0  0
   10.9039    2.2900  -15.3638 N   0  0  0  0  0  0  0  0  0  0  0  0
  1  2  1  0  0  0  0
  1  3  2  0  0  0  0
  2  4  2  0  0  0  0
  2  5  1  0  0  0  0
  3  7  1  0  0  0  0
  4  6  1  0  0  0  0
  5  8  1  0  0  0  0
  5  9  1  0  0  0  0
  6  7  2  0  0  0  0
  8 10  1  0  0  0  0
  9 11  1  0  0  0  0
 10 12  1  0  0  0  0
 11 12  1  0  0  0  0
 12 13  1  0  0  0  0
 13 14  1  0  0  0  0
 13 15  2  0  0  0  0
 14 16  2  0  0  0  0
 14 18  1  0  0  0  0
 16 17  1  0  0  0  0
 17 19  2  0  0  0  0
 18 20  1  0  0  0  0
 18 21  2  0  0  0  0
 19 21  1  0  0  0  0
 19 22  1  0  0  0  0
 20 26  1  0  0  0  0
 22 23  1  0  0  0  0
 22 25  1  0  0  0  0
 23 24  2  0  0  0  0
 24 27  1  0  0  0  0
 24 28  1  0  0  0  0
 25 28  2  0  0  0  0
M  END
$$$$

 OpenBabel10082411353D

 28 31  0  0  0  0  0  0  0  0999 V2000
   12.8881    8.7759   -3.5681 C   0  0  0  0  0  0  0  0  0  0  0  0
   11.9416    9.4732   -4.1220 C   0  0  0  0  0  0  0  0  0  0  0  0
   12.3556    7.6012   -2.6527 C   0  0  0  0  0  0  0  0  0  0  0  0
   11.8805    9.3400   -5.6557 C   0  0  0  0  0  0  0  0  0  0  0  0
   11.7716    6.5414   -3.3821 C   0  0  0  0  0  0  0  0  0  0  0  0
   10.8523    8.6585   -6.3310 C   0  0  0  0  0  0  0  0  0  0  0  0
   11.1142    8.2520   -7.7289 C   0  0  0  0  0  0  0  0  0  0  0  0
   10.0478    7.6568   -8.4887 C   0  0  0  0  0  0  0  0  0  0  0  0
   12.3648    8.4339   -8.3703 C   0  0  0  0  0  0  0  0  0  0  0  0
   12.6142    8.1352   -9.7322 C   0  0  0  0  0  0  0  0  0  0  0  0
   10.2852    7.3833   -9.9138 C   0  0  0  0  0  0  0  0  0  0  0  0
   11.5161    7.5808  -10.4860 C   0  0  0  0  0  0  0  0  0  0  0  0
   11.6641    7.2285  -11.8174 O   0  0  0  0  0  0  0  0  0  0  0  0
   10.8624    6.4419  -12.4395 C   0  0  0  0  0  0  0  0  0  0  0  0
   11.2693    5.8267  -13.4966 C   0  0  0  0  0  0  0  0  0  0  0  0
    9.5259    6.2192  -11.9953 C   0  0  0  0  0  0  0  0  0  0  0  0
    9.2551    6.6732  -10.5921 C   0  0  2  0  0  0  0  0  0  0  0  0
    8.1388    7.5201  -10.6434 O   0  0  0  0  0  0  0  0  0  0  0  0
   12.6263    6.1828  -14.1606 C   0  0  0  0  0  0  0  0  0  0  0  0
   10.5060    4.8097  -14.1219 C   0  0  0  0  0  0  0  0  0  0  0  0
   12.6450    7.4378  -14.7214 C   0  0  0  0  0  0  0  0  0  0  0  0
    7.2170    7.2284  -11.6977 C   0  0  0  0  0  0  0  0  0  0  0  0
    9.2262    4.5982  -13.6340 C   0  0  0  0  0  0  0  0  0  0  0  0
    8.7680    5.3402  -12.4784 C   0  0  0  0  0  0  0  0  0  0  0  0
    7.3287    5.7358  -12.2428 C   0  0  0  0  0  0  0  0  0  0  0  0
   10.9642    3.7417  -14.9586 C   0  0  0  0  0  0  0  0  0  0  0  0
   10.9774    3.7168  -16.0830 O   0  0  0  0  0  0  0  0  0  0  0  0
   11.5071    2.6088  -14.3608 O   0  0  0  0  0  0  0  0  0  0  0  0
  1  2  1  0  0  0  0
  1  3  1  0  0  0  0
  2  4  1  0  0  0  0
  3  5  1  0  0  0  0
  4  6  1  0  0  0  0
  6  7  1  0  0  0  0
  7  8  1  0  0  0  0
  7  9  2  0  0  0  0
  8 11  2  0  0  0  0
  9 10  1  0  0  0  0
 10 12  2  0  0  0  0
 11 12  1  0  0  0  0
 12 13  1  0  0  0  0
 13 14  1  0  0  0  0
 14 15  2  0  0  0  0
 14 16  1  0  0  0  0
 15 19  1  0  0  0  0
 15 20  1  0  0  0  0
 16 17  1  0  0  0  0
 16 24  2  0  0  0  0
 17 11  1  6  0  0  0
 17 18  1  0  0  0  0
 18 22  1  0  0  0  0
 19 21  1  0  0  0  0
 20 23  2  0  0  0  0
 20 26  1  0  0  0  0
 22 25  1  0  0  0  0
 23 24  1  0  0  0  0
 24 25  1  0  0  0  0
 26 27  2  0  0  0  0
 26 28  1  0  0  0  0
M  END
$$$$

 OpenBabel10082411353D

 28 32  0  0  0  0  0  0  0  0999 V2000
   13.2379    9.0584   -7.2681 C   0  0  0  0  0  0  0  0  0  0  0  0
   12.9396    9.3022   -5.9810 C   0  0  0  0  0  0  0  0  0  0  0  0
   12.1602    8.6694   -7.9361 C   0  0  0  0  0  0  0  0  0  0  0  0
   14.0320    9.7504   -5.0711 F   0  0  0  0  0  0  0  0  0  0  0  0
   10.9536    8.4526   -7.1212 C   0  0  1  0  0  0  0  0  0  0  0  0
   12.1901    8.3365   -9.3972 C   0  0  0  0  0  0  0  0  0  0  0  0
   11.0443    7.8367  -10.0430 C   0  0  0  0  0  0  0  0  0  0  0  0
   11.0471    8.9348   -5.8250 C   0  0  1  0  0  0  0  0  0  0  0  0
    9.5270    7.9533   -7.4234 C   0  0  2  0  0  0  0  0  0  0  0  0
    9.7802    8.7666   -5.0086 F   0  0  0  0  0  0  0  0  0  0  0  0
   11.9790    9.3452   -5.1373 C   0  0  0  0  0  0  0  0  0  0  0  0
    9.1878    6.9159   -6.7141 C   0  0  0  0  0  0  0  0  0  0  0  0
    9.5656    7.6242   -9.0101 C   0  0  2  0  0  0  0  0  0  0  0  0
    8.3077    6.0223   -7.3397 O   0  0  0  0  0  0  0  0  0  0  0  0
    9.5098    6.1454   -9.4071 C   0  0  1  0  0  0  0  0  0  0  0  0
    8.3994    5.5390   -8.6171 C   0  0  0  0  0  0  0  0  0  0  0  0
   10.8655    7.6135  -11.2894 C   0  0  0  0  0  0  0  0  0  0  0  0
    9.7694    7.2631  -11.8623 C   0  0  0  0  0  0  0  0  0  0  0  0
    9.5718    6.9892  -13.2172 C   0  0  0  0  0  0  0  0  0  0  0  0
    8.8640    6.1467  -10.8416 C   0  0  1  0  0  0  0  0  0  0  0  0
   11.9197    8.0705  -12.2158 O   0  0  0  0  0  0  0  0  0  0  0  0
    8.3199    5.0008  -11.2953 C   0  0  0  0  0  0  0  0  0  0  0  0
    8.1933    4.7686  -12.7280 C   0  0  2  0  0  0  0  0  0  0  0  0
    9.1677    5.5272  -13.6015 C   0  0  0  0  0  0  0  0  0  0  0  0
    6.8774    5.1320  -13.0855 O   0  0  0  0  0  0  0  0  0  0  0  0
    8.3481    3.2924  -13.0933 C   0  0  0  0  0  0  0  0  0  0  0  0
    7.1931    2.5678  -13.4416 C   0  0  0  0  0  0  0  0  0  0  0  0
    9.6019    2.7941  -13.1795 O   0  0  0  0  0  0  0  0  0  0  0  0
  1  2  1  0  0  0  0
  1  3  2  0  0  0  0
  2  4  1  0  0  0  0
  2 11  2  0  0  0  0
  3  6  1  0  0  0  0
  5  3  1  6  0  0  0
  5  8  1  0  0  0  0
  5  9  1  0  0  0  0
  6  7  2  0  0  0  0
  7 17  1  0  0  0  0
  8 10  1  1  0  0  0
  8 11  1  0  0  0  0
  9 12  1  1  0  0  0
  9 13  1  0  0  0  0
 12 14  1  0  0  0  0
 13  7  1  1  0  0  0
 13 15  1  0  0  0  0
 14 16  1  0  0  0  0
 15 16  1  1  0  0  0
 15 20  1  0  0  0  0
 17 18  2  0  0  0  0
 17 21  1  0  0  0  0
 18 19  1  0  0  0  0
 18 20  1  0  0  0  0
 19 24  1  0  0  0  0
 20 22  1  6  0  0  0
 22 23  1  0  0  0  0
 23 24  1  0  0  0  0
 23 25  1  6  0  0  0
 23 26  1  0  0  0  0
 26 27  1  0  0  0  0
 26 28  2  0  0  0  0
M  END
$$$$

 OpenBabel10082411353D

 28 32  0  0  0  0  0  0  0  0999 V2000
   13.2379    9.0584   -7.2681 C   0  0  0  0  0  0  0  0  0  0  0  0
   12.9396    9.3022   -5.9810 C   0  0  0  0  0  0  0  0  0  0  0  0
   12.1602    8.6694   -7.9361 C   0  0  0  0  0  0  0  0  0  0  0  0
   14.0320    9.7504   -5.0711 F   0  0  0  0  0  0  0  0  0  0  0  0
   10.9536    8.4526   -7.1212 C   0  0  1  0  0  0  0  0  0  0  0  0
   12.1901    8.3365   -9.3972 C   0  0  0  0  0  0  0  0  0  0  0  0
   11.0443    7.8367  -10.0430 C   0  0  0  0  0  0  0  0  0  0  0  0
   11.0471    8.9348   -5.8250 C   0  0  1  0  0  0  0  0  0  0  0  0
    9.5270    7.9533   -7.4234 C   0  0  2  0  0  0  0  0  0  0  0  0
    9.7802    8.7666   -5.0086 F   0  0  0  0  0  0  0  0  0  0  0  0
   11.9790    9.3452   -5.1373 C   0  0  0  0  0  0  0  0  0  0  0  0
    9.1878    6.9159   -6.7141 C   0  0  0  0  0  0  0  0  0  0  0  0
    9.5656    7.6242   -9.0101 C   0  0  2  0  0  0  0  0  0  0  0  0
    8.3077    6.0223   -7.3397 O   0  0  0  0  0  0  0  0  0  0  0  0
    9.5098    6.1454   -9.4071 C   0  0  1  0  0  0  0  0  0  0  0  0
    8.3994    5.5390   -8.6171 C   0  0  0  0  0  0  0  0  0  0  0  0
   10.8655    7.6135  -11.2894 C   0  0  0  0  0  0  0  0  0  0  0  0
    9.7694    7.2631  -11.8623 C   0  0  0  0  0  0  0  0  0  0  0  0
    9.5718    6.9892  -13.2172 C   0  0  0  0  0  0  0  0  0  0  0  0
    8.8640    6.1467  -10.8416 C   0  0  1  0  0  0  0  0  0  0  0  0
   11.9197    8.0705  -12.2158 O   0  0  0  0  0  0  0  0  0  0  0  0
    8.3199    5.0008  -11.2953 C   0  0  0  0  0  0  0  0  0  0  0  0
    8.1933    4.7686  -12.7280 C   0  0  2  0  0  0  0  0  0  0  0  0
    9.1677    5.5272  -13.6015 C   0  0  0  0  0  0  0  0  0  0  0  0
    6.8774    5.1320  -13.0855 O   0  0  0  0  0  0  0  0  0  0  0  0
    8.3481    3.2924  -13.0933 C   0  0  0  0  0  0  0  0  0  0  0  0
    7.1931    2.5678  -13.4416 O   0  0  0  0  0  0  0  0  0  0  0  0
    9.5535    2.8385  -13.2562 O   0  0  0  0  0  0  0  0  0  0  0  0
  1  2  1  0  0  0  0
  1  3  2  0  0  0  0
  2  4  1  0  0  0  0
  2 11  2  0  0  0  0
  3  6  1  0  0  0  0
  5  3  1  6  0  0  0
  5  8  1  0  0  0  0
  5  9  1  0  0  0  0
  6  7  2  0  0  0  0
  7 17  1  0  0  0  0
  8 10  1  1  0  0  0
  8 11  1  0  0  0  0
  9 12  1  1  0  0  0
  9 13  1  0  0  0  0
 12 14  1  0  0  0  0
 13  7  1  1  0  0  0
 13 15  1  0  0  0  0
 14 16  1  0  0  0  0
 15 16  1  1  0  0  0
 15 20  1  0  0  0  0
 17 18  2  0  0  0  0
 17 21  1  0  0  0  0
 18 19  1  0  0  0  0
 18 20  1  0  0  0  0
 19 24  1  0  0  0  0
 20 22  1  6  0  0  0
 22 23  1  0  0  0  0
 23 24  1  0  0  0  0
 23 25  1  6  0  0  0
 23 26  1  0  0  0  0
 26 27  1  0  0  0  0
 26 28  2  0  0  0  0
M  END
$$$$

 OpenBabel10082411353D

 28 32  0  0  0  0  0  0  0  0999 V2000
   12.8881    8.7759   -3.5681 C   0  0  0  0  0  0  0  0  0  0  0  0
   11.9416    9.4732   -4.1220 C   0  0  0  0  0  0  0  0  0  0  0  0
   12.1782    9.3707   -5.6407 C   0  0  0  0  0  0  0  0  0  0  0  0
   11.3825    8.3447   -6.3966 C   0  0  0  0  0  0  0  0  0  0  0  0
   11.8188    8.0044   -7.6822 C   0  0  0  0  0  0  0  0  0  0  0  0
   10.3120    7.6600   -5.7120 C   0  0  0  0  0  0  0  0  0  0  0  0
   10.8678    7.0723   -8.2897 C   0  0  0  0  0  0  0  0  0  0  0  0
    9.5717    6.7245   -6.3809 C   0  0  0  0  0  0  0  0  0  0  0  0
    9.8820    6.4468   -7.7081 C   0  0  0  0  0  0  0  0  0  0  0  0
   11.2611    6.6953   -9.7105 C   0  0  1  0  0  0  0  0  0  0  0  0
   10.0425    6.5460  -10.5971 C   0  0  0  0  0  0  0  0  0  0  0  0
   11.8062    7.8130  -10.4883 C   0  0  0  0  0  0  0  0  0  0  0  0
    8.8746    5.5265   -8.4149 C   0  0  0  0  0  0  0  0  0  0  0  0
   13.1546    8.1022  -10.4049 O   0  0  0  0  0  0  0  0  0  0  0  0
   10.3114    6.7627  -11.8786 C   0  0  0  0  0  0  0  0  0  0  0  0
   11.3906    7.6694  -11.8036 N   0  0  0  0  0  0  0  0  0  0  0  0
   11.9779    8.2398  -13.0316 C   0  0  0  0  0  0  0  0  0  0  0  0
    8.8154    6.0162   -9.9613 C   0  0  0  0  0  0  0  0  0  0  0  0
    9.6102    6.3636  -13.0859 C   0  0  0  0  0  0  0  0  0  0  0  0
   11.8804    7.4718  -14.1937 C   0  0  0  0  0  0  0  0  0  0  0  0
   10.7017    6.3981  -14.2482 C   0  0  0  0  0  0  0  0  0  0  0  0
   10.3813    5.8427  -15.4547 C   0  0  2  0  0  0  0  0  0  0  0  0
    9.2579    5.0507  -15.6184 C   0  0  0  0  0  0  0  0  0  0  0  0
   11.6009    5.0735  -15.6795 C   0  0  0  0  0  0  0  0  0  0  0  0
   11.6469    3.8214  -15.1591 C   0  0  0  0  0  0  0  0  0  0  0  0
   10.4803    3.3447  -14.5089 C   0  0  2  0  0  0  0  0  0  0  0  0
   10.5729    2.0537  -13.9541 O   0  0  0  0  0  0  0  0  0  0  0  0
    9.2060    3.4977  -15.1627 C   0  0  0  0  0  0  0  0  0  0  0  0
  1  2  1  0  0  0  0
  2  3  1  0  0  0  0
  3  4  1  0  0  0  0
  4  5  2  0  0  0  0
  4  6  1  0  0  0  0
  5  7  1  0  0  0  0
  6  8  2  0  0  0  0
  7  9  2  0  0  0  0
  8  9  1  0  0  0  0
  9 13  1  0  0  0  0
 10  7  1  1  0  0  0
 10 11  1  0  0  0  0
 10 12  1  0  0  0  0
 11 15  2  0  0  0  0
 11 18  1  0  0  0  0
 12 14  2  0  0  0  0
 12 16  1  0  0  0  0
 13 18  1  0  0  0  0
 15 16  1  0  0  0  0
 15 19  1  0  0  0  0
 16 17  1  0  0  0  0
 17 20  1  0  0  0  0
 19 21  1  0  0  0  0
 20 21  2  0  0  0  0
 22 21  1  1  0  0  0
 22 23  1  0  0  0  0
 22 24  1  0  0  0  0
 23 28  1  0  0  0  0
 24 25  1  0  0  0  0
 25 26  1  0  0  0  0
 26 27  1  6  0  0  0
 26 28  1  0  0  0  0
M  END
$$$$

 OpenBabel10082411353D

 28 32  0  0  0  0  0  0  0  0999 V2000
   12.8881    8.7759   -3.5681 C   0  0  0  0  0  0  0  0  0  0  0  0
   11.9416    9.4732   -4.1220 C   0  0  0  0  0  0  0  0  0  0  0  0
   12.1782    9.3707   -5.6407 C   0  0  0  0  0  0  0  0  0  0  0  0
   11.3825    8.3447   -6.3966 C   0  0  0  0  0  0  0  0  0  0  0  0
   11.8188    8.0044   -7.6822 C   0  0  0  0  0  0  0  0  0  0  0  0
   10.3120    7.6600   -5.7120 C   0  0  0  0  0  0  0  0  0  0  0  0
   10.8678    7.0723   -8.2897 C   0  0  0  0  0  0  0  0  0  0  0  0
    9.5717    6.7245   -6.3809 C   0  0  0  0  0  0  0  0  0  0  0  0
    9.8820    6.4468   -7.7081 C   0  0  0  0  0  0  0  0  0  0  0  0
   11.2611    6.6953   -9.7105 C   0  0  1  0  0  0  0  0  0  0  0  0
   10.0425    6.5460  -10.5971 C   0  0  0  0  0  0  0  0  0  0  0  0
   11.8062    7.8130  -10.4883 C   0  0  0  0  0  0  0  0  0  0  0  0
    8.8746    5.5265   -8.4149 C   0  0  0  0  0  0  0  0  0  0  0  0
   13.1546    8.1022  -10.4049 O   0  0  0  0  0  0  0  0  0  0  0  0
   10.3114    6.7627  -11.8786 C   0  0  0  0  0  0  0  0  0  0  0  0
   11.3906    7.6694  -11.8036 N   0  0  0  0  0  0  0  0  0  0  0  0
   11.9779    8.2398  -13.0316 C   0  0  0  0  0  0  0  0  0  0  0  0
    8.8154    6.0162   -9.9613 C   0  0  0  0  0  0  0  0  0  0  0  0
    9.6102    6.3636  -13.0859 C   0  0  0  0  0  0  0  0  0  0  0  0
   11.8804    7.4718  -14.1937 C   0  0  0  0  0  0  0  0  0  0  0  0
   10.7017    6.3981  -14.2482 C   0  0  0  0  0  0  0  0  0  0  0  0
   10.3813    5.8427  -15.4547 C   0  0  2  0  0  0  0  0  0  0  0  0
    9.2579    5.0507  -15.6184 C   0  0  0  0  0  0  0  0  0  0  0  0
   11.6009    5.0735  -15.6795 C   0  0  0  0  0  0  0  0  0  0  0  0
    9.6578    3.6391  -15.4657 C   0  0  0  0  0  0  0  0  0  0  0  0
    8.8471    2.6298  -15.1475 C   0  0  0  0  0  0  0  0  0  0  0  0
   11.1309    3.5256  -15.5400 C   0  0  0  0  0  0  0  0  0  0  0  0
    9.4080    1.2194  -15.0262 C   0  0  0  0  0  0  0  0  0  0  0  0
  1  2  1  0  0  0  0
  2  3  1  0  0  0  0
  3  4  1  0  0  0  0
  4  5  2  0  0  0  0
  4  6  1  0  0  0  0
  5  7  1  0  0  0  0
  6  8  2  0  0  0  0
  7  9  2  0  0  0  0
  8  9  1  0  0  0  0
  9 13  1  0  0  0  0
 10  7  1  1  0  0  0
 10 11  1  0  0  0  0
 10 12  1  0  0  0  0
 11 15  2  0  0  0  0
 11 18  1  0  0  0  0
 12 14  2  0  0  0  0
 12 16  1  0  0  0  0
 13 18  1  0  0  0  0
 15 16  1  0  0  0  0
 15 19  1  0  0  0  0
 16 17  1  0  0  0  0
 17 20  1  0  0  0  0
 19 21  1  0  0  0  0
 20 21  2  0  0  0  0
 22 21  1  1  0  0  0
 22 23  1  0  0  0  0
 22 24  1  0  0  0  0
 23 25  1  0  0  0  0
 24 27  1  0  0  0  0
 25 26  2  3  0  0  0
 25 27  1  0  0  0  0
 26 28  1  0  0  0  0
M  END
$$$$

 OpenBabel10082411353D

 18 19  0  0  0  0  0  0  0  0999 V2000
   11.6836    6.0105   -4.8831 F   0  0  0  0  0  0  0  0  0  0  0  0
   11.2562    7.2206   -5.0294 C   0  0  0  0  0  0  0  0  0  0  0  0
   12.0125    8.2418   -4.4408 C   0  0  0  0  0  0  0  0  0  0  0  0
   11.1918    7.2706   -6.5237 C   0  0  2  0  0  0  0  0  0  0  0  0
   11.6999    8.4488   -3.1704 F   0  0  0  0  0  0  0  0  0  0  0  0
    9.8648    7.0908   -4.5314 F   0  0  0  0  0  0  0  0  0  0  0  0
   11.6831    8.5291   -6.9682 C   0  0  1  0  0  0  0  0  0  0  0  0
   13.3042    8.0958   -4.5769 F   0  0  0  0  0  0  0  0  0  0  0  0
   10.0051    6.7877   -7.1387 C   0  0  2  0  0  0  0  0  0  0  0  0
   12.1549    9.4036   -6.0698 C   0  0  0  0  0  0  0  0  0  0  0  0
   11.7460    9.5074   -4.8672 O   0  0  0  0  0  0  0  0  0  0  0  0
   12.5684    8.5172   -7.8652 C   0  0  0  0  0  0  0  0  0  0  0  0
   10.4250    8.9412   -7.4869 C   0  0  0  0  0  0  0  0  0  0  0  0
    9.8902    5.4070   -7.8206 C   0  0  0  0  0  0  0  0  0  0  0  0
    8.7348    4.6919   -7.6168 C   0  0  0  0  0  0  0  0  0  0  0  0
    9.5887    7.8633   -8.0188 C   0  0  0  0  0  0  0  0  0  0  0  0
    7.8563    5.2289   -6.9214 O   0  0  0  0  0  0  0  0  0  0  0  0
    8.6777    3.4682   -8.0196 O   0  0  0  0  0  0  0  0  0  0  0  0
  1  2  1  0  0  0  0
  2  3  1  0  0  0  0
  2  6  1  0  0  0  0
  3  5  1  0  0  0  0
  3  8  1  0  0  0  0
  3 11  1  0  0  0  0
  4  2  1  1  0  0  0
  4  7  1  0  0  0  0
  4  9  1  0  0  0  0
  7 10  1  0  0  0  0
  7 12  1  6  0  0  0
  7 13  1  0  0  0  0
  9 14  1  6  0  0  0
  9 16  1  0  0  0  0
 10 11  1  0  0  0  0
 13 16  1  0  0  0  0
 14 15  1  0  0  0  0
 15 17  2  0  0  0  0
 15 18  1  0  0  0  0
M  END
$$$$

 OpenBabel10082411353D

 29 33  0  0  0  0  0  0  0  0999 V2000
   11.6836    6.0105   -4.8831 C   0  0  0  0  0  0  0  0  0  0  0  0
   11.9279    6.9038   -3.8792 C   0  0  0  0  0  0  0  0  0  0  0  0
   11.9719    8.3126   -4.1286 C   0  0  0  0  0  0  0  0  0  0  0  0
   11.3811    6.5964   -6.0845 C   0  0  0  0  0  0  0  0  0  0  0  0
   11.0420    5.6445   -7.1434 C   0  0  1  0  0  0  0  0  0  0  0  0
   11.3536    7.9055   -6.3870 C   0  0  0  0  0  0  0  0  0  0  0  0
    9.8569    4.8089   -7.0560 C   0  0  0  0  0  0  0  0  0  0  0  0
   11.5991    8.8196   -5.3527 C   0  0  0  0  0  0  0  0  0  0  0  0
   11.5316   10.2233   -5.5794 F   0  0  0  0  0  0  0  0  0  0  0  0
   10.9798    8.5285   -7.6795 C   0  0  0  0  0  0  0  0  0  0  0  0
   10.6556    6.3745   -8.5461 C   0  0  0  0  0  0  0  0  0  0  0  0
    9.6410    3.9438   -8.1044 C   0  0  0  0  0  0  0  0  0  0  0  0
   11.0669    7.6169   -8.7871 N   0  0  0  0  0  0  0  0  0  0  0  0
    9.9214    5.7500   -9.4200 C   0  0  0  0  0  0  0  0  0  0  0  0
   12.1374    7.7991   -9.6010 C   0  0  0  0  0  0  0  0  0  0  0  0
   13.3966    8.0702   -9.2678 O   0  0  0  0  0  0  0  0  0  0  0  0
   11.9065    8.1067  -10.9940 C   0  0  0  0  0  0  0  0  0  0  0  0
   11.5891    6.9407  -11.8496 C   0  0  0  0  0  0  0  0  0  0  0  0
    9.6383    6.5905  -10.7511 C   0  0  0  0  0  0  0  0  0  0  0  0
   10.3417    6.3234  -11.9172 N   0  0  0  0  0  0  0  0  0  0  0  0
    9.1610    4.6231   -9.2679 C   0  0  0  0  0  0  0  0  0  0  0  0
   10.0460    5.1982  -12.4989 C   0  0  0  0  0  0  0  0  0  0  0  0
   10.8981    4.6542  -13.4877 C   0  0  0  0  0  0  0  0  0  0  0  0
   11.5282    5.4948  -14.3618 C   0  0  0  0  0  0  0  0  0  0  0  0
   10.9982    3.2780  -13.6504 C   0  0  0  0  0  0  0  0  0  0  0  0
    8.7717    4.8747  -12.5041 O   0  0  0  0  0  0  0  0  0  0  0  0
   11.8777    3.1351  -14.8287 C   0  0  0  0  0  0  0  0  0  0  0  0
   11.8997    4.2748  -15.3696 N   0  0  0  0  0  0  0  0  0  0  0  0
   13.2418    4.5715  -16.1348 C   0  0  0  0  0  0  0  0  0  0  0  0
  1  2  1  0  0  0  0
  1  4  2  0  0  0  0
  2  3  2  0  0  0  0
  3  8  1  0  0  0  0
  4  5  1  0  0  0  0
  4  6  1  0  0  0  0
  5  7  1  1  0  0  0
  5 11  1  0  0  0  0
  6  8  2  0  0  0  0
  6 10  1  0  0  0  0
  7 12  1  0  0  0  0
  8  9  1  0  0  0  0
 10 13  1  0  0  0  0
 11 13  1  0  0  0  0
 11 14  2  0  0  0  0
 12 21  1  0  0  0  0
 13 15  1  0  0  0  0
 14 19  1  0  0  0  0
 14 21  1  0  0  0  0
 15 16  2  0  0  0  0
 15 17  1  0  0  0  0
 17 18  1  0  0  0  0
 18 20  1  0  0  0  0
 19 20  1  0  0  0  0
 20 22  1  0  0  0  0
 22 23  1  0  0  0  0
 22 26  2  0  0  0  0
 23 24  1  0  0  0  0
 23 25  2  0  0  0  0
 24 28  1  0  0  0  0
 25 27  1  0  0  0  0
 27 28  1  0  0  0  0
 28 29  1  0  0  0  0
M  END
$$$$

 OpenBabel10082411353D

 29 33  0  0  0  0  0  0  0  0999 V2000
   11.6836    6.0105   -4.8831 C   0  0  0  0  0  0  0  0  0  0  0  0
   11.1291    7.0732   -5.4395 C   0  0  0  0  0  0  0  0  0  0  0  0
   10.6954    7.0156   -6.8073 C   0  0  0  0  0  0  0  0  0  0  0  0
   10.2502    8.1187   -7.5536 C   0  0  2  0  0  0  0  0  0  0  0  0
   11.1205    8.4712   -4.9629 C   0  0  0  0  0  0  0  0  0  0  0  0
   10.8655    8.3511   -8.7960 C   0  0  0  0  0  0  0  0  0  0  0  0
   10.2922    7.8843   -9.9985 C   0  0  0  0  0  0  0  0  0  0  0  0
   10.4654    9.6993   -5.6120 C   0  0  0  0  0  0  0  0  0  0  0  0
   10.3510    9.5971   -7.0014 C   0  0  0  0  0  0  0  0  0  0  0  0
   12.2462    6.3351   -3.5020 C   0  0  0  0  0  0  0  0  0  0  0  0
   11.0471    7.5309  -11.1063 C   0  0  0  0  0  0  0  0  0  0  0  0
   11.7288    8.6923   -3.6518 C   0  0  0  0  0  0  0  0  0  0  0  0
   12.3991    7.7501  -11.1145 C   0  0  0  0  0  0  0  0  0  0  0  0
   12.3738    7.7580   -2.9599 C   0  0  0  0  0  0  0  0  0  0  0  0
   13.1285    8.5075  -10.1661 O   0  0  0  0  0  0  0  0  0  0  0  0
    9.0407    7.3775  -10.0973 N   0  0  0  0  0  0  0  0  0  0  0  0
    8.9787    6.9473  -11.4664 N   0  0  0  0  0  0  0  0  0  0  0  0
   13.1012    7.4459  -12.3707 C   0  0  0  0  0  0  0  0  0  0  0  0
   12.2395    6.9724  -13.2444 C   0  0  0  0  0  0  0  0  0  0  0  0
    7.7579    6.3689  -11.9282 C   0  0  0  0  0  0  0  0  0  0  0  0
    7.4759    5.0504  -11.8148 C   0  0  0  0  0  0  0  0  0  0  0  0
   12.9541    6.5945  -14.5510 O   0  0  0  0  0  0  0  0  0  0  0  0
   12.5717    5.3751  -15.0924 C   0  0  0  0  0  0  0  0  0  0  0  0
   10.2361    7.0379  -12.0113 C   0  0  0  0  0  0  0  0  0  0  0  0
    6.8832    7.1727  -12.5447 C   0  0  0  0  0  0  0  0  0  0  0  0
   10.8202    6.6680  -13.2526 C   0  0  0  0  0  0  0  0  0  0  0  0
    5.7591    6.5985  -13.0640 C   0  0  0  0  0  0  0  0  0  0  0  0
    6.6748    4.3270  -12.3830 C   0  0  0  0  0  0  0  0  0  0  0  0
    5.6171    5.2118  -13.0777 C   0  0  0  0  0  0  0  0  0  0  0  0
  1  2  1  0  0  0  0
  1 10  2  0  0  0  0
  2  3  1  0  0  0  0
  2  5  2  0  0  0  0
  3  4  1  0  0  0  0
  4  6  1  6  0  0  0
  4  9  1  0  0  0  0
  5  8  1  0  0  0  0
  5 12  1  0  0  0  0
  6  7  1  0  0  0  0
  7 11  1  0  0  0  0
  7 16  2  0  0  0  0
  8  9  1  0  0  0  0
 10 14  1  0  0  0  0
 11 13  2  0  0  0  0
 11 24  1  0  0  0  0
 12 14  2  0  0  0  0
 13 15  1  0  0  0  0
 13 18  1  0  0  0  0
 16 17  1  0  0  0  0
 17 20  1  0  0  0  0
 17 24  1  0  0  0  0
 18 19  2  0  0  0  0
 19 22  1  0  0  0  0
 19 26  1  0  0  0  0
 20 21  1  0  0  0  0
 20 25  2  0  0  0  0
 21 28  2  0  0  0  0
 22 23  1  0  0  0  0
 24 26  2  0  0  0  0
 25 27  1  0  0  0  0
 27 29  2  0  0  0  0
 28 29  1  0  0  0  0
M  END
$$$$

 OpenBabel10082411353D

 29 31  0  0  0  0  0  0  0  0999 V2000
   10.9951    9.9694   -4.9946 C   0  0  0  0  0  0  0  0  0  0  0  0
   11.7938    9.3762   -4.2463 C   0  0  0  0  0  0  0  0  0  0  0  0
   10.8673    9.4548   -6.4276 C   0  0  0  0  0  0  0  0  0  0  0  0
   11.6576    7.9117   -4.2944 C   0  0  0  0  0  0  0  0  0  0  0  0
   10.5498    8.0257   -6.4521 C   0  0  0  0  0  0  0  0  0  0  0  0
   11.4715    7.2752   -5.6166 C   0  0  0  0  0  0  0  0  0  0  0  0
   10.5840    7.5390   -7.9254 C   0  0  0  0  0  0  0  0  0  0  0  0
   11.4612    8.1494   -8.8322 C   0  0  0  0  0  0  0  0  0  0  0  0
   12.6250    8.6294   -8.4338 O   0  0  0  0  0  0  0  0  0  0  0  0
   11.0835    8.4395  -10.0740 O   0  0  0  0  0  0  0  0  0  0  0  0
   11.2938    7.5612  -11.0769 C   0  0  0  0  0  0  0  0  0  0  0  0
   10.1547    7.2525  -11.9492 C   0  0  0  0  0  0  0  0  0  0  0  0
   10.4293    6.5622  -13.1348 C   0  0  0  0  0  0  0  0  0  0  0  0
   11.7295    6.4217  -13.6243 C   0  0  0  0  0  0  0  0  0  0  0  0
    8.8120    7.3918  -11.4649 C   0  0  0  0  0  0  0  0  0  0  0  0
   12.5351    7.8894  -11.6869 C   0  0  0  0  0  0  0  0  0  0  0  0
   13.5778    8.4243  -10.9673 O   0  0  0  0  0  0  0  0  0  0  0  0
    7.7211    7.1761  -12.4323 C   0  0  0  0  0  0  0  0  0  0  0  0
   12.8103    7.0723  -12.8897 C   0  0  0  0  0  0  0  0  0  0  0  0
    7.0543    5.9667  -12.3369 C   0  0  0  0  0  0  0  0  0  0  0  0
    7.2392    8.1844  -13.1320 C   0  0  0  0  0  0  0  0  0  0  0  0
   12.0288    5.6463  -14.9695 C   0  0  0  0  0  0  0  0  0  0  0  0
    6.4764    5.5077  -13.4785 O   0  0  0  0  0  0  0  0  0  0  0  0
    7.1052    5.2025  -11.3444 O   0  0  0  0  0  0  0  0  0  0  0  0
   12.3034    6.3506  -15.9502 C   0  0  0  0  0  0  0  0  0  0  0  0
   12.4972    5.4594  -17.1574 N   0  0  0  0  0  0  0  0  0  0  0  0
   12.1848    4.2463  -16.7288 C   0  0  0  0  0  0  0  0  0  0  0  0
   11.9090    4.3251  -15.2329 C   0  0  0  0  0  0  0  0  0  0  0  0
   11.8204    3.3928  -14.4843 O   0  0  0  0  0  0  0  0  0  0  0  0
  1  2  1  0  0  0  0
  1  3  1  0  0  0  0
  2  4  1  0  0  0  0
  3  5  1  0  0  0  0
  4  6  1  0  0  0  0
  5  6  1  0  0  0  0
  5  7  1  0  0  0  0
  7  8  1  0  0  0  0
  8  9  2  0  0  0  0
  8 10  1  0  0  0  0
 10 11  1  0  0  0  0
 11 12  1  0  0  0  0
 11 16  2  0  0  0  0
 12 13  2  0  0  0  0
 12 15  1  0  0  0  0
 13 14  1  0  0  0  0
 14 19  2  0  0  0  0
 14 22  1  0  0  0  0
 15 18  1  0  0  0  0
 16 17  1  0  0  0  0
 16 19  1  0  0  0  0
 18 20  1  0  0  0  0
 18 21  2  0  0  0  0
 20 23  2  0  0  0  0
 20 24  1  0  0  0  0
 22 25  2  0  0  0  0
 22 28  1  0  0  0  0
 25 26  1  0  0  0  0
 26 27  2  0  0  0  0
 27 28  1  0  0  0  0
 28 29  2  0  0  0  0
M  END
$$$$

 OpenBabel10082411353D

 29 33  0  0  0  0  0  0  0  0999 V2000
   12.8881    8.7759   -3.5681 C   0  0  0  0  0  0  0  0  0  0  0  0
   11.9416    9.4732   -4.1220 C   0  0  0  0  0  0  0  0  0  0  0  0
   12.1782    9.3707   -5.6407 C   0  0  0  0  0  0  0  0  0  0  0  0
   11.3825    8.3447   -6.3966 C   0  0  0  0  0  0  0  0  0  0  0  0
   11.8188    8.0044   -7.6822 C   0  0  0  0  0  0  0  0  0  0  0  0
   10.3120    7.6600   -5.7120 C   0  0  0  0  0  0  0  0  0  0  0  0
   10.8678    7.0723   -8.2897 C   0  0  0  0  0  0  0  0  0  0  0  0
    9.5717    6.7245   -6.3809 C   0  0  0  0  0  0  0  0  0  0  0  0
    9.8820    6.4468   -7.7081 C   0  0  0  0  0  0  0  0  0  0  0  0
   11.2611    6.6953   -9.7105 C   0  0  1  0  0  0  0  0  0  0  0  0
   10.0425    6.5460  -10.5971 C   0  0  0  0  0  0  0  0  0  0  0  0
   11.8062    7.8130  -10.4883 C   0  0  0  0  0  0  0  0  0  0  0  0
    8.8746    5.5265   -8.4149 C   0  0  0  0  0  0  0  0  0  0  0  0
   13.1546    8.1022  -10.4049 O   0  0  0  0  0  0  0  0  0  0  0  0
   10.3114    6.7627  -11.8786 C   0  0  0  0  0  0  0  0  0  0  0  0
   11.3906    7.6694  -11.8036 N   0  0  0  0  0  0  0  0  0  0  0  0
   11.9779    8.2398  -13.0316 C   0  0  0  0  0  0  0  0  0  0  0  0
    8.8154    6.0162   -9.9613 C   0  0  0  0  0  0  0  0  0  0  0  0
    9.6102    6.3636  -13.0859 C   0  0  0  0  0  0  0  0  0  0  0  0
   12.4931    7.2237  -14.0597 C   0  0  0  0  0  0  0  0  0  0  0  0
    8.7043    5.2113  -12.8183 C   0  0  0  0  0  0  0  0  0  0  0  0
    9.0721    4.1734  -13.5023 C   0  0  0  0  0  0  0  0  0  0  0  0
    7.5717    5.3194  -12.1038 C   0  0  0  0  0  0  0  0  0  0  0  0
    7.7205    5.2792  -10.6081 C   0  0  0  0  0  0  0  0  0  0  0  0
    8.1859    3.1057  -13.8002 C   0  0  0  0  0  0  0  0  0  0  0  0
   10.3947    3.7044  -13.8639 C   0  0  0  0  0  0  0  0  0  0  0  0
    8.6995    1.8614  -14.4543 C   0  0  0  0  0  0  0  0  0  0  0  0
   10.8915    2.6515  -14.4515 C   0  0  0  0  0  0  0  0  0  0  0  0
    9.9763    1.6925  -14.7223 C   0  0  0  0  0  0  0  0  0  0  0  0
  1  2  1  0  0  0  0
  2  3  1  0  0  0  0
  3  4  1  0  0  0  0
  4  5  2  0  0  0  0
  4  6  1  0  0  0  0
  5  7  1  0  0  0  0
  6  8  2  0  0  0  0
  7  9  2  0  0  0  0
  8  9  1  0  0  0  0
  9 13  1  0  0  0  0
 10  7  1  1  0  0  0
 10 11  1  0  0  0  0
 10 12  1  0  0  0  0
 11 15  2  0  0  0  0
 11 18  1  0  0  0  0
 12 14  2  0  0  0  0
 12 16  1  0  0  0  0
 13 18  1  0  0  0  0
 15 16  1  0  0  0  0
 15 19  1  0  0  0  0
 16 17  1  0  0  0  0
 17 20  1  0  0  0  0
 18 24  2  0  0  0  0
 19 21  1  0  0  0  0
 21 22  1  0  0  0  0
 21 23  2  0  0  0  0
 22 25  2  0  0  0  0
 22 26  1  0  0  0  0
 23 24  1  0  0  0  0
 25 27  1  0  0  0  0
 26 28  2  0  0  0  0
 27 29  2  0  0  0  0
 28 29  1  0  0  0  0
M  END
$$$$

 OpenBabel10082411353D

 29 33  0  0  0  0  0  0  0  0999 V2000
    9.9628    9.3008   -5.6386 C   0  0  0  0  0  0  0  0  0  0  0  0
   11.0579    9.3174   -4.8874 C   0  0  0  0  0  0  0  0  0  0  0  0
   10.0238    8.5532   -6.9009 C   0  0  0  0  0  0  0  0  0  0  0  0
    8.9422    8.4514   -7.7296 O   0  0  0  0  0  0  0  0  0  0  0  0
   11.0140    7.6114   -7.2470 C   0  0  0  0  0  0  0  0  0  0  0  0
   10.8571    6.8731   -8.5114 C   0  0  0  0  0  0  0  0  0  0  0  0
   11.1242   10.0594   -3.7508 O   0  0  0  0  0  0  0  0  0  0  0  0
   12.3364    9.8197   -3.0510 C   0  0  0  0  0  0  0  0  0  0  0  0
   12.2287    8.4512   -5.2749 C   0  0  0  0  0  0  0  0  0  0  0  0
    9.4279    6.5259   -8.5572 C   0  0  1  0  0  0  0  0  0  0  0  0
   13.3632    8.4956   -4.3628 O   0  0  0  0  0  0  0  0  0  0  0  0
    9.3151    5.5378   -9.6781 C   0  0  0  0  0  0  0  0  0  0  0  0
   12.1913    7.6972   -6.4133 C   0  0  0  0  0  0  0  0  0  0  0  0
    9.6980    5.8035  -10.9178 N   0  0  0  0  0  0  0  0  0  0  0  0
   13.1785    8.9623   -3.3111 C   0  0  0  0  0  0  0  0  0  0  0  0
    9.9398    7.0087  -11.3353 C   0  0  2  0  0  0  0  0  0  0  0  0
    8.9345    5.9584   -7.2697 C   0  0  0  0  0  0  0  0  0  0  0  0
   10.0043    4.8234  -11.8888 C   0  0  0  0  0  0  0  0  0  0  0  0
    9.2399    3.6704  -11.9909 O   0  0  0  0  0  0  0  0  0  0  0  0
   10.7391    7.2900  -12.5155 C   0  0  0  0  0  0  0  0  0  0  0  0
   10.8999    6.3323  -13.4851 C   0  0  2  0  0  0  0  0  0  0  0  0
   10.8008    4.9716  -13.0666 C   0  0  2  0  0  0  0  0  0  0  0  0
   11.9447    6.6393  -14.4768 C   0  0  0  0  0  0  0  0  0  0  0  0
    8.9972    7.8416   -8.9314 C   0  0  2  0  0  0  0  0  0  0  0  0
    9.9070    8.4031  -10.1217 C   0  0  0  0  0  0  0  0  0  0  0  0
   12.5480    7.8572  -14.5115 O   0  0  0  0  0  0  0  0  0  0  0  0
   10.9157    3.8838  -14.0057 C   0  0  0  0  0  0  0  0  0  0  0  0
   12.6414    5.5636  -14.9823 O   0  0  0  0  0  0  0  0  0  0  0  0
   11.4149    2.6901  -13.7236 C   0  0  0  0  0  0  0  0  0  0  0  0
  1  2  1  0  0  0  0
  1  3  2  0  0  0  0
  2  7  1  0  0  0  0
  2  9  2  0  0  0  0
  3  4  1  0  0  0  0
  3  5  1  0  0  0  0
  4 24  1  0  0  0  0
  5  6  1  0  0  0  0
  5 13  2  0  0  0  0
  6 10  1  0  0  0  0
  7  8  1  0  0  0  0
  8 15  2  0  0  0  0
  9 11  1  0  0  0  0
  9 13  1  0  0  0  0
 10 12  1  0  0  0  0
 10 17  1  1  0  0  0
 10 24  1  0  0  0  0
 11 15  1  0  0  0  0
 12 14  1  0  0  0  0
 14 16  1  0  0  0  0
 14 18  1  0  0  0  0
 16 20  1  1  0  0  0
 16 25  1  0  0  0  0
 18 19  2  0  0  0  0
 18 22  1  0  0  0  0
 20 21  1  0  0  0  0
 21 22  1  0  0  0  0
 21 23  1  1  0  0  0
 22 27  1  6  0  0  0
 23 26  1  0  0  0  0
 23 28  2  0  0  0  0
 24 25  1  6  0  0  0
 27 29  1  0  0  0  0
M  END
$$$$

 OpenBabel10082411353D

 29 32  0  0  0  0  0  0  0  0999 V2000
   11.6836    6.0105   -4.8831 F   0  0  0  0  0  0  0  0  0  0  0  0
   11.2562    7.2206   -5.0294 C   0  0  0  0  0  0  0  0  0  0  0  0
   12.0125    8.2418   -4.4408 C   0  0  0  0  0  0  0  0  0  0  0  0
   11.1918    7.2706   -6.5237 C   0  0  0  0  0  0  0  0  0  0  0  0
   11.6999    8.4488   -3.1704 F   0  0  0  0  0  0  0  0  0  0  0  0
    9.8648    7.0908   -4.5314 F   0  0  0  0  0  0  0  0  0  0  0  0
   11.6831    8.5291   -6.9682 C   0  0  0  0  0  0  0  0  0  0  0  0
   10.4785    6.5189   -7.4033 C   0  0  0  0  0  0  0  0  0  0  0  0
   11.6979    8.6661   -8.4760 C   0  0  0  0  0  0  0  0  0  0  0  0
   11.6248    9.5853   -5.0030 C   0  0  0  0  0  0  0  0  0  0  0  0
   11.8604    9.7907   -6.2903 O   0  0  0  0  0  0  0  0  0  0  0  0
   13.3557    8.1748   -4.5947 F   0  0  0  0  0  0  0  0  0  0  0  0
   10.5427    6.6061   -8.7190 C   0  0  0  0  0  0  0  0  0  0  0  0
   11.1158    7.7103   -9.2540 C   0  0  0  0  0  0  0  0  0  0  0  0
   11.3757    7.6656  -10.5293 N   0  0  0  0  0  0  0  0  0  0  0  0
   10.7153    7.7096  -11.5405 C   0  0  0  0  0  0  0  0  0  0  0  0
   11.2483    7.4711  -12.8542 C   0  0  0  0  0  0  0  0  0  0  0  0
    9.3980    7.7820  -11.5398 C   0  0  0  0  0  0  0  0  0  0  0  0
    8.6055    7.5889  -12.6525 C   0  0  0  0  0  0  0  0  0  0  0  0
   12.7508    7.3705  -13.0162 O   0  0  0  0  0  0  0  0  0  0  0  0
   10.5299    7.1831  -13.9856 C   0  0  0  0  0  0  0  0  0  0  0  0
    7.0533    7.7371  -12.5396 C   0  0  0  0  0  0  0  0  0  0  0  0
   11.2041    6.8490  -15.2304 C   0  0  0  0  0  0  0  0  0  0  0  0
   11.6393    5.5333  -15.3864 C   0  0  0  0  0  0  0  0  0  0  0  0
    9.1955    7.2935  -13.8301 C   0  0  0  0  0  0  0  0  0  0  0  0
   12.5294    5.1116  -16.1609 C   0  0  0  0  0  0  0  0  0  0  0  0
   11.2315    4.4703  -14.3200 C   0  0  0  0  0  0  0  0  0  0  0  0
   12.7622    3.6475  -16.0496 O   0  0  0  0  0  0  0  0  0  0  0  0
   11.8357    3.2952  -14.9971 C   0  0  0  0  0  0  0  0  0  0  0  0
  1  2  1  0  0  0  0
  2  3  1  0  0  0  0
  2  4  1  0  0  0  0
  2  6  1  0  0  0  0
  3  5  1  0  0  0  0
  3 10  1  0  0  0  0
  3 12  1  0  0  0  0
  4  7  1  0  0  0  0
  4  8  2  0  0  0  0
  7  9  2  0  0  0  0
  7 11  1  0  0  0  0
  8 13  1  0  0  0  0
  9 14  1  0  0  0  0
 10 11  1  0  0  0  0
 13 14  2  0  0  0  0
 14 15  1  0  0  0  0
 15 16  1  0  0  0  0
 16 17  1  0  0  0  0
 16 18  2  0  0  0  0
 17 20  1  0  0  0  0
 17 21  2  0  0  0  0
 18 19  1  0  0  0  0
 19 22  1  0  0  0  0
 19 25  2  0  0  0  0
 21 23  1  0  0  0  0
 21 25  1  0  0  0  0
 23 24  1  0  0  0  0
 24 26  2  0  0  0  0
 24 27  1  0  0  0  0
 26 28  1  0  0  0  0
 27 29  2  0  0  0  0
 28 29  1  0  0  0  0
M  END
$$$$

 OpenBabel10082411353D

 29 31  0  0  0  0  0  0  0  0999 V2000
   12.7863    7.8241  -14.2109 C   0  0  0  0  0  0  0  0  0  0  0  0
   12.4233    7.7158  -13.0289 C   0  0  0  0  0  0  0  0  0  0  0  0
   12.9219    8.1949  -11.8668 C   0  0  0  0  0  0  0  0  0  0  0  0
   11.4275    6.6086  -12.7931 C   0  0  0  0  0  0  0  0  0  0  0  0
   10.3411    6.8404  -12.0679 C   0  0  0  0  0  0  0  0  0  0  0  0
   10.7226    7.4332  -10.7281 C   0  0  0  0  0  0  0  0  0  0  0  0
    9.0684    5.8539  -11.9851 C   0  0  0  0  0  0  0  0  0  0  0  0
    9.8080    7.4062   -9.6015 C   0  0  0  0  0  0  0  0  0  0  0  0
   11.9300    8.1400  -10.6702 C   0  0  0  0  0  0  0  0  0  0  0  0
   11.0289    6.0120  -14.2884 C   0  0  0  0  0  0  0  0  0  0  0  0
    9.9681    6.1425   -8.6941 C   0  0  0  0  0  0  0  0  0  0  0  0
    7.9946    6.5885  -12.1474 C   0  0  0  0  0  0  0  0  0  0  0  0
   10.2822    6.4890   -7.2771 C   0  0  0  0  0  0  0  0  0  0  0  0
   11.5540    6.8919   -6.8963 C   0  0  0  0  0  0  0  0  0  0  0  0
   11.8977    7.2299   -5.5785 C   0  0  0  0  0  0  0  0  0  0  0  0
   11.9395    6.5440  -15.2769 C   0  0  0  0  0  0  0  0  0  0  0  0
    6.8195    5.8154  -12.4332 C   0  0  0  0  0  0  0  0  0  0  0  0
    9.1018    4.4928  -12.2349 C   0  0  0  0  0  0  0  0  0  0  0  0
   10.4159    3.8089  -12.0037 O   0  0  0  0  0  0  0  0  0  0  0  0
   12.1092    8.5752   -5.2125 C   0  0  0  0  0  0  0  0  0  0  0  0
    7.7775    8.1342  -11.9166 C   0  0  0  0  0  0  0  0  0  0  0  0
    8.1476    3.6226  -12.3952 C   0  0  0  0  0  0  0  0  0  0  0  0
   11.0920    9.2252   -4.5098 C   0  0  0  0  0  0  0  0  0  0  0  0
   13.3916    8.8010   -4.3793 C   0  0  0  0  0  0  0  0  0  0  0  0
   12.4825    9.4929   -6.3774 C   0  0  0  0  0  0  0  0  0  0  0  0
    8.1143    2.3245  -12.5179 O   0  0  0  0  0  0  0  0  0  0  0  0
    9.1160    6.7488   -6.3964 C   0  0  0  0  0  0  0  0  0  0  0  0
    6.7938    4.2513  -12.5807 C   0  0  0  0  0  0  0  0  0  0  0  0
    6.9934    1.5941  -12.7696 C   0  0  0  0  0  0  0  0  0  0  0  0
  1  2  1  0  0  0  0
  1 16  1  0  0  0  0
  2  3  1  0  0  0  0
  2  4  2  0  0  0  0
  3  9  2  0  0  0  0
  4  5  1  0  0  0  0
  4 10  1  0  0  0  0
  5  6  2  0  0  0  0
  5  7  1  0  0  0  0
  6  8  1  0  0  0  0
  6  9  1  0  0  0  0
  7 12  1  0  0  0  0
  7 18  2  0  0  0  0
  8 11  1  0  0  0  0
 10 16  1  0  0  0  0
 11 13  1  0  0  0  0
 12 17  2  0  0  0  0
 12 21  1  0  0  0  0
 13 14  2  3  0  0  0
 13 27  1  0  0  0  0
 14 15  1  0  0  0  0
 15 20  1  0  0  0  0
 17 28  1  0  0  0  0
 18 19  1  0  0  0  0
 18 22  1  0  0  0  0
 20 23  1  0  0  0  0
 20 24  1  0  0  0  0
 20 25  1  0  0  0  0
 22 26  1  0  0  0  0
 22 28  2  0  0  0  0
 26 29  1  0  0  0  0
M  END
$$$$

 OpenBabel10082411353D

 29 32  0  0  0  0  0  0  0  0999 V2000
   13.1862    9.4584   -4.4987 C   0  0  0  0  0  0  0  0  0  0  0  0
   12.1466    8.8379   -3.9099 C   0  0  0  0  0  0  0  0  0  0  0  0
   12.9882    9.7409   -5.8618 C   0  0  0  0  0  0  0  0  0  0  0  0
   11.9761    9.3177   -6.5889 C   0  0  0  0  0  0  0  0  0  0  0  0
   10.9346    8.5066   -5.9096 C   0  0  0  0  0  0  0  0  0  0  0  0
   12.2569    8.5495   -2.4516 C   0  0  0  0  0  0  0  0  0  0  0  0
   11.0697    8.2577   -4.5299 C   0  0  0  0  0  0  0  0  0  0  0  0
   11.7350    9.5912   -7.9371 O   0  0  0  0  0  0  0  0  0  0  0  0
    9.7397    8.0780   -6.6393 C   0  0  0  0  0  0  0  0  0  0  0  0
   10.8649    8.8162   -8.5483 C   0  0  2  0  0  0  0  0  0  0  0  0
    9.2400    6.9866   -6.2549 O   0  0  0  0  0  0  0  0  0  0  0  0
   10.8576    9.1019   -9.9991 C   0  0  0  0  0  0  0  0  0  0  0  0
   11.8034    8.3801  -10.7004 C   0  0  0  0  0  0  0  0  0  0  0  0
    9.8033    8.2783   -8.0085 N   0  0  0  0  0  0  0  0  0  0  0  0
   11.4502    7.6515  -11.8595 C   0  0  0  0  0  0  0  0  0  0  0  0
   10.3061    7.2417  -12.2192 C   0  0  0  0  0  0  0  0  0  0  0  0
   12.5619    7.1376  -12.7423 C   0  0  0  0  0  0  0  0  0  0  0  0
    9.9519    6.4550  -13.3394 C   0  0  0  0  0  0  0  0  0  0  0  0
   12.3234    6.3860  -13.8374 C   0  0  0  0  0  0  0  0  0  0  0  0
   11.0086    6.0227  -14.1262 C   0  0  0  0  0  0  0  0  0  0  0  0
   10.7528    5.1903  -15.3140 C   0  0  0  0  0  0  0  0  0  0  0  0
   10.7272    3.7455  -15.1287 N   0  0  0  0  0  0  0  0  0  0  0  0
    9.8835    3.1820  -14.4607 C   0  0  0  0  0  0  0  0  0  0  0  0
    9.9418    1.8005  -14.3797 N   0  0  0  0  0  0  0  0  0  0  0  0
    8.5108    3.6485  -13.9676 C   0  0  0  0  0  0  0  0  0  0  0  0
    7.4839    2.7202  -13.6392 C   0  0  0  0  0  0  0  0  0  0  0  0
   11.1594    1.4102  -15.0263 O   0  0  0  0  0  0  0  0  0  0  0  0
    6.2552    3.4010  -13.0220 C   0  0  0  0  0  0  0  0  0  0  0  0
   11.5616    2.7459  -15.6023 C   0  0  0  0  0  0  0  0  0  0  0  0
  1  2  1  0  0  0  0
  1  3  2  0  0  0  0
  2  6  1  0  0  0  0
  2  7  2  0  0  0  0
  3  4  1  0  0  0  0
  4  5  2  0  0  0  0
  4  8  1  0  0  0  0
  5  7  1  0  0  0  0
  5  9  1  0  0  0  0
  8 10  1  0  0  0  0
  9 11  2  0  0  0  0
  9 14  1  0  0  0  0
 10 12  1  6  0  0  0
 10 14  1  0  0  0  0
 12 13  1  0  0  0  0
 13 15  1  0  0  0  0
 15 16  2  0  0  0  0
 15 17  1  0  0  0  0
 16 18  1  0  0  0  0
 17 19  2  0  0  0  0
 18 20  2  0  0  0  0
 19 20  1  0  0  0  0
 20 21  1  0  0  0  0
 21 22  1  0  0  0  0
 22 23  1  0  0  0  0
 22 29  1  0  0  0  0
 23 24  2  0  0  0  0
 23 25  1  0  0  0  0
 24 27  1  0  0  0  0
 25 26  2  3  0  0  0
 26 28  1  0  0  0  0
 27 29  1  0  0  0  0
M  END
$$$$

 OpenBabel10082411353D

 29 33  0  0  0  0  0  0  0  0999 V2000
   10.5338    9.5630   -5.0683 C   0  0  0  0  0  0  0  0  0  0  0  0
   11.6326    9.3232   -4.4343 C   0  0  0  0  0  0  0  0  0  0  0  0
   10.1175    8.4558   -5.9583 O   0  0  0  0  0  0  0  0  0  0  0  0
   11.2137    7.9307   -6.4519 C   0  0  1  0  0  0  0  0  0  0  0  0
   12.3805    8.4362   -5.4668 C   0  0  0  0  0  0  0  0  0  0  0  0
   11.1829    6.4410   -6.3835 C   0  0  0  0  0  0  0  0  0  0  0  0
   11.5307    8.4278   -7.8431 C   0  0  0  0  0  0  0  0  0  0  0  0
   10.9695    7.6928   -8.9182 C   0  0  0  0  0  0  0  0  0  0  0  0
   10.6724    8.2768  -10.0336 C   0  0  0  0  0  0  0  0  0  0  0  0
   10.0385    7.4564  -11.1366 C   0  0  0  0  0  0  0  0  0  0  0  0
   10.1397    6.1099  -11.1838 C   0  0  0  0  0  0  0  0  0  0  0  0
    9.3255    8.2273  -12.2243 C   0  0  0  0  0  0  0  0  0  0  0  0
    8.1145    8.9106  -11.7538 C   0  0  0  0  0  0  0  0  0  0  0  0
   10.4444    5.4278  -10.0118 C   0  0  0  0  0  0  0  0  0  0  0  0
   10.9789    6.1875   -8.8320 C   0  0  0  0  0  0  0  0  0  0  0  0
   11.2250    5.6168   -7.5866 C   0  0  0  0  0  0  0  0  0  0  0  0
    9.5926    5.1489  -12.1900 C   0  0  0  0  0  0  0  0  0  0  0  0
    8.3818    4.7973  -12.4219 C   0  0  0  0  0  0  0  0  0  0  0  0
   10.6536    4.7130  -13.0933 C   0  0  0  0  0  0  0  0  0  0  0  0
    8.0296    3.9055  -13.3975 C   0  0  0  0  0  0  0  0  0  0  0  0
    9.1812    3.4174  -14.2394 C   0  0  0  0  0  0  0  0  0  0  0  0
   10.4002    3.8777  -14.0847 C   0  0  0  0  0  0  0  0  0  0  0  0
   11.5016    3.4372  -14.9153 C   0  0  0  0  0  0  0  0  0  0  0  0
   12.2367    4.3384  -15.4928 C   0  0  0  0  0  0  0  0  0  0  0  0
   12.8321    4.0770  -16.6828 C   0  0  0  0  0  0  0  0  0  0  0  0
   13.4243    5.1858  -17.4231 C   0  0  0  0  0  0  0  0  0  0  0  0
   12.3496    5.6034  -14.8899 C   0  0  0  0  0  0  0  0  0  0  0  0
   13.6039    6.4159  -16.8340 C   0  0  0  0  0  0  0  0  0  0  0  0
   12.9932    6.7104  -15.5610 C   0  0  0  0  0  0  0  0  0  0  0  0
  1  2  1  0  0  0  0
  1  3  1  0  0  0  0
  2  5  1  0  0  0  0
  3  4  1  0  0  0  0
  4  5  1  1  0  0  0
  4  6  1  0  0  0  0
  4  7  1  0  0  0  0
  6 16  1  0  0  0  0
  7  8  1  0  0  0  0
  8  9  2  0  0  0  0
  8 15  1  0  0  0  0
  9 10  1  0  0  0  0
 10 11  2  0  0  0  0
 10 12  1  0  0  0  0
 11 14  1  0  0  0  0
 11 17  1  0  0  0  0
 12 13  1  0  0  0  0
 14 15  2  0  0  0  0
 15 16  1  0  0  0  0
 17 18  1  0  0  0  0
 17 19  2  0  0  0  0
 18 20  2  0  0  0  0
 19 22  1  0  0  0  0
 20 21  1  0  0  0  0
 21 22  2  0  0  0  0
 22 23  1  0  0  0  0
 23 24  1  0  0  0  0
 24 25  2  0  0  0  0
 24 27  1  0  0  0  0
 25 26  1  0  0  0  0
 26 28  2  0  0  0  0
 27 29  2  0  0  0  0
 28 29  1  0  0  0  0
M  END
$$$$

 OpenBabel10082411353D

 29 32  0  0  0  0  0  0  0  0999 V2000
   12.7863    7.8241  -14.2109 C   0  0  0  0  0  0  0  0  0  0  0  0
   12.4233    7.7158  -13.0289 C   0  0  0  0  0  0  0  0  0  0  0  0
   12.9219    8.1949  -11.8668 C   0  0  0  0  0  0  0  0  0  0  0  0
   11.4275    6.6086  -12.7931 C   0  0  0  0  0  0  0  0  0  0  0  0
   10.3411    6.8404  -12.0679 C   0  0  0  0  0  0  0  0  0  0  0  0
   10.7226    7.4332  -10.7281 C   0  0  0  0  0  0  0  0  0  0  0  0
    9.0684    5.8539  -11.9851 C   0  0  0  0  0  0  0  0  0  0  0  0
    9.8080    7.4062   -9.6015 C   0  0  1  0  0  0  0  0  0  0  0  0
   11.9300    8.1400  -10.6702 C   0  0  0  0  0  0  0  0  0  0  0  0
   11.0289    6.0120  -14.2884 C   0  0  0  0  0  0  0  0  0  0  0  0
    9.9681    6.1425   -8.6941 C   0  0  0  0  0  0  0  0  0  0  0  0
   11.9646    6.5393  -15.2778 C   0  0  0  0  0  0  0  0  0  0  0  0
    9.7799    8.6458   -8.9051 C   0  0  0  0  0  0  0  0  0  0  0  0
   10.3186    4.8592  -14.6682 C   0  0  0  0  0  0  0  0  0  0  0  0
   10.2572    3.7867  -13.8865 C   0  0  1  0  0  0  0  0  0  0  0  0
    8.1840    6.1529  -12.9802 C   0  0  0  0  0  0  0  0  0  0  0  0
    8.9788    2.9888  -13.9279 C   0  0  0  0  0  0  0  0  0  0  0  0
   10.5404    8.5651   -7.5433 C   0  0  0  0  0  0  0  0  0  0  0  0
    9.1252    1.6963  -14.1301 O   0  0  0  0  0  0  0  0  0  0  0  0
    6.8473    5.4043  -12.6964 C   0  0  0  0  0  0  0  0  0  0  0  0
    7.8908    3.5177  -13.7211 N   0  0  0  0  0  0  0  0  0  0  0  0
   10.1332    7.5210   -6.6089 C   0  0  1  0  0  0  0  0  0  0  0  0
   11.5194    2.8993  -13.9918 C   0  0  0  0  0  0  0  0  0  0  0  0
   10.0708    6.2280   -7.2683 C   0  0  0  0  0  0  0  0  0  0  0  0
    6.9345    4.0367  -13.1929 C   0  0  0  0  0  0  0  0  0  0  0  0
   11.1540    7.4448   -5.4663 C   0  0  0  0  0  0  0  0  0  0  0  0
    8.8638    7.9807   -5.8937 C   0  0  0  0  0  0  0  0  0  0  0  0
   11.3403    8.5117   -4.5835 C   0  0  0  0  0  0  0  0  0  0  0  0
   12.4366    8.6187   -3.7661 C   0  0  0  0  0  0  0  0  0  0  0  0
  1  2  1  0  0  0  0
  1 12  1  0  0  0  0
  2  3  1  0  0  0  0
  2  4  2  0  0  0  0
  3  9  2  0  0  0  0
  4  5  1  0  0  0  0
  4 10  1  0  0  0  0
  5  6  2  0  0  0  0
  5  7  1  0  0  0  0
  6  9  1  0  0  0  0
  7 16  1  0  0  0  0
  8  6  1  6  0  0  0
  8 11  1  0  0  0  0
  8 13  1  0  0  0  0
 10 12  2  0  0  0  0
 10 14  1  0  0  0  0
 11 24  1  0  0  0  0
 13 18  1  0  0  0  0
 14 15  1  0  0  0  0
 15 17  1  0  0  0  0
 15 23  1  6  0  0  0
 16 20  1  0  0  0  0
 17 19  2  0  0  0  0
 17 21  1  0  0  0  0
 18 22  1  0  0  0  0
 20 25  1  0  0  0  0
 21 25  2  0  0  0  0
 22 24  1  0  0  0  0
 22 26  1  0  0  0  0
 22 27  1  1  0  0  0
 26 28  1  0  0  0  0
 28 29  1  0  0  0  0
M  END
$$$$

 OpenBabel10082411353D

 18 19  0  0  0  0  0  0  0  0999 V2000
   12.7863    7.8241  -14.2109 C   0  0  0  0  0  0  0  0  0  0  0  0
   12.4233    7.7158  -13.0289 C   0  0  0  0  0  0  0  0  0  0  0  0
   11.3194    6.8571  -12.8028 C   0  0  0  0  0  0  0  0  0  0  0  0
   12.3150    7.2021  -15.3582 C   0  0  0  0  0  0  0  0  0  0  0  0
   11.2733    6.2739  -15.1502 C   0  0  0  0  0  0  0  0  0  0  0  0
   10.8099    6.0126  -13.8600 C   0  0  0  0  0  0  0  0  0  0  0  0
    9.6782    5.1428  -13.6488 C   0  0  0  0  0  0  0  0  0  0  0  0
    8.5753    5.3880  -12.9589 N   0  0  0  0  0  0  0  0  0  0  0  0
    8.3226    6.7011  -12.3862 C   0  0  0  0  0  0  0  0  0  0  0  0
    9.8502    3.8578  -14.0728 C   0  0  0  0  0  0  0  0  0  0  0  0
    7.3864    7.4720  -13.0530 C   0  0  0  0  0  0  0  0  0  0  0  0
    6.2412    7.8486  -12.2599 C   0  0  0  0  0  0  0  0  0  0  0  0
    7.6425    4.4186  -12.7943 C   0  0  0  0  0  0  0  0  0  0  0  0
    8.8502    2.8345  -13.8996 C   0  0  0  0  0  0  0  0  0  0  0  0
   11.2008    3.2575  -14.5783 C   0  0  0  0  0  0  0  0  0  0  0  0
    6.4533    4.7977  -12.1429 O   0  0  0  0  0  0  0  0  0  0  0  0
    7.7023    3.1822  -13.2927 N   0  0  0  0  0  0  0  0  0  0  0  0
    9.0384    1.5142  -14.3122 N   0  0  0  0  0  0  0  0  0  0  0  0
  1  2  2  0  0  0  0
  1  4  1  0  0  0  0
  2  3  1  0  0  0  0
  3  6  2  0  0  0  0
  4  5  2  0  0  0  0
  5  6  1  0  0  0  0
  6  7  1  0  0  0  0
  7  8  1  0  0  0  0
  7 10  2  0  0  0  0
  8  9  1  0  0  0  0
  8 13  1  0  0  0  0
  9 11  1  0  0  0  0
 10 14  1  0  0  0  0
 10 15  1  0  0  0  0
 11 12  1  0  0  0  0
 13 16  2  0  0  0  0
 13 17  1  0  0  0  0
 14 17  2  0  0  0  0
 14 18  1  0  0  0  0
M  END
$$$$

 OpenBabel10082411353D

 29 33  0  0  0  0  0  0  0  0999 V2000
   11.6836    6.0105   -4.8831 C   0  0  0  0  0  0  0  0  0  0  0  0
   11.1291    7.0732   -5.4395 C   0  0  0  0  0  0  0  0  0  0  0  0
   10.6954    7.0156   -6.8073 C   0  0  0  0  0  0  0  0  0  0  0  0
   10.2502    8.1187   -7.5536 C   0  0  2  0  0  0  0  0  0  0  0  0
   11.1205    8.4712   -4.9629 C   0  0  0  0  0  0  0  0  0  0  0  0
   10.8655    8.3511   -8.7960 C   0  0  0  0  0  0  0  0  0  0  0  0
   10.2922    7.8843   -9.9985 C   0  0  0  0  0  0  0  0  0  0  0  0
   10.4654    9.6993   -5.6120 C   0  0  0  0  0  0  0  0  0  0  0  0
   10.3510    9.5971   -7.0014 C   0  0  0  0  0  0  0  0  0  0  0  0
   12.2462    6.3351   -3.5020 C   0  0  0  0  0  0  0  0  0  0  0  0
   11.0471    7.5309  -11.1063 C   0  0  0  0  0  0  0  0  0  0  0  0
   11.7288    8.6923   -3.6518 C   0  0  0  0  0  0  0  0  0  0  0  0
   12.3991    7.7501  -11.1145 C   0  0  0  0  0  0  0  0  0  0  0  0
   12.3738    7.7580   -2.9599 C   0  0  0  0  0  0  0  0  0  0  0  0
   13.1285    8.5075  -10.1661 O   0  0  0  0  0  0  0  0  0  0  0  0
    9.0407    7.3775  -10.0973 N   0  0  0  0  0  0  0  0  0  0  0  0
    8.9787    6.9473  -11.4664 N   0  0  0  0  0  0  0  0  0  0  0  0
   13.1012    7.4459  -12.3707 C   0  0  0  0  0  0  0  0  0  0  0  0
   12.2395    6.9724  -13.2444 C   0  0  0  0  0  0  0  0  0  0  0  0
   10.2768    7.0170  -11.9799 C   0  0  0  0  0  0  0  0  0  0  0  0
    7.8073    6.9028  -12.1886 C   0  0  0  0  0  0  0  0  0  0  0  0
   10.8782    6.7325  -13.1253 C   0  0  0  0  0  0  0  0  0  0  0  0
    7.0194    7.9782  -12.2466 C   0  0  0  0  0  0  0  0  0  0  0  0
    7.5977    5.6931  -12.5976 C   0  0  0  0  0  0  0  0  0  0  0  0
    6.4473    5.4458  -13.4544 C   0  0  0  0  0  0  0  0  0  0  0  0
    8.2471    4.5197  -12.0855 C   0  0  0  0  0  0  0  0  0  0  0  0
    8.3272    3.3224  -12.9121 C   0  0  0  0  0  0  0  0  0  0  0  0
    7.1197    2.7034  -13.2385 C   0  0  0  0  0  0  0  0  0  0  0  0
    6.3887    3.8125  -13.8809 C   0  0  0  0  0  0  0  0  0  0  0  0
  1  2  1  0  0  0  0
  1 10  2  0  0  0  0
  2  3  1  0  0  0  0
  2  5  2  0  0  0  0
  3  4  1  0  0  0  0
  4  6  1  6  0  0  0
  4  9  1  0  0  0  0
  5  8  1  0  0  0  0
  5 12  1  0  0  0  0
  6  7  1  0  0  0  0
  7 11  1  0  0  0  0
  7 16  2  0  0  0  0
  8  9  1  0  0  0  0
 10 14  1  0  0  0  0
 11 13  2  0  0  0  0
 11 20  1  0  0  0  0
 12 14  2  0  0  0  0
 13 15  1  0  0  0  0
 13 18  1  0  0  0  0
 16 17  1  0  0  0  0
 17 20  1  0  0  0  0
 17 21  1  0  0  0  0
 18 19  2  0  0  0  0
 19 22  1  0  0  0  0
 20 22  2  0  0  0  0
 21 23  1  0  0  0  0
 21 24  2  0  0  0  0
 24 25  1  0  0  0  0
 24 26  1  0  0  0  0
 25 29  1  0  0  0  0
 26 27  1  0  0  0  0
 27 28  1  0  0  0  0
 28 29  1  0  0  0  0
M  END
$$$$

 OpenBabel10082411353D

 29 34  0  0  0  0  0  0  0  0999 V2000
   12.7863    7.8241  -14.2109 C   0  0  0  0  0  0  0  0  0  0  0  0
   12.4233    7.7158  -13.0289 C   0  0  0  0  0  0  0  0  0  0  0  0
   12.9219    8.1949  -11.8668 C   0  0  0  0  0  0  0  0  0  0  0  0
   11.4275    6.6086  -12.7931 C   0  0  0  0  0  0  0  0  0  0  0  0
   10.3411    6.8404  -12.0679 C   0  0  0  0  0  0  0  0  0  0  0  0
   10.7226    7.4332  -10.7281 C   0  0  0  0  0  0  0  0  0  0  0  0
   11.9330    8.1749  -10.6718 C   0  0  0  0  0  0  0  0  0  0  0  0
    9.1847    5.7774  -11.9431 C   0  0  1  0  0  0  0  0  0  0  0  0
    9.7417    7.5228   -9.7082 N   0  0  0  0  0  0  0  0  0  0  0  0
   10.0226    8.3874   -8.6769 C   0  0  0  0  0  0  0  0  0  0  0  0
   10.1341    7.7462   -7.2543 C   0  0  0  0  0  0  0  0  0  0  0  0
   11.3271    5.6181  -13.9601 C   0  0  0  0  0  0  0  0  0  0  0  0
   10.9489    8.3545   -6.3454 C   0  0  0  0  0  0  0  0  0  0  0  0
    9.4721    6.6206   -6.8773 C   0  0  0  0  0  0  0  0  0  0  0  0
    9.6492    6.0782   -5.6819 C   0  0  0  0  0  0  0  0  0  0  0  0
    8.2853    6.1002  -13.0033 C   0  0  0  0  0  0  0  0  0  0  0  0
   12.8236    6.9905  -15.2601 C   0  0  0  0  0  0  0  0  0  0  0  0
    9.5654    4.3459  -12.0159 C   0  0  0  0  0  0  0  0  0  0  0  0
   10.5093    6.6444   -4.7816 C   0  0  0  0  0  0  0  0  0  0  0  0
   11.9406    5.9200  -15.1539 C   0  0  0  0  0  0  0  0  0  0  0  0
   11.1438    7.8057   -5.1130 C   0  0  0  0  0  0  0  0  0  0  0  0
   11.9928    8.4432   -4.1235 C   0  0  0  0  0  0  0  0  0  0  0  0
   10.3446    4.3205  -13.4672 C   0  0  1  0  0  0  0  0  0  0  0  0
    9.4023    3.9353  -14.4789 C   0  0  1  0  0  0  0  0  0  0  0  0
   11.4905    3.2373  -13.4459 C   0  0  0  0  0  0  0  0  0  0  0  0
    7.4980    4.7967  -13.4975 C   0  0  0  0  0  0  0  0  0  0  0  0
    9.9819    2.8766  -15.3623 O   0  0  0  0  0  0  0  0  0  0  0  0
   11.1057    2.3319  -14.7435 C   0  0  0  0  0  0  0  0  0  0  0  0
    8.0286    3.7817  -14.1858 C   0  0  0  0  0  0  0  0  0  0  0  0
  1  2  1  0  0  0  0
  1 17  2  0  0  0  0
  2  3  1  0  0  0  0
  2  4  2  0  0  0  0
  3  7  2  0  0  0  0
  4  5  1  0  0  0  0
  4 12  1  0  0  0  0
  5  6  2  0  0  0  0
  5  8  1  0  0  0  0
  6  7  1  0  0  0  0
  6  9  1  0  0  0  0
  8 16  1  6  0  0  0
  8 18  1  0  0  0  0
  9 10  1  0  0  0  0
 10 11  1  0  0  0  0
 11 13  1  0  0  0  0
 11 14  2  0  0  0  0
 12 20  2  0  0  0  0
 12 23  1  0  0  0  0
 13 21  2  0  0  0  0
 14 15  1  0  0  0  0
 15 19  2  0  0  0  0
 16 26  1  0  0  0  0
 17 20  1  0  0  0  0
 19 21  1  0  0  0  0
 21 22  1  0  0  0  0
 23 18  1  1  0  0  0
 23 24  1  0  0  0  0
 23 25  1  0  0  0  0
 24 27  1  0  0  0  0
 24 29  1  1  0  0  0
 25 28  2  0  0  0  0
 26 29  2  0  0  0  0
 27 28  1  0  0  0  0
M  END
$$$$

 OpenBabel10082411353D

 29 32  0  0  0  0  0  0  0  0999 V2000
   11.6836    6.0105   -4.8831 C   0  0  0  0  0  0  0  0  0  0  0  0
   11.1291    7.0732   -5.4395 C   0  0  0  0  0  0  0  0  0  0  0  0
   10.6954    7.0156   -6.8073 C   0  0  0  0  0  0  0  0  0  0  0  0
   10.2502    8.1187   -7.5536 C   0  0  2  0  0  0  0  0  0  0  0  0
   11.1205    8.4712   -4.9629 C   0  0  0  0  0  0  0  0  0  0  0  0
   10.8655    8.3511   -8.7960 C   0  0  0  0  0  0  0  0  0  0  0  0
   10.2922    7.8843   -9.9985 C   0  0  0  0  0  0  0  0  0  0  0  0
   10.4654    9.6993   -5.6120 C   0  0  0  0  0  0  0  0  0  0  0  0
   10.3510    9.5971   -7.0014 C   0  0  0  0  0  0  0  0  0  0  0  0
   12.2462    6.3351   -3.5020 C   0  0  0  0  0  0  0  0  0  0  0  0
   11.0471    7.5309  -11.1063 C   0  0  0  0  0  0  0  0  0  0  0  0
   11.7288    8.6923   -3.6518 C   0  0  0  0  0  0  0  0  0  0  0  0
   12.3991    7.7501  -11.1145 C   0  0  0  0  0  0  0  0  0  0  0  0
   12.3738    7.7580   -2.9599 C   0  0  0  0  0  0  0  0  0  0  0  0
   13.1285    8.5075  -10.1661 O   0  0  0  0  0  0  0  0  0  0  0  0
    9.0407    7.3775  -10.0973 N   0  0  0  0  0  0  0  0  0  0  0  0
    8.9787    6.9473  -11.4664 N   0  0  0  0  0  0  0  0  0  0  0  0
   13.1012    7.4459  -12.3707 C   0  0  0  0  0  0  0  0  0  0  0  0
   12.2395    6.9724  -13.2444 C   0  0  0  0  0  0  0  0  0  0  0  0
    7.7579    6.3689  -11.9282 C   0  0  2  0  0  0  0  0  0  0  0  0
    7.4759    5.0504  -11.8148 C   0  0  0  0  0  0  0  0  0  0  0  0
   12.9541    6.5945  -14.5510 O   0  0  0  0  0  0  0  0  0  0  0  0
   12.5717    5.3751  -15.0924 C   0  0  0  0  0  0  0  0  0  0  0  0
   10.2361    7.0379  -12.0113 C   0  0  0  0  0  0  0  0  0  0  0  0
   10.8757    6.6937  -13.2255 C   0  0  0  0  0  0  0  0  0  0  0  0
    6.5103    4.3889  -12.7033 C   0  0  0  0  0  0  0  0  0  0  0  0
    6.7043    3.0657  -13.1712 C   0  0  0  0  0  0  0  0  0  0  0  0
    7.5077    6.9278  -13.2364 C   0  0  0  0  0  0  0  0  0  0  0  0
    7.4010    8.4872  -13.0999 C   0  0  0  0  0  0  0  0  0  0  0  0
  1  2  1  0  0  0  0
  1 10  2  0  0  0  0
  2  3  1  0  0  0  0
  2  5  2  0  0  0  0
  3  4  1  0  0  0  0
  4  6  1  6  0  0  0
  4  9  1  0  0  0  0
  5  8  1  0  0  0  0
  5 12  1  0  0  0  0
  6  7  1  0  0  0  0
  7 11  1  0  0  0  0
  7 16  2  0  0  0  0
  8  9  1  0  0  0  0
 10 14  1  0  0  0  0
 11 13  2  0  0  0  0
 11 24  1  0  0  0  0
 12 14  2  0  0  0  0
 13 15  1  0  0  0  0
 13 18  1  0  0  0  0
 16 17  1  0  0  0  0
 17 20  1  0  0  0  0
 17 24  1  0  0  0  0
 18 19  2  0  0  0  0
 19 22  1  0  0  0  0
 19 25  1  0  0  0  0
 20 21  1  6  0  0  0
 20 28  1  0  0  0  0
 21 26  1  0  0  0  0
 22 23  1  0  0  0  0
 24 25  2  0  0  0  0
 26 27  1  0  0  0  0
 28 29  1  0  0  0  0
M  END
$$$$

 OpenBabel10082411353D

 29 32  0  0  0  0  0  0  0  0999 V2000
   10.5338    9.5630   -5.0683 C   0  0  0  0  0  0  0  0  0  0  0  0
   11.6326    9.3232   -4.4343 C   0  0  0  0  0  0  0  0  0  0  0  0
   10.1175    8.4558   -5.9583 O   0  0  0  0  0  0  0  0  0  0  0  0
   11.2137    7.9307   -6.4519 C   0  0  1  0  0  0  0  0  0  0  0  0
   12.3805    8.4362   -5.4668 C   0  0  0  0  0  0  0  0  0  0  0  0
   11.1829    6.4410   -6.3835 C   0  0  0  0  0  0  0  0  0  0  0  0
   11.5307    8.4278   -7.8431 C   0  0  0  0  0  0  0  0  0  0  0  0
   10.9695    7.6928   -8.9182 C   0  0  0  0  0  0  0  0  0  0  0  0
   10.6724    8.2768  -10.0336 C   0  0  0  0  0  0  0  0  0  0  0  0
   10.0385    7.4564  -11.1366 C   0  0  0  0  0  0  0  0  0  0  0  0
   10.1397    6.1099  -11.1838 C   0  0  0  0  0  0  0  0  0  0  0  0
    9.3255    8.2273  -12.2243 C   0  0  0  0  0  0  0  0  0  0  0  0
    8.1145    8.9106  -11.7538 C   0  0  0  0  0  0  0  0  0  0  0  0
   10.4444    5.4278  -10.0118 C   0  0  0  0  0  0  0  0  0  0  0  0
   10.9789    6.1875   -8.8320 C   0  0  0  0  0  0  0  0  0  0  0  0
   11.2250    5.6168   -7.5866 C   0  0  0  0  0  0  0  0  0  0  0  0
    9.5926    5.1489  -12.1900 C   0  0  0  0  0  0  0  0  0  0  0  0
    8.3818    4.7973  -12.4219 C   0  0  0  0  0  0  0  0  0  0  0  0
   10.6536    4.7130  -13.0933 C   0  0  0  0  0  0  0  0  0  0  0  0
    7.3334    5.1704  -11.3902 C   0  0  0  0  0  0  0  0  0  0  0  0
    8.2200    3.9214  -13.3882 C   0  0  0  0  0  0  0  0  0  0  0  0
    6.2242    4.7346  -11.6188 O   0  0  0  0  0  0  0  0  0  0  0  0
    6.7603    3.4184  -13.6559 O   0  0  0  0  0  0  0  0  0  0  0  0
    6.7347    2.0241  -13.6053 C   0  0  0  0  0  0  0  0  0  0  0  0
    7.5263    5.8629  -10.3725 O   0  0  0  0  0  0  0  0  0  0  0  0
   10.3754    3.9039  -14.1236 C   0  0  0  0  0  0  0  0  0  0  0  0
    9.0960    3.4892  -14.2677 C   0  0  0  0  0  0  0  0  0  0  0  0
   11.4301    3.4606  -14.9089 O   0  0  0  0  0  0  0  0  0  0  0  0
   11.5012    3.8030  -16.1967 C   0  0  0  0  0  0  0  0  0  0  0  0
  1  2  1  0  0  0  0
  1  3  1  0  0  0  0
  2  5  1  0  0  0  0
  3  4  1  0  0  0  0
  4  5  1  1  0  0  0
  4  6  1  0  0  0  0
  4  7  1  0  0  0  0
  6 16  1  0  0  0  0
  7  8  1  0  0  0  0
  8  9  2  0  0  0  0
  8 15  1  0  0  0  0
  9 10  1  0  0  0  0
 10 11  2  0  0  0  0
 10 12  1  0  0  0  0
 11 14  1  0  0  0  0
 11 17  1  0  0  0  0
 12 13  1  0  0  0  0
 14 15  2  0  0  0  0
 15 16  1  0  0  0  0
 17 18  1  0  0  0  0
 17 19  2  0  0  0  0
 18 20  1  0  0  0  0
 18 21  2  0  0  0  0
 19 26  1  0  0  0  0
 20 22  2  0  0  0  0
 20 25  1  0  0  0  0
 21 23  1  0  0  0  0
 21 27  1  0  0  0  0
 23 24  1  0  0  0  0
 26 27  2  0  0  0  0
 26 28  1  0  0  0  0
 28 29  1  0  0  0  0
M  END
$$$$

 OpenBabel10082411353D

 29 33  0  0  0  0  0  0  0  0999 V2000
   10.5338    9.5630   -5.0683 C   0  0  0  0  0  0  0  0  0  0  0  0
   11.6326    9.3232   -4.4343 C   0  0  0  0  0  0  0  0  0  0  0  0
   10.1175    8.4558   -5.9583 O   0  0  0  0  0  0  0  0  0  0  0  0
   11.2137    7.9307   -6.4519 C   0  0  1  0  0  0  0  0  0  0  0  0
   12.3805    8.4362   -5.4668 C   0  0  0  0  0  0  0  0  0  0  0  0
   11.1829    6.4410   -6.3835 C   0  0  0  0  0  0  0  0  0  0  0  0
   11.5307    8.4278   -7.8431 C   0  0  0  0  0  0  0  0  0  0  0  0
   10.9695    7.6928   -8.9182 C   0  0  0  0  0  0  0  0  0  0  0  0
   10.6724    8.2768  -10.0336 C   0  0  0  0  0  0  0  0  0  0  0  0
   10.0385    7.4564  -11.1366 C   0  0  0  0  0  0  0  0  0  0  0  0
   10.1397    6.1099  -11.1838 C   0  0  0  0  0  0  0  0  0  0  0  0
    9.3255    8.2273  -12.2243 C   0  0  0  0  0  0  0  0  0  0  0  0
    8.1145    8.9106  -11.7538 C   0  0  0  0  0  0  0  0  0  0  0  0
   10.4444    5.4278  -10.0118 C   0  0  0  0  0  0  0  0  0  0  0  0
   10.9789    6.1875   -8.8320 C   0  0  0  0  0  0  0  0  0  0  0  0
   11.0092    5.6276   -7.5622 C   0  0  0  0  0  0  0  0  0  0  0  0
   11.2416    5.7595   -5.1973 C   0  0  0  0  0  0  0  0  0  0  0  0
   10.0090    5.3078  -12.3223 C   0  0  0  0  0  0  0  0  0  0  0  0
    8.8572    4.8126  -12.7440 C   0  0  0  0  0  0  0  0  0  0  0  0
    7.6539    4.8277  -11.8878 C   0  0  0  0  0  0  0  0  0  0  0  0
    6.5993    4.0597  -12.4150 C   0  0  0  0  0  0  0  0  0  0  0  0
   11.0688    5.1801  -13.2435 C   0  0  0  0  0  0  0  0  0  0  0  0
   11.0112    4.0193  -14.0931 C   0  0  0  0  0  0  0  0  0  0  0  0
    7.4000    5.7083  -10.8094 O   0  0  0  0  0  0  0  0  0  0  0  0
    8.6442    3.7866  -13.6573 C   0  0  0  0  0  0  0  0  0  0  0  0
   12.2025    3.8290  -15.0188 C   0  0  0  0  0  0  0  0  0  0  0  0
    7.5644    3.1165  -13.9421 C   0  0  0  0  0  0  0  0  0  0  0  0
    9.8650    3.5473  -14.4811 C   0  0  0  0  0  0  0  0  0  0  0  0
    6.5502    3.2817  -13.2080 C   0  0  0  0  0  0  0  0  0  0  0  0
  1  2  1  0  0  0  0
  1  3  1  0  0  0  0
  2  5  1  0  0  0  0
  3  4  1  0  0  0  0
  4  5  1  1  0  0  0
  4  6  1  0  0  0  0
  4  7  1  0  0  0  0
  6 16  2  0  0  0  0
  6 17  1  0  0  0  0
  7  8  1  0  0  0  0
  8  9  2  0  0  0  0
  8 15  1  0  0  0  0
  9 10  1  0  0  0  0
 10 11  2  0  0  0  0
 10 12  1  0  0  0  0
 11 14  1  0  0  0  0
 11 18  1  0  0  0  0
 12 13  1  0  0  0  0
 14 15  2  0  0  0  0
 15 16  1  0  0  0  0
 18 19  2  0  0  0  0
 18 22  1  0  0  0  0
 19 20  1  0  0  0  0
 19 25  1  0  0  0  0
 20 21  2  0  0  0  0
 20 24  1  0  0  0  0
 21 29  1  0  0  0  0
 22 23  2  0  0  0  0
 23 26  1  0  0  0  0
 23 28  1  0  0  0  0
 25 27  1  0  0  0  0
 25 28  2  0  0  0  0
 27 29  2  0  0  0  0
M  END
$$$$

 OpenBabel10082411353D

 29 32  0  0  0  0  0  0  0  0999 V2000
   11.6836    6.0105   -4.8831 F   0  0  0  0  0  0  0  0  0  0  0  0
   11.2562    7.2206   -5.0294 C   0  0  0  0  0  0  0  0  0  0  0  0
   12.0125    8.2418   -4.4408 C   0  0  0  0  0  0  0  0  0  0  0  0
   11.1918    7.2706   -6.5237 C   0  0  0  0  0  0  0  0  0  0  0  0
   10.0644    7.2991   -4.5386 F   0  0  0  0  0  0  0  0  0  0  0  0
   12.0891    9.3929   -5.1087 C   0  0  0  0  0  0  0  0  0  0  0  0
   13.3610    7.8363   -4.3506 F   0  0  0  0  0  0  0  0  0  0  0  0
   10.2830    6.4331   -7.1715 C   0  0  0  0  0  0  0  0  0  0  0  0
   10.3227    6.5503   -8.6676 C   0  0  0  0  0  0  0  0  0  0  0  0
   11.5748    8.6448   -3.1714 F   0  0  0  0  0  0  0  0  0  0  0  0
    9.5216    5.6695   -9.4838 C   0  0  0  0  0  0  0  0  0  0  0  0
   11.0065    7.5083   -9.3954 C   0  0  0  0  0  0  0  0  0  0  0  0
   11.8654    8.2840   -7.1311 C   0  0  0  0  0  0  0  0  0  0  0  0
   12.4286    9.3622   -6.3765 O   0  0  0  0  0  0  0  0  0  0  0  0
   10.9665    7.5774  -10.7007 C   0  0  0  0  0  0  0  0  0  0  0  0
    9.4010    5.8124  -10.7917 C   0  0  0  0  0  0  0  0  0  0  0  0
    8.6560    4.8769  -11.5629 C   0  0  0  0  0  0  0  0  0  0  0  0
   11.8910    8.5683   -8.5912 C   0  0  0  0  0  0  0  0  0  0  0  0
    8.7355    4.7913  -12.8523 C   0  0  0  0  0  0  0  0  0  0  0  0
    9.5881    5.5716  -13.5132 C   0  0  0  0  0  0  0  0  0  0  0  0
    7.7626    3.7544  -13.5969 C   0  0  0  0  0  0  0  0  0  0  0  0
   11.7820    8.5282  -11.4473 O   0  0  0  0  0  0  0  0  0  0  0  0
    9.6951    5.3881  -14.9421 O   0  0  0  0  0  0  0  0  0  0  0  0
   10.2537    6.7031  -11.5097 C   0  0  0  0  0  0  0  0  0  0  0  0
    8.1793    2.6575  -13.8839 C   0  0  0  0  0  0  0  0  0  0  0  0
    9.4235    2.0195  -13.6357 O   0  0  0  0  0  0  0  0  0  0  0  0
   10.3940    6.6296  -12.8870 N   0  0  0  0  0  0  0  0  0  0  0  0
    7.2761    1.5068  -14.3910 C   0  0  0  0  0  0  0  0  0  0  0  0
   10.1244    1.6737  -14.7929 C   0  0  0  0  0  0  0  0  0  0  0  0
  1  2  1  0  0  0  0
  2  3  1  0  0  0  0
  2  4  1  0  0  0  0
  2  5  1  0  0  0  0
  3  6  1  0  0  0  0
  3  7  1  0  0  0  0
  3 10  1  0  0  0  0
  4  8  1  0  0  0  0
  4 13  2  0  0  0  0
  6 14  1  0  0  0  0
  8  9  2  0  0  0  0
  9 11  1  0  0  0  0
  9 12  1  0  0  0  0
 11 16  2  0  0  0  0
 12 15  1  0  0  0  0
 12 18  2  0  0  0  0
 13 14  1  0  0  0  0
 13 18  1  0  0  0  0
 15 22  1  0  0  0  0
 15 24  2  0  0  0  0
 16 17  1  0  0  0  0
 16 24  1  0  0  0  0
 17 19  2  0  0  0  0
 19 20  1  0  0  0  0
 19 21  1  0  0  0  0
 20 23  2  0  0  0  0
 20 27  1  0  0  0  0
 21 25  2  3  0  0  0
 24 27  1  0  0  0  0
 25 26  1  0  0  0  0
 25 28  1  0  0  0  0
 26 29  1  0  0  0  0
M  END
$$$$

 OpenBabel10082411353D

 29 33  0  0  0  0  0  0  0  0999 V2000
   10.5338    9.5630   -5.0683 C   0  0  0  0  0  0  0  0  0  0  0  0
   11.6326    9.3232   -4.4343 C   0  0  0  0  0  0  0  0  0  0  0  0
   10.1175    8.4558   -5.9583 O   0  0  0  0  0  0  0  0  0  0  0  0
   11.2137    7.9307   -6.4519 C   0  0  1  0  0  0  0  0  0  0  0  0
   12.3805    8.4362   -5.4668 C   0  0  0  0  0  0  0  0  0  0  0  0
   11.1829    6.4410   -6.3835 C   0  0  0  0  0  0  0  0  0  0  0  0
   11.5307    8.4278   -7.8431 C   0  0  0  0  0  0  0  0  0  0  0  0
   10.9695    7.6928   -8.9182 C   0  0  0  0  0  0  0  0  0  0  0  0
   10.6724    8.2768  -10.0336 C   0  0  0  0  0  0  0  0  0  0  0  0
   10.0385    7.4564  -11.1366 C   0  0  0  0  0  0  0  0  0  0  0  0
   10.1397    6.1099  -11.1838 C   0  0  0  0  0  0  0  0  0  0  0  0
    9.3255    8.2273  -12.2243 C   0  0  0  0  0  0  0  0  0  0  0  0
    8.1145    8.9106  -11.7538 C   0  0  0  0  0  0  0  0  0  0  0  0
   10.4444    5.4278  -10.0118 C   0  0  0  0  0  0  0  0  0  0  0  0
   10.9789    6.1875   -8.8320 C   0  0  0  0  0  0  0  0  0  0  0  0
   11.0092    5.6276   -7.5622 C   0  0  0  0  0  0  0  0  0  0  0  0
   11.2416    5.7595   -5.1973 C   0  0  0  0  0  0  0  0  0  0  0  0
   10.0090    5.3078  -12.3223 C   0  0  0  0  0  0  0  0  0  0  0  0
    8.8572    4.8126  -12.7440 C   0  0  0  0  0  0  0  0  0  0  0  0
    7.6539    4.8277  -11.8878 C   0  0  0  0  0  0  0  0  0  0  0  0
    6.5993    4.0597  -12.4150 C   0  0  0  0  0  0  0  0  0  0  0  0
   11.0688    5.1801  -13.2435 C   0  0  0  0  0  0  0  0  0  0  0  0
    8.7192    3.7929  -13.7633 C   0  0  0  0  0  0  0  0  0  0  0  0
    7.7472    3.0793  -14.1587 C   0  0  0  0  0  0  0  0  0  0  0  0
    6.6131    3.2108  -13.4304 C   0  0  0  0  0  0  0  0  0  0  0  0
   12.1813    5.9124  -13.2566 O   0  0  0  0  0  0  0  0  0  0  0  0
   11.0867    4.0093  -14.1103 N   0  0  0  0  0  0  0  0  0  0  0  0
   10.0234    3.7034  -14.6111 C   0  0  0  0  0  0  0  0  0  0  0  0
   10.0884    2.8611  -15.5621 O   0  0  0  0  0  0  0  0  0  0  0  0
  1  2  1  0  0  0  0
  1  3  1  0  0  0  0
  2  5  1  0  0  0  0
  3  4  1  0  0  0  0
  4  5  1  1  0  0  0
  4  6  1  0  0  0  0
  4  7  1  0  0  0  0
  6 16  2  0  0  0  0
  6 17  1  0  0  0  0
  7  8  1  0  0  0  0
  8  9  2  0  0  0  0
  8 15  1  0  0  0  0
  9 10  1  0  0  0  0
 10 11  2  0  0  0  0
 10 12  1  0  0  0  0
 11 14  1  0  0  0  0
 11 18  1  0  0  0  0
 12 13  1  0  0  0  0
 14 15  2  0  0  0  0
 15 16  1  0  0  0  0
 18 19  2  0  0  0  0
 18 22  1  0  0  0  0
 19 20  1  0  0  0  0
 19 23  1  0  0  0  0
 20 21  2  0  0  0  0
 21 25  1  0  0  0  0
 22 26  2  0  0  0  0
 22 27  1  0  0  0  0
 23 24  2  0  0  0  0
 23 28  1  0  0  0  0
 24 25  1  0  0  0  0
 27 28  1  0  0  0  0
 28 29  2  0  0  0  0
M  END
$$$$

 OpenBabel10082411353D

 29 33  0  0  0  0  0  0  0  0999 V2000
   12.7863    7.8241  -14.2109 C   0  0  0  0  0  0  0  0  0  0  0  0
   11.9525    6.9332  -13.8387 C   0  0  0  0  0  0  0  0  0  0  0  0
   11.7267    5.7328  -14.5132 C   0  0  0  0  0  0  0  0  0  0  0  0
   10.8046    4.7643  -14.0327 C   0  0  0  0  0  0  0  0  0  0  0  0
   11.0272    7.2755  -12.6804 C   0  0  0  0  0  0  0  0  0  0  0  0
   10.1335    6.2811  -12.2788 C   0  0  0  0  0  0  0  0  0  0  0  0
    9.8916    5.1213  -12.9670 C   0  0  0  0  0  0  0  0  0  0  0  0
    8.9904    4.1216  -12.5529 O   0  0  0  0  0  0  0  0  0  0  0  0
   10.5763    3.5139  -14.7726 C   0  0  2  0  0  0  0  0  0  0  0  0
    9.2216    6.6517  -11.1444 C   0  0  2  0  0  0  0  0  0  0  0  0
   11.6828    2.9906  -15.2550 O   0  0  0  0  0  0  0  0  0  0  0  0
    9.6802    3.3848  -15.8211 C   0  0  0  0  0  0  0  0  0  0  0  0
    7.9692    4.5534  -11.7319 C   0  0  0  0  0  0  0  0  0  0  0  0
    9.8504    7.1270  -10.0334 N   0  0  0  0  0  0  0  0  0  0  0  0
   10.0575    6.4133   -8.8721 C   0  0  1  0  0  0  0  0  0  0  0  0
    8.0108    5.8754  -11.0419 C   0  0  0  0  0  0  0  0  0  0  0  0
    6.9254    3.6523  -11.7023 C   0  0  0  0  0  0  0  0  0  0  0  0
    5.6876    3.8814  -11.3684 O   0  0  0  0  0  0  0  0  0  0  0  0
   10.6360    7.2450   -7.7901 C   0  0  0  0  0  0  0  0  0  0  0  0
   10.3607    6.9248   -6.5350 C   0  0  0  0  0  0  0  0  0  0  0  0
   11.5466    8.3011   -8.1574 C   0  0  0  0  0  0  0  0  0  0  0  0
   11.9095    8.5836   -9.5871 C   0  0  0  0  0  0  0  0  0  0  0  0
   10.9565    8.0375  -10.5355 C   0  0  0  0  0  0  0  0  0  0  0  0
   11.1955    8.3467  -11.8430 O   0  0  0  0  0  0  0  0  0  0  0  0
   12.3015    9.0456   -7.1860 C   0  0  0  0  0  0  0  0  0  0  0  0
    8.8827    5.6904   -8.6501 O   0  0  0  0  0  0  0  0  0  0  0  0
   11.0460    7.6914   -5.5043 C   0  0  0  0  0  0  0  0  0  0  0  0
   11.9709    8.7179   -5.8204 C   0  0  0  0  0  0  0  0  0  0  0  0
   12.7857    9.6305   -4.4576 Cl  0  0  0  0  0  0  0  0  0  0  0  0
  1  2  1  0  0  0  0
  2  3  2  0  0  0  0
  2  5  1  0  0  0  0
  3  4  1  0  0  0  0
  4  7  2  0  0  0  0
  4  9  1  0  0  0  0
  5  6  2  0  0  0  0
  5 24  1  0  0  0  0
  6  7  1  0  0  0  0
  6 10  1  0  0  0  0
  7  8  1  0  0  0  0
  8 13  1  0  0  0  0
  9 11  1  0  0  0  0
  9 12  1  6  0  0  0
 10 14  1  0  0  0  0
 10 16  1  1  0  0  0
 13 16  1  0  0  0  0
 13 17  2  3  0  0  0
 14 15  1  0  0  0  0
 14 23  1  0  0  0  0
 15 19  1  0  0  0  0
 15 26  1  1  0  0  0
 17 18  1  0  0  0  0
 19 20  1  0  0  0  0
 19 21  2  0  0  0  0
 20 27  2  0  0  0  0
 21 22  1  0  0  0  0
 21 25  1  0  0  0  0
 22 23  2  0  0  0  0
 23 24  1  0  0  0  0
 25 28  2  0  0  0  0
 27 28  1  0  0  0  0
 28 29  1  0  0  0  0
M  END
$$$$

 OpenBabel10082411353D

 29 31  0  0  0  0  0  0  0  0999 V2000
   10.9951    9.9694   -4.9946 C   0  0  0  0  0  0  0  0  0  0  0  0
   11.7938    9.3762   -4.2463 C   0  0  0  0  0  0  0  0  0  0  0  0
   10.8673    9.4548   -6.4276 C   0  0  0  0  0  0  0  0  0  0  0  0
   11.6576    7.9117   -4.2944 C   0  0  0  0  0  0  0  0  0  0  0  0
   10.5498    8.0257   -6.4521 C   0  0  0  0  0  0  0  0  0  0  0  0
   11.4715    7.2752   -5.6166 C   0  0  0  0  0  0  0  0  0  0  0  0
   10.5840    7.5390   -7.9254 C   0  0  0  0  0  0  0  0  0  0  0  0
   11.4612    8.1494   -8.8322 C   0  0  0  0  0  0  0  0  0  0  0  0
   12.6250    8.6294   -8.4338 O   0  0  0  0  0  0  0  0  0  0  0  0
   11.0835    8.4395  -10.0740 O   0  0  0  0  0  0  0  0  0  0  0  0
   11.2938    7.5612  -11.0769 C   0  0  0  0  0  0  0  0  0  0  0  0
   10.1547    7.2525  -11.9492 C   0  0  0  0  0  0  0  0  0  0  0  0
   10.4293    6.5622  -13.1348 C   0  0  0  0  0  0  0  0  0  0  0  0
   11.7295    6.4217  -13.6243 C   0  0  0  0  0  0  0  0  0  0  0  0
    8.8120    7.3918  -11.4649 C   0  0  0  0  0  0  0  0  0  0  0  0
   12.5351    7.8894  -11.6869 C   0  0  0  0  0  0  0  0  0  0  0  0
   13.5778    8.4243  -10.9673 O   0  0  0  0  0  0  0  0  0  0  0  0
    7.7211    7.1761  -12.4323 C   0  0  0  0  0  0  0  0  0  0  0  0
   12.8103    7.0723  -12.8897 C   0  0  0  0  0  0  0  0  0  0  0  0
    7.0543    5.9667  -12.3369 C   0  0  0  0  0  0  0  0  0  0  0  0
    7.2392    8.1844  -13.1320 C   0  0  0  0  0  0  0  0  0  0  0  0
   12.0288    5.6463  -14.9695 C   0  0  0  0  0  0  0  0  0  0  0  0
    6.4764    5.5077  -13.4785 O   0  0  0  0  0  0  0  0  0  0  0  0
    7.1052    5.2025  -11.3444 O   0  0  0  0  0  0  0  0  0  0  0  0
   12.3034    6.3506  -15.9502 C   0  0  0  0  0  0  0  0  0  0  0  0
   12.4972    5.4594  -17.1574 N   0  0  0  0  0  0  0  0  0  0  0  0
   12.1848    4.2463  -16.7288 C   0  0  0  0  0  0  0  0  0  0  0  0
   11.9161    4.3748  -15.2660 C   0  0  2  0  0  0  0  0  0  0  0  0
   11.5307    3.2269  -14.4455 C   0  0  0  0  0  0  0  0  0  0  0  0
  1  2  1  0  0  0  0
  1  3  1  0  0  0  0
  2  4  1  0  0  0  0
  3  5  1  0  0  0  0
  4  6  1  0  0  0  0
  5  6  1  0  0  0  0
  5  7  1  0  0  0  0
  7  8  1  0  0  0  0
  8  9  2  0  0  0  0
  8 10  1  0  0  0  0
 10 11  1  0  0  0  0
 11 12  1  0  0  0  0
 11 16  2  0  0  0  0
 12 13  2  0  0  0  0
 12 15  1  0  0  0  0
 13 14  1  0  0  0  0
 14 19  2  0  0  0  0
 14 22  1  0  0  0  0
 15 18  1  0  0  0  0
 16 17  1  0  0  0  0
 16 19  1  0  0  0  0
 18 20  1  0  0  0  0
 18 21  2  0  0  0  0
 20 23  2  0  0  0  0
 20 24  1  0  0  0  0
 22 25  2  0  0  0  0
 22 28  1  0  0  0  0
 25 26  1  0  0  0  0
 26 27  2  0  0  0  0
 27 28  1  0  0  0  0
 28 29  1  6  0  0  0
M  END
$$$$

 OpenBabel10082411353D

 29 32  0  0  0  0  0  0  0  0999 V2000
   11.6836    6.0105   -4.8831 C   0  0  0  0  0  0  0  0  0  0  0  0
   11.1291    7.0732   -5.4395 C   0  0  0  0  0  0  0  0  0  0  0  0
   10.6954    7.0156   -6.8073 C   0  0  0  0  0  0  0  0  0  0  0  0
   10.2502    8.1187   -7.5536 C   0  0  2  0  0  0  0  0  0  0  0  0
   11.1205    8.4712   -4.9629 C   0  0  0  0  0  0  0  0  0  0  0  0
   10.8655    8.3511   -8.7960 C   0  0  0  0  0  0  0  0  0  0  0  0
   10.2922    7.8843   -9.9985 C   0  0  0  0  0  0  0  0  0  0  0  0
   10.4654    9.6993   -5.6120 C   0  0  0  0  0  0  0  0  0  0  0  0
   10.3510    9.5971   -7.0014 C   0  0  0  0  0  0  0  0  0  0  0  0
   12.2462    6.3351   -3.5020 C   0  0  0  0  0  0  0  0  0  0  0  0
   11.0471    7.5309  -11.1063 C   0  0  0  0  0  0  0  0  0  0  0  0
   11.7288    8.6923   -3.6518 C   0  0  0  0  0  0  0  0  0  0  0  0
   12.3991    7.7501  -11.1145 C   0  0  0  0  0  0  0  0  0  0  0  0
   12.3738    7.7580   -2.9599 C   0  0  0  0  0  0  0  0  0  0  0  0
   13.1285    8.5075  -10.1661 O   0  0  0  0  0  0  0  0  0  0  0  0
    9.0407    7.3775  -10.0973 N   0  0  0  0  0  0  0  0  0  0  0  0
    8.9787    6.9473  -11.4664 N   0  0  0  0  0  0  0  0  0  0  0  0
   13.1486    7.4839  -12.3563 C   0  0  0  0  0  0  0  0  0  0  0  0
   10.2774    6.9211  -12.0258 C   0  0  0  0  0  0  0  0  0  0  0  0
    7.7103    6.4336  -11.9664 C   0  0  2  0  0  0  0  0  0  0  0  0
   12.3181    6.9212  -13.3802 C   0  0  0  0  0  0  0  0  0  0  0  0
   12.9543    6.5895  -14.6358 O   0  0  0  0  0  0  0  0  0  0  0  0
    7.8905    5.0531  -12.5657 C   0  0  0  0  0  0  0  0  0  0  0  0
   12.6635    5.3548  -15.1303 C   0  0  0  0  0  0  0  0  0  0  0  0
   10.8725    6.6302  -13.2911 C   0  0  0  0  0  0  0  0  0  0  0  0
    6.8915    4.2495  -12.4164 C   0  0  0  0  0  0  0  0  0  0  0  0
    5.6272    4.6956  -11.7354 C   0  0  0  0  0  0  0  0  0  0  0  0
    6.9806    2.7720  -12.9341 C   0  0  0  0  0  0  0  0  0  0  0  0
    7.1139    7.4321  -12.6510 C   0  0  0  0  0  0  0  0  0  0  0  0
  1  2  1  0  0  0  0
  1 10  2  0  0  0  0
  2  3  1  0  0  0  0
  2  5  2  0  0  0  0
  3  4  1  0  0  0  0
  4  6  1  6  0  0  0
  4  9  1  0  0  0  0
  5  8  1  0  0  0  0
  5 12  1  0  0  0  0
  6  7  1  0  0  0  0
  7 11  1  0  0  0  0
  7 16  2  0  0  0  0
  8  9  1  0  0  0  0
 10 14  1  0  0  0  0
 11 13  2  0  0  0  0
 11 19  1  0  0  0  0
 12 14  2  0  0  0  0
 13 15  1  0  0  0  0
 13 18  1  0  0  0  0
 16 17  1  0  0  0  0
 17 19  1  0  0  0  0
 17 20  1  0  0  0  0
 18 21  2  0  0  0  0
 19 25  2  0  0  0  0
 20 23  1  0  0  0  0
 20 29  1  6  0  0  0
 21 22  1  0  0  0  0
 21 25  1  0  0  0  0
 22 24  1  0  0  0  0
 23 26  2  0  0  0  0
 26 27  1  0  0  0  0
 26 28  1  0  0  0  0
M  END
$$$$

 OpenBabel10082411353D

 18 19  0  0  0  0  0  0  0  0999 V2000
    7.7881    8.8820  -12.7488 C   0  0  0  0  0  0  0  0  0  0  0  0
    8.4738    7.7952  -12.3426 C   0  0  0  0  0  0  0  0  0  0  0  0
    7.7393    6.5555  -12.3182 C   0  0  0  0  0  0  0  0  0  0  0  0
    9.8119    7.7179  -12.0345 C   0  0  0  0  0  0  0  0  0  0  0  0
    8.5066    5.4628  -12.0396 C   0  0  0  0  0  0  0  0  0  0  0  0
    9.8721    5.4097  -11.8315 C   0  0  0  0  0  0  0  0  0  0  0  0
   10.4640    4.1190  -11.6862 C   0  0  0  0  0  0  0  0  0  0  0  0
   10.5532    6.5798  -11.8317 C   0  0  0  0  0  0  0  0  0  0  0  0
    7.8170    4.0795  -12.0896 C   0  0  1  0  0  0  0  0  0  0  0  0
   10.2584    3.1992  -12.8922 C   0  0  1  0  0  0  0  0  0  0  0  0
    8.7326    3.0538  -12.9816 C   0  0  0  0  0  0  0  0  0  0  0  0
    7.6666    3.6823  -10.7164 O   0  0  0  0  0  0  0  0  0  0  0  0
   10.8033    3.8936  -14.1078 C   0  0  0  0  0  0  0  0  0  0  0  0
    6.3691    3.9696  -12.6647 C   0  0  0  0  0  0  0  0  0  0  0  0
   10.6940    3.2014  -15.2540 O   0  0  0  0  0  0  0  0  0  0  0  0
   11.9326    6.6598  -11.6573 O   0  0  0  0  0  0  0  0  0  0  0  0
   11.9894    4.5323  -13.9468 O   0  0  0  0  0  0  0  0  0  0  0  0
   12.6351    7.7241  -12.3539 C   0  0  0  0  0  0  0  0  0  0  0  0
  1  2  1  0  0  0  0
  2  3  2  0  0  0  0
  2  4  1  0  0  0  0
  3  5  1  0  0  0  0
  4  8  2  0  0  0  0
  5  6  2  0  0  0  0
  5  9  1  0  0  0  0
  6  7  1  0  0  0  0
  6  8  1  0  0  0  0
  7 10  1  0  0  0  0
  8 16  1  0  0  0  0
  9 11  1  0  0  0  0
  9 12  1  0  0  0  0
  9 14  1  6  0  0  0
 10 11  1  0  0  0  0
 10 13  1  6  0  0  0
 13 15  1  0  0  0  0
 13 17  2  0  0  0  0
 16 18  1  0  0  0  0
M  END
$$$$

 OpenBabel10082411353D

 29 32  0  0  0  0  0  0  0  0999 V2000
   12.8881    8.7759   -3.5681 C   0  0  0  0  0  0  0  0  0  0  0  0
   11.9416    9.4732   -4.1220 C   0  0  0  0  0  0  0  0  0  0  0  0
   12.1782    9.3707   -5.6407 C   0  0  0  0  0  0  0  0  0  0  0  0
   11.3825    8.3447   -6.3966 C   0  0  0  0  0  0  0  0  0  0  0  0
   11.8188    8.0044   -7.6822 C   0  0  0  0  0  0  0  0  0  0  0  0
   10.3120    7.6600   -5.7120 C   0  0  0  0  0  0  0  0  0  0  0  0
   10.8678    7.0723   -8.2897 C   0  0  0  0  0  0  0  0  0  0  0  0
    9.5717    6.7245   -6.3809 C   0  0  0  0  0  0  0  0  0  0  0  0
    9.8820    6.4468   -7.7081 C   0  0  0  0  0  0  0  0  0  0  0  0
   11.2611    6.6953   -9.7105 C   0  0  1  0  0  0  0  0  0  0  0  0
   10.0425    6.5460  -10.5971 C   0  0  0  0  0  0  0  0  0  0  0  0
   11.8062    7.8130  -10.4883 C   0  0  0  0  0  0  0  0  0  0  0  0
    8.8746    5.5265   -8.4149 C   0  0  0  0  0  0  0  0  0  0  0  0
   13.1546    8.1022  -10.4049 O   0  0  0  0  0  0  0  0  0  0  0  0
   10.3114    6.7627  -11.8786 C   0  0  0  0  0  0  0  0  0  0  0  0
   11.3906    7.6694  -11.8036 N   0  0  0  0  0  0  0  0  0  0  0  0
   11.9779    8.2398  -13.0316 C   0  0  0  0  0  0  0  0  0  0  0  0
    8.8154    6.0162   -9.9613 C   0  0  0  0  0  0  0  0  0  0  0  0
    9.6102    6.3636  -13.0859 C   0  0  0  0  0  0  0  0  0  0  0  0
   12.4931    7.2237  -14.0597 C   0  0  0  0  0  0  0  0  0  0  0  0
    8.7043    5.2113  -12.8183 C   0  0  2  0  0  0  0  0  0  0  0  0
    9.0721    4.1734  -13.5023 C   0  0  0  0  0  0  0  0  0  0  0  0
    7.2796    5.5312  -13.0953 C   0  0  2  0  0  0  0  0  0  0  0  0
    6.6913    6.5329  -12.3300 C   0  0  0  0  0  0  0  0  0  0  0  0
   10.3350    3.7329  -13.9182 C   0  0  0  0  0  0  0  0  0  0  0  0
    8.0849    3.1430  -13.5278 C   0  0  0  0  0  0  0  0  0  0  0  0
   11.3376    4.3927  -13.8696 O   0  0  0  0  0  0  0  0  0  0  0  0
   10.4440    2.5976  -14.6289 O   0  0  0  0  0  0  0  0  0  0  0  0
    6.6848    3.6273  -13.1652 C   0  0  0  0  0  0  0  0  0  0  0  0
  1  2  1  0  0  0  0
  2  3  1  0  0  0  0
  3  4  1  0  0  0  0
  4  5  2  0  0  0  0
  4  6  1  0  0  0  0
  5  7  1  0  0  0  0
  6  8  2  0  0  0  0
  7  9  2  0  0  0  0
  8  9  1  0  0  0  0
  9 13  1  0  0  0  0
 10  7  1  1  0  0  0
 10 11  1  0  0  0  0
 10 12  1  0  0  0  0
 11 15  2  0  0  0  0
 11 18  1  0  0  0  0
 12 14  2  0  0  0  0
 12 16  1  0  0  0  0
 13 18  1  0  0  0  0
 15 16  1  0  0  0  0
 15 19  1  0  0  0  0
 16 17  1  0  0  0  0
 17 20  1  0  0  0  0
 21 19  1  6  0  0  0
 21 22  1  0  0  0  0
 21 23  1  0  0  0  0
 22 25  1  0  0  0  0
 22 26  2  0  0  0  0
 23 24  1  1  0  0  0
 23 29  1  0  0  0  0
 25 27  2  0  0  0  0
 25 28  1  0  0  0  0
 26 29  1  0  0  0  0
M  END
$$$$

 OpenBabel10082411353D

 29 31  0  0  0  0  0  0  0  0999 V2000
   10.9951    9.9694   -4.9946 C   0  0  0  0  0  0  0  0  0  0  0  0
   11.7938    9.3762   -4.2463 C   0  0  0  0  0  0  0  0  0  0  0  0
   10.8673    9.4548   -6.4276 C   0  0  0  0  0  0  0  0  0  0  0  0
   11.6576    7.9117   -4.2944 C   0  0  0  0  0  0  0  0  0  0  0  0
   10.5498    8.0257   -6.4521 C   0  0  0  0  0  0  0  0  0  0  0  0
   11.4715    7.2752   -5.6166 C   0  0  0  0  0  0  0  0  0  0  0  0
   10.5840    7.5390   -7.9254 C   0  0  0  0  0  0  0  0  0  0  0  0
   11.4612    8.1494   -8.8322 C   0  0  0  0  0  0  0  0  0  0  0  0
   12.6250    8.6294   -8.4338 O   0  0  0  0  0  0  0  0  0  0  0  0
   11.0835    8.4395  -10.0740 O   0  0  0  0  0  0  0  0  0  0  0  0
   11.2938    7.5612  -11.0769 C   0  0  0  0  0  0  0  0  0  0  0  0
   10.1547    7.2525  -11.9492 C   0  0  0  0  0  0  0  0  0  0  0  0
   10.4293    6.5622  -13.1348 C   0  0  0  0  0  0  0  0  0  0  0  0
   11.7295    6.4217  -13.6243 C   0  0  0  0  0  0  0  0  0  0  0  0
    8.8120    7.3918  -11.4649 C   0  0  0  0  0  0  0  0  0  0  0  0
   12.5351    7.8894  -11.6869 C   0  0  0  0  0  0  0  0  0  0  0  0
   13.5778    8.4243  -10.9673 O   0  0  0  0  0  0  0  0  0  0  0  0
    7.7211    7.1761  -12.4323 C   0  0  0  0  0  0  0  0  0  0  0  0
   12.8103    7.0723  -12.8897 C   0  0  0  0  0  0  0  0  0  0  0  0
   12.0436    5.6071  -14.9340 C   0  0  0  0  0  0  0  0  0  0  0  0
    7.0836    5.9395  -12.4265 C   0  0  0  0  0  0  0  0  0  0  0  0
   12.2310    6.2743  -15.9354 C   0  0  0  0  0  0  0  0  0  0  0  0
   12.2496    7.7239  -16.0557 F   0  0  0  0  0  0  0  0  0  0  0  0
   12.2911    4.2530  -14.7118 C   0  0  0  0  0  0  0  0  0  0  0  0
   12.5437    5.6186  -17.1528 C   0  0  0  0  0  0  0  0  0  0  0  0
    6.4460    5.5498  -11.4788 O   0  0  0  0  0  0  0  0  0  0  0  0
    7.1473    5.3005  -13.6052 O   0  0  0  0  0  0  0  0  0  0  0  0
   12.5872    4.2200  -17.0841 C   0  0  0  0  0  0  0  0  0  0  0  0
   12.3649    3.5504  -15.8699 C   0  0  0  0  0  0  0  0  0  0  0  0
  1  2  1  0  0  0  0
  1  3  1  0  0  0  0
  2  4  1  0  0  0  0
  3  5  1  0  0  0  0
  4  6  1  0  0  0  0
  5  6  1  0  0  0  0
  5  7  1  0  0  0  0
  7  8  1  0  0  0  0
  8  9  2  0  0  0  0
  8 10  1  0  0  0  0
 10 11  1  0  0  0  0
 11 12  1  0  0  0  0
 11 16  2  0  0  0  0
 12 13  2  0  0  0  0
 12 15  1  0  0  0  0
 13 14  1  0  0  0  0
 14 19  2  0  0  0  0
 14 20  1  0  0  0  0
 15 18  1  0  0  0  0
 16 17  1  0  0  0  0
 16 19  1  0  0  0  0
 18 21  1  0  0  0  0
 20 22  2  0  0  0  0
 20 24  1  0  0  0  0
 21 26  2  0  0  0  0
 21 27  1  0  0  0  0
 22 23  1  0  0  0  0
 22 25  1  0  0  0  0
 24 29  2  0  0  0  0
 25 28  2  0  0  0  0
 28 29  1  0  0  0  0
M  END
$$$$

 OpenBabel10082411353D

 29 33  0  0  0  0  0  0  0  0999 V2000
   11.6836    6.0105   -4.8831 C   0  0  0  0  0  0  0  0  0  0  0  0
   11.9279    6.9038   -3.8792 C   0  0  0  0  0  0  0  0  0  0  0  0
   11.9719    8.3126   -4.1286 C   0  0  0  0  0  0  0  0  0  0  0  0
   11.3811    6.5964   -6.0845 C   0  0  0  0  0  0  0  0  0  0  0  0
   11.0420    5.6445   -7.1434 C   0  0  1  0  0  0  0  0  0  0  0  0
   11.3536    7.9055   -6.3870 C   0  0  0  0  0  0  0  0  0  0  0  0
    9.8569    4.8089   -7.0560 C   0  0  0  0  0  0  0  0  0  0  0  0
   11.5991    8.8196   -5.3527 C   0  0  0  0  0  0  0  0  0  0  0  0
   11.5316   10.2233   -5.5794 F   0  0  0  0  0  0  0  0  0  0  0  0
   10.9798    8.5285   -7.6795 C   0  0  0  0  0  0  0  0  0  0  0  0
   10.6556    6.3745   -8.5461 C   0  0  0  0  0  0  0  0  0  0  0  0
    9.6410    3.9438   -8.1044 C   0  0  0  0  0  0  0  0  0  0  0  0
   11.0669    7.6169   -8.7871 N   0  0  0  0  0  0  0  0  0  0  0  0
    9.9214    5.7500   -9.4200 C   0  0  0  0  0  0  0  0  0  0  0  0
   12.1374    7.7991   -9.6010 C   0  0  0  0  0  0  0  0  0  0  0  0
   13.3966    8.0702   -9.2678 O   0  0  0  0  0  0  0  0  0  0  0  0
   11.9065    8.1067  -10.9940 C   0  0  0  0  0  0  0  0  0  0  0  0
   11.5891    6.9407  -11.8496 C   0  0  0  0  0  0  0  0  0  0  0  0
    9.6383    6.5905  -10.7511 C   0  0  0  0  0  0  0  0  0  0  0  0
   10.3417    6.3234  -11.9172 N   0  0  0  0  0  0  0  0  0  0  0  0
    9.1610    4.6231   -9.2679 C   0  0  0  0  0  0  0  0  0  0  0  0
   10.0460    5.1982  -12.4989 C   0  0  0  0  0  0  0  0  0  0  0  0
   10.8981    4.6542  -13.4877 C   0  0  0  0  0  0  0  0  0  0  0  0
   11.5282    5.4948  -14.3618 C   0  0  0  0  0  0  0  0  0  0  0  0
   10.9982    3.2780  -13.6504 C   0  0  0  0  0  0  0  0  0  0  0  0
    8.9396    4.6374  -12.2705 O   0  0  0  0  0  0  0  0  0  0  0  0
   12.3031    4.9886  -15.4382 C   0  0  0  0  0  0  0  0  0  0  0  0
   12.3659    3.6413  -15.5982 C   0  0  0  0  0  0  0  0  0  0  0  0
   11.6563    2.7997  -14.7649 C   0  0  0  0  0  0  0  0  0  0  0  0
  1  2  1  0  0  0  0
  1  4  2  0  0  0  0
  2  3  2  0  0  0  0
  3  8  1  0  0  0  0
  4  5  1  0  0  0  0
  4  6  1  0  0  0  0
  5  7  1  1  0  0  0
  5 11  1  0  0  0  0
  6  8  2  0  0  0  0
  6 10  1  0  0  0  0
  7 12  1  0  0  0  0
  8  9  1  0  0  0  0
 10 13  1  0  0  0  0
 11 13  1  0  0  0  0
 11 14  2  0  0  0  0
 12 21  1  0  0  0  0
 13 15  1  0  0  0  0
 14 19  1  0  0  0  0
 14 21  1  0  0  0  0
 15 16  2  0  0  0  0
 15 17  1  0  0  0  0
 17 18  1  0  0  0  0
 18 20  1  0  0  0  0
 19 20  1  0  0  0  0
 20 22  1  0  0  0  0
 22 23  1  0  0  0  0
 22 26  2  0  0  0  0
 23 24  1  0  0  0  0
 23 25  2  0  0  0  0
 24 27  2  0  0  0  0
 25 29  1  0  0  0  0
 27 28  1  0  0  0  0
 28 29  2  0  0  0  0
M  END
$$$$

 OpenBabel10082411353D

 29 33  0  0  0  0  0  0  0  0999 V2000
   12.8881    8.7759   -3.5681 C   0  0  0  0  0  0  0  0  0  0  0  0
   11.9416    9.4732   -4.1220 C   0  0  0  0  0  0  0  0  0  0  0  0
   12.1782    9.3707   -5.6407 C   0  0  0  0  0  0  0  0  0  0  0  0
   11.3825    8.3447   -6.3966 C   0  0  0  0  0  0  0  0  0  0  0  0
   11.8188    8.0044   -7.6822 C   0  0  0  0  0  0  0  0  0  0  0  0
   10.3120    7.6600   -5.7120 C   0  0  0  0  0  0  0  0  0  0  0  0
   10.8678    7.0723   -8.2897 C   0  0  0  0  0  0  0  0  0  0  0  0
    9.5717    6.7245   -6.3809 C   0  0  0  0  0  0  0  0  0  0  0  0
    9.8820    6.4468   -7.7081 C   0  0  0  0  0  0  0  0  0  0  0  0
   11.2611    6.6953   -9.7105 C   0  0  1  0  0  0  0  0  0  0  0  0
   10.0425    6.5460  -10.5971 C   0  0  0  0  0  0  0  0  0  0  0  0
   11.8062    7.8130  -10.4883 C   0  0  0  0  0  0  0  0  0  0  0  0
    8.8746    5.5265   -8.4149 C   0  0  0  0  0  0  0  0  0  0  0  0
   13.1546    8.1022  -10.4049 O   0  0  0  0  0  0  0  0  0  0  0  0
   10.3114    6.7627  -11.8786 C   0  0  0  0  0  0  0  0  0  0  0  0
   11.3906    7.6694  -11.8036 N   0  0  0  0  0  0  0  0  0  0  0  0
   11.9779    8.2398  -13.0316 C   0  0  0  0  0  0  0  0  0  0  0  0
    8.8154    6.0162   -9.9613 C   0  0  0  0  0  0  0  0  0  0  0  0
    9.6102    6.3636  -13.0859 C   0  0  0  0  0  0  0  0  0  0  0  0
   11.8804    7.4718  -14.1937 C   0  0  0  0  0  0  0  0  0  0  0  0
   10.7017    6.3981  -14.2482 C   0  0  0  0  0  0  0  0  0  0  0  0
   10.3813    5.8427  -15.4547 C   0  0  2  0  0  0  0  0  0  0  0  0
    9.2579    5.0507  -15.6184 C   0  0  0  0  0  0  0  0  0  0  0  0
   11.6009    5.0735  -15.6795 C   0  0  0  0  0  0  0  0  0  0  0  0
    9.6578    3.6391  -15.4657 C   0  0  1  0  0  0  0  0  0  0  0  0
   11.1117    3.5868  -15.6119 C   0  0  0  0  0  0  0  0  0  0  0  0
    9.1866    2.9527  -14.2022 C   0  0  0  0  0  0  0  0  0  0  0  0
    8.0735    3.0392  -13.7932 O   0  0  0  0  0  0  0  0  0  0  0  0
   10.2523    2.5020  -13.4260 O   0  0  0  0  0  0  0  0  0  0  0  0
  1  2  1  0  0  0  0
  2  3  1  0  0  0  0
  3  4  1  0  0  0  0
  4  5  2  0  0  0  0
  4  6  1  0  0  0  0
  5  7  1  0  0  0  0
  6  8  2  0  0  0  0
  7  9  2  0  0  0  0
  8  9  1  0  0  0  0
  9 13  1  0  0  0  0
 10  7  1  1  0  0  0
 10 11  1  0  0  0  0
 10 12  1  0  0  0  0
 11 15  2  0  0  0  0
 11 18  1  0  0  0  0
 12 14  2  0  0  0  0
 12 16  1  0  0  0  0
 13 18  1  0  0  0  0
 15 16  1  0  0  0  0
 15 19  1  0  0  0  0
 16 17  1  0  0  0  0
 17 20  1  0  0  0  0
 19 21  1  0  0  0  0
 20 21  2  0  0  0  0
 22 21  1  1  0  0  0
 22 23  1  0  0  0  0
 22 24  1  0  0  0  0
 23 25  1  0  0  0  0
 24 26  1  0  0  0  0
 25 26  1  0  0  0  0
 25 27  1  1  0  0  0
 27 28  2  0  0  0  0
 27 29  1  0  0  0  0
M  END
$$$$

 OpenBabel10082411353D

 29 32  0  0  0  0  0  0  0  0999 V2000
   13.2485    9.2493   -6.3668 O   0  0  0  0  0  0  0  0  0  0  0  0
   12.3055    9.1779   -7.4488 C   0  0  1  0  0  0  0  0  0  0  0  0
   12.5005    8.1033   -8.2440 C   0  0  0  0  0  0  0  0  0  0  0  0
   11.7072    8.0925   -9.4886 C   0  0  2  0  0  0  0  0  0  0  0  0
   10.9116    9.4148   -7.0662 C   0  0  1  0  0  0  0  0  0  0  0  0
    9.9386    8.9657   -8.0654 C   0  0  0  0  0  0  0  0  0  0  0  0
   10.3196    7.8315   -8.9317 C   0  0  2  0  0  0  0  0  0  0  0  0
   10.1237    6.6155   -7.9733 C   0  0  2  0  0  0  0  0  0  0  0  0
    9.4711    7.7025  -10.1389 N   0  0  0  0  0  0  0  0  0  0  0  0
    8.9853    6.2010   -7.9545 O   0  0  0  0  0  0  0  0  0  0  0  0
   10.4471    8.5719   -5.8263 C   0  0  0  0  0  0  0  0  0  0  0  0
    8.8277    4.9823   -8.7016 C   0  0  0  0  0  0  0  0  0  0  0  0
   10.5671    7.0796   -6.5308 C   0  0  0  0  0  0  0  0  0  0  0  0
    9.9809    7.4743  -11.3743 C   0  0  0  0  0  0  0  0  0  0  0  0
    9.0505    7.4285  -12.4193 C   0  0  0  0  0  0  0  0  0  0  0  0
    9.0477    6.2588  -13.0112 C   0  0  0  0  0  0  0  0  0  0  0  0
   11.2333    7.5515  -11.6110 C   0  0  0  0  0  0  0  0  0  0  0  0
   11.7064    6.8083  -12.8473 C   0  0  0  0  0  0  0  0  0  0  0  0
   12.9043    6.7534  -13.2450 O   0  0  0  0  0  0  0  0  0  0  0  0
    7.5647    7.9935  -11.9086 C   0  0  0  0  0  0  0  0  0  0  0  0
   12.2998    8.0711  -10.8836 C   0  0  0  0  0  0  0  0  0  0  0  0
    6.4510    7.3146  -12.4006 C   0  0  0  0  0  0  0  0  0  0  0  0
   10.5249    6.1386  -13.5240 C   0  0  0  0  0  0  0  0  0  0  0  0
   10.7856    5.1021  -14.3862 O   0  0  0  0  0  0  0  0  0  0  0  0
   10.7750    3.8130  -14.0860 C   0  0  0  0  0  0  0  0  0  0  0  0
   10.8122    2.9314  -15.1878 C   0  0  0  0  0  0  0  0  0  0  0  0
    9.9458    1.8238  -14.9718 C   0  0  0  0  0  0  0  0  0  0  0  0
    8.5504    2.1429  -14.7048 C   0  0  0  0  0  0  0  0  0  0  0  0
    7.7888    1.4046  -13.8228 C   0  0  0  0  0  0  0  0  0  0  0  0
  2  1  1  1  0  0  0
  2  3  1  0  0  0  0
  2  5  1  0  0  0  0
  4  3  1  1  0  0  0
  4  7  1  0  0  0  0
  4 21  1  0  0  0  0
  5  6  1  6  0  0  0
  5 11  1  0  0  0  0
  7  6  1  1  0  0  0
  7  8  1  0  0  0  0
  7  9  1  0  0  0  0
  8 10  1  1  0  0  0
  8 13  1  0  0  0  0
  9 14  1  0  0  0  0
 10 12  1  0  0  0  0
 11 13  1  0  0  0  0
 14 15  1  0  0  0  0
 14 17  2  0  0  0  0
 15 16  2  0  0  0  0
 15 20  1  0  0  0  0
 16 23  1  0  0  0  0
 17 18  1  0  0  0  0
 17 21  1  0  0  0  0
 18 19  1  0  0  0  0
 18 23  2  0  0  0  0
 20 22  1  0  0  0  0
 23 24  1  0  0  0  0
 24 25  1  0  0  0  0
 25 26  1  0  0  0  0
 26 27  1  0  0  0  0
 27 28  1  0  0  0  0
 28 29  1  0  0  0  0
M  END
$$$$

 OpenBabel10082411353D

 30 33  0  0  0  0  0  0  0  0999 V2000
   13.2379    9.0584   -7.2681 C   0  0  0  0  0  0  0  0  0  0  0  0
   12.9396    9.3022   -5.9810 C   0  0  0  0  0  0  0  0  0  0  0  0
   12.1602    8.6694   -7.9361 C   0  0  0  0  0  0  0  0  0  0  0  0
   14.0320    9.7504   -5.0711 F   0  0  0  0  0  0  0  0  0  0  0  0
   10.9536    8.4526   -7.1212 C   0  0  1  0  0  0  0  0  0  0  0  0
   12.1901    8.3365   -9.3972 C   0  0  0  0  0  0  0  0  0  0  0  0
   11.0443    7.8367  -10.0430 C   0  0  0  0  0  0  0  0  0  0  0  0
   11.0471    8.9348   -5.8250 C   0  0  1  0  0  0  0  0  0  0  0  0
    9.5270    7.9533   -7.4234 C   0  0  2  0  0  0  0  0  0  0  0  0
    9.7802    8.7666   -5.0086 F   0  0  0  0  0  0  0  0  0  0  0  0
   11.9790    9.3452   -5.1373 C   0  0  0  0  0  0  0  0  0  0  0  0
    9.1878    6.9159   -6.7141 C   0  0  0  0  0  0  0  0  0  0  0  0
   11.1576    7.5184  -11.4190 C   0  0  0  0  0  0  0  0  0  0  0  0
    9.8595    7.5543   -8.9986 C   0  0  1  0  0  0  0  0  0  0  0  0
    9.9779    6.9809  -11.9943 C   0  0  0  0  0  0  0  0  0  0  0  0
   10.1471    6.6534  -13.4127 C   0  0  0  0  0  0  0  0  0  0  0  0
   12.3591    7.4352  -12.0563 C   0  0  0  0  0  0  0  0  0  0  0  0
    8.5551    6.8980  -11.2951 C   0  0  0  0  0  0  0  0  0  0  0  0
   12.2421    7.1981  -13.3125 C   0  0  0  0  0  0  0  0  0  0  0  0
   11.2735    6.6870  -13.9872 C   0  0  0  0  0  0  0  0  0  0  0  0
    8.1020    6.3652   -7.0525 O   0  0  0  0  0  0  0  0  0  0  0  0
   11.5320    6.1869  -15.4842 C   0  0  0  0  0  0  0  0  0  0  0  0
   11.6397    4.8187  -15.5947 N   0  0  0  0  0  0  0  0  0  0  0  0
   12.4561    4.1450  -16.1158 C   0  0  0  0  0  0  0  0  0  0  0  0
    7.4695    7.1268  -12.0510 C   0  0  0  0  0  0  0  0  0  0  0  0
    8.8254    7.8833  -10.0839 C   0  0  0  0  0  0  0  0  0  0  0  0
    8.3724    5.4984  -10.6706 C   0  0  0  0  0  0  0  0  0  0  0  0
   11.0627    4.0288  -14.3660 C   0  0  0  0  0  0  0  0  0  0  0  0
   10.4357    2.7283  -14.8504 C   0  0  0  0  0  0  0  0  0  0  0  0
    9.6169    2.1063  -13.9569 O   0  0  0  0  0  0  0  0  0  0  0  0
  1  2  1  0  0  0  0
  1  3  2  0  0  0  0
  2  4  1  0  0  0  0
  2 11  2  0  0  0  0
  3  6  1  0  0  0  0
  5  3  1  6  0  0  0
  5  8  1  0  0  0  0
  5  9  1  0  0  0  0
  6  7  2  0  0  0  0
  7 13  1  0  0  0  0
  7 14  1  0  0  0  0
  8 10  1  1  0  0  0
  8 11  1  0  0  0  0
  9 12  1  1  0  0  0
  9 14  1  0  0  0  0
 12 21  1  0  0  0  0
 13 15  2  0  0  0  0
 13 17  1  0  0  0  0
 14 26  1  6  0  0  0
 15 16  1  0  0  0  0
 15 18  1  0  0  0  0
 16 20  2  0  0  0  0
 17 19  2  0  0  0  0
 18 25  1  0  0  0  0
 18 26  1  0  0  0  0
 18 27  1  0  0  0  0
 19 20  1  0  0  0  0
 20 22  1  0  0  0  0
 22 23  1  0  0  0  0
 23 24  1  0  0  0  0
 23 28  1  0  0  0  0
 28 29  1  0  0  0  0
 29 30  1  0  0  0  0
M  END
$$$$

 OpenBabel10082411353D

 30 33  0  0  0  0  0  0  0  0999 V2000
   11.9925    6.6083   -4.7728 C   0  0  0  0  0  0  0  0  0  0  0  0
   11.4477    7.7141   -5.2577 C   0  0  0  0  0  0  0  0  0  0  0  0
   12.2896    6.5964   -3.2881 C   0  0  0  0  0  0  0  0  0  0  0  0
   11.4087    8.9270   -4.5689 C   0  0  0  0  0  0  0  0  0  0  0  0
   12.2969    7.8839   -2.6254 C   0  0  0  0  0  0  0  0  0  0  0  0
   11.0621    7.5900   -6.8322 C   0  0  0  0  0  0  0  0  0  0  0  0
   11.8177    9.0160   -3.2691 C   0  0  0  0  0  0  0  0  0  0  0  0
    9.9102    8.1517   -7.1200 C   0  0  0  0  0  0  0  0  0  0  0  0
    9.6797    8.0249   -8.5601 C   0  0  0  0  0  0  0  0  0  0  0  0
   10.6774    8.4879   -9.3430 C   0  0  0  0  0  0  0  0  0  0  0  0
   10.7443    8.0718  -10.6768 C   0  0  0  0  0  0  0  0  0  0  0  0
    9.5229    7.6343  -11.2834 C   0  0  2  0  0  0  0  0  0  0  0  0
    9.6110    7.1928  -12.6640 C   0  0  2  0  0  0  0  0  0  0  0  0
    8.4667    6.4682  -13.0705 C   0  0  2  0  0  0  0  0  0  0  0  0
   10.9230    6.4426  -12.9123 C   0  0  0  0  0  0  0  0  0  0  0  0
    7.3033    6.6273  -12.3120 C   0  0  0  0  0  0  0  0  0  0  0  0
    8.4743    5.0795  -13.6054 C   0  0  0  0  0  0  0  0  0  0  0  0
    7.1149    8.0520  -12.1379 C   0  0  0  0  0  0  0  0  0  0  0  0
    8.4396    8.6556  -11.4071 C   0  0  0  0  0  0  0  0  0  0  0  0
   11.8509    7.0352  -13.7092 C   0  0  0  0  0  0  0  0  0  0  0  0
    9.2533    4.7401  -14.5617 O   0  0  0  0  0  0  0  0  0  0  0  0
    7.8760    4.1070  -12.8752 N   0  0  0  0  0  0  0  0  0  0  0  0
    6.9470    4.3856  -11.8167 C   0  0  0  0  0  0  0  0  0  0  0  0
    8.1609    2.7543  -13.0149 C   0  0  2  0  0  0  0  0  0  0  0  0
    6.5412    5.8052  -11.6573 C   0  0  0  0  0  0  0  0  0  0  0  0
    9.2442    2.4500  -13.9669 C   0  0  2  0  0  0  0  0  0  0  0  0
    6.9820    1.9273  -13.6335 C   0  0  0  0  0  0  0  0  0  0  0  0
    9.2712    1.2349  -14.6872 C   0  0  0  0  0  0  0  0  0  0  0  0
   10.6538    2.3626  -13.1652 C   0  0  0  0  0  0  0  0  0  0  0  0
    7.6593    0.7146  -14.3018 C   0  0  0  0  0  0  0  0  0  0  0  0
  1  2  1  0  0  0  0
  1  3  2  0  0  0  0
  2  4  2  0  0  0  0
  2  6  1  0  0  0  0
  3  5  1  0  0  0  0
  4  7  1  0  0  0  0
  5  7  2  0  0  0  0
  6  8  1  0  0  0  0
  8  9  1  0  0  0  0
  9 10  1  0  0  0  0
 10 11  1  0  0  0  0
 12 11  1  6  0  0  0
 12 13  1  0  0  0  0
 12 19  1  0  0  0  0
 13 14  1  0  0  0  0
 13 15  1  1  0  0  0
 14 16  1  1  0  0  0
 14 17  1  0  0  0  0
 15 20  1  0  0  0  0
 16 18  1  0  0  0  0
 16 25  2  0  0  0  0
 17 21  2  0  0  0  0
 17 22  1  0  0  0  0
 18 19  1  0  0  0  0
 22 23  1  0  0  0  0
 23 25  1  0  0  0  0
 24 22  1  6  0  0  0
 24 26  1  0  0  0  0
 24 27  1  0  0  0  0
 26 28  1  0  0  0  0
 26 29  1  1  0  0  0
 27 30  1  0  0  0  0
 28 30  1  0  0  0  0
M  END
$$$$

 OpenBabel10082411353D

 30 32  0  0  0  0  0  0  0  0999 V2000
   10.9951    9.9694   -4.9946 C   0  0  0  0  0  0  0  0  0  0  0  0
   11.7938    9.3762   -4.2463 C   0  0  0  0  0  0  0  0  0  0  0  0
   10.8673    9.4548   -6.4276 C   0  0  0  0  0  0  0  0  0  0  0  0
   11.6576    7.9117   -4.2944 C   0  0  0  0  0  0  0  0  0  0  0  0
   10.5498    8.0257   -6.4521 C   0  0  0  0  0  0  0  0  0  0  0  0
   11.4715    7.2752   -5.6166 C   0  0  0  0  0  0  0  0  0  0  0  0
   10.5840    7.5390   -7.9254 C   0  0  0  0  0  0  0  0  0  0  0  0
   11.4612    8.1494   -8.8322 C   0  0  0  0  0  0  0  0  0  0  0  0
   12.6250    8.6294   -8.4338 O   0  0  0  0  0  0  0  0  0  0  0  0
   11.0835    8.4395  -10.0740 O   0  0  0  0  0  0  0  0  0  0  0  0
   11.2938    7.5612  -11.0769 C   0  0  0  0  0  0  0  0  0  0  0  0
   10.1547    7.2525  -11.9492 C   0  0  0  0  0  0  0  0  0  0  0  0
   10.4293    6.5622  -13.1348 C   0  0  0  0  0  0  0  0  0  0  0  0
   11.7295    6.4217  -13.6243 C   0  0  0  0  0  0  0  0  0  0  0  0
    8.8120    7.3918  -11.4649 C   0  0  0  0  0  0  0  0  0  0  0  0
   12.5351    7.8894  -11.6869 C   0  0  0  0  0  0  0  0  0  0  0  0
   13.5778    8.4243  -10.9673 O   0  0  0  0  0  0  0  0  0  0  0  0
    7.7211    7.1761  -12.4323 C   0  0  0  0  0  0  0  0  0  0  0  0
   12.8103    7.0723  -12.8897 C   0  0  0  0  0  0  0  0  0  0  0  0
    7.0543    5.9667  -12.3369 C   0  0  0  0  0  0  0  0  0  0  0  0
    7.2392    8.1844  -13.1320 C   0  0  0  0  0  0  0  0  0  0  0  0
   12.0288    5.6463  -14.9695 C   0  0  0  0  0  0  0  0  0  0  0  0
    6.4764    5.5077  -13.4785 O   0  0  0  0  0  0  0  0  0  0  0  0
    7.1052    5.2025  -11.3444 O   0  0  0  0  0  0  0  0  0  0  0  0
   12.3034    6.3506  -15.9502 C   0  0  0  0  0  0  0  0  0  0  0  0
   12.4972    5.4594  -17.1574 N   0  0  0  0  0  0  0  0  0  0  0  0
   11.7608    4.2999  -15.0387 C   0  0  2  0  0  0  0  0  0  0  0  0
   12.1313    4.0152  -16.4062 C   0  0  0  0  0  0  0  0  0  0  0  0
   11.8629    5.6919  -18.2966 C   0  0  0  0  0  0  0  0  0  0  0  0
   10.5476    3.6105  -14.6341 C   0  0  0  0  0  0  0  0  0  0  0  0
  1  2  1  0  0  0  0
  1  3  1  0  0  0  0
  2  4  1  0  0  0  0
  3  5  1  0  0  0  0
  4  6  1  0  0  0  0
  5  6  1  0  0  0  0
  5  7  1  0  0  0  0
  7  8  1  0  0  0  0
  8  9  2  0  0  0  0
  8 10  1  0  0  0  0
 10 11  1  0  0  0  0
 11 12  1  0  0  0  0
 11 16  2  0  0  0  0
 12 13  2  0  0  0  0
 12 15  1  0  0  0  0
 13 14  1  0  0  0  0
 14 19  2  0  0  0  0
 14 22  1  0  0  0  0
 15 18  1  0  0  0  0
 16 17  1  0  0  0  0
 16 19  1  0  0  0  0
 18 20  1  0  0  0  0
 18 21  2  0  0  0  0
 20 23  2  0  0  0  0
 20 24  1  0  0  0  0
 22 25  2  0  0  0  0
 22 27  1  0  0  0  0
 25 26  1  0  0  0  0
 26 28  1  0  0  0  0
 26 29  1  0  0  0  0
 27 28  1  0  0  0  0
 27 30  1  6  0  0  0
M  END
$$$$

 OpenBabel10082411353D

 30 34  0  0  0  0  0  0  0  0999 V2000
   13.2379    9.0584   -7.2681 C   0  0  0  0  0  0  0  0  0  0  0  0
   12.9396    9.3022   -5.9810 C   0  0  0  0  0  0  0  0  0  0  0  0
   12.1602    8.6694   -7.9361 C   0  0  0  0  0  0  0  0  0  0  0  0
   14.0320    9.7504   -5.0711 F   0  0  0  0  0  0  0  0  0  0  0  0
   10.9536    8.4526   -7.1212 C   0  0  1  0  0  0  0  0  0  0  0  0
   12.1901    8.3365   -9.3972 C   0  0  0  0  0  0  0  0  0  0  0  0
   11.0443    7.8367  -10.0430 C   0  0  0  0  0  0  0  0  0  0  0  0
   11.0471    8.9348   -5.8250 C   0  0  1  0  0  0  0  0  0  0  0  0
    9.5270    7.9533   -7.4234 C   0  0  2  0  0  0  0  0  0  0  0  0
    9.7802    8.7666   -5.0086 F   0  0  0  0  0  0  0  0  0  0  0  0
   11.9790    9.3452   -5.1373 C   0  0  0  0  0  0  0  0  0  0  0  0
    9.1878    6.9159   -6.7141 C   0  0  0  0  0  0  0  0  0  0  0  0
    9.5656    7.6242   -9.0101 C   0  0  2  0  0  0  0  0  0  0  0  0
    8.3077    6.0223   -7.3397 O   0  0  0  0  0  0  0  0  0  0  0  0
    9.5098    6.1454   -9.4071 C   0  0  1  0  0  0  0  0  0  0  0  0
    8.3994    5.5390   -8.6171 C   0  0  0  0  0  0  0  0  0  0  0  0
   10.8655    7.6135  -11.2894 C   0  0  0  0  0  0  0  0  0  0  0  0
    9.7694    7.2631  -11.8623 C   0  0  0  0  0  0  0  0  0  0  0  0
    9.5718    6.9892  -13.2172 C   0  0  0  0  0  0  0  0  0  0  0  0
    8.8640    6.1467  -10.8416 C   0  0  1  0  0  0  0  0  0  0  0  0
   11.9197    8.0705  -12.2158 O   0  0  0  0  0  0  0  0  0  0  0  0
    8.3199    5.0008  -11.2953 C   0  0  0  0  0  0  0  0  0  0  0  0
    7.3922    5.0144  -12.4607 C   0  0  1  0  0  0  0  0  0  0  0  0
    8.0750    5.2710  -13.8305 C   0  0  0  0  0  0  0  0  0  0  0  0
    6.6119    3.7349  -12.5958 C   0  0  0  0  0  0  0  0  0  0  0  0
    9.4157    5.7267  -13.8588 C   0  0  0  0  0  0  0  0  0  0  0  0
   10.3693    4.9244  -14.4409 C   0  0  0  0  0  0  0  0  0  0  0  0
   10.7921    3.6474  -14.3548 C   0  0  0  0  0  0  0  0  0  0  0  0
   10.0351    2.7530  -13.8554 O   0  0  0  0  0  0  0  0  0  0  0  0
   11.9681    3.2814  -14.7176 O   0  0  0  0  0  0  0  0  0  0  0  0
  1  2  1  0  0  0  0
  1  3  2  0  0  0  0
  2  4  1  0  0  0  0
  2 11  2  0  0  0  0
  3  6  1  0  0  0  0
  5  3  1  6  0  0  0
  5  8  1  0  0  0  0
  5  9  1  0  0  0  0
  6  7  2  0  0  0  0
  7 17  1  0  0  0  0
  8 10  1  1  0  0  0
  8 11  1  0  0  0  0
  9 12  1  1  0  0  0
  9 13  1  0  0  0  0
 12 14  1  0  0  0  0
 13  7  1  1  0  0  0
 13 15  1  0  0  0  0
 14 16  1  0  0  0  0
 15 16  1  1  0  0  0
 15 20  1  0  0  0  0
 17 18  2  0  0  0  0
 17 21  1  0  0  0  0
 18 19  1  0  0  0  0
 18 20  1  0  0  0  0
 19 26  1  0  0  0  0
 20 22  1  6  0  0  0
 22 23  1  0  0  0  0
 23 24  1  0  0  0  0
 23 25  1  6  0  0  0
 24 26  1  0  0  0  0
 26 27  2  3  0  0  0
 27 28  1  0  0  0  0
 28 29  1  0  0  0  0
 28 30  2  0  0  0  0
M  END
$$$$

 OpenBabel10082411353D

 30 33  0  0  0  0  0  0  0  0999 V2000
   11.6836    6.0105   -4.8831 C   0  0  0  0  0  0  0  0  0  0  0  0
   11.1291    7.0732   -5.4395 C   0  0  0  0  0  0  0  0  0  0  0  0
   10.6954    7.0156   -6.8073 C   0  0  0  0  0  0  0  0  0  0  0  0
   10.2502    8.1187   -7.5536 C   0  0  2  0  0  0  0  0  0  0  0  0
   11.1205    8.4712   -4.9629 C   0  0  0  0  0  0  0  0  0  0  0  0
   10.8655    8.3511   -8.7960 C   0  0  0  0  0  0  0  0  0  0  0  0
   10.2922    7.8843   -9.9985 C   0  0  0  0  0  0  0  0  0  0  0  0
   10.4654    9.6993   -5.6120 C   0  0  0  0  0  0  0  0  0  0  0  0
   10.3510    9.5971   -7.0014 C   0  0  0  0  0  0  0  0  0  0  0  0
   12.2462    6.3351   -3.5020 C   0  0  0  0  0  0  0  0  0  0  0  0
   11.0471    7.5309  -11.1063 C   0  0  0  0  0  0  0  0  0  0  0  0
   11.7288    8.6923   -3.6518 C   0  0  0  0  0  0  0  0  0  0  0  0
   12.3991    7.7501  -11.1145 C   0  0  0  0  0  0  0  0  0  0  0  0
   12.3738    7.7580   -2.9599 C   0  0  0  0  0  0  0  0  0  0  0  0
   13.1285    8.5075  -10.1661 O   0  0  0  0  0  0  0  0  0  0  0  0
    9.0407    7.3775  -10.0973 N   0  0  0  0  0  0  0  0  0  0  0  0
    8.9787    6.9473  -11.4664 N   0  0  0  0  0  0  0  0  0  0  0  0
   13.1012    7.4459  -12.3707 C   0  0  0  0  0  0  0  0  0  0  0  0
   12.2395    6.9724  -13.2444 C   0  0  0  0  0  0  0  0  0  0  0  0
    7.7579    6.3689  -11.9282 C   0  0  1  0  0  0  0  0  0  0  0  0
    7.4759    5.0504  -11.8148 C   0  0  0  0  0  0  0  0  0  0  0  0
   10.2318    7.0443  -11.9780 C   0  0  0  0  0  0  0  0  0  0  0  0
    6.6677    7.1344  -11.6331 O   0  0  0  0  0  0  0  0  0  0  0  0
   12.9095    6.5928  -14.5981 O   0  0  0  0  0  0  0  0  0  0  0  0
   10.8231    6.6796  -13.2018 C   0  0  0  0  0  0  0  0  0  0  0  0
    6.7444    8.3567  -12.3115 C   0  0  0  0  0  0  0  0  0  0  0  0
    7.3962    4.2175  -13.0373 C   0  0  0  0  0  0  0  0  0  0  0  0
    6.5784    3.1293  -13.0442 C   0  0  0  0  0  0  0  0  0  0  0  0
   12.4219    5.4950  -15.2874 C   0  0  0  0  0  0  0  0  0  0  0  0
    5.7480    2.9280  -11.9527 C   0  0  0  0  0  0  0  0  0  0  0  0
  1  2  1  0  0  0  0
  1 10  2  0  0  0  0
  2  3  1  0  0  0  0
  2  5  2  0  0  0  0
  3  4  1  0  0  0  0
  4  6  1  6  0  0  0
  4  9  1  0  0  0  0
  5  8  1  0  0  0  0
  5 12  1  0  0  0  0
  6  7  1  0  0  0  0
  7 11  1  0  0  0  0
  7 16  2  0  0  0  0
  8  9  1  0  0  0  0
 10 14  1  0  0  0  0
 11 13  2  0  0  0  0
 11 22  1  0  0  0  0
 12 14  2  0  0  0  0
 13 15  1  0  0  0  0
 13 18  1  0  0  0  0
 16 17  1  0  0  0  0
 17 20  1  0  0  0  0
 17 22  1  0  0  0  0
 18 19  2  0  0  0  0
 19 24  1  0  0  0  0
 19 25  1  0  0  0  0
 20 21  1  1  0  0  0
 20 23  1  0  0  0  0
 21 27  1  0  0  0  0
 22 25  2  0  0  0  0
 23 26  1  0  0  0  0
 24 29  1  0  0  0  0
 27 28  2  3  0  0  0
 28 30  1  0  0  0  0
M  END
$$$$

 OpenBabel10082411353D

 19 19  0  0  0  0  0  0  0  0999 V2000
    8.0839    8.8860  -12.2561 C   0  0  0  0  0  0  0  0  0  0  0  0
    8.8273    7.7579  -12.2078 C   0  0  1  0  0  0  0  0  0  0  0  0
   10.1224    7.6608  -11.7635 C   0  0  0  0  0  0  0  0  0  0  0  0
    8.0207    6.6286  -11.5139 C   0  0  0  0  0  0  0  0  0  0  0  0
   10.3983    7.6617  -10.4085 C   0  0  0  0  0  0  0  0  0  0  0  0
   11.1796    7.3921  -12.6684 C   0  0  0  0  0  0  0  0  0  0  0  0
   11.7852    7.6560   -9.9808 C   0  0  0  0  0  0  0  0  0  0  0  0
    7.6417    5.4729  -12.5527 C   0  0  0  0  0  0  0  0  0  0  0  0
    6.4084    5.1570  -12.4330 C   0  0  0  0  0  0  0  0  0  0  0  0
   12.5068    7.3608  -12.2820 C   0  0  0  0  0  0  0  0  0  0  0  0
   12.0871    7.7355   -8.5565 C   0  0  0  0  0  0  0  0  0  0  0  0
    6.2013    3.7420  -13.0865 C   0  0  0  0  0  0  0  0  0  0  0  0
   12.7831    7.4995  -10.9693 C   0  0  0  0  0  0  0  0  0  0  0  0
   10.9919    8.0814   -7.6989 C   0  0  1  0  0  0  0  0  0  0  0  0
   10.7921    7.0977   -6.6776 C   0  0  0  0  0  0  0  0  0  0  0  0
    9.5590    6.7400   -6.3045 C   0  0  0  0  0  0  0  0  0  0  0  0
   11.1719    9.4660   -6.9685 C   0  0  0  0  0  0  0  0  0  0  0  0
   12.1622    9.5625   -6.0056 C   0  0  0  0  0  0  0  0  0  0  0  0
    8.5655    6.8206   -7.3881 O   0  0  0  0  0  0  0  0  0  0  0  0
  2  1  1  1  0  0  0
  2  3  1  0  0  0  0
  2  4  1  0  0  0  0
  3  5  1  0  0  0  0
  3  6  2  0  0  0  0
  4  8  1  0  0  0  0
  5  7  2  0  0  0  0
  6 10  1  0  0  0  0
  7 11  1  0  0  0  0
  7 13  1  0  0  0  0
  8  9  1  0  0  0  0
  9 12  1  0  0  0  0
 10 13  2  0  0  0  0
 14 11  1  1  0  0  0
 14 15  1  0  0  0  0
 14 17  1  0  0  0  0
 15 16  1  0  0  0  0
 16 19  1  0  0  0  0
 17 18  1  0  0  0  0
M  END
$$$$

 OpenBabel10082411353D

 30 33  0  0  0  0  0  0  0  0999 V2000
   12.7863    7.8241  -14.2109 C   0  0  0  0  0  0  0  0  0  0  0  0
   12.4233    7.7158  -13.0289 C   0  0  0  0  0  0  0  0  0  0  0  0
   12.9219    8.1949  -11.8668 C   0  0  0  0  0  0  0  0  0  0  0  0
   11.4275    6.6086  -12.7931 C   0  0  0  0  0  0  0  0  0  0  0  0
   10.3411    6.8404  -12.0679 C   0  0  0  0  0  0  0  0  0  0  0  0
   10.7226    7.4332  -10.7281 C   0  0  0  0  0  0  0  0  0  0  0  0
    9.0684    5.8539  -11.9851 C   0  0  0  0  0  0  0  0  0  0  0  0
    9.8080    7.4062   -9.6015 C   0  0  1  0  0  0  0  0  0  0  0  0
   11.9300    8.1400  -10.6702 C   0  0  0  0  0  0  0  0  0  0  0  0
   11.0289    6.0120  -14.2884 C   0  0  0  0  0  0  0  0  0  0  0  0
    9.9681    6.1425   -8.6941 C   0  0  0  0  0  0  0  0  0  0  0  0
   11.9646    6.5393  -15.2778 C   0  0  0  0  0  0  0  0  0  0  0  0
    9.7799    8.6458   -8.9051 C   0  0  0  0  0  0  0  0  0  0  0  0
   10.3186    4.8592  -14.6682 C   0  0  0  0  0  0  0  0  0  0  0  0
   10.2572    3.7867  -13.8865 C   0  0  1  0  0  0  0  0  0  0  0  0
    8.1840    6.1529  -12.9802 C   0  0  0  0  0  0  0  0  0  0  0  0
    8.9788    2.9888  -13.9279 C   0  0  0  0  0  0  0  0  0  0  0  0
   10.5404    8.5651   -7.5433 C   0  0  0  0  0  0  0  0  0  0  0  0
    9.1252    1.6963  -14.1301 O   0  0  0  0  0  0  0  0  0  0  0  0
    6.8473    5.4043  -12.6964 C   0  0  0  0  0  0  0  0  0  0  0  0
    7.8908    3.5177  -13.7211 N   0  0  0  0  0  0  0  0  0  0  0  0
   10.1332    7.5210   -6.6089 C   0  0  1  0  0  0  0  0  0  0  0  0
   11.5194    2.8993  -13.9918 C   0  0  0  0  0  0  0  0  0  0  0  0
   10.0708    6.2280   -7.2683 C   0  0  0  0  0  0  0  0  0  0  0  0
   11.1522    7.4502   -5.4668 C   0  0  0  0  0  0  0  0  0  0  0  0
    7.0710    3.6888  -12.6852 C   0  0  0  0  0  0  0  0  0  0  0  0
    8.8634    7.9716   -5.8899 C   0  0  0  0  0  0  0  0  0  0  0  0
   11.6672    8.7295   -5.0477 C   0  0  0  0  0  0  0  0  0  0  0  0
   10.8441    9.5413   -4.4642 O   0  0  0  0  0  0  0  0  0  0  0  0
   12.8600    9.2622   -5.5257 C   0  0  0  0  0  0  0  0  0  0  0  0
  1  2  1  0  0  0  0
  1 12  1  0  0  0  0
  2  3  1  0  0  0  0
  2  4  2  0  0  0  0
  3  9  2  0  0  0  0
  4  5  1  0  0  0  0
  4 10  1  0  0  0  0
  5  6  2  0  0  0  0
  5  7  1  0  0  0  0
  6  9  1  0  0  0  0
  7 16  1  0  0  0  0
  8  6  1  6  0  0  0
  8 11  1  0  0  0  0
  8 13  1  0  0  0  0
 10 12  2  0  0  0  0
 10 14  1  0  0  0  0
 11 24  1  0  0  0  0
 13 18  1  0  0  0  0
 14 15  1  0  0  0  0
 15 17  1  0  0  0  0
 15 23  1  6  0  0  0
 16 20  1  0  0  0  0
 17 19  2  0  0  0  0
 17 21  1  0  0  0  0
 18 22  1  0  0  0  0
 20 26  1  0  0  0  0
 21 26  1  0  0  0  0
 22 24  1  0  0  0  0
 22 25  1  0  0  0  0
 22 27  1  1  0  0  0
 25 28  1  0  0  0  0
 28 29  2  0  0  0  0
 28 30  1  0  0  0  0
M  END
$$$$

 OpenBabel10082411353D

 30 33  0  0  0  0  0  0  0  0999 V2000
   12.7863    7.8241  -14.2109 C   0  0  0  0  0  0  0  0  0  0  0  0
   12.4233    7.7158  -13.0289 C   0  0  0  0  0  0  0  0  0  0  0  0
   12.9219    8.1949  -11.8668 C   0  0  0  0  0  0  0  0  0  0  0  0
   11.4275    6.6086  -12.7931 C   0  0  0  0  0  0  0  0  0  0  0  0
   10.3411    6.8404  -12.0679 C   0  0  0  0  0  0  0  0  0  0  0  0
   10.7226    7.4332  -10.7281 C   0  0  0  0  0  0  0  0  0  0  0  0
    9.0684    5.8539  -11.9851 C   0  0  0  0  0  0  0  0  0  0  0  0
    9.8080    7.4062   -9.6015 C   0  0  0  0  0  0  0  0  0  0  0  0
   11.9300    8.1400  -10.6702 C   0  0  0  0  0  0  0  0  0  0  0  0
   11.0289    6.0120  -14.2884 C   0  0  0  0  0  0  0  0  0  0  0  0
    9.9681    6.1425   -8.6941 C   0  0  0  0  0  0  0  0  0  0  0  0
    7.9946    6.5885  -12.1474 C   0  0  0  0  0  0  0  0  0  0  0  0
   10.2822    6.4890   -7.2771 C   0  0  0  0  0  0  0  0  0  0  0  0
   11.5540    6.8919   -6.8963 C   0  0  0  0  0  0  0  0  0  0  0  0
   11.8977    7.2299   -5.5785 C   0  0  0  0  0  0  0  0  0  0  0  0
   11.9395    6.5440  -15.2769 C   0  0  0  0  0  0  0  0  0  0  0  0
    6.8195    5.8154  -12.4332 C   0  0  0  0  0  0  0  0  0  0  0  0
    8.9573    4.5198  -11.6521 C   0  0  0  0  0  0  0  0  0  0  0  0
   11.8306    6.3760   -4.6325 C   0  0  0  0  0  0  0  0  0  0  0  0
    7.8819    8.0369  -12.3720 C   0  0  0  0  0  0  0  0  0  0  0  0
   12.1642    8.6584   -5.1055 C   0  0  0  0  0  0  0  0  0  0  0  0
    7.9185    3.8417  -11.9106 C   0  0  0  0  0  0  0  0  0  0  0  0
    6.5706    8.5634  -12.6952 C   0  0  0  0  0  0  0  0  0  0  0  0
   12.0905    9.8590   -6.2387 C   0  0  0  0  0  0  0  0  0  0  0  0
    7.8369    2.4532  -11.6125 O   0  0  0  0  0  0  0  0  0  0  0  0
   12.4213    8.9840   -3.8437 C   0  0  0  0  0  0  0  0  0  0  0  0
   12.4967    7.8170   -2.8781 C   0  0  0  0  0  0  0  0  0  0  0  0
    7.3121    1.6673  -12.5314 C   0  0  0  0  0  0  0  0  0  0  0  0
   12.2510    6.5930   -3.2838 C   0  0  0  0  0  0  0  0  0  0  0  0
    6.6732    4.4625  -12.1645 C   0  0  0  0  0  0  0  0  0  0  0  0
  1  2  1  0  0  0  0
  1 16  1  0  0  0  0
  2  3  1  0  0  0  0
  2  4  2  0  0  0  0
  3  9  2  0  0  0  0
  4  5  1  0  0  0  0
  4 10  1  0  0  0  0
  5  6  2  0  0  0  0
  5  7  1  0  0  0  0
  6  8  1  0  0  0  0
  6  9  1  0  0  0  0
  7 12  1  0  0  0  0
  7 18  2  0  0  0  0
  8 11  1  0  0  0  0
 10 16  1  0  0  0  0
 11 13  1  0  0  0  0
 12 17  2  0  0  0  0
 12 20  1  0  0  0  0
 13 14  2  3  0  0  0
 14 15  1  0  0  0  0
 15 19  2  0  0  0  0
 15 21  1  0  0  0  0
 17 30  1  0  0  0  0
 18 22  1  0  0  0  0
 19 29  1  0  0  0  0
 20 23  1  0  0  0  0
 21 24  1  0  0  0  0
 21 26  2  0  0  0  0
 22 25  1  0  0  0  0
 22 30  2  0  0  0  0
 25 28  1  0  0  0  0
 26 27  1  0  0  0  0
 27 29  2  0  0  0  0
M  END
$$$$

 OpenBabel10082411353D

 30 33  0  0  0  0  0  0  0  0999 V2000
   12.8881    8.7759   -3.5681 C   0  0  0  0  0  0  0  0  0  0  0  0
   11.9416    9.4732   -4.1220 C   0  0  0  0  0  0  0  0  0  0  0  0
   12.3556    7.6012   -2.6527 C   0  0  0  0  0  0  0  0  0  0  0  0
   11.8805    9.3400   -5.6557 C   0  0  0  0  0  0  0  0  0  0  0  0
   11.7716    6.5414   -3.3821 C   0  0  0  0  0  0  0  0  0  0  0  0
   10.8523    8.6585   -6.3310 C   0  0  0  0  0  0  0  0  0  0  0  0
   11.1142    8.2520   -7.7289 C   0  0  0  0  0  0  0  0  0  0  0  0
   10.0478    7.6568   -8.4887 C   0  0  0  0  0  0  0  0  0  0  0  0
   12.3648    8.4339   -8.3703 C   0  0  0  0  0  0  0  0  0  0  0  0
   12.6142    8.1352   -9.7322 C   0  0  0  0  0  0  0  0  0  0  0  0
   10.2852    7.3833   -9.9138 C   0  0  0  0  0  0  0  0  0  0  0  0
   11.5161    7.5808  -10.4860 C   0  0  0  0  0  0  0  0  0  0  0  0
   11.6641    7.2285  -11.8174 O   0  0  0  0  0  0  0  0  0  0  0  0
   10.8624    6.4419  -12.4395 C   0  0  0  0  0  0  0  0  0  0  0  0
   11.2693    5.8267  -13.4966 C   0  0  0  0  0  0  0  0  0  0  0  0
   10.3973    4.9870  -14.3057 C   0  0  0  0  0  0  0  0  0  0  0  0
   12.6295    5.9759  -14.0650 O   0  0  0  0  0  0  0  0  0  0  0  0
   10.8956    4.1934  -15.4489 C   0  0  0  0  0  0  0  0  0  0  0  0
    9.2617    4.6689  -13.8393 C   0  0  0  0  0  0  0  0  0  0  0  0
    9.1278    6.8012  -10.5958 C   0  0  0  0  0  0  0  0  0  0  0  0
    9.5642    6.1571  -11.9260 C   0  0  0  0  0  0  0  0  0  0  0  0
   12.7502    6.6186  -15.2675 C   0  0  0  0  0  0  0  0  0  0  0  0
    8.7679    5.3208  -12.5840 C   0  0  0  0  0  0  0  0  0  0  0  0
    7.2049    4.9098  -12.1268 C   0  0  0  0  0  0  0  0  0  0  0  0
   11.8839    3.2133  -15.1799 C   0  0  0  0  0  0  0  0  0  0  0  0
    9.7914    3.6329  -16.2977 C   0  0  0  0  0  0  0  0  0  0  0  0
    9.8702    2.1629  -16.0756 C   0  0  0  0  0  0  0  0  0  0  0  0
   11.3108    1.8896  -15.7321 C   0  0  0  0  0  0  0  0  0  0  0  0
    6.4032    5.7339  -12.6503 C   0  0  0  0  0  0  0  0  0  0  0  0
    7.0197    3.4495  -12.6956 C   0  0  0  0  0  0  0  0  0  0  0  0
  1  2  1  0  0  0  0
  1  3  1  0  0  0  0
  2  4  1  0  0  0  0
  3  5  1  0  0  0  0
  4  6  1  0  0  0  0
  6  7  1  0  0  0  0
  7  8  1  0  0  0  0
  7  9  2  0  0  0  0
  8 11  2  0  0  0  0
  9 10  1  0  0  0  0
 10 12  2  0  0  0  0
 11 12  1  0  0  0  0
 11 20  1  0  0  0  0
 12 13  1  0  0  0  0
 13 14  1  0  0  0  0
 14 15  2  0  0  0  0
 14 21  1  0  0  0  0
 15 16  1  0  0  0  0
 15 17  1  0  0  0  0
 16 18  1  0  0  0  0
 16 19  2  0  0  0  0
 17 22  1  0  0  0  0
 18 25  1  0  0  0  0
 18 26  1  0  0  0  0
 19 23  1  0  0  0  0
 20 21  1  0  0  0  0
 21 23  2  0  0  0  0
 23 24  1  0  0  0  0
 24 29  1  0  0  0  0
 24 30  1  0  0  0  0
 25 28  1  0  0  0  0
 26 27  1  0  0  0  0
 27 28  1  0  0  0  0
M  END
$$$$

 OpenBabel10082411353D

 30 33  0  0  0  0  0  0  0  0999 V2000
   12.7863    7.8241  -14.2109 C   0  0  0  0  0  0  0  0  0  0  0  0
   12.4233    7.7158  -13.0289 C   0  0  0  0  0  0  0  0  0  0  0  0
   12.9219    8.1949  -11.8668 C   0  0  0  0  0  0  0  0  0  0  0  0
   11.4275    6.6086  -12.7931 C   0  0  0  0  0  0  0  0  0  0  0  0
   10.3411    6.8404  -12.0679 C   0  0  0  0  0  0  0  0  0  0  0  0
   10.7226    7.4332  -10.7281 C   0  0  0  0  0  0  0  0  0  0  0  0
    9.0684    5.8539  -11.9851 C   0  0  0  0  0  0  0  0  0  0  0  0
    9.8080    7.4062   -9.6015 C   0  0  0  0  0  0  0  0  0  0  0  0
   11.9300    8.1400  -10.6702 C   0  0  0  0  0  0  0  0  0  0  0  0
   11.0289    6.0120  -14.2884 C   0  0  1  0  0  0  0  0  0  0  0  0
    9.9681    6.1425   -8.6941 C   0  0  0  0  0  0  0  0  0  0  0  0
    7.9946    6.5885  -12.1474 C   0  0  0  0  0  0  0  0  0  0  0  0
   10.2822    6.4890   -7.2771 C   0  0  0  0  0  0  0  0  0  0  0  0
   11.5540    6.8919   -6.8963 C   0  0  0  0  0  0  0  0  0  0  0  0
   11.8977    7.2299   -5.5785 C   0  0  0  0  0  0  0  0  0  0  0  0
   11.9395    6.5440  -15.2769 C   0  0  0  0  0  0  0  0  0  0  0  0
    6.8195    5.8154  -12.4332 C   0  0  0  0  0  0  0  0  0  0  0  0
    8.9573    4.5198  -11.6521 C   0  0  0  0  0  0  0  0  0  0  0  0
   11.8306    6.3760   -4.6325 C   0  0  0  0  0  0  0  0  0  0  0  0
    7.8819    8.0369  -12.3720 C   0  0  0  0  0  0  0  0  0  0  0  0
    7.9167    3.8403  -11.9170 C   0  0  0  0  0  0  0  0  0  0  0  0
    6.8454    4.4501  -12.1858 C   0  0  0  0  0  0  0  0  0  0  0  0
   11.1077    4.5260  -14.4287 C   0  0  0  0  0  0  0  0  0  0  0  0
   12.1634    8.6574   -5.1361 C   0  0  0  0  0  0  0  0  0  0  0  0
   12.1699    6.6825   -3.2626 C   0  0  0  0  0  0  0  0  0  0  0  0
   10.3720    3.6729  -14.1530 O   0  0  0  0  0  0  0  0  0  0  0  0
    5.3607    3.4990  -12.4544 Cl  0  0  0  0  0  0  0  0  0  0  0  0
   12.4458    9.0177   -3.8861 C   0  0  0  0  0  0  0  0  0  0  0  0
   12.2661    4.1226  -15.2219 O   0  0  0  0  0  0  0  0  0  0  0  0
   12.4605    8.0080   -2.7778 C   0  0  0  0  0  0  0  0  0  0  0  0
  1  2  1  0  0  0  0
  1 16  1  0  0  0  0
  2  3  1  0  0  0  0
  2  4  2  0  0  0  0
  3  9  2  0  0  0  0
  4  5  1  0  0  0  0
  4 10  1  0  0  0  0
  5  6  2  0  0  0  0
  5  7  1  0  0  0  0
  6  8  1  0  0  0  0
  6  9  1  0  0  0  0
  7 12  1  0  0  0  0
  7 18  2  0  0  0  0
  8 11  1  0  0  0  0
 10 16  1  0  0  0  0
 10 23  1  1  0  0  0
 11 13  1  0  0  0  0
 12 17  2  0  0  0  0
 12 20  1  0  0  0  0
 13 14  2  3  0  0  0
 14 15  1  0  0  0  0
 15 19  2  0  0  0  0
 15 24  1  0  0  0  0
 17 22  1  0  0  0  0
 18 21  1  0  0  0  0
 19 25  1  0  0  0  0
 21 22  2  0  0  0  0
 22 27  1  0  0  0  0
 23 26  2  0  0  0  0
 23 29  1  0  0  0  0
 24 28  2  0  0  0  0
 25 30  2  0  0  0  0
 28 30  1  0  0  0  0
M  END
$$$$

 OpenBabel10082411353D

 30 32  0  0  0  0  0  0  0  0999 V2000
   10.9951    9.9694   -4.9946 C   0  0  0  0  0  0  0  0  0  0  0  0
   11.7938    9.3762   -4.2463 C   0  0  0  0  0  0  0  0  0  0  0  0
   10.8673    9.4548   -6.4276 C   0  0  0  0  0  0  0  0  0  0  0  0
   11.6576    7.9117   -4.2944 C   0  0  0  0  0  0  0  0  0  0  0  0
   10.5498    8.0257   -6.4521 C   0  0  0  0  0  0  0  0  0  0  0  0
   11.4715    7.2752   -5.6166 C   0  0  0  0  0  0  0  0  0  0  0  0
   10.5840    7.5390   -7.9254 C   0  0  0  0  0  0  0  0  0  0  0  0
   11.4612    8.1494   -8.8322 C   0  0  0  0  0  0  0  0  0  0  0  0
   12.6250    8.6294   -8.4338 O   0  0  0  0  0  0  0  0  0  0  0  0
   11.0835    8.4395  -10.0740 O   0  0  0  0  0  0  0  0  0  0  0  0
   11.2938    7.5612  -11.0769 C   0  0  0  0  0  0  0  0  0  0  0  0
   10.1547    7.2525  -11.9492 C   0  0  0  0  0  0  0  0  0  0  0  0
   10.4293    6.5622  -13.1348 C   0  0  0  0  0  0  0  0  0  0  0  0
   11.7295    6.4217  -13.6243 C   0  0  0  0  0  0  0  0  0  0  0  0
    8.8120    7.3918  -11.4649 C   0  0  0  0  0  0  0  0  0  0  0  0
   12.5351    7.8894  -11.6869 C   0  0  0  0  0  0  0  0  0  0  0  0
   13.5778    8.4243  -10.9673 O   0  0  0  0  0  0  0  0  0  0  0  0
    7.7211    7.1761  -12.4323 C   0  0  0  0  0  0  0  0  0  0  0  0
   12.8103    7.0723  -12.8897 C   0  0  0  0  0  0  0  0  0  0  0  0
   12.0436    5.6071  -14.9340 C   0  0  0  0  0  0  0  0  0  0  0  0
    7.0836    5.9395  -12.4265 C   0  0  0  0  0  0  0  0  0  0  0  0
   12.2310    6.2743  -15.9354 C   0  0  0  0  0  0  0  0  0  0  0  0
   12.2496    7.7239  -16.0557 F   0  0  0  0  0  0  0  0  0  0  0  0
   11.7598    4.2504  -14.7384 C   0  0  1  0  0  0  0  0  0  0  0  0
    6.7677    8.3475  -12.4302 C   0  0  0  0  0  0  0  0  0  0  0  0
   11.3528    3.4847  -13.5789 C   0  0  0  0  0  0  0  0  0  0  0  0
   10.4459    2.3495  -13.9548 C   0  0  0  0  0  0  0  0  0  0  0  0
   10.2500    2.3906  -15.3245 N   0  0  0  0  0  0  0  0  0  0  0  0
    9.3522    1.6753  -16.0863 C   0  0  0  0  0  0  0  0  0  0  0  0
   11.0319    3.5477  -15.8392 C   0  0  0  0  0  0  0  0  0  0  0  0
  1  2  1  0  0  0  0
  1  3  1  0  0  0  0
  2  4  1  0  0  0  0
  3  5  1  0  0  0  0
  4  6  1  0  0  0  0
  5  6  1  0  0  0  0
  5  7  1  0  0  0  0
  7  8  1  0  0  0  0
  8  9  2  0  0  0  0
  8 10  1  0  0  0  0
 10 11  1  0  0  0  0
 11 12  1  0  0  0  0
 11 16  2  0  0  0  0
 12 13  2  0  0  0  0
 12 15  1  0  0  0  0
 13 14  1  0  0  0  0
 14 19  2  0  0  0  0
 14 20  1  0  0  0  0
 15 18  1  0  0  0  0
 16 17  1  0  0  0  0
 16 19  1  0  0  0  0
 18 21  1  0  0  0  0
 18 25  1  0  0  0  0
 20 22  2  3  0  0  0
 22 23  1  0  0  0  0
 24 20  1  1  0  0  0
 24 26  1  0  0  0  0
 24 30  1  0  0  0  0
 26 27  1  0  0  0  0
 27 28  1  0  0  0  0
 28 29  1  0  0  0  0
 28 30  1  0  0  0  0
M  END
$$$$

 OpenBabel10082411353D

 30 32  0  0  0  0  0  0  0  0999 V2000
   13.2485    9.2493   -6.3668 O   0  0  0  0  0  0  0  0  0  0  0  0
   12.3055    9.1779   -7.4488 C   0  0  1  0  0  0  0  0  0  0  0  0
   12.5005    8.1033   -8.2440 C   0  0  0  0  0  0  0  0  0  0  0  0
   11.7072    8.0925   -9.4886 C   0  0  0  0  0  0  0  0  0  0  0  0
   12.2659    7.9483  -10.6668 C   0  0  0  0  0  0  0  0  0  0  0  0
   10.2869    8.0426   -9.4299 C   0  0  0  0  0  0  0  0  0  0  0  0
   13.6482    8.0497  -10.9162 O   0  0  0  0  0  0  0  0  0  0  0  0
   11.5356    7.8148  -11.9199 C   0  0  0  0  0  0  0  0  0  0  0  0
   12.2597    7.6523  -13.1838 C   0  0  0  0  0  0  0  0  0  0  0  0
    9.5345    7.8388  -10.6476 C   0  0  0  0  0  0  0  0  0  0  0  0
   12.7796    8.4277  -13.7325 O   0  0  0  0  0  0  0  0  0  0  0  0
   10.1724    7.7406  -11.8577 C   0  0  0  0  0  0  0  0  0  0  0  0
   12.4765    6.3392  -13.7439 N   0  0  0  0  0  0  0  0  0  0  0  0
    9.2368    7.4770  -13.0161 C   0  0  1  0  0  0  0  0  0  0  0  0
    8.7686    6.0601  -13.0538 C   0  0  0  0  0  0  0  0  0  0  0  0
   11.7377    5.1496  -13.1887 C   0  0  0  0  0  0  0  0  0  0  0  0
   10.9893    9.0510   -6.5404 C   0  0  0  0  0  0  0  0  0  0  0  0
   11.2522    8.1647   -5.3854 C   0  0  2  0  0  0  0  0  0  0  0  0
    7.8881    5.4892  -12.2818 C   0  0  0  0  0  0  0  0  0  0  0  0
    8.1030    8.4511  -12.9051 C   0  0  0  0  0  0  0  0  0  0  0  0
   11.2726    4.1709  -14.3554 C   0  0  0  0  0  0  0  0  0  0  0  0
   12.7640    9.8841   -5.1669 C   0  0  0  0  0  0  0  0  0  0  0  0
   10.2020    7.3447   -4.8869 O   0  0  0  0  0  0  0  0  0  0  0  0
    9.2807    5.2234  -14.0940 C   0  0  0  0  0  0  0  0  0  0  0  0
    9.9511    4.1599  -14.4562 C   0  0  2  0  0  0  0  0  0  0  0  0
   11.8540    8.9171   -4.3609 C   0  0  0  0  0  0  0  0  0  0  0  0
    9.4020    2.9741  -13.9922 C   0  0  0  0  0  0  0  0  0  0  0  0
    8.0775    2.6860  -13.9460 O   0  0  0  0  0  0  0  0  0  0  0  0
   10.1005    1.9677  -13.6536 O   0  0  0  0  0  0  0  0  0  0  0  0
    7.5287    1.5445  -14.5353 C   0  0  0  0  0  0  0  0  0  0  0  0
  1  2  1  0  0  0  0
  1 22  1  0  0  0  0
  2  3  1  6  0  0  0
  2 17  1  0  0  0  0
  3  4  1  0  0  0  0
  4  5  1  0  0  0  0
  4  6  2  0  0  0  0
  5  7  1  0  0  0  0
  5  8  2  0  0  0  0
  6 10  1  0  0  0  0
  8  9  1  0  0  0  0
  8 12  1  0  0  0  0
  9 11  2  0  0  0  0
  9 13  1  0  0  0  0
 10 12  2  0  0  0  0
 12 14  1  0  0  0  0
 13 16  1  0  0  0  0
 14 15  1  0  0  0  0
 14 20  1  1  0  0  0
 15 19  1  0  0  0  0
 15 24  2  0  0  0  0
 16 21  1  0  0  0  0
 17 18  1  0  0  0  0
 18 23  1  1  0  0  0
 18 26  1  0  0  0  0
 21 25  1  0  0  0  0
 22 26  1  0  0  0  0
 24 25  1  0  0  0  0
 25 27  1  1  0  0  0
 27 28  1  0  0  0  0
 27 29  2  0  0  0  0
 28 30  1  0  0  0  0
M  END
$$$$

 OpenBabel10082411353D

 30 34  0  0  0  0  0  0  0  0999 V2000
   11.6836    6.0105   -4.8831 C   0  0  0  0  0  0  0  0  0  0  0  0
   11.1291    7.0732   -5.4395 C   0  0  0  0  0  0  0  0  0  0  0  0
   10.6954    7.0156   -6.8073 C   0  0  0  0  0  0  0  0  0  0  0  0
   10.2502    8.1187   -7.5536 C   0  0  2  0  0  0  0  0  0  0  0  0
   11.1205    8.4712   -4.9629 C   0  0  0  0  0  0  0  0  0  0  0  0
   10.8655    8.3511   -8.7960 C   0  0  0  0  0  0  0  0  0  0  0  0
   10.2922    7.8843   -9.9985 C   0  0  0  0  0  0  0  0  0  0  0  0
   10.4654    9.6993   -5.6120 C   0  0  0  0  0  0  0  0  0  0  0  0
   10.3510    9.5971   -7.0014 C   0  0  0  0  0  0  0  0  0  0  0  0
   12.2462    6.3351   -3.5020 C   0  0  0  0  0  0  0  0  0  0  0  0
   11.0471    7.5309  -11.1063 C   0  0  0  0  0  0  0  0  0  0  0  0
   11.7288    8.6923   -3.6518 C   0  0  0  0  0  0  0  0  0  0  0  0
   12.3991    7.7501  -11.1145 C   0  0  0  0  0  0  0  0  0  0  0  0
   12.3738    7.7580   -2.9599 C   0  0  0  0  0  0  0  0  0  0  0  0
   13.1285    8.5075  -10.1661 O   0  0  0  0  0  0  0  0  0  0  0  0
    9.0407    7.3775  -10.0973 N   0  0  0  0  0  0  0  0  0  0  0  0
    8.9787    6.9473  -11.4664 N   0  0  0  0  0  0  0  0  0  0  0  0
   13.1012    7.4459  -12.3707 C   0  0  0  0  0  0  0  0  0  0  0  0
   12.2395    6.9724  -13.2444 C   0  0  0  0  0  0  0  0  0  0  0  0
    7.7579    6.3689  -11.9282 C   0  0  0  0  0  0  0  0  0  0  0  0
    7.4759    5.0504  -11.8148 C   0  0  0  0  0  0  0  0  0  0  0  0
   12.9541    6.5945  -14.5510 O   0  0  0  0  0  0  0  0  0  0  0  0
   12.5717    5.3751  -15.0924 C   0  0  0  0  0  0  0  0  0  0  0  0
   10.2361    7.0379  -12.0113 C   0  0  0  0  0  0  0  0  0  0  0  0
    6.8832    7.1727  -12.5447 C   0  0  0  0  0  0  0  0  0  0  0  0
    7.1370    8.6858  -12.7249 C   0  0  0  0  0  0  0  0  0  0  0  0
   10.8584    6.6998  -13.2140 C   0  0  0  0  0  0  0  0  0  0  0  0
    6.4437    4.3887  -12.3729 C   0  0  0  0  0  0  0  0  0  0  0  0
    5.6110    5.4984  -13.1358 C   0  0  0  0  0  0  0  0  0  0  0  0
    5.8081    6.6776  -13.2022 C   0  0  0  0  0  0  0  0  0  0  0  0
  1  2  1  0  0  0  0
  1 10  2  0  0  0  0
  2  3  1  0  0  0  0
  2  5  2  0  0  0  0
  3  4  1  0  0  0  0
  4  6  1  6  0  0  0
  4  9  1  0  0  0  0
  5  8  1  0  0  0  0
  5 12  1  0  0  0  0
  6  7  1  0  0  0  0
  7 11  1  0  0  0  0
  7 16  2  0  0  0  0
  8  9  1  0  0  0  0
 10 14  1  0  0  0  0
 11 13  2  0  0  0  0
 11 24  1  0  0  0  0
 12 14  2  0  0  0  0
 13 15  1  0  0  0  0
 13 18  1  0  0  0  0
 16 17  1  0  0  0  0
 17 20  1  0  0  0  0
 17 24  1  0  0  0  0
 18 19  2  0  0  0  0
 19 22  1  0  0  0  0
 19 27  1  0  0  0  0
 20 21  1  0  0  0  0
 20 25  2  0  0  0  0
 21 28  2  0  0  0  0
 22 23  1  0  0  0  0
 24 27  2  0  0  0  0
 25 26  1  0  0  0  0
 25 30  1  0  0  0  0
 28 29  1  0  0  0  0
 29 30  2  0  0  0  0
M  END
$$$$

 OpenBabel10082411353D

 30 33  0  0  0  0  0  0  0  0999 V2000
   13.2379    9.0584   -7.2681 C   0  0  0  0  0  0  0  0  0  0  0  0
   12.9396    9.3022   -5.9810 C   0  0  0  0  0  0  0  0  0  0  0  0
   12.1602    8.6694   -7.9361 C   0  0  0  0  0  0  0  0  0  0  0  0
   14.0320    9.7504   -5.0711 F   0  0  0  0  0  0  0  0  0  0  0  0
   10.9536    8.4526   -7.1212 C   0  0  1  0  0  0  0  0  0  0  0  0
   12.1901    8.3365   -9.3972 C   0  0  0  0  0  0  0  0  0  0  0  0
   11.0443    7.8367  -10.0430 C   0  0  0  0  0  0  0  0  0  0  0  0
   11.0471    8.9348   -5.8250 C   0  0  1  0  0  0  0  0  0  0  0  0
    9.5270    7.9533   -7.4234 C   0  0  2  0  0  0  0  0  0  0  0  0
    9.7802    8.7666   -5.0086 F   0  0  0  0  0  0  0  0  0  0  0  0
   11.9790    9.3452   -5.1373 C   0  0  0  0  0  0  0  0  0  0  0  0
    9.1878    6.9159   -6.7141 C   0  0  0  0  0  0  0  0  0  0  0  0
   11.1576    7.5184  -11.4190 C   0  0  0  0  0  0  0  0  0  0  0  0
    9.8595    7.5543   -8.9986 C   0  0  1  0  0  0  0  0  0  0  0  0
    9.9779    6.9809  -11.9943 C   0  0  0  0  0  0  0  0  0  0  0  0
   10.1471    6.6534  -13.4127 C   0  0  0  0  0  0  0  0  0  0  0  0
   12.3591    7.4352  -12.0563 C   0  0  0  0  0  0  0  0  0  0  0  0
    8.5551    6.8980  -11.2951 C   0  0  0  0  0  0  0  0  0  0  0  0
   12.2421    7.1981  -13.3125 C   0  0  0  0  0  0  0  0  0  0  0  0
   11.2735    6.6870  -13.9872 C   0  0  0  0  0  0  0  0  0  0  0  0
    8.1020    6.3652   -7.0525 O   0  0  0  0  0  0  0  0  0  0  0  0
   11.5320    6.1869  -15.4842 C   0  0  0  0  0  0  0  0  0  0  0  0
   11.6397    4.8187  -15.5947 N   0  0  0  0  0  0  0  0  0  0  0  0
   11.7429    6.9569  -16.3970 O   0  0  0  0  0  0  0  0  0  0  0  0
    7.4751    7.1542  -12.0464 C   0  0  0  0  0  0  0  0  0  0  0  0
    8.2319    5.5999  -10.6213 C   0  0  0  0  0  0  0  0  0  0  0  0
    8.7160    7.9359  -10.1162 C   0  0  0  0  0  0  0  0  0  0  0  0
   11.9018    4.2049  -16.8308 C   0  0  0  0  0  0  0  0  0  0  0  0
   12.0069    3.9695  -14.3983 C   0  0  0  0  0  0  0  0  0  0  0  0
   10.9737    3.2448  -13.8625 C   0  0  0  0  0  0  0  0  0  0  0  0
  1  2  1  0  0  0  0
  1  3  2  0  0  0  0
  2  4  1  0  0  0  0
  2 11  2  0  0  0  0
  3  6  1  0  0  0  0
  5  3  1  6  0  0  0
  5  8  1  0  0  0  0
  5  9  1  0  0  0  0
  6  7  2  0  0  0  0
  7 13  1  0  0  0  0
  7 14  1  0  0  0  0
  8 10  1  1  0  0  0
  8 11  1  0  0  0  0
  9 12  1  1  0  0  0
  9 14  1  0  0  0  0
 12 21  1  0  0  0  0
 13 15  2  0  0  0  0
 13 17  1  0  0  0  0
 14 27  1  6  0  0  0
 15 16  1  0  0  0  0
 15 18  1  0  0  0  0
 16 20  2  0  0  0  0
 17 19  2  0  0  0  0
 18 25  1  0  0  0  0
 18 26  1  0  0  0  0
 18 27  1  0  0  0  0
 19 20  1  0  0  0  0
 20 22  1  0  0  0  0
 22 23  1  0  0  0  0
 22 24  2  0  0  0  0
 23 28  1  0  0  0  0
 23 29  1  0  0  0  0
 29 30  1  0  0  0  0
M  END
$$$$

 OpenBabel10082411353D

 30 32  0  0  0  0  0  0  0  0999 V2000
   13.4846    9.3979   -5.2029 C   0  0  0  0  0  0  0  0  0  0  0  0
   12.7871    9.3913   -6.3118 C   0  0  0  0  0  0  0  0  0  0  0  0
   11.3648    9.1424   -6.2947 C   0  0  0  0  0  0  0  0  0  0  0  0
   10.8726    9.0146   -5.0034 C   0  0  0  0  0  0  0  0  0  0  0  0
    9.3815    8.7865   -5.0373 F   0  0  0  0  0  0  0  0  0  0  0  0
   11.4703    9.0293   -3.8455 C   0  0  0  0  0  0  0  0  0  0  0  0
   10.7697    8.8716   -2.6325 F   0  0  0  0  0  0  0  0  0  0  0  0
   12.8710    9.2169   -3.9429 C   0  0  0  0  0  0  0  0  0  0  0  0
   10.4781    9.1384   -7.6682 C   0  0  0  0  0  0  0  0  0  0  0  0
   11.1390    9.1306   -8.8047 C   0  0  0  0  0  0  0  0  0  0  0  0
   10.8705    7.9638   -9.7397 C   0  0  0  0  0  0  0  0  0  0  0  0
   10.2908    8.0632  -10.8488 C   0  0  0  0  0  0  0  0  0  0  0  0
   10.4238    7.0375  -11.8282 C   0  0  0  0  0  0  0  0  0  0  0  0
    9.2433    8.9518  -11.2558 C   0  0  0  0  0  0  0  0  0  0  0  0
    8.5277    8.8707  -12.4031 C   0  0  0  0  0  0  0  0  0  0  0  0
    7.4469    9.8411  -12.5572 F   0  0  0  0  0  0  0  0  0  0  0  0
   11.4744    6.0391  -11.5746 F   0  0  0  0  0  0  0  0  0  0  0  0
    9.6702    6.8214  -12.9317 C   0  0  0  0  0  0  0  0  0  0  0  0
    8.6799    7.7103  -13.1556 C   0  0  0  0  0  0  0  0  0  0  0  0
    9.9658    5.5226  -13.9106 S   0  0  0  0  0  0  0  0  0  0  0  0
    9.5522    4.2345  -13.3909 N   0  0  0  0  0  0  0  0  0  0  0  0
    9.7602    2.9612  -13.9582 C   0  0  0  0  0  0  0  0  0  0  0  0
    8.8435    4.2192  -12.1237 C   0  0  0  0  0  0  0  0  0  0  0  0
   11.5109    5.6069  -14.1681 O   0  0  0  0  0  0  0  0  0  0  0  0
    9.2770    5.7015  -15.2294 O   0  0  0  0  0  0  0  0  0  0  0  0
    8.6976    2.2859  -14.4159 C   0  0  0  0  0  0  0  0  0  0  0  0
    8.8720    1.0249  -15.0373 C   0  0  0  0  0  0  0  0  0  0  0  0
   11.0385    2.3975  -13.9500 C   0  0  0  0  0  0  0  0  0  0  0  0
   10.1516    0.4891  -15.0796 C   0  0  0  0  0  0  0  0  0  0  0  0
   11.1780    1.2534  -14.6077 C   0  0  0  0  0  0  0  0  0  0  0  0
  1  2  1  0  0  0  0
  1  8  2  0  0  0  0
  2  3  2  0  0  0  0
  3  4  1  0  0  0  0
  3  9  1  0  0  0  0
  4  5  1  0  0  0  0
  4  6  2  0  0  0  0
  6  7  1  0  0  0  0
  6  8  1  0  0  0  0
  9 10  1  0  0  0  0
 10 11  1  0  0  0  0
 11 12  1  0  0  0  0
 12 13  2  0  0  0  0
 12 14  1  0  0  0  0
 13 17  1  0  0  0  0
 13 18  1  0  0  0  0
 14 15  2  0  0  0  0
 15 16  1  0  0  0  0
 15 19  1  0  0  0  0
 18 19  2  0  0  0  0
 18 20  1  0  0  0  0
 20 21  1  0  0  0  0
 20 24  2  0  0  0  0
 20 25  2  0  0  0  0
 21 22  1  0  0  0  0
 21 23  1  0  0  0  0
 22 26  2  0  0  0  0
 22 28  1  0  0  0  0
 26 27  1  0  0  0  0
 27 29  2  0  0  0  0
 28 30  2  0  0  0  0
 29 30  1  0  0  0  0
M  END
$$$$

 OpenBabel10082411353D

 30 35  0  0  0  0  0  0  0  0999 V2000
   11.6836    6.0105   -4.8831 C   0  0  0  0  0  0  0  0  0  0  0  0
   11.9279    6.9038   -3.8792 C   0  0  0  0  0  0  0  0  0  0  0  0
   11.9719    8.3126   -4.1286 C   0  0  0  0  0  0  0  0  0  0  0  0
   11.3811    6.5964   -6.0845 C   0  0  0  0  0  0  0  0  0  0  0  0
   11.0420    5.6445   -7.1434 C   0  0  1  0  0  0  0  0  0  0  0  0
   11.3536    7.9055   -6.3870 C   0  0  0  0  0  0  0  0  0  0  0  0
    9.8569    4.8089   -7.0560 C   0  0  0  0  0  0  0  0  0  0  0  0
   11.5991    8.8196   -5.3527 C   0  0  0  0  0  0  0  0  0  0  0  0
   11.5316   10.2233   -5.5794 F   0  0  0  0  0  0  0  0  0  0  0  0
   10.9798    8.5285   -7.6795 C   0  0  0  0  0  0  0  0  0  0  0  0
   10.6556    6.3745   -8.5461 C   0  0  0  0  0  0  0  0  0  0  0  0
    9.6410    3.9438   -8.1044 C   0  0  0  0  0  0  0  0  0  0  0  0
   11.0669    7.6169   -8.7871 N   0  0  0  0  0  0  0  0  0  0  0  0
    9.9214    5.7500   -9.4200 C   0  0  0  0  0  0  0  0  0  0  0  0
   12.1374    7.7991   -9.6010 C   0  0  0  0  0  0  0  0  0  0  0  0
   13.3966    8.0702   -9.2678 O   0  0  0  0  0  0  0  0  0  0  0  0
   11.9065    8.1067  -10.9940 C   0  0  0  0  0  0  0  0  0  0  0  0
   11.5891    6.9407  -11.8496 C   0  0  1  0  0  0  0  0  0  0  0  0
    9.6383    6.5905  -10.7511 C   0  0  0  0  0  0  0  0  0  0  0  0
   10.3417    6.3234  -11.9172 N   0  0  0  0  0  0  0  0  0  0  0  0
    9.1610    4.6231   -9.2679 C   0  0  0  0  0  0  0  0  0  0  0  0
   10.0460    5.1982  -12.4989 C   0  0  0  0  0  0  0  0  0  0  0  0
   10.8981    4.6542  -13.4877 C   0  0  0  0  0  0  0  0  0  0  0  0
   11.5282    5.4948  -14.3618 C   0  0  0  0  0  0  0  0  0  0  0  0
   10.9982    3.2780  -13.6504 C   0  0  0  0  0  0  0  0  0  0  0  0
    8.9396    4.6374  -12.2705 O   0  0  0  0  0  0  0  0  0  0  0  0
   11.8251    3.1162  -14.8542 C   0  0  0  0  0  0  0  0  0  0  0  0
   11.6079    6.8793  -14.2933 C   0  0  0  0  0  0  0  0  0  0  0  0
   12.3084    7.0060  -13.1918 C   0  0  0  0  0  0  0  0  0  0  0  0
   12.0154    4.6194  -15.4231 C   0  0  0  0  0  0  0  0  0  0  0  0
  1  2  1  0  0  0  0
  1  4  2  0  0  0  0
  2  3  2  0  0  0  0
  3  8  1  0  0  0  0
  4  5  1  0  0  0  0
  4  6  1  0  0  0  0
  5  7  1  1  0  0  0
  5 11  1  0  0  0  0
  6  8  2  0  0  0  0
  6 10  1  0  0  0  0
  7 12  1  0  0  0  0
  8  9  1  0  0  0  0
 10 13  1  0  0  0  0
 11 13  1  0  0  0  0
 11 14  2  0  0  0  0
 12 21  1  0  0  0  0
 13 15  1  0  0  0  0
 14 19  1  0  0  0  0
 14 21  1  0  0  0  0
 15 16  2  0  0  0  0
 15 17  1  0  0  0  0
 18 17  1  6  0  0  0
 18 20  1  0  0  0  0
 18 29  1  0  0  0  0
 19 20  1  0  0  0  0
 20 22  1  0  0  0  0
 22 23  1  0  0  0  0
 22 26  2  0  0  0  0
 23 24  1  0  0  0  0
 23 25  2  0  0  0  0
 24 28  1  0  0  0  0
 24 30  2  0  0  0  0
 25 27  1  0  0  0  0
 27 30  2  0  0  0  0
 28 29  1  0  0  0  0
M  END
$$$$

 OpenBabel10082411353D

 19 21  0  0  0  0  0  0  0  0999 V2000
   12.8881    8.7759   -3.5681 C   0  0  0  0  0  0  0  0  0  0  0  0
   11.9416    9.4732   -4.1220 C   0  0  0  0  0  0  0  0  0  0  0  0
   12.1782    9.3707   -5.6407 C   0  0  0  0  0  0  0  0  0  0  0  0
   11.3825    8.3447   -6.3966 C   0  0  0  0  0  0  0  0  0  0  0  0
   11.8188    8.0044   -7.6822 C   0  0  0  0  0  0  0  0  0  0  0  0
   10.3120    7.6600   -5.7120 C   0  0  0  0  0  0  0  0  0  0  0  0
   10.8678    7.0723   -8.2897 C   0  0  0  0  0  0  0  0  0  0  0  0
    9.5717    6.7245   -6.3809 C   0  0  0  0  0  0  0  0  0  0  0  0
    9.8820    6.4468   -7.7081 C   0  0  0  0  0  0  0  0  0  0  0  0
   11.2611    6.6953   -9.7105 C   0  0  1  0  0  0  0  0  0  0  0  0
   10.0425    6.5460  -10.5971 C   0  0  1  0  0  0  0  0  0  0  0  0
   11.8062    7.8130  -10.4883 C   0  0  0  0  0  0  0  0  0  0  0  0
    8.8746    5.5265   -8.4149 C   0  0  0  0  0  0  0  0  0  0  0  0
   13.1546    8.1022  -10.4049 O   0  0  0  0  0  0  0  0  0  0  0  0
    9.1479    5.5760   -9.8932 C   0  0  0  0  0  0  0  0  0  0  0  0
   11.0822    8.1985  -11.4331 O   0  0  0  0  0  0  0  0  0  0  0  0
    9.7882    7.8908  -10.8194 C   0  0  1  0  0  0  0  0  0  0  0  0
    8.6559    8.2348  -11.8559 C   0  0  0  0  0  0  0  0  0  0  0  0
    8.0011    9.2588  -11.8275 O   0  0  0  0  0  0  0  0  0  0  0  0
  1  2  1  0  0  0  0
  2  3  1  0  0  0  0
  3  4  1  0  0  0  0
  4  5  2  0  0  0  0
  4  6  1  0  0  0  0
  5  7  1  0  0  0  0
  6  8  2  0  0  0  0
  7  9  2  0  0  0  0
  8  9  1  0  0  0  0
  9 13  1  0  0  0  0
 10  7  1  1  0  0  0
 10 11  1  0  0  0  0
 10 12  1  0  0  0  0
 11 15  1  1  0  0  0
 11 17  1  0  0  0  0
 12 14  2  0  0  0  0
 12 16  1  0  0  0  0
 13 15  1  0  0  0  0
 16 17  1  0  0  0  0
 17 18  1  6  0  0  0
 18 19  1  0  0  0  0
M  END
$$$$

 OpenBabel10082411353D

 30 32  0  0  0  0  0  0  0  0999 V2000
   13.4846    9.3979   -5.2029 C   0  0  0  0  0  0  0  0  0  0  0  0
   12.7871    9.3913   -6.3118 C   0  0  0  0  0  0  0  0  0  0  0  0
   11.3648    9.1424   -6.2947 C   0  0  0  0  0  0  0  0  0  0  0  0
   10.8726    9.0146   -5.0034 C   0  0  0  0  0  0  0  0  0  0  0  0
    9.3815    8.7865   -5.0373 F   0  0  0  0  0  0  0  0  0  0  0  0
   11.4703    9.0293   -3.8455 C   0  0  0  0  0  0  0  0  0  0  0  0
   10.7697    8.8716   -2.6325 F   0  0  0  0  0  0  0  0  0  0  0  0
   12.8710    9.2169   -3.9429 C   0  0  0  0  0  0  0  0  0  0  0  0
   10.4781    9.1384   -7.6682 C   0  0  0  0  0  0  0  0  0  0  0  0
   11.1390    9.1306   -8.8047 C   0  0  0  0  0  0  0  0  0  0  0  0
   10.8705    7.9638   -9.7397 C   0  0  0  0  0  0  0  0  0  0  0  0
   10.2908    8.0632  -10.8488 C   0  0  0  0  0  0  0  0  0  0  0  0
   10.4238    7.0375  -11.8282 C   0  0  0  0  0  0  0  0  0  0  0  0
    9.2433    8.9518  -11.2558 C   0  0  0  0  0  0  0  0  0  0  0  0
    8.5277    8.8707  -12.4031 C   0  0  0  0  0  0  0  0  0  0  0  0
    7.4469    9.8411  -12.5572 F   0  0  0  0  0  0  0  0  0  0  0  0
    8.5235    7.7173  -13.1606 C   0  0  0  0  0  0  0  0  0  0  0  0
   11.3830    6.8673   -9.1997 O   0  0  0  0  0  0  0  0  0  0  0  0
    9.5899    6.8335  -12.9487 C   0  0  0  0  0  0  0  0  0  0  0  0
    9.7937    5.6972  -13.8884 C   0  0  0  0  0  0  0  0  0  0  0  0
    9.2954    4.5094  -13.5229 C   0  0  0  0  0  0  0  0  0  0  0  0
    9.5277    3.2996  -14.2292 C   0  0  0  0  0  0  0  0  0  0  0  0
   10.9179    5.6355  -14.6892 C   0  0  0  0  0  0  0  0  0  0  0  0
    8.1799    4.4821  -12.4188 C   0  0  0  0  0  0  0  0  0  0  0  0
    8.7952    2.1020  -14.0099 C   0  0  0  0  0  0  0  0  0  0  0  0
   11.2742    4.4163  -15.3610 C   0  0  0  0  0  0  0  0  0  0  0  0
    6.9126    4.4487  -12.4930 C   0  0  0  0  0  0  0  0  0  0  0  0
   10.6308    3.3166  -15.1390 C   0  0  0  0  0  0  0  0  0  0  0  0
    6.2923    4.3617  -13.7999 O   0  0  0  0  0  0  0  0  0  0  0  0
    5.9686    4.4295  -11.4442 C   0  0  0  0  0  0  0  0  0  0  0  0
  1  2  1  0  0  0  0
  1  8  2  0  0  0  0
  2  3  2  0  0  0  0
  3  4  1  0  0  0  0
  3  9  1  0  0  0  0
  4  5  1  0  0  0  0
  4  6  2  0  0  0  0
  6  7  1  0  0  0  0
  6  8  1  0  0  0  0
  9 10  1  0  0  0  0
 10 11  1  0  0  0  0
 11 12  1  0  0  0  0
 11 18  2  0  0  0  0
 12 13  2  0  0  0  0
 12 14  1  0  0  0  0
 13 19  1  0  0  0  0
 14 15  2  0  0  0  0
 15 16  1  0  0  0  0
 15 17  1  0  0  0  0
 17 19  2  0  0  0  0
 19 20  1  0  0  0  0
 20 21  1  0  0  0  0
 20 23  2  0  0  0  0
 21 22  2  0  0  0  0
 21 24  1  0  0  0  0
 22 25  1  0  0  0  0
 22 28  1  0  0  0  0
 23 26  1  0  0  0  0
 24 27  2  3  0  0  0
 26 28  2  0  0  0  0
 27 29  1  0  0  0  0
 27 30  1  0  0  0  0
M  END
$$$$

 OpenBabel10082411353D

 30 32  0  0  0  0  0  0  0  0999 V2000
   10.9951    9.9694   -4.9946 C   0  0  0  0  0  0  0  0  0  0  0  0
   11.7938    9.3762   -4.2463 C   0  0  0  0  0  0  0  0  0  0  0  0
   10.8673    9.4548   -6.4276 C   0  0  0  0  0  0  0  0  0  0  0  0
   11.6576    7.9117   -4.2944 C   0  0  0  0  0  0  0  0  0  0  0  0
   10.5498    8.0257   -6.4521 C   0  0  0  0  0  0  0  0  0  0  0  0
   11.4715    7.2752   -5.6166 C   0  0  0  0  0  0  0  0  0  0  0  0
   10.5840    7.5390   -7.9254 C   0  0  0  0  0  0  0  0  0  0  0  0
   11.4612    8.1494   -8.8322 C   0  0  0  0  0  0  0  0  0  0  0  0
   12.6250    8.6294   -8.4338 O   0  0  0  0  0  0  0  0  0  0  0  0
   11.0835    8.4395  -10.0740 O   0  0  0  0  0  0  0  0  0  0  0  0
   11.2938    7.5612  -11.0769 C   0  0  0  0  0  0  0  0  0  0  0  0
   10.1547    7.2525  -11.9492 C   0  0  0  0  0  0  0  0  0  0  0  0
   10.4293    6.5622  -13.1348 C   0  0  0  0  0  0  0  0  0  0  0  0
   11.7295    6.4217  -13.6243 C   0  0  0  0  0  0  0  0  0  0  0  0
    8.8120    7.3918  -11.4649 C   0  0  0  0  0  0  0  0  0  0  0  0
   12.5351    7.8894  -11.6869 C   0  0  0  0  0  0  0  0  0  0  0  0
   13.5778    8.4243  -10.9673 O   0  0  0  0  0  0  0  0  0  0  0  0
    7.7211    7.1761  -12.4323 C   0  0  0  0  0  0  0  0  0  0  0  0
   12.8103    7.0723  -12.8897 C   0  0  0  0  0  0  0  0  0  0  0  0
    7.0543    5.9667  -12.3369 C   0  0  0  0  0  0  0  0  0  0  0  0
    7.2392    8.1844  -13.1320 C   0  0  0  0  0  0  0  0  0  0  0  0
   12.0288    5.6463  -14.9695 C   0  0  0  0  0  0  0  0  0  0  0  0
    6.4764    5.5077  -13.4785 O   0  0  0  0  0  0  0  0  0  0  0  0
    7.1052    5.2025  -11.3444 O   0  0  0  0  0  0  0  0  0  0  0  0
   12.3034    6.3506  -15.9502 C   0  0  0  0  0  0  0  0  0  0  0  0
   12.4972    5.4594  -17.1574 N   0  0  0  0  0  0  0  0  0  0  0  0
   12.1848    4.2463  -16.7288 C   0  0  0  0  0  0  0  0  0  0  0  0
   11.9090    4.3251  -15.2329 C   0  0  0  0  0  0  0  0  0  0  0  0
   11.5311    3.2181  -14.4464 C   0  0  0  0  0  0  0  0  0  0  0  0
   10.9596    3.3358  -13.1430 C   0  0  0  0  0  0  0  0  0  0  0  0
  1  2  1  0  0  0  0
  1  3  1  0  0  0  0
  2  4  1  0  0  0  0
  3  5  1  0  0  0  0
  4  6  1  0  0  0  0
  5  6  1  0  0  0  0
  5  7  1  0  0  0  0
  7  8  1  0  0  0  0
  8  9  2  0  0  0  0
  8 10  1  0  0  0  0
 10 11  1  0  0  0  0
 11 12  1  0  0  0  0
 11 16  2  0  0  0  0
 12 13  2  0  0  0  0
 12 15  1  0  0  0  0
 13 14  1  0  0  0  0
 14 19  2  0  0  0  0
 14 22  1  0  0  0  0
 15 18  1  0  0  0  0
 16 17  1  0  0  0  0
 16 19  1  0  0  0  0
 18 20  1  0  0  0  0
 18 21  2  0  0  0  0
 20 23  2  0  0  0  0
 20 24  1  0  0  0  0
 22 25  2  0  0  0  0
 22 28  1  0  0  0  0
 25 26  1  0  0  0  0
 26 27  2  0  0  0  0
 27 28  1  0  0  0  0
 28 29  2  3  0  0  0
 29 30  1  0  0  0  0
M  END
$$$$

 OpenBabel10082411353D

 30 34  0  0  0  0  0  0  0  0999 V2000
   11.6836    6.0105   -4.8831 C   0  0  0  0  0  0  0  0  0  0  0  0
   11.1291    7.0732   -5.4395 C   0  0  0  0  0  0  0  0  0  0  0  0
   10.6954    7.0156   -6.8073 C   0  0  0  0  0  0  0  0  0  0  0  0
   10.2502    8.1187   -7.5536 C   0  0  2  0  0  0  0  0  0  0  0  0
   11.1205    8.4712   -4.9629 C   0  0  0  0  0  0  0  0  0  0  0  0
   10.8655    8.3511   -8.7960 C   0  0  0  0  0  0  0  0  0  0  0  0
   10.2922    7.8843   -9.9985 C   0  0  0  0  0  0  0  0  0  0  0  0
   10.4654    9.6993   -5.6120 C   0  0  0  0  0  0  0  0  0  0  0  0
   10.3510    9.5971   -7.0014 C   0  0  0  0  0  0  0  0  0  0  0  0
   12.2462    6.3351   -3.5020 C   0  0  0  0  0  0  0  0  0  0  0  0
   11.0471    7.5309  -11.1063 C   0  0  0  0  0  0  0  0  0  0  0  0
   11.7288    8.6923   -3.6518 C   0  0  0  0  0  0  0  0  0  0  0  0
   12.3991    7.7501  -11.1145 C   0  0  0  0  0  0  0  0  0  0  0  0
   12.3738    7.7580   -2.9599 C   0  0  0  0  0  0  0  0  0  0  0  0
   13.1285    8.5075  -10.1661 O   0  0  0  0  0  0  0  0  0  0  0  0
    9.0407    7.3775  -10.0973 N   0  0  0  0  0  0  0  0  0  0  0  0
    8.9787    6.9473  -11.4664 N   0  0  0  0  0  0  0  0  0  0  0  0
   13.1012    7.4459  -12.3707 C   0  0  0  0  0  0  0  0  0  0  0  0
   12.2395    6.9724  -13.2444 C   0  0  0  0  0  0  0  0  0  0  0  0
    7.7579    6.3689  -11.9282 C   0  0  0  0  0  0  0  0  0  0  0  0
    7.4759    5.0504  -11.8148 C   0  0  0  0  0  0  0  0  0  0  0  0
   12.9541    6.5945  -14.5510 O   0  0  0  0  0  0  0  0  0  0  0  0
   12.5717    5.3751  -15.0924 C   0  0  0  0  0  0  0  0  0  0  0  0
   10.2361    7.0379  -12.0113 C   0  0  0  0  0  0  0  0  0  0  0  0
    6.8832    7.1727  -12.5447 C   0  0  0  0  0  0  0  0  0  0  0  0
   10.8369    6.6644  -13.2127 C   0  0  0  0  0  0  0  0  0  0  0  0
    6.4655    4.3749  -12.3316 C   0  0  0  0  0  0  0  0  0  0  0  0
    7.0714    8.7009  -12.7712 Cl  0  0  0  0  0  0  0  0  0  0  0  0
    5.4898    5.2055  -13.0054 C   0  0  0  0  0  0  0  0  0  0  0  0
    5.7284    6.5320  -13.0986 C   0  0  0  0  0  0  0  0  0  0  0  0
  1  2  1  0  0  0  0
  1 10  2  0  0  0  0
  2  3  1  0  0  0  0
  2  5  2  0  0  0  0
  3  4  1  0  0  0  0
  4  6  1  6  0  0  0
  4  9  1  0  0  0  0
  5  8  1  0  0  0  0
  5 12  1  0  0  0  0
  6  7  1  0  0  0  0
  7 11  1  0  0  0  0
  7 16  2  0  0  0  0
  8  9  1  0  0  0  0
 10 14  1  0  0  0  0
 11 13  2  0  0  0  0
 11 24  1  0  0  0  0
 12 14  2  0  0  0  0
 13 15  1  0  0  0  0
 13 18  1  0  0  0  0
 16 17  1  0  0  0  0
 17 20  1  0  0  0  0
 17 24  1  0  0  0  0
 18 19  2  0  0  0  0
 19 22  1  0  0  0  0
 19 26  1  0  0  0  0
 20 21  1  0  0  0  0
 20 25  2  0  0  0  0
 21 27  2  0  0  0  0
 22 23  1  0  0  0  0
 24 26  2  0  0  0  0
 25 28  1  0  0  0  0
 25 30  1  0  0  0  0
 27 29  1  0  0  0  0
 29 30  2  0  0  0  0
M  END
$$$$

 OpenBabel10082411353D

 30 32  0  0  0  0  0  0  0  0999 V2000
   10.9951    9.9694   -4.9946 C   0  0  0  0  0  0  0  0  0  0  0  0
   11.7938    9.3762   -4.2463 C   0  0  0  0  0  0  0  0  0  0  0  0
   10.8673    9.4548   -6.4276 C   0  0  0  0  0  0  0  0  0  0  0  0
   11.6576    7.9117   -4.2944 C   0  0  0  0  0  0  0  0  0  0  0  0
   10.5498    8.0257   -6.4521 C   0  0  0  0  0  0  0  0  0  0  0  0
   11.4715    7.2752   -5.6166 C   0  0  0  0  0  0  0  0  0  0  0  0
   10.5840    7.5390   -7.9254 C   0  0  0  0  0  0  0  0  0  0  0  0
   11.4612    8.1494   -8.8322 C   0  0  0  0  0  0  0  0  0  0  0  0
   12.6250    8.6294   -8.4338 O   0  0  0  0  0  0  0  0  0  0  0  0
   11.0835    8.4395  -10.0740 O   0  0  0  0  0  0  0  0  0  0  0  0
   11.2938    7.5612  -11.0769 C   0  0  0  0  0  0  0  0  0  0  0  0
   10.1547    7.2525  -11.9492 C   0  0  0  0  0  0  0  0  0  0  0  0
   10.4293    6.5622  -13.1348 C   0  0  0  0  0  0  0  0  0  0  0  0
   11.7295    6.4217  -13.6243 C   0  0  0  0  0  0  0  0  0  0  0  0
    8.8120    7.3918  -11.4649 C   0  0  0  0  0  0  0  0  0  0  0  0
   12.5351    7.8894  -11.6869 C   0  0  0  0  0  0  0  0  0  0  0  0
   13.5778    8.4243  -10.9673 O   0  0  0  0  0  0  0  0  0  0  0  0
    7.7211    7.1761  -12.4323 C   0  0  0  0  0  0  0  0  0  0  0  0
   12.8103    7.0723  -12.8897 C   0  0  0  0  0  0  0  0  0  0  0  0
    7.0543    5.9667  -12.3369 C   0  0  0  0  0  0  0  0  0  0  0  0
    7.2392    8.1844  -13.1320 C   0  0  0  0  0  0  0  0  0  0  0  0
   12.0288    5.6463  -14.9695 C   0  0  0  0  0  0  0  0  0  0  0  0
    6.4764    5.5077  -13.4785 O   0  0  0  0  0  0  0  0  0  0  0  0
    7.1052    5.2025  -11.3444 O   0  0  0  0  0  0  0  0  0  0  0  0
   12.3034    6.3506  -15.9502 C   0  0  0  0  0  0  0  0  0  0  0  0
   12.4972    5.4594  -17.1574 N   0  0  0  0  0  0  0  0  0  0  0  0
   11.7608    4.2999  -15.0387 C   0  0  0  0  0  0  0  0  0  0  0  0
   12.3184    4.1996  -17.1642 C   0  0  0  0  0  0  0  0  0  0  0  0
   11.2693    3.5741  -13.7321 C   0  0  0  0  0  0  0  0  0  0  0  0
   11.9622    3.6070  -15.9018 N   0  0  0  0  0  0  0  0  0  0  0  0
  1  2  1  0  0  0  0
  1  3  1  0  0  0  0
  2  4  1  0  0  0  0
  3  5  1  0  0  0  0
  4  6  1  0  0  0  0
  5  6  1  0  0  0  0
  5  7  1  0  0  0  0
  7  8  1  0  0  0  0
  8  9  2  0  0  0  0
  8 10  1  0  0  0  0
 10 11  1  0  0  0  0
 11 12  1  0  0  0  0
 11 16  2  0  0  0  0
 12 13  2  0  0  0  0
 12 15  1  0  0  0  0
 13 14  1  0  0  0  0
 14 19  2  0  0  0  0
 14 22  1  0  0  0  0
 15 18  1  0  0  0  0
 16 17  1  0  0  0  0
 16 19  1  0  0  0  0
 18 20  1  0  0  0  0
 18 21  2  0  0  0  0
 20 23  2  0  0  0  0
 20 24  1  0  0  0  0
 22 25  2  0  0  0  0
 22 27  1  0  0  0  0
 25 26  1  0  0  0  0
 26 28  2  0  0  0  0
 27 29  1  0  0  0  0
 27 30  2  0  0  0  0
 28 30  1  0  0  0  0
M  END
$$$$

 OpenBabel10082411353D

 30 33  0  0  0  0  0  0  0  0999 V2000
   11.6836    6.0105   -4.8831 F   0  0  0  0  0  0  0  0  0  0  0  0
   11.2562    7.2206   -5.0294 C   0  0  0  0  0  0  0  0  0  0  0  0
   12.0125    8.2418   -4.4408 C   0  0  0  0  0  0  0  0  0  0  0  0
   11.1918    7.2706   -6.5237 C   0  0  0  0  0  0  0  0  0  0  0  0
   11.6999    8.4488   -3.1704 F   0  0  0  0  0  0  0  0  0  0  0  0
    9.8648    7.0908   -4.5314 F   0  0  0  0  0  0  0  0  0  0  0  0
   11.6831    8.5291   -6.9682 C   0  0  0  0  0  0  0  0  0  0  0  0
   10.4785    6.5189   -7.4033 C   0  0  0  0  0  0  0  0  0  0  0  0
   11.6979    8.6661   -8.4760 C   0  0  0  0  0  0  0  0  0  0  0  0
   11.6248    9.5853   -5.0030 C   0  0  0  0  0  0  0  0  0  0  0  0
   11.8604    9.7907   -6.2903 O   0  0  0  0  0  0  0  0  0  0  0  0
   13.3557    8.1748   -4.5947 F   0  0  0  0  0  0  0  0  0  0  0  0
   10.5427    6.6061   -8.7190 C   0  0  0  0  0  0  0  0  0  0  0  0
   11.1158    7.7103   -9.2540 C   0  0  0  0  0  0  0  0  0  0  0  0
   11.3757    7.6656  -10.5293 N   0  0  0  0  0  0  0  0  0  0  0  0
   10.7153    7.7096  -11.5405 C   0  0  0  0  0  0  0  0  0  0  0  0
   11.2483    7.4711  -12.8542 C   0  0  0  0  0  0  0  0  0  0  0  0
    9.3980    7.7820  -11.5398 C   0  0  0  0  0  0  0  0  0  0  0  0
    8.6055    7.5889  -12.6525 C   0  0  0  0  0  0  0  0  0  0  0  0
   12.7508    7.3705  -13.0162 O   0  0  0  0  0  0  0  0  0  0  0  0
   10.5299    7.1831  -13.9856 C   0  0  0  0  0  0  0  0  0  0  0  0
    7.0533    7.7371  -12.5396 C   0  0  0  0  0  0  0  0  0  0  0  0
   11.2041    6.8490  -15.2304 C   0  0  0  0  0  0  0  0  0  0  0  0
   11.6393    5.5333  -15.3864 C   0  0  0  0  0  0  0  0  0  0  0  0
    9.1955    7.2935  -13.8301 C   0  0  0  0  0  0  0  0  0  0  0  0
   12.5294    5.1116  -16.1609 C   0  0  0  0  0  0  0  0  0  0  0  0
   11.2315    4.4703  -14.3200 C   0  0  0  0  0  0  0  0  0  0  0  0
   10.2844    4.5821  -13.3000 C   0  0  0  0  0  0  0  0  0  0  0  0
   11.7671    3.2929  -14.8727 C   0  0  0  0  0  0  0  0  0  0  0  0
   12.4695    3.1680  -16.0720 S   0  0  0  0  0  0  0  0  0  0  0  0
  1  2  1  0  0  0  0
  2  3  1  0  0  0  0
  2  4  1  0  0  0  0
  2  6  1  0  0  0  0
  3  5  1  0  0  0  0
  3 10  1  0  0  0  0
  3 12  1  0  0  0  0
  4  7  1  0  0  0  0
  4  8  2  0  0  0  0
  7  9  2  0  0  0  0
  7 11  1  0  0  0  0
  8 13  1  0  0  0  0
  9 14  1  0  0  0  0
 10 11  1  0  0  0  0
 13 14  2  0  0  0  0
 14 15  1  0  0  0  0
 15 16  1  0  0  0  0
 16 17  1  0  0  0  0
 16 18  2  0  0  0  0
 17 20  1  0  0  0  0
 17 21  2  0  0  0  0
 18 19  1  0  0  0  0
 19 22  1  0  0  0  0
 19 25  2  0  0  0  0
 21 23  1  0  0  0  0
 21 25  1  0  0  0  0
 23 24  1  0  0  0  0
 24 26  2  0  0  0  0
 24 27  1  0  0  0  0
 26 30  1  0  0  0  0
 27 28  1  0  0  0  0
 27 29  2  0  0  0  0
 29 30  1  0  0  0  0
M  END
$$$$

 OpenBabel10082411353D

 30 35  0  0  0  0  0  0  0  0999 V2000
   11.9925    6.6083   -4.7728 C   0  0  0  0  0  0  0  0  0  0  0  0
   11.4477    7.7141   -5.2577 C   0  0  0  0  0  0  0  0  0  0  0  0
   12.2896    6.5964   -3.2881 C   0  0  0  0  0  0  0  0  0  0  0  0
   11.4087    8.9270   -4.5689 C   0  0  0  0  0  0  0  0  0  0  0  0
   11.0700    7.6482   -6.7180 C   0  0  1  0  0  0  0  0  0  0  0  0
   11.9031    8.9562   -3.1377 C   0  0  0  0  0  0  0  0  0  0  0  0
   12.3774    7.8477   -2.5217 C   0  0  0  0  0  0  0  0  0  0  0  0
   10.4761    6.5776   -7.2169 C   0  0  0  0  0  0  0  0  0  0  0  0
   10.6681    8.9492   -7.1472 C   0  0  0  0  0  0  0  0  0  0  0  0
   10.1085    6.6234   -8.6282 C   0  0  0  0  0  0  0  0  0  0  0  0
   10.4500    9.0125   -8.6924 C   0  0  0  0  0  0  0  0  0  0  0  0
    9.6601    7.9334   -9.1481 N   0  0  0  0  0  0  0  0  0  0  0  0
    9.4452    7.9310  -10.5569 C   0  0  0  0  0  0  0  0  0  0  0  0
    9.6484    6.9783  -11.2444 C   0  0  0  0  0  0  0  0  0  0  0  0
    9.2204    9.1620  -11.1118 O   0  0  0  0  0  0  0  0  0  0  0  0
    8.7362    5.9509  -11.2837 C   0  0  0  0  0  0  0  0  0  0  0  0
    8.8536    4.7666  -12.1368 C   0  0  0  0  0  0  0  0  0  0  0  0
   10.6809    6.9310  -12.3353 C   0  0  0  0  0  0  0  0  0  0  0  0
    9.8671    4.6993  -13.0577 C   0  0  0  0  0  0  0  0  0  0  0  0
   11.5765    7.9772  -12.5141 O   0  0  0  0  0  0  0  0  0  0  0  0
   10.8020    5.8254  -13.2017 C   0  0  0  0  0  0  0  0  0  0  0  0
   10.0433    3.8155  -13.8024 N   0  0  0  0  0  0  0  0  0  0  0  0
    9.3779    2.5500  -13.8153 N   0  0  0  0  0  0  0  0  0  0  0  0
    9.7949    1.6901  -14.6819 C   0  0  0  0  0  0  0  0  0  0  0  0
   10.9792    3.6456  -14.8747 C   0  0  0  0  0  0  0  0  0  0  0  0
   12.0371    4.6322  -15.2341 C   0  0  0  0  0  0  0  0  0  0  0  0
   12.9457    7.6742  -12.9646 C   0  0  0  0  0  0  0  0  0  0  0  0
   11.8184    5.7952  -14.1498 C   0  0  1  0  0  0  0  0  0  0  0  0
   10.9927    2.2965  -15.5301 C   0  0  0  0  0  0  0  0  0  0  0  0
   12.4590    7.1498  -14.5259 C   0  0  0  0  0  0  0  0  0  0  0  0
  1  2  1  0  0  0  0
  1  3  2  0  0  0  0
  2  4  2  0  0  0  0
  3  7  1  0  0  0  0
  4  6  1  0  0  0  0
  5  2  1  1  0  0  0
  5  8  1  0  0  0  0
  5  9  1  0  0  0  0
  6  7  2  0  0  0  0
  8 10  1  0  0  0  0
  9 11  1  0  0  0  0
 10 12  1  0  0  0  0
 11 12  1  0  0  0  0
 12 13  1  0  0  0  0
 13 14  1  0  0  0  0
 13 15  2  0  0  0  0
 14 16  2  0  0  0  0
 14 18  1  0  0  0  0
 16 17  1  0  0  0  0
 17 19  2  0  0  0  0
 18 20  1  0  0  0  0
 18 21  2  0  0  0  0
 19 21  1  0  0  0  0
 19 22  1  0  0  0  0
 20 27  1  0  0  0  0
 21 28  1  0  0  0  0
 22 23  1  0  0  0  0
 22 25  1  0  0  0  0
 23 24  2  0  0  0  0
 24 29  1  0  0  0  0
 25 26  1  0  0  0  0
 25 29  2  0  0  0  0
 27 30  1  0  0  0  0
 28 26  1  6  0  0  0
 28 30  1  0  0  0  0
M  END
$$$$

 OpenBabel10082411353D

 30 32  0  0  0  0  0  0  0  0999 V2000
   13.4846    9.3979   -5.2029 C   0  0  0  0  0  0  0  0  0  0  0  0
   12.7871    9.3913   -6.3118 C   0  0  0  0  0  0  0  0  0  0  0  0
   11.3648    9.1424   -6.2947 C   0  0  0  0  0  0  0  0  0  0  0  0
   10.8726    9.0146   -5.0034 C   0  0  0  0  0  0  0  0  0  0  0  0
    9.3815    8.7865   -5.0373 F   0  0  0  0  0  0  0  0  0  0  0  0
   11.4703    9.0293   -3.8455 C   0  0  0  0  0  0  0  0  0  0  0  0
   10.7697    8.8716   -2.6325 F   0  0  0  0  0  0  0  0  0  0  0  0
   12.8710    9.2169   -3.9429 C   0  0  0  0  0  0  0  0  0  0  0  0
   10.4781    9.1384   -7.6682 C   0  0  0  0  0  0  0  0  0  0  0  0
   11.1390    9.1306   -8.8047 C   0  0  0  0  0  0  0  0  0  0  0  0
   10.8705    7.9638   -9.7397 C   0  0  0  0  0  0  0  0  0  0  0  0
   10.2908    8.0632  -10.8488 C   0  0  0  0  0  0  0  0  0  0  0  0
   10.4238    7.0375  -11.8282 C   0  0  0  0  0  0  0  0  0  0  0  0
    9.2433    8.9518  -11.2558 C   0  0  0  0  0  0  0  0  0  0  0  0
    8.5277    8.8707  -12.4031 C   0  0  0  0  0  0  0  0  0  0  0  0
    7.4469    9.8411  -12.5572 F   0  0  0  0  0  0  0  0  0  0  0  0
    8.5235    7.7173  -13.1606 C   0  0  0  0  0  0  0  0  0  0  0  0
   11.4736    5.9938  -11.5885 F   0  0  0  0  0  0  0  0  0  0  0  0
    9.6094    6.6956  -12.8849 C   0  0  0  0  0  0  0  0  0  0  0  0
    9.8332    5.4698  -13.8784 S   0  0  0  0  0  0  0  0  0  0  0  0
   10.9769    5.4319  -14.5253 O   0  0  0  0  0  0  0  0  0  0  0  0
    8.3413    5.5312  -14.5883 O   0  0  0  0  0  0  0  0  0  0  0  0
    9.8256    3.9847  -12.9897 C   0  0  1  0  0  0  0  0  0  0  0  0
    8.5770    3.2748  -13.0188 C   0  0  0  0  0  0  0  0  0  0  0  0
   10.8471    3.1048  -13.4117 C   0  0  0  0  0  0  0  0  0  0  0  0
    7.5376    3.5959  -12.0573 C   0  0  0  0  0  0  0  0  0  0  0  0
    6.3044    3.0799  -12.1466 C   0  0  0  0  0  0  0  0  0  0  0  0
    8.1746    2.4491  -13.9809 C   0  0  0  0  0  0  0  0  0  0  0  0
    5.9715    2.1827  -13.0868 C   0  0  0  0  0  0  0  0  0  0  0  0
    6.9239    1.7929  -14.0368 C   0  0  0  0  0  0  0  0  0  0  0  0
  1  2  1  0  0  0  0
  1  8  2  0  0  0  0
  2  3  2  0  0  0  0
  3  4  1  0  0  0  0
  3  9  1  0  0  0  0
  4  5  1  0  0  0  0
  4  6  2  0  0  0  0
  6  7  1  0  0  0  0
  6  8  1  0  0  0  0
  9 10  1  0  0  0  0
 10 11  1  0  0  0  0
 11 12  1  0  0  0  0
 12 13  2  0  0  0  0
 12 14  1  0  0  0  0
 13 18  1  0  0  0  0
 13 19  1  0  0  0  0
 14 15  2  0  0  0  0
 15 16  1  0  0  0  0
 15 17  1  0  0  0  0
 17 19  2  0  0  0  0
 19 20  1  0  0  0  0
 20 21  2  0  0  0  0
 20 22  2  0  0  0  0
 20 23  1  0  0  0  0
 23 24  1  0  0  0  0
 23 25  1  6  0  0  0
 24 26  1  0  0  0  0
 24 28  2  0  0  0  0
 26 27  2  0  0  0  0
 27 29  1  0  0  0  0
 28 30  1  0  0  0  0
 29 30  2  0  0  0  0
M  END
$$$$

 OpenBabel10082411353D

 30 33  0  0  0  0  0  0  0  0999 V2000
   12.8881    8.7759   -3.5681 C   0  0  0  0  0  0  0  0  0  0  0  0
   11.9416    9.4732   -4.1220 C   0  0  0  0  0  0  0  0  0  0  0  0
   12.3556    7.6012   -2.6527 C   0  0  0  0  0  0  0  0  0  0  0  0
   11.8805    9.3400   -5.6557 C   0  0  0  0  0  0  0  0  0  0  0  0
   11.7716    6.5414   -3.3821 C   0  0  0  0  0  0  0  0  0  0  0  0
   10.8523    8.6585   -6.3310 C   0  0  0  0  0  0  0  0  0  0  0  0
   11.1142    8.2520   -7.7289 C   0  0  0  0  0  0  0  0  0  0  0  0
   10.0478    7.6568   -8.4887 C   0  0  0  0  0  0  0  0  0  0  0  0
   12.3648    8.4339   -8.3703 C   0  0  0  0  0  0  0  0  0  0  0  0
   12.6142    8.1352   -9.7322 C   0  0  0  0  0  0  0  0  0  0  0  0
   10.2852    7.3833   -9.9138 C   0  0  0  0  0  0  0  0  0  0  0  0
   11.5161    7.5808  -10.4860 C   0  0  0  0  0  0  0  0  0  0  0  0
   11.6641    7.2285  -11.8174 O   0  0  0  0  0  0  0  0  0  0  0  0
   10.8624    6.4419  -12.4395 C   0  0  0  0  0  0  0  0  0  0  0  0
   11.2693    5.8267  -13.4966 C   0  0  0  0  0  0  0  0  0  0  0  0
    9.5259    6.2192  -11.9953 C   0  0  0  0  0  0  0  0  0  0  0  0
    9.2551    6.6732  -10.5921 C   0  0  2  0  0  0  0  0  0  0  0  0
    8.1388    7.5201  -10.6434 O   0  0  0  0  0  0  0  0  0  0  0  0
   12.6263    6.1828  -14.1606 C   0  0  0  0  0  0  0  0  0  0  0  0
   10.5060    4.8097  -14.1219 C   0  0  0  0  0  0  0  0  0  0  0  0
   12.6450    7.4378  -14.7214 C   0  0  0  0  0  0  0  0  0  0  0  0
    8.7396    5.2583  -12.5420 C   0  0  0  0  0  0  0  0  0  0  0  0
    8.2551    8.6972  -11.3760 C   0  0  0  0  0  0  0  0  0  0  0  0
   10.9108    4.0830  -15.3397 C   0  0  0  0  0  0  0  0  0  0  0  0
    7.3647    4.9619  -12.0763 C   0  0  0  0  0  0  0  0  0  0  0  0
    9.1717    4.5536  -13.7461 C   0  0  0  0  0  0  0  0  0  0  0  0
   11.7053    2.9193  -14.9930 O   0  0  0  0  0  0  0  0  0  0  0  0
    8.1715    3.7852  -14.4152 C   0  0  0  0  0  0  0  0  0  0  0  0
    6.9527    3.5028  -13.8269 C   0  0  0  0  0  0  0  0  0  0  0  0
    6.5754    4.1440  -12.6949 C   0  0  0  0  0  0  0  0  0  0  0  0
  1  2  1  0  0  0  0
  1  3  1  0  0  0  0
  2  4  1  0  0  0  0
  3  5  1  0  0  0  0
  4  6  1  0  0  0  0
  6  7  1  0  0  0  0
  7  8  1  0  0  0  0
  7  9  2  0  0  0  0
  8 11  2  0  0  0  0
  9 10  1  0  0  0  0
 10 12  2  0  0  0  0
 11 12  1  0  0  0  0
 11 17  1  0  0  0  0
 12 13  1  0  0  0  0
 13 14  1  0  0  0  0
 14 15  2  0  0  0  0
 14 16  1  0  0  0  0
 15 19  1  0  0  0  0
 15 20  1  0  0  0  0
 16 17  1  0  0  0  0
 16 22  2  0  0  0  0
 17 18  1  6  0  0  0
 18 23  1  0  0  0  0
 19 21  1  0  0  0  0
 20 24  1  0  0  0  0
 20 26  2  0  0  0  0
 22 25  1  0  0  0  0
 22 26  1  0  0  0  0
 24 27  1  0  0  0  0
 25 30  2  0  0  0  0
 26 28  1  0  0  0  0
 28 29  2  0  0  0  0
 29 30  1  0  0  0  0
M  END
$$$$

 OpenBabel10082411353D

 30 35  0  0  0  0  0  0  0  0999 V2000
   11.9925    6.6083   -4.7728 C   0  0  0  0  0  0  0  0  0  0  0  0
   11.4477    7.7141   -5.2577 C   0  0  0  0  0  0  0  0  0  0  0  0
   12.2896    6.5964   -3.2881 C   0  0  0  0  0  0  0  0  0  0  0  0
   11.4087    8.9270   -4.5689 C   0  0  0  0  0  0  0  0  0  0  0  0
   11.0700    7.6482   -6.7180 C   0  0  0  0  0  0  0  0  0  0  0  0
   11.9031    8.9562   -3.1377 C   0  0  0  0  0  0  0  0  0  0  0  0
   12.3774    7.8477   -2.5217 C   0  0  0  0  0  0  0  0  0  0  0  0
   10.4761    6.5776   -7.2169 C   0  0  0  0  0  0  0  0  0  0  0  0
   10.6681    8.9492   -7.1472 C   0  0  0  0  0  0  0  0  0  0  0  0
   10.1085    6.6234   -8.6282 C   0  0  0  0  0  0  0  0  0  0  0  0
   10.4500    9.0125   -8.6924 C   0  0  0  0  0  0  0  0  0  0  0  0
    9.6601    7.9334   -9.1481 N   0  0  0  0  0  0  0  0  0  0  0  0
    9.4452    7.9310  -10.5569 C   0  0  0  0  0  0  0  0  0  0  0  0
    9.6484    6.9783  -11.2444 C   0  0  0  0  0  0  0  0  0  0  0  0
    9.2204    9.1620  -11.1118 O   0  0  0  0  0  0  0  0  0  0  0  0
    8.7362    5.9509  -11.2837 C   0  0  0  0  0  0  0  0  0  0  0  0
    8.8536    4.7666  -12.1368 C   0  0  0  0  0  0  0  0  0  0  0  0
   10.6809    6.9310  -12.3353 C   0  0  0  0  0  0  0  0  0  0  0  0
    9.8671    4.6993  -13.0577 C   0  0  0  0  0  0  0  0  0  0  0  0
   11.5765    7.9772  -12.5141 O   0  0  0  0  0  0  0  0  0  0  0  0
   10.8020    5.8254  -13.2017 C   0  0  0  0  0  0  0  0  0  0  0  0
   10.0433    3.8155  -13.8024 N   0  0  0  0  0  0  0  0  0  0  0  0
    9.3779    2.5500  -13.8153 N   0  0  0  0  0  0  0  0  0  0  0  0
    9.7949    1.6901  -14.6819 C   0  0  0  0  0  0  0  0  0  0  0  0
   10.9792    3.6456  -14.8747 C   0  0  0  0  0  0  0  0  0  0  0  0
   12.0371    4.6322  -15.2341 C   0  0  0  0  0  0  0  0  0  0  0  0
   12.9457    7.6742  -12.9646 C   0  0  0  0  0  0  0  0  0  0  0  0
   10.9437    2.3378  -15.4516 C   0  0  0  0  0  0  0  0  0  0  0  0
   11.8676    5.7749  -14.3141 C   0  0  0  0  0  0  0  0  0  0  0  0
   12.7447    6.9990  -14.5256 C   0  0  0  0  0  0  0  0  0  0  0  0
  1  2  1  0  0  0  0
  1  3  2  0  0  0  0
  2  4  2  0  0  0  0
  2  5  1  0  0  0  0
  3  7  1  0  0  0  0
  4  6  1  0  0  0  0
  5  8  1  0  0  0  0
  5  9  1  0  0  0  0
  6  7  2  0  0  0  0
  8 10  1  0  0  0  0
  9 11  1  0  0  0  0
 10 12  1  0  0  0  0
 11 12  1  0  0  0  0
 12 13  1  0  0  0  0
 13 14  1  0  0  0  0
 13 15  2  0  0  0  0
 14 16  2  0  0  0  0
 14 18  1  0  0  0  0
 16 17  1  0  0  0  0
 17 19  2  0  0  0  0
 18 20  1  0  0  0  0
 18 21  2  0  0  0  0
 19 21  1  0  0  0  0
 19 22  1  0  0  0  0
 20 27  1  0  0  0  0
 21 29  1  0  0  0  0
 22 23  1  0  0  0  0
 22 25  1  0  0  0  0
 23 24  2  0  0  0  0
 24 28  1  0  0  0  0
 25 26  1  0  0  0  0
 25 28  2  0  0  0  0
 26 29  2  0  0  0  0
 27 30  1  0  0  0  0
 29 30  1  0  0  0  0
M  END
$$$$

 OpenBabel10082411353D

 30 33  0  0  0  0  0  0  0  0999 V2000
   12.7863    7.8241  -14.2109 C   0  0  0  0  0  0  0  0  0  0  0  0
   12.4233    7.7158  -13.0289 C   0  0  0  0  0  0  0  0  0  0  0  0
   12.9219    8.1949  -11.8668 C   0  0  0  0  0  0  0  0  0  0  0  0
   11.4275    6.6086  -12.7931 C   0  0  0  0  0  0  0  0  0  0  0  0
   10.3411    6.8404  -12.0679 C   0  0  0  0  0  0  0  0  0  0  0  0
   10.7226    7.4332  -10.7281 C   0  0  0  0  0  0  0  0  0  0  0  0
    9.0684    5.8539  -11.9851 C   0  0  0  0  0  0  0  0  0  0  0  0
    9.8080    7.4062   -9.6015 C   0  0  1  0  0  0  0  0  0  0  0  0
   11.9300    8.1400  -10.6702 C   0  0  0  0  0  0  0  0  0  0  0  0
   11.0289    6.0120  -14.2884 C   0  0  0  0  0  0  0  0  0  0  0  0
    9.9681    6.1425   -8.6941 C   0  0  0  0  0  0  0  0  0  0  0  0
   11.9646    6.5393  -15.2778 C   0  0  0  0  0  0  0  0  0  0  0  0
    9.7799    8.6458   -8.9051 C   0  0  0  0  0  0  0  0  0  0  0  0
   10.3186    4.8592  -14.6682 C   0  0  0  0  0  0  0  0  0  0  0  0
   10.2572    3.7867  -13.8865 C   0  0  1  0  0  0  0  0  0  0  0  0
    8.1840    6.1529  -12.9802 C   0  0  0  0  0  0  0  0  0  0  0  0
    8.9788    2.9888  -13.9279 C   0  0  0  0  0  0  0  0  0  0  0  0
   10.5404    8.5651   -7.5433 C   0  0  0  0  0  0  0  0  0  0  0  0
    9.1252    1.6963  -14.1301 O   0  0  0  0  0  0  0  0  0  0  0  0
    6.8473    5.4043  -12.6964 C   0  0  0  0  0  0  0  0  0  0  0  0
    7.8908    3.5177  -13.7211 N   0  0  0  0  0  0  0  0  0  0  0  0
   10.1332    7.5210   -6.6089 C   0  0  1  0  0  0  0  0  0  0  0  0
   11.5194    2.8993  -13.9918 C   0  0  0  0  0  0  0  0  0  0  0  0
   10.0708    6.2280   -7.2683 C   0  0  0  0  0  0  0  0  0  0  0  0
   11.1522    7.4502   -5.4668 C   0  0  0  0  0  0  0  0  0  0  0  0
    7.0710    3.6888  -12.6852 C   0  0  0  0  0  0  0  0  0  0  0  0
    8.8634    7.9716   -5.8899 C   0  0  0  0  0  0  0  0  0  0  0  0
   11.6672    8.7295   -5.0477 C   0  0  0  0  0  0  0  0  0  0  0  0
   10.8441    9.5413   -4.4642 O   0  0  0  0  0  0  0  0  0  0  0  0
   12.9507    9.1278   -5.2393 N   0  0  0  0  0  0  0  0  0  0  0  0
  1  2  1  0  0  0  0
  1 12  1  0  0  0  0
  2  3  1  0  0  0  0
  2  4  2  0  0  0  0
  3  9  2  0  0  0  0
  4  5  1  0  0  0  0
  4 10  1  0  0  0  0
  5  6  2  0  0  0  0
  5  7  1  0  0  0  0
  6  9  1  0  0  0  0
  7 16  1  0  0  0  0
  8  6  1  6  0  0  0
  8 11  1  0  0  0  0
  8 13  1  0  0  0  0
 10 12  2  0  0  0  0
 10 14  1  0  0  0  0
 11 24  1  0  0  0  0
 13 18  1  0  0  0  0
 14 15  1  0  0  0  0
 15 17  1  0  0  0  0
 15 23  1  6  0  0  0
 16 20  1  0  0  0  0
 17 19  2  0  0  0  0
 17 21  1  0  0  0  0
 18 22  1  0  0  0  0
 20 26  1  0  0  0  0
 21 26  1  0  0  0  0
 22 24  1  0  0  0  0
 22 25  1  0  0  0  0
 22 27  1  1  0  0  0
 25 28  1  0  0  0  0
 28 29  2  0  0  0  0
 28 30  1  0  0  0  0
M  END
$$$$

 OpenBabel10082411353D

 19 20  0  0  0  0  0  0  0  0999 V2000
   12.7863    7.8241  -14.2109 C   0  0  0  0  0  0  0  0  0  0  0  0
   12.4233    7.7158  -13.0289 C   0  0  0  0  0  0  0  0  0  0  0  0
   11.3194    6.8571  -12.8028 C   0  0  0  0  0  0  0  0  0  0  0  0
   12.3150    7.2021  -15.3582 C   0  0  0  0  0  0  0  0  0  0  0  0
   11.2733    6.2739  -15.1502 C   0  0  0  0  0  0  0  0  0  0  0  0
   10.8099    6.0126  -13.8600 C   0  0  0  0  0  0  0  0  0  0  0  0
    9.6782    5.1428  -13.6488 C   0  0  0  0  0  0  0  0  0  0  0  0
    8.5753    5.3880  -12.9589 N   0  0  0  0  0  0  0  0  0  0  0  0
    8.3226    6.7011  -12.3862 C   0  0  0  0  0  0  0  0  0  0  0  0
    9.8502    3.8578  -14.0728 C   0  0  0  0  0  0  0  0  0  0  0  0
    8.7942    2.9244  -13.8612 C   0  0  0  0  0  0  0  0  0  0  0  0
   11.1259    3.2842  -14.6398 C   0  0  0  0  0  0  0  0  0  0  0  0
    7.5630    4.4685  -12.9329 C   0  0  0  0  0  0  0  0  0  0  0  0
    6.3682    4.8295  -12.2626 O   0  0  0  0  0  0  0  0  0  0  0  0
    8.9902    1.5574  -14.3550 O   0  0  0  0  0  0  0  0  0  0  0  0
    7.6905    7.6551  -13.2159 C   0  0  0  0  0  0  0  0  0  0  0  0
    7.6367    3.1493  -13.2818 C   0  0  0  0  0  0  0  0  0  0  0  0
    7.2940    8.8929  -12.4517 C   0  0  0  0  0  0  0  0  0  0  0  0
    6.4577    2.2736  -13.1863 C   0  0  0  0  0  0  0  0  0  0  0  0
  1  2  2  0  0  0  0
  1  4  1  0  0  0  0
  2  3  1  0  0  0  0
  3  6  2  0  0  0  0
  4  5  2  0  0  0  0
  5  6  1  0  0  0  0
  6  7  1  0  0  0  0
  7  8  1  0  0  0  0
  7 10  2  0  0  0  0
  8  9  1  0  0  0  0
  8 13  1  0  0  0  0
  9 16  1  0  0  0  0
 10 11  1  0  0  0  0
 10 12  1  0  0  0  0
 11 15  1  0  0  0  0
 11 17  2  0  0  0  0
 13 14  2  0  0  0  0
 13 17  1  0  0  0  0
 16 18  1  0  0  0  0
 17 19  1  0  0  0  0
M  END
$$$$

 OpenBabel10082411353D

 30 33  0  0  0  0  0  0  0  0999 V2000
   12.7863    7.8241  -14.2109 C   0  0  0  0  0  0  0  0  0  0  0  0
   12.4233    7.7158  -13.0289 C   0  0  0  0  0  0  0  0  0  0  0  0
   12.9219    8.1949  -11.8668 C   0  0  0  0  0  0  0  0  0  0  0  0
   11.4275    6.6086  -12.7931 C   0  0  0  0  0  0  0  0  0  0  0  0
   10.3411    6.8404  -12.0679 C   0  0  0  0  0  0  0  0  0  0  0  0
   10.7226    7.4332  -10.7281 C   0  0  0  0  0  0  0  0  0  0  0  0
    9.0684    5.8539  -11.9851 C   0  0  0  0  0  0  0  0  0  0  0  0
    9.8080    7.4062   -9.6015 C   0  0  0  0  0  0  0  0  0  0  0  0
   11.9300    8.1400  -10.6702 C   0  0  0  0  0  0  0  0  0  0  0  0
   11.0289    6.0120  -14.2884 C   0  0  1  0  0  0  0  0  0  0  0  0
    9.9681    6.1425   -8.6941 C   0  0  0  0  0  0  0  0  0  0  0  0
    7.9946    6.5885  -12.1474 C   0  0  0  0  0  0  0  0  0  0  0  0
   10.2822    6.4890   -7.2771 C   0  0  0  0  0  0  0  0  0  0  0  0
   11.5540    6.8919   -6.8963 C   0  0  0  0  0  0  0  0  0  0  0  0
   11.8977    7.2299   -5.5785 C   0  0  0  0  0  0  0  0  0  0  0  0
   11.9395    6.5440  -15.2769 C   0  0  0  0  0  0  0  0  0  0  0  0
    6.8195    5.8154  -12.4332 C   0  0  0  0  0  0  0  0  0  0  0  0
    8.9573    4.5198  -11.6521 C   0  0  0  0  0  0  0  0  0  0  0  0
   11.8306    6.3760   -4.6325 C   0  0  0  0  0  0  0  0  0  0  0  0
    7.8819    8.0369  -12.3720 C   0  0  0  0  0  0  0  0  0  0  0  0
    7.9167    3.8403  -11.9170 C   0  0  0  0  0  0  0  0  0  0  0  0
    6.8454    4.4501  -12.1858 C   0  0  0  0  0  0  0  0  0  0  0  0
   11.1077    4.5260  -14.4287 C   0  0  0  0  0  0  0  0  0  0  0  0
   12.1634    8.6574   -5.1361 C   0  0  0  0  0  0  0  0  0  0  0  0
   12.1699    6.6825   -3.2626 C   0  0  0  0  0  0  0  0  0  0  0  0
   10.3720    3.6729  -14.1530 O   0  0  0  0  0  0  0  0  0  0  0  0
    5.6263    3.6658  -12.4181 C   0  0  0  0  0  0  0  0  0  0  0  0
   12.5029    4.0633  -14.7137 O   0  0  0  0  0  0  0  0  0  0  0  0
   12.4506    8.0263   -2.8995 C   0  0  0  0  0  0  0  0  0  0  0  0
   12.4006    9.0766   -3.8473 C   0  0  0  0  0  0  0  0  0  0  0  0
  1  2  1  0  0  0  0
  1 16  1  0  0  0  0
  2  3  1  0  0  0  0
  2  4  2  0  0  0  0
  3  9  2  0  0  0  0
  4  5  1  0  0  0  0
  4 10  1  0  0  0  0
  5  6  2  0  0  0  0
  5  7  1  0  0  0  0
  6  8  1  0  0  0  0
  6  9  1  0  0  0  0
  7 12  1  0  0  0  0
  7 18  2  0  0  0  0
  8 11  1  0  0  0  0
 10 16  1  0  0  0  0
 10 23  1  1  0  0  0
 11 13  1  0  0  0  0
 12 17  2  0  0  0  0
 12 20  1  0  0  0  0
 13 14  2  3  0  0  0
 14 15  1  0  0  0  0
 15 19  2  0  0  0  0
 15 24  1  0  0  0  0
 17 22  1  0  0  0  0
 18 21  1  0  0  0  0
 19 25  1  0  0  0  0
 21 22  2  0  0  0  0
 22 27  1  0  0  0  0
 23 26  2  0  0  0  0
 23 28  1  0  0  0  0
 24 30  2  0  0  0  0
 25 29  2  0  0  0  0
 29 30  1  0  0  0  0
M  END
$$$$

 OpenBabel10082411353D

 30 33  0  0  0  0  0  0  0  0999 V2000
   13.2485    9.2493   -6.3668 O   0  0  0  0  0  0  0  0  0  0  0  0
   12.3055    9.1779   -7.4488 C   0  0  1  0  0  0  0  0  0  0  0  0
   12.5005    8.1033   -8.2440 C   0  0  0  0  0  0  0  0  0  0  0  0
   11.7072    8.0925   -9.4886 C   0  0  0  0  0  0  0  0  0  0  0  0
   12.2659    7.9483  -10.6668 C   0  0  0  0  0  0  0  0  0  0  0  0
   10.2869    8.0426   -9.4299 C   0  0  0  0  0  0  0  0  0  0  0  0
   13.6482    8.0497  -10.9162 O   0  0  0  0  0  0  0  0  0  0  0  0
   11.5356    7.8148  -11.9199 C   0  0  0  0  0  0  0  0  0  0  0  0
   12.2597    7.6523  -13.1838 C   0  0  0  0  0  0  0  0  0  0  0  0
    9.5345    7.8388  -10.6476 C   0  0  0  0  0  0  0  0  0  0  0  0
   12.7796    8.4277  -13.7325 O   0  0  0  0  0  0  0  0  0  0  0  0
   10.1724    7.7406  -11.8577 C   0  0  0  0  0  0  0  0  0  0  0  0
   12.4765    6.3392  -13.7439 N   0  0  0  0  0  0  0  0  0  0  0  0
    9.2368    7.4770  -13.0161 C   0  0  1  0  0  0  0  0  0  0  0  0
    8.7686    6.0601  -13.0538 C   0  0  0  0  0  0  0  0  0  0  0  0
   11.7377    5.1496  -13.1887 C   0  0  0  0  0  0  0  0  0  0  0  0
   10.9893    9.0510   -6.5404 C   0  0  0  0  0  0  0  0  0  0  0  0
   11.2522    8.1647   -5.3854 C   0  0  2  0  0  0  0  0  0  0  0  0
    7.8881    5.4892  -12.2818 C   0  0  0  0  0  0  0  0  0  0  0  0
    8.1030    8.4511  -12.9051 C   0  0  0  0  0  0  0  0  0  0  0  0
   11.2726    4.1709  -14.3554 C   0  0  0  0  0  0  0  0  0  0  0  0
   12.7640    9.8841   -5.1669 C   0  0  0  0  0  0  0  0  0  0  0  0
   10.2020    7.3447   -4.8869 O   0  0  0  0  0  0  0  0  0  0  0  0
    7.3405    6.1987  -11.1725 O   0  0  0  0  0  0  0  0  0  0  0  0
    8.8514    5.4597  -14.2918 C   0  0  0  0  0  0  0  0  0  0  0  0
   11.8543    8.9130   -4.3539 C   0  0  0  0  0  0  0  0  0  0  0  0
    9.6376    4.1710  -14.3682 C   0  0  2  0  0  0  0  0  0  0  0  0
    9.2569    3.1750  -13.4204 C   0  0  0  0  0  0  0  0  0  0  0  0
    7.6105    4.1091  -12.2606 C   0  0  0  0  0  0  0  0  0  0  0  0
    8.0762    3.1235  -12.9281 C   0  0  0  0  0  0  0  0  0  0  0  0
  1  2  1  0  0  0  0
  1 22  1  0  0  0  0
  2  3  1  6  0  0  0
  2 17  1  0  0  0  0
  3  4  1  0  0  0  0
  4  5  1  0  0  0  0
  4  6  2  0  0  0  0
  5  7  1  0  0  0  0
  5  8  2  0  0  0  0
  6 10  1  0  0  0  0
  8  9  1  0  0  0  0
  8 12  1  0  0  0  0
  9 11  2  0  0  0  0
  9 13  1  0  0  0  0
 10 12  2  0  0  0  0
 12 14  1  0  0  0  0
 13 16  1  0  0  0  0
 14 15  1  0  0  0  0
 14 20  1  1  0  0  0
 15 19  1  0  0  0  0
 15 25  2  0  0  0  0
 16 21  1  0  0  0  0
 17 18  1  0  0  0  0
 18 23  1  1  0  0  0
 18 26  1  0  0  0  0
 19 24  1  0  0  0  0
 19 29  2  0  0  0  0
 22 26  1  0  0  0  0
 25 27  1  0  0  0  0
 27 21  1  1  0  0  0
 27 28  1  0  0  0  0
 28 30  1  0  0  0  0
 29 30  1  0  0  0  0
M  END
$$$$

 OpenBabel10082411353D

 30 35  0  0  0  0  0  0  0  0999 V2000
   11.6836    6.0105   -4.8831 C   0  0  0  0  0  0  0  0  0  0  0  0
   11.9279    6.9038   -3.8792 C   0  0  0  0  0  0  0  0  0  0  0  0
   11.9719    8.3126   -4.1286 C   0  0  0  0  0  0  0  0  0  0  0  0
   11.3811    6.5964   -6.0845 C   0  0  0  0  0  0  0  0  0  0  0  0
   11.0420    5.6445   -7.1434 C   0  0  1  0  0  0  0  0  0  0  0  0
   11.3536    7.9055   -6.3870 C   0  0  0  0  0  0  0  0  0  0  0  0
    9.8569    4.8089   -7.0560 C   0  0  0  0  0  0  0  0  0  0  0  0
   11.5991    8.8196   -5.3527 C   0  0  0  0  0  0  0  0  0  0  0  0
   11.5316   10.2233   -5.5794 F   0  0  0  0  0  0  0  0  0  0  0  0
   10.9798    8.5285   -7.6795 C   0  0  0  0  0  0  0  0  0  0  0  0
   10.6556    6.3745   -8.5461 C   0  0  0  0  0  0  0  0  0  0  0  0
    9.6410    3.9438   -8.1044 C   0  0  0  0  0  0  0  0  0  0  0  0
   11.0669    7.6169   -8.7871 N   0  0  0  0  0  0  0  0  0  0  0  0
    9.9214    5.7500   -9.4200 C   0  0  0  0  0  0  0  0  0  0  0  0
   12.1374    7.7991   -9.6010 C   0  0  0  0  0  0  0  0  0  0  0  0
   13.3966    8.0702   -9.2678 O   0  0  0  0  0  0  0  0  0  0  0  0
   11.9065    8.1067  -10.9940 C   0  0  0  0  0  0  0  0  0  0  0  0
   11.5891    6.9407  -11.8496 C   0  0  1  0  0  0  0  0  0  0  0  0
    9.6383    6.5905  -10.7511 C   0  0  0  0  0  0  0  0  0  0  0  0
   10.3417    6.3234  -11.9172 N   0  0  0  0  0  0  0  0  0  0  0  0
    9.1610    4.6231   -9.2679 C   0  0  0  0  0  0  0  0  0  0  0  0
   10.0460    5.1982  -12.4989 C   0  0  0  0  0  0  0  0  0  0  0  0
   10.8981    4.6542  -13.4877 C   0  0  0  0  0  0  0  0  0  0  0  0
   11.5282    5.4948  -14.3618 C   0  0  0  0  0  0  0  0  0  0  0  0
   10.9982    3.2780  -13.6504 C   0  0  0  0  0  0  0  0  0  0  0  0
    9.0509    4.4032  -12.0961 O   0  0  0  0  0  0  0  0  0  0  0  0
   11.4776    6.9477  -14.3020 C   0  0  0  0  0  0  0  0  0  0  0  0
   12.1652    7.2666  -13.2770 C   0  0  0  0  0  0  0  0  0  0  0  0
   11.8713    4.6871  -15.4587 C   0  0  0  0  0  0  0  0  0  0  0  0
   11.7008    3.1094  -15.0358 S   0  0  0  0  0  0  0  0  0  0  0  0
  1  2  1  0  0  0  0
  1  4  2  0  0  0  0
  2  3  2  0  0  0  0
  3  8  1  0  0  0  0
  4  5  1  0  0  0  0
  4  6  1  0  0  0  0
  5  7  1  1  0  0  0
  5 11  1  0  0  0  0
  6  8  2  0  0  0  0
  6 10  1  0  0  0  0
  7 12  1  0  0  0  0
  8  9  1  0  0  0  0
 10 13  1  0  0  0  0
 11 13  1  0  0  0  0
 11 14  2  0  0  0  0
 12 21  1  0  0  0  0
 13 15  1  0  0  0  0
 14 19  1  0  0  0  0
 14 21  1  0  0  0  0
 15 16  2  0  0  0  0
 15 17  1  0  0  0  0
 18 17  1  1  0  0  0
 18 20  1  0  0  0  0
 18 28  1  0  0  0  0
 19 20  1  0  0  0  0
 20 22  1  0  0  0  0
 22 23  1  0  0  0  0
 22 26  2  0  0  0  0
 23 24  1  0  0  0  0
 23 25  2  0  0  0  0
 24 27  1  0  0  0  0
 24 29  2  0  0  0  0
 25 30  1  0  0  0  0
 27 28  1  0  0  0  0
 29 30  1  0  0  0  0
M  END
$$$$

 OpenBabel10082411353D

 30 34  0  0  0  0  0  0  0  0999 V2000
   10.5338    9.5630   -5.0683 C   0  0  0  0  0  0  0  0  0  0  0  0
   11.6326    9.3232   -4.4343 C   0  0  0  0  0  0  0  0  0  0  0  0
   10.1175    8.4558   -5.9583 O   0  0  0  0  0  0  0  0  0  0  0  0
   11.2137    7.9307   -6.4519 C   0  0  1  0  0  0  0  0  0  0  0  0
   12.3805    8.4362   -5.4668 C   0  0  0  0  0  0  0  0  0  0  0  0
   11.1829    6.4410   -6.3835 C   0  0  0  0  0  0  0  0  0  0  0  0
   11.5307    8.4278   -7.8431 C   0  0  0  0  0  0  0  0  0  0  0  0
   10.9695    7.6928   -8.9182 C   0  0  0  0  0  0  0  0  0  0  0  0
   10.6724    8.2768  -10.0336 C   0  0  0  0  0  0  0  0  0  0  0  0
   10.0385    7.4564  -11.1366 C   0  0  0  0  0  0  0  0  0  0  0  0
   10.1397    6.1099  -11.1838 C   0  0  0  0  0  0  0  0  0  0  0  0
    9.3255    8.2273  -12.2243 C   0  0  0  0  0  0  0  0  0  0  0  0
    8.1145    8.9106  -11.7538 C   0  0  0  0  0  0  0  0  0  0  0  0
   10.4444    5.4278  -10.0118 C   0  0  0  0  0  0  0  0  0  0  0  0
   10.9789    6.1875   -8.8320 C   0  0  0  0  0  0  0  0  0  0  0  0
   11.0092    5.6276   -7.5622 C   0  0  0  0  0  0  0  0  0  0  0  0
   11.2416    5.7595   -5.1973 C   0  0  0  0  0  0  0  0  0  0  0  0
   10.0090    5.3078  -12.3223 C   0  0  0  0  0  0  0  0  0  0  0  0
    8.8572    4.8126  -12.7440 C   0  0  0  0  0  0  0  0  0  0  0  0
    7.6539    4.8277  -11.8878 C   0  0  0  0  0  0  0  0  0  0  0  0
    6.5993    4.0597  -12.4150 C   0  0  0  0  0  0  0  0  0  0  0  0
   11.0688    5.1801  -13.2435 C   0  0  0  0  0  0  0  0  0  0  0  0
   11.0112    4.0193  -14.0931 C   0  0  0  0  0  0  0  0  0  0  0  0
    7.4000    5.7083  -10.8094 O   0  0  0  0  0  0  0  0  0  0  0  0
    8.6442    3.7866  -13.6573 C   0  0  0  0  0  0  0  0  0  0  0  0
   12.2025    3.8290  -15.0188 C   0  0  0  0  0  0  0  0  0  0  0  0
    7.5644    3.1165  -13.9421 C   0  0  0  0  0  0  0  0  0  0  0  0
    9.6617    3.5620  -14.4827 C   0  0  0  0  0  0  0  0  0  0  0  0
    7.5294    2.1819  -15.1077 O   0  0  0  0  0  0  0  0  0  0  0  0
    6.4430    3.2643  -13.2797 C   0  0  0  0  0  0  0  0  0  0  0  0
  1  2  1  0  0  0  0
  1  3  1  0  0  0  0
  2  5  1  0  0  0  0
  3  4  1  0  0  0  0
  4  5  1  1  0  0  0
  4  6  1  0  0  0  0
  4  7  1  0  0  0  0
  6 16  2  0  0  0  0
  6 17  1  0  0  0  0
  7  8  1  0  0  0  0
  8  9  2  0  0  0  0
  8 15  1  0  0  0  0
  9 10  1  0  0  0  0
 10 11  2  0  0  0  0
 10 12  1  0  0  0  0
 11 14  1  0  0  0  0
 11 18  1  0  0  0  0
 12 13  1  0  0  0  0
 14 15  2  0  0  0  0
 15 16  1  0  0  0  0
 18 19  2  0  0  0  0
 18 22  1  0  0  0  0
 19 20  1  0  0  0  0
 19 25  1  0  0  0  0
 20 21  2  0  0  0  0
 20 24  1  0  0  0  0
 21 30  1  0  0  0  0
 22 23  2  0  0  0  0
 23 26  1  0  0  0  0
 23 28  1  0  0  0  0
 25 27  1  0  0  0  0
 25 28  2  0  0  0  0
 27 29  1  0  0  0  0
 27 30  2  0  0  0  0
M  END
$$$$

 OpenBabel10082411353D

 30 33  0  0  0  0  0  0  0  0999 V2000
   11.6836    6.0105   -4.8831 C   0  0  0  0  0  0  0  0  0  0  0  0
   11.1291    7.0732   -5.4395 C   0  0  0  0  0  0  0  0  0  0  0  0
   10.6954    7.0156   -6.8073 C   0  0  0  0  0  0  0  0  0  0  0  0
   10.2502    8.1187   -7.5536 C   0  0  2  0  0  0  0  0  0  0  0  0
   11.1205    8.4712   -4.9629 C   0  0  0  0  0  0  0  0  0  0  0  0
   10.8655    8.3511   -8.7960 C   0  0  0  0  0  0  0  0  0  0  0  0
   10.2922    7.8843   -9.9985 C   0  0  0  0  0  0  0  0  0  0  0  0
   10.4654    9.6993   -5.6120 C   0  0  0  0  0  0  0  0  0  0  0  0
   10.3510    9.5971   -7.0014 C   0  0  0  0  0  0  0  0  0  0  0  0
   12.2462    6.3351   -3.5020 C   0  0  0  0  0  0  0  0  0  0  0  0
   11.0471    7.5309  -11.1063 C   0  0  0  0  0  0  0  0  0  0  0  0
   11.7288    8.6923   -3.6518 C   0  0  0  0  0  0  0  0  0  0  0  0
   12.3991    7.7501  -11.1145 C   0  0  0  0  0  0  0  0  0  0  0  0
   12.3738    7.7580   -2.9599 C   0  0  0  0  0  0  0  0  0  0  0  0
   13.1285    8.5075  -10.1661 O   0  0  0  0  0  0  0  0  0  0  0  0
    9.0407    7.3775  -10.0973 N   0  0  0  0  0  0  0  0  0  0  0  0
    8.9787    6.9473  -11.4664 N   0  0  0  0  0  0  0  0  0  0  0  0
   13.1012    7.4459  -12.3707 C   0  0  0  0  0  0  0  0  0  0  0  0
   12.2395    6.9724  -13.2444 C   0  0  0  0  0  0  0  0  0  0  0  0
   10.2768    7.0170  -11.9799 C   0  0  0  0  0  0  0  0  0  0  0  0
    7.8073    6.9028  -12.1886 C   0  0  2  0  0  0  0  0  0  0  0  0
   10.8782    6.7325  -13.1253 C   0  0  0  0  0  0  0  0  0  0  0  0
    7.0194    7.9782  -12.2466 C   0  0  0  0  0  0  0  0  0  0  0  0
    7.2856    5.6605  -11.9799 C   0  0  0  0  0  0  0  0  0  0  0  0
    7.3493    4.6562  -13.0783 C   0  0  2  0  0  0  0  0  0  0  0  0
    6.7613    3.4938  -12.8195 C   0  0  0  0  0  0  0  0  0  0  0  0
    8.7500    4.5302  -13.3739 O   0  0  0  0  0  0  0  0  0  0  0  0
    9.0996    4.1741  -14.7091 C   0  0  0  0  0  0  0  0  0  0  0  0
    9.6657    2.7851  -14.6303 C   0  0  0  0  0  0  0  0  0  0  0  0
   11.0379    2.6627  -14.1827 C   0  0  0  0  0  0  0  0  0  0  0  0
  1  2  1  0  0  0  0
  1 10  2  0  0  0  0
  2  3  1  0  0  0  0
  2  5  2  0  0  0  0
  3  4  1  0  0  0  0
  4  6  1  6  0  0  0
  4  9  1  0  0  0  0
  5  8  1  0  0  0  0
  5 12  1  0  0  0  0
  6  7  1  0  0  0  0
  7 11  1  0  0  0  0
  7 16  2  0  0  0  0
  8  9  1  0  0  0  0
 10 14  1  0  0  0  0
 11 13  2  0  0  0  0
 11 20  1  0  0  0  0
 12 14  2  0  0  0  0
 13 15  1  0  0  0  0
 13 18  1  0  0  0  0
 16 17  1  0  0  0  0
 17 20  1  0  0  0  0
 17 21  1  0  0  0  0
 18 19  2  0  0  0  0
 19 22  1  0  0  0  0
 20 22  2  0  0  0  0
 21 23  1  1  0  0  0
 21 24  1  0  0  0  0
 24 25  1  0  0  0  0
 25 26  1  1  0  0  0
 25 27  1  0  0  0  0
 27 28  1  0  0  0  0
 28 29  1  0  0  0  0
 29 30  1  0  0  0  0
M  END
$$$$

 OpenBabel10082411353D

 30 34  0  0  0  0  0  0  0  0999 V2000
   12.8881    8.7759   -3.5681 C   0  0  0  0  0  0  0  0  0  0  0  0
   11.9416    9.4732   -4.1220 C   0  0  0  0  0  0  0  0  0  0  0  0
   12.1782    9.3707   -5.6407 C   0  0  0  0  0  0  0  0  0  0  0  0
   11.3825    8.3447   -6.3966 C   0  0  0  0  0  0  0  0  0  0  0  0
   11.8188    8.0044   -7.6822 C   0  0  0  0  0  0  0  0  0  0  0  0
   10.3120    7.6600   -5.7120 C   0  0  0  0  0  0  0  0  0  0  0  0
   10.8678    7.0723   -8.2897 C   0  0  0  0  0  0  0  0  0  0  0  0
    9.5717    6.7245   -6.3809 C   0  0  0  0  0  0  0  0  0  0  0  0
    9.8820    6.4468   -7.7081 C   0  0  0  0  0  0  0  0  0  0  0  0
   11.2611    6.6953   -9.7105 C   0  0  1  0  0  0  0  0  0  0  0  0
   10.0425    6.5460  -10.5971 C   0  0  0  0  0  0  0  0  0  0  0  0
   11.8062    7.8130  -10.4883 C   0  0  0  0  0  0  0  0  0  0  0  0
    8.8746    5.5265   -8.4149 C   0  0  0  0  0  0  0  0  0  0  0  0
   13.1546    8.1022  -10.4049 O   0  0  0  0  0  0  0  0  0  0  0  0
   10.3114    6.7627  -11.8786 C   0  0  0  0  0  0  0  0  0  0  0  0
   11.3906    7.6694  -11.8036 N   0  0  0  0  0  0  0  0  0  0  0  0
   11.9779    8.2398  -13.0316 C   0  0  0  0  0  0  0  0  0  0  0  0
    8.8154    6.0162   -9.9613 C   0  0  0  0  0  0  0  0  0  0  0  0
    9.6102    6.3636  -13.0859 C   0  0  0  0  0  0  0  0  0  0  0  0
   11.8804    7.4718  -14.1937 C   0  0  0  0  0  0  0  0  0  0  0  0
   10.7017    6.3981  -14.2482 C   0  0  0  0  0  0  0  0  0  0  0  0
   10.3813    5.8427  -15.4547 C   0  0  2  0  0  0  0  0  0  0  0  0
    9.2579    5.0507  -15.6184 C   0  0  0  0  0  0  0  0  0  0  0  0
   11.6009    5.0735  -15.6795 C   0  0  0  0  0  0  0  0  0  0  0  0
    9.6578    3.6391  -15.4657 C   0  0  0  0  0  0  0  0  0  0  0  0
    8.8471    2.6298  -15.1475 C   0  0  0  0  0  0  0  0  0  0  0  0
    7.4652    2.8228  -14.8567 C   0  0  0  0  0  0  0  0  0  0  0  0
    9.4580    1.3364  -14.8006 C   0  0  0  0  0  0  0  0  0  0  0  0
   11.1304    3.5102  -15.7610 C   0  0  0  0  0  0  0  0  0  0  0  0
    6.8411    2.1005  -13.6906 C   0  0  0  0  0  0  0  0  0  0  0  0
  1  2  1  0  0  0  0
  2  3  1  0  0  0  0
  3  4  1  0  0  0  0
  4  5  2  0  0  0  0
  4  6  1  0  0  0  0
  5  7  1  0  0  0  0
  6  8  2  0  0  0  0
  7  9  2  0  0  0  0
  8  9  1  0  0  0  0
  9 13  1  0  0  0  0
 10  7  1  1  0  0  0
 10 11  1  0  0  0  0
 10 12  1  0  0  0  0
 11 15  2  0  0  0  0
 11 18  1  0  0  0  0
 12 14  2  0  0  0  0
 12 16  1  0  0  0  0
 13 18  1  0  0  0  0
 15 16  1  0  0  0  0
 15 19  1  0  0  0  0
 16 17  1  0  0  0  0
 17 20  1  0  0  0  0
 19 21  1  0  0  0  0
 20 21  2  0  0  0  0
 22 21  1  1  0  0  0
 22 23  1  0  0  0  0
 22 24  1  0  0  0  0
 23 25  1  0  0  0  0
 24 29  1  0  0  0  0
 25 26  2  3  0  0  0
 25 29  1  0  0  0  0
 26 27  1  0  0  0  0
 26 28  1  0  0  0  0
 27 30  1  0  0  0  0
M  END
$$$$

 OpenBabel10082411353D

 30 32  0  0  0  0  0  0  0  0999 V2000
   10.9951    9.9694   -4.9946 C   0  0  0  0  0  0  0  0  0  0  0  0
   11.7938    9.3762   -4.2463 C   0  0  0  0  0  0  0  0  0  0  0  0
   10.8673    9.4548   -6.4276 C   0  0  0  0  0  0  0  0  0  0  0  0
   11.6576    7.9117   -4.2944 C   0  0  0  0  0  0  0  0  0  0  0  0
   10.5498    8.0257   -6.4521 C   0  0  0  0  0  0  0  0  0  0  0  0
   11.4715    7.2752   -5.6166 C   0  0  0  0  0  0  0  0  0  0  0  0
   10.5840    7.5390   -7.9254 C   0  0  0  0  0  0  0  0  0  0  0  0
   11.4612    8.1494   -8.8322 C   0  0  0  0  0  0  0  0  0  0  0  0
   12.6250    8.6294   -8.4338 O   0  0  0  0  0  0  0  0  0  0  0  0
   11.0835    8.4395  -10.0740 O   0  0  0  0  0  0  0  0  0  0  0  0
   11.2938    7.5612  -11.0769 C   0  0  0  0  0  0  0  0  0  0  0  0
   10.1547    7.2525  -11.9492 C   0  0  0  0  0  0  0  0  0  0  0  0
   10.4293    6.5622  -13.1348 C   0  0  0  0  0  0  0  0  0  0  0  0
   11.7295    6.4217  -13.6243 C   0  0  0  0  0  0  0  0  0  0  0  0
    8.8120    7.3918  -11.4649 C   0  0  0  0  0  0  0  0  0  0  0  0
   12.5351    7.8894  -11.6869 C   0  0  0  0  0  0  0  0  0  0  0  0
   13.5778    8.4243  -10.9673 O   0  0  0  0  0  0  0  0  0  0  0  0
    7.7211    7.1761  -12.4323 C   0  0  0  0  0  0  0  0  0  0  0  0
   12.8103    7.0723  -12.8897 C   0  0  0  0  0  0  0  0  0  0  0  0
    7.0543    5.9667  -12.3369 C   0  0  0  0  0  0  0  0  0  0  0  0
    7.2392    8.1844  -13.1320 C   0  0  0  0  0  0  0  0  0  0  0  0
   12.0288    5.6463  -14.9695 C   0  0  0  0  0  0  0  0  0  0  0  0
   12.1531    6.3362  -16.0124 C   0  0  0  0  0  0  0  0  0  0  0  0
   12.1104    7.7782  -16.1296 C   0  0  0  0  0  0  0  0  0  0  0  0
   12.2469    5.5558  -17.3031 C   0  0  0  0  0  0  0  0  0  0  0  0
   12.3775    4.3174  -14.8523 C   0  0  0  0  0  0  0  0  0  0  0  0
   12.4336    4.2065  -17.2211 C   0  0  0  0  0  0  0  0  0  0  0  0
   12.3878    3.5625  -15.9652 C   0  0  0  0  0  0  0  0  0  0  0  0
    6.3022    5.6284  -13.3367 O   0  0  0  0  0  0  0  0  0  0  0  0
    7.2929    5.2074  -11.3512 O   0  0  0  0  0  0  0  0  0  0  0  0
  1  2  1  0  0  0  0
  1  3  1  0  0  0  0
  2  4  1  0  0  0  0
  3  5  1  0  0  0  0
  4  6  1  0  0  0  0
  5  6  1  0  0  0  0
  5  7  1  0  0  0  0
  7  8  1  0  0  0  0
  8  9  2  0  0  0  0
  8 10  1  0  0  0  0
 10 11  1  0  0  0  0
 11 12  1  0  0  0  0
 11 16  2  0  0  0  0
 12 13  2  0  0  0  0
 12 15  1  0  0  0  0
 13 14  1  0  0  0  0
 14 19  2  0  0  0  0
 14 22  1  0  0  0  0
 15 18  1  0  0  0  0
 16 17  1  0  0  0  0
 16 19  1  0  0  0  0
 18 20  1  0  0  0  0
 18 21  2  0  0  0  0
 20 29  2  0  0  0  0
 20 30  1  0  0  0  0
 22 23  2  0  0  0  0
 22 26  1  0  0  0  0
 23 24  1  0  0  0  0
 23 25  1  0  0  0  0
 25 27  2  0  0  0  0
 26 28  2  0  0  0  0
 27 28  1  0  0  0  0
M  END
$$$$

 OpenBabel10082411353D

 30 32  0  0  0  0  0  0  0  0999 V2000
   10.9951    9.9694   -4.9946 C   0  0  0  0  0  0  0  0  0  0  0  0
   11.7938    9.3762   -4.2463 C   0  0  0  0  0  0  0  0  0  0  0  0
   10.8673    9.4548   -6.4276 C   0  0  0  0  0  0  0  0  0  0  0  0
   11.6576    7.9117   -4.2944 C   0  0  0  0  0  0  0  0  0  0  0  0
   10.5498    8.0257   -6.4521 C   0  0  0  0  0  0  0  0  0  0  0  0
   11.4715    7.2752   -5.6166 C   0  0  0  0  0  0  0  0  0  0  0  0
   10.5840    7.5390   -7.9254 C   0  0  0  0  0  0  0  0  0  0  0  0
   11.4612    8.1494   -8.8322 C   0  0  0  0  0  0  0  0  0  0  0  0
   12.6250    8.6294   -8.4338 O   0  0  0  0  0  0  0  0  0  0  0  0
   11.0835    8.4395  -10.0740 O   0  0  0  0  0  0  0  0  0  0  0  0
   11.2938    7.5612  -11.0769 C   0  0  0  0  0  0  0  0  0  0  0  0
   10.1547    7.2525  -11.9492 C   0  0  0  0  0  0  0  0  0  0  0  0
   10.4293    6.5622  -13.1348 C   0  0  0  0  0  0  0  0  0  0  0  0
   11.7295    6.4217  -13.6243 C   0  0  0  0  0  0  0  0  0  0  0  0
    8.8120    7.3918  -11.4649 C   0  0  0  0  0  0  0  0  0  0  0  0
   12.5351    7.8894  -11.6869 C   0  0  0  0  0  0  0  0  0  0  0  0
   13.5778    8.4243  -10.9673 O   0  0  0  0  0  0  0  0  0  0  0  0
    7.7211    7.1761  -12.4323 C   0  0  0  0  0  0  0  0  0  0  0  0
   12.8103    7.0723  -12.8897 C   0  0  0  0  0  0  0  0  0  0  0  0
   12.0436    5.6071  -14.9340 C   0  0  0  0  0  0  0  0  0  0  0  0
    7.0836    5.9395  -12.4265 C   0  0  0  0  0  0  0  0  0  0  0  0
   12.2310    6.2743  -15.9354 C   0  0  0  0  0  0  0  0  0  0  0  0
   12.2496    7.7239  -16.0557 F   0  0  0  0  0  0  0  0  0  0  0  0
   12.2911    4.2530  -14.7118 C   0  0  0  0  0  0  0  0  0  0  0  0
   12.5437    5.6186  -17.1528 C   0  0  0  0  0  0  0  0  0  0  0  0
    6.4460    5.5498  -11.4788 O   0  0  0  0  0  0  0  0  0  0  0  0
    7.6157    5.0197  -13.3302 O   0  0  0  0  0  0  0  0  0  0  0  0
    7.2424    3.6606  -13.2423 C   0  0  0  0  0  0  0  0  0  0  0  0
   12.6028    4.2216  -17.0644 C   0  0  0  0  0  0  0  0  0  0  0  0
   12.3673    3.5356  -15.8720 C   0  0  0  0  0  0  0  0  0  0  0  0
  1  2  1  0  0  0  0
  1  3  1  0  0  0  0
  2  4  1  0  0  0  0
  3  5  1  0  0  0  0
  4  6  1  0  0  0  0
  5  6  1  0  0  0  0
  5  7  1  0  0  0  0
  7  8  1  0  0  0  0
  8  9  2  0  0  0  0
  8 10  1  0  0  0  0
 10 11  1  0  0  0  0
 11 12  1  0  0  0  0
 11 16  2  0  0  0  0
 12 13  2  0  0  0  0
 12 15  1  0  0  0  0
 13 14  1  0  0  0  0
 14 19  2  0  0  0  0
 14 20  1  0  0  0  0
 15 18  1  0  0  0  0
 16 17  1  0  0  0  0
 16 19  1  0  0  0  0
 18 21  1  0  0  0  0
 20 22  2  0  0  0  0
 20 24  1  0  0  0  0
 21 26  2  0  0  0  0
 21 27  1  0  0  0  0
 22 23  1  0  0  0  0
 22 25  1  0  0  0  0
 24 30  2  0  0  0  0
 25 29  2  0  0  0  0
 27 28  1  0  0  0  0
 29 30  1  0  0  0  0
M  END
$$$$

 OpenBabel10082411353D

 30 33  0  0  0  0  0  0  0  0999 V2000
   10.5338    9.5630   -5.0683 C   0  0  0  0  0  0  0  0  0  0  0  0
   11.6326    9.3232   -4.4343 C   0  0  0  0  0  0  0  0  0  0  0  0
   10.1175    8.4558   -5.9583 O   0  0  0  0  0  0  0  0  0  0  0  0
   11.2137    7.9307   -6.4519 C   0  0  1  0  0  0  0  0  0  0  0  0
   12.3805    8.4362   -5.4668 C   0  0  0  0  0  0  0  0  0  0  0  0
   11.1829    6.4410   -6.3835 C   0  0  0  0  0  0  0  0  0  0  0  0
   11.5307    8.4278   -7.8431 C   0  0  0  0  0  0  0  0  0  0  0  0
   10.9695    7.6928   -8.9182 C   0  0  0  0  0  0  0  0  0  0  0  0
   10.6724    8.2768  -10.0336 C   0  0  0  0  0  0  0  0  0  0  0  0
   10.0385    7.4564  -11.1366 C   0  0  0  0  0  0  0  0  0  0  0  0
   10.1397    6.1099  -11.1838 C   0  0  0  0  0  0  0  0  0  0  0  0
    9.3255    8.2273  -12.2243 C   0  0  0  0  0  0  0  0  0  0  0  0
    8.1145    8.9106  -11.7538 C   0  0  0  0  0  0  0  0  0  0  0  0
   10.4444    5.4278  -10.0118 C   0  0  0  0  0  0  0  0  0  0  0  0
   10.9789    6.1875   -8.8320 C   0  0  0  0  0  0  0  0  0  0  0  0
   11.2250    5.6168   -7.5866 C   0  0  0  0  0  0  0  0  0  0  0  0
    9.5926    5.1489  -12.1900 C   0  0  0  0  0  0  0  0  0  0  0  0
    8.3818    4.7973  -12.4219 C   0  0  0  0  0  0  0  0  0  0  0  0
   10.6536    4.7130  -13.0933 C   0  0  0  0  0  0  0  0  0  0  0  0
    7.3334    5.1704  -11.3902 C   0  0  0  0  0  0  0  0  0  0  0  0
    8.2200    3.9214  -13.3882 C   0  0  0  0  0  0  0  0  0  0  0  0
    6.2242    4.7346  -11.6188 O   0  0  0  0  0  0  0  0  0  0  0  0
    6.7603    3.4184  -13.6559 O   0  0  0  0  0  0  0  0  0  0  0  0
    6.7347    2.0241  -13.6053 C   0  0  0  0  0  0  0  0  0  0  0  0
    7.5263    5.8629  -10.3725 O   0  0  0  0  0  0  0  0  0  0  0  0
   10.3754    3.9039  -14.1236 C   0  0  0  0  0  0  0  0  0  0  0  0
    9.0960    3.4892  -14.2677 C   0  0  0  0  0  0  0  0  0  0  0  0
   11.4374    3.4976  -14.9613 C   0  0  0  0  0  0  0  0  0  0  0  0
   11.3702    2.4392  -15.6188 O   0  0  0  0  0  0  0  0  0  0  0  0
   12.6061    4.0243  -14.9495 O   0  0  0  0  0  0  0  0  0  0  0  0
  1  2  1  0  0  0  0
  1  3  1  0  0  0  0
  2  5  1  0  0  0  0
  3  4  1  0  0  0  0
  4  5  1  1  0  0  0
  4  6  1  0  0  0  0
  4  7  1  0  0  0  0
  6 16  1  0  0  0  0
  7  8  1  0  0  0  0
  8  9  2  0  0  0  0
  8 15  1  0  0  0  0
  9 10  1  0  0  0  0
 10 11  2  0  0  0  0
 10 12  1  0  0  0  0
 11 14  1  0  0  0  0
 11 17  1  0  0  0  0
 12 13  1  0  0  0  0
 14 15  2  0  0  0  0
 15 16  1  0  0  0  0
 17 18  1  0  0  0  0
 17 19  2  0  0  0  0
 18 20  1  0  0  0  0
 18 21  2  0  0  0  0
 19 26  1  0  0  0  0
 20 22  2  0  0  0  0
 20 25  1  0  0  0  0
 21 23  1  0  0  0  0
 21 27  1  0  0  0  0
 23 24  1  0  0  0  0
 26 27  2  0  0  0  0
 26 28  1  0  0  0  0
 28 29  2  0  0  0  0
 28 30  1  0  0  0  0
M  END
$$$$

 OpenBabel10082411353D

 30 34  0  0  0  0  0  0  0  0999 V2000
   11.6836    6.0105   -4.8831 C   0  0  0  0  0  0  0  0  0  0  0  0
   11.1291    7.0732   -5.4395 C   0  0  0  0  0  0  0  0  0  0  0  0
   10.6954    7.0156   -6.8073 C   0  0  0  0  0  0  0  0  0  0  0  0
   10.2502    8.1187   -7.5536 C   0  0  2  0  0  0  0  0  0  0  0  0
   11.1205    8.4712   -4.9629 C   0  0  0  0  0  0  0  0  0  0  0  0
   10.8655    8.3511   -8.7960 C   0  0  0  0  0  0  0  0  0  0  0  0
   10.2922    7.8843   -9.9985 C   0  0  0  0  0  0  0  0  0  0  0  0
   10.4654    9.6993   -5.6120 C   0  0  0  0  0  0  0  0  0  0  0  0
   10.3510    9.5971   -7.0014 C   0  0  0  0  0  0  0  0  0  0  0  0
   12.2462    6.3351   -3.5020 C   0  0  0  0  0  0  0  0  0  0  0  0
   11.0471    7.5309  -11.1063 C   0  0  0  0  0  0  0  0  0  0  0  0
   11.7288    8.6923   -3.6518 C   0  0  0  0  0  0  0  0  0  0  0  0
   12.3991    7.7501  -11.1145 C   0  0  0  0  0  0  0  0  0  0  0  0
   12.3738    7.7580   -2.9599 C   0  0  0  0  0  0  0  0  0  0  0  0
   13.1285    8.5075  -10.1661 O   0  0  0  0  0  0  0  0  0  0  0  0
    9.0407    7.3775  -10.0973 N   0  0  0  0  0  0  0  0  0  0  0  0
    8.9787    6.9473  -11.4664 N   0  0  0  0  0  0  0  0  0  0  0  0
   13.1012    7.4459  -12.3707 C   0  0  0  0  0  0  0  0  0  0  0  0
   12.2395    6.9724  -13.2444 C   0  0  0  0  0  0  0  0  0  0  0  0
    7.7579    6.3689  -11.9282 C   0  0  0  0  0  0  0  0  0  0  0  0
    7.4759    5.0504  -11.8148 C   0  0  0  0  0  0  0  0  0  0  0  0
   12.9541    6.5945  -14.5510 O   0  0  0  0  0  0  0  0  0  0  0  0
   12.5717    5.3751  -15.0924 C   0  0  0  0  0  0  0  0  0  0  0  0
   10.2361    7.0379  -12.0113 C   0  0  0  0  0  0  0  0  0  0  0  0
    6.8832    7.1727  -12.5447 C   0  0  0  0  0  0  0  0  0  0  0  0
   10.8202    6.6680  -13.2526 C   0  0  0  0  0  0  0  0  0  0  0  0
    5.7591    6.5985  -13.0640 C   0  0  0  0  0  0  0  0  0  0  0  0
    5.7522    5.1236  -12.8513 C   0  0  0  0  0  0  0  0  0  0  0  0
    8.7017    4.3184  -11.1479 F   0  0  0  0  0  0  0  0  0  0  0  0
    6.7028    4.3826  -12.3155 C   0  0  0  0  0  0  0  0  0  0  0  0
  1  2  1  0  0  0  0
  1 10  2  0  0  0  0
  2  3  1  0  0  0  0
  2  5  2  0  0  0  0
  3  4  1  0  0  0  0
  4  6  1  6  0  0  0
  4  9  1  0  0  0  0
  5  8  1  0  0  0  0
  5 12  1  0  0  0  0
  6  7  1  0  0  0  0
  7 11  1  0  0  0  0
  7 16  2  0  0  0  0
  8  9  1  0  0  0  0
 10 14  1  0  0  0  0
 11 13  2  0  0  0  0
 11 24  1  0  0  0  0
 12 14  2  0  0  0  0
 13 15  1  0  0  0  0
 13 18  1  0  0  0  0
 16 17  1  0  0  0  0
 17 20  1  0  0  0  0
 17 24  1  0  0  0  0
 18 19  2  0  0  0  0
 19 22  1  0  0  0  0
 19 26  1  0  0  0  0
 20 21  1  0  0  0  0
 20 25  2  0  0  0  0
 21 29  1  0  0  0  0
 21 30  2  0  0  0  0
 22 23  1  0  0  0  0
 24 26  2  0  0  0  0
 25 27  1  0  0  0  0
 27 28  2  0  0  0  0
 28 30  1  0  0  0  0
M  END
$$$$

 OpenBabel10082411353D

 19 20  0  0  0  0  0  0  0  0999 V2000
   12.7863    7.8241  -14.2109 C   0  0  0  0  0  0  0  0  0  0  0  0
   12.4233    7.7158  -13.0289 C   0  0  0  0  0  0  0  0  0  0  0  0
   11.3194    6.8571  -12.8028 C   0  0  0  0  0  0  0  0  0  0  0  0
   12.3150    7.2021  -15.3582 C   0  0  0  0  0  0  0  0  0  0  0  0
   11.2733    6.2739  -15.1502 C   0  0  0  0  0  0  0  0  0  0  0  0
   10.8099    6.0126  -13.8600 C   0  0  0  0  0  0  0  0  0  0  0  0
    9.6782    5.1428  -13.6488 C   0  0  0  0  0  0  0  0  0  0  0  0
    8.5753    5.3880  -12.9589 N   0  0  0  0  0  0  0  0  0  0  0  0
    8.3226    6.7011  -12.3862 C   0  0  0  0  0  0  0  0  0  0  0  0
    9.8502    3.8578  -14.0728 C   0  0  0  0  0  0  0  0  0  0  0  0
    7.3864    7.4720  -13.0530 C   0  0  0  0  0  0  0  0  0  0  0  0
    6.2412    7.8486  -12.2599 C   0  0  0  0  0  0  0  0  0  0  0  0
    7.7857    4.2778  -12.9093 N   0  0  0  0  0  0  0  0  0  0  0  0
    8.4874    3.3042  -13.5496 C   0  0  0  0  0  0  0  0  0  0  0  0
    6.4524    4.1580  -12.4975 C   0  0  0  0  0  0  0  0  0  0  0  0
    5.9785    4.9353  -11.7172 O   0  0  0  0  0  0  0  0  0  0  0  0
    5.5914    3.1796  -13.1917 C   0  0  0  0  0  0  0  0  0  0  0  0
   10.7769    3.0752  -14.8952 C   0  0  0  0  0  0  0  0  0  0  0  0
    8.0774    2.1110  -13.8527 O   0  0  0  0  0  0  0  0  0  0  0  0
  1  2  2  0  0  0  0
  1  4  1  0  0  0  0
  2  3  1  0  0  0  0
  3  6  2  0  0  0  0
  4  5  2  0  0  0  0
  5  6  1  0  0  0  0
  6  7  1  0  0  0  0
  7  8  1  0  0  0  0
  7 10  2  0  0  0  0
  8  9  1  0  0  0  0
  8 13  1  0  0  0  0
  9 11  1  0  0  0  0
 10 14  1  0  0  0  0
 10 18  1  0  0  0  0
 11 12  1  0  0  0  0
 13 14  1  0  0  0  0
 13 15  1  0  0  0  0
 14 19  2  0  0  0  0
 15 16  2  0  0  0  0
 15 17  1  0  0  0  0
M  END
$$$$

 OpenBabel10082411353D

 30 33  0  0  0  0  0  0  0  0999 V2000
   11.6836    6.0105   -4.8831 F   0  0  0  0  0  0  0  0  0  0  0  0
   11.2562    7.2206   -5.0294 C   0  0  0  0  0  0  0  0  0  0  0  0
   12.0125    8.2418   -4.4408 C   0  0  0  0  0  0  0  0  0  0  0  0
   11.1918    7.2706   -6.5237 C   0  0  0  0  0  0  0  0  0  0  0  0
   11.6999    8.4488   -3.1704 F   0  0  0  0  0  0  0  0  0  0  0  0
    9.8648    7.0908   -4.5314 F   0  0  0  0  0  0  0  0  0  0  0  0
   11.6831    8.5291   -6.9682 C   0  0  0  0  0  0  0  0  0  0  0  0
   10.4785    6.5189   -7.4033 C   0  0  0  0  0  0  0  0  0  0  0  0
   11.6979    8.6661   -8.4760 C   0  0  0  0  0  0  0  0  0  0  0  0
   11.6248    9.5853   -5.0030 C   0  0  0  0  0  0  0  0  0  0  0  0
   11.8604    9.7907   -6.2903 O   0  0  0  0  0  0  0  0  0  0  0  0
   13.3557    8.1748   -4.5947 F   0  0  0  0  0  0  0  0  0  0  0  0
   10.5427    6.6061   -8.7190 C   0  0  0  0  0  0  0  0  0  0  0  0
   11.1158    7.7103   -9.2540 C   0  0  0  0  0  0  0  0  0  0  0  0
   11.3757    7.6656  -10.5293 N   0  0  0  0  0  0  0  0  0  0  0  0
   10.7153    7.7096  -11.5405 C   0  0  0  0  0  0  0  0  0  0  0  0
   11.2483    7.4711  -12.8542 C   0  0  0  0  0  0  0  0  0  0  0  0
    9.3980    7.7820  -11.5398 C   0  0  0  0  0  0  0  0  0  0  0  0
    8.6055    7.5889  -12.6525 C   0  0  0  0  0  0  0  0  0  0  0  0
   12.7508    7.3705  -13.0162 O   0  0  0  0  0  0  0  0  0  0  0  0
   10.5299    7.1831  -13.9856 C   0  0  0  0  0  0  0  0  0  0  0  0
    7.0533    7.7371  -12.5396 C   0  0  0  0  0  0  0  0  0  0  0  0
   11.2041    6.8490  -15.2304 C   0  0  0  0  0  0  0  0  0  0  0  0
   11.6393    5.5333  -15.3864 C   0  0  0  0  0  0  0  0  0  0  0  0
    9.1955    7.2935  -13.8301 C   0  0  0  0  0  0  0  0  0  0  0  0
   12.5294    5.1116  -16.1609 C   0  0  0  0  0  0  0  0  0  0  0  0
   11.2315    4.4703  -14.3200 C   0  0  0  0  0  0  0  0  0  0  0  0
   10.2844    4.5821  -13.3000 C   0  0  0  0  0  0  0  0  0  0  0  0
   11.7671    3.2929  -14.8727 C   0  0  0  0  0  0  0  0  0  0  0  0
   12.5419    3.6251  -16.0177 O   0  0  0  0  0  0  0  0  0  0  0  0
  1  2  1  0  0  0  0
  2  3  1  0  0  0  0
  2  4  1  0  0  0  0
  2  6  1  0  0  0  0
  3  5  1  0  0  0  0
  3 10  1  0  0  0  0
  3 12  1  0  0  0  0
  4  7  1  0  0  0  0
  4  8  2  0  0  0  0
  7  9  2  0  0  0  0
  7 11  1  0  0  0  0
  8 13  1  0  0  0  0
  9 14  1  0  0  0  0
 10 11  1  0  0  0  0
 13 14  2  0  0  0  0
 14 15  1  0  0  0  0
 15 16  1  0  0  0  0
 16 17  1  0  0  0  0
 16 18  2  0  0  0  0
 17 20  1  0  0  0  0
 17 21  2  0  0  0  0
 18 19  1  0  0  0  0
 19 22  1  0  0  0  0
 19 25  2  0  0  0  0
 21 23  1  0  0  0  0
 21 25  1  0  0  0  0
 23 24  1  0  0  0  0
 24 26  2  0  0  0  0
 24 27  1  0  0  0  0
 26 30  1  0  0  0  0
 27 28  1  0  0  0  0
 27 29  2  0  0  0  0
 29 30  1  0  0  0  0
M  END
$$$$

 OpenBabel10082411353D

 31 35  0  0  0  0  0  0  0  0999 V2000
   13.2379    9.0584   -7.2681 C   0  0  0  0  0  0  0  0  0  0  0  0
   12.9396    9.3022   -5.9810 C   0  0  0  0  0  0  0  0  0  0  0  0
   12.1602    8.6694   -7.9361 C   0  0  0  0  0  0  0  0  0  0  0  0
   14.0320    9.7504   -5.0711 F   0  0  0  0  0  0  0  0  0  0  0  0
   10.9536    8.4526   -7.1212 C   0  0  1  0  0  0  0  0  0  0  0  0
   12.1901    8.3365   -9.3972 C   0  0  0  0  0  0  0  0  0  0  0  0
   11.0443    7.8367  -10.0430 C   0  0  0  0  0  0  0  0  0  0  0  0
   11.0471    8.9348   -5.8250 C   0  0  1  0  0  0  0  0  0  0  0  0
    9.5270    7.9533   -7.4234 C   0  0  2  0  0  0  0  0  0  0  0  0
    9.7802    8.7666   -5.0086 F   0  0  0  0  0  0  0  0  0  0  0  0
   11.9790    9.3452   -5.1373 C   0  0  0  0  0  0  0  0  0  0  0  0
    9.1878    6.9159   -6.7141 C   0  0  0  0  0  0  0  0  0  0  0  0
   11.1576    7.5184  -11.4190 C   0  0  0  0  0  0  0  0  0  0  0  0
    9.8595    7.5543   -8.9986 C   0  0  1  0  0  0  0  0  0  0  0  0
    9.9779    6.9809  -11.9943 C   0  0  0  0  0  0  0  0  0  0  0  0
   10.1471    6.6534  -13.4127 C   0  0  0  0  0  0  0  0  0  0  0  0
   12.3591    7.4352  -12.0563 C   0  0  0  0  0  0  0  0  0  0  0  0
    8.5551    6.8980  -11.2951 C   0  0  0  0  0  0  0  0  0  0  0  0
   12.2421    7.1981  -13.3125 C   0  0  0  0  0  0  0  0  0  0  0  0
   11.2735    6.6870  -13.9872 C   0  0  0  0  0  0  0  0  0  0  0  0
    8.1020    6.3652   -7.0525 O   0  0  0  0  0  0  0  0  0  0  0  0
   11.5320    6.1869  -15.4842 C   0  0  0  0  0  0  0  0  0  0  0  0
   11.6397    4.8187  -15.5947 N   0  0  0  0  0  0  0  0  0  0  0  0
   12.4561    4.1450  -16.1158 C   0  0  0  0  0  0  0  0  0  0  0  0
    7.4695    7.1268  -12.0510 C   0  0  0  0  0  0  0  0  0  0  0  0
    8.8254    7.8833  -10.0839 C   0  0  0  0  0  0  0  0  0  0  0  0
    8.3724    5.4984  -10.6706 C   0  0  0  0  0  0  0  0  0  0  0  0
   11.0627    4.0288  -14.3660 C   0  0  0  0  0  0  0  0  0  0  0  0
   10.4357    2.7283  -14.8504 C   0  0  0  0  0  0  0  0  0  0  0  0
   11.7714    2.8753  -16.6463 C   0  0  0  0  0  0  0  0  0  0  0  0
   11.3350    2.0358  -15.6075 O   0  0  0  0  0  0  0  0  0  0  0  0
  1  2  1  0  0  0  0
  1  3  2  0  0  0  0
  2  4  1  0  0  0  0
  2 11  2  0  0  0  0
  3  6  1  0  0  0  0
  5  3  1  6  0  0  0
  5  8  1  0  0  0  0
  5  9  1  0  0  0  0
  6  7  2  0  0  0  0
  7 13  1  0  0  0  0
  7 14  1  0  0  0  0
  8 10  1  1  0  0  0
  8 11  1  0  0  0  0
  9 12  1  1  0  0  0
  9 14  1  0  0  0  0
 12 21  1  0  0  0  0
 13 15  2  0  0  0  0
 13 17  1  0  0  0  0
 14 26  1  6  0  0  0
 15 16  1  0  0  0  0
 15 18  1  0  0  0  0
 16 20  2  0  0  0  0
 17 19  2  0  0  0  0
 18 25  1  0  0  0  0
 18 26  1  0  0  0  0
 18 27  1  0  0  0  0
 19 20  1  0  0  0  0
 20 22  1  0  0  0  0
 22 23  1  0  0  0  0
 23 24  1  0  0  0  0
 23 28  1  0  0  0  0
 24 30  1  0  0  0  0
 28 29  1  0  0  0  0
 29 31  1  0  0  0  0
 30 31  1  0  0  0  0
M  END
$$$$

 OpenBabel10082411353D

 31 35  0  0  0  0  0  0  0  0999 V2000
   13.2379    9.0584   -7.2681 C   0  0  0  0  0  0  0  0  0  0  0  0
   12.9396    9.3022   -5.9810 C   0  0  0  0  0  0  0  0  0  0  0  0
   12.1602    8.6694   -7.9361 C   0  0  0  0  0  0  0  0  0  0  0  0
   14.0320    9.7504   -5.0711 F   0  0  0  0  0  0  0  0  0  0  0  0
   10.9536    8.4526   -7.1212 C   0  0  1  0  0  0  0  0  0  0  0  0
   12.1901    8.3365   -9.3972 C   0  0  0  0  0  0  0  0  0  0  0  0
   11.0443    7.8367  -10.0430 C   0  0  0  0  0  0  0  0  0  0  0  0
   11.0471    8.9348   -5.8250 C   0  0  1  0  0  0  0  0  0  0  0  0
    9.5270    7.9533   -7.4234 C   0  0  2  0  0  0  0  0  0  0  0  0
    9.7802    8.7666   -5.0086 F   0  0  0  0  0  0  0  0  0  0  0  0
   11.9790    9.3452   -5.1373 C   0  0  0  0  0  0  0  0  0  0  0  0
    9.1878    6.9159   -6.7141 C   0  0  0  0  0  0  0  0  0  0  0  0
   11.1576    7.5184  -11.4190 C   0  0  0  0  0  0  0  0  0  0  0  0
    9.8595    7.5543   -8.9986 C   0  0  1  0  0  0  0  0  0  0  0  0
    9.9779    6.9809  -11.9943 C   0  0  0  0  0  0  0  0  0  0  0  0
   10.1471    6.6534  -13.4127 C   0  0  0  0  0  0  0  0  0  0  0  0
   12.3591    7.4352  -12.0563 C   0  0  0  0  0  0  0  0  0  0  0  0
    8.5551    6.8980  -11.2951 C   0  0  0  0  0  0  0  0  0  0  0  0
   12.2421    7.1981  -13.3125 C   0  0  0  0  0  0  0  0  0  0  0  0
   11.2735    6.6870  -13.9872 C   0  0  0  0  0  0  0  0  0  0  0  0
    8.1020    6.3652   -7.0525 O   0  0  0  0  0  0  0  0  0  0  0  0
   11.5320    6.1869  -15.4842 C   0  0  0  0  0  0  0  0  0  0  0  0
   11.6397    4.8187  -15.5947 N   0  0  0  0  0  0  0  0  0  0  0  0
   11.7429    6.9569  -16.3970 O   0  0  0  0  0  0  0  0  0  0  0  0
    7.4751    7.1542  -12.0464 C   0  0  0  0  0  0  0  0  0  0  0  0
    8.2319    5.5999  -10.6213 C   0  0  0  0  0  0  0  0  0  0  0  0
    8.7895    7.6311   -9.8981 C   0  0  0  0  0  0  0  0  0  0  0  0
   11.9062    4.2072  -16.8308 C   0  0  0  0  0  0  0  0  0  0  0  0
   11.6877    2.7802  -16.7587 C   0  0  0  0  0  0  0  0  0  0  0  0
   11.2540    3.9153  -14.5043 C   0  0  0  0  0  0  0  0  0  0  0  0
   11.1666    2.5663  -15.3827 C   0  0  0  0  0  0  0  0  0  0  0  0
  1  2  1  0  0  0  0
  1  3  2  0  0  0  0
  2  4  1  0  0  0  0
  2 11  2  0  0  0  0
  3  6  1  0  0  0  0
  5  3  1  6  0  0  0
  5  8  1  0  0  0  0
  5  9  1  0  0  0  0
  6  7  2  0  0  0  0
  7 13  1  0  0  0  0
  7 14  1  0  0  0  0
  8 10  1  1  0  0  0
  8 11  1  0  0  0  0
  9 12  1  1  0  0  0
  9 14  1  0  0  0  0
 12 21  1  0  0  0  0
 13 15  2  0  0  0  0
 13 17  1  0  0  0  0
 14 27  1  6  0  0  0
 15 16  1  0  0  0  0
 15 18  1  0  0  0  0
 16 20  2  0  0  0  0
 17 19  2  0  0  0  0
 18 25  1  0  0  0  0
 18 26  1  0  0  0  0
 18 27  1  0  0  0  0
 19 20  1  0  0  0  0
 20 22  1  0  0  0  0
 22 23  1  0  0  0  0
 22 24  2  0  0  0  0
 23 28  1  0  0  0  0
 23 30  1  0  0  0  0
 28 29  1  0  0  0  0
 29 31  1  0  0  0  0
 30 31  1  0  0  0  0
M  END
$$$$

 OpenBabel10082411353D

 31 33  0  0  0  0  0  0  0  0999 V2000
   10.9951    9.9694   -4.9946 C   0  0  0  0  0  0  0  0  0  0  0  0
   11.7938    9.3762   -4.2463 C   0  0  0  0  0  0  0  0  0  0  0  0
   10.8673    9.4548   -6.4276 C   0  0  0  0  0  0  0  0  0  0  0  0
   11.6576    7.9117   -4.2944 C   0  0  0  0  0  0  0  0  0  0  0  0
   10.5498    8.0257   -6.4521 C   0  0  0  0  0  0  0  0  0  0  0  0
   11.4715    7.2752   -5.6166 C   0  0  0  0  0  0  0  0  0  0  0  0
   10.5840    7.5390   -7.9254 C   0  0  0  0  0  0  0  0  0  0  0  0
   11.4612    8.1494   -8.8322 C   0  0  0  0  0  0  0  0  0  0  0  0
   12.6250    8.6294   -8.4338 O   0  0  0  0  0  0  0  0  0  0  0  0
   11.0835    8.4395  -10.0740 O   0  0  0  0  0  0  0  0  0  0  0  0
   11.2938    7.5612  -11.0769 C   0  0  0  0  0  0  0  0  0  0  0  0
   10.1547    7.2525  -11.9492 C   0  0  0  0  0  0  0  0  0  0  0  0
   10.4293    6.5622  -13.1348 C   0  0  0  0  0  0  0  0  0  0  0  0
   11.7295    6.4217  -13.6243 C   0  0  0  0  0  0  0  0  0  0  0  0
    8.8120    7.3918  -11.4649 C   0  0  0  0  0  0  0  0  0  0  0  0
   12.5351    7.8894  -11.6869 C   0  0  0  0  0  0  0  0  0  0  0  0
   13.5778    8.4243  -10.9673 O   0  0  0  0  0  0  0  0  0  0  0  0
    7.7211    7.1761  -12.4323 C   0  0  0  0  0  0  0  0  0  0  0  0
   12.8103    7.0723  -12.8897 C   0  0  0  0  0  0  0  0  0  0  0  0
    7.0543    5.9667  -12.3369 C   0  0  0  0  0  0  0  0  0  0  0  0
    7.2392    8.1844  -13.1320 C   0  0  0  0  0  0  0  0  0  0  0  0
    6.6882    5.3848  -13.5016 O   0  0  0  0  0  0  0  0  0  0  0  0
    6.5103    5.5543  -11.3870 O   0  0  0  0  0  0  0  0  0  0  0  0
    6.2207    3.9777  -13.2572 C   0  0  0  0  0  0  0  0  0  0  0  0
   12.0582    5.6070  -14.9443 C   0  0  0  0  0  0  0  0  0  0  0  0
   11.9052    4.2756  -14.8803 C   0  0  0  0  0  0  0  0  0  0  0  0
   11.0336    3.7774  -13.9306 C   0  0  0  0  0  0  0  0  0  0  0  0
   10.5432    2.3297  -14.1818 C   0  0  0  0  0  0  0  0  0  0  0  0
    7.1914    2.9126  -13.5763 C   0  0  0  0  0  0  0  0  0  0  0  0
    9.1582    2.3043  -14.5049 C   0  0  0  0  0  0  0  0  0  0  0  0
    8.3893    3.3737  -14.0493 C   0  0  0  0  0  0  0  0  0  0  0  0
  1  2  1  0  0  0  0
  1  3  1  0  0  0  0
  2  4  1  0  0  0  0
  3  5  1  0  0  0  0
  4  6  1  0  0  0  0
  5  6  1  0  0  0  0
  5  7  1  0  0  0  0
  7  8  1  0  0  0  0
  8  9  2  0  0  0  0
  8 10  1  0  0  0  0
 10 11  1  0  0  0  0
 11 12  1  0  0  0  0
 11 16  2  0  0  0  0
 12 13  2  0  0  0  0
 12 15  1  0  0  0  0
 13 14  1  0  0  0  0
 14 19  2  0  0  0  0
 14 25  1  0  0  0  0
 15 18  1  0  0  0  0
 16 17  1  0  0  0  0
 16 19  1  0  0  0  0
 18 20  1  0  0  0  0
 18 21  2  0  0  0  0
 20 22  1  0  0  0  0
 20 23  2  0  0  0  0
 22 24  1  0  0  0  0
 24 29  1  0  0  0  0
 25 26  1  0  0  0  0
 26 27  1  0  0  0  0
 27 28  1  0  0  0  0
 28 30  1  0  0  0  0
 29 31  1  0  0  0  0
 30 31  1  0  0  0  0
M  END
$$$$

 OpenBabel10082411353D

 31 34  0  0  0  0  0  0  0  0999 V2000
   11.6836    6.0105   -4.8831 C   0  0  0  0  0  0  0  0  0  0  0  0
   11.1291    7.0732   -5.4395 C   0  0  0  0  0  0  0  0  0  0  0  0
   10.6954    7.0156   -6.8073 C   0  0  0  0  0  0  0  0  0  0  0  0
   10.2502    8.1187   -7.5536 C   0  0  2  0  0  0  0  0  0  0  0  0
   11.1205    8.4712   -4.9629 C   0  0  0  0  0  0  0  0  0  0  0  0
   10.8655    8.3511   -8.7960 C   0  0  0  0  0  0  0  0  0  0  0  0
   10.2922    7.8843   -9.9985 C   0  0  0  0  0  0  0  0  0  0  0  0
   10.4654    9.6993   -5.6120 C   0  0  0  0  0  0  0  0  0  0  0  0
   10.3510    9.5971   -7.0014 C   0  0  0  0  0  0  0  0  0  0  0  0
   12.2462    6.3351   -3.5020 C   0  0  0  0  0  0  0  0  0  0  0  0
   11.0471    7.5309  -11.1063 C   0  0  0  0  0  0  0  0  0  0  0  0
   11.7288    8.6923   -3.6518 C   0  0  0  0  0  0  0  0  0  0  0  0
   12.3991    7.7501  -11.1145 C   0  0  0  0  0  0  0  0  0  0  0  0
   12.3738    7.7580   -2.9599 C   0  0  0  0  0  0  0  0  0  0  0  0
   13.1285    8.5075  -10.1661 O   0  0  0  0  0  0  0  0  0  0  0  0
    9.0407    7.3775  -10.0973 N   0  0  0  0  0  0  0  0  0  0  0  0
    8.9787    6.9473  -11.4664 N   0  0  0  0  0  0  0  0  0  0  0  0
   13.1012    7.4459  -12.3707 C   0  0  0  0  0  0  0  0  0  0  0  0
   12.2395    6.9724  -13.2444 C   0  0  0  0  0  0  0  0  0  0  0  0
    7.7579    6.3689  -11.9282 C   0  0  1  0  0  0  0  0  0  0  0  0
    7.4759    5.0504  -11.8148 C   0  0  1  0  0  0  0  0  0  0  0  0
   10.2318    7.0443  -11.9780 C   0  0  0  0  0  0  0  0  0  0  0  0
    6.6677    7.1344  -11.6331 O   0  0  0  0  0  0  0  0  0  0  0  0
   12.9095    6.5928  -14.5981 O   0  0  0  0  0  0  0  0  0  0  0  0
   12.4793    7.1436  -15.7688 C   0  0  0  0  0  0  0  0  0  0  0  0
    6.3120    4.5615  -11.9247 F   0  0  0  0  0  0  0  0  0  0  0  0
   10.8467    6.6855  -13.2219 C   0  0  0  0  0  0  0  0  0  0  0  0
    6.7329    8.4050  -12.1049 C   0  0  0  0  0  0  0  0  0  0  0  0
    8.3797    4.1327  -12.8349 C   0  0  0  0  0  0  0  0  0  0  0  0
    9.6776    4.0708  -12.6761 O   0  0  0  0  0  0  0  0  0  0  0  0
    8.0267    3.7308  -13.9705 O   0  0  0  0  0  0  0  0  0  0  0  0
  1  2  1  0  0  0  0
  1 10  2  0  0  0  0
  2  3  1  0  0  0  0
  2  5  2  0  0  0  0
  3  4  1  0  0  0  0
  4  6  1  6  0  0  0
  4  9  1  0  0  0  0
  5  8  1  0  0  0  0
  5 12  1  0  0  0  0
  6  7  1  0  0  0  0
  7 11  1  0  0  0  0
  7 16  2  0  0  0  0
  8  9  1  0  0  0  0
 10 14  1  0  0  0  0
 11 13  2  0  0  0  0
 11 22  1  0  0  0  0
 12 14  2  0  0  0  0
 13 15  1  0  0  0  0
 13 18  1  0  0  0  0
 16 17  1  0  0  0  0
 17 20  1  0  0  0  0
 17 22  1  0  0  0  0
 18 19  2  0  0  0  0
 19 24  1  0  0  0  0
 19 27  1  0  0  0  0
 20 21  1  0  0  0  0
 20 23  1  1  0  0  0
 21 26  1  6  0  0  0
 21 29  1  0  0  0  0
 22 27  2  0  0  0  0
 23 28  1  0  0  0  0
 24 25  1  0  0  0  0
 29 30  2  0  0  0  0
 29 31  1  0  0  0  0
M  END
$$$$

 OpenBabel10082411353D

 31 36  0  0  0  0  0  0  0  0999 V2000
   11.6836    6.0105   -4.8831 C   0  0  0  0  0  0  0  0  0  0  0  0
   11.9279    6.9038   -3.8792 C   0  0  0  0  0  0  0  0  0  0  0  0
   11.9719    8.3126   -4.1286 C   0  0  0  0  0  0  0  0  0  0  0  0
   11.3811    6.5964   -6.0845 C   0  0  0  0  0  0  0  0  0  0  0  0
   11.0420    5.6445   -7.1434 C   0  0  1  0  0  0  0  0  0  0  0  0
   11.3536    7.9055   -6.3870 C   0  0  0  0  0  0  0  0  0  0  0  0
    9.8569    4.8089   -7.0560 C   0  0  0  0  0  0  0  0  0  0  0  0
   11.5991    8.8196   -5.3527 C   0  0  0  0  0  0  0  0  0  0  0  0
   11.5316   10.2233   -5.5794 F   0  0  0  0  0  0  0  0  0  0  0  0
   10.9798    8.5285   -7.6795 C   0  0  0  0  0  0  0  0  0  0  0  0
   10.6556    6.3745   -8.5461 C   0  0  0  0  0  0  0  0  0  0  0  0
    9.6410    3.9438   -8.1044 C   0  0  0  0  0  0  0  0  0  0  0  0
   11.0669    7.6169   -8.7871 N   0  0  0  0  0  0  0  0  0  0  0  0
    9.9214    5.7500   -9.4200 C   0  0  0  0  0  0  0  0  0  0  0  0
   12.1374    7.7991   -9.6010 C   0  0  0  0  0  0  0  0  0  0  0  0
   13.3966    8.0702   -9.2678 O   0  0  0  0  0  0  0  0  0  0  0  0
   11.9065    8.1067  -10.9940 C   0  0  0  0  0  0  0  0  0  0  0  0
   11.5891    6.9407  -11.8496 C   0  0  1  0  0  0  0  0  0  0  0  0
    9.6383    6.5905  -10.7511 C   0  0  0  0  0  0  0  0  0  0  0  0
   10.3417    6.3234  -11.9172 N   0  0  0  0  0  0  0  0  0  0  0  0
    9.1610    4.6231   -9.2679 C   0  0  0  0  0  0  0  0  0  0  0  0
   10.0460    5.1982  -12.4989 C   0  0  0  0  0  0  0  0  0  0  0  0
   10.8981    4.6542  -13.4877 C   0  0  0  0  0  0  0  0  0  0  0  0
   11.5282    5.4948  -14.3618 C   0  0  0  0  0  0  0  0  0  0  0  0
   10.9982    3.2780  -13.6504 C   0  0  0  0  0  0  0  0  0  0  0  0
    9.0509    4.4032  -12.0961 O   0  0  0  0  0  0  0  0  0  0  0  0
   11.4776    6.9477  -14.3020 C   0  0  0  0  0  0  0  0  0  0  0  0
   11.6842    2.7820  -14.6687 C   0  0  0  0  0  0  0  0  0  0  0  0
   12.2153    7.1356  -13.2652 C   0  0  0  0  0  0  0  0  0  0  0  0
   11.8796    4.9830  -15.5580 C   0  0  0  0  0  0  0  0  0  0  0  0
   11.9495    3.5623  -15.6424 C   0  0  0  0  0  0  0  0  0  0  0  0
  1  2  1  0  0  0  0
  1  4  2  0  0  0  0
  2  3  2  0  0  0  0
  3  8  1  0  0  0  0
  4  5  1  0  0  0  0
  4  6  1  0  0  0  0
  5  7  1  1  0  0  0
  5 11  1  0  0  0  0
  6  8  2  0  0  0  0
  6 10  1  0  0  0  0
  7 12  1  0  0  0  0
  8  9  1  0  0  0  0
 10 13  1  0  0  0  0
 11 13  1  0  0  0  0
 11 14  2  0  0  0  0
 12 21  1  0  0  0  0
 13 15  1  0  0  0  0
 14 19  1  0  0  0  0
 14 21  1  0  0  0  0
 15 16  2  0  0  0  0
 15 17  1  0  0  0  0
 18 17  1  6  0  0  0
 18 20  1  0  0  0  0
 18 29  1  0  0  0  0
 19 20  1  0  0  0  0
 20 22  1  0  0  0  0
 22 23  1  0  0  0  0
 22 26  2  0  0  0  0
 23 24  1  0  0  0  0
 23 25  2  0  0  0  0
 24 27  1  0  0  0  0
 24 30  2  0  0  0  0
 25 28  1  0  0  0  0
 27 29  1  0  0  0  0
 28 31  2  0  0  0  0
 30 31  1  0  0  0  0
M  END
$$$$

 OpenBabel10082411353D

 31 34  0  0  0  0  0  0  0  0999 V2000
   10.7609    9.6228   -4.2714 C   0  0  0  0  0  0  0  0  0  0  0  0
   10.4930    9.4831   -5.5343 O   0  0  0  0  0  0  0  0  0  0  0  0
   12.1241    8.9612   -3.9683 C   0  0  0  0  0  0  0  0  0  0  0  0
   11.9595    7.4972   -3.6490 C   0  0  0  0  0  0  0  0  0  0  0  0
   10.0626    8.2718   -5.9247 C   0  0  2  0  0  0  0  0  0  0  0  0
   11.0818    7.1106   -5.8856 C   0  0  1  0  0  0  0  0  0  0  0  0
   11.4454    6.5628   -4.6426 C   0  0  0  0  0  0  0  0  0  0  0  0
    9.6916    8.5822   -7.5535 C   0  0  0  0  0  0  0  0  0  0  0  0
    9.2295    7.3942   -8.1594 O   0  0  0  0  0  0  0  0  0  0  0  0
   10.0442    6.3544   -8.2284 C   0  0  1  0  0  0  0  0  0  0  0  0
   10.6900    6.0197   -6.9340 C   0  0  0  0  0  0  0  0  0  0  0  0
    9.2093    5.3488   -9.0145 C   0  0  0  0  0  0  0  0  0  0  0  0
    9.1425    5.4986  -10.3612 C   0  0  0  0  0  0  0  0  0  0  0  0
    9.9871    6.3420  -10.9670 C   0  0  0  0  0  0  0  0  0  0  0  0
   10.0039    6.5813  -12.4468 C   0  0  0  0  0  0  0  0  0  0  0  0
    8.1137    5.0354  -11.2020 C   0  0  0  0  0  0  0  0  0  0  0  0
   11.1183    7.3985  -12.9805 C   0  0  0  0  0  0  0  0  0  0  0  0
    8.1734    5.1442  -12.6110 C   0  0  0  0  0  0  0  0  0  0  0  0
    9.1543    5.9565  -13.1977 C   0  0  0  0  0  0  0  0  0  0  0  0
   12.2554    7.4764  -12.3382 O   0  0  0  0  0  0  0  0  0  0  0  0
    7.1047    4.4537  -13.4024 C   0  0  0  0  0  0  0  0  0  0  0  0
    7.4438    3.0538  -13.6794 C   0  0  0  0  0  0  0  0  0  0  0  0
   11.3620    7.2571  -14.3544 O   0  0  0  0  0  0  0  0  0  0  0  0
    6.5374    2.0024  -13.3196 C   0  0  0  0  0  0  0  0  0  0  0  0
    8.2295    2.7109  -14.7681 C   0  0  0  0  0  0  0  0  0  0  0  0
    6.8231    0.7059  -13.4564 C   0  0  0  0  0  0  0  0  0  0  0  0
    7.9576    0.3667  -14.4713 C   0  0  0  0  0  0  0  0  0  0  0  0
    9.1025    3.7341  -15.3386 C   0  0  0  0  0  0  0  0  0  0  0  0
    8.6876    1.3686  -14.9139 C   0  0  0  0  0  0  0  0  0  0  0  0
   10.5698    3.4250  -15.4915 C   0  0  0  0  0  0  0  0  0  0  0  0
   11.2379    3.4559  -14.2392 C   0  0  0  0  0  0  0  0  0  0  0  0
  1  2  1  0  0  0  0
  1  3  1  0  0  0  0
  2  5  1  0  0  0  0
  3  4  1  0  0  0  0
  4  7  1  0  0  0  0
  5  6  1  0  0  0  0
  5  8  1  6  0  0  0
  6  7  1  1  0  0  0
  6 11  1  0  0  0  0
  8  9  1  0  0  0  0
  9 10  1  0  0  0  0
 10 11  1  0  0  0  0
 10 12  1  1  0  0  0
 12 13  1  0  0  0  0
 13 14  2  0  0  0  0
 13 16  1  0  0  0  0
 14 15  1  0  0  0  0
 15 17  1  0  0  0  0
 15 19  2  0  0  0  0
 16 18  2  0  0  0  0
 17 20  1  0  0  0  0
 17 23  2  0  0  0  0
 18 19  1  0  0  0  0
 18 21  1  0  0  0  0
 21 22  1  0  0  0  0
 22 24  1  0  0  0  0
 22 25  2  0  0  0  0
 24 26  2  0  0  0  0
 25 28  1  0  0  0  0
 25 29  1  0  0  0  0
 26 27  1  0  0  0  0
 27 29  2  0  0  0  0
 28 30  1  0  0  0  0
 30 31  1  0  0  0  0
M  END
$$$$

 OpenBabel10082411353D

 31 33  0  0  0  0  0  0  0  0999 V2000
   10.9951    9.9694   -4.9946 C   0  0  0  0  0  0  0  0  0  0  0  0
   11.7938    9.3762   -4.2463 C   0  0  0  0  0  0  0  0  0  0  0  0
   10.8673    9.4548   -6.4276 C   0  0  0  0  0  0  0  0  0  0  0  0
   11.6576    7.9117   -4.2944 C   0  0  0  0  0  0  0  0  0  0  0  0
   10.5498    8.0257   -6.4521 C   0  0  0  0  0  0  0  0  0  0  0  0
   11.4715    7.2752   -5.6166 C   0  0  0  0  0  0  0  0  0  0  0  0
   10.5840    7.5390   -7.9254 C   0  0  0  0  0  0  0  0  0  0  0  0
   11.4612    8.1494   -8.8322 C   0  0  0  0  0  0  0  0  0  0  0  0
   12.6250    8.6294   -8.4338 O   0  0  0  0  0  0  0  0  0  0  0  0
   11.0835    8.4395  -10.0740 O   0  0  0  0  0  0  0  0  0  0  0  0
   11.2938    7.5612  -11.0769 C   0  0  0  0  0  0  0  0  0  0  0  0
   10.1547    7.2525  -11.9492 C   0  0  0  0  0  0  0  0  0  0  0  0
   10.4293    6.5622  -13.1348 C   0  0  0  0  0  0  0  0  0  0  0  0
   11.7295    6.4217  -13.6243 C   0  0  0  0  0  0  0  0  0  0  0  0
    8.8120    7.3918  -11.4649 C   0  0  0  0  0  0  0  0  0  0  0  0
   12.5351    7.8894  -11.6869 C   0  0  0  0  0  0  0  0  0  0  0  0
   13.5778    8.4243  -10.9673 O   0  0  0  0  0  0  0  0  0  0  0  0
    7.7211    7.1761  -12.4323 C   0  0  0  0  0  0  0  0  0  0  0  0
   12.8103    7.0723  -12.8897 C   0  0  0  0  0  0  0  0  0  0  0  0
    7.0543    5.9667  -12.3369 C   0  0  0  0  0  0  0  0  0  0  0  0
    7.2392    8.1844  -13.1320 C   0  0  0  0  0  0  0  0  0  0  0  0
    6.6882    5.3848  -13.5016 O   0  0  0  0  0  0  0  0  0  0  0  0
    6.5103    5.5543  -11.3870 O   0  0  0  0  0  0  0  0  0  0  0  0
    7.4031    4.0506  -13.7852 C   0  0  0  0  0  0  0  0  0  0  0  0
   11.9567    5.7137  -14.8744 C   0  0  0  0  0  0  0  0  0  0  0  0
    8.6219    3.9611  -14.1988 C   0  0  0  0  0  0  0  0  0  0  0  0
   12.1624    6.4252  -15.8904 C   0  0  0  0  0  0  0  0  0  0  0  0
    9.4613    3.0640  -13.5563 C   0  0  0  0  0  0  0  0  0  0  0  0
   12.4132    5.8019  -17.1675 C   0  0  0  0  0  0  0  0  0  0  0  0
   10.8633    2.9062  -14.1803 C   0  0  0  0  0  0  0  0  0  0  0  0
   11.9320    4.2229  -14.7605 C   0  0  0  0  0  0  0  0  0  0  0  0
  1  2  1  0  0  0  0
  1  3  1  0  0  0  0
  2  4  1  0  0  0  0
  3  5  1  0  0  0  0
  4  6  1  0  0  0  0
  5  6  1  0  0  0  0
  5  7  1  0  0  0  0
  7  8  1  0  0  0  0
  8  9  2  0  0  0  0
  8 10  1  0  0  0  0
 10 11  1  0  0  0  0
 11 12  1  0  0  0  0
 11 16  2  0  0  0  0
 12 13  2  0  0  0  0
 12 15  1  0  0  0  0
 13 14  1  0  0  0  0
 14 19  2  0  0  0  0
 14 25  1  0  0  0  0
 15 18  1  0  0  0  0
 16 17  1  0  0  0  0
 16 19  1  0  0  0  0
 18 20  1  0  0  0  0
 18 21  2  0  0  0  0
 20 22  1  0  0  0  0
 20 23  2  0  0  0  0
 22 24  1  0  0  0  0
 24 26  1  0  0  0  0
 25 27  2  3  0  0  0
 25 31  1  0  0  0  0
 26 28  1  0  0  0  0
 27 29  1  0  0  0  0
 28 30  1  0  0  0  0
 30 31  1  0  0  0  0
M  END
$$$$

 OpenBabel10082411353D

 31 34  0  0  0  0  0  0  0  0999 V2000
   13.2485    9.2493   -6.3668 O   0  0  0  0  0  0  0  0  0  0  0  0
   12.3055    9.1779   -7.4488 C   0  0  1  0  0  0  0  0  0  0  0  0
   12.5005    8.1033   -8.2440 C   0  0  0  0  0  0  0  0  0  0  0  0
   11.7072    8.0925   -9.4886 C   0  0  0  0  0  0  0  0  0  0  0  0
   12.2659    7.9483  -10.6668 C   0  0  0  0  0  0  0  0  0  0  0  0
   10.2869    8.0426   -9.4299 C   0  0  0  0  0  0  0  0  0  0  0  0
   13.6482    8.0497  -10.9162 O   0  0  0  0  0  0  0  0  0  0  0  0
   11.5356    7.8148  -11.9199 C   0  0  0  0  0  0  0  0  0  0  0  0
   12.2597    7.6523  -13.1838 C   0  0  0  0  0  0  0  0  0  0  0  0
    9.5345    7.8388  -10.6476 C   0  0  0  0  0  0  0  0  0  0  0  0
   12.7796    8.4277  -13.7325 O   0  0  0  0  0  0  0  0  0  0  0  0
   10.1724    7.7406  -11.8577 C   0  0  0  0  0  0  0  0  0  0  0  0
   12.4765    6.3392  -13.7439 N   0  0  0  0  0  0  0  0  0  0  0  0
    9.2368    7.4770  -13.0161 C   0  0  1  0  0  0  0  0  0  0  0  0
    8.7686    6.0601  -13.0538 C   0  0  0  0  0  0  0  0  0  0  0  0
   11.7377    5.1496  -13.1887 C   0  0  0  0  0  0  0  0  0  0  0  0
   10.9893    9.0510   -6.5404 C   0  0  0  0  0  0  0  0  0  0  0  0
   11.2522    8.1647   -5.3854 C   0  0  2  0  0  0  0  0  0  0  0  0
    7.8881    5.4892  -12.2818 C   0  0  0  0  0  0  0  0  0  0  0  0
    8.1030    8.4511  -12.9051 C   0  0  0  0  0  0  0  0  0  0  0  0
   11.2726    4.1709  -14.3554 C   0  0  0  0  0  0  0  0  0  0  0  0
   12.7640    9.8841   -5.1669 C   0  0  0  0  0  0  0  0  0  0  0  0
   10.2020    7.3447   -4.8869 O   0  0  0  0  0  0  0  0  0  0  0  0
    7.3405    6.1987  -11.1725 O   0  0  0  0  0  0  0  0  0  0  0  0
    8.8514    5.4597  -14.2918 C   0  0  0  0  0  0  0  0  0  0  0  0
   11.8543    8.9130   -4.3539 C   0  0  0  0  0  0  0  0  0  0  0  0
    9.6376    4.1710  -14.3682 C   0  0  2  0  0  0  0  0  0  0  0  0
    9.2569    3.1750  -13.4204 C   0  0  0  0  0  0  0  0  0  0  0  0
    7.6105    4.1091  -12.2606 C   0  0  0  0  0  0  0  0  0  0  0  0
    9.5783    1.9037  -14.0909 O   0  0  0  0  0  0  0  0  0  0  0  0
    8.1604    3.0849  -12.8454 C   0  0  0  0  0  0  0  0  0  0  0  0
  1  2  1  0  0  0  0
  1 22  1  0  0  0  0
  2  3  1  6  0  0  0
  2 17  1  0  0  0  0
  3  4  1  0  0  0  0
  4  5  1  0  0  0  0
  4  6  2  0  0  0  0
  5  7  1  0  0  0  0
  5  8  2  0  0  0  0
  6 10  1  0  0  0  0
  8  9  1  0  0  0  0
  8 12  1  0  0  0  0
  9 11  2  0  0  0  0
  9 13  1  0  0  0  0
 10 12  2  0  0  0  0
 12 14  1  0  0  0  0
 13 16  1  0  0  0  0
 14 15  1  0  0  0  0
 14 20  1  1  0  0  0
 15 19  1  0  0  0  0
 15 25  2  0  0  0  0
 16 21  1  0  0  0  0
 17 18  1  0  0  0  0
 18 23  1  1  0  0  0
 18 26  1  0  0  0  0
 19 24  1  0  0  0  0
 19 29  2  0  0  0  0
 22 26  1  0  0  0  0
 25 27  1  0  0  0  0
 27 21  1  1  0  0  0
 27 28  1  0  0  0  0
 28 30  1  0  0  0  0
 28 31  2  0  0  0  0
 29 31  1  0  0  0  0
M  END
$$$$

 OpenBabel10082411353D

 31 33  0  0  0  0  0  0  0  0999 V2000
   10.9951    9.9694   -4.9946 C   0  0  0  0  0  0  0  0  0  0  0  0
   11.7938    9.3762   -4.2463 C   0  0  0  0  0  0  0  0  0  0  0  0
   10.8673    9.4548   -6.4276 C   0  0  0  0  0  0  0  0  0  0  0  0
   11.6576    7.9117   -4.2944 C   0  0  0  0  0  0  0  0  0  0  0  0
   10.5498    8.0257   -6.4521 C   0  0  0  0  0  0  0  0  0  0  0  0
   11.4715    7.2752   -5.6166 C   0  0  0  0  0  0  0  0  0  0  0  0
   10.5840    7.5390   -7.9254 C   0  0  0  0  0  0  0  0  0  0  0  0
   11.4612    8.1494   -8.8322 C   0  0  0  0  0  0  0  0  0  0  0  0
   12.6250    8.6294   -8.4338 O   0  0  0  0  0  0  0  0  0  0  0  0
   11.0835    8.4395  -10.0740 O   0  0  0  0  0  0  0  0  0  0  0  0
   11.2938    7.5612  -11.0769 C   0  0  0  0  0  0  0  0  0  0  0  0
   10.1547    7.2525  -11.9492 C   0  0  0  0  0  0  0  0  0  0  0  0
   10.4293    6.5622  -13.1348 C   0  0  0  0  0  0  0  0  0  0  0  0
   11.7295    6.4217  -13.6243 C   0  0  0  0  0  0  0  0  0  0  0  0
    8.8120    7.3918  -11.4649 C   0  0  0  0  0  0  0  0  0  0  0  0
   12.5351    7.8894  -11.6869 C   0  0  0  0  0  0  0  0  0  0  0  0
   13.5778    8.4243  -10.9673 O   0  0  0  0  0  0  0  0  0  0  0  0
    7.7211    7.1761  -12.4323 C   0  0  0  0  0  0  0  0  0  0  0  0
   12.8103    7.0723  -12.8897 C   0  0  0  0  0  0  0  0  0  0  0  0
   12.0436    5.6071  -14.9340 C   0  0  0  0  0  0  0  0  0  0  0  0
    7.0836    5.9395  -12.4265 C   0  0  0  0  0  0  0  0  0  0  0  0
   12.2310    6.2743  -15.9354 C   0  0  0  0  0  0  0  0  0  0  0  0
   12.2496    7.7239  -16.0557 F   0  0  0  0  0  0  0  0  0  0  0  0
   11.7598    4.2504  -14.7384 C   0  0  1  0  0  0  0  0  0  0  0  0
    6.7677    8.3475  -12.4302 C   0  0  0  0  0  0  0  0  0  0  0  0
   11.3528    3.4847  -13.5789 C   0  0  0  0  0  0  0  0  0  0  0  0
   10.4459    2.3495  -13.9548 C   0  0  0  0  0  0  0  0  0  0  0  0
   10.2500    2.3906  -15.3245 N   0  0  0  0  0  0  0  0  0  0  0  0
    9.3522    1.6753  -16.0863 C   0  0  0  0  0  0  0  0  0  0  0  0
   12.8558    5.6657  -16.9965 F   0  0  0  0  0  0  0  0  0  0  0  0
   11.0164    3.5029  -15.9086 C   0  0  0  0  0  0  0  0  0  0  0  0
  1  2  1  0  0  0  0
  1  3  1  0  0  0  0
  2  4  1  0  0  0  0
  3  5  1  0  0  0  0
  4  6  1  0  0  0  0
  5  6  1  0  0  0  0
  5  7  1  0  0  0  0
  7  8  1  0  0  0  0
  8  9  2  0  0  0  0
  8 10  1  0  0  0  0
 10 11  1  0  0  0  0
 11 12  1  0  0  0  0
 11 16  2  0  0  0  0
 12 13  2  0  0  0  0
 12 15  1  0  0  0  0
 13 14  1  0  0  0  0
 14 19  2  0  0  0  0
 14 20  1  0  0  0  0
 15 18  1  0  0  0  0
 16 17  1  0  0  0  0
 16 19  1  0  0  0  0
 18 21  1  0  0  0  0
 18 25  1  0  0  0  0
 20 22  2  0  0  0  0
 22 23  1  0  0  0  0
 22 30  1  0  0  0  0
 24 20  1  1  0  0  0
 24 26  1  0  0  0  0
 24 31  1  0  0  0  0
 26 27  1  0  0  0  0
 27 28  1  0  0  0  0
 28 29  1  0  0  0  0
 28 31  1  0  0  0  0
M  END
$$$$

 OpenBabel10082411353D

 20 21  0  0  0  0  0  0  0  0999 V2000
   10.5609    9.5535   -4.4702 C   0  0  0  0  0  0  0  0  0  0  0  0
   10.3619    9.2958   -5.8192 C   0  0  2  0  0  0  0  0  0  0  0  0
    9.5417    8.3014   -6.1989 C   0  0  0  0  0  0  0  0  0  0  0  0
   11.8173    8.7879   -6.2850 C   0  0  1  0  0  0  0  0  0  0  0  0
   11.4189    8.6767   -3.8196 C   0  0  0  0  0  0  0  0  0  0  0  0
   10.2583    7.1261   -6.7918 C   0  0  2  0  0  0  0  0  0  0  0  0
   12.6210    8.8362   -5.0360 C   0  0  0  0  0  0  0  0  0  0  0  0
   11.6486    7.5789   -7.0484 C   0  0  0  0  0  0  0  0  0  0  0  0
    9.5295    6.3586   -7.8202 C   0  0  0  0  0  0  0  0  0  0  0  0
    9.8895    6.5969   -9.2162 N   0  0  0  0  0  0  0  0  0  0  0  0
    9.2706    5.9517  -10.2447 C   0  0  0  0  0  0  0  0  0  0  0  0
    8.4262    4.9901   -9.9780 O   0  0  0  0  0  0  0  0  0  0  0  0
    9.6890    6.1709  -11.6056 C   0  0  1  0  0  0  0  0  0  0  0  0
    9.0632    5.3465  -12.6528 C   0  0  0  0  0  0  0  0  0  0  0  0
    9.9661    5.0676  -13.7555 C   0  0  0  0  0  0  0  0  0  0  0  0
    9.5188    7.6180  -11.9707 C   0  0  0  0  0  0  0  0  0  0  0  0
    8.5443    8.2552  -11.4040 O   0  0  0  0  0  0  0  0  0  0  0  0
   10.1682    3.7402  -13.9034 C   0  0  0  0  0  0  0  0  0  0  0  0
   11.2614    3.2341  -14.6651 C   0  0  0  0  0  0  0  0  0  0  0  0
    9.5082    2.6503  -13.4864 O   0  0  0  0  0  0  0  0  0  0  0  0
  1  5  1  0  0  0  0
  2  1  1  1  0  0  0
  2  3  1  0  0  0  0
  2  4  1  0  0  0  0
  3  6  1  0  0  0  0
  4  7  1  1  0  0  0
  4  8  1  0  0  0  0
  5  7  1  0  0  0  0
  6  8  1  0  0  0  0
  6  9  1  6  0  0  0
  9 10  1  0  0  0  0
 10 11  1  0  0  0  0
 11 12  2  0  0  0  0
 11 13  1  0  0  0  0
 13 14  1  6  0  0  0
 13 16  1  0  0  0  0
 14 15  1  0  0  0  0
 15 18  1  0  0  0  0
 16 17  1  0  0  0  0
 18 19  1  0  0  0  0
 18 20  2  0  0  0  0
M  END
$$$$

 OpenBabel10082411353D

 31 34  0  0  0  0  0  0  0  0999 V2000
   13.4846    9.3979   -5.2029 C   0  0  0  0  0  0  0  0  0  0  0  0
   12.7871    9.3913   -6.3118 C   0  0  0  0  0  0  0  0  0  0  0  0
   11.3648    9.1424   -6.2947 C   0  0  0  0  0  0  0  0  0  0  0  0
   10.8726    9.0146   -5.0034 C   0  0  0  0  0  0  0  0  0  0  0  0
    9.3815    8.7865   -5.0373 F   0  0  0  0  0  0  0  0  0  0  0  0
   11.4703    9.0293   -3.8455 C   0  0  0  0  0  0  0  0  0  0  0  0
   10.7697    8.8716   -2.6325 F   0  0  0  0  0  0  0  0  0  0  0  0
   12.8710    9.2169   -3.9429 C   0  0  0  0  0  0  0  0  0  0  0  0
   10.4781    9.1384   -7.6682 C   0  0  0  0  0  0  0  0  0  0  0  0
   11.1390    9.1306   -8.8047 C   0  0  0  0  0  0  0  0  0  0  0  0
   10.8705    7.9638   -9.7397 C   0  0  0  0  0  0  0  0  0  0  0  0
   10.2908    8.0632  -10.8488 C   0  0  0  0  0  0  0  0  0  0  0  0
   10.4238    7.0375  -11.8282 C   0  0  0  0  0  0  0  0  0  0  0  0
    9.2433    8.9518  -11.2558 C   0  0  0  0  0  0  0  0  0  0  0  0
    8.5277    8.8707  -12.4031 C   0  0  0  0  0  0  0  0  0  0  0  0
    7.4469    9.8411  -12.5572 F   0  0  0  0  0  0  0  0  0  0  0  0
    8.5235    7.7173  -13.1606 C   0  0  0  0  0  0  0  0  0  0  0  0
   11.3830    6.8673   -9.1997 O   0  0  0  0  0  0  0  0  0  0  0  0
    9.5899    6.8335  -12.9487 C   0  0  0  0  0  0  0  0  0  0  0  0
    9.7937    5.6972  -13.8884 C   0  0  0  0  0  0  0  0  0  0  0  0
    9.2954    4.5094  -13.5229 C   0  0  0  0  0  0  0  0  0  0  0  0
    9.5277    3.2996  -14.2292 C   0  0  0  0  0  0  0  0  0  0  0  0
   10.9179    5.6355  -14.6892 C   0  0  0  0  0  0  0  0  0  0  0  0
    8.1799    4.4821  -12.4188 C   0  0  0  0  0  0  0  0  0  0  0  0
    8.7952    2.1020  -14.0099 C   0  0  0  0  0  0  0  0  0  0  0  0
   11.2742    4.4163  -15.3610 C   0  0  0  0  0  0  0  0  0  0  0  0
   12.3798    4.4888  -16.3385 O   0  0  0  0  0  0  0  0  0  0  0  0
    7.2644    3.3458  -12.4515 C   0  0  0  0  0  0  0  0  0  0  0  0
    7.4461    2.3029  -13.4028 N   0  0  0  0  0  0  0  0  0  0  0  0
    6.2519    3.3492  -11.7604 O   0  0  0  0  0  0  0  0  0  0  0  0
   10.6485    3.2349  -15.1573 C   0  0  0  0  0  0  0  0  0  0  0  0
  1  2  1  0  0  0  0
  1  8  2  0  0  0  0
  2  3  2  0  0  0  0
  3  4  1  0  0  0  0
  3  9  1  0  0  0  0
  4  5  1  0  0  0  0
  4  6  2  0  0  0  0
  6  7  1  0  0  0  0
  6  8  1  0  0  0  0
  9 10  1  0  0  0  0
 10 11  1  0  0  0  0
 11 12  1  0  0  0  0
 11 18  2  0  0  0  0
 12 13  2  0  0  0  0
 12 14  1  0  0  0  0
 13 19  1  0  0  0  0
 14 15  2  0  0  0  0
 15 16  1  0  0  0  0
 15 17  1  0  0  0  0
 17 19  2  0  0  0  0
 19 20  1  0  0  0  0
 20 21  1  0  0  0  0
 20 23  2  0  0  0  0
 21 22  2  0  0  0  0
 21 24  1  0  0  0  0
 22 25  1  0  0  0  0
 22 31  1  0  0  0  0
 23 26  1  0  0  0  0
 24 28  1  0  0  0  0
 25 29  1  0  0  0  0
 26 27  1  0  0  0  0
 26 31  2  0  0  0  0
 28 29  1  0  0  0  0
 28 30  2  0  0  0  0
M  END
$$$$

 OpenBabel10082411353D

 31 34  0  0  0  0  0  0  0  0999 V2000
    9.9628    9.3008   -5.6386 C   0  0  0  0  0  0  0  0  0  0  0  0
   11.0579    9.3174   -4.8874 C   0  0  0  0  0  0  0  0  0  0  0  0
   12.3089    9.0374   -5.4442 C   0  0  0  0  0  0  0  0  0  0  0  0
   10.0904    9.0834   -7.0579 C   0  0  0  0  0  0  0  0  0  0  0  0
   13.5411    9.1168   -4.4612 F   0  0  0  0  0  0  0  0  0  0  0  0
   11.4514    8.6970   -7.6064 C   0  0  0  0  0  0  0  0  0  0  0  0
   12.5330    8.7686   -6.7261 C   0  0  0  0  0  0  0  0  0  0  0  0
   11.6690    8.3375   -9.1453 C   0  0  0  0  0  0  0  0  0  0  0  0
   12.7823    8.3127   -9.5831 O   0  0  0  0  0  0  0  0  0  0  0  0
   10.5312    8.1967   -9.8860 N   0  0  0  0  0  0  0  0  0  0  0  0
   10.4482    7.7653  -11.1509 C   0  0  2  0  0  0  0  0  0  0  0  0
    9.2010    7.8230  -11.7290 C   0  0  0  0  0  0  0  0  0  0  0  0
    8.4792    9.0291  -11.7936 C   0  0  0  0  0  0  0  0  0  0  0  0
   11.0595    6.3875  -11.3737 C   0  0  0  0  0  0  0  0  0  0  0  0
    8.8656    6.8583  -12.6467 C   0  0  0  0  0  0  0  0  0  0  0  0
    9.7778    5.7342  -12.6261 N   0  0  0  0  0  0  0  0  0  0  0  0
    7.5965    6.6959  -13.2902 C   0  0  0  0  0  0  0  0  0  0  0  0
    7.1453    8.8912  -12.5099 C   0  0  0  0  0  0  0  0  0  0  0  0
    6.8231    7.7728  -13.1871 C   0  0  0  0  0  0  0  0  0  0  0  0
   10.6747    5.4873  -13.8393 C   0  0  0  0  0  0  0  0  0  0  0  0
   11.4645    6.3929  -14.2837 C   0  0  0  0  0  0  0  0  0  0  0  0
   11.7261    7.8001  -13.6827 F   0  0  0  0  0  0  0  0  0  0  0  0
   12.2486    6.2062  -15.4408 C   0  0  0  0  0  0  0  0  0  0  0  0
   10.6607    4.1819  -14.4078 C   0  0  0  0  0  0  0  0  0  0  0  0
   13.0997    7.2772  -15.9934 F   0  0  0  0  0  0  0  0  0  0  0  0
    9.8036    3.1450  -13.7294 C   0  0  0  0  0  0  0  0  0  0  0  0
   12.2129    4.9911  -16.0764 C   0  0  0  0  0  0  0  0  0  0  0  0
   13.0075    4.7293  -17.1991 F   0  0  0  0  0  0  0  0  0  0  0  0
    9.6735    2.0070  -14.3550 N   0  0  0  0  0  0  0  0  0  0  0  0
   11.4356    3.9628  -15.4973 C   0  0  0  0  0  0  0  0  0  0  0  0
    8.8345    1.0485  -13.8146 O   0  0  0  0  0  0  0  0  0  0  0  0
  1  2  1  0  0  0  0
  1  4  2  0  0  0  0
  2  3  2  0  0  0  0
  3  5  1  0  0  0  0
  3  7  1  0  0  0  0
  4  6  1  0  0  0  0
  6  7  2  0  0  0  0
  6  8  1  0  0  0  0
  8  9  2  0  0  0  0
  8 10  1  0  0  0  0
 11 10  1  1  0  0  0
 11 12  1  0  0  0  0
 11 14  1  0  0  0  0
 12 13  1  0  0  0  0
 12 15  2  0  0  0  0
 13 18  2  0  0  0  0
 14 16  1  0  0  0  0
 15 16  1  0  0  0  0
 15 17  1  0  0  0  0
 16 20  1  0  0  0  0
 17 19  2  0  0  0  0
 18 19  1  0  0  0  0
 20 21  2  0  0  0  0
 20 24  1  0  0  0  0
 21 22  1  0  0  0  0
 21 23  1  0  0  0  0
 23 25  1  0  0  0  0
 23 27  2  0  0  0  0
 24 26  1  0  0  0  0
 24 30  2  0  0  0  0
 26 29  2  3  0  0  0
 27 28  1  0  0  0  0
 27 30  1  0  0  0  0
 29 31  1  0  0  0  0
M  END
$$$$

 OpenBabel10082411353D

 31 35  0  0  0  0  0  0  0  0999 V2000
   11.6836    6.0105   -4.8831 C   0  0  0  0  0  0  0  0  0  0  0  0
   11.1291    7.0732   -5.4395 C   0  0  0  0  0  0  0  0  0  0  0  0
   10.6954    7.0156   -6.8073 C   0  0  0  0  0  0  0  0  0  0  0  0
   10.2502    8.1187   -7.5536 C   0  0  2  0  0  0  0  0  0  0  0  0
   11.1205    8.4712   -4.9629 C   0  0  0  0  0  0  0  0  0  0  0  0
   10.8655    8.3511   -8.7960 C   0  0  0  0  0  0  0  0  0  0  0  0
   10.2922    7.8843   -9.9985 C   0  0  0  0  0  0  0  0  0  0  0  0
   10.4654    9.6993   -5.6120 C   0  0  0  0  0  0  0  0  0  0  0  0
   10.3510    9.5971   -7.0014 C   0  0  0  0  0  0  0  0  0  0  0  0
   12.2462    6.3351   -3.5020 C   0  0  0  0  0  0  0  0  0  0  0  0
   11.0471    7.5309  -11.1063 C   0  0  0  0  0  0  0  0  0  0  0  0
   11.7288    8.6923   -3.6518 C   0  0  0  0  0  0  0  0  0  0  0  0
   12.3991    7.7501  -11.1145 C   0  0  0  0  0  0  0  0  0  0  0  0
   12.3738    7.7580   -2.9599 C   0  0  0  0  0  0  0  0  0  0  0  0
   13.1285    8.5075  -10.1661 O   0  0  0  0  0  0  0  0  0  0  0  0
    9.0407    7.3775  -10.0973 N   0  0  0  0  0  0  0  0  0  0  0  0
    8.9787    6.9473  -11.4664 N   0  0  0  0  0  0  0  0  0  0  0  0
   13.1012    7.4459  -12.3707 C   0  0  0  0  0  0  0  0  0  0  0  0
   12.2395    6.9724  -13.2444 C   0  0  0  0  0  0  0  0  0  0  0  0
    7.7579    6.3689  -11.9282 C   0  0  0  0  0  0  0  0  0  0  0  0
    7.4759    5.0504  -11.8148 C   0  0  0  0  0  0  0  0  0  0  0  0
   12.9541    6.5945  -14.5510 O   0  0  0  0  0  0  0  0  0  0  0  0
   12.5717    5.3751  -15.0924 C   0  0  0  0  0  0  0  0  0  0  0  0
   10.2361    7.0379  -12.0113 C   0  0  0  0  0  0  0  0  0  0  0  0
    6.8832    7.1727  -12.5447 C   0  0  0  0  0  0  0  0  0  0  0  0
   10.8202    6.6680  -13.2526 C   0  0  0  0  0  0  0  0  0  0  0  0
    5.7591    6.5985  -13.0640 C   0  0  0  0  0  0  0  0  0  0  0  0
    6.6748    4.3270  -12.3830 C   0  0  0  0  0  0  0  0  0  0  0  0
    7.0287    8.8149  -12.5145 Cl  0  0  0  0  0  0  0  0  0  0  0  0
    6.3818    2.8312  -12.4188 C   0  0  0  0  0  0  0  0  0  0  0  0
    5.6353    5.1380  -12.9965 C   0  0  0  0  0  0  0  0  0  0  0  0
  1  2  1  0  0  0  0
  1 10  2  0  0  0  0
  2  3  1  0  0  0  0
  2  5  2  0  0  0  0
  3  4  1  0  0  0  0
  4  6  1  6  0  0  0
  4  9  1  0  0  0  0
  5  8  1  0  0  0  0
  5 12  1  0  0  0  0
  6  7  1  0  0  0  0
  7 11  1  0  0  0  0
  7 16  2  0  0  0  0
  8  9  1  0  0  0  0
 10 14  1  0  0  0  0
 11 13  2  0  0  0  0
 11 24  1  0  0  0  0
 12 14  2  0  0  0  0
 13 15  1  0  0  0  0
 13 18  1  0  0  0  0
 16 17  1  0  0  0  0
 17 20  1  0  0  0  0
 17 24  1  0  0  0  0
 18 19  2  0  0  0  0
 19 22  1  0  0  0  0
 19 26  1  0  0  0  0
 20 21  1  0  0  0  0
 20 25  2  0  0  0  0
 21 28  2  0  0  0  0
 22 23  1  0  0  0  0
 24 26  2  0  0  0  0
 25 27  1  0  0  0  0
 25 29  1  0  0  0  0
 27 31  2  0  0  0  0
 28 30  1  0  0  0  0
 28 31  1  0  0  0  0
M  END
$$$$

 OpenBabel10082411353D

 31 34  0  0  0  0  0  0  0  0999 V2000
    9.9628    9.3008   -5.6386 C   0  0  0  0  0  0  0  0  0  0  0  0
   11.0579    9.3174   -4.8874 C   0  0  0  0  0  0  0  0  0  0  0  0
   12.3089    9.0374   -5.4442 C   0  0  0  0  0  0  0  0  0  0  0  0
   10.0904    9.0834   -7.0579 C   0  0  0  0  0  0  0  0  0  0  0  0
   13.5411    9.1168   -4.4612 F   0  0  0  0  0  0  0  0  0  0  0  0
   11.4514    8.6970   -7.6064 C   0  0  0  0  0  0  0  0  0  0  0  0
   12.5330    8.7686   -6.7261 C   0  0  0  0  0  0  0  0  0  0  0  0
   11.6690    8.3375   -9.1453 C   0  0  0  0  0  0  0  0  0  0  0  0
   12.7823    8.3127   -9.5831 O   0  0  0  0  0  0  0  0  0  0  0  0
   10.5312    8.1967   -9.8860 N   0  0  0  0  0  0  0  0  0  0  0  0
   10.4482    7.7653  -11.1509 C   0  0  2  0  0  0  0  0  0  0  0  0
    9.2010    7.8230  -11.7290 C   0  0  0  0  0  0  0  0  0  0  0  0
    8.4792    9.0291  -11.7936 C   0  0  0  0  0  0  0  0  0  0  0  0
   11.0595    6.3875  -11.3737 C   0  0  0  0  0  0  0  0  0  0  0  0
    8.8656    6.8583  -12.6467 C   0  0  0  0  0  0  0  0  0  0  0  0
    9.7778    5.7342  -12.6261 N   0  0  0  0  0  0  0  0  0  0  0  0
    7.5965    6.6959  -13.2902 C   0  0  0  0  0  0  0  0  0  0  0  0
    7.1453    8.8912  -12.5099 C   0  0  0  0  0  0  0  0  0  0  0  0
    6.8231    7.7728  -13.1871 C   0  0  0  0  0  0  0  0  0  0  0  0
   10.6747    5.4873  -13.8393 C   0  0  0  0  0  0  0  0  0  0  0  0
   11.4645    6.3929  -14.2837 C   0  0  0  0  0  0  0  0  0  0  0  0
   11.7261    7.8001  -13.6827 F   0  0  0  0  0  0  0  0  0  0  0  0
   12.2486    6.2062  -15.4408 C   0  0  0  0  0  0  0  0  0  0  0  0
   10.6607    4.1819  -14.4078 C   0  0  0  0  0  0  0  0  0  0  0  0
   13.0997    7.2772  -15.9934 F   0  0  0  0  0  0  0  0  0  0  0  0
    9.8036    3.1450  -13.7294 C   0  0  0  0  0  0  0  0  0  0  0  0
    9.4228    2.1385  -14.4738 C   0  0  0  0  0  0  0  0  0  0  0  0
   11.3956    4.0386  -15.4491 C   0  0  0  0  0  0  0  0  0  0  0  0
   12.3130    5.0057  -16.0431 C   0  0  0  0  0  0  0  0  0  0  0  0
    8.1876    1.5508  -14.1355 C   0  0  0  0  0  0  0  0  0  0  0  0
    7.1220    2.5329  -13.8164 C   0  0  0  0  0  0  0  0  0  0  0  0
  1  2  1  0  0  0  0
  1  4  2  0  0  0  0
  2  3  2  0  0  0  0
  3  5  1  0  0  0  0
  3  7  1  0  0  0  0
  4  6  1  0  0  0  0
  6  7  2  0  0  0  0
  6  8  1  0  0  0  0
  8  9  2  0  0  0  0
  8 10  1  0  0  0  0
 11 10  1  1  0  0  0
 11 12  1  0  0  0  0
 11 14  1  0  0  0  0
 12 13  1  0  0  0  0
 12 15  2  0  0  0  0
 13 18  2  0  0  0  0
 14 16  1  0  0  0  0
 15 16  1  0  0  0  0
 15 17  1  0  0  0  0
 16 20  1  0  0  0  0
 17 19  2  0  0  0  0
 18 19  1  0  0  0  0
 20 21  2  0  0  0  0
 20 24  1  0  0  0  0
 21 22  1  0  0  0  0
 21 23  1  0  0  0  0
 23 25  1  0  0  0  0
 23 29  2  0  0  0  0
 24 26  1  0  0  0  0
 24 28  2  0  0  0  0
 26 27  1  0  0  0  0
 27 30  1  0  0  0  0
 28 29  1  0  0  0  0
 30 31  1  0  0  0  0
M  END
$$$$

 OpenBabel10082411353D

 31 33  0  0  0  0  0  0  0  0999 V2000
   13.4846    9.3979   -5.2029 C   0  0  0  0  0  0  0  0  0  0  0  0
   12.7871    9.3913   -6.3118 C   0  0  0  0  0  0  0  0  0  0  0  0
   11.3648    9.1424   -6.2947 C   0  0  0  0  0  0  0  0  0  0  0  0
   10.8726    9.0146   -5.0034 C   0  0  0  0  0  0  0  0  0  0  0  0
    9.3815    8.7865   -5.0373 F   0  0  0  0  0  0  0  0  0  0  0  0
   11.4703    9.0293   -3.8455 C   0  0  0  0  0  0  0  0  0  0  0  0
   10.7697    8.8716   -2.6325 F   0  0  0  0  0  0  0  0  0  0  0  0
   12.8710    9.2169   -3.9429 C   0  0  0  0  0  0  0  0  0  0  0  0
   10.4781    9.1384   -7.6682 C   0  0  0  0  0  0  0  0  0  0  0  0
   11.1390    9.1306   -8.8047 C   0  0  0  0  0  0  0  0  0  0  0  0
   10.8705    7.9638   -9.7397 C   0  0  0  0  0  0  0  0  0  0  0  0
   10.2908    8.0632  -10.8488 C   0  0  0  0  0  0  0  0  0  0  0  0
   10.4238    7.0375  -11.8282 C   0  0  0  0  0  0  0  0  0  0  0  0
    9.2433    8.9518  -11.2558 C   0  0  0  0  0  0  0  0  0  0  0  0
    8.5277    8.8707  -12.4031 C   0  0  0  0  0  0  0  0  0  0  0  0
    7.4469    9.8411  -12.5572 F   0  0  0  0  0  0  0  0  0  0  0  0
   11.4744    6.0391  -11.5746 F   0  0  0  0  0  0  0  0  0  0  0  0
    9.6702    6.8214  -12.9317 C   0  0  0  0  0  0  0  0  0  0  0  0
    8.6799    7.7103  -13.1556 C   0  0  0  0  0  0  0  0  0  0  0  0
    9.9658    5.5226  -13.9106 S   0  0  0  0  0  0  0  0  0  0  0  0
    9.5522    4.2345  -13.3909 N   0  0  0  0  0  0  0  0  0  0  0  0
    9.7602    2.9612  -13.9582 C   0  0  0  0  0  0  0  0  0  0  0  0
    8.8435    4.2192  -12.1237 C   0  0  0  0  0  0  0  0  0  0  0  0
   11.5109    5.6069  -14.1681 O   0  0  0  0  0  0  0  0  0  0  0  0
    9.2770    5.7015  -15.2294 O   0  0  0  0  0  0  0  0  0  0  0  0
    8.6976    2.2859  -14.4159 C   0  0  0  0  0  0  0  0  0  0  0  0
    8.8720    1.0249  -15.0373 C   0  0  0  0  0  0  0  0  0  0  0  0
   11.0385    2.3975  -13.9500 C   0  0  0  0  0  0  0  0  0  0  0  0
   10.1516    0.4891  -15.0796 C   0  0  0  0  0  0  0  0  0  0  0  0
   12.0408    3.2259  -13.5567 F   0  0  0  0  0  0  0  0  0  0  0  0
   11.1892    1.2503  -14.6293 C   0  0  0  0  0  0  0  0  0  0  0  0
  1  2  1  0  0  0  0
  1  8  2  0  0  0  0
  2  3  2  0  0  0  0
  3  4  1  0  0  0  0
  3  9  1  0  0  0  0
  4  5  1  0  0  0  0
  4  6  2  0  0  0  0
  6  7  1  0  0  0  0
  6  8  1  0  0  0  0
  9 10  1  0  0  0  0
 10 11  1  0  0  0  0
 11 12  1  0  0  0  0
 12 13  2  0  0  0  0
 12 14  1  0  0  0  0
 13 17  1  0  0  0  0
 13 18  1  0  0  0  0
 14 15  2  0  0  0  0
 15 16  1  0  0  0  0
 15 19  1  0  0  0  0
 18 19  2  0  0  0  0
 18 20  1  0  0  0  0
 20 21  1  0  0  0  0
 20 24  2  0  0  0  0
 20 25  2  0  0  0  0
 21 22  1  0  0  0  0
 21 23  1  0  0  0  0
 22 26  2  0  0  0  0
 22 28  1  0  0  0  0
 26 27  1  0  0  0  0
 27 29  2  0  0  0  0
 28 30  1  0  0  0  0
 28 31  2  0  0  0  0
 29 31  1  0  0  0  0
M  END
$$$$

 OpenBabel10082411353D

 31 35  0  0  0  0  0  0  0  0999 V2000
   11.6836    6.0105   -4.8831 F   0  0  0  0  0  0  0  0  0  0  0  0
   11.2562    7.2206   -5.0294 C   0  0  0  0  0  0  0  0  0  0  0  0
   12.0125    8.2418   -4.4408 C   0  0  0  0  0  0  0  0  0  0  0  0
   11.1918    7.2706   -6.5237 C   0  0  0  0  0  0  0  0  0  0  0  0
   10.0644    7.2991   -4.5386 F   0  0  0  0  0  0  0  0  0  0  0  0
   12.0891    9.3929   -5.1087 C   0  0  0  0  0  0  0  0  0  0  0  0
   13.3610    7.8363   -4.3506 F   0  0  0  0  0  0  0  0  0  0  0  0
   10.2830    6.4331   -7.1715 C   0  0  0  0  0  0  0  0  0  0  0  0
   10.3227    6.5503   -8.6676 C   0  0  0  0  0  0  0  0  0  0  0  0
   11.5748    8.6448   -3.1714 F   0  0  0  0  0  0  0  0  0  0  0  0
    9.5216    5.6695   -9.4838 C   0  0  0  0  0  0  0  0  0  0  0  0
   11.0065    7.5083   -9.3954 C   0  0  0  0  0  0  0  0  0  0  0  0
   11.8654    8.2840   -7.1311 C   0  0  0  0  0  0  0  0  0  0  0  0
   12.4286    9.3622   -6.3765 O   0  0  0  0  0  0  0  0  0  0  0  0
   10.9665    7.5774  -10.7007 C   0  0  0  0  0  0  0  0  0  0  0  0
    9.4010    5.8124  -10.7917 C   0  0  0  0  0  0  0  0  0  0  0  0
    8.6560    4.8769  -11.5629 C   0  0  0  0  0  0  0  0  0  0  0  0
   11.8910    8.5683   -8.5912 C   0  0  0  0  0  0  0  0  0  0  0  0
    8.7355    4.7913  -12.8523 C   0  0  0  0  0  0  0  0  0  0  0  0
    9.5881    5.5716  -13.5132 C   0  0  0  0  0  0  0  0  0  0  0  0
    7.7626    3.7544  -13.5969 C   0  0  0  0  0  0  0  0  0  0  0  0
   11.7820    8.5282  -11.4473 O   0  0  0  0  0  0  0  0  0  0  0  0
    9.6951    5.3881  -14.9421 O   0  0  0  0  0  0  0  0  0  0  0  0
   10.2537    6.7031  -11.5097 C   0  0  0  0  0  0  0  0  0  0  0  0
    8.1793    2.6575  -13.8839 C   0  0  0  0  0  0  0  0  0  0  0  0
    7.0451    1.7878  -14.4786 C   0  0  0  0  0  0  0  0  0  0  0  0
   10.3246    6.5314  -12.8791 N   0  0  0  0  0  0  0  0  0  0  0  0
    9.3189    1.8199  -13.6259 C   0  0  0  0  0  0  0  0  0  0  0  0
    9.4659    0.7807  -14.4460 C   0  0  0  0  0  0  0  0  0  0  0  0
    8.2699    0.0680  -14.7623 C   0  0  0  0  0  0  0  0  0  0  0  0
    7.2463    0.8263  -15.3349 C   0  0  0  0  0  0  0  0  0  0  0  0
  1  2  1  0  0  0  0
  2  3  1  0  0  0  0
  2  4  1  0  0  0  0
  2  5  1  0  0  0  0
  3  6  1  0  0  0  0
  3  7  1  0  0  0  0
  3 10  1  0  0  0  0
  4  8  1  0  0  0  0
  4 13  2  0  0  0  0
  6 14  1  0  0  0  0
  8  9  2  0  0  0  0
  9 11  1  0  0  0  0
  9 12  1  0  0  0  0
 11 16  2  0  0  0  0
 12 15  1  0  0  0  0
 12 18  2  0  0  0  0
 13 14  1  0  0  0  0
 13 18  1  0  0  0  0
 15 22  1  0  0  0  0
 15 24  2  0  0  0  0
 16 17  1  0  0  0  0
 16 24  1  0  0  0  0
 17 19  2  0  0  0  0
 19 20  1  0  0  0  0
 19 21  1  0  0  0  0
 20 23  2  0  0  0  0
 20 27  1  0  0  0  0
 21 25  2  0  0  0  0
 24 27  1  0  0  0  0
 25 26  1  0  0  0  0
 25 28  1  0  0  0  0
 26 31  1  0  0  0  0
 28 29  1  0  0  0  0
 29 30  1  0  0  0  0
 30 31  1  0  0  0  0
M  END
$$$$

 OpenBabel10082411353D

 31 36  0  0  0  0  0  0  0  0999 V2000
   13.1862    9.4584   -4.4987 C   0  0  0  0  0  0  0  0  0  0  0  0
   12.1466    8.8379   -3.9099 C   0  0  0  0  0  0  0  0  0  0  0  0
   12.9882    9.7409   -5.8618 C   0  0  0  0  0  0  0  0  0  0  0  0
   11.9761    9.3177   -6.5889 C   0  0  0  0  0  0  0  0  0  0  0  0
   10.9346    8.5066   -5.9096 C   0  0  0  0  0  0  0  0  0  0  0  0
   12.2569    8.5495   -2.4516 C   0  0  0  0  0  0  0  0  0  0  0  0
   11.0697    8.2577   -4.5299 C   0  0  0  0  0  0  0  0  0  0  0  0
   11.7350    9.5912   -7.9371 O   0  0  0  0  0  0  0  0  0  0  0  0
    9.7397    8.0780   -6.6393 C   0  0  0  0  0  0  0  0  0  0  0  0
   10.8649    8.8162   -8.5483 C   0  0  0  0  0  0  0  0  0  0  0  0
    9.2400    6.9866   -6.2549 O   0  0  0  0  0  0  0  0  0  0  0  0
   10.8576    9.1019   -9.9991 C   0  0  1  0  0  0  0  0  0  0  0  0
    9.7545    8.2308   -7.9658 N   0  0  0  0  0  0  0  0  0  0  0  0
   11.8976    8.3673  -10.5997 C   0  0  0  0  0  0  0  0  0  0  0  0
   11.6687    7.6743  -11.8116 C   0  0  0  0  0  0  0  0  0  0  0  0
   10.4759    7.1713  -12.1199 C   0  0  0  0  0  0  0  0  0  0  0  0
    9.2658    7.5505  -11.5870 C   0  0  0  0  0  0  0  0  0  0  0  0
    9.3960    8.5265  -10.3465 C   0  0  0  0  0  0  0  0  0  0  0  0
   10.3867    6.1959  -13.1101 C   0  0  0  0  0  0  0  0  0  0  0  0
   12.6748    7.0682  -12.6078 N   0  0  0  0  0  0  0  0  0  0  0  0
    8.0007    7.2083  -12.0491 C   0  0  0  0  0  0  0  0  0  0  0  0
   11.5794    6.1529  -13.7240 N   0  0  0  0  0  0  0  0  0  0  0  0
    9.1443    5.7122  -13.5791 C   0  0  0  0  0  0  0  0  0  0  0  0
   12.2689    5.4662  -14.6947 C   0  0  1  0  0  0  0  0  0  0  0  0
    6.7253    7.7296  -11.3744 F   0  0  0  0  0  0  0  0  0  0  0  0
    7.9556    6.1436  -12.9581 C   0  0  0  0  0  0  0  0  0  0  0  0
   11.9308    4.0873  -14.7159 C   0  0  0  0  0  0  0  0  0  0  0  0
   12.0658    6.1151  -15.8914 C   0  0  1  0  0  0  0  0  0  0  0  0
   12.7846    7.2785  -16.1193 C   0  0  0  0  0  0  0  0  0  0  0  0
   11.5403    3.5770  -15.8011 C   0  0  0  0  0  0  0  0  0  0  0  0
   12.0877    4.7269  -16.8102 C   0  0  0  0  0  0  0  0  0  0  0  0
  1  2  1  0  0  0  0
  1  3  2  0  0  0  0
  2  6  1  0  0  0  0
  2  7  2  0  0  0  0
  3  4  1  0  0  0  0
  4  5  2  0  0  0  0
  4  8  1  0  0  0  0
  5  7  1  0  0  0  0
  5  9  1  0  0  0  0
  8 10  1  0  0  0  0
  9 11  2  0  0  0  0
  9 13  1  0  0  0  0
 10 13  2  0  0  0  0
 12 10  1  1  0  0  0
 12 14  1  0  0  0  0
 12 18  1  0  0  0  0
 14 15  1  0  0  0  0
 15 16  1  0  0  0  0
 15 20  2  0  0  0  0
 16 17  1  0  0  0  0
 16 19  2  0  0  0  0
 17 18  1  0  0  0  0
 17 21  2  0  0  0  0
 19 22  1  0  0  0  0
 19 23  1  0  0  0  0
 20 22  1  0  0  0  0
 21 25  1  0  0  0  0
 21 26  1  0  0  0  0
 23 26  2  0  0  0  0
 24 22  1  1  0  0  0
 24 27  1  0  0  0  0
 24 28  1  0  0  0  0
 27 30  1  0  0  0  0
 28 29  1  6  0  0  0
 28 31  1  0  0  0  0
 30 31  1  0  0  0  0
M  END
$$$$

 OpenBabel10082411353D

 31 35  0  0  0  0  0  0  0  0999 V2000
   12.7863    7.8241  -14.2109 C   0  0  0  0  0  0  0  0  0  0  0  0
   12.4233    7.7158  -13.0289 C   0  0  0  0  0  0  0  0  0  0  0  0
   12.9219    8.1949  -11.8668 C   0  0  0  0  0  0  0  0  0  0  0  0
   11.4275    6.6086  -12.7931 C   0  0  0  0  0  0  0  0  0  0  0  0
   10.3411    6.8404  -12.0679 C   0  0  0  0  0  0  0  0  0  0  0  0
   10.7226    7.4332  -10.7281 C   0  0  0  0  0  0  0  0  0  0  0  0
    9.0684    5.8539  -11.9851 C   0  0  0  0  0  0  0  0  0  0  0  0
    9.8080    7.4062   -9.6015 C   0  0  1  0  0  0  0  0  0  0  0  0
   11.9300    8.1400  -10.6702 C   0  0  0  0  0  0  0  0  0  0  0  0
   11.0289    6.0120  -14.2884 C   0  0  0  0  0  0  0  0  0  0  0  0
    9.9681    6.1425   -8.6941 C   0  0  0  0  0  0  0  0  0  0  0  0
   11.9646    6.5393  -15.2778 C   0  0  0  0  0  0  0  0  0  0  0  0
    9.7799    8.6458   -8.9051 C   0  0  0  0  0  0  0  0  0  0  0  0
   10.3186    4.8592  -14.6682 C   0  0  0  0  0  0  0  0  0  0  0  0
   10.2572    3.7867  -13.8865 C   0  0  1  0  0  0  0  0  0  0  0  0
    8.1840    6.1529  -12.9802 C   0  0  0  0  0  0  0  0  0  0  0  0
    8.9788    2.9888  -13.9279 C   0  0  0  0  0  0  0  0  0  0  0  0
   10.5404    8.5651   -7.5433 C   0  0  2  0  0  0  0  0  0  0  0  0
    9.1252    1.6963  -14.1301 O   0  0  0  0  0  0  0  0  0  0  0  0
    6.8473    5.4043  -12.6964 C   0  0  0  0  0  0  0  0  0  0  0  0
    7.8908    3.5177  -13.7211 N   0  0  0  0  0  0  0  0  0  0  0  0
   10.1332    7.5210   -6.6089 C   0  0  1  0  0  0  0  0  0  0  0  0
   11.5194    2.8993  -13.9918 C   0  0  0  0  0  0  0  0  0  0  0  0
   10.0708    6.2280   -7.2683 C   0  0  0  0  0  0  0  0  0  0  0  0
   11.1522    7.4502   -5.4668 C   0  0  0  0  0  0  0  0  0  0  0  0
    7.0710    3.6888  -12.6852 C   0  0  0  0  0  0  0  0  0  0  0  0
    8.8634    7.9716   -5.8899 C   0  0  0  0  0  0  0  0  0  0  0  0
   11.6672    8.7295   -5.0477 C   0  0  0  0  0  0  0  0  0  0  0  0
   12.8636    8.7968   -4.4088 C   0  0  0  0  0  0  0  0  0  0  0  0
   11.4313    9.7510   -6.2506 C   0  0  0  0  0  0  0  0  0  0  0  0
   10.7288    9.3283   -3.8874 C   0  0  0  0  0  0  0  0  0  0  0  0
  1  2  1  0  0  0  0
  1 12  1  0  0  0  0
  2  3  1  0  0  0  0
  2  4  2  0  0  0  0
  3  9  2  0  0  0  0
  4  5  1  0  0  0  0
  4 10  1  0  0  0  0
  5  6  2  0  0  0  0
  5  7  1  0  0  0  0
  6  9  1  0  0  0  0
  7 16  1  0  0  0  0
  8  6  1  6  0  0  0
  8 11  1  0  0  0  0
  8 13  1  0  0  0  0
 10 12  2  0  0  0  0
 10 14  1  0  0  0  0
 11 24  1  0  0  0  0
 14 15  1  0  0  0  0
 15 17  1  0  0  0  0
 15 23  1  6  0  0  0
 16 20  1  0  0  0  0
 17 19  2  0  0  0  0
 17 21  1  0  0  0  0
 18 13  1  1  0  0  0
 18 22  1  0  0  0  0
 18 30  1  0  0  0  0
 20 26  1  0  0  0  0
 21 26  1  0  0  0  0
 22 24  1  0  0  0  0
 22 25  1  0  0  0  0
 22 27  1  1  0  0  0
 25 28  1  0  0  0  0
 28 29  1  0  0  0  0
 28 30  1  0  0  0  0
 28 31  1  0  0  0  0
M  END
$$$$

 OpenBabel10082411353D

 31 34  0  0  0  0  0  0  0  0999 V2000
   13.2485    9.2493   -6.3668 O   0  0  0  0  0  0  0  0  0  0  0  0
   12.3055    9.1779   -7.4488 C   0  0  1  0  0  0  0  0  0  0  0  0
   12.5005    8.1033   -8.2440 C   0  0  0  0  0  0  0  0  0  0  0  0
   11.7072    8.0925   -9.4886 C   0  0  0  0  0  0  0  0  0  0  0  0
   12.2659    7.9483  -10.6668 C   0  0  0  0  0  0  0  0  0  0  0  0
   10.2869    8.0426   -9.4299 C   0  0  0  0  0  0  0  0  0  0  0  0
   13.6482    8.0497  -10.9162 O   0  0  0  0  0  0  0  0  0  0  0  0
   11.5356    7.8148  -11.9199 C   0  0  0  0  0  0  0  0  0  0  0  0
   12.2597    7.6523  -13.1838 C   0  0  0  0  0  0  0  0  0  0  0  0
    9.5345    7.8388  -10.6476 C   0  0  0  0  0  0  0  0  0  0  0  0
   12.7796    8.4277  -13.7325 O   0  0  0  0  0  0  0  0  0  0  0  0
   10.1724    7.7406  -11.8577 C   0  0  0  0  0  0  0  0  0  0  0  0
   12.4765    6.3392  -13.7439 N   0  0  0  0  0  0  0  0  0  0  0  0
    9.2368    7.4770  -13.0161 C   0  0  1  0  0  0  0  0  0  0  0  0
    8.7686    6.0601  -13.0538 C   0  0  0  0  0  0  0  0  0  0  0  0
   11.7377    5.1496  -13.1887 C   0  0  0  0  0  0  0  0  0  0  0  0
   10.9893    9.0510   -6.5404 C   0  0  0  0  0  0  0  0  0  0  0  0
   11.2522    8.1647   -5.3854 C   0  0  2  0  0  0  0  0  0  0  0  0
    7.8881    5.4892  -12.2818 C   0  0  0  0  0  0  0  0  0  0  0  0
    8.1030    8.4511  -12.9051 C   0  0  0  0  0  0  0  0  0  0  0  0
   11.2726    4.1709  -14.3554 C   0  0  0  0  0  0  0  0  0  0  0  0
   12.7640    9.8841   -5.1669 C   0  0  0  0  0  0  0  0  0  0  0  0
   10.2020    7.3447   -4.8869 O   0  0  0  0  0  0  0  0  0  0  0  0
    7.3405    6.1987  -11.1725 O   0  0  0  0  0  0  0  0  0  0  0  0
    8.8514    5.4597  -14.2918 C   0  0  0  0  0  0  0  0  0  0  0  0
   11.8543    8.9130   -4.3539 C   0  0  0  0  0  0  0  0  0  0  0  0
    9.6376    4.1710  -14.3682 C   0  0  2  0  0  0  0  0  0  0  0  0
    9.2569    3.1750  -13.4204 C   0  0  0  0  0  0  0  0  0  0  0  0
    7.6105    4.1091  -12.2606 C   0  0  0  0  0  0  0  0  0  0  0  0
    9.2776    3.6475  -15.7844 C   0  0  0  0  0  0  0  0  0  0  0  0
    8.1954    3.2288  -13.0344 C   0  0  0  0  0  0  0  0  0  0  0  0
  1  2  1  0  0  0  0
  1 22  1  0  0  0  0
  2  3  1  6  0  0  0
  2 17  1  0  0  0  0
  3  4  1  0  0  0  0
  4  5  1  0  0  0  0
  4  6  2  0  0  0  0
  5  7  1  0  0  0  0
  5  8  2  0  0  0  0
  6 10  1  0  0  0  0
  8  9  1  0  0  0  0
  8 12  1  0  0  0  0
  9 11  2  0  0  0  0
  9 13  1  0  0  0  0
 10 12  2  0  0  0  0
 12 14  1  0  0  0  0
 13 16  1  0  0  0  0
 14 15  1  0  0  0  0
 14 20  1  1  0  0  0
 15 19  1  0  0  0  0
 15 25  2  0  0  0  0
 16 21  1  0  0  0  0
 17 18  1  0  0  0  0
 18 23  1  1  0  0  0
 18 26  1  0  0  0  0
 19 24  1  0  0  0  0
 19 29  2  0  0  0  0
 21 27  1  0  0  0  0
 22 26  1  0  0  0  0
 25 27  1  0  0  0  0
 27 28  1  0  0  0  0
 27 30  1  6  0  0  0
 28 31  1  0  0  0  0
 29 31  1  0  0  0  0
M  END
$$$$

 OpenBabel10082411353D

 31 35  0  0  0  0  0  0  0  0999 V2000
   13.2485    9.2493   -6.3668 O   0  0  0  0  0  0  0  0  0  0  0  0
   12.3055    9.1779   -7.4488 C   0  0  1  0  0  0  0  0  0  0  0  0
   12.5005    8.1033   -8.2440 C   0  0  0  0  0  0  0  0  0  0  0  0
   11.7072    8.0925   -9.4886 C   0  0  0  0  0  0  0  0  0  0  0  0
   12.2659    7.9483  -10.6668 C   0  0  0  0  0  0  0  0  0  0  0  0
   10.2869    8.0426   -9.4299 C   0  0  0  0  0  0  0  0  0  0  0  0
   13.6482    8.0497  -10.9162 O   0  0  0  0  0  0  0  0  0  0  0  0
   11.5356    7.8148  -11.9199 C   0  0  0  0  0  0  0  0  0  0  0  0
   12.2597    7.6523  -13.1838 C   0  0  0  0  0  0  0  0  0  0  0  0
    9.5345    7.8388  -10.6476 C   0  0  0  0  0  0  0  0  0  0  0  0
   12.7796    8.4277  -13.7325 O   0  0  0  0  0  0  0  0  0  0  0  0
   10.1724    7.7406  -11.8577 C   0  0  0  0  0  0  0  0  0  0  0  0
   12.4765    6.3392  -13.7439 N   0  0  0  0  0  0  0  0  0  0  0  0
    9.2368    7.4770  -13.0161 C   0  0  1  0  0  0  0  0  0  0  0  0
    8.7686    6.0601  -13.0538 C   0  0  0  0  0  0  0  0  0  0  0  0
   11.7377    5.1496  -13.1887 C   0  0  0  0  0  0  0  0  0  0  0  0
   10.9893    9.0510   -6.5404 C   0  0  0  0  0  0  0  0  0  0  0  0
   11.2522    8.1647   -5.3854 C   0  0  2  0  0  0  0  0  0  0  0  0
    7.8881    5.4892  -12.2818 C   0  0  0  0  0  0  0  0  0  0  0  0
    8.1030    8.4511  -12.9051 C   0  0  0  0  0  0  0  0  0  0  0  0
   11.2726    4.1709  -14.3554 C   0  0  1  0  0  0  0  0  0  0  0  0
   12.7640    9.8841   -5.1669 C   0  0  0  0  0  0  0  0  0  0  0  0
   10.2020    7.3447   -4.8869 C   0  0  0  0  0  0  0  0  0  0  0  0
    9.2831    5.2239  -14.0945 C   0  0  0  0  0  0  0  0  0  0  0  0
    7.4658    4.1818  -12.3783 C   0  0  0  0  0  0  0  0  0  0  0  0
   11.8409    9.0255   -4.2786 C   0  0  0  0  0  0  0  0  0  0  0  0
    8.0323    3.4365  -13.5317 C   0  0  0  0  0  0  0  0  0  0  0  0
    8.8555    3.9527  -14.2628 C   0  0  0  0  0  0  0  0  0  0  0  0
    9.6277    3.1977  -15.2748 O   0  0  0  0  0  0  0  0  0  0  0  0
   10.8942    2.8903  -14.7555 C   0  0  0  0  0  0  0  0  0  0  0  0
   10.5683    5.5200  -14.8343 C   0  0  0  0  0  0  0  0  0  0  0  0
  1  2  1  0  0  0  0
  1 22  1  0  0  0  0
  2  3  1  6  0  0  0
  2 17  1  0  0  0  0
  3  4  1  0  0  0  0
  4  5  1  0  0  0  0
  4  6  2  0  0  0  0
  5  7  1  0  0  0  0
  5  8  2  0  0  0  0
  6 10  1  0  0  0  0
  8  9  1  0  0  0  0
  8 12  1  0  0  0  0
  9 11  2  0  0  0  0
  9 13  1  0  0  0  0
 10 12  2  0  0  0  0
 12 14  1  0  0  0  0
 13 16  1  0  0  0  0
 14 15  1  0  0  0  0
 14 20  1  1  0  0  0
 15 19  1  0  0  0  0
 15 24  2  0  0  0  0
 17 18  1  0  0  0  0
 18 23  1  1  0  0  0
 18 26  1  0  0  0  0
 19 25  2  0  0  0  0
 21 16  1  1  0  0  0
 21 30  1  0  0  0  0
 21 31  1  0  0  0  0
 22 26  1  0  0  0  0
 24 28  1  0  0  0  0
 24 31  1  0  0  0  0
 25 27  1  0  0  0  0
 27 28  2  0  0  0  0
 28 29  1  0  0  0  0
 29 30  1  0  0  0  0
M  END
$$$$

 OpenBabel10082411353D

 20 21  0  0  0  0  0  0  0  0999 V2000
   12.8881    8.7759   -3.5681 C   0  0  0  0  0  0  0  0  0  0  0  0
   11.9416    9.4732   -4.1220 C   0  0  0  0  0  0  0  0  0  0  0  0
   12.1782    9.3707   -5.6407 C   0  0  0  0  0  0  0  0  0  0  0  0
   11.3825    8.3447   -6.3966 C   0  0  0  0  0  0  0  0  0  0  0  0
   11.8188    8.0044   -7.6822 C   0  0  0  0  0  0  0  0  0  0  0  0
   10.3120    7.6600   -5.7120 C   0  0  0  0  0  0  0  0  0  0  0  0
   10.8678    7.0723   -8.2897 C   0  0  0  0  0  0  0  0  0  0  0  0
    9.5717    6.7245   -6.3809 C   0  0  0  0  0  0  0  0  0  0  0  0
    9.8820    6.4468   -7.7081 C   0  0  0  0  0  0  0  0  0  0  0  0
   11.2611    6.6953   -9.7105 C   0  0  0  0  0  0  0  0  0  0  0  0
   10.0425    6.5460  -10.5971 C   0  0  0  0  0  0  0  0  0  0  0  0
    9.7273    7.6207  -11.3847 C   0  0  0  0  0  0  0  0  0  0  0  0
    9.3251    5.4060  -10.6749 C   0  0  0  0  0  0  0  0  0  0  0  0
    8.2480    5.2344  -11.4430 C   0  0  0  0  0  0  0  0  0  0  0  0
   10.3889    8.8476  -11.3321 F   0  0  0  0  0  0  0  0  0  0  0  0
    7.5742    4.0241  -11.4736 F   0  0  0  0  0  0  0  0  0  0  0  0
    7.9952    6.1965  -12.2443 C   0  0  0  0  0  0  0  0  0  0  0  0
    8.7497    7.5573  -12.1878 C   0  0  0  0  0  0  0  0  0  0  0  0
    6.7005    6.1093  -13.3512 Cl  0  0  0  0  0  0  0  0  0  0  0  0
    8.2694    8.8837  -13.1485 Cl  0  0  0  0  0  0  0  0  0  0  0  0
  1  2  1  0  0  0  0
  2  3  1  0  0  0  0
  3  4  1  0  0  0  0
  4  5  2  0  0  0  0
  4  6  1  0  0  0  0
  5  7  1  0  0  0  0
  6  8  2  0  0  0  0
  7  9  2  0  0  0  0
  7 10  1  0  0  0  0
  8  9  1  0  0  0  0
 10 11  1  0  0  0  0
 11 12  1  0  0  0  0
 11 13  2  0  0  0  0
 12 15  1  0  0  0  0
 12 18  2  0  0  0  0
 13 14  1  0  0  0  0
 14 16  1  0  0  0  0
 14 17  2  0  0  0  0
 17 18  1  0  0  0  0
 17 19  1  0  0  0  0
 18 20  1  0  0  0  0
M  END
$$$$

 OpenBabel10082411353D

 10 10  0  0  0  0  0  0  0  0999 V2000
   10.7609    9.6228   -4.2714 C   0  0  0  0  0  0  0  0  0  0  0  0
   10.4930    9.4831   -5.5343 C   0  0  0  0  0  0  0  0  0  0  0  0
   10.9731    8.4198   -6.2580 C   0  0  0  0  0  0  0  0  0  0  0  0
   11.7110    8.7664   -3.6515 C   0  0  0  0  0  0  0  0  0  0  0  0
   12.0749    8.9543   -2.1781 C   0  0  0  0  0  0  0  0  0  0  0  0
   10.5830    8.2729   -7.7233 C   0  0  0  0  0  0  0  0  0  0  0  0
   10.6971    7.0575   -8.1912 O   0  0  0  0  0  0  0  0  0  0  0  0
    9.8026    9.1573   -8.2708 O   0  0  0  0  0  0  0  0  0  0  0  0
   12.0041    7.4618   -4.3496 C   0  0  0  0  0  0  0  0  0  0  0  0
   11.6282    7.3489   -5.5808 C   0  0  0  0  0  0  0  0  0  0  0  0
  1  2  1  0  0  0  0
  1  4  2  0  0  0  0
  2  3  2  0  0  0  0
  3  6  1  0  0  0  0
  3 10  1  0  0  0  0
  4  5  1  0  0  0  0
  4  9  1  0  0  0  0
  6  7  2  0  0  0  0
  6  8  1  0  0  0  0
  9 10  2  0  0  0  0
M  END
$$$$

 OpenBabel10082411353D

 31 33  0  0  0  0  0  0  0  0999 V2000
   10.9951    9.9694   -4.9946 C   0  0  0  0  0  0  0  0  0  0  0  0
   11.7938    9.3762   -4.2463 C   0  0  0  0  0  0  0  0  0  0  0  0
   10.8673    9.4548   -6.4276 C   0  0  0  0  0  0  0  0  0  0  0  0
   11.6576    7.9117   -4.2944 C   0  0  0  0  0  0  0  0  0  0  0  0
   10.5498    8.0257   -6.4521 C   0  0  0  0  0  0  0  0  0  0  0  0
   11.4715    7.2752   -5.6166 C   0  0  0  0  0  0  0  0  0  0  0  0
   10.5840    7.5390   -7.9254 C   0  0  0  0  0  0  0  0  0  0  0  0
   11.4612    8.1494   -8.8322 C   0  0  0  0  0  0  0  0  0  0  0  0
   12.6250    8.6294   -8.4338 O   0  0  0  0  0  0  0  0  0  0  0  0
   11.0835    8.4395  -10.0740 O   0  0  0  0  0  0  0  0  0  0  0  0
   11.2938    7.5612  -11.0769 C   0  0  0  0  0  0  0  0  0  0  0  0
   10.1547    7.2525  -11.9492 C   0  0  0  0  0  0  0  0  0  0  0  0
   10.4293    6.5622  -13.1348 C   0  0  0  0  0  0  0  0  0  0  0  0
   11.7295    6.4217  -13.6243 C   0  0  0  0  0  0  0  0  0  0  0  0
    8.8120    7.3918  -11.4649 C   0  0  0  0  0  0  0  0  0  0  0  0
   12.5351    7.8894  -11.6869 C   0  0  0  0  0  0  0  0  0  0  0  0
   13.5778    8.4243  -10.9673 O   0  0  0  0  0  0  0  0  0  0  0  0
    7.7211    7.1761  -12.4323 C   0  0  0  0  0  0  0  0  0  0  0  0
   12.8103    7.0723  -12.8897 C   0  0  0  0  0  0  0  0  0  0  0  0
    7.0543    5.9667  -12.3369 C   0  0  0  0  0  0  0  0  0  0  0  0
    7.2392    8.1844  -13.1320 C   0  0  0  0  0  0  0  0  0  0  0  0
    6.6882    5.3848  -13.5016 O   0  0  0  0  0  0  0  0  0  0  0  0
    6.5103    5.5543  -11.3870 O   0  0  0  0  0  0  0  0  0  0  0  0
    7.4031    4.0506  -13.7852 C   0  0  2  0  0  0  0  0  0  0  0  0
    8.6811    3.9966  -14.1333 C   0  0  0  0  0  0  0  0  0  0  0  0
   12.0732    5.6649  -14.9357 C   0  0  0  0  0  0  0  0  0  0  0  0
    6.5833    2.9970  -14.2590 C   0  0  0  0  0  0  0  0  0  0  0  0
    9.5177    3.0853  -13.4316 C   0  0  0  0  0  0  0  0  0  0  0  0
   10.9059    2.9443  -13.9115 C   0  0  0  0  0  0  0  0  0  0  0  0
   11.5520    4.0840  -14.3996 N   0  0  0  0  0  0  0  0  0  0  0  0
   11.3028    1.8930  -14.0768 O   0  0  0  0  0  0  0  0  0  0  0  0
  1  2  1  0  0  0  0
  1  3  1  0  0  0  0
  2  4  1  0  0  0  0
  3  5  1  0  0  0  0
  4  6  1  0  0  0  0
  5  6  1  0  0  0  0
  5  7  1  0  0  0  0
  7  8  1  0  0  0  0
  8  9  2  0  0  0  0
  8 10  1  0  0  0  0
 10 11  1  0  0  0  0
 11 12  1  0  0  0  0
 11 16  2  0  0  0  0
 12 13  2  0  0  0  0
 12 15  1  0  0  0  0
 13 14  1  0  0  0  0
 14 19  2  0  0  0  0
 14 26  1  0  0  0  0
 15 18  1  0  0  0  0
 16 17  1  0  0  0  0
 16 19  1  0  0  0  0
 18 20  1  0  0  0  0
 18 21  2  0  0  0  0
 20 22  1  0  0  0  0
 20 23  2  0  0  0  0
 22 24  1  0  0  0  0
 24 25  1  0  0  0  0
 24 27  1  6  0  0  0
 25 28  1  0  0  0  0
 26 30  1  0  0  0  0
 28 29  1  0  0  0  0
 29 30  1  0  0  0  0
 29 31  2  0  0  0  0
M  END
$$$$

 OpenBabel10082411353D

 31 35  0  0  0  0  0  0  0  0999 V2000
   12.8881    8.7759   -3.5681 C   0  0  0  0  0  0  0  0  0  0  0  0
   11.9416    9.4732   -4.1220 C   0  0  0  0  0  0  0  0  0  0  0  0
   12.1782    9.3707   -5.6407 C   0  0  0  0  0  0  0  0  0  0  0  0
   11.3825    8.3447   -6.3966 C   0  0  0  0  0  0  0  0  0  0  0  0
   11.8188    8.0044   -7.6822 C   0  0  0  0  0  0  0  0  0  0  0  0
   10.3120    7.6600   -5.7120 C   0  0  0  0  0  0  0  0  0  0  0  0
   10.8678    7.0723   -8.2897 C   0  0  0  0  0  0  0  0  0  0  0  0
    9.5717    6.7245   -6.3809 C   0  0  0  0  0  0  0  0  0  0  0  0
    9.8820    6.4468   -7.7081 C   0  0  0  0  0  0  0  0  0  0  0  0
   11.2611    6.6953   -9.7105 C   0  0  1  0  0  0  0  0  0  0  0  0
   10.0425    6.5460  -10.5971 C   0  0  0  0  0  0  0  0  0  0  0  0
   11.8062    7.8130  -10.4883 C   0  0  0  0  0  0  0  0  0  0  0  0
    8.8746    5.5265   -8.4149 C   0  0  0  0  0  0  0  0  0  0  0  0
   13.1546    8.1022  -10.4049 O   0  0  0  0  0  0  0  0  0  0  0  0
   10.3114    6.7627  -11.8786 C   0  0  0  0  0  0  0  0  0  0  0  0
   11.3906    7.6694  -11.8036 N   0  0  0  0  0  0  0  0  0  0  0  0
   11.9779    8.2398  -13.0316 C   0  0  0  0  0  0  0  0  0  0  0  0
    8.8154    6.0162   -9.9613 C   0  0  0  0  0  0  0  0  0  0  0  0
    9.6102    6.3636  -13.0859 C   0  0  0  0  0  0  0  0  0  0  0  0
   11.8804    7.4718  -14.1937 C   0  0  0  0  0  0  0  0  0  0  0  0
   10.7017    6.3981  -14.2482 C   0  0  0  0  0  0  0  0  0  0  0  0
   10.3813    5.8427  -15.4547 C   0  0  2  0  0  0  0  0  0  0  0  0
    9.2579    5.0507  -15.6184 C   0  0  0  0  0  0  0  0  0  0  0  0
   11.6009    5.0735  -15.6795 C   0  0  0  0  0  0  0  0  0  0  0  0
    9.6578    3.6391  -15.4657 C   0  0  0  0  0  0  0  0  0  0  0  0
    8.8471    2.6298  -15.1475 C   0  0  0  0  0  0  0  0  0  0  0  0
    7.4652    2.8228  -14.8567 C   0  0  0  0  0  0  0  0  0  0  0  0
    9.4580    1.3364  -14.8006 C   0  0  0  0  0  0  0  0  0  0  0  0
   11.1304    3.5102  -15.7610 C   0  0  0  0  0  0  0  0  0  0  0  0
    7.0556    2.8867  -13.4549 C   0  0  0  0  0  0  0  0  0  0  0  0
    5.8587    2.1257  -13.0814 C   0  0  0  0  0  0  0  0  0  0  0  0
  1  2  1  0  0  0  0
  2  3  1  0  0  0  0
  3  4  1  0  0  0  0
  4  5  2  0  0  0  0
  4  6  1  0  0  0  0
  5  7  1  0  0  0  0
  6  8  2  0  0  0  0
  7  9  2  0  0  0  0
  8  9  1  0  0  0  0
  9 13  1  0  0  0  0
 10  7  1  1  0  0  0
 10 11  1  0  0  0  0
 10 12  1  0  0  0  0
 11 15  2  0  0  0  0
 11 18  1  0  0  0  0
 12 14  2  0  0  0  0
 12 16  1  0  0  0  0
 13 18  1  0  0  0  0
 15 16  1  0  0  0  0
 15 19  1  0  0  0  0
 16 17  1  0  0  0  0
 17 20  1  0  0  0  0
 19 21  1  0  0  0  0
 20 21  2  0  0  0  0
 22 21  1  1  0  0  0
 22 23  1  0  0  0  0
 22 24  1  0  0  0  0
 23 25  1  0  0  0  0
 24 29  1  0  0  0  0
 25 26  2  3  0  0  0
 25 29  1  0  0  0  0
 26 27  1  0  0  0  0
 26 28  1  0  0  0  0
 27 30  1  0  0  0  0
 30 31  1  0  0  0  0
M  END
$$$$

 OpenBabel10082411353D

 31 34  0  0  0  0  0  0  0  0999 V2000
   12.7863    7.8241  -14.2109 C   0  0  0  0  0  0  0  0  0  0  0  0
   12.4233    7.7158  -13.0289 C   0  0  0  0  0  0  0  0  0  0  0  0
   12.9219    8.1949  -11.8668 C   0  0  0  0  0  0  0  0  0  0  0  0
   11.4275    6.6086  -12.7931 C   0  0  0  0  0  0  0  0  0  0  0  0
   10.3411    6.8404  -12.0679 C   0  0  0  0  0  0  0  0  0  0  0  0
   10.7226    7.4332  -10.7281 C   0  0  0  0  0  0  0  0  0  0  0  0
    9.0684    5.8539  -11.9851 C   0  0  0  0  0  0  0  0  0  0  0  0
    9.8080    7.4062   -9.6015 C   0  0  0  0  0  0  0  0  0  0  0  0
   11.9300    8.1400  -10.6702 C   0  0  0  0  0  0  0  0  0  0  0  0
   11.0289    6.0120  -14.2884 C   0  0  1  0  0  0  0  0  0  0  0  0
    9.9681    6.1425   -8.6941 C   0  0  0  0  0  0  0  0  0  0  0  0
    7.9946    6.5885  -12.1474 C   0  0  0  0  0  0  0  0  0  0  0  0
   10.2822    6.4890   -7.2771 C   0  0  0  0  0  0  0  0  0  0  0  0
   11.5540    6.8919   -6.8963 C   0  0  0  0  0  0  0  0  0  0  0  0
   11.8977    7.2299   -5.5785 C   0  0  0  0  0  0  0  0  0  0  0  0
   11.9395    6.5440  -15.2769 C   0  0  0  0  0  0  0  0  0  0  0  0
    6.8195    5.8154  -12.4332 C   0  0  0  0  0  0  0  0  0  0  0  0
    8.9573    4.5198  -11.6521 C   0  0  0  0  0  0  0  0  0  0  0  0
   11.8306    6.3760   -4.6325 C   0  0  0  0  0  0  0  0  0  0  0  0
    7.8819    8.0369  -12.3720 C   0  0  0  0  0  0  0  0  0  0  0  0
    7.9167    3.8403  -11.9170 C   0  0  0  0  0  0  0  0  0  0  0  0
    6.8454    4.4501  -12.1858 C   0  0  0  0  0  0  0  0  0  0  0  0
   11.1077    4.5260  -14.4287 C   0  0  0  0  0  0  0  0  0  0  0  0
   12.1634    8.6574   -5.1361 C   0  0  0  0  0  0  0  0  0  0  0  0
   12.1699    6.6825   -3.2626 C   0  0  0  0  0  0  0  0  0  0  0  0
   10.3720    3.6729  -14.1530 O   0  0  0  0  0  0  0  0  0  0  0  0
    5.6263    3.6658  -12.4181 C   0  0  0  0  0  0  0  0  0  0  0  0
   12.4528    8.0260   -2.9036 C   0  0  0  0  0  0  0  0  0  0  0  0
   12.5024    4.0641  -14.7162 O   0  0  0  0  0  0  0  0  0  0  0  0
   12.0940    9.7678   -6.2676 C   0  0  0  0  0  0  0  0  0  0  0  0
   12.4011    9.0086   -3.8396 C   0  0  0  0  0  0  0  0  0  0  0  0
  1  2  1  0  0  0  0
  1 16  1  0  0  0  0
  2  3  1  0  0  0  0
  2  4  2  0  0  0  0
  3  9  2  0  0  0  0
  4  5  1  0  0  0  0
  4 10  1  0  0  0  0
  5  6  2  0  0  0  0
  5  7  1  0  0  0  0
  6  8  1  0  0  0  0
  6  9  1  0  0  0  0
  7 12  1  0  0  0  0
  7 18  2  0  0  0  0
  8 11  1  0  0  0  0
 10 16  1  0  0  0  0
 10 23  1  1  0  0  0
 11 13  1  0  0  0  0
 12 17  2  0  0  0  0
 12 20  1  0  0  0  0
 13 14  2  3  0  0  0
 14 15  1  0  0  0  0
 15 19  2  0  0  0  0
 15 24  1  0  0  0  0
 17 22  1  0  0  0  0
 18 21  1  0  0  0  0
 19 25  1  0  0  0  0
 21 22  2  0  0  0  0
 22 27  1  0  0  0  0
 23 26  2  0  0  0  0
 23 29  1  0  0  0  0
 24 30  1  0  0  0  0
 24 31  2  0  0  0  0
 25 28  2  0  0  0  0
 28 31  1  0  0  0  0
M  END
$$$$

 OpenBabel10082411353D

 31 33  0  0  0  0  0  0  0  0999 V2000
   10.9951    9.9694   -4.9946 C   0  0  0  0  0  0  0  0  0  0  0  0
   11.7938    9.3762   -4.2463 C   0  0  0  0  0  0  0  0  0  0  0  0
   10.8673    9.4548   -6.4276 C   0  0  0  0  0  0  0  0  0  0  0  0
   11.6576    7.9117   -4.2944 C   0  0  0  0  0  0  0  0  0  0  0  0
   10.5498    8.0257   -6.4521 C   0  0  0  0  0  0  0  0  0  0  0  0
   11.4715    7.2752   -5.6166 C   0  0  0  0  0  0  0  0  0  0  0  0
   10.5840    7.5390   -7.9254 C   0  0  0  0  0  0  0  0  0  0  0  0
   11.4612    8.1494   -8.8322 C   0  0  0  0  0  0  0  0  0  0  0  0
   12.6250    8.6294   -8.4338 O   0  0  0  0  0  0  0  0  0  0  0  0
   11.0835    8.4395  -10.0740 O   0  0  0  0  0  0  0  0  0  0  0  0
   11.2938    7.5612  -11.0769 C   0  0  0  0  0  0  0  0  0  0  0  0
   10.1547    7.2525  -11.9492 C   0  0  0  0  0  0  0  0  0  0  0  0
   10.4293    6.5622  -13.1348 C   0  0  0  0  0  0  0  0  0  0  0  0
   11.7295    6.4217  -13.6243 C   0  0  0  0  0  0  0  0  0  0  0  0
    8.8120    7.3918  -11.4649 C   0  0  0  0  0  0  0  0  0  0  0  0
   12.5351    7.8894  -11.6869 C   0  0  0  0  0  0  0  0  0  0  0  0
   13.5778    8.4243  -10.9673 O   0  0  0  0  0  0  0  0  0  0  0  0
    7.7211    7.1761  -12.4323 C   0  0  0  0  0  0  0  0  0  0  0  0
   12.8103    7.0723  -12.8897 C   0  0  0  0  0  0  0  0  0  0  0  0
    7.0543    5.9667  -12.3369 C   0  0  0  0  0  0  0  0  0  0  0  0
    7.2392    8.1844  -13.1320 C   0  0  0  0  0  0  0  0  0  0  0  0
    6.6882    5.3848  -13.5016 O   0  0  0  0  0  0  0  0  0  0  0  0
    6.5103    5.5543  -11.3870 O   0  0  0  0  0  0  0  0  0  0  0  0
    6.2207    3.9777  -13.2572 C   0  0  0  0  0  0  0  0  0  0  0  0
   12.0582    5.6070  -14.9443 C   0  0  0  0  0  0  0  0  0  0  0  0
   11.9052    4.2756  -14.8803 C   0  0  0  0  0  0  0  0  0  0  0  0
   11.0336    3.7774  -13.9306 C   0  0  0  0  0  0  0  0  0  0  0  0
   10.5432    2.3297  -14.1818 C   0  0  0  0  0  0  0  0  0  0  0  0
    7.1914    2.9126  -13.5763 C   0  0  0  0  0  0  0  0  0  0  0  0
    9.3027    2.0903  -13.8544 O   0  0  0  0  0  0  0  0  0  0  0  0
    8.4336    3.2058  -14.1720 C   0  0  0  0  0  0  0  0  0  0  0  0
  1  2  1  0  0  0  0
  1  3  1  0  0  0  0
  2  4  1  0  0  0  0
  3  5  1  0  0  0  0
  4  6  1  0  0  0  0
  5  6  1  0  0  0  0
  5  7  1  0  0  0  0
  7  8  1  0  0  0  0
  8  9  2  0  0  0  0
  8 10  1  0  0  0  0
 10 11  1  0  0  0  0
 11 12  1  0  0  0  0
 11 16  2  0  0  0  0
 12 13  2  0  0  0  0
 12 15  1  0  0  0  0
 13 14  1  0  0  0  0
 14 19  2  0  0  0  0
 14 25  1  0  0  0  0
 15 18  1  0  0  0  0
 16 17  1  0  0  0  0
 16 19  1  0  0  0  0
 18 20  1  0  0  0  0
 18 21  2  0  0  0  0
 20 22  1  0  0  0  0
 20 23  2  0  0  0  0
 22 24  1  0  0  0  0
 24 29  1  0  0  0  0
 25 26  1  0  0  0  0
 26 27  1  0  0  0  0
 27 28  1  0  0  0  0
 28 30  1  0  0  0  0
 29 31  1  0  0  0  0
 30 31  1  0  0  0  0
M  END
$$$$

 OpenBabel10082411353D

 31 34  0  0  0  0  0  0  0  0999 V2000
   11.6836    6.0105   -4.8831 F   0  0  0  0  0  0  0  0  0  0  0  0
   11.2562    7.2206   -5.0294 C   0  0  0  0  0  0  0  0  0  0  0  0
   12.0125    8.2418   -4.4408 C   0  0  0  0  0  0  0  0  0  0  0  0
   11.1918    7.2706   -6.5237 C   0  0  0  0  0  0  0  0  0  0  0  0
   11.6999    8.4488   -3.1704 F   0  0  0  0  0  0  0  0  0  0  0  0
    9.8648    7.0908   -4.5314 F   0  0  0  0  0  0  0  0  0  0  0  0
   11.6831    8.5291   -6.9682 C   0  0  0  0  0  0  0  0  0  0  0  0
   10.4785    6.5189   -7.4033 C   0  0  0  0  0  0  0  0  0  0  0  0
   11.6979    8.6661   -8.4760 C   0  0  0  0  0  0  0  0  0  0  0  0
   11.6248    9.5853   -5.0030 C   0  0  0  0  0  0  0  0  0  0  0  0
   11.8604    9.7907   -6.2903 O   0  0  0  0  0  0  0  0  0  0  0  0
   13.3557    8.1748   -4.5947 F   0  0  0  0  0  0  0  0  0  0  0  0
   10.5427    6.6061   -8.7190 C   0  0  0  0  0  0  0  0  0  0  0  0
   11.1158    7.7103   -9.2540 C   0  0  0  0  0  0  0  0  0  0  0  0
   11.3757    7.6656  -10.5293 N   0  0  0  0  0  0  0  0  0  0  0  0
   10.7153    7.7096  -11.5405 C   0  0  0  0  0  0  0  0  0  0  0  0
   11.2483    7.4711  -12.8542 C   0  0  0  0  0  0  0  0  0  0  0  0
    9.3980    7.7820  -11.5398 C   0  0  0  0  0  0  0  0  0  0  0  0
    8.6055    7.5889  -12.6525 C   0  0  0  0  0  0  0  0  0  0  0  0
   12.7508    7.3705  -13.0162 O   0  0  0  0  0  0  0  0  0  0  0  0
   10.5299    7.1831  -13.9856 C   0  0  0  0  0  0  0  0  0  0  0  0
    7.0533    7.7371  -12.5396 C   0  0  0  0  0  0  0  0  0  0  0  0
   11.2041    6.8490  -15.2304 C   0  0  0  0  0  0  0  0  0  0  0  0
   11.6393    5.5333  -15.3864 C   0  0  0  0  0  0  0  0  0  0  0  0
    9.1955    7.2935  -13.8301 C   0  0  0  0  0  0  0  0  0  0  0  0
   12.5294    5.1116  -16.1609 C   0  0  0  0  0  0  0  0  0  0  0  0
   11.0064    4.4392  -14.5138 C   0  0  0  0  0  0  0  0  0  0  0  0
   11.4263    3.0925  -14.7287 C   0  0  0  0  0  0  0  0  0  0  0  0
   13.0864    6.2340  -17.0377 C   0  0  0  0  0  0  0  0  0  0  0  0
   12.8559    3.8607  -16.4677 C   0  0  0  0  0  0  0  0  0  0  0  0
   12.1209    2.9100  -15.8090 C   0  0  0  0  0  0  0  0  0  0  0  0
  1  2  1  0  0  0  0
  2  3  1  0  0  0  0
  2  4  1  0  0  0  0
  2  6  1  0  0  0  0
  3  5  1  0  0  0  0
  3 10  1  0  0  0  0
  3 12  1  0  0  0  0
  4  7  1  0  0  0  0
  4  8  2  0  0  0  0
  7  9  2  0  0  0  0
  7 11  1  0  0  0  0
  8 13  1  0  0  0  0
  9 14  1  0  0  0  0
 10 11  1  0  0  0  0
 13 14  2  0  0  0  0
 14 15  1  0  0  0  0
 15 16  1  0  0  0  0
 16 17  1  0  0  0  0
 16 18  2  0  0  0  0
 17 20  1  0  0  0  0
 17 21  2  0  0  0  0
 18 19  1  0  0  0  0
 19 22  1  0  0  0  0
 19 25  2  0  0  0  0
 21 23  1  0  0  0  0
 21 25  1  0  0  0  0
 23 24  1  0  0  0  0
 24 26  2  0  0  0  0
 24 27  1  0  0  0  0
 26 29  1  0  0  0  0
 26 30  1  0  0  0  0
 27 28  2  0  0  0  0
 28 31  1  0  0  0  0
 30 31  2  0  0  0  0
M  END
$$$$

 OpenBabel10082411353D

 31 35  0  0  0  0  0  0  0  0999 V2000
   11.6849    3.3051  -14.7886 C   0  0  0  0  0  0  0  0  0  0  0  0
   11.9222    4.4917  -14.7896 C   0  0  0  0  0  0  0  0  0  0  0  0
   10.4105    3.0506  -15.0123 C   0  0  0  0  0  0  0  0  0  0  0  0
   11.4495    5.4335  -14.4813 C   0  0  0  0  0  0  0  0  0  0  0  0
    9.5038    4.0445  -14.6973 C   0  0  0  0  0  0  0  0  0  0  0  0
    8.0744    3.8032  -14.7673 O   0  0  0  0  0  0  0  0  0  0  0  0
    7.4019    4.2664  -13.6471 C   0  0  0  0  0  0  0  0  0  0  0  0
   11.8713    6.8371  -14.3117 C   0  0  0  0  0  0  0  0  0  0  0  0
   12.8441    7.2889  -15.0274 O   0  0  0  0  0  0  0  0  0  0  0  0
    9.9408    5.3883  -14.5322 C   0  0  0  0  0  0  0  0  0  0  0  0
   11.9372    7.2052  -12.9834 O   0  0  0  0  0  0  0  0  0  0  0  0
    7.6871    5.3657  -12.9437 C   0  0  0  0  0  0  0  0  0  0  0  0
    6.6825    5.6376  -11.8704 C   0  0  0  0  0  0  0  0  0  0  0  0
   12.9330    7.4672  -12.1262 C   0  0  0  0  0  0  0  0  0  0  0  0
    5.6490    4.8336  -11.7379 C   0  0  0  0  0  0  0  0  0  0  0  0
    6.2655    3.3248  -13.2380 C   0  0  0  0  0  0  0  0  0  0  0  0
   12.5459    7.5503  -10.6847 C   0  0  0  0  0  0  0  0  0  0  0  0
    5.5326    3.6923  -12.2221 C   0  0  0  0  0  0  0  0  0  0  0  0
   13.2808    8.2749   -9.7966 C   0  0  0  0  0  0  0  0  0  0  0  0
   12.7625    8.4244   -8.5830 C   0  0  0  0  0  0  0  0  0  0  0  0
   11.1393    7.2655  -10.3421 C   0  0  0  0  0  0  0  0  0  0  0  0
   10.7436    7.4242   -9.1139 C   0  0  0  0  0  0  0  0  0  0  0  0
   11.5582    7.9816   -8.1804 C   0  0  0  0  0  0  0  0  0  0  0  0
   11.0885    8.1382   -6.7137 C   0  0  1  0  0  0  0  0  0  0  0  0
    9.8528    8.8294   -6.6452 C   0  0  0  0  0  0  0  0  0  0  0  0
    8.8998    8.0398   -6.0308 C   0  0  0  0  0  0  0  0  0  0  0  0
    9.3715    6.6666   -6.1288 C   0  0  0  0  0  0  0  0  0  0  0  0
   10.7980    6.8271   -6.2455 C   0  0  2  0  0  0  0  0  0  0  0  0
   12.1160    8.8620   -5.8401 C   0  0  0  0  0  0  0  0  0  0  0  0
   12.1789    8.3531   -4.5239 C   0  0  0  0  0  0  0  0  0  0  0  0
   11.5704    6.6814   -4.8898 C   0  0  0  0  0  0  0  0  0  0  0  0
  1  2  1  0  0  0  0
  1  3  2  0  0  0  0
  2  4  2  0  0  0  0
  3  5  1  0  0  0  0
  4  8  1  0  0  0  0
  4 10  1  0  0  0  0
  5  6  1  0  0  0  0
  5 10  2  0  0  0  0
  6  7  1  0  0  0  0
  7 12  2  0  0  0  0
  7 16  1  0  0  0  0
  8  9  2  0  0  0  0
  8 11  1  0  0  0  0
 11 14  1  0  0  0  0
 12 13  1  0  0  0  0
 13 15  2  0  0  0  0
 14 17  1  0  0  0  0
 15 18  1  0  0  0  0
 16 18  2  0  0  0  0
 17 19  1  0  0  0  0
 17 21  2  0  0  0  0
 19 20  2  0  0  0  0
 20 23  1  0  0  0  0
 21 22  1  0  0  0  0
 22 23  2  0  0  0  0
 24 23  1  6  0  0  0
 24 25  1  0  0  0  0
 24 28  1  0  0  0  0
 24 29  1  0  0  0  0
 25 26  1  0  0  0  0
 26 27  1  0  0  0  0
 28 27  1  1  0  0  0
 28 31  1  0  0  0  0
 29 30  1  0  0  0  0
 30 31  1  0  0  0  0
M  END
$$$$

 OpenBabel10082411353D

 31 35  0  0  0  0  0  0  0  0999 V2000
   13.2485    9.2493   -6.3668 O   0  0  0  0  0  0  0  0  0  0  0  0
   12.3055    9.1779   -7.4488 C   0  0  1  0  0  0  0  0  0  0  0  0
   12.5005    8.1033   -8.2440 C   0  0  0  0  0  0  0  0  0  0  0  0
   11.7072    8.0925   -9.4886 C   0  0  0  0  0  0  0  0  0  0  0  0
   12.2659    7.9483  -10.6668 C   0  0  0  0  0  0  0  0  0  0  0  0
   10.2869    8.0426   -9.4299 C   0  0  0  0  0  0  0  0  0  0  0  0
   13.6482    8.0497  -10.9162 O   0  0  0  0  0  0  0  0  0  0  0  0
   11.5356    7.8148  -11.9199 C   0  0  0  0  0  0  0  0  0  0  0  0
   12.2597    7.6523  -13.1838 C   0  0  0  0  0  0  0  0  0  0  0  0
    9.5345    7.8388  -10.6476 C   0  0  0  0  0  0  0  0  0  0  0  0
   12.7796    8.4277  -13.7325 O   0  0  0  0  0  0  0  0  0  0  0  0
   10.1724    7.7406  -11.8577 C   0  0  0  0  0  0  0  0  0  0  0  0
   12.4765    6.3392  -13.7439 N   0  0  0  0  0  0  0  0  0  0  0  0
    9.2368    7.4770  -13.0161 C   0  0  1  0  0  0  0  0  0  0  0  0
    8.7686    6.0601  -13.0538 C   0  0  0  0  0  0  0  0  0  0  0  0
   11.7377    5.1496  -13.1887 C   0  0  0  0  0  0  0  0  0  0  0  0
   10.9893    9.0510   -6.5404 C   0  0  0  0  0  0  0  0  0  0  0  0
   11.2522    8.1647   -5.3854 C   0  0  2  0  0  0  0  0  0  0  0  0
    7.8881    5.4892  -12.2818 C   0  0  0  0  0  0  0  0  0  0  0  0
    8.1030    8.4511  -12.9051 C   0  0  0  0  0  0  0  0  0  0  0  0
   11.2726    4.1709  -14.3554 C   0  0  1  0  0  0  0  0  0  0  0  0
   12.7640    9.8841   -5.1669 C   0  0  0  0  0  0  0  0  0  0  0  0
   10.2020    7.3447   -4.8869 C   0  0  0  0  0  0  0  0  0  0  0  0
    9.2831    5.2239  -14.0945 C   0  0  0  0  0  0  0  0  0  0  0  0
    7.4658    4.1818  -12.3783 C   0  0  0  0  0  0  0  0  0  0  0  0
   11.8409    9.0255   -4.2786 C   0  0  0  0  0  0  0  0  0  0  0  0
    8.0323    3.4365  -13.5317 C   0  0  0  0  0  0  0  0  0  0  0  0
    8.8555    3.9527  -14.2628 C   0  0  0  0  0  0  0  0  0  0  0  0
    9.6277    3.1977  -15.2748 O   0  0  0  0  0  0  0  0  0  0  0  0
   10.8942    2.8903  -14.7555 C   0  0  0  0  0  0  0  0  0  0  0  0
   10.4580    5.4501  -14.9271 O   0  0  0  0  0  0  0  0  0  0  0  0
  1  2  1  0  0  0  0
  1 22  1  0  0  0  0
  2  3  1  6  0  0  0
  2 17  1  0  0  0  0
  3  4  1  0  0  0  0
  4  5  1  0  0  0  0
  4  6  2  0  0  0  0
  5  7  1  0  0  0  0
  5  8  2  0  0  0  0
  6 10  1  0  0  0  0
  8  9  1  0  0  0  0
  8 12  1  0  0  0  0
  9 11  2  0  0  0  0
  9 13  1  0  0  0  0
 10 12  2  0  0  0  0
 12 14  1  0  0  0  0
 13 16  1  0  0  0  0
 14 15  1  0  0  0  0
 14 20  1  1  0  0  0
 15 19  1  0  0  0  0
 15 24  2  0  0  0  0
 17 18  1  0  0  0  0
 18 23  1  1  0  0  0
 18 26  1  0  0  0  0
 19 25  2  0  0  0  0
 21 16  1  1  0  0  0
 21 30  1  0  0  0  0
 21 31  1  0  0  0  0
 22 26  1  0  0  0  0
 24 28  1  0  0  0  0
 24 31  1  0  0  0  0
 25 27  1  0  0  0  0
 27 28  2  0  0  0  0
 28 29  1  0  0  0  0
 29 30  1  0  0  0  0
M  END
$$$$

 OpenBabel10082411353D

 31 34  0  0  0  0  0  0  0  0999 V2000
   13.2485    9.2493   -6.3668 O   0  0  0  0  0  0  0  0  0  0  0  0
   12.3055    9.1779   -7.4488 C   0  0  1  0  0  0  0  0  0  0  0  0
   12.5005    8.1033   -8.2440 C   0  0  0  0  0  0  0  0  0  0  0  0
   11.7072    8.0925   -9.4886 C   0  0  0  0  0  0  0  0  0  0  0  0
   12.2659    7.9483  -10.6668 C   0  0  0  0  0  0  0  0  0  0  0  0
   10.2869    8.0426   -9.4299 C   0  0  0  0  0  0  0  0  0  0  0  0
   13.6482    8.0497  -10.9162 O   0  0  0  0  0  0  0  0  0  0  0  0
   11.5356    7.8148  -11.9199 C   0  0  0  0  0  0  0  0  0  0  0  0
   12.2597    7.6523  -13.1838 C   0  0  0  0  0  0  0  0  0  0  0  0
    9.5345    7.8388  -10.6476 C   0  0  0  0  0  0  0  0  0  0  0  0
   12.7796    8.4277  -13.7325 O   0  0  0  0  0  0  0  0  0  0  0  0
   10.1724    7.7406  -11.8577 C   0  0  0  0  0  0  0  0  0  0  0  0
   12.4765    6.3392  -13.7439 N   0  0  0  0  0  0  0  0  0  0  0  0
    9.2368    7.4770  -13.0161 C   0  0  1  0  0  0  0  0  0  0  0  0
    8.7686    6.0601  -13.0538 C   0  0  0  0  0  0  0  0  0  0  0  0
   11.7377    5.1496  -13.1887 C   0  0  0  0  0  0  0  0  0  0  0  0
   10.9893    9.0510   -6.5404 C   0  0  0  0  0  0  0  0  0  0  0  0
   11.2522    8.1647   -5.3854 C   0  0  2  0  0  0  0  0  0  0  0  0
    7.8881    5.4892  -12.2818 C   0  0  0  0  0  0  0  0  0  0  0  0
    8.1030    8.4511  -12.9051 C   0  0  0  0  0  0  0  0  0  0  0  0
   11.2726    4.1709  -14.3554 C   0  0  0  0  0  0  0  0  0  0  0  0
   12.7640    9.8841   -5.1669 C   0  0  0  0  0  0  0  0  0  0  0  0
   10.2020    7.3447   -4.8869 O   0  0  0  0  0  0  0  0  0  0  0  0
    7.3405    6.1987  -11.1725 O   0  0  0  0  0  0  0  0  0  0  0  0
    8.8514    5.4597  -14.2918 C   0  0  0  0  0  0  0  0  0  0  0  0
   11.8543    8.9130   -4.3539 C   0  0  0  0  0  0  0  0  0  0  0  0
    9.6376    4.1710  -14.3682 C   0  0  2  0  0  0  0  0  0  0  0  0
    9.2569    3.1750  -13.4204 C   0  0  2  0  0  0  0  0  0  0  0  0
    7.6105    4.1091  -12.2606 C   0  0  0  0  0  0  0  0  0  0  0  0
    9.5783    1.9037  -14.0909 O   0  0  0  0  0  0  0  0  0  0  0  0
    7.9835    3.0873  -12.9031 C   0  0  0  0  0  0  0  0  0  0  0  0
  1  2  1  0  0  0  0
  1 22  1  0  0  0  0
  2  3  1  6  0  0  0
  2 17  1  0  0  0  0
  3  4  1  0  0  0  0
  4  5  1  0  0  0  0
  4  6  2  0  0  0  0
  5  7  1  0  0  0  0
  5  8  2  0  0  0  0
  6 10  1  0  0  0  0
  8  9  1  0  0  0  0
  8 12  1  0  0  0  0
  9 11  2  0  0  0  0
  9 13  1  0  0  0  0
 10 12  2  0  0  0  0
 12 14  1  0  0  0  0
 13 16  1  0  0  0  0
 14 15  1  0  0  0  0
 14 20  1  1  0  0  0
 15 19  1  0  0  0  0
 15 25  2  0  0  0  0
 16 21  1  0  0  0  0
 17 18  1  0  0  0  0
 18 23  1  1  0  0  0
 18 26  1  0  0  0  0
 19 24  1  0  0  0  0
 19 29  2  0  0  0  0
 22 26  1  0  0  0  0
 25 27  1  0  0  0  0
 27 21  1  1  0  0  0
 27 28  1  0  0  0  0
 28 30  1  6  0  0  0
 28 31  1  0  0  0  0
 29 31  1  0  0  0  0
M  END
$$$$

 OpenBabel10082411353D

 31 35  0  0  0  0  0  0  0  0999 V2000
   11.6836    6.0105   -4.8831 C   0  0  0  0  0  0  0  0  0  0  0  0
   11.1291    7.0732   -5.4395 C   0  0  0  0  0  0  0  0  0  0  0  0
   10.6954    7.0156   -6.8073 C   0  0  0  0  0  0  0  0  0  0  0  0
   10.2502    8.1187   -7.5536 C   0  0  2  0  0  0  0  0  0  0  0  0
   11.1205    8.4712   -4.9629 C   0  0  0  0  0  0  0  0  0  0  0  0
   10.8655    8.3511   -8.7960 C   0  0  0  0  0  0  0  0  0  0  0  0
   10.2922    7.8843   -9.9985 C   0  0  0  0  0  0  0  0  0  0  0  0
   10.4654    9.6993   -5.6120 C   0  0  0  0  0  0  0  0  0  0  0  0
   10.3510    9.5971   -7.0014 C   0  0  0  0  0  0  0  0  0  0  0  0
   12.2462    6.3351   -3.5020 C   0  0  0  0  0  0  0  0  0  0  0  0
   11.0471    7.5309  -11.1063 C   0  0  0  0  0  0  0  0  0  0  0  0
   11.7288    8.6923   -3.6518 C   0  0  0  0  0  0  0  0  0  0  0  0
   12.3991    7.7501  -11.1145 C   0  0  0  0  0  0  0  0  0  0  0  0
   12.3738    7.7580   -2.9599 C   0  0  0  0  0  0  0  0  0  0  0  0
   13.1285    8.5075  -10.1661 O   0  0  0  0  0  0  0  0  0  0  0  0
    9.0407    7.3775  -10.0973 N   0  0  0  0  0  0  0  0  0  0  0  0
    8.9787    6.9473  -11.4664 N   0  0  0  0  0  0  0  0  0  0  0  0
   13.1012    7.4459  -12.3707 C   0  0  0  0  0  0  0  0  0  0  0  0
   12.2395    6.9724  -13.2444 C   0  0  0  0  0  0  0  0  0  0  0  0
   10.2768    7.0170  -11.9799 C   0  0  0  0  0  0  0  0  0  0  0  0
   12.9237    6.5822  -14.5759 O   0  0  0  0  0  0  0  0  0  0  0  0
   10.8906    6.6526  -13.2252 C   0  0  0  0  0  0  0  0  0  0  0  0
   12.2396    6.1290  -15.6916 C   0  0  0  0  0  0  0  0  0  0  0  0
    7.8036    6.1825  -11.9342 C   0  0  1  0  0  0  0  0  0  0  0  0
   12.5015    4.7115  -15.7686 C   0  0  0  0  0  0  0  0  0  0  0  0
   11.2371    3.8608  -15.4354 C   0  0  0  0  0  0  0  0  0  0  0  0
   10.7528    3.7938  -14.2514 C   0  0  0  0  0  0  0  0  0  0  0  0
    9.5139    2.8763  -14.1188 C   0  0  0  0  0  0  0  0  0  0  0  0
    6.9531    6.9640  -12.6499 C   0  0  0  0  0  0  0  0  0  0  0  0
    8.1816    4.8569  -12.5331 C   0  0  0  0  0  0  0  0  0  0  0  0
    8.4031    3.6064  -13.3735 C   0  0  0  0  0  0  0  0  0  0  0  0
  1  2  1  0  0  0  0
  1 10  2  0  0  0  0
  2  3  1  0  0  0  0
  2  5  2  0  0  0  0
  3  4  1  0  0  0  0
  4  6  1  6  0  0  0
  4  9  1  0  0  0  0
  5  8  1  0  0  0  0
  5 12  1  0  0  0  0
  6  7  1  0  0  0  0
  7 11  1  0  0  0  0
  7 16  2  0  0  0  0
  8  9  1  0  0  0  0
 10 14  1  0  0  0  0
 11 13  2  0  0  0  0
 11 20  1  0  0  0  0
 12 14  2  0  0  0  0
 13 15  1  0  0  0  0
 13 18  1  0  0  0  0
 16 17  1  0  0  0  0
 17 20  1  0  0  0  0
 17 24  1  0  0  0  0
 18 19  2  0  0  0  0
 19 21  1  0  0  0  0
 19 22  1  0  0  0  0
 20 22  2  0  0  0  0
 21 23  1  0  0  0  0
 23 25  1  0  0  0  0
 24 29  1  6  0  0  0
 24 30  1  0  0  0  0
 25 26  1  0  0  0  0
 26 27  1  0  0  0  0
 27 28  1  0  0  0  0
 28 31  1  0  0  0  0
 30 31  2  0  0  0  0
M  END
$$$$

 OpenBabel10082411353D

 31 33  0  0  0  0  0  0  0  0999 V2000
   10.9951    9.9694   -4.9946 C   0  0  0  0  0  0  0  0  0  0  0  0
   11.7938    9.3762   -4.2463 C   0  0  0  0  0  0  0  0  0  0  0  0
   10.8673    9.4548   -6.4276 C   0  0  0  0  0  0  0  0  0  0  0  0
   11.6576    7.9117   -4.2944 C   0  0  0  0  0  0  0  0  0  0  0  0
   10.5498    8.0257   -6.4521 C   0  0  0  0  0  0  0  0  0  0  0  0
   11.4715    7.2752   -5.6166 C   0  0  0  0  0  0  0  0  0  0  0  0
   10.5840    7.5390   -7.9254 C   0  0  0  0  0  0  0  0  0  0  0  0
   11.4612    8.1494   -8.8322 C   0  0  0  0  0  0  0  0  0  0  0  0
   12.6250    8.6294   -8.4338 O   0  0  0  0  0  0  0  0  0  0  0  0
   11.0835    8.4395  -10.0740 O   0  0  0  0  0  0  0  0  0  0  0  0
   11.2938    7.5612  -11.0769 C   0  0  0  0  0  0  0  0  0  0  0  0
   10.1547    7.2525  -11.9492 C   0  0  0  0  0  0  0  0  0  0  0  0
   10.4293    6.5622  -13.1348 C   0  0  0  0  0  0  0  0  0  0  0  0
   11.7295    6.4217  -13.6243 C   0  0  0  0  0  0  0  0  0  0  0  0
    8.8120    7.3918  -11.4649 C   0  0  0  0  0  0  0  0  0  0  0  0
   12.5351    7.8894  -11.6869 C   0  0  0  0  0  0  0  0  0  0  0  0
   13.5778    8.4243  -10.9673 O   0  0  0  0  0  0  0  0  0  0  0  0
    7.7211    7.1761  -12.4323 C   0  0  0  0  0  0  0  0  0  0  0  0
   12.8103    7.0723  -12.8897 C   0  0  0  0  0  0  0  0  0  0  0  0
   12.0436    5.6071  -14.9340 C   0  0  0  0  0  0  0  0  0  0  0  0
    7.0836    5.9395  -12.4265 C   0  0  0  0  0  0  0  0  0  0  0  0
   12.2310    6.2743  -15.9354 C   0  0  0  0  0  0  0  0  0  0  0  0
   12.2496    7.7239  -16.0557 F   0  0  0  0  0  0  0  0  0  0  0  0
   12.2911    4.2530  -14.7118 C   0  0  0  0  0  0  0  0  0  0  0  0
   12.5437    5.6186  -17.1528 C   0  0  0  0  0  0  0  0  0  0  0  0
    6.4460    5.5498  -11.4788 O   0  0  0  0  0  0  0  0  0  0  0  0
    7.6157    5.0197  -13.3302 O   0  0  0  0  0  0  0  0  0  0  0  0
    7.2424    3.6606  -13.2423 C   0  0  0  0  0  0  0  0  0  0  0  0
   12.0029    3.5230  -13.4353 F   0  0  0  0  0  0  0  0  0  0  0  0
   12.1808    3.6203  -15.8070 C   0  0  0  0  0  0  0  0  0  0  0  0
   12.5362    4.2767  -17.0193 C   0  0  0  0  0  0  0  0  0  0  0  0
  1  2  1  0  0  0  0
  1  3  1  0  0  0  0
  2  4  1  0  0  0  0
  3  5  1  0  0  0  0
  4  6  1  0  0  0  0
  5  6  1  0  0  0  0
  5  7  1  0  0  0  0
  7  8  1  0  0  0  0
  8  9  2  0  0  0  0
  8 10  1  0  0  0  0
 10 11  1  0  0  0  0
 11 12  1  0  0  0  0
 11 16  2  0  0  0  0
 12 13  2  0  0  0  0
 12 15  1  0  0  0  0
 13 14  1  0  0  0  0
 14 19  2  0  0  0  0
 14 20  1  0  0  0  0
 15 18  1  0  0  0  0
 16 17  1  0  0  0  0
 16 19  1  0  0  0  0
 18 21  1  0  0  0  0
 20 22  2  0  0  0  0
 20 24  1  0  0  0  0
 21 26  2  0  0  0  0
 21 27  1  0  0  0  0
 22 23  1  0  0  0  0
 22 25  1  0  0  0  0
 24 29  1  0  0  0  0
 24 30  2  0  0  0  0
 25 31  2  0  0  0  0
 27 28  1  0  0  0  0
 30 31  1  0  0  0  0
M  END
$$$$

 OpenBabel10082411353D

 20 21  0  0  0  0  0  0  0  0999 V2000
   12.8881    8.7759   -3.5681 C   0  0  0  0  0  0  0  0  0  0  0  0
   11.9416    9.4732   -4.1220 C   0  0  0  0  0  0  0  0  0  0  0  0
   12.1782    9.3707   -5.6407 C   0  0  0  0  0  0  0  0  0  0  0  0
   11.3825    8.3447   -6.3966 C   0  0  0  0  0  0  0  0  0  0  0  0
   11.8188    8.0044   -7.6822 C   0  0  0  0  0  0  0  0  0  0  0  0
   10.3120    7.6600   -5.7120 C   0  0  0  0  0  0  0  0  0  0  0  0
   10.8678    7.0723   -8.2897 C   0  0  0  0  0  0  0  0  0  0  0  0
    9.5717    6.7245   -6.3809 C   0  0  0  0  0  0  0  0  0  0  0  0
    9.8820    6.4468   -7.7081 C   0  0  0  0  0  0  0  0  0  0  0  0
   11.2611    6.6953   -9.7105 C   0  0  0  0  0  0  0  0  0  0  0  0
   10.0425    6.5460  -10.5971 C   0  0  0  0  0  0  0  0  0  0  0  0
    9.7273    7.6207  -11.3847 C   0  0  0  0  0  0  0  0  0  0  0  0
    9.3251    5.4060  -10.6749 C   0  0  0  0  0  0  0  0  0  0  0  0
    8.2480    5.2344  -11.4430 C   0  0  0  0  0  0  0  0  0  0  0  0
   10.3889    8.8476  -11.3321 F   0  0  0  0  0  0  0  0  0  0  0  0
    7.5742    4.0241  -11.4736 F   0  0  0  0  0  0  0  0  0  0  0  0
    7.9952    6.1965  -12.2443 C   0  0  0  0  0  0  0  0  0  0  0  0
    8.7497    7.5573  -12.1878 C   0  0  0  0  0  0  0  0  0  0  0  0
    6.9010    6.1176  -13.1751 F   0  0  0  0  0  0  0  0  0  0  0  0
    8.2122    8.8038  -13.1806 Cl  0  0  0  0  0  0  0  0  0  0  0  0
  1  2  1  0  0  0  0
  2  3  1  0  0  0  0
  3  4  1  0  0  0  0
  4  5  2  0  0  0  0
  4  6  1  0  0  0  0
  5  7  1  0  0  0  0
  6  8  2  0  0  0  0
  7  9  2  0  0  0  0
  7 10  1  0  0  0  0
  8  9  1  0  0  0  0
 10 11  1  0  0  0  0
 11 12  1  0  0  0  0
 11 13  2  0  0  0  0
 12 15  1  0  0  0  0
 12 18  2  0  0  0  0
 13 14  1  0  0  0  0
 14 16  1  0  0  0  0
 14 17  2  0  0  0  0
 17 18  1  0  0  0  0
 17 19  1  0  0  0  0
 18 20  1  0  0  0  0
M  END
$$$$

 OpenBabel10082411353D

 31 35  0  0  0  0  0  0  0  0999 V2000
   11.6836    6.0105   -4.8831 C   0  0  0  0  0  0  0  0  0  0  0  0
   11.1291    7.0732   -5.4395 C   0  0  0  0  0  0  0  0  0  0  0  0
   10.6954    7.0156   -6.8073 C   0  0  0  0  0  0  0  0  0  0  0  0
   10.2502    8.1187   -7.5536 C   0  0  2  0  0  0  0  0  0  0  0  0
   11.1205    8.4712   -4.9629 C   0  0  0  0  0  0  0  0  0  0  0  0
   10.8655    8.3511   -8.7960 C   0  0  0  0  0  0  0  0  0  0  0  0
   10.2922    7.8843   -9.9985 C   0  0  0  0  0  0  0  0  0  0  0  0
   10.4654    9.6993   -5.6120 C   0  0  0  0  0  0  0  0  0  0  0  0
   10.3510    9.5971   -7.0014 C   0  0  0  0  0  0  0  0  0  0  0  0
   12.2462    6.3351   -3.5020 C   0  0  0  0  0  0  0  0  0  0  0  0
   11.0471    7.5309  -11.1063 C   0  0  0  0  0  0  0  0  0  0  0  0
   11.7288    8.6923   -3.6518 C   0  0  0  0  0  0  0  0  0  0  0  0
   12.3991    7.7501  -11.1145 C   0  0  0  0  0  0  0  0  0  0  0  0
   12.3738    7.7580   -2.9599 C   0  0  0  0  0  0  0  0  0  0  0  0
   13.1285    8.5075  -10.1661 O   0  0  0  0  0  0  0  0  0  0  0  0
    9.0407    7.3775  -10.0973 N   0  0  0  0  0  0  0  0  0  0  0  0
    8.9787    6.9473  -11.4664 N   0  0  0  0  0  0  0  0  0  0  0  0
   13.1012    7.4459  -12.3707 C   0  0  0  0  0  0  0  0  0  0  0  0
   12.2395    6.9724  -13.2444 C   0  0  0  0  0  0  0  0  0  0  0  0
   10.2768    7.0170  -11.9799 C   0  0  0  0  0  0  0  0  0  0  0  0
   12.9237    6.5822  -14.5759 O   0  0  0  0  0  0  0  0  0  0  0  0
   11.0572    6.7510  -13.2462 C   0  0  0  0  0  0  0  0  0  0  0  0
   12.2650    6.1507  -15.6975 C   0  0  0  0  0  0  0  0  0  0  0  0
    7.7685    6.4505  -12.1034 C   0  0  0  0  0  0  0  0  0  0  0  0
   12.4975    4.7151  -15.7689 C   0  0  0  0  0  0  0  0  0  0  0  0
    7.7650    4.9557  -12.2290 C   0  0  0  0  0  0  0  0  0  0  0  0
    8.7837    4.4880  -13.0571 C   0  0  0  0  0  0  0  0  0  0  0  0
   11.2425    3.9110  -15.4575 C   0  0  2  0  0  0  0  0  0  0  0  0
    8.5171    4.1867  -14.2988 C   0  0  0  0  0  0  0  0  0  0  0  0
    9.6170    3.5750  -15.0401 C   0  0  0  0  0  0  0  0  0  0  0  0
   11.5645    2.4772  -15.2013 O   0  0  0  0  0  0  0  0  0  0  0  0
  1  2  1  0  0  0  0
  1 10  2  0  0  0  0
  2  3  1  0  0  0  0
  2  5  2  0  0  0  0
  3  4  1  0  0  0  0
  4  6  1  6  0  0  0
  4  9  1  0  0  0  0
  5  8  1  0  0  0  0
  5 12  1  0  0  0  0
  6  7  1  0  0  0  0
  7 11  1  0  0  0  0
  7 16  2  0  0  0  0
  8  9  1  0  0  0  0
 10 14  1  0  0  0  0
 11 13  2  0  0  0  0
 11 20  1  0  0  0  0
 12 14  2  0  0  0  0
 13 15  1  0  0  0  0
 13 18  1  0  0  0  0
 16 17  1  0  0  0  0
 17 20  1  0  0  0  0
 17 24  1  0  0  0  0
 18 19  2  0  0  0  0
 19 21  1  0  0  0  0
 19 22  1  0  0  0  0
 20 22  2  0  0  0  0
 21 23  1  0  0  0  0
 23 25  1  0  0  0  0
 24 26  1  0  0  0  0
 25 28  1  0  0  0  0
 26 27  1  0  0  0  0
 27 29  2  0  0  0  0
 28 30  1  0  0  0  0
 28 31  1  1  0  0  0
 29 30  1  0  0  0  0
M  END
$$$$

 OpenBabel10082411353D

 31 35  0  0  0  0  0  0  0  0999 V2000
   11.6836    6.0105   -4.8831 C   0  0  0  0  0  0  0  0  0  0  0  0
   11.1291    7.0732   -5.4395 C   0  0  0  0  0  0  0  0  0  0  0  0
   10.6954    7.0156   -6.8073 C   0  0  0  0  0  0  0  0  0  0  0  0
   10.2502    8.1187   -7.5536 C   0  0  2  0  0  0  0  0  0  0  0  0
   11.1205    8.4712   -4.9629 C   0  0  0  0  0  0  0  0  0  0  0  0
   10.8655    8.3511   -8.7960 C   0  0  0  0  0  0  0  0  0  0  0  0
   10.2922    7.8843   -9.9985 C   0  0  0  0  0  0  0  0  0  0  0  0
   10.4654    9.6993   -5.6120 C   0  0  0  0  0  0  0  0  0  0  0  0
   10.3510    9.5971   -7.0014 C   0  0  0  0  0  0  0  0  0  0  0  0
   12.2462    6.3351   -3.5020 C   0  0  0  0  0  0  0  0  0  0  0  0
   11.0471    7.5309  -11.1063 C   0  0  0  0  0  0  0  0  0  0  0  0
   11.7288    8.6923   -3.6518 C   0  0  0  0  0  0  0  0  0  0  0  0
   12.3991    7.7501  -11.1145 C   0  0  0  0  0  0  0  0  0  0  0  0
   12.3738    7.7580   -2.9599 C   0  0  0  0  0  0  0  0  0  0  0  0
   13.1285    8.5075  -10.1661 O   0  0  0  0  0  0  0  0  0  0  0  0
    9.0407    7.3775  -10.0973 N   0  0  0  0  0  0  0  0  0  0  0  0
    8.9787    6.9473  -11.4664 N   0  0  0  0  0  0  0  0  0  0  0  0
   13.1012    7.4459  -12.3707 C   0  0  0  0  0  0  0  0  0  0  0  0
   12.2395    6.9724  -13.2444 C   0  0  0  0  0  0  0  0  0  0  0  0
   10.2768    7.0170  -11.9799 C   0  0  0  0  0  0  0  0  0  0  0  0
   12.9237    6.5822  -14.5759 O   0  0  0  0  0  0  0  0  0  0  0  0
   10.8906    6.6526  -13.2252 C   0  0  0  0  0  0  0  0  0  0  0  0
   12.2396    6.1290  -15.6916 C   0  0  0  0  0  0  0  0  0  0  0  0
    7.8036    6.1825  -11.9342 C   0  0  0  0  0  0  0  0  0  0  0  0
   12.5015    4.7115  -15.7686 C   0  0  0  0  0  0  0  0  0  0  0  0
   11.2371    3.8608  -15.4354 C   0  0  0  0  0  0  0  0  0  0  0  0
   10.7528    3.7938  -14.2514 C   0  0  0  0  0  0  0  0  0  0  0  0
    9.5139    2.8763  -14.1188 C   0  0  0  0  0  0  0  0  0  0  0  0
    9.4005    1.8753  -14.5652 O   0  0  0  0  0  0  0  0  0  0  0  0
    8.1540    4.9574  -12.6647 C   0  0  0  0  0  0  0  0  0  0  0  0
    8.5695    3.4692  -13.1203 N   0  0  0  0  0  0  0  0  0  0  0  0
  1  2  1  0  0  0  0
  1 10  2  0  0  0  0
  2  3  1  0  0  0  0
  2  5  2  0  0  0  0
  3  4  1  0  0  0  0
  4  6  1  6  0  0  0
  4  9  1  0  0  0  0
  5  8  1  0  0  0  0
  5 12  1  0  0  0  0
  6  7  1  0  0  0  0
  7 11  1  0  0  0  0
  7 16  2  0  0  0  0
  8  9  1  0  0  0  0
 10 14  1  0  0  0  0
 11 13  2  0  0  0  0
 11 20  1  0  0  0  0
 12 14  2  0  0  0  0
 13 15  1  0  0  0  0
 13 18  1  0  0  0  0
 16 17  1  0  0  0  0
 17 20  1  0  0  0  0
 17 24  1  0  0  0  0
 18 19  2  0  0  0  0
 19 21  1  0  0  0  0
 19 22  1  0  0  0  0
 20 22  2  0  0  0  0
 21 23  1  0  0  0  0
 23 25  1  0  0  0  0
 24 30  1  0  0  0  0
 25 26  1  0  0  0  0
 26 27  1  0  0  0  0
 27 28  1  0  0  0  0
 28 29  2  0  0  0  0
 28 31  1  0  0  0  0
 30 31  1  0  0  0  0
M  END
$$$$

 OpenBabel10082411353D

 31 33  0  0  0  0  0  0  0  0999 V2000
   10.9951    9.9694   -4.9946 C   0  0  0  0  0  0  0  0  0  0  0  0
   11.7938    9.3762   -4.2463 C   0  0  0  0  0  0  0  0  0  0  0  0
   10.8673    9.4548   -6.4276 C   0  0  0  0  0  0  0  0  0  0  0  0
   11.6576    7.9117   -4.2944 C   0  0  0  0  0  0  0  0  0  0  0  0
   10.5498    8.0257   -6.4521 C   0  0  0  0  0  0  0  0  0  0  0  0
   11.4715    7.2752   -5.6166 C   0  0  0  0  0  0  0  0  0  0  0  0
   10.5840    7.5390   -7.9254 C   0  0  0  0  0  0  0  0  0  0  0  0
   11.4612    8.1494   -8.8322 C   0  0  0  0  0  0  0  0  0  0  0  0
   12.6250    8.6294   -8.4338 O   0  0  0  0  0  0  0  0  0  0  0  0
   11.0835    8.4395  -10.0740 O   0  0  0  0  0  0  0  0  0  0  0  0
   11.2938    7.5612  -11.0769 C   0  0  0  0  0  0  0  0  0  0  0  0
   10.1547    7.2525  -11.9492 C   0  0  0  0  0  0  0  0  0  0  0  0
   10.4293    6.5622  -13.1348 C   0  0  0  0  0  0  0  0  0  0  0  0
   11.7295    6.4217  -13.6243 C   0  0  0  0  0  0  0  0  0  0  0  0
    8.8120    7.3918  -11.4649 C   0  0  0  0  0  0  0  0  0  0  0  0
   12.5351    7.8894  -11.6869 C   0  0  0  0  0  0  0  0  0  0  0  0
   13.5778    8.4243  -10.9673 O   0  0  0  0  0  0  0  0  0  0  0  0
    7.7211    7.1761  -12.4323 C   0  0  0  0  0  0  0  0  0  0  0  0
   12.8103    7.0723  -12.8897 C   0  0  0  0  0  0  0  0  0  0  0  0
   12.0436    5.6071  -14.9340 C   0  0  0  0  0  0  0  0  0  0  0  0
    7.0836    5.9395  -12.4265 C   0  0  0  0  0  0  0  0  0  0  0  0
   12.2310    6.2743  -15.9354 C   0  0  0  0  0  0  0  0  0  0  0  0
   12.2496    7.7239  -16.0557 F   0  0  0  0  0  0  0  0  0  0  0  0
   12.2911    4.2530  -14.7118 C   0  0  0  0  0  0  0  0  0  0  0  0
   12.5437    5.6186  -17.1528 C   0  0  0  0  0  0  0  0  0  0  0  0
    6.4460    5.5498  -11.4788 O   0  0  0  0  0  0  0  0  0  0  0  0
    7.6157    5.0197  -13.3302 O   0  0  0  0  0  0  0  0  0  0  0  0
    7.2424    3.6606  -13.2423 C   0  0  0  0  0  0  0  0  0  0  0  0
   12.4090    3.5118  -15.8480 C   0  0  0  0  0  0  0  0  0  0  0  0
   12.7231    6.2348  -18.3517 O   0  0  0  0  0  0  0  0  0  0  0  0
   12.4957    4.2210  -17.1179 C   0  0  0  0  0  0  0  0  0  0  0  0
  1  2  1  0  0  0  0
  1  3  1  0  0  0  0
  2  4  1  0  0  0  0
  3  5  1  0  0  0  0
  4  6  1  0  0  0  0
  5  6  1  0  0  0  0
  5  7  1  0  0  0  0
  7  8  1  0  0  0  0
  8  9  2  0  0  0  0
  8 10  1  0  0  0  0
 10 11  1  0  0  0  0
 11 12  1  0  0  0  0
 11 16  2  0  0  0  0
 12 13  2  0  0  0  0
 12 15  1  0  0  0  0
 13 14  1  0  0  0  0
 14 19  2  0  0  0  0
 14 20  1  0  0  0  0
 15 18  1  0  0  0  0
 16 17  1  0  0  0  0
 16 19  1  0  0  0  0
 18 21  1  0  0  0  0
 20 22  2  0  0  0  0
 20 24  1  0  0  0  0
 21 26  2  0  0  0  0
 21 27  1  0  0  0  0
 22 23  1  0  0  0  0
 22 25  1  0  0  0  0
 24 29  2  0  0  0  0
 25 30  1  0  0  0  0
 25 31  2  0  0  0  0
 27 28  1  0  0  0  0
 29 31  1  0  0  0  0
M  END
$$$$

 OpenBabel10082411353D

 31 34  0  0  0  0  0  0  0  0999 V2000
    9.9628    9.3008   -5.6386 C   0  0  0  0  0  0  0  0  0  0  0  0
   11.0579    9.3174   -4.8874 C   0  0  0  0  0  0  0  0  0  0  0  0
   12.3089    9.0374   -5.4442 C   0  0  0  0  0  0  0  0  0  0  0  0
   10.0904    9.0834   -7.0579 C   0  0  0  0  0  0  0  0  0  0  0  0
   13.5411    9.1168   -4.4612 F   0  0  0  0  0  0  0  0  0  0  0  0
   11.4514    8.6970   -7.6064 C   0  0  0  0  0  0  0  0  0  0  0  0
   12.5330    8.7686   -6.7261 C   0  0  0  0  0  0  0  0  0  0  0  0
   11.6690    8.3375   -9.1453 C   0  0  0  0  0  0  0  0  0  0  0  0
   12.7823    8.3127   -9.5831 O   0  0  0  0  0  0  0  0  0  0  0  0
   10.5312    8.1967   -9.8860 N   0  0  0  0  0  0  0  0  0  0  0  0
   10.4482    7.7653  -11.1509 C   0  0  2  0  0  0  0  0  0  0  0  0
    9.2010    7.8230  -11.7290 C   0  0  0  0  0  0  0  0  0  0  0  0
    8.4792    9.0291  -11.7936 C   0  0  0  0  0  0  0  0  0  0  0  0
   11.0595    6.3875  -11.3737 C   0  0  0  0  0  0  0  0  0  0  0  0
    8.8656    6.8583  -12.6467 C   0  0  0  0  0  0  0  0  0  0  0  0
    9.7778    5.7342  -12.6261 N   0  0  0  0  0  0  0  0  0  0  0  0
    7.5965    6.6959  -13.2902 C   0  0  0  0  0  0  0  0  0  0  0  0
    7.1453    8.8912  -12.5099 C   0  0  0  0  0  0  0  0  0  0  0  0
    6.8231    7.7728  -13.1871 C   0  0  0  0  0  0  0  0  0  0  0  0
   10.6747    5.4873  -13.8393 C   0  0  0  0  0  0  0  0  0  0  0  0
   11.4645    6.3929  -14.2837 C   0  0  0  0  0  0  0  0  0  0  0  0
   11.7261    7.8001  -13.6827 F   0  0  0  0  0  0  0  0  0  0  0  0
   12.2486    6.2062  -15.4408 C   0  0  0  0  0  0  0  0  0  0  0  0
   10.6607    4.1819  -14.4078 C   0  0  0  0  0  0  0  0  0  0  0  0
   13.0997    7.2772  -15.9934 F   0  0  0  0  0  0  0  0  0  0  0  0
    9.8036    3.1450  -13.7294 C   0  0  0  0  0  0  0  0  0  0  0  0
   12.2129    4.9911  -16.0764 C   0  0  0  0  0  0  0  0  0  0  0  0
   13.0075    4.7293  -17.1991 F   0  0  0  0  0  0  0  0  0  0  0  0
   10.2944    2.0095  -13.6395 O   0  0  0  0  0  0  0  0  0  0  0  0
   11.4593    3.9291  -15.5058 C   0  0  0  0  0  0  0  0  0  0  0  0
    8.5247    3.3212  -13.6103 O   0  0  0  0  0  0  0  0  0  0  0  0
  1  2  1  0  0  0  0
  1  4  2  0  0  0  0
  2  3  2  0  0  0  0
  3  5  1  0  0  0  0
  3  7  1  0  0  0  0
  4  6  1  0  0  0  0
  6  7  2  0  0  0  0
  6  8  1  0  0  0  0
  8  9  2  0  0  0  0
  8 10  1  0  0  0  0
 11 10  1  1  0  0  0
 11 12  1  0  0  0  0
 11 14  1  0  0  0  0
 12 13  1  0  0  0  0
 12 15  2  0  0  0  0
 13 18  2  0  0  0  0
 14 16  1  0  0  0  0
 15 16  1  0  0  0  0
 15 17  1  0  0  0  0
 16 20  1  0  0  0  0
 17 19  2  0  0  0  0
 18 19  1  0  0  0  0
 20 21  2  0  0  0  0
 20 24  1  0  0  0  0
 21 22  1  0  0  0  0
 21 23  1  0  0  0  0
 23 25  1  0  0  0  0
 23 27  2  0  0  0  0
 24 26  1  0  0  0  0
 24 30  2  0  0  0  0
 26 29  2  0  0  0  0
 26 31  1  0  0  0  0
 27 28  1  0  0  0  0
 27 30  1  0  0  0  0
M  END
$$$$

 OpenBabel10082411353D

 31 34  0  0  0  0  0  0  0  0999 V2000
    9.9628    9.3008   -5.6386 C   0  0  0  0  0  0  0  0  0  0  0  0
   11.0579    9.3174   -4.8874 C   0  0  0  0  0  0  0  0  0  0  0  0
   12.3089    9.0374   -5.4442 C   0  0  0  0  0  0  0  0  0  0  0  0
   10.0904    9.0834   -7.0579 C   0  0  0  0  0  0  0  0  0  0  0  0
   13.5411    9.1168   -4.4612 F   0  0  0  0  0  0  0  0  0  0  0  0
   11.4514    8.6970   -7.6064 C   0  0  0  0  0  0  0  0  0  0  0  0
   12.5330    8.7686   -6.7261 C   0  0  0  0  0  0  0  0  0  0  0  0
   11.6690    8.3375   -9.1453 C   0  0  0  0  0  0  0  0  0  0  0  0
   12.7823    8.3127   -9.5831 O   0  0  0  0  0  0  0  0  0  0  0  0
   10.5312    8.1967   -9.8860 N   0  0  0  0  0  0  0  0  0  0  0  0
   10.4482    7.7653  -11.1509 C   0  0  2  0  0  0  0  0  0  0  0  0
    9.2010    7.8230  -11.7290 C   0  0  0  0  0  0  0  0  0  0  0  0
    8.4792    9.0291  -11.7936 C   0  0  0  0  0  0  0  0  0  0  0  0
   11.0595    6.3875  -11.3737 C   0  0  0  0  0  0  0  0  0  0  0  0
    8.8656    6.8583  -12.6467 C   0  0  0  0  0  0  0  0  0  0  0  0
    9.7778    5.7342  -12.6261 N   0  0  0  0  0  0  0  0  0  0  0  0
    7.5965    6.6959  -13.2902 C   0  0  0  0  0  0  0  0  0  0  0  0
    7.1453    8.8912  -12.5099 C   0  0  0  0  0  0  0  0  0  0  0  0
    6.8231    7.7728  -13.1871 C   0  0  0  0  0  0  0  0  0  0  0  0
   10.6747    5.4873  -13.8393 C   0  0  0  0  0  0  0  0  0  0  0  0
   11.4645    6.3929  -14.2837 C   0  0  0  0  0  0  0  0  0  0  0  0
   11.7261    7.8001  -13.6827 F   0  0  0  0  0  0  0  0  0  0  0  0
   12.2486    6.2062  -15.4408 C   0  0  0  0  0  0  0  0  0  0  0  0
   10.6607    4.1819  -14.4078 C   0  0  0  0  0  0  0  0  0  0  0  0
   13.0997    7.2772  -15.9934 F   0  0  0  0  0  0  0  0  0  0  0  0
    9.8036    3.1450  -13.7294 C   0  0  0  0  0  0  0  0  0  0  0  0
   12.2129    4.9911  -16.0764 C   0  0  0  0  0  0  0  0  0  0  0  0
    8.6768    2.9826  -14.0056 N   0  3  0  0  0  0  0  0  0  0  0  0
   11.4623    3.9341  -15.4769 C   0  0  0  0  0  0  0  0  0  0  0  0
    7.7056    3.7923  -14.0969 O   0  5  0  0  0  0  0  0  0  0  0  0
    8.3686    1.6987  -14.2444 O   0  0  0  0  0  0  0  0  0  0  0  0
  1  2  1  0  0  0  0
  1  4  2  0  0  0  0
  2  3  2  0  0  0  0
  3  5  1  0  0  0  0
  3  7  1  0  0  0  0
  4  6  1  0  0  0  0
  6  7  2  0  0  0  0
  6  8  1  0  0  0  0
  8  9  2  0  0  0  0
  8 10  1  0  0  0  0
 11 10  1  1  0  0  0
 11 12  1  0  0  0  0
 11 14  1  0  0  0  0
 12 13  1  0  0  0  0
 12 15  2  0  0  0  0
 13 18  2  0  0  0  0
 14 16  1  0  0  0  0
 15 16  1  0  0  0  0
 15 17  1  0  0  0  0
 16 20  1  0  0  0  0
 17 19  2  0  0  0  0
 18 19  1  0  0  0  0
 20 21  2  0  0  0  0
 20 24  1  0  0  0  0
 21 22  1  0  0  0  0
 21 23  1  0  0  0  0
 23 25  1  0  0  0  0
 23 27  2  0  0  0  0
 24 26  1  0  0  0  0
 24 29  2  0  0  0  0
 26 28  1  0  0  0  0
 27 29  1  0  0  0  0
 28 30  1  0  0  0  0
 28 31  2  0  0  0  0
M  CHG  2  28   1  30  -1
M  END
$$$$

 OpenBabel10082411353D

 31 34  0  0  0  0  0  0  0  0999 V2000
   12.7863    7.8241  -14.2109 C   0  0  0  0  0  0  0  0  0  0  0  0
   12.4233    7.7158  -13.0289 C   0  0  0  0  0  0  0  0  0  0  0  0
   12.9219    8.1949  -11.8668 C   0  0  0  0  0  0  0  0  0  0  0  0
   11.4275    6.6086  -12.7931 C   0  0  0  0  0  0  0  0  0  0  0  0
   10.3411    6.8404  -12.0679 C   0  0  0  0  0  0  0  0  0  0  0  0
   10.7226    7.4332  -10.7281 C   0  0  0  0  0  0  0  0  0  0  0  0
    9.0684    5.8539  -11.9851 C   0  0  0  0  0  0  0  0  0  0  0  0
    9.8080    7.4062   -9.6015 C   0  0  0  0  0  0  0  0  0  0  0  0
   11.9300    8.1400  -10.6702 C   0  0  0  0  0  0  0  0  0  0  0  0
   11.0289    6.0120  -14.2884 C   0  0  0  0  0  0  0  0  0  0  0  0
    9.9681    6.1425   -8.6941 C   0  0  0  0  0  0  0  0  0  0  0  0
    7.9946    6.5885  -12.1474 C   0  0  0  0  0  0  0  0  0  0  0  0
   10.2822    6.4890   -7.2771 C   0  0  0  0  0  0  0  0  0  0  0  0
   11.5540    6.8919   -6.8963 C   0  0  0  0  0  0  0  0  0  0  0  0
   11.8977    7.2299   -5.5785 C   0  0  0  0  0  0  0  0  0  0  0  0
   11.9395    6.5440  -15.2769 C   0  0  0  0  0  0  0  0  0  0  0  0
    6.8195    5.8154  -12.4332 C   0  0  0  0  0  0  0  0  0  0  0  0
    8.9573    4.5198  -11.6521 C   0  0  0  0  0  0  0  0  0  0  0  0
   11.8306    6.3760   -4.6325 C   0  0  0  0  0  0  0  0  0  0  0  0
    7.8819    8.0369  -12.3720 C   0  0  0  0  0  0  0  0  0  0  0  0
   12.1642    8.6584   -5.1055 C   0  0  0  0  0  0  0  0  0  0  0  0
    7.9185    3.8417  -11.9106 C   0  0  0  0  0  0  0  0  0  0  0  0
    6.5706    8.5634  -12.6952 C   0  0  0  0  0  0  0  0  0  0  0  0
   12.0905    9.8590   -6.2387 C   0  0  0  0  0  0  0  0  0  0  0  0
    7.8369    2.4532  -11.6125 O   0  0  0  0  0  0  0  0  0  0  0  0
    6.6433    1.8354  -11.9110 C   0  0  0  0  0  0  0  0  0  0  0  0
   12.1412    6.8362   -3.2500 C   0  0  0  0  0  0  0  0  0  0  0  0
    6.6686    4.4566  -12.1662 C   0  0  0  0  0  0  0  0  0  0  0  0
   12.0646    9.0669   -3.8824 C   0  0  0  0  0  0  0  0  0  0  0  0
   12.1944   10.5170   -3.5137 O   0  0  0  0  0  0  0  0  0  0  0  0
   12.2101    8.1130   -2.8220 C   0  0  0  0  0  0  0  0  0  0  0  0
  1  2  1  0  0  0  0
  1 16  1  0  0  0  0
  2  3  1  0  0  0  0
  2  4  2  0  0  0  0
  3  9  2  0  0  0  0
  4  5  1  0  0  0  0
  4 10  1  0  0  0  0
  5  6  2  0  0  0  0
  5  7  1  0  0  0  0
  6  8  1  0  0  0  0
  6  9  1  0  0  0  0
  7 12  1  0  0  0  0
  7 18  2  0  0  0  0
  8 11  1  0  0  0  0
 10 16  1  0  0  0  0
 11 13  1  0  0  0  0
 12 17  2  0  0  0  0
 12 20  1  0  0  0  0
 13 14  2  3  0  0  0
 14 15  1  0  0  0  0
 15 19  2  0  0  0  0
 15 21  1  0  0  0  0
 17 28  1  0  0  0  0
 18 22  1  0  0  0  0
 19 27  1  0  0  0  0
 20 23  1  0  0  0  0
 21 24  1  0  0  0  0
 21 29  2  0  0  0  0
 22 25  1  0  0  0  0
 22 28  2  0  0  0  0
 25 26  1  0  0  0  0
 27 31  2  0  0  0  0
 29 30  1  0  0  0  0
 29 31  1  0  0  0  0
M  END
$$$$

 OpenBabel10082411353D

 31 35  0  0  0  0  0  0  0  0999 V2000
   12.8881    8.7759   -3.5681 C   0  0  0  0  0  0  0  0  0  0  0  0
   11.9416    9.4732   -4.1220 C   0  0  0  0  0  0  0  0  0  0  0  0
   12.1782    9.3707   -5.6407 C   0  0  0  0  0  0  0  0  0  0  0  0
   11.3825    8.3447   -6.3966 C   0  0  0  0  0  0  0  0  0  0  0  0
   11.8188    8.0044   -7.6822 C   0  0  0  0  0  0  0  0  0  0  0  0
   10.3120    7.6600   -5.7120 C   0  0  0  0  0  0  0  0  0  0  0  0
   10.8678    7.0723   -8.2897 C   0  0  0  0  0  0  0  0  0  0  0  0
    9.5717    6.7245   -6.3809 C   0  0  0  0  0  0  0  0  0  0  0  0
    9.8820    6.4468   -7.7081 C   0  0  0  0  0  0  0  0  0  0  0  0
   11.2611    6.6953   -9.7105 C   0  0  1  0  0  0  0  0  0  0  0  0
   10.0425    6.5460  -10.5971 C   0  0  0  0  0  0  0  0  0  0  0  0
   11.8062    7.8130  -10.4883 C   0  0  0  0  0  0  0  0  0  0  0  0
    8.8746    5.5265   -8.4149 C   0  0  0  0  0  0  0  0  0  0  0  0
   13.1546    8.1022  -10.4049 O   0  0  0  0  0  0  0  0  0  0  0  0
   10.3114    6.7627  -11.8786 C   0  0  0  0  0  0  0  0  0  0  0  0
   11.3906    7.6694  -11.8036 N   0  0  0  0  0  0  0  0  0  0  0  0
   11.9779    8.2398  -13.0316 C   0  0  0  0  0  0  0  0  0  0  0  0
    8.8154    6.0162   -9.9613 C   0  0  0  0  0  0  0  0  0  0  0  0
    9.6102    6.3636  -13.0859 C   0  0  0  0  0  0  0  0  0  0  0  0
   11.8804    7.4718  -14.1937 C   0  0  0  0  0  0  0  0  0  0  0  0
   10.7017    6.3981  -14.2482 C   0  0  0  0  0  0  0  0  0  0  0  0
   10.3813    5.8427  -15.4547 C   0  0  0  0  0  0  0  0  0  0  0  0
    9.2579    5.0507  -15.6184 C   0  0  0  0  0  0  0  0  0  0  0  0
   12.6748    7.4257  -15.2457 C   0  0  0  0  0  0  0  0  0  0  0  0
    9.3685    3.7401  -15.1559 C   0  0  1  0  0  0  0  0  0  0  0  0
    8.3659    3.0522  -14.5002 C   0  0  0  0  0  0  0  0  0  0  0  0
    7.4610    3.7824  -13.7568 O   0  0  0  0  0  0  0  0  0  0  0  0
   12.6205    6.8430  -16.2785 C   0  0  0  0  0  0  0  0  0  0  0  0
   11.4415    5.9702  -16.4545 C   0  0  0  0  0  0  0  0  0  0  0  0
   10.1531    2.8394  -16.0900 C   0  0  0  0  0  0  0  0  0  0  0  0
    8.2026    1.8852  -14.4656 O   0  0  0  0  0  0  0  0  0  0  0  0
  1  2  1  0  0  0  0
  2  3  1  0  0  0  0
  3  4  1  0  0  0  0
  4  5  2  0  0  0  0
  4  6  1  0  0  0  0
  5  7  1  0  0  0  0
  6  8  2  0  0  0  0
  7  9  2  0  0  0  0
  8  9  1  0  0  0  0
  9 13  1  0  0  0  0
 10  7  1  1  0  0  0
 10 11  1  0  0  0  0
 10 12  1  0  0  0  0
 11 15  2  0  0  0  0
 11 18  1  0  0  0  0
 12 14  2  0  0  0  0
 12 16  1  0  0  0  0
 13 18  1  0  0  0  0
 15 16  1  0  0  0  0
 15 19  1  0  0  0  0
 16 17  1  0  0  0  0
 17 20  1  0  0  0  0
 19 21  1  0  0  0  0
 20 21  2  0  0  0  0
 20 24  1  0  0  0  0
 21 22  1  0  0  0  0
 22 23  1  0  0  0  0
 22 29  2  0  0  0  0
 23 25  1  0  0  0  0
 24 28  2  0  0  0  0
 25 26  1  0  0  0  0
 25 30  1  6  0  0  0
 26 27  1  0  0  0  0
 26 31  2  0  0  0  0
 28 29  1  0  0  0  0
M  END
$$$$

 OpenBabel10082411353D

 31 35  0  0  0  0  0  0  0  0999 V2000
    9.9628    9.3008   -5.6386 C   0  0  0  0  0  0  0  0  0  0  0  0
   11.0579    9.3174   -4.8874 C   0  0  0  0  0  0  0  0  0  0  0  0
   12.3089    9.0374   -5.4442 C   0  0  0  0  0  0  0  0  0  0  0  0
   10.0904    9.0834   -7.0579 C   0  0  0  0  0  0  0  0  0  0  0  0
   13.5411    9.1168   -4.4612 F   0  0  0  0  0  0  0  0  0  0  0  0
   11.4514    8.6970   -7.6064 C   0  0  0  0  0  0  0  0  0  0  0  0
   12.5330    8.7686   -6.7261 C   0  0  0  0  0  0  0  0  0  0  0  0
   11.6690    8.3375   -9.1453 C   0  0  0  0  0  0  0  0  0  0  0  0
   12.7823    8.3127   -9.5831 O   0  0  0  0  0  0  0  0  0  0  0  0
   10.5312    8.1967   -9.8860 N   0  0  0  0  0  0  0  0  0  0  0  0
   10.4482    7.7653  -11.1509 C   0  0  2  0  0  0  0  0  0  0  0  0
    9.2010    7.8230  -11.7290 C   0  0  0  0  0  0  0  0  0  0  0  0
    8.4792    9.0291  -11.7936 C   0  0  0  0  0  0  0  0  0  0  0  0
   11.0595    6.3875  -11.3737 C   0  0  0  0  0  0  0  0  0  0  0  0
    8.8656    6.8583  -12.6467 C   0  0  0  0  0  0  0  0  0  0  0  0
    9.7778    5.7342  -12.6261 N   0  0  0  0  0  0  0  0  0  0  0  0
    7.5965    6.6959  -13.2902 C   0  0  0  0  0  0  0  0  0  0  0  0
    7.1453    8.8912  -12.5099 C   0  0  0  0  0  0  0  0  0  0  0  0
    6.8231    7.7728  -13.1871 C   0  0  0  0  0  0  0  0  0  0  0  0
   10.6747    5.4873  -13.8393 C   0  0  0  0  0  0  0  0  0  0  0  0
   11.4645    6.3929  -14.2837 C   0  0  0  0  0  0  0  0  0  0  0  0
   11.7261    7.8001  -13.6827 F   0  0  0  0  0  0  0  0  0  0  0  0
   12.2486    6.2062  -15.4408 C   0  0  0  0  0  0  0  0  0  0  0  0
   10.6607    4.1819  -14.4078 C   0  0  0  0  0  0  0  0  0  0  0  0
   13.0997    7.2772  -15.9934 F   0  0  0  0  0  0  0  0  0  0  0  0
    9.8036    3.1450  -13.7294 C   0  0  0  0  0  0  0  0  0  0  0  0
    9.4228    2.1385  -14.4738 C   0  0  0  0  0  0  0  0  0  0  0  0
   11.3956    4.0386  -15.4491 C   0  0  0  0  0  0  0  0  0  0  0  0
   11.4158    2.5839  -16.0618 C   0  0  0  0  0  0  0  0  0  0  0  0
   10.5957    1.5924  -15.2918 C   0  0  0  0  0  0  0  0  0  0  0  0
   12.1924    4.9513  -16.0122 C   0  0  0  0  0  0  0  0  0  0  0  0
  1  2  1  0  0  0  0
  1  4  2  0  0  0  0
  2  3  2  0  0  0  0
  3  5  1  0  0  0  0
  3  7  1  0  0  0  0
  4  6  1  0  0  0  0
  6  7  2  0  0  0  0
  6  8  1  0  0  0  0
  8  9  2  0  0  0  0
  8 10  1  0  0  0  0
 11 10  1  1  0  0  0
 11 12  1  0  0  0  0
 11 14  1  0  0  0  0
 12 13  1  0  0  0  0
 12 15  2  0  0  0  0
 13 18  2  0  0  0  0
 14 16  1  0  0  0  0
 15 16  1  0  0  0  0
 15 17  1  0  0  0  0
 16 20  1  0  0  0  0
 17 19  2  0  0  0  0
 18 19  1  0  0  0  0
 20 21  2  0  0  0  0
 20 24  1  0  0  0  0
 21 22  1  0  0  0  0
 21 23  1  0  0  0  0
 23 25  1  0  0  0  0
 23 31  2  0  0  0  0
 24 26  1  0  0  0  0
 24 28  2  0  0  0  0
 26 27  1  0  0  0  0
 27 30  1  0  0  0  0
 28 29  1  0  0  0  0
 28 31  1  0  0  0  0
 29 30  1  0  0  0  0
M  END
$$$$

 OpenBabel10082411353D

 31 35  0  0  0  0  0  0  0  0999 V2000
   11.6836    6.0105   -4.8831 C   0  0  0  0  0  0  0  0  0  0  0  0
   11.1291    7.0732   -5.4395 C   0  0  0  0  0  0  0  0  0  0  0  0
   10.6954    7.0156   -6.8073 C   0  0  0  0  0  0  0  0  0  0  0  0
   10.2502    8.1187   -7.5536 C   0  0  2  0  0  0  0  0  0  0  0  0
   11.1205    8.4712   -4.9629 C   0  0  0  0  0  0  0  0  0  0  0  0
   10.8655    8.3511   -8.7960 C   0  0  0  0  0  0  0  0  0  0  0  0
   10.2922    7.8843   -9.9985 C   0  0  0  0  0  0  0  0  0  0  0  0
   10.4654    9.6993   -5.6120 C   0  0  0  0  0  0  0  0  0  0  0  0
   10.3510    9.5971   -7.0014 C   0  0  0  0  0  0  0  0  0  0  0  0
   12.2462    6.3351   -3.5020 C   0  0  0  0  0  0  0  0  0  0  0  0
   11.0471    7.5309  -11.1063 C   0  0  0  0  0  0  0  0  0  0  0  0
   11.7288    8.6923   -3.6518 C   0  0  0  0  0  0  0  0  0  0  0  0
   12.3991    7.7501  -11.1145 C   0  0  0  0  0  0  0  0  0  0  0  0
   12.3738    7.7580   -2.9599 C   0  0  0  0  0  0  0  0  0  0  0  0
   13.1285    8.5075  -10.1661 O   0  0  0  0  0  0  0  0  0  0  0  0
    9.0407    7.3775  -10.0973 N   0  0  0  0  0  0  0  0  0  0  0  0
    8.9787    6.9473  -11.4664 N   0  0  0  0  0  0  0  0  0  0  0  0
   13.1012    7.4459  -12.3707 C   0  0  0  0  0  0  0  0  0  0  0  0
   12.2395    6.9724  -13.2444 C   0  0  0  0  0  0  0  0  0  0  0  0
   10.2768    7.0170  -11.9799 C   0  0  0  0  0  0  0  0  0  0  0  0
   12.9237    6.5822  -14.5759 O   0  0  0  0  0  0  0  0  0  0  0  0
   11.0572    6.7510  -13.2462 C   0  0  0  0  0  0  0  0  0  0  0  0
   12.2650    6.1507  -15.6975 C   0  0  0  0  0  0  0  0  0  0  0  0
    7.7685    6.4505  -12.1034 C   0  0  0  0  0  0  0  0  0  0  0  0
   12.4975    4.7151  -15.7689 C   0  0  0  0  0  0  0  0  0  0  0  0
    7.7650    4.9557  -12.2290 C   0  0  0  0  0  0  0  0  0  0  0  0
    8.7837    4.4880  -13.0571 C   0  0  0  0  0  0  0  0  0  0  0  0
   11.2425    3.9110  -15.4575 C   0  0  1  0  0  0  0  0  0  0  0  0
    8.5171    4.1867  -14.2988 C   0  0  0  0  0  0  0  0  0  0  0  0
   11.1924    2.8179  -14.7396 C   0  0  0  0  0  0  0  0  0  0  0  0
    9.5620    3.6721  -15.2415 C   0  0  0  0  0  0  0  0  0  0  0  0
  1  2  1  0  0  0  0
  1 10  2  0  0  0  0
  2  3  1  0  0  0  0
  2  5  2  0  0  0  0
  3  4  1  0  0  0  0
  4  6  1  6  0  0  0
  4  9  1  0  0  0  0
  5  8  1  0  0  0  0
  5 12  1  0  0  0  0
  6  7  1  0  0  0  0
  7 11  1  0  0  0  0
  7 16  2  0  0  0  0
  8  9  1  0  0  0  0
 10 14  1  0  0  0  0
 11 13  2  0  0  0  0
 11 20  1  0  0  0  0
 12 14  2  0  0  0  0
 13 15  1  0  0  0  0
 13 18  1  0  0  0  0
 16 17  1  0  0  0  0
 17 20  1  0  0  0  0
 17 24  1  0  0  0  0
 18 19  2  0  0  0  0
 19 21  1  0  0  0  0
 19 22  1  0  0  0  0
 20 22  2  0  0  0  0
 21 23  1  0  0  0  0
 23 25  1  0  0  0  0
 24 26  1  0  0  0  0
 25 28  1  0  0  0  0
 26 27  1  0  0  0  0
 27 29  2  0  0  0  0
 28 30  1  1  0  0  0
 28 31  1  0  0  0  0
 29 31  1  0  0  0  0
M  END
$$$$

 OpenBabel10082411353D

 32 37  0  0  0  0  0  0  0  0999 V2000
   11.6836    6.0105   -4.8831 C   0  0  0  0  0  0  0  0  0  0  0  0
   11.9279    6.9038   -3.8792 C   0  0  0  0  0  0  0  0  0  0  0  0
   11.9719    8.3126   -4.1286 C   0  0  0  0  0  0  0  0  0  0  0  0
   11.3811    6.5964   -6.0845 C   0  0  0  0  0  0  0  0  0  0  0  0
   11.0420    5.6445   -7.1434 C   0  0  1  0  0  0  0  0  0  0  0  0
   11.3536    7.9055   -6.3870 C   0  0  0  0  0  0  0  0  0  0  0  0
    9.8569    4.8089   -7.0560 C   0  0  0  0  0  0  0  0  0  0  0  0
   11.5991    8.8196   -5.3527 C   0  0  0  0  0  0  0  0  0  0  0  0
   11.5316   10.2233   -5.5794 F   0  0  0  0  0  0  0  0  0  0  0  0
   10.9798    8.5285   -7.6795 C   0  0  0  0  0  0  0  0  0  0  0  0
   10.6556    6.3745   -8.5461 C   0  0  0  0  0  0  0  0  0  0  0  0
    9.6410    3.9438   -8.1044 C   0  0  0  0  0  0  0  0  0  0  0  0
   11.0669    7.6169   -8.7871 N   0  0  0  0  0  0  0  0  0  0  0  0
    9.9214    5.7500   -9.4200 C   0  0  0  0  0  0  0  0  0  0  0  0
   12.1374    7.7991   -9.6010 C   0  0  0  0  0  0  0  0  0  0  0  0
   13.3966    8.0702   -9.2678 O   0  0  0  0  0  0  0  0  0  0  0  0
   11.9065    8.1067  -10.9940 C   0  0  0  0  0  0  0  0  0  0  0  0
   11.5891    6.9407  -11.8496 C   0  0  1  0  0  0  0  0  0  0  0  0
    9.6383    6.5905  -10.7511 C   0  0  0  0  0  0  0  0  0  0  0  0
   10.3417    6.3234  -11.9172 N   0  0  0  0  0  0  0  0  0  0  0  0
    9.1610    4.6231   -9.2679 C   0  0  0  0  0  0  0  0  0  0  0  0
   10.0460    5.1982  -12.4989 C   0  0  0  0  0  0  0  0  0  0  0  0
   10.8981    4.6542  -13.4877 C   0  0  0  0  0  0  0  0  0  0  0  0
   11.5282    5.4948  -14.3618 C   0  0  0  0  0  0  0  0  0  0  0  0
   10.9982    3.2780  -13.6504 C   0  0  0  0  0  0  0  0  0  0  0  0
    9.0509    4.4032  -12.0961 O   0  0  0  0  0  0  0  0  0  0  0  0
   11.4776    6.9477  -14.3020 C   0  0  0  0  0  0  0  0  0  0  0  0
   11.6842    2.7820  -14.6687 C   0  0  0  0  0  0  0  0  0  0  0  0
   12.2153    7.1356  -13.2652 C   0  0  0  0  0  0  0  0  0  0  0  0
   11.8796    4.9830  -15.5580 C   0  0  0  0  0  0  0  0  0  0  0  0
   12.4025    5.8900  -16.5865 C   0  0  0  0  0  0  0  0  0  0  0  0
   12.1082    3.6416  -15.7041 C   0  0  0  0  0  0  0  0  0  0  0  0
  1  2  1  0  0  0  0
  1  4  2  0  0  0  0
  2  3  2  0  0  0  0
  3  8  1  0  0  0  0
  4  5  1  0  0  0  0
  4  6  1  0  0  0  0
  5  7  1  1  0  0  0
  5 11  1  0  0  0  0
  6  8  2  0  0  0  0
  6 10  1  0  0  0  0
  7 12  1  0  0  0  0
  8  9  1  0  0  0  0
 10 13  1  0  0  0  0
 11 13  1  0  0  0  0
 11 14  2  0  0  0  0
 12 21  1  0  0  0  0
 13 15  1  0  0  0  0
 14 19  1  0  0  0  0
 14 21  1  0  0  0  0
 15 16  2  0  0  0  0
 15 17  1  0  0  0  0
 18 17  1  6  0  0  0
 18 20  1  0  0  0  0
 18 29  1  0  0  0  0
 19 20  1  0  0  0  0
 20 22  1  0  0  0  0
 22 23  1  0  0  0  0
 22 26  2  0  0  0  0
 23 24  1  0  0  0  0
 23 25  2  0  0  0  0
 24 27  1  0  0  0  0
 24 30  2  0  0  0  0
 25 28  1  0  0  0  0
 27 29  1  0  0  0  0
 28 32  2  0  0  0  0
 30 31  1  0  0  0  0
 30 32  1  0  0  0  0
M  END
$$$$

 OpenBabel10082411353D

 21 22  0  0  0  0  0  0  0  0999 V2000
    8.0839    8.8860  -12.2561 C   0  0  0  0  0  0  0  0  0  0  0  0
    8.8273    7.7579  -12.2078 C   0  0  1  0  0  0  0  0  0  0  0  0
   10.1224    7.6608  -11.7635 C   0  0  0  0  0  0  0  0  0  0  0  0
    8.0207    6.6286  -11.5139 C   0  0  0  0  0  0  0  0  0  0  0  0
   10.3983    7.6617  -10.4085 C   0  0  0  0  0  0  0  0  0  0  0  0
   11.1796    7.3921  -12.6684 C   0  0  0  0  0  0  0  0  0  0  0  0
   11.7852    7.6560   -9.9808 C   0  0  0  0  0  0  0  0  0  0  0  0
    7.6417    5.4729  -12.5527 C   0  0  2  0  0  0  0  0  0  0  0  0
    6.4084    5.1570  -12.4330 C   0  0  0  0  0  0  0  0  0  0  0  0
   12.5068    7.3608  -12.2820 C   0  0  0  0  0  0  0  0  0  0  0  0
   12.0871    7.7355   -8.5565 C   0  0  0  0  0  0  0  0  0  0  0  0
    6.2013    3.7420  -13.0865 C   0  0  0  0  0  0  0  0  0  0  0  0
   12.7831    7.4995  -10.9693 C   0  0  0  0  0  0  0  0  0  0  0  0
   10.9919    8.0814   -7.6989 C   0  0  0  0  0  0  0  0  0  0  0  0
   10.7921    7.0977   -6.6776 C   0  0  0  0  0  0  0  0  0  0  0  0
    9.5590    6.7400   -6.3045 C   0  0  0  0  0  0  0  0  0  0  0  0
    8.6333    6.6044   -7.4316 N   0  0  0  0  0  0  0  0  0  0  0  0
    8.9258    5.2723   -8.1804 C   0  0  0  0  0  0  0  0  0  0  0  0
    7.2394    2.8151  -12.6676 C   0  0  1  0  0  0  0  0  0  0  0  0
    7.3856    1.6768  -13.5597 C   0  0  0  0  0  0  0  0  0  0  0  0
    8.3115    4.0438  -12.6047 C   0  0  0  0  0  0  0  0  0  0  0  0
  2  1  1  1  0  0  0
  2  3  1  0  0  0  0
  2  4  1  0  0  0  0
  3  5  1  0  0  0  0
  3  6  2  0  0  0  0
  5  7  2  0  0  0  0
  6 10  1  0  0  0  0
  7 11  1  0  0  0  0
  7 13  1  0  0  0  0
  8  4  1  1  0  0  0
  8  9  1  0  0  0  0
  8 21  1  0  0  0  0
  9 12  1  0  0  0  0
 10 13  2  0  0  0  0
 11 14  1  0  0  0  0
 12 19  1  0  0  0  0
 14 15  1  0  0  0  0
 15 16  1  0  0  0  0
 16 17  1  0  0  0  0
 17 18  1  0  0  0  0
 19 20  1  6  0  0  0
 19 21  1  0  0  0  0
M  END
$$$$

 OpenBabel10082411353D

 32 35  0  0  0  0  0  0  0  0999 V2000
   13.2485    9.2493   -6.3668 O   0  0  0  0  0  0  0  0  0  0  0  0
   12.3055    9.1779   -7.4488 C   0  0  1  0  0  0  0  0  0  0  0  0
   12.5005    8.1033   -8.2440 C   0  0  0  0  0  0  0  0  0  0  0  0
   11.7072    8.0925   -9.4886 C   0  0  0  0  0  0  0  0  0  0  0  0
   12.2659    7.9483  -10.6668 C   0  0  0  0  0  0  0  0  0  0  0  0
   10.2869    8.0426   -9.4299 C   0  0  0  0  0  0  0  0  0  0  0  0
   13.6482    8.0497  -10.9162 O   0  0  0  0  0  0  0  0  0  0  0  0
   11.5356    7.8148  -11.9199 C   0  0  0  0  0  0  0  0  0  0  0  0
   12.2597    7.6523  -13.1838 C   0  0  0  0  0  0  0  0  0  0  0  0
    9.5345    7.8388  -10.6476 C   0  0  0  0  0  0  0  0  0  0  0  0
   12.7796    8.4277  -13.7325 O   0  0  0  0  0  0  0  0  0  0  0  0
   10.1724    7.7406  -11.8577 C   0  0  0  0  0  0  0  0  0  0  0  0
   12.4765    6.3392  -13.7439 N   0  0  0  0  0  0  0  0  0  0  0  0
    9.2368    7.4770  -13.0161 C   0  0  1  0  0  0  0  0  0  0  0  0
    8.7686    6.0601  -13.0538 C   0  0  0  0  0  0  0  0  0  0  0  0
   11.7377    5.1496  -13.1887 C   0  0  0  0  0  0  0  0  0  0  0  0
   10.9893    9.0510   -6.5404 C   0  0  0  0  0  0  0  0  0  0  0  0
   11.2522    8.1647   -5.3854 C   0  0  2  0  0  0  0  0  0  0  0  0
    7.8881    5.4892  -12.2818 C   0  0  0  0  0  0  0  0  0  0  0  0
    8.1030    8.4511  -12.9051 C   0  0  0  0  0  0  0  0  0  0  0  0
   11.2726    4.1709  -14.3554 C   0  0  0  0  0  0  0  0  0  0  0  0
   12.7640    9.8841   -5.1669 C   0  0  0  0  0  0  0  0  0  0  0  0
   10.2020    7.3447   -4.8869 O   0  0  0  0  0  0  0  0  0  0  0  0
    9.2807    5.2234  -14.0940 C   0  0  0  0  0  0  0  0  0  0  0  0
    9.9511    4.1599  -14.4562 C   0  0  2  0  0  0  0  0  0  0  0  0
   11.8540    8.9171   -4.3609 C   0  0  0  0  0  0  0  0  0  0  0  0
    9.4020    2.9741  -13.9922 C   0  0  0  0  0  0  0  0  0  0  0  0
    8.0775    2.6860  -13.9460 O   0  0  0  0  0  0  0  0  0  0  0  0
   10.0446    2.1558  -13.3513 O   0  0  0  0  0  0  0  0  0  0  0  0
    7.1914    3.0971  -13.0197 C   0  0  2  0  0  0  0  0  0  0  0  0
    6.1146    2.1772  -12.8639 C   0  0  0  0  0  0  0  0  0  0  0  0
    6.9232    4.4767  -12.7537 C   0  0  0  0  0  0  0  0  0  0  0  0
  1  2  1  0  0  0  0
  1 22  1  0  0  0  0
  2  3  1  6  0  0  0
  2 17  1  0  0  0  0
  3  4  1  0  0  0  0
  4  5  1  0  0  0  0
  4  6  2  0  0  0  0
  5  7  1  0  0  0  0
  5  8  2  0  0  0  0
  6 10  1  0  0  0  0
  8  9  1  0  0  0  0
  8 12  1  0  0  0  0
  9 11  2  0  0  0  0
  9 13  1  0  0  0  0
 10 12  2  0  0  0  0
 12 14  1  0  0  0  0
 13 16  1  0  0  0  0
 14 15  1  0  0  0  0
 14 20  1  1  0  0  0
 15 19  1  0  0  0  0
 15 24  2  0  0  0  0
 16 21  1  0  0  0  0
 17 18  1  0  0  0  0
 18 23  1  1  0  0  0
 18 26  1  0  0  0  0
 19 32  1  0  0  0  0
 22 26  1  0  0  0  0
 24 25  1  0  0  0  0
 25 21  1  1  0  0  0
 25 27  1  0  0  0  0
 27 28  1  0  0  0  0
 27 29  2  0  0  0  0
 28 30  1  0  0  0  0
 30 31  1  6  0  0  0
 30 32  1  0  0  0  0
M  END
$$$$

 OpenBabel10082411353D

 32 34  0  0  0  0  0  0  0  0999 V2000
   10.9951    9.9694   -4.9946 C   0  0  0  0  0  0  0  0  0  0  0  0
   11.7938    9.3762   -4.2463 C   0  0  0  0  0  0  0  0  0  0  0  0
   10.8673    9.4548   -6.4276 C   0  0  0  0  0  0  0  0  0  0  0  0
   11.6576    7.9117   -4.2944 C   0  0  0  0  0  0  0  0  0  0  0  0
   10.5498    8.0257   -6.4521 C   0  0  0  0  0  0  0  0  0  0  0  0
   11.4715    7.2752   -5.6166 C   0  0  0  0  0  0  0  0  0  0  0  0
   10.5840    7.5390   -7.9254 C   0  0  0  0  0  0  0  0  0  0  0  0
   11.4612    8.1494   -8.8322 C   0  0  0  0  0  0  0  0  0  0  0  0
   12.6250    8.6294   -8.4338 O   0  0  0  0  0  0  0  0  0  0  0  0
   11.0835    8.4395  -10.0740 O   0  0  0  0  0  0  0  0  0  0  0  0
   11.2938    7.5612  -11.0769 C   0  0  0  0  0  0  0  0  0  0  0  0
   10.1547    7.2525  -11.9492 C   0  0  0  0  0  0  0  0  0  0  0  0
   10.4293    6.5622  -13.1348 C   0  0  0  0  0  0  0  0  0  0  0  0
   11.7295    6.4217  -13.6243 C   0  0  0  0  0  0  0  0  0  0  0  0
    8.8120    7.3918  -11.4649 C   0  0  0  0  0  0  0  0  0  0  0  0
   12.5351    7.8894  -11.6869 C   0  0  0  0  0  0  0  0  0  0  0  0
   13.5778    8.4243  -10.9673 O   0  0  0  0  0  0  0  0  0  0  0  0
    7.7211    7.1761  -12.4323 C   0  0  0  0  0  0  0  0  0  0  0  0
   12.8103    7.0723  -12.8897 C   0  0  0  0  0  0  0  0  0  0  0  0
   12.0436    5.6071  -14.9340 C   0  0  0  0  0  0  0  0  0  0  0  0
    7.0836    5.9395  -12.4265 C   0  0  0  0  0  0  0  0  0  0  0  0
   12.2310    6.2743  -15.9354 C   0  0  0  0  0  0  0  0  0  0  0  0
   12.2496    7.7239  -16.0557 F   0  0  0  0  0  0  0  0  0  0  0  0
   12.2911    4.2530  -14.7118 C   0  0  0  0  0  0  0  0  0  0  0  0
   12.5437    5.6186  -17.1528 C   0  0  0  0  0  0  0  0  0  0  0  0
    6.4460    5.5498  -11.4788 O   0  0  0  0  0  0  0  0  0  0  0  0
    7.6157    5.0197  -13.3302 O   0  0  0  0  0  0  0  0  0  0  0  0
    7.2424    3.6606  -13.2423 C   0  0  0  0  0  0  0  0  0  0  0  0
   12.0029    3.5230  -13.4353 F   0  0  0  0  0  0  0  0  0  0  0  0
   12.7704    6.2923  -18.3031 F   0  0  0  0  0  0  0  0  0  0  0  0
   12.6122    4.2191  -17.0809 C   0  0  0  0  0  0  0  0  0  0  0  0
   12.3871    3.5919  -15.8095 C   0  0  0  0  0  0  0  0  0  0  0  0
  1  2  1  0  0  0  0
  1  3  1  0  0  0  0
  2  4  1  0  0  0  0
  3  5  1  0  0  0  0
  4  6  1  0  0  0  0
  5  6  1  0  0  0  0
  5  7  1  0  0  0  0
  7  8  1  0  0  0  0
  8  9  2  0  0  0  0
  8 10  1  0  0  0  0
 10 11  1  0  0  0  0
 11 12  1  0  0  0  0
 11 16  2  0  0  0  0
 12 13  2  0  0  0  0
 12 15  1  0  0  0  0
 13 14  1  0  0  0  0
 14 19  2  0  0  0  0
 14 20  1  0  0  0  0
 15 18  1  0  0  0  0
 16 17  1  0  0  0  0
 16 19  1  0  0  0  0
 18 21  1  0  0  0  0
 20 22  2  0  0  0  0
 20 24  1  0  0  0  0
 21 26  2  0  0  0  0
 21 27  1  0  0  0  0
 22 23  1  0  0  0  0
 22 25  1  0  0  0  0
 24 29  1  0  0  0  0
 24 32  2  0  0  0  0
 25 30  1  0  0  0  0
 25 31  2  0  0  0  0
 27 28  1  0  0  0  0
 31 32  1  0  0  0  0
M  END
$$$$

 OpenBabel10082411353D

 32 37  0  0  0  0  0  0  0  0999 V2000
   13.1862    9.4584   -4.4987 C   0  0  0  0  0  0  0  0  0  0  0  0
   12.1466    8.8379   -3.9099 C   0  0  0  0  0  0  0  0  0  0  0  0
   12.9882    9.7409   -5.8618 C   0  0  0  0  0  0  0  0  0  0  0  0
   11.9761    9.3177   -6.5889 C   0  0  0  0  0  0  0  0  0  0  0  0
   10.9346    8.5066   -5.9096 C   0  0  0  0  0  0  0  0  0  0  0  0
   12.2569    8.5495   -2.4516 C   0  0  0  0  0  0  0  0  0  0  0  0
   11.0697    8.2577   -4.5299 C   0  0  0  0  0  0  0  0  0  0  0  0
   11.7350    9.5912   -7.9371 O   0  0  0  0  0  0  0  0  0  0  0  0
    9.7397    8.0780   -6.6393 C   0  0  0  0  0  0  0  0  0  0  0  0
   10.8649    8.8162   -8.5483 C   0  0  2  0  0  0  0  0  0  0  0  0
    9.2400    6.9866   -6.2549 O   0  0  0  0  0  0  0  0  0  0  0  0
   10.8576    9.1019   -9.9991 C   0  0  0  0  0  0  0  0  0  0  0  0
   11.8034    8.3801  -10.7004 C   0  0  0  0  0  0  0  0  0  0  0  0
    9.8033    8.2783   -8.0085 N   0  0  0  0  0  0  0  0  0  0  0  0
   11.4502    7.6515  -11.8595 C   0  0  0  0  0  0  0  0  0  0  0  0
   10.3061    7.2417  -12.2192 C   0  0  0  0  0  0  0  0  0  0  0  0
   12.5619    7.1376  -12.7423 C   0  0  0  0  0  0  0  0  0  0  0  0
    9.9519    6.4550  -13.3394 C   0  0  0  0  0  0  0  0  0  0  0  0
   12.3234    6.3860  -13.8374 C   0  0  0  0  0  0  0  0  0  0  0  0
   11.0086    6.0227  -14.1262 C   0  0  0  0  0  0  0  0  0  0  0  0
   10.7528    5.1903  -15.3140 C   0  0  0  0  0  0  0  0  0  0  0  0
   10.7272    3.7455  -15.1287 N   0  0  0  0  0  0  0  0  0  0  0  0
    9.8835    3.1820  -14.4607 C   0  0  0  0  0  0  0  0  0  0  0  0
    9.9418    1.8005  -14.3797 N   0  0  0  0  0  0  0  0  0  0  0  0
    8.5108    3.6485  -13.9676 C   0  0  0  0  0  0  0  0  0  0  0  0
    7.4839    2.7202  -13.6392 C   0  0  0  0  0  0  0  0  0  0  0  0
   11.1594    1.4102  -15.0263 O   0  0  0  0  0  0  0  0  0  0  0  0
    6.2552    3.4010  -13.0220 C   0  0  0  0  0  0  0  0  0  0  0  0
    8.3526    4.9220  -13.5074 C   0  0  1  0  0  0  0  0  0  0  0  0
    8.6623    6.0876  -13.4992 N   0  0  0  0  0  0  0  0  0  0  0  0
   11.6570    2.7300  -15.4482 C   0  0  0  0  0  0  0  0  0  0  0  0
    6.7652    5.0609  -12.9249 S   0  0  0  0  0  0  0  0  0  0  0  0
  1  2  1  0  0  0  0
  1  3  2  0  0  0  0
  2  6  1  0  0  0  0
  2  7  2  0  0  0  0
  3  4  1  0  0  0  0
  4  5  2  0  0  0  0
  4  8  1  0  0  0  0
  5  7  1  0  0  0  0
  5  9  1  0  0  0  0
  8 10  1  0  0  0  0
  9 11  2  0  0  0  0
  9 14  1  0  0  0  0
 10 12  1  6  0  0  0
 10 14  1  0  0  0  0
 12 13  1  0  0  0  0
 13 15  1  0  0  0  0
 15 16  2  0  0  0  0
 15 17  1  0  0  0  0
 16 18  1  0  0  0  0
 17 19  2  0  0  0  0
 18 20  2  0  0  0  0
 18 30  1  0  0  0  0
 19 20  1  0  0  0  0
 20 21  1  0  0  0  0
 21 22  1  0  0  0  0
 22 23  1  0  0  0  0
 22 31  1  0  0  0  0
 23 24  2  0  0  0  0
 23 25  1  0  0  0  0
 24 27  1  0  0  0  0
 25 26  2  0  0  0  0
 26 28  1  0  0  0  0
 27 31  1  0  0  0  0
 28 32  2  0  0  0  0
 29 25  1  6  0  0  0
 29 30  1  0  0  0  0
 29 32  1  0  0  0  0
M  END
$$$$

 OpenBabel10082411353D

 32 35  0  0  0  0  0  0  0  0999 V2000
   13.4846    9.3979   -5.2029 C   0  0  0  0  0  0  0  0  0  0  0  0
   12.7871    9.3913   -6.3118 C   0  0  0  0  0  0  0  0  0  0  0  0
   11.3648    9.1424   -6.2947 C   0  0  0  0  0  0  0  0  0  0  0  0
   10.8726    9.0146   -5.0034 C   0  0  0  0  0  0  0  0  0  0  0  0
    9.3815    8.7865   -5.0373 F   0  0  0  0  0  0  0  0  0  0  0  0
   11.4703    9.0293   -3.8455 C   0  0  0  0  0  0  0  0  0  0  0  0
   10.7697    8.8716   -2.6325 F   0  0  0  0  0  0  0  0  0  0  0  0
   12.8710    9.2169   -3.9429 C   0  0  0  0  0  0  0  0  0  0  0  0
   10.4781    9.1384   -7.6682 C   0  0  0  0  0  0  0  0  0  0  0  0
   11.1390    9.1306   -8.8047 C   0  0  0  0  0  0  0  0  0  0  0  0
   10.8705    7.9638   -9.7397 C   0  0  0  0  0  0  0  0  0  0  0  0
   10.2908    8.0632  -10.8488 C   0  0  0  0  0  0  0  0  0  0  0  0
   10.4238    7.0375  -11.8282 C   0  0  0  0  0  0  0  0  0  0  0  0
    9.2433    8.9518  -11.2558 C   0  0  0  0  0  0  0  0  0  0  0  0
    8.5277    8.8707  -12.4031 C   0  0  0  0  0  0  0  0  0  0  0  0
    7.4469    9.8411  -12.5572 F   0  0  0  0  0  0  0  0  0  0  0  0
    8.5235    7.7173  -13.1606 C   0  0  0  0  0  0  0  0  0  0  0  0
   11.4736    5.9938  -11.5885 F   0  0  0  0  0  0  0  0  0  0  0  0
    9.6094    6.6956  -12.8849 C   0  0  0  0  0  0  0  0  0  0  0  0
    9.8332    5.4698  -13.8784 S   0  0  0  0  0  0  0  0  0  0  0  0
   10.9769    5.4319  -14.5253 O   0  0  0  0  0  0  0  0  0  0  0  0
    8.3413    5.5312  -14.5883 O   0  0  0  0  0  0  0  0  0  0  0  0
    9.8256    3.9847  -12.9897 C   0  0  1  0  0  0  0  0  0  0  0  0
    8.5770    3.2748  -13.0188 C   0  0  0  0  0  0  0  0  0  0  0  0
   10.7278    3.0709  -13.5601 C   0  0  0  0  0  0  0  0  0  0  0  0
    8.3700    2.2815  -13.9828 C   0  0  0  0  0  0  0  0  0  0  0  0
    7.4529    1.3749  -13.9455 C   0  0  0  0  0  0  0  0  0  0  0  0
   10.3190    2.3728  -14.7020 C   0  0  0  0  0  0  0  0  0  0  0  0
    6.2319    1.5433  -12.9826 C   0  0  0  0  0  0  0  0  0  0  0  0
    6.1306    2.5529  -12.1734 C   0  0  0  0  0  0  0  0  0  0  0  0
    7.3735    3.4507  -12.2314 C   0  0  0  0  0  0  0  0  0  0  0  0
    9.3707    1.9082  -14.8479 C   0  0  0  0  0  0  0  0  0  0  0  0
  1  2  1  0  0  0  0
  1  8  2  0  0  0  0
  2  3  2  0  0  0  0
  3  4  1  0  0  0  0
  3  9  1  0  0  0  0
  4  5  1  0  0  0  0
  4  6  2  0  0  0  0
  6  7  1  0  0  0  0
  6  8  1  0  0  0  0
  9 10  1  0  0  0  0
 10 11  1  0  0  0  0
 11 12  1  0  0  0  0
 12 13  2  0  0  0  0
 12 14  1  0  0  0  0
 13 18  1  0  0  0  0
 13 19  1  0  0  0  0
 14 15  2  0  0  0  0
 15 16  1  0  0  0  0
 15 17  1  0  0  0  0
 17 19  2  0  0  0  0
 19 20  1  0  0  0  0
 20 21  2  0  0  0  0
 20 22  2  0  0  0  0
 23 20  1  6  0  0  0
 23 24  1  0  0  0  0
 23 25  1  0  0  0  0
 24 26  1  0  0  0  0
 24 31  2  0  0  0  0
 25 28  1  0  0  0  0
 26 27  2  0  0  0  0
 26 32  1  0  0  0  0
 27 29  1  0  0  0  0
 28 32  2  0  0  0  0
 29 30  2  0  0  0  0
 30 31  1  0  0  0  0
M  END
$$$$

 OpenBabel10082411353D

 32 35  0  0  0  0  0  0  0  0999 V2000
   13.2485    9.2493   -6.3668 O   0  0  0  0  0  0  0  0  0  0  0  0
   12.3055    9.1779   -7.4488 C   0  0  1  0  0  0  0  0  0  0  0  0
   12.5005    8.1033   -8.2440 C   0  0  0  0  0  0  0  0  0  0  0  0
   11.7072    8.0925   -9.4886 C   0  0  0  0  0  0  0  0  0  0  0  0
   12.2659    7.9483  -10.6668 C   0  0  0  0  0  0  0  0  0  0  0  0
   10.2869    8.0426   -9.4299 C   0  0  0  0  0  0  0  0  0  0  0  0
   13.6482    8.0497  -10.9162 O   0  0  0  0  0  0  0  0  0  0  0  0
   11.5356    7.8148  -11.9199 C   0  0  0  0  0  0  0  0  0  0  0  0
   12.2597    7.6523  -13.1838 C   0  0  0  0  0  0  0  0  0  0  0  0
    9.5345    7.8388  -10.6476 C   0  0  0  0  0  0  0  0  0  0  0  0
   12.7796    8.4277  -13.7325 O   0  0  0  0  0  0  0  0  0  0  0  0
   10.1724    7.7406  -11.8577 C   0  0  0  0  0  0  0  0  0  0  0  0
   12.4765    6.3392  -13.7439 N   0  0  0  0  0  0  0  0  0  0  0  0
    9.2368    7.4770  -13.0161 C   0  0  1  0  0  0  0  0  0  0  0  0
    8.7686    6.0601  -13.0538 C   0  0  0  0  0  0  0  0  0  0  0  0
   11.7377    5.1496  -13.1887 C   0  0  0  0  0  0  0  0  0  0  0  0
   10.9893    9.0510   -6.5404 C   0  0  0  0  0  0  0  0  0  0  0  0
   11.2522    8.1647   -5.3854 C   0  0  2  0  0  0  0  0  0  0  0  0
    7.8881    5.4892  -12.2818 C   0  0  0  0  0  0  0  0  0  0  0  0
    8.1030    8.4511  -12.9051 C   0  0  0  0  0  0  0  0  0  0  0  0
   11.2726    4.1709  -14.3554 C   0  0  0  0  0  0  0  0  0  0  0  0
   12.7640    9.8841   -5.1669 C   0  0  0  0  0  0  0  0  0  0  0  0
   10.2020    7.3447   -4.8869 O   0  0  0  0  0  0  0  0  0  0  0  0
    9.2807    5.2234  -14.0940 C   0  0  0  0  0  0  0  0  0  0  0  0
    9.9511    4.1599  -14.4562 C   0  0  2  0  0  0  0  0  0  0  0  0
   11.8540    8.9171   -4.3609 C   0  0  0  0  0  0  0  0  0  0  0  0
    7.1691    4.3941  -12.4554 C   0  0  0  0  0  0  0  0  0  0  0  0
    9.5765    2.9107  -13.8673 C   0  0  0  0  0  0  0  0  0  0  0  0
    6.2523    3.9466  -11.4197 O   0  0  0  0  0  0  0  0  0  0  0  0
   10.0883    1.7765  -14.3393 O   0  0  0  0  0  0  0  0  0  0  0  0
    7.4840    3.5862  -13.5695 C   0  0  0  0  0  0  0  0  0  0  0  0
    8.1326    2.6559  -13.4785 C   0  0  0  0  0  0  0  0  0  0  0  0
  1  2  1  0  0  0  0
  1 22  1  0  0  0  0
  2  3  1  6  0  0  0
  2 17  1  0  0  0  0
  3  4  1  0  0  0  0
  4  5  1  0  0  0  0
  4  6  2  0  0  0  0
  5  7  1  0  0  0  0
  5  8  2  0  0  0  0
  6 10  1  0  0  0  0
  8  9  1  0  0  0  0
  8 12  1  0  0  0  0
  9 11  2  0  0  0  0
  9 13  1  0  0  0  0
 10 12  2  0  0  0  0
 12 14  1  0  0  0  0
 13 16  1  0  0  0  0
 14 15  1  0  0  0  0
 14 20  1  1  0  0  0
 15 19  1  0  0  0  0
 15 24  2  0  0  0  0
 16 21  1  0  0  0  0
 17 18  1  0  0  0  0
 18 23  1  1  0  0  0
 18 26  1  0  0  0  0
 19 27  2  0  0  0  0
 22 26  1  0  0  0  0
 24 25  1  0  0  0  0
 25 21  1  1  0  0  0
 25 28  1  0  0  0  0
 27 29  1  0  0  0  0
 27 31  1  0  0  0  0
 28 30  2  0  0  0  0
 28 32  1  0  0  0  0
 31 32  1  0  0  0  0
M  END
$$$$

 OpenBabel10082411353D

 32 34  0  0  0  0  0  0  0  0999 V2000
   10.9951    9.9694   -4.9946 C   0  0  0  0  0  0  0  0  0  0  0  0
   11.7938    9.3762   -4.2463 C   0  0  0  0  0  0  0  0  0  0  0  0
   10.8673    9.4548   -6.4276 C   0  0  0  0  0  0  0  0  0  0  0  0
   11.6576    7.9117   -4.2944 C   0  0  0  0  0  0  0  0  0  0  0  0
   10.5498    8.0257   -6.4521 C   0  0  0  0  0  0  0  0  0  0  0  0
   11.4715    7.2752   -5.6166 C   0  0  0  0  0  0  0  0  0  0  0  0
   10.5840    7.5390   -7.9254 C   0  0  0  0  0  0  0  0  0  0  0  0
   11.4612    8.1494   -8.8322 C   0  0  0  0  0  0  0  0  0  0  0  0
   12.6250    8.6294   -8.4338 O   0  0  0  0  0  0  0  0  0  0  0  0
   11.0835    8.4395  -10.0740 O   0  0  0  0  0  0  0  0  0  0  0  0
   11.2938    7.5612  -11.0769 C   0  0  0  0  0  0  0  0  0  0  0  0
   10.1547    7.2525  -11.9492 C   0  0  0  0  0  0  0  0  0  0  0  0
   10.4293    6.5622  -13.1348 C   0  0  0  0  0  0  0  0  0  0  0  0
   11.7295    6.4217  -13.6243 C   0  0  0  0  0  0  0  0  0  0  0  0
    8.8120    7.3918  -11.4649 C   0  0  0  0  0  0  0  0  0  0  0  0
   12.5351    7.8894  -11.6869 C   0  0  0  0  0  0  0  0  0  0  0  0
   13.5778    8.4243  -10.9673 O   0  0  0  0  0  0  0  0  0  0  0  0
    7.7211    7.1761  -12.4323 C   0  0  0  0  0  0  0  0  0  0  0  0
   12.8103    7.0723  -12.8897 C   0  0  0  0  0  0  0  0  0  0  0  0
    7.0543    5.9667  -12.3369 C   0  0  0  0  0  0  0  0  0  0  0  0
    7.2392    8.1844  -13.1320 C   0  0  0  0  0  0  0  0  0  0  0  0
    6.6882    5.3848  -13.5016 O   0  0  0  0  0  0  0  0  0  0  0  0
    6.5103    5.5543  -11.3870 O   0  0  0  0  0  0  0  0  0  0  0  0
    7.4031    4.0506  -13.7852 C   0  0  0  0  0  0  0  0  0  0  0  0
   11.9567    5.7137  -14.8744 C   0  0  0  0  0  0  0  0  0  0  0  0
    8.6219    3.9611  -14.1988 C   0  0  0  0  0  0  0  0  0  0  0  0
   12.1624    6.4252  -15.8904 C   0  0  0  0  0  0  0  0  0  0  0  0
    9.4613    3.0640  -13.5563 C   0  0  0  0  0  0  0  0  0  0  0  0
   12.1556    4.2801  -14.7975 C   0  0  0  0  0  0  0  0  0  0  0  0
   12.3902    5.6468  -17.1373 C   0  0  0  0  0  0  0  0  0  0  0  0
   12.4464    4.3082  -17.1505 C   0  0  0  0  0  0  0  0  0  0  0  0
   12.1079    3.5465  -15.8861 C   0  0  0  0  0  0  0  0  0  0  0  0
  1  2  1  0  0  0  0
  1  3  1  0  0  0  0
  2  4  1  0  0  0  0
  3  5  1  0  0  0  0
  4  6  1  0  0  0  0
  5  6  1  0  0  0  0
  5  7  1  0  0  0  0
  7  8  1  0  0  0  0
  8  9  2  0  0  0  0
  8 10  1  0  0  0  0
 10 11  1  0  0  0  0
 11 12  1  0  0  0  0
 11 16  2  0  0  0  0
 12 13  2  0  0  0  0
 12 15  1  0  0  0  0
 13 14  1  0  0  0  0
 14 19  2  0  0  0  0
 14 25  1  0  0  0  0
 15 18  1  0  0  0  0
 16 17  1  0  0  0  0
 16 19  1  0  0  0  0
 18 20  1  0  0  0  0
 18 21  2  0  0  0  0
 20 22  1  0  0  0  0
 20 23  2  0  0  0  0
 22 24  1  0  0  0  0
 24 26  1  0  0  0  0
 25 27  2  0  0  0  0
 25 29  1  0  0  0  0
 26 28  1  0  0  0  0
 27 30  1  0  0  0  0
 29 32  2  0  0  0  0
 30 31  2  0  0  0  0
 31 32  1  0  0  0  0
M  END
$$$$

 OpenBabel10082411353D

 32 34  0  0  0  0  0  0  0  0999 V2000
   13.2485    9.2493   -6.3668 O   0  0  0  0  0  0  0  0  0  0  0  0
   11.8899    9.2134   -6.2448 C   0  0  2  0  0  0  0  0  0  0  0  0
   11.2917    8.4721   -7.1451 C   0  0  2  0  0  0  0  0  0  0  0  0
   11.1607   10.4722   -6.0470 C   0  0  0  0  0  0  0  0  0  0  0  0
   11.8942    8.2744   -4.8861 C   0  0  1  0  0  0  0  0  0  0  0  0
   12.6962    8.6810   -3.7632 C   0  0  0  0  0  0  0  0  0  0  0  0
   10.5733    7.9819   -4.4741 O   0  0  0  0  0  0  0  0  0  0  0  0
   12.2118    6.9274   -5.0046 C   0  0  0  0  0  0  0  0  0  0  0  0
   11.4062    7.0803   -7.3138 C   0  0  1  0  0  0  0  0  0  0  0  0
   11.6893    9.1493   -8.4831 O   0  0  0  0  0  0  0  0  0  0  0  0
   11.3707    6.2717   -6.1614 C   0  0  0  0  0  0  0  0  0  0  0  0
   10.2564    6.5939   -8.3321 C   0  0  0  0  0  0  0  0  0  0  0  0
   10.4218    6.4667   -9.6182 C   0  0  0  0  0  0  0  0  0  0  0  0
    9.0449    6.2933   -7.8128 C   0  0  0  0  0  0  0  0  0  0  0  0
   11.5623    6.9616  -10.3788 C   0  0  0  0  0  0  0  0  0  0  0  0
    9.1836    6.0871  -10.1212 C   0  0  0  0  0  0  0  0  0  0  0  0
    8.3594    5.8680   -8.9980 N   0  0  0  0  0  0  0  0  0  0  0  0
    8.9634    5.7685  -11.5222 C   0  0  0  0  0  0  0  0  0  0  0  0
    9.9387    6.2140  -12.4284 C   0  0  0  0  0  0  0  0  0  0  0  0
   11.2531    6.8246  -11.9916 C   0  0  0  0  0  0  0  0  0  0  0  0
   12.2137    7.2131  -12.9706 C   0  0  0  0  0  0  0  0  0  0  0  0
    7.7583    5.2325  -11.8353 C   0  0  0  0  0  0  0  0  0  0  0  0
   11.9530    7.0918  -14.3342 C   0  0  0  0  0  0  0  0  0  0  0  0
    7.8032    4.3774  -13.0353 N   0  0  0  0  0  0  0  0  0  0  0  0
    6.7267    5.4406  -11.2899 O   0  0  0  0  0  0  0  0  0  0  0  0
    8.9854    3.9863  -13.7176 C   0  0  0  0  0  0  0  0  0  0  0  0
    6.5146    3.7830  -13.4329 C   0  0  0  0  0  0  0  0  0  0  0  0
    6.4313    2.3027  -12.9333 C   0  0  0  0  0  0  0  0  0  0  0  0
    9.4261    4.8643  -14.5927 O   0  0  0  0  0  0  0  0  0  0  0  0
    9.4412    2.7657  -13.5549 O   0  0  0  0  0  0  0  0  0  0  0  0
    9.6923    1.9142  -14.6881 C   0  0  0  0  0  0  0  0  0  0  0  0
   11.0022    1.9583  -15.0363 C   0  0  0  0  0  0  0  0  0  0  0  0
  1  2  1  0  0  0  0
  2  3  1  0  0  0  0
  2  4  1  1  0  0  0
  2  5  1  0  0  0  0
  3  9  1  0  0  0  0
  3 10  1  6  0  0  0
  5  6  1  1  0  0  0
  5  7  1  0  0  0  0
  5  8  1  0  0  0  0
  8 11  1  0  0  0  0
  9 11  1  0  0  0  0
  9 12  1  6  0  0  0
 12 13  1  0  0  0  0
 12 14  2  0  0  0  0
 13 15  1  0  0  0  0
 13 16  2  0  0  0  0
 14 17  1  0  0  0  0
 15 20  2  0  0  0  0
 16 17  1  0  0  0  0
 16 18  1  0  0  0  0
 18 19  2  0  0  0  0
 18 22  1  0  0  0  0
 19 20  1  0  0  0  0
 20 21  1  0  0  0  0
 21 23  1  0  0  0  0
 22 24  1  0  0  0  0
 22 25  2  0  0  0  0
 24 26  1  0  0  0  0
 24 27  1  0  0  0  0
 26 29  2  0  0  0  0
 26 30  1  0  0  0  0
 27 28  1  0  0  0  0
 30 31  1  0  0  0  0
 31 32  1  0  0  0  0
M  END
$$$$

 OpenBabel10082411353D

 32 36  0  0  0  0  0  0  0  0999 V2000
   12.8881    8.7759   -3.5681 C   0  0  0  0  0  0  0  0  0  0  0  0
   11.9416    9.4732   -4.1220 C   0  0  0  0  0  0  0  0  0  0  0  0
   12.3556    7.6012   -2.6527 C   0  0  0  0  0  0  0  0  0  0  0  0
   11.8805    9.3400   -5.6557 C   0  0  0  0  0  0  0  0  0  0  0  0
   11.7716    6.5414   -3.3821 C   0  0  0  0  0  0  0  0  0  0  0  0
   10.8523    8.6585   -6.3310 C   0  0  0  0  0  0  0  0  0  0  0  0
   11.1142    8.2520   -7.7289 C   0  0  0  0  0  0  0  0  0  0  0  0
   10.0478    7.6568   -8.4887 C   0  0  0  0  0  0  0  0  0  0  0  0
   12.3648    8.4339   -8.3703 C   0  0  0  0  0  0  0  0  0  0  0  0
   12.6142    8.1352   -9.7322 C   0  0  0  0  0  0  0  0  0  0  0  0
   10.2852    7.3833   -9.9138 C   0  0  0  0  0  0  0  0  0  0  0  0
   11.5161    7.5808  -10.4860 C   0  0  0  0  0  0  0  0  0  0  0  0
   11.6641    7.2285  -11.8174 O   0  0  0  0  0  0  0  0  0  0  0  0
   10.8624    6.4419  -12.4395 C   0  0  0  0  0  0  0  0  0  0  0  0
   11.2693    5.8267  -13.4966 C   0  0  0  0  0  0  0  0  0  0  0  0
    9.5259    6.2192  -11.9953 C   0  0  0  0  0  0  0  0  0  0  0  0
    9.2551    6.6732  -10.5921 C   0  0  2  0  0  0  0  0  0  0  0  0
    8.1388    7.5201  -10.6434 O   0  0  0  0  0  0  0  0  0  0  0  0
   12.6263    6.1828  -14.1606 C   0  0  0  0  0  0  0  0  0  0  0  0
    7.2614    7.1893  -11.7193 C   0  0  2  0  0  0  0  0  0  0  0  0
   12.6352    7.3184  -14.7782 C   0  0  0  0  0  0  0  0  0  0  0  0
    8.2277    6.2735  -12.5381 C   0  0  0  0  0  0  0  0  0  0  0  0
    7.7180    5.1928  -13.4230 C   0  0  0  0  0  0  0  0  0  0  0  0
    8.4439    4.2015  -13.9045 C   0  0  0  0  0  0  0  0  0  0  0  0
    6.9950    8.4483  -12.4502 C   0  0  0  0  0  0  0  0  0  0  0  0
    7.7472    3.2985  -14.8364 C   0  0  0  0  0  0  0  0  0  0  0  0
    9.0300    5.4319   -9.7786 C   0  0  0  0  0  0  0  0  0  0  0  0
    8.1705    1.9584  -14.6092 C   0  0  0  0  0  0  0  0  0  0  0  0
    9.3621    1.6865  -14.2893 C   0  0  0  0  0  0  0  0  0  0  0  0
    9.7363    3.9677  -13.5638 C   0  0  0  0  0  0  0  0  0  0  0  0
   10.8475    4.4642  -13.8694 C   0  0  0  0  0  0  0  0  0  0  0  0
   10.2945    2.6244  -13.7557 C   0  0  0  0  0  0  0  0  0  0  0  0
  1  2  1  0  0  0  0
  1  3  1  0  0  0  0
  2  4  1  0  0  0  0
  3  5  1  0  0  0  0
  4  6  1  0  0  0  0
  6  7  1  0  0  0  0
  7  8  1  0  0  0  0
  7  9  2  0  0  0  0
  8 11  2  0  0  0  0
  9 10  1  0  0  0  0
 10 12  2  0  0  0  0
 11 12  1  0  0  0  0
 11 17  1  0  0  0  0
 12 13  1  0  0  0  0
 13 14  1  0  0  0  0
 14 15  2  0  0  0  0
 14 16  1  0  0  0  0
 15 19  1  0  0  0  0
 15 31  1  0  0  0  0
 16 17  1  0  0  0  0
 16 22  2  0  0  0  0
 17 18  1  0  0  0  0
 17 27  1  1  0  0  0
 18 20  1  0  0  0  0
 19 21  2  0  0  0  0
 20 22  1  0  0  0  0
 20 25  1  6  0  0  0
 22 23  1  0  0  0  0
 23 24  2  0  0  0  0
 24 26  1  0  0  0  0
 24 30  1  0  0  0  0
 26 28  2  0  0  0  0
 28 29  1  0  0  0  0
 29 32  2  0  0  0  0
 30 31  2  0  0  0  0
 30 32  1  0  0  0  0
M  END
$$$$

 OpenBabel10082411353D

 32 39  0  0  0  0  0  0  0  0999 V2000
    9.9628    9.3008   -5.6386 C   0  0  0  0  0  0  0  0  0  0  0  0
   11.0579    9.3174   -4.8874 C   0  0  0  0  0  0  0  0  0  0  0  0
   10.0238    8.5532   -6.9009 C   0  0  0  0  0  0  0  0  0  0  0  0
    8.9422    8.4514   -7.7296 O   0  0  0  0  0  0  0  0  0  0  0  0
   11.0140    7.6114   -7.2470 C   0  0  0  0  0  0  0  0  0  0  0  0
   10.8571    6.8731   -8.5114 C   0  0  1  0  0  0  0  0  0  0  0  0
   11.1242   10.0594   -3.7508 O   0  0  0  0  0  0  0  0  0  0  0  0
   12.3364    9.8197   -3.0510 C   0  0  0  0  0  0  0  0  0  0  0  0
   12.2287    8.4512   -5.2749 C   0  0  0  0  0  0  0  0  0  0  0  0
    9.4279    6.5259   -8.5572 C   0  0  1  0  0  0  0  0  0  0  0  0
   13.3632    8.4956   -4.3628 O   0  0  0  0  0  0  0  0  0  0  0  0
    9.3151    5.5378   -9.6781 C   0  0  0  0  0  0  0  0  0  0  0  0
   12.1913    7.6972   -6.4133 C   0  0  0  0  0  0  0  0  0  0  0  0
    9.6980    5.8035  -10.9178 N   0  0  0  0  0  0  0  0  0  0  0  0
   13.1785    8.9623   -3.3111 C   0  0  0  0  0  0  0  0  0  0  0  0
    9.9398    7.0087  -11.3353 C   0  0  2  0  0  0  0  0  0  0  0  0
    8.9345    5.9584   -7.2697 C   0  0  0  0  0  0  0  0  0  0  0  0
   10.0043    4.8234  -11.8888 C   0  0  0  0  0  0  0  0  0  0  0  0
    9.2399    3.6704  -11.9909 O   0  0  0  0  0  0  0  0  0  0  0  0
   10.7391    7.2900  -12.5155 C   0  0  0  0  0  0  0  0  0  0  0  0
   10.8999    6.3323  -13.4851 C   0  0  2  0  0  0  0  0  0  0  0  0
   10.7359    4.9360  -13.0850 C   0  0  2  0  0  0  0  0  0  0  0  0
   12.0411    6.5469  -14.1372 C   0  0  0  0  0  0  0  0  0  0  0  0
   12.4561    5.8199  -15.1710 C   0  0  0  0  0  0  0  0  0  0  0  0
   12.6812    7.9445  -14.2654 C   0  0  0  0  0  0  0  0  0  0  0  0
   13.7189    6.6052  -15.8430 C   0  0  0  0  0  0  0  0  0  0  0  0
    8.9937    7.8436   -8.9278 C   0  0  2  0  0  0  0  0  0  0  0  0
   10.0934    7.9651  -10.1368 C   0  0  1  0  0  0  0  0  0  0  0  0
   12.2428    4.4952  -15.4007 C   0  0  0  0  0  0  0  0  0  0  0  0
   11.3489    3.8553  -14.5571 C   0  0  0  0  0  0  0  0  0  0  0  0
   13.6143    7.8783  -15.2812 N   0  0  0  0  0  0  0  0  0  0  0  0
   11.1627    7.8729   -9.4744 C   0  0  0  0  0  0  0  0  0  0  0  0
  1  2  1  0  0  0  0
  1  3  2  0  0  0  0
  2  7  1  0  0  0  0
  2  9  2  0  0  0  0
  3  4  1  0  0  0  0
  3  5  1  0  0  0  0
  5  6  1  0  0  0  0
  5 13  2  0  0  0  0
  6 10  1  0  0  0  0
  6 32  1  6  0  0  0
  7  8  1  0  0  0  0
  8 15  2  0  0  0  0
  9 11  1  0  0  0  0
  9 13  1  0  0  0  0
 10 12  1  0  0  0  0
 10 17  1  1  0  0  0
 10 27  1  0  0  0  0
 11 15  1  0  0  0  0
 12 14  1  0  0  0  0
 14 16  1  0  0  0  0
 14 18  1  0  0  0  0
 16 20  1  1  0  0  0
 16 28  1  0  0  0  0
 18 19  2  0  0  0  0
 18 22  1  0  0  0  0
 21 20  1  1  0  0  0
 21 22  1  0  0  0  0
 21 23  1  0  0  0  0
 22 30  1  6  0  0  0
 23 24  2  0  0  0  0
 23 25  1  0  0  0  0
 24 26  1  0  0  0  0
 24 29  1  0  0  0  0
 25 31  1  0  0  0  0
 26 31  1  0  0  0  0
 27  4  1  1  0  0  0
 27 28  1  0  0  0  0
 28 32  1  1  0  0  0
 29 30  2  0  0  0  0
M  END
$$$$

 OpenBabel10082411353D

 32 37  0  0  0  0  0  0  0  0999 V2000
   13.1862    9.4584   -4.4987 C   0  0  0  0  0  0  0  0  0  0  0  0
   12.1466    8.8379   -3.9099 C   0  0  0  0  0  0  0  0  0  0  0  0
   12.9882    9.7409   -5.8618 C   0  0  0  0  0  0  0  0  0  0  0  0
   11.9761    9.3177   -6.5889 C   0  0  0  0  0  0  0  0  0  0  0  0
   10.9346    8.5066   -5.9096 C   0  0  0  0  0  0  0  0  0  0  0  0
   12.2569    8.5495   -2.4516 C   0  0  0  0  0  0  0  0  0  0  0  0
   11.0697    8.2577   -4.5299 C   0  0  0  0  0  0  0  0  0  0  0  0
   11.7350    9.5912   -7.9371 O   0  0  0  0  0  0  0  0  0  0  0  0
    9.7397    8.0780   -6.6393 C   0  0  0  0  0  0  0  0  0  0  0  0
   10.8649    8.8162   -8.5483 C   0  0  2  0  0  0  0  0  0  0  0  0
    9.2400    6.9866   -6.2549 O   0  0  0  0  0  0  0  0  0  0  0  0
   10.8576    9.1019   -9.9991 C   0  0  0  0  0  0  0  0  0  0  0  0
   11.8034    8.3801  -10.7004 C   0  0  0  0  0  0  0  0  0  0  0  0
    9.8033    8.2783   -8.0085 N   0  0  0  0  0  0  0  0  0  0  0  0
   11.4502    7.6515  -11.8595 C   0  0  0  0  0  0  0  0  0  0  0  0
   10.3061    7.2417  -12.2192 C   0  0  0  0  0  0  0  0  0  0  0  0
   12.5619    7.1376  -12.7423 C   0  0  0  0  0  0  0  0  0  0  0  0
    9.9519    6.4550  -13.3394 C   0  0  0  0  0  0  0  0  0  0  0  0
   12.3234    6.3860  -13.8374 C   0  0  0  0  0  0  0  0  0  0  0  0
   11.0086    6.0227  -14.1262 C   0  0  0  0  0  0  0  0  0  0  0  0
   10.7528    5.1903  -15.3140 C   0  0  0  0  0  0  0  0  0  0  0  0
   10.7272    3.7455  -15.1287 N   0  0  0  0  0  0  0  0  0  0  0  0
    9.8835    3.1820  -14.4607 C   0  0  0  0  0  0  0  0  0  0  0  0
    9.9418    1.8005  -14.3797 N   0  0  0  0  0  0  0  0  0  0  0  0
    8.5108    3.6485  -13.9676 C   0  0  0  0  0  0  0  0  0  0  0  0
    7.4839    2.7202  -13.6392 C   0  0  0  0  0  0  0  0  0  0  0  0
   11.1594    1.4102  -15.0263 O   0  0  0  0  0  0  0  0  0  0  0  0
   11.5806    2.7148  -15.4973 C   0  0  0  0  0  0  0  0  0  0  0  0
    8.1482    4.9455  -13.8318 C   0  0  0  0  0  0  0  0  0  0  0  0
    8.5912    6.0153  -13.4949 N   0  0  0  0  0  0  0  0  0  0  0  0
    6.7132    4.7459  -13.1700 N   0  0  0  0  0  0  0  0  0  0  0  0
    6.4516    3.4531  -13.1470 O   0  0  0  0  0  0  0  0  0  0  0  0
  1  2  1  0  0  0  0
  1  3  2  0  0  0  0
  2  6  1  0  0  0  0
  2  7  2  0  0  0  0
  3  4  1  0  0  0  0
  4  5  2  0  0  0  0
  4  8  1  0  0  0  0
  5  7  1  0  0  0  0
  5  9  1  0  0  0  0
  8 10  1  0  0  0  0
  9 11  2  0  0  0  0
  9 14  1  0  0  0  0
 10 12  1  6  0  0  0
 10 14  1  0  0  0  0
 12 13  1  0  0  0  0
 13 15  1  0  0  0  0
 15 16  2  0  0  0  0
 15 17  1  0  0  0  0
 16 18  1  0  0  0  0
 17 19  2  0  0  0  0
 18 20  2  0  0  0  0
 18 30  1  0  0  0  0
 19 20  1  0  0  0  0
 20 21  1  0  0  0  0
 21 22  1  0  0  0  0
 22 23  1  0  0  0  0
 22 28  1  0  0  0  0
 23 24  2  0  0  0  0
 23 25  1  0  0  0  0
 24 27  1  0  0  0  0
 25 26  2  0  0  0  0
 25 29  1  0  0  0  0
 26 32  1  0  0  0  0
 27 28  1  0  0  0  0
 29 30  1  0  0  0  0
 29 31  2  0  0  0  0
 31 32  1  0  0  0  0
M  END
$$$$

 OpenBabel10082411353D

 21 23  0  0  0  0  0  0  0  0999 V2000
    8.0839    8.8860  -12.2561 C   0  0  0  0  0  0  0  0  0  0  0  0
    8.8273    7.7579  -12.2078 C   0  0  1  0  0  0  0  0  0  0  0  0
   10.1224    7.6608  -11.7635 C   0  0  0  0  0  0  0  0  0  0  0  0
    8.0207    6.6286  -11.5139 C   0  0  0  0  0  0  0  0  0  0  0  0
   10.3983    7.6617  -10.4085 C   0  0  0  0  0  0  0  0  0  0  0  0
   11.1796    7.3921  -12.6684 C   0  0  0  0  0  0  0  0  0  0  0  0
   11.7852    7.6560   -9.9808 C   0  0  0  0  0  0  0  0  0  0  0  0
    7.6417    5.4729  -12.5527 C   0  0  0  0  0  0  0  0  0  0  0  0
    6.4084    5.1570  -12.4330 C   0  0  0  0  0  0  0  0  0  0  0  0
   12.5068    7.3608  -12.2820 C   0  0  0  0  0  0  0  0  0  0  0  0
   12.0871    7.7355   -8.5565 C   0  0  0  0  0  0  0  0  0  0  0  0
    6.2013    3.7420  -13.0865 C   0  0  0  0  0  0  0  0  0  0  0  0
   12.7831    7.4995  -10.9693 C   0  0  0  0  0  0  0  0  0  0  0  0
   10.9919    8.0814   -7.6989 C   0  0  0  0  0  0  0  0  0  0  0  0
   10.7921    7.0977   -6.6776 C   0  0  0  0  0  0  0  0  0  0  0  0
   11.6280    7.1755   -5.5801 C   0  0  0  0  0  0  0  0  0  0  0  0
   11.7953    8.4697   -4.9108 C   0  0  0  0  0  0  0  0  0  0  0  0
   11.9083    9.5297   -5.7974 C   0  0  0  0  0  0  0  0  0  0  0  0
   11.1027    9.5166   -7.0312 C   0  0  0  0  0  0  0  0  0  0  0  0
    9.6186    8.2084   -8.3013 C   0  0  0  0  0  0  0  0  0  0  0  0
    9.4898    7.2155   -9.4480 N   0  0  0  0  0  0  0  0  0  0  0  0
  2  1  1  1  0  0  0
  2  3  1  0  0  0  0
  2  4  1  0  0  0  0
  3  5  1  0  0  0  0
  3  6  2  0  0  0  0
  4  8  1  0  0  0  0
  5  7  2  0  0  0  0
  5 21  1  0  0  0  0
  6 10  1  0  0  0  0
  7 11  1  0  0  0  0
  7 13  1  0  0  0  0
  8  9  1  0  0  0  0
  9 12  1  0  0  0  0
 10 13  2  0  0  0  0
 11 14  1  0  0  0  0
 14 15  1  0  0  0  0
 14 19  1  0  0  0  0
 14 20  1  0  0  0  0
 15 16  1  0  0  0  0
 16 17  1  0  0  0  0
 17 18  1  0  0  0  0
 18 19  1  0  0  0  0
 20 21  1  0  0  0  0
M  END
$$$$

 OpenBabel10082411353D

 32 37  0  0  0  0  0  0  0  0999 V2000
   13.1862    9.4584   -4.4987 C   0  0  0  0  0  0  0  0  0  0  0  0
   12.1466    8.8379   -3.9099 C   0  0  0  0  0  0  0  0  0  0  0  0
   12.9882    9.7409   -5.8618 C   0  0  0  0  0  0  0  0  0  0  0  0
   11.9761    9.3177   -6.5889 C   0  0  0  0  0  0  0  0  0  0  0  0
   10.9346    8.5066   -5.9096 C   0  0  0  0  0  0  0  0  0  0  0  0
   12.2569    8.5495   -2.4516 C   0  0  0  0  0  0  0  0  0  0  0  0
   11.0697    8.2577   -4.5299 C   0  0  0  0  0  0  0  0  0  0  0  0
   11.7350    9.5912   -7.9371 O   0  0  0  0  0  0  0  0  0  0  0  0
    9.7397    8.0780   -6.6393 C   0  0  0  0  0  0  0  0  0  0  0  0
   10.8649    8.8162   -8.5483 C   0  0  2  0  0  0  0  0  0  0  0  0
    9.2400    6.9866   -6.2549 O   0  0  0  0  0  0  0  0  0  0  0  0
   10.8576    9.1019   -9.9991 C   0  0  0  0  0  0  0  0  0  0  0  0
   11.8034    8.3801  -10.7004 C   0  0  0  0  0  0  0  0  0  0  0  0
    9.8033    8.2783   -8.0085 N   0  0  0  0  0  0  0  0  0  0  0  0
   11.4502    7.6515  -11.8595 C   0  0  0  0  0  0  0  0  0  0  0  0
   10.3061    7.2417  -12.2192 C   0  0  0  0  0  0  0  0  0  0  0  0
   12.5619    7.1376  -12.7423 C   0  0  0  0  0  0  0  0  0  0  0  0
    9.9519    6.4550  -13.3394 C   0  0  0  0  0  0  0  0  0  0  0  0
   12.3234    6.3860  -13.8374 C   0  0  0  0  0  0  0  0  0  0  0  0
   11.0086    6.0227  -14.1262 C   0  0  0  0  0  0  0  0  0  0  0  0
   10.7528    5.1903  -15.3140 C   0  0  0  0  0  0  0  0  0  0  0  0
   10.7272    3.7455  -15.1287 N   0  0  0  0  0  0  0  0  0  0  0  0
    9.8835    3.1820  -14.4607 C   0  0  0  0  0  0  0  0  0  0  0  0
    9.9418    1.8005  -14.3797 N   0  0  0  0  0  0  0  0  0  0  0  0
    8.5108    3.6485  -13.9676 C   0  0  0  0  0  0  0  0  0  0  0  0
   11.5680    2.8120  -15.7082 C   0  0  0  0  0  0  0  0  0  0  0  0
   11.0526    1.5952  -15.2424 C   0  0  0  0  0  0  0  0  0  0  0  0
    7.4647    2.8366  -13.8428 C   0  0  0  0  0  0  0  0  0  0  0  0
    8.5402    4.7178  -13.0294 C   0  0  0  0  0  0  0  0  0  0  0  0
    8.6174    5.9754  -13.4849 O   0  0  0  0  0  0  0  0  0  0  0  0
    6.4432    3.5710  -12.9045 S   0  0  0  0  0  0  0  0  0  0  0  0
    7.2573    4.8840  -12.4097 C   0  0  0  0  0  0  0  0  0  0  0  0
  1  2  1  0  0  0  0
  1  3  2  0  0  0  0
  2  6  1  0  0  0  0
  2  7  2  0  0  0  0
  3  4  1  0  0  0  0
  4  5  2  0  0  0  0
  4  8  1  0  0  0  0
  5  7  1  0  0  0  0
  5  9  1  0  0  0  0
  8 10  1  0  0  0  0
  9 11  2  0  0  0  0
  9 14  1  0  0  0  0
 10 12  1  6  0  0  0
 10 14  1  0  0  0  0
 12 13  1  0  0  0  0
 13 15  1  0  0  0  0
 15 16  2  0  0  0  0
 15 17  1  0  0  0  0
 16 18  1  0  0  0  0
 17 19  2  0  0  0  0
 18 20  2  0  0  0  0
 18 30  1  0  0  0  0
 19 20  1  0  0  0  0
 20 21  1  0  0  0  0
 21 22  1  0  0  0  0
 22 23  1  0  0  0  0
 22 26  1  0  0  0  0
 23 24  2  0  0  0  0
 23 25  1  0  0  0  0
 24 27  1  0  0  0  0
 25 28  2  0  0  0  0
 25 29  1  0  0  0  0
 26 27  2  0  0  0  0
 28 31  1  0  0  0  0
 29 30  1  0  0  0  0
 29 32  2  0  0  0  0
 31 32  1  0  0  0  0
M  END
$$$$

 OpenBabel10082411353D

 32 36  0  0  0  0  0  0  0  0999 V2000
   12.7863    7.8241  -14.2109 C   0  0  0  0  0  0  0  0  0  0  0  0
   12.4233    7.7158  -13.0289 C   0  0  0  0  0  0  0  0  0  0  0  0
   12.9219    8.1949  -11.8668 C   0  0  0  0  0  0  0  0  0  0  0  0
   11.4275    6.6086  -12.7931 C   0  0  0  0  0  0  0  0  0  0  0  0
   10.3411    6.8404  -12.0679 C   0  0  0  0  0  0  0  0  0  0  0  0
   10.7226    7.4332  -10.7281 C   0  0  0  0  0  0  0  0  0  0  0  0
    9.0684    5.8539  -11.9851 C   0  0  0  0  0  0  0  0  0  0  0  0
    9.8080    7.4062   -9.6015 C   0  0  1  0  0  0  0  0  0  0  0  0
   11.9300    8.1400  -10.6702 C   0  0  0  0  0  0  0  0  0  0  0  0
   11.0289    6.0120  -14.2884 C   0  0  0  0  0  0  0  0  0  0  0  0
    9.9681    6.1425   -8.6941 C   0  0  0  0  0  0  0  0  0  0  0  0
   11.9646    6.5393  -15.2778 C   0  0  0  0  0  0  0  0  0  0  0  0
    9.7799    8.6458   -8.9051 C   0  0  0  0  0  0  0  0  0  0  0  0
   10.3186    4.8592  -14.6682 C   0  0  0  0  0  0  0  0  0  0  0  0
   10.2572    3.7867  -13.8865 C   0  0  1  0  0  0  0  0  0  0  0  0
    8.1840    6.1529  -12.9802 C   0  0  0  0  0  0  0  0  0  0  0  0
    8.9788    2.9888  -13.9279 C   0  0  0  0  0  0  0  0  0  0  0  0
   10.5404    8.5651   -7.5433 C   0  0  2  0  0  0  0  0  0  0  0  0
    9.1252    1.6963  -14.1301 O   0  0  0  0  0  0  0  0  0  0  0  0
    6.8473    5.4043  -12.6964 C   0  0  0  0  0  0  0  0  0  0  0  0
    7.8908    3.5177  -13.7211 N   0  0  0  0  0  0  0  0  0  0  0  0
   10.1332    7.5210   -6.6089 C   0  0  1  0  0  0  0  0  0  0  0  0
   11.5194    2.8993  -13.9918 C   0  0  0  0  0  0  0  0  0  0  0  0
   10.0708    6.2280   -7.2683 C   0  0  0  0  0  0  0  0  0  0  0  0
   11.1522    7.4502   -5.4668 C   0  0  1  0  0  0  0  0  0  0  0  0
    7.0710    3.6888  -12.6852 C   0  0  0  0  0  0  0  0  0  0  0  0
    8.8634    7.9716   -5.8899 C   0  0  0  0  0  0  0  0  0  0  0  0
   11.6672    8.7295   -5.0477 C   0  0  0  0  0  0  0  0  0  0  0  0
   12.8636    8.7968   -4.4088 C   0  0  0  0  0  0  0  0  0  0  0  0
   11.4313    9.7510   -6.2506 C   0  0  0  0  0  0  0  0  0  0  0  0
   10.6860    9.2904   -3.9014 C   0  0  0  0  0  0  0  0  0  0  0  0
   11.0789    6.4779   -4.5060 O   0  0  0  0  0  0  0  0  0  0  0  0
  1  2  1  0  0  0  0
  1 12  1  0  0  0  0
  2  3  1  0  0  0  0
  2  4  2  0  0  0  0
  3  9  2  0  0  0  0
  4  5  1  0  0  0  0
  4 10  1  0  0  0  0
  5  6  2  0  0  0  0
  5  7  1  0  0  0  0
  6  9  1  0  0  0  0
  7 16  1  0  0  0  0
  8  6  1  6  0  0  0
  8 11  1  0  0  0  0
  8 13  1  0  0  0  0
 10 12  2  0  0  0  0
 10 14  1  0  0  0  0
 11 24  1  0  0  0  0
 14 15  1  0  0  0  0
 15 17  1  0  0  0  0
 15 23  1  6  0  0  0
 16 20  1  0  0  0  0
 17 19  2  0  0  0  0
 17 21  1  0  0  0  0
 18 13  1  1  0  0  0
 18 22  1  0  0  0  0
 18 30  1  0  0  0  0
 20 26  1  0  0  0  0
 21 26  1  0  0  0  0
 22 24  1  0  0  0  0
 22 25  1  0  0  0  0
 22 27  1  1  0  0  0
 25 28  1  0  0  0  0
 25 32  1  1  0  0  0
 28 29  1  0  0  0  0
 28 30  1  0  0  0  0
 28 31  1  0  0  0  0
M  END
$$$$

 OpenBabel10082411353D

 32 34  0  0  0  0  0  0  0  0999 V2000
   13.4846    9.3979   -5.2029 C   0  0  0  0  0  0  0  0  0  0  0  0
   12.7871    9.3913   -6.3118 C   0  0  0  0  0  0  0  0  0  0  0  0
   11.3648    9.1424   -6.2947 C   0  0  0  0  0  0  0  0  0  0  0  0
   10.8726    9.0146   -5.0034 C   0  0  0  0  0  0  0  0  0  0  0  0
    9.3815    8.7865   -5.0373 F   0  0  0  0  0  0  0  0  0  0  0  0
   11.4703    9.0293   -3.8455 C   0  0  0  0  0  0  0  0  0  0  0  0
   10.7697    8.8716   -2.6325 F   0  0  0  0  0  0  0  0  0  0  0  0
   12.8710    9.2169   -3.9429 C   0  0  0  0  0  0  0  0  0  0  0  0
   10.4781    9.1384   -7.6682 C   0  0  0  0  0  0  0  0  0  0  0  0
   11.1390    9.1306   -8.8047 C   0  0  0  0  0  0  0  0  0  0  0  0
   10.8705    7.9638   -9.7397 C   0  0  0  0  0  0  0  0  0  0  0  0
   10.2908    8.0632  -10.8488 C   0  0  0  0  0  0  0  0  0  0  0  0
   10.4238    7.0375  -11.8282 C   0  0  0  0  0  0  0  0  0  0  0  0
    9.2433    8.9518  -11.2558 C   0  0  0  0  0  0  0  0  0  0  0  0
    8.5277    8.8707  -12.4031 C   0  0  0  0  0  0  0  0  0  0  0  0
    7.4469    9.8411  -12.5572 F   0  0  0  0  0  0  0  0  0  0  0  0
   11.4744    6.0391  -11.5746 F   0  0  0  0  0  0  0  0  0  0  0  0
    9.6702    6.8214  -12.9317 C   0  0  0  0  0  0  0  0  0  0  0  0
    8.6799    7.7103  -13.1556 C   0  0  0  0  0  0  0  0  0  0  0  0
    9.9658    5.5226  -13.9106 S   0  0  0  0  0  0  0  0  0  0  0  0
    9.5522    4.2345  -13.3909 N   0  0  0  0  0  0  0  0  0  0  0  0
    9.7602    2.9612  -13.9582 C   0  0  0  0  0  0  0  0  0  0  0  0
    8.8435    4.2192  -12.1237 C   0  0  0  0  0  0  0  0  0  0  0  0
   11.5109    5.6069  -14.1681 O   0  0  0  0  0  0  0  0  0  0  0  0
    9.2770    5.7015  -15.2294 O   0  0  0  0  0  0  0  0  0  0  0  0
    8.6976    2.2859  -14.4159 C   0  0  0  0  0  0  0  0  0  0  0  0
    8.8720    1.0249  -15.0373 C   0  0  0  0  0  0  0  0  0  0  0  0
   11.1008    2.6513  -14.3844 C   0  0  0  0  0  0  0  0  0  0  0  0
   12.2013    3.4372  -14.0327 F   0  0  0  0  0  0  0  0  0  0  0  0
    7.7318    0.2504  -15.4114 C   0  0  0  0  0  0  0  0  0  0  0  0
   10.1834    0.6546  -15.3613 C   0  0  0  0  0  0  0  0  0  0  0  0
   11.3090    1.5613  -15.0030 C   0  0  0  0  0  0  0  0  0  0  0  0
  1  2  1  0  0  0  0
  1  8  2  0  0  0  0
  2  3  2  0  0  0  0
  3  4  1  0  0  0  0
  3  9  1  0  0  0  0
  4  5  1  0  0  0  0
  4  6  2  0  0  0  0
  6  7  1  0  0  0  0
  6  8  1  0  0  0  0
  9 10  1  0  0  0  0
 10 11  1  0  0  0  0
 11 12  1  0  0  0  0
 12 13  2  0  0  0  0
 12 14  1  0  0  0  0
 13 17  1  0  0  0  0
 13 18  1  0  0  0  0
 14 15  2  0  0  0  0
 15 16  1  0  0  0  0
 15 19  1  0  0  0  0
 18 19  2  0  0  0  0
 18 20  1  0  0  0  0
 20 21  1  0  0  0  0
 20 24  2  0  0  0  0
 20 25  2  0  0  0  0
 21 22  1  0  0  0  0
 21 23  1  0  0  0  0
 22 26  2  0  0  0  0
 22 28  1  0  0  0  0
 26 27  1  0  0  0  0
 27 30  1  0  0  0  0
 27 31  2  0  0  0  0
 28 29  1  0  0  0  0
 28 32  2  0  0  0  0
 31 32  1  0  0  0  0
M  END
$$$$

 OpenBabel10082411353D

 32 36  0  0  0  0  0  0  0  0999 V2000
   11.6836    6.0105   -4.8831 C   0  0  0  0  0  0  0  0  0  0  0  0
   11.9279    6.9038   -3.8792 C   0  0  0  0  0  0  0  0  0  0  0  0
   11.9719    8.3126   -4.1286 C   0  0  0  0  0  0  0  0  0  0  0  0
   11.3811    6.5964   -6.0845 C   0  0  0  0  0  0  0  0  0  0  0  0
   11.0420    5.6445   -7.1434 C   0  0  1  0  0  0  0  0  0  0  0  0
   11.3536    7.9055   -6.3870 C   0  0  0  0  0  0  0  0  0  0  0  0
    9.8569    4.8089   -7.0560 C   0  0  0  0  0  0  0  0  0  0  0  0
   11.5991    8.8196   -5.3527 C   0  0  0  0  0  0  0  0  0  0  0  0
   11.5316   10.2233   -5.5794 F   0  0  0  0  0  0  0  0  0  0  0  0
   10.9798    8.5285   -7.6795 C   0  0  0  0  0  0  0  0  0  0  0  0
   10.6556    6.3745   -8.5461 C   0  0  0  0  0  0  0  0  0  0  0  0
    9.6410    3.9438   -8.1044 C   0  0  0  0  0  0  0  0  0  0  0  0
   11.0669    7.6169   -8.7871 N   0  0  0  0  0  0  0  0  0  0  0  0
    9.9214    5.7500   -9.4200 C   0  0  0  0  0  0  0  0  0  0  0  0
   12.1374    7.7991   -9.6010 C   0  0  0  0  0  0  0  0  0  0  0  0
   13.3966    8.0702   -9.2678 O   0  0  0  0  0  0  0  0  0  0  0  0
   11.9065    8.1067  -10.9940 C   0  0  0  0  0  0  0  0  0  0  0  0
   11.5891    6.9407  -11.8496 C   0  0  0  0  0  0  0  0  0  0  0  0
    9.6383    6.5905  -10.7511 C   0  0  0  0  0  0  0  0  0  0  0  0
   10.3417    6.3234  -11.9172 N   0  0  0  0  0  0  0  0  0  0  0  0
    9.1610    4.6231   -9.2679 C   0  0  0  0  0  0  0  0  0  0  0  0
   10.0460    5.1982  -12.4989 C   0  0  0  0  0  0  0  0  0  0  0  0
   10.8981    4.6542  -13.4877 C   0  0  0  0  0  0  0  0  0  0  0  0
   11.5282    5.4948  -14.3618 C   0  0  0  0  0  0  0  0  0  0  0  0
   10.9982    3.2780  -13.6504 C   0  0  0  0  0  0  0  0  0  0  0  0
    9.0509    4.4032  -12.0961 O   0  0  0  0  0  0  0  0  0  0  0  0
   12.2621    4.9986  -15.4659 C   0  0  0  0  0  0  0  0  0  0  0  0
   12.8750    5.9550  -16.3623 C   0  0  0  0  0  0  0  0  0  0  0  0
   10.3285    2.4003  -12.8513 F   0  0  0  0  0  0  0  0  0  0  0  0
   13.2181    7.2138  -15.8928 C   0  0  0  0  0  0  0  0  0  0  0  0
   12.1343    3.6262  -15.7607 C   0  0  0  0  0  0  0  0  0  0  0  0
   11.4917    2.7255  -14.8545 C   0  0  0  0  0  0  0  0  0  0  0  0
  1  2  1  0  0  0  0
  1  4  2  0  0  0  0
  2  3  2  0  0  0  0
  3  8  1  0  0  0  0
  4  5  1  0  0  0  0
  4  6  1  0  0  0  0
  5  7  1  1  0  0  0
  5 11  1  0  0  0  0
  6  8  2  0  0  0  0
  6 10  1  0  0  0  0
  7 12  1  0  0  0  0
  8  9  1  0  0  0  0
 10 13  1  0  0  0  0
 11 13  1  0  0  0  0
 11 14  2  0  0  0  0
 12 21  1  0  0  0  0
 13 15  1  0  0  0  0
 14 19  1  0  0  0  0
 14 21  1  0  0  0  0
 15 16  2  0  0  0  0
 15 17  1  0  0  0  0
 17 18  1  0  0  0  0
 18 20  1  0  0  0  0
 19 20  1  0  0  0  0
 20 22  1  0  0  0  0
 22 23  1  0  0  0  0
 22 26  2  0  0  0  0
 23 24  1  0  0  0  0
 23 25  2  0  0  0  0
 24 27  2  0  0  0  0
 25 29  1  0  0  0  0
 25 32  1  0  0  0  0
 27 28  1  0  0  0  0
 27 31  1  0  0  0  0
 28 30  2  0  0  0  0
 31 32  2  0  0  0  0
M  END
$$$$

 OpenBabel10082411353D

 32 33  0  0  0  0  0  0  0  0999 V2000
   10.9951    9.9694   -4.9946 C   0  0  0  0  0  0  0  0  0  0  0  0
   11.7938    9.3762   -4.2463 C   0  0  0  0  0  0  0  0  0  0  0  0
   10.8673    9.4548   -6.4276 C   0  0  0  0  0  0  0  0  0  0  0  0
   11.6576    7.9117   -4.2944 C   0  0  0  0  0  0  0  0  0  0  0  0
   10.5498    8.0257   -6.4521 C   0  0  0  0  0  0  0  0  0  0  0  0
   11.4715    7.2752   -5.6166 C   0  0  0  0  0  0  0  0  0  0  0  0
   10.5840    7.5390   -7.9254 C   0  0  0  0  0  0  0  0  0  0  0  0
   11.4612    8.1494   -8.8322 C   0  0  0  0  0  0  0  0  0  0  0  0
   12.6250    8.6294   -8.4338 O   0  0  0  0  0  0  0  0  0  0  0  0
   11.0835    8.4395  -10.0740 O   0  0  0  0  0  0  0  0  0  0  0  0
   11.2938    7.5612  -11.0769 C   0  0  0  0  0  0  0  0  0  0  0  0
   10.1547    7.2525  -11.9492 C   0  0  0  0  0  0  0  0  0  0  0  0
   10.4293    6.5622  -13.1348 C   0  0  0  0  0  0  0  0  0  0  0  0
   11.7295    6.4217  -13.6243 C   0  0  0  0  0  0  0  0  0  0  0  0
    8.8120    7.3918  -11.4649 C   0  0  0  0  0  0  0  0  0  0  0  0
   12.5351    7.8894  -11.6869 C   0  0  0  0  0  0  0  0  0  0  0  0
   13.5778    8.4243  -10.9673 O   0  0  0  0  0  0  0  0  0  0  0  0
    7.7211    7.1761  -12.4323 C   0  0  0  0  0  0  0  0  0  0  0  0
   12.8103    7.0723  -12.8897 C   0  0  0  0  0  0  0  0  0  0  0  0
    7.0543    5.9667  -12.3369 C   0  0  0  0  0  0  0  0  0  0  0  0
    7.2392    8.1844  -13.1320 C   0  0  0  0  0  0  0  0  0  0  0  0
    6.6882    5.3848  -13.5016 O   0  0  0  0  0  0  0  0  0  0  0  0
    6.5103    5.5543  -11.3870 O   0  0  0  0  0  0  0  0  0  0  0  0
    7.4031    4.0506  -13.7852 C   0  0  2  0  0  0  0  0  0  0  0  0
    8.6811    3.9966  -14.1333 C   0  0  0  0  0  0  0  0  0  0  0  0
   12.0732    5.6649  -14.9357 C   0  0  0  0  0  0  0  0  0  0  0  0
    6.5833    2.9970  -14.2590 C   0  0  0  0  0  0  0  0  0  0  0  0
   12.1769    6.3888  -15.9096 O   0  0  0  0  0  0  0  0  0  0  0  0
   12.3719    4.4123  -14.9068 N   0  0  0  0  0  0  0  0  0  0  0  0
   12.5762    3.6738  -16.0392 C   0  0  0  0  0  0  0  0  0  0  0  0
    9.5059    3.0452  -13.4429 C   0  0  0  0  0  0  0  0  0  0  0  0
   10.7044    2.7084  -13.9164 O   0  0  0  0  0  0  0  0  0  0  0  0
  1  2  1  0  0  0  0
  1  3  1  0  0  0  0
  2  4  1  0  0  0  0
  3  5  1  0  0  0  0
  4  6  1  0  0  0  0
  5  6  1  0  0  0  0
  5  7  1  0  0  0  0
  7  8  1  0  0  0  0
  8  9  2  0  0  0  0
  8 10  1  0  0  0  0
 10 11  1  0  0  0  0
 11 12  1  0  0  0  0
 11 16  2  0  0  0  0
 12 13  2  0  0  0  0
 12 15  1  0  0  0  0
 13 14  1  0  0  0  0
 14 19  2  0  0  0  0
 14 26  1  0  0  0  0
 15 18  1  0  0  0  0
 16 17  1  0  0  0  0
 16 19  1  0  0  0  0
 18 20  1  0  0  0  0
 18 21  2  0  0  0  0
 20 22  1  0  0  0  0
 20 23  2  0  0  0  0
 22 24  1  0  0  0  0
 24 25  1  0  0  0  0
 24 27  1  6  0  0  0
 25 31  1  0  0  0  0
 26 28  2  0  0  0  0
 26 29  1  0  0  0  0
 29 30  1  0  0  0  0
 31 32  2  0  0  0  0
M  END
$$$$

 OpenBabel10082411353D

 32 34  0  0  0  0  0  0  0  0999 V2000
   10.9951    9.9694   -4.9946 C   0  0  0  0  0  0  0  0  0  0  0  0
   11.7938    9.3762   -4.2463 C   0  0  0  0  0  0  0  0  0  0  0  0
   10.8673    9.4548   -6.4276 C   0  0  0  0  0  0  0  0  0  0  0  0
   11.6576    7.9117   -4.2944 C   0  0  0  0  0  0  0  0  0  0  0  0
   10.5498    8.0257   -6.4521 C   0  0  0  0  0  0  0  0  0  0  0  0
   11.4715    7.2752   -5.6166 C   0  0  0  0  0  0  0  0  0  0  0  0
   10.5840    7.5390   -7.9254 C   0  0  0  0  0  0  0  0  0  0  0  0
   11.4612    8.1494   -8.8322 C   0  0  0  0  0  0  0  0  0  0  0  0
   12.6250    8.6294   -8.4338 O   0  0  0  0  0  0  0  0  0  0  0  0
   11.0835    8.4395  -10.0740 O   0  0  0  0  0  0  0  0  0  0  0  0
   11.2938    7.5612  -11.0769 C   0  0  0  0  0  0  0  0  0  0  0  0
   10.1547    7.2525  -11.9492 C   0  0  0  0  0  0  0  0  0  0  0  0
   10.4293    6.5622  -13.1348 C   0  0  0  0  0  0  0  0  0  0  0  0
   11.7295    6.4217  -13.6243 C   0  0  0  0  0  0  0  0  0  0  0  0
    8.8120    7.3918  -11.4649 C   0  0  0  0  0  0  0  0  0  0  0  0
   12.5351    7.8894  -11.6869 C   0  0  0  0  0  0  0  0  0  0  0  0
   13.5778    8.4243  -10.9673 O   0  0  0  0  0  0  0  0  0  0  0  0
    7.7211    7.1761  -12.4323 C   0  0  0  0  0  0  0  0  0  0  0  0
   12.8103    7.0723  -12.8897 C   0  0  0  0  0  0  0  0  0  0  0  0
    7.0543    5.9667  -12.3369 C   0  0  0  0  0  0  0  0  0  0  0  0
    7.2392    8.1844  -13.1320 C   0  0  0  0  0  0  0  0  0  0  0  0
    6.6882    5.3848  -13.5016 O   0  0  0  0  0  0  0  0  0  0  0  0
    6.5103    5.5543  -11.3870 O   0  0  0  0  0  0  0  0  0  0  0  0
    6.2207    3.9777  -13.2572 C   0  0  0  0  0  0  0  0  0  0  0  0
   12.0582    5.6070  -14.9443 C   0  0  0  0  0  0  0  0  0  0  0  0
   11.9052    4.2756  -14.8803 C   0  0  0  0  0  0  0  0  0  0  0  0
   10.9395    3.6103  -15.4919 N   0  0  0  0  0  0  0  0  0  0  0  0
   12.5389    3.7388  -14.0413 O   0  0  0  0  0  0  0  0  0  0  0  0
   10.7891    2.1469  -15.4128 C   0  0  0  0  0  0  0  0  0  0  0  0
    9.5940    1.8360  -14.4670 C   0  0  0  0  0  0  0  0  0  0  0  0
    7.3119    2.9570  -13.5325 C   0  0  0  0  0  0  0  0  0  0  0  0
    8.3920    3.1262  -14.4086 C   0  0  0  0  0  0  0  0  0  0  0  0
  1  2  1  0  0  0  0
  1  3  1  0  0  0  0
  2  4  1  0  0  0  0
  3  5  1  0  0  0  0
  4  6  1  0  0  0  0
  5  6  1  0  0  0  0
  5  7  1  0  0  0  0
  7  8  1  0  0  0  0
  8  9  2  0  0  0  0
  8 10  1  0  0  0  0
 10 11  1  0  0  0  0
 11 12  1  0  0  0  0
 11 16  2  0  0  0  0
 12 13  2  0  0  0  0
 12 15  1  0  0  0  0
 13 14  1  0  0  0  0
 14 19  2  0  0  0  0
 14 25  1  0  0  0  0
 15 18  1  0  0  0  0
 16 17  1  0  0  0  0
 16 19  1  0  0  0  0
 18 20  1  0  0  0  0
 18 21  2  0  0  0  0
 20 22  1  0  0  0  0
 20 23  2  0  0  0  0
 22 24  1  0  0  0  0
 24 31  1  0  0  0  0
 25 26  1  0  0  0  0
 26 27  1  0  0  0  0
 26 28  2  0  0  0  0
 27 29  1  0  0  0  0
 29 30  1  0  0  0  0
 30 32  1  0  0  0  0
 31 32  1  0  0  0  0
M  END
$$$$

 OpenBabel10082411353D

 32 34  0  0  0  0  0  0  0  0999 V2000
   13.2485    9.2493   -6.3668 O   0  0  0  0  0  0  0  0  0  0  0  0
   11.8899    9.2134   -6.2448 C   0  0  2  0  0  0  0  0  0  0  0  0
   11.2917    8.4721   -7.1451 C   0  0  2  0  0  0  0  0  0  0  0  0
   11.1607   10.4722   -6.0470 C   0  0  0  0  0  0  0  0  0  0  0  0
   11.8942    8.2744   -4.8861 C   0  0  1  0  0  0  0  0  0  0  0  0
   12.6962    8.6810   -3.7632 C   0  0  0  0  0  0  0  0  0  0  0  0
   10.5733    7.9819   -4.4741 O   0  0  0  0  0  0  0  0  0  0  0  0
   12.2118    6.9274   -5.0046 C   0  0  0  0  0  0  0  0  0  0  0  0
   11.4062    7.0803   -7.3138 C   0  0  1  0  0  0  0  0  0  0  0  0
   11.6893    9.1493   -8.4831 O   0  0  0  0  0  0  0  0  0  0  0  0
   11.3707    6.2717   -6.1614 C   0  0  0  0  0  0  0  0  0  0  0  0
   10.2564    6.5939   -8.3321 C   0  0  0  0  0  0  0  0  0  0  0  0
   10.4218    6.4667   -9.6182 C   0  0  0  0  0  0  0  0  0  0  0  0
    9.0449    6.2933   -7.8128 C   0  0  0  0  0  0  0  0  0  0  0  0
   11.5623    6.9616  -10.3788 C   0  0  0  0  0  0  0  0  0  0  0  0
    9.1836    6.0871  -10.1212 C   0  0  0  0  0  0  0  0  0  0  0  0
    8.3594    5.8680   -8.9980 N   0  0  0  0  0  0  0  0  0  0  0  0
    8.9634    5.7685  -11.5222 C   0  0  0  0  0  0  0  0  0  0  0  0
    9.9387    6.2140  -12.4284 C   0  0  0  0  0  0  0  0  0  0  0  0
   11.2531    6.8246  -11.9916 C   0  0  0  0  0  0  0  0  0  0  0  0
   12.2137    7.2131  -12.9706 C   0  0  0  0  0  0  0  0  0  0  0  0
    7.7583    5.2325  -11.8353 C   0  0  0  0  0  0  0  0  0  0  0  0
   11.9530    7.0918  -14.3342 C   0  0  0  0  0  0  0  0  0  0  0  0
    7.8032    4.3774  -13.0353 N   0  0  0  0  0  0  0  0  0  0  0  0
    6.7267    5.4406  -11.2899 O   0  0  0  0  0  0  0  0  0  0  0  0
    8.9854    3.9863  -13.7176 C   0  0  0  0  0  0  0  0  0  0  0  0
    6.5146    3.7830  -13.4329 C   0  0  0  0  0  0  0  0  0  0  0  0
    6.4313    2.3027  -12.9333 C   0  0  0  0  0  0  0  0  0  0  0  0
    9.4261    4.8643  -14.5927 O   0  0  0  0  0  0  0  0  0  0  0  0
    9.4412    2.7657  -13.5549 O   0  0  0  0  0  0  0  0  0  0  0  0
   10.7311    2.4339  -13.8281 C   0  0  0  0  0  0  0  0  0  0  0  0
   13.3118    7.8311  -12.5312 O   0  0  0  0  0  0  0  0  0  0  0  0
  1  2  1  0  0  0  0
  2  3  1  0  0  0  0
  2  4  1  1  0  0  0
  2  5  1  0  0  0  0
  3  9  1  0  0  0  0
  3 10  1  6  0  0  0
  5  6  1  1  0  0  0
  5  7  1  0  0  0  0
  5  8  1  0  0  0  0
  8 11  1  0  0  0  0
  9 11  1  0  0  0  0
  9 12  1  6  0  0  0
 12 13  1  0  0  0  0
 12 14  2  0  0  0  0
 13 15  1  0  0  0  0
 13 16  2  0  0  0  0
 14 17  1  0  0  0  0
 15 20  2  0  0  0  0
 16 17  1  0  0  0  0
 16 18  1  0  0  0  0
 18 19  2  0  0  0  0
 18 22  1  0  0  0  0
 19 20  1  0  0  0  0
 20 21  1  0  0  0  0
 21 23  1  0  0  0  0
 21 32  2  0  0  0  0
 22 24  1  0  0  0  0
 22 25  2  0  0  0  0
 24 26  1  0  0  0  0
 24 27  1  0  0  0  0
 26 29  2  0  0  0  0
 26 30  1  0  0  0  0
 27 28  1  0  0  0  0
 30 31  1  0  0  0  0
M  END
$$$$

 OpenBabel10082411353D

 32 35  0  0  0  0  0  0  0  0999 V2000
   11.6836    6.0105   -4.8831 C   0  0  0  0  0  0  0  0  0  0  0  0
   11.1291    7.0732   -5.4395 C   0  0  0  0  0  0  0  0  0  0  0  0
   10.6954    7.0156   -6.8073 C   0  0  0  0  0  0  0  0  0  0  0  0
   10.2502    8.1187   -7.5536 C   0  0  2  0  0  0  0  0  0  0  0  0
   11.1205    8.4712   -4.9629 C   0  0  0  0  0  0  0  0  0  0  0  0
   10.8655    8.3511   -8.7960 C   0  0  0  0  0  0  0  0  0  0  0  0
   10.2922    7.8843   -9.9985 C   0  0  0  0  0  0  0  0  0  0  0  0
   10.4654    9.6993   -5.6120 C   0  0  0  0  0  0  0  0  0  0  0  0
   10.3510    9.5971   -7.0014 C   0  0  0  0  0  0  0  0  0  0  0  0
   12.2462    6.3351   -3.5020 C   0  0  0  0  0  0  0  0  0  0  0  0
   11.0471    7.5309  -11.1063 C   0  0  0  0  0  0  0  0  0  0  0  0
   11.7288    8.6923   -3.6518 C   0  0  0  0  0  0  0  0  0  0  0  0
   12.3991    7.7501  -11.1145 C   0  0  0  0  0  0  0  0  0  0  0  0
   12.3738    7.7580   -2.9599 C   0  0  0  0  0  0  0  0  0  0  0  0
   13.1285    8.5075  -10.1661 O   0  0  0  0  0  0  0  0  0  0  0  0
    9.0407    7.3775  -10.0973 N   0  0  0  0  0  0  0  0  0  0  0  0
    8.9787    6.9473  -11.4664 N   0  0  0  0  0  0  0  0  0  0  0  0
   13.1486    7.4839  -12.3563 C   0  0  0  0  0  0  0  0  0  0  0  0
   10.2774    6.9211  -12.0258 C   0  0  0  0  0  0  0  0  0  0  0  0
    7.7103    6.4336  -11.9664 C   0  0  0  0  0  0  0  0  0  0  0  0
   12.3181    6.9212  -13.3802 C   0  0  0  0  0  0  0  0  0  0  0  0
   12.9543    6.5895  -14.6358 O   0  0  0  0  0  0  0  0  0  0  0  0
   10.9162    6.6353  -13.2980 C   0  0  0  0  0  0  0  0  0  0  0  0
    7.7682    4.9539  -12.3144 C   0  0  0  0  0  0  0  0  0  0  0  0
   12.5567    5.5127  -15.3192 C   0  0  0  0  0  0  0  0  0  0  0  0
    6.7187    7.1761  -12.3365 C   0  0  0  0  0  0  0  0  0  0  0  0
    6.6912    4.3470  -12.8055 C   0  0  0  0  0  0  0  0  0  0  0  0
    6.7602    8.6758  -12.1854 C   0  0  0  0  0  0  0  0  0  0  0  0
    6.5993    2.9367  -13.0421 C   0  0  0  0  0  0  0  0  0  0  0  0
    7.5837    2.3031  -13.8312 C   0  0  0  0  0  0  0  0  0  0  0  0
    7.4547    0.9341  -14.1376 C   0  0  0  0  0  0  0  0  0  0  0  0
    8.9804    2.7784  -13.9789 C   0  0  0  0  0  0  0  0  0  0  0  0
  1  2  1  0  0  0  0
  1 10  2  0  0  0  0
  2  3  1  0  0  0  0
  2  5  2  0  0  0  0
  3  4  1  0  0  0  0
  4  6  1  6  0  0  0
  4  9  1  0  0  0  0
  5  8  1  0  0  0  0
  5 12  1  0  0  0  0
  6  7  1  0  0  0  0
  7 11  1  0  0  0  0
  7 16  2  0  0  0  0
  8  9  1  0  0  0  0
 10 14  1  0  0  0  0
 11 13  2  0  0  0  0
 11 19  1  0  0  0  0
 12 14  2  0  0  0  0
 13 15  1  0  0  0  0
 13 18  1  0  0  0  0
 16 17  1  0  0  0  0
 17 19  1  0  0  0  0
 17 20  1  0  0  0  0
 18 21  2  0  0  0  0
 19 23  2  0  0  0  0
 20 24  1  0  0  0  0
 20 26  2  3  0  0  0
 21 22  1  0  0  0  0
 21 23  1  0  0  0  0
 22 25  1  0  0  0  0
 24 27  2  3  0  0  0
 26 28  1  0  0  0  0
 27 29  1  0  0  0  0
 29 30  2  0  0  0  0
 30 31  1  0  0  0  0
 30 32  1  0  0  0  0
M  END
$$$$

 OpenBabel10082411353D

 32 38  0  0  0  0  0  0  0  0999 V2000
   13.1862    9.4584   -4.4987 C   0  0  0  0  0  0  0  0  0  0  0  0
   12.1466    8.8379   -3.9099 C   0  0  0  0  0  0  0  0  0  0  0  0
   12.9882    9.7409   -5.8618 C   0  0  0  0  0  0  0  0  0  0  0  0
   11.9761    9.3177   -6.5889 C   0  0  0  0  0  0  0  0  0  0  0  0
   10.9346    8.5066   -5.9096 C   0  0  0  0  0  0  0  0  0  0  0  0
   12.2569    8.5495   -2.4516 C   0  0  0  0  0  0  0  0  0  0  0  0
   11.0697    8.2577   -4.5299 C   0  0  0  0  0  0  0  0  0  0  0  0
   11.7350    9.5912   -7.9371 O   0  0  0  0  0  0  0  0  0  0  0  0
    9.7397    8.0780   -6.6393 C   0  0  0  0  0  0  0  0  0  0  0  0
   10.8649    8.8162   -8.5483 C   0  0  0  0  0  0  0  0  0  0  0  0
    9.2400    6.9866   -6.2549 O   0  0  0  0  0  0  0  0  0  0  0  0
   10.8576    9.1019   -9.9991 C   0  0  1  0  0  0  0  0  0  0  0  0
    9.7545    8.2308   -7.9658 N   0  0  0  0  0  0  0  0  0  0  0  0
   11.8976    8.3673  -10.5997 C   0  0  0  0  0  0  0  0  0  0  0  0
   11.6687    7.6743  -11.8116 C   0  0  0  0  0  0  0  0  0  0  0  0
   10.4759    7.1713  -12.1199 C   0  0  0  0  0  0  0  0  0  0  0  0
    9.2658    7.5505  -11.5870 C   0  0  0  0  0  0  0  0  0  0  0  0
    9.3960    8.5265  -10.3465 C   0  0  0  0  0  0  0  0  0  0  0  0
   10.3867    6.1959  -13.1101 C   0  0  0  0  0  0  0  0  0  0  0  0
   12.6748    7.0682  -12.6078 N   0  0  0  0  0  0  0  0  0  0  0  0
    8.0007    7.2083  -12.0491 C   0  0  0  0  0  0  0  0  0  0  0  0
   11.5794    6.1529  -13.7240 N   0  0  0  0  0  0  0  0  0  0  0  0
    9.1443    5.7122  -13.5791 C   0  0  0  0  0  0  0  0  0  0  0  0
    7.9712    6.1359  -12.9896 C   0  0  0  0  0  0  0  0  0  0  0  0
    9.0687    4.6447  -14.6004 C   0  0  2  0  0  0  0  0  0  0  0  0
    8.9962    3.2747  -14.1231 C   0  0  0  0  0  0  0  0  0  0  0  0
   12.2735    5.1668  -14.4206 C   0  0  0  0  0  0  0  0  0  0  0  0
   10.2937    2.5477  -14.3858 C   0  0  0  0  0  0  0  0  0  0  0  0
   10.1903    1.2879  -14.7049 O   0  0  0  0  0  0  0  0  0  0  0  0
   11.4313    3.0454  -14.5050 N   0  0  0  0  0  0  0  0  0  0  0  0
   11.4495    4.2783  -14.9828 C   0  0  1  0  0  0  0  0  0  0  0  0
   10.2018    5.0241  -15.1895 O   0  0  0  0  0  0  0  0  0  0  0  0
  1  2  1  0  0  0  0
  1  3  2  0  0  0  0
  2  6  1  0  0  0  0
  2  7  2  0  0  0  0
  3  4  1  0  0  0  0
  4  5  2  0  0  0  0
  4  8  1  0  0  0  0
  5  7  1  0  0  0  0
  5  9  1  0  0  0  0
  8 10  1  0  0  0  0
  9 11  2  0  0  0  0
  9 13  1  0  0  0  0
 10 13  2  0  0  0  0
 12 10  1  1  0  0  0
 12 14  1  0  0  0  0
 12 18  1  0  0  0  0
 14 15  1  0  0  0  0
 15 16  1  0  0  0  0
 15 20  2  0  0  0  0
 16 17  1  0  0  0  0
 16 19  2  0  0  0  0
 17 18  1  0  0  0  0
 17 21  2  0  0  0  0
 19 22  1  0  0  0  0
 19 23  1  0  0  0  0
 20 22  1  0  0  0  0
 21 24  1  0  0  0  0
 22 27  1  0  0  0  0
 23 24  2  0  0  0  0
 23 25  1  0  0  0  0
 25 26  1  1  0  0  0
 25 32  1  0  0  0  0
 26 28  1  0  0  0  0
 28 29  2  0  0  0  0
 28 30  1  0  0  0  0
 30 31  1  0  0  0  0
 31 27  1  1  0  0  0
 31 32  1  0  0  0  0
M  END
$$$$

 OpenBabel10082411353D

 32 36  0  0  0  0  0  0  0  0999 V2000
   12.7863    7.8241  -14.2109 C   0  0  0  0  0  0  0  0  0  0  0  0
   12.4233    7.7158  -13.0289 C   0  0  0  0  0  0  0  0  0  0  0  0
   12.9219    8.1949  -11.8668 C   0  0  0  0  0  0  0  0  0  0  0  0
   11.4275    6.6086  -12.7931 C   0  0  0  0  0  0  0  0  0  0  0  0
   10.3411    6.8404  -12.0679 C   0  0  0  0  0  0  0  0  0  0  0  0
   10.7226    7.4332  -10.7281 C   0  0  0  0  0  0  0  0  0  0  0  0
    9.0684    5.8539  -11.9851 C   0  0  0  0  0  0  0  0  0  0  0  0
    9.8080    7.4062   -9.6015 C   0  0  1  0  0  0  0  0  0  0  0  0
   11.9300    8.1400  -10.6702 C   0  0  0  0  0  0  0  0  0  0  0  0
   11.0289    6.0120  -14.2884 C   0  0  0  0  0  0  0  0  0  0  0  0
    9.9681    6.1425   -8.6941 C   0  0  0  0  0  0  0  0  0  0  0  0
   11.9646    6.5393  -15.2778 C   0  0  0  0  0  0  0  0  0  0  0  0
    9.7799    8.6458   -8.9051 C   0  0  0  0  0  0  0  0  0  0  0  0
   10.3186    4.8592  -14.6682 C   0  0  0  0  0  0  0  0  0  0  0  0
   10.2572    3.7867  -13.8865 C   0  0  1  0  0  0  0  0  0  0  0  0
    8.1840    6.1529  -12.9802 C   0  0  0  0  0  0  0  0  0  0  0  0
    8.9788    2.9888  -13.9279 C   0  0  0  0  0  0  0  0  0  0  0  0
   10.5404    8.5651   -7.5433 C   0  0  2  0  0  0  0  0  0  0  0  0
    9.1252    1.6963  -14.1301 O   0  0  0  0  0  0  0  0  0  0  0  0
    6.8473    5.4043  -12.6964 C   0  0  0  0  0  0  0  0  0  0  0  0
    7.8908    3.5177  -13.7211 N   0  0  0  0  0  0  0  0  0  0  0  0
   10.1332    7.5210   -6.6089 C   0  0  1  0  0  0  0  0  0  0  0  0
   11.5194    2.8993  -13.9918 C   0  0  0  0  0  0  0  0  0  0  0  0
   10.0708    6.2280   -7.2683 C   0  0  0  0  0  0  0  0  0  0  0  0
   11.1522    7.4502   -5.4668 C   0  0  1  0  0  0  0  0  0  0  0  0
    8.7267    8.0207   -6.1476 C   0  0  0  0  0  0  0  0  0  0  0  0
    7.1544    3.8785  -12.6440 C   0  0  0  0  0  0  0  0  0  0  0  0
   11.6234    8.8194   -5.0993 C   0  0  0  0  0  0  0  0  0  0  0  0
   12.8158    9.0196   -4.3373 C   0  0  0  0  0  0  0  0  0  0  0  0
   10.4684    9.6753   -4.4820 C   0  0  0  0  0  0  0  0  0  0  0  0
   11.3835    9.4780   -6.6976 C   0  0  0  0  0  0  0  0  0  0  0  0
   10.7747    6.8132   -4.1862 C   0  0  0  0  0  0  0  0  0  0  0  0
  1  2  1  0  0  0  0
  1 12  1  0  0  0  0
  2  3  1  0  0  0  0
  2  4  2  0  0  0  0
  3  9  2  0  0  0  0
  4  5  1  0  0  0  0
  4 10  1  0  0  0  0
  5  6  2  0  0  0  0
  5  7  1  0  0  0  0
  6  9  1  0  0  0  0
  7 16  1  0  0  0  0
  8  6  1  6  0  0  0
  8 11  1  0  0  0  0
  8 13  1  0  0  0  0
 10 12  2  0  0  0  0
 10 14  1  0  0  0  0
 11 24  1  0  0  0  0
 14 15  1  0  0  0  0
 15 17  1  0  0  0  0
 15 23  1  6  0  0  0
 16 20  1  0  0  0  0
 17 19  2  0  0  0  0
 17 21  1  0  0  0  0
 18 13  1  1  0  0  0
 18 22  1  0  0  0  0
 18 31  1  0  0  0  0
 20 27  1  0  0  0  0
 21 27  1  0  0  0  0
 22 24  1  0  0  0  0
 22 25  1  0  0  0  0
 22 26  1  1  0  0  0
 25 28  1  0  0  0  0
 25 32  1  1  0  0  0
 28 29  1  0  0  0  0
 28 30  1  0  0  0  0
 28 31  1  0  0  0  0
M  END
$$$$

 OpenBabel10082411353D

 21 23  0  0  0  0  0  0  0  0999 V2000
   13.2379    9.0584   -7.2681 C   0  0  0  0  0  0  0  0  0  0  0  0
   12.9396    9.3022   -5.9810 C   0  0  0  0  0  0  0  0  0  0  0  0
   12.1602    8.6694   -7.9361 C   0  0  0  0  0  0  0  0  0  0  0  0
   14.0320    9.7504   -5.0711 F   0  0  0  0  0  0  0  0  0  0  0  0
   10.9536    8.4526   -7.1212 C   0  0  1  0  0  0  0  0  0  0  0  0
   12.1901    8.3365   -9.3972 C   0  0  0  0  0  0  0  0  0  0  0  0
   11.0443    7.8367  -10.0430 C   0  0  0  0  0  0  0  0  0  0  0  0
   11.0471    8.9348   -5.8250 C   0  0  1  0  0  0  0  0  0  0  0  0
    9.5270    7.9533   -7.4234 C   0  0  2  0  0  0  0  0  0  0  0  0
    9.7802    8.7666   -5.0086 F   0  0  0  0  0  0  0  0  0  0  0  0
   11.9790    9.3452   -5.1373 C   0  0  0  0  0  0  0  0  0  0  0  0
    9.1878    6.9159   -6.7141 C   0  0  0  0  0  0  0  0  0  0  0  0
    9.5656    7.6242   -9.0101 C   0  0  2  0  0  0  0  0  0  0  0  0
    8.3077    6.0223   -7.3397 O   0  0  0  0  0  0  0  0  0  0  0  0
    9.5098    6.1454   -9.4071 C   0  0  0  0  0  0  0  0  0  0  0  0
    8.3994    5.5390   -8.6171 C   0  0  0  0  0  0  0  0  0  0  0  0
   10.8655    7.6135  -11.2894 C   0  0  0  0  0  0  0  0  0  0  0  0
   11.9816    7.4054  -12.0204 C   0  0  0  0  0  0  0  0  0  0  0  0
   11.9216    7.0919  -13.4525 C   0  0  0  0  0  0  0  0  0  0  0  0
   12.6570    7.8778  -14.3012 C   0  0  0  0  0  0  0  0  0  0  0  0
   12.6084    7.4238  -15.7716 C   0  0  0  0  0  0  0  0  0  0  0  0
  1  2  1  0  0  0  0
  1  3  2  0  0  0  0
  2  4  1  0  0  0  0
  2 11  2  0  0  0  0
  3  6  1  0  0  0  0
  5  3  1  6  0  0  0
  5  8  1  0  0  0  0
  5  9  1  0  0  0  0
  6  7  2  0  0  0  0
  7 13  1  0  0  0  0
  7 17  1  0  0  0  0
  8 10  1  1  0  0  0
  8 11  1  0  0  0  0
  9 12  1  1  0  0  0
  9 13  1  0  0  0  0
 12 14  1  0  0  0  0
 13 15  1  1  0  0  0
 14 16  1  0  0  0  0
 15 16  1  0  0  0  0
 17 18  2  3  0  0  0
 18 19  1  0  0  0  0
 19 20  2  3  0  0  0
 20 21  1  0  0  0  0
M  END
$$$$

 OpenBabel10082411353D

 32 36  0  0  0  0  0  0  0  0999 V2000
   11.6836    6.0105   -4.8831 C   0  0  0  0  0  0  0  0  0  0  0  0
   11.1291    7.0732   -5.4395 C   0  0  0  0  0  0  0  0  0  0  0  0
   10.6954    7.0156   -6.8073 C   0  0  0  0  0  0  0  0  0  0  0  0
   10.2502    8.1187   -7.5536 C   0  0  2  0  0  0  0  0  0  0  0  0
   11.1205    8.4712   -4.9629 C   0  0  0  0  0  0  0  0  0  0  0  0
   10.8655    8.3511   -8.7960 C   0  0  0  0  0  0  0  0  0  0  0  0
   10.2922    7.8843   -9.9985 C   0  0  0  0  0  0  0  0  0  0  0  0
   10.4654    9.6993   -5.6120 C   0  0  0  0  0  0  0  0  0  0  0  0
   10.3510    9.5971   -7.0014 C   0  0  0  0  0  0  0  0  0  0  0  0
   12.2462    6.3351   -3.5020 C   0  0  0  0  0  0  0  0  0  0  0  0
   11.0471    7.5309  -11.1063 C   0  0  0  0  0  0  0  0  0  0  0  0
   11.7288    8.6923   -3.6518 C   0  0  0  0  0  0  0  0  0  0  0  0
   12.3991    7.7501  -11.1145 C   0  0  0  0  0  0  0  0  0  0  0  0
   12.3738    7.7580   -2.9599 C   0  0  0  0  0  0  0  0  0  0  0  0
   13.1285    8.5075  -10.1661 O   0  0  0  0  0  0  0  0  0  0  0  0
    9.0407    7.3775  -10.0973 N   0  0  0  0  0  0  0  0  0  0  0  0
    8.9787    6.9473  -11.4664 N   0  0  0  0  0  0  0  0  0  0  0  0
   13.1012    7.4459  -12.3707 C   0  0  0  0  0  0  0  0  0  0  0  0
   12.2395    6.9724  -13.2444 C   0  0  0  0  0  0  0  0  0  0  0  0
   10.2768    7.0170  -11.9799 C   0  0  0  0  0  0  0  0  0  0  0  0
    7.8073    6.9028  -12.1886 C   0  0  2  0  0  0  0  0  0  0  0  0
   10.8782    6.7325  -13.1253 C   0  0  0  0  0  0  0  0  0  0  0  0
    7.0194    7.9782  -12.2466 C   0  0  0  0  0  0  0  0  0  0  0  0
    7.2856    5.6605  -11.9799 C   0  0  0  0  0  0  0  0  0  0  0  0
    7.3493    4.6562  -13.0783 C   0  0  2  0  0  0  0  0  0  0  0  0
    6.7613    3.4938  -12.8195 C   0  0  0  0  0  0  0  0  0  0  0  0
    8.7500    4.5302  -13.3739 O   0  0  0  0  0  0  0  0  0  0  0  0
    9.1045    3.4685  -14.2177 C   0  0  2  0  0  0  0  0  0  0  0  0
    7.0862    2.3354  -13.8303 C   0  0  0  0  0  0  0  0  0  0  0  0
    8.5446    2.2099  -13.8756 C   0  0  0  0  0  0  0  0  0  0  0  0
   10.7608    3.3417  -14.2021 C   0  0  0  0  0  0  0  0  0  0  0  0
   11.4035    3.2906  -15.3470 O   0  0  0  0  0  0  0  0  0  0  0  0
  1  2  1  0  0  0  0
  1 10  2  0  0  0  0
  2  3  1  0  0  0  0
  2  5  2  0  0  0  0
  3  4  1  0  0  0  0
  4  6  1  6  0  0  0
  4  9  1  0  0  0  0
  5  8  1  0  0  0  0
  5 12  1  0  0  0  0
  6  7  1  0  0  0  0
  7 11  1  0  0  0  0
  7 16  2  0  0  0  0
  8  9  1  0  0  0  0
 10 14  1  0  0  0  0
 11 13  2  0  0  0  0
 11 20  1  0  0  0  0
 12 14  2  0  0  0  0
 13 15  1  0  0  0  0
 13 18  1  0  0  0  0
 16 17  1  0  0  0  0
 17 20  1  0  0  0  0
 17 21  1  0  0  0  0
 18 19  2  0  0  0  0
 19 22  1  0  0  0  0
 20 22  2  0  0  0  0
 21 23  1  1  0  0  0
 21 24  1  0  0  0  0
 25 24  1  1  0  0  0
 25 26  1  0  0  0  0
 25 27  1  0  0  0  0
 26 29  1  0  0  0  0
 27 28  1  0  0  0  0
 28 30  1  0  0  0  0
 28 31  1  1  0  0  0
 29 30  1  0  0  0  0
 31 32  1  0  0  0  0
M  END
$$$$

 OpenBabel10082411353D

 32 35  0  0  0  0  0  0  0  0999 V2000
   13.2485    9.2493   -6.3668 O   0  0  0  0  0  0  0  0  0  0  0  0
   12.3055    9.1779   -7.4488 C   0  0  1  0  0  0  0  0  0  0  0  0
   12.5005    8.1033   -8.2440 C   0  0  0  0  0  0  0  0  0  0  0  0
   11.7072    8.0925   -9.4886 C   0  0  0  0  0  0  0  0  0  0  0  0
   12.2659    7.9483  -10.6668 C   0  0  0  0  0  0  0  0  0  0  0  0
   10.2869    8.0426   -9.4299 C   0  0  0  0  0  0  0  0  0  0  0  0
   13.6482    8.0497  -10.9162 O   0  0  0  0  0  0  0  0  0  0  0  0
   11.5356    7.8148  -11.9199 C   0  0  0  0  0  0  0  0  0  0  0  0
   12.2597    7.6523  -13.1838 C   0  0  0  0  0  0  0  0  0  0  0  0
    9.5345    7.8388  -10.6476 C   0  0  0  0  0  0  0  0  0  0  0  0
   12.7796    8.4277  -13.7325 O   0  0  0  0  0  0  0  0  0  0  0  0
   10.1724    7.7406  -11.8577 C   0  0  0  0  0  0  0  0  0  0  0  0
   12.4765    6.3392  -13.7439 N   0  0  0  0  0  0  0  0  0  0  0  0
    9.2368    7.4770  -13.0161 C   0  0  1  0  0  0  0  0  0  0  0  0
    8.7686    6.0601  -13.0538 C   0  0  0  0  0  0  0  0  0  0  0  0
   11.7377    5.1496  -13.1887 C   0  0  0  0  0  0  0  0  0  0  0  0
   10.9893    9.0510   -6.5404 C   0  0  0  0  0  0  0  0  0  0  0  0
   11.2522    8.1647   -5.3854 C   0  0  2  0  0  0  0  0  0  0  0  0
    7.8881    5.4892  -12.2818 C   0  0  0  0  0  0  0  0  0  0  0  0
    8.1030    8.4511  -12.9051 C   0  0  0  0  0  0  0  0  0  0  0  0
   11.2726    4.1709  -14.3554 C   0  0  0  0  0  0  0  0  0  0  0  0
   12.7640    9.8841   -5.1669 C   0  0  0  0  0  0  0  0  0  0  0  0
   10.2020    7.3447   -4.8869 C   0  0  0  0  0  0  0  0  0  0  0  0
    9.2831    5.2239  -14.0945 C   0  0  0  0  0  0  0  0  0  0  0  0
    7.4658    4.1818  -12.3783 C   0  0  0  0  0  0  0  0  0  0  0  0
   11.8409    9.0255   -4.2786 C   0  0  0  0  0  0  0  0  0  0  0  0
    8.0323    3.4365  -13.5317 C   0  0  0  0  0  0  0  0  0  0  0  0
    8.8555    3.9527  -14.2628 C   0  0  0  0  0  0  0  0  0  0  0  0
    9.6277    3.1977  -15.2748 N   0  0  0  0  0  0  0  0  0  0  0  0
    8.9998    2.0715  -15.8197 C   0  0  0  0  0  0  0  0  0  0  0  0
   12.6128    6.2686  -15.1761 C   0  0  0  0  0  0  0  0  0  0  0  0
   11.0179    3.2027  -15.0642 C   0  0  0  0  0  0  0  0  0  0  0  0
  1  2  1  0  0  0  0
  1 22  1  0  0  0  0
  2  3  1  6  0  0  0
  2 17  1  0  0  0  0
  3  4  1  0  0  0  0
  4  5  1  0  0  0  0
  4  6  2  0  0  0  0
  5  7  1  0  0  0  0
  5  8  2  0  0  0  0
  6 10  1  0  0  0  0
  8  9  1  0  0  0  0
  8 12  1  0  0  0  0
  9 11  2  0  0  0  0
  9 13  1  0  0  0  0
 10 12  2  0  0  0  0
 12 14  1  0  0  0  0
 13 16  1  0  0  0  0
 13 31  1  0  0  0  0
 14 15  1  0  0  0  0
 14 20  1  1  0  0  0
 15 19  1  0  0  0  0
 15 24  2  0  0  0  0
 16 21  1  0  0  0  0
 17 18  1  0  0  0  0
 18 23  1  1  0  0  0
 18 26  1  0  0  0  0
 19 25  2  0  0  0  0
 21 32  2  0  0  0  0
 22 26  1  0  0  0  0
 24 28  1  0  0  0  0
 25 27  1  0  0  0  0
 27 28  2  0  0  0  0
 28 29  1  0  0  0  0
 29 30  1  0  0  0  0
 29 32  1  0  0  0  0
M  END
$$$$

 OpenBabel10082411353D

 32 35  0  0  0  0  0  0  0  0999 V2000
   11.6849    3.3051  -14.7886 C   0  0  0  0  0  0  0  0  0  0  0  0
   11.9222    4.4917  -14.7896 C   0  0  0  0  0  0  0  0  0  0  0  0
   10.4105    3.0506  -15.0123 C   0  0  0  0  0  0  0  0  0  0  0  0
   11.4495    5.4335  -14.4813 C   0  0  0  0  0  0  0  0  0  0  0  0
    9.5038    4.0445  -14.6973 C   0  0  0  0  0  0  0  0  0  0  0  0
    8.0744    3.8032  -14.7673 O   0  0  0  0  0  0  0  0  0  0  0  0
    7.4019    4.2664  -13.6471 C   0  0  0  0  0  0  0  0  0  0  0  0
   11.8713    6.8371  -14.3117 C   0  0  0  0  0  0  0  0  0  0  0  0
   12.8441    7.2889  -15.0274 O   0  0  0  0  0  0  0  0  0  0  0  0
    9.9408    5.3883  -14.5322 C   0  0  0  0  0  0  0  0  0  0  0  0
   11.9372    7.2052  -12.9834 O   0  0  0  0  0  0  0  0  0  0  0  0
    7.6871    5.3657  -12.9437 C   0  0  0  0  0  0  0  0  0  0  0  0
    6.6825    5.6376  -11.8704 C   0  0  0  0  0  0  0  0  0  0  0  0
   12.9330    7.4672  -12.1262 C   0  0  0  0  0  0  0  0  0  0  0  0
    5.6490    4.8336  -11.7379 C   0  0  0  0  0  0  0  0  0  0  0  0
    6.2655    3.3248  -13.2380 C   0  0  0  0  0  0  0  0  0  0  0  0
   12.5459    7.5503  -10.6847 C   0  0  0  0  0  0  0  0  0  0  0  0
    5.5326    3.6923  -12.2221 C   0  0  0  0  0  0  0  0  0  0  0  0
   13.2808    8.2749   -9.7966 C   0  0  0  0  0  0  0  0  0  0  0  0
   12.7625    8.4244   -8.5830 C   0  0  0  0  0  0  0  0  0  0  0  0
   11.1393    7.2655  -10.3421 C   0  0  0  0  0  0  0  0  0  0  0  0
   10.7436    7.4242   -9.1139 C   0  0  0  0  0  0  0  0  0  0  0  0
   11.5582    7.9816   -8.1804 C   0  0  0  0  0  0  0  0  0  0  0  0
   11.0885    8.1382   -6.7137 C   0  0  0  0  0  0  0  0  0  0  0  0
    9.8528    8.8294   -6.6452 C   0  0  0  0  0  0  0  0  0  0  0  0
    8.8998    8.0398   -6.0308 C   0  0  0  0  0  0  0  0  0  0  0  0
    8.8000    6.8793   -6.8449 N   0  0  0  0  0  0  0  0  0  0  0  0
   12.1255    9.0138   -5.8625 C   0  0  0  0  0  0  0  0  0  0  0  0
    9.8119    5.9123   -6.6317 C   0  0  0  0  0  0  0  0  0  0  0  0
   11.1833    6.5986   -6.3510 C   0  0  0  0  0  0  0  0  0  0  0  0
   12.9475    9.7796   -6.4299 O   0  0  0  0  0  0  0  0  0  0  0  0
   12.1032    8.8229   -4.5676 O   0  0  0  0  0  0  0  0  0  0  0  0
  1  2  1  0  0  0  0
  1  3  2  0  0  0  0
  2  4  2  0  0  0  0
  3  5  1  0  0  0  0
  4  8  1  0  0  0  0
  4 10  1  0  0  0  0
  5  6  1  0  0  0  0
  5 10  2  0  0  0  0
  6  7  1  0  0  0  0
  7 12  2  0  0  0  0
  7 16  1  0  0  0  0
  8  9  2  0  0  0  0
  8 11  1  0  0  0  0
 11 14  1  0  0  0  0
 12 13  1  0  0  0  0
 13 15  2  0  0  0  0
 14 17  1  0  0  0  0
 15 18  1  0  0  0  0
 16 18  2  0  0  0  0
 17 19  1  0  0  0  0
 17 21  2  0  0  0  0
 19 20  2  0  0  0  0
 20 23  1  0  0  0  0
 21 22  1  0  0  0  0
 22 23  2  0  0  0  0
 23 24  1  0  0  0  0
 24 25  1  0  0  0  0
 24 28  1  0  0  0  0
 24 30  1  0  0  0  0
 25 26  1  0  0  0  0
 26 27  1  0  0  0  0
 27 29  1  0  0  0  0
 28 31  1  0  0  0  0
 28 32  2  0  0  0  0
 29 30  1  0  0  0  0
M  END
$$$$

 OpenBabel10082411353D

 32 37  0  0  0  0  0  0  0  0999 V2000
   13.1862    9.4584   -4.4987 C   0  0  0  0  0  0  0  0  0  0  0  0
   12.1466    8.8379   -3.9099 C   0  0  0  0  0  0  0  0  0  0  0  0
   12.9882    9.7409   -5.8618 C   0  0  0  0  0  0  0  0  0  0  0  0
   11.9761    9.3177   -6.5889 C   0  0  0  0  0  0  0  0  0  0  0  0
   10.9346    8.5066   -5.9096 C   0  0  0  0  0  0  0  0  0  0  0  0
   12.2569    8.5495   -2.4516 C   0  0  0  0  0  0  0  0  0  0  0  0
   11.0697    8.2577   -4.5299 C   0  0  0  0  0  0  0  0  0  0  0  0
   11.7350    9.5912   -7.9371 O   0  0  0  0  0  0  0  0  0  0  0  0
    9.7397    8.0780   -6.6393 C   0  0  0  0  0  0  0  0  0  0  0  0
   10.8649    8.8162   -8.5483 C   0  0  0  0  0  0  0  0  0  0  0  0
    9.2400    6.9866   -6.2549 O   0  0  0  0  0  0  0  0  0  0  0  0
   10.8576    9.1019   -9.9991 C   0  0  1  0  0  0  0  0  0  0  0  0
    9.7545    8.2308   -7.9658 N   0  0  0  0  0  0  0  0  0  0  0  0
   11.8976    8.3673  -10.5997 C   0  0  0  0  0  0  0  0  0  0  0  0
   11.6687    7.6743  -11.8116 C   0  0  0  0  0  0  0  0  0  0  0  0
   10.4759    7.1713  -12.1199 C   0  0  0  0  0  0  0  0  0  0  0  0
    9.2658    7.5505  -11.5870 C   0  0  0  0  0  0  0  0  0  0  0  0
    9.3960    8.5265  -10.3465 C   0  0  0  0  0  0  0  0  0  0  0  0
   10.3867    6.1959  -13.1101 C   0  0  0  0  0  0  0  0  0  0  0  0
   12.6748    7.0682  -12.6078 N   0  0  0  0  0  0  0  0  0  0  0  0
    8.0007    7.2083  -12.0491 C   0  0  0  0  0  0  0  0  0  0  0  0
   11.5794    6.1529  -13.7240 N   0  0  0  0  0  0  0  0  0  0  0  0
    9.1443    5.7122  -13.5791 C   0  0  0  0  0  0  0  0  0  0  0  0
    7.9712    6.1359  -12.9896 C   0  0  0  0  0  0  0  0  0  0  0  0
    9.0687    4.6447  -14.6004 C   0  0  0  0  0  0  0  0  0  0  0  0
    8.9962    3.2747  -14.1231 C   0  0  0  0  0  0  0  0  0  0  0  0
   12.2735    5.1668  -14.4206 C   0  0  0  0  0  0  0  0  0  0  0  0
   10.2937    2.5477  -14.3858 C   0  0  0  0  0  0  0  0  0  0  0  0
   10.1903    1.2879  -14.7049 O   0  0  0  0  0  0  0  0  0  0  0  0
   11.4313    3.0454  -14.5050 N   0  0  0  0  0  0  0  0  0  0  0  0
   11.5584    4.3232  -14.9570 N   0  0  0  0  0  0  0  0  0  0  0  0
   13.4682    5.2299  -14.5773 O   0  0  0  0  0  0  0  0  0  0  0  0
  1  2  1  0  0  0  0
  1  3  2  0  0  0  0
  2  6  1  0  0  0  0
  2  7  2  0  0  0  0
  3  4  1  0  0  0  0
  4  5  2  0  0  0  0
  4  8  1  0  0  0  0
  5  7  1  0  0  0  0
  5  9  1  0  0  0  0
  8 10  1  0  0  0  0
  9 11  2  0  0  0  0
  9 13  1  0  0  0  0
 10 13  2  0  0  0  0
 12 10  1  1  0  0  0
 12 14  1  0  0  0  0
 12 18  1  0  0  0  0
 14 15  1  0  0  0  0
 15 16  1  0  0  0  0
 15 20  2  0  0  0  0
 16 17  1  0  0  0  0
 16 19  2  0  0  0  0
 17 18  1  0  0  0  0
 17 21  2  0  0  0  0
 19 22  1  0  0  0  0
 19 23  1  0  0  0  0
 20 22  1  0  0  0  0
 21 24  1  0  0  0  0
 22 27  1  0  0  0  0
 23 24  2  0  0  0  0
 23 25  1  0  0  0  0
 25 26  1  0  0  0  0
 26 28  1  0  0  0  0
 27 31  1  0  0  0  0
 27 32  2  0  0  0  0
 28 29  2  0  0  0  0
 28 30  1  0  0  0  0
 30 31  1  0  0  0  0
M  END
$$$$

 OpenBabel10082411353D

 32 35  0  0  0  0  0  0  0  0999 V2000
   11.6849    3.3051  -14.7886 C   0  0  0  0  0  0  0  0  0  0  0  0
   11.9222    4.4917  -14.7896 C   0  0  0  0  0  0  0  0  0  0  0  0
   10.4105    3.0506  -15.0123 C   0  0  0  0  0  0  0  0  0  0  0  0
   11.4495    5.4335  -14.4813 C   0  0  0  0  0  0  0  0  0  0  0  0
    9.5038    4.0445  -14.6973 C   0  0  0  0  0  0  0  0  0  0  0  0
    8.0744    3.8032  -14.7673 O   0  0  0  0  0  0  0  0  0  0  0  0
    7.4019    4.2664  -13.6471 C   0  0  0  0  0  0  0  0  0  0  0  0
   11.8713    6.8371  -14.3117 C   0  0  0  0  0  0  0  0  0  0  0  0
   12.8441    7.2889  -15.0274 O   0  0  0  0  0  0  0  0  0  0  0  0
    9.9408    5.3883  -14.5322 C   0  0  0  0  0  0  0  0  0  0  0  0
   11.9372    7.2052  -12.9834 O   0  0  0  0  0  0  0  0  0  0  0  0
    7.6871    5.3657  -12.9437 C   0  0  0  0  0  0  0  0  0  0  0  0
    6.6825    5.6376  -11.8704 C   0  0  0  0  0  0  0  0  0  0  0  0
   12.9330    7.4672  -12.1262 C   0  0  0  0  0  0  0  0  0  0  0  0
    5.6490    4.8336  -11.7379 C   0  0  0  0  0  0  0  0  0  0  0  0
    6.2655    3.3248  -13.2380 C   0  0  0  0  0  0  0  0  0  0  0  0
   12.5459    7.5503  -10.6847 C   0  0  0  0  0  0  0  0  0  0  0  0
    5.5326    3.6923  -12.2221 C   0  0  0  0  0  0  0  0  0  0  0  0
   13.2808    8.2749   -9.7966 C   0  0  0  0  0  0  0  0  0  0  0  0
   12.7625    8.4244   -8.5830 C   0  0  0  0  0  0  0  0  0  0  0  0
   11.1393    7.2655  -10.3421 C   0  0  0  0  0  0  0  0  0  0  0  0
   10.7436    7.4242   -9.1139 C   0  0  0  0  0  0  0  0  0  0  0  0
   11.5582    7.9816   -8.1804 C   0  0  0  0  0  0  0  0  0  0  0  0
   11.0885    8.1382   -6.7137 C   0  0  0  0  0  0  0  0  0  0  0  0
    9.8528    8.8294   -6.6452 C   0  0  0  0  0  0  0  0  0  0  0  0
    8.8998    8.0398   -6.0308 C   0  0  0  0  0  0  0  0  0  0  0  0
    8.8000    6.8793   -6.8449 N   0  0  0  0  0  0  0  0  0  0  0  0
   12.1255    9.0138   -5.8625 C   0  0  0  0  0  0  0  0  0  0  0  0
    9.8119    5.9123   -6.6317 C   0  0  0  0  0  0  0  0  0  0  0  0
   11.1833    6.5986   -6.3510 C   0  0  0  0  0  0  0  0  0  0  0  0
   12.3571    8.4725   -4.5613 C   0  0  0  0  0  0  0  0  0  0  0  0
   12.8352    9.2346   -3.5592 C   0  0  0  0  0  0  0  0  0  0  0  0
  1  2  1  0  0  0  0
  1  3  2  0  0  0  0
  2  4  2  0  0  0  0
  3  5  1  0  0  0  0
  4  8  1  0  0  0  0
  4 10  1  0  0  0  0
  5  6  1  0  0  0  0
  5 10  2  0  0  0  0
  6  7  1  0  0  0  0
  7 12  2  0  0  0  0
  7 16  1  0  0  0  0
  8  9  2  0  0  0  0
  8 11  1  0  0  0  0
 11 14  1  0  0  0  0
 12 13  1  0  0  0  0
 13 15  2  0  0  0  0
 14 17  1  0  0  0  0
 15 18  1  0  0  0  0
 16 18  2  0  0  0  0
 17 19  1  0  0  0  0
 17 21  2  0  0  0  0
 19 20  2  0  0  0  0
 20 23  1  0  0  0  0
 21 22  1  0  0  0  0
 22 23  2  0  0  0  0
 23 24  1  0  0  0  0
 24 25  1  0  0  0  0
 24 28  1  0  0  0  0
 24 30  1  0  0  0  0
 25 26  1  0  0  0  0
 26 27  1  0  0  0  0
 27 29  1  0  0  0  0
 28 31  1  0  0  0  0
 29 30  1  0  0  0  0
 31 32  1  0  0  0  0
M  END
$$$$

 OpenBabel10082411353D

 32 37  0  0  0  0  0  0  0  0999 V2000
   11.6836    6.0105   -4.8831 C   0  0  0  0  0  0  0  0  0  0  0  0
   11.9279    6.9038   -3.8792 C   0  0  0  0  0  0  0  0  0  0  0  0
   11.9719    8.3126   -4.1286 C   0  0  0  0  0  0  0  0  0  0  0  0
   11.3811    6.5964   -6.0845 C   0  0  0  0  0  0  0  0  0  0  0  0
   11.0420    5.6445   -7.1434 C   0  0  1  0  0  0  0  0  0  0  0  0
   11.3536    7.9055   -6.3870 C   0  0  0  0  0  0  0  0  0  0  0  0
    9.8569    4.8089   -7.0560 C   0  0  0  0  0  0  0  0  0  0  0  0
   11.5991    8.8196   -5.3527 C   0  0  0  0  0  0  0  0  0  0  0  0
   11.5316   10.2233   -5.5794 F   0  0  0  0  0  0  0  0  0  0  0  0
   10.9798    8.5285   -7.6795 C   0  0  0  0  0  0  0  0  0  0  0  0
   10.6556    6.3745   -8.5461 C   0  0  0  0  0  0  0  0  0  0  0  0
    9.6410    3.9438   -8.1044 C   0  0  0  0  0  0  0  0  0  0  0  0
   11.0669    7.6169   -8.7871 N   0  0  0  0  0  0  0  0  0  0  0  0
    9.9214    5.7500   -9.4200 C   0  0  0  0  0  0  0  0  0  0  0  0
   12.1374    7.7991   -9.6010 C   0  0  0  0  0  0  0  0  0  0  0  0
   13.3966    8.0702   -9.2678 O   0  0  0  0  0  0  0  0  0  0  0  0
   11.9065    8.1067  -10.9940 C   0  0  0  0  0  0  0  0  0  0  0  0
   11.5891    6.9407  -11.8496 C   0  0  1  0  0  0  0  0  0  0  0  0
    9.6383    6.5905  -10.7511 C   0  0  0  0  0  0  0  0  0  0  0  0
   10.3417    6.3234  -11.9172 N   0  0  0  0  0  0  0  0  0  0  0  0
    9.1610    4.6231   -9.2679 C   0  0  0  0  0  0  0  0  0  0  0  0
   10.0460    5.1982  -12.4989 C   0  0  0  0  0  0  0  0  0  0  0  0
   10.8981    4.6542  -13.4877 C   0  0  0  0  0  0  0  0  0  0  0  0
   11.5282    5.4948  -14.3618 C   0  0  0  0  0  0  0  0  0  0  0  0
   10.9982    3.2780  -13.6504 C   0  0  0  0  0  0  0  0  0  0  0  0
    9.0509    4.4032  -12.0961 O   0  0  0  0  0  0  0  0  0  0  0  0
   11.4776    6.9477  -14.3020 C   0  0  2  0  0  0  0  0  0  0  0  0
   12.3668    7.4727  -15.4898 C   0  0  0  0  0  0  0  0  0  0  0  0
   12.2763    7.3552  -13.0071 C   0  0  0  0  0  0  0  0  0  0  0  0
   11.7080    2.7327  -14.6915 C   0  0  0  0  0  0  0  0  0  0  0  0
   12.2269    4.9519  -15.4781 C   0  0  0  0  0  0  0  0  0  0  0  0
   12.3056    3.6134  -15.6264 C   0  0  0  0  0  0  0  0  0  0  0  0
  1  2  1  0  0  0  0
  1  4  2  0  0  0  0
  2  3  2  0  0  0  0
  3  8  1  0  0  0  0
  4  5  1  0  0  0  0
  4  6  1  0  0  0  0
  5  7  1  1  0  0  0
  5 11  1  0  0  0  0
  6  8  2  0  0  0  0
  6 10  1  0  0  0  0
  7 12  1  0  0  0  0
  8  9  1  0  0  0  0
 10 13  1  0  0  0  0
 11 13  1  0  0  0  0
 11 14  2  0  0  0  0
 12 21  1  0  0  0  0
 13 15  1  0  0  0  0
 14 19  1  0  0  0  0
 14 21  1  0  0  0  0
 15 16  2  0  0  0  0
 15 17  1  0  0  0  0
 18 17  1  1  0  0  0
 18 20  1  0  0  0  0
 18 29  1  0  0  0  0
 19 20  1  0  0  0  0
 20 22  1  0  0  0  0
 22 23  1  0  0  0  0
 22 26  2  0  0  0  0
 23 24  1  0  0  0  0
 23 25  2  0  0  0  0
 24 27  1  0  0  0  0
 24 31  2  0  0  0  0
 25 30  1  0  0  0  0
 27 28  1  6  0  0  0
 27 29  1  0  0  0  0
 30 32  2  0  0  0  0
 31 32  1  0  0  0  0
M  END
$$$$

 OpenBabel10082411353D

 32 36  0  0  0  0  0  0  0  0999 V2000
   11.6836    6.0105   -4.8831 C   0  0  0  0  0  0  0  0  0  0  0  0
   11.1291    7.0732   -5.4395 C   0  0  0  0  0  0  0  0  0  0  0  0
   10.6954    7.0156   -6.8073 C   0  0  0  0  0  0  0  0  0  0  0  0
   10.2502    8.1187   -7.5536 C   0  0  2  0  0  0  0  0  0  0  0  0
   11.1205    8.4712   -4.9629 C   0  0  0  0  0  0  0  0  0  0  0  0
   10.8655    8.3511   -8.7960 C   0  0  0  0  0  0  0  0  0  0  0  0
   10.2922    7.8843   -9.9985 C   0  0  0  0  0  0  0  0  0  0  0  0
   10.4654    9.6993   -5.6120 C   0  0  0  0  0  0  0  0  0  0  0  0
   10.3510    9.5971   -7.0014 C   0  0  0  0  0  0  0  0  0  0  0  0
   12.2462    6.3351   -3.5020 C   0  0  0  0  0  0  0  0  0  0  0  0
   11.0471    7.5309  -11.1063 C   0  0  0  0  0  0  0  0  0  0  0  0
   11.7288    8.6923   -3.6518 C   0  0  0  0  0  0  0  0  0  0  0  0
   12.3991    7.7501  -11.1145 C   0  0  0  0  0  0  0  0  0  0  0  0
   12.3738    7.7580   -2.9599 C   0  0  0  0  0  0  0  0  0  0  0  0
   13.1285    8.5075  -10.1661 O   0  0  0  0  0  0  0  0  0  0  0  0
    9.0407    7.3775  -10.0973 N   0  0  0  0  0  0  0  0  0  0  0  0
    8.9787    6.9473  -11.4664 N   0  0  0  0  0  0  0  0  0  0  0  0
   13.1012    7.4459  -12.3707 C   0  0  0  0  0  0  0  0  0  0  0  0
   12.2395    6.9724  -13.2444 C   0  0  0  0  0  0  0  0  0  0  0  0
   10.2768    7.0170  -11.9799 C   0  0  0  0  0  0  0  0  0  0  0  0
   12.9237    6.5822  -14.5759 O   0  0  0  0  0  0  0  0  0  0  0  0
   10.8906    6.6526  -13.2252 C   0  0  0  0  0  0  0  0  0  0  0  0
   12.2396    6.1290  -15.6916 C   0  0  0  0  0  0  0  0  0  0  0  0
    7.8036    6.1825  -11.9342 C   0  0  1  0  0  0  0  0  0  0  0  0
   12.5015    4.7115  -15.7686 C   0  0  0  0  0  0  0  0  0  0  0  0
   11.2371    3.8608  -15.4354 C   0  0  0  0  0  0  0  0  0  0  0  0
   10.7528    3.7938  -14.2514 C   0  0  0  0  0  0  0  0  0  0  0  0
    9.5139    2.8763  -14.1188 C   0  0  0  0  0  0  0  0  0  0  0  0
    6.9531    6.9640  -12.6499 C   0  0  0  0  0  0  0  0  0  0  0  0
    8.1816    4.8569  -12.5331 C   0  0  0  0  0  0  0  0  0  0  0  0
    7.9526    4.4350  -13.8853 C   0  0  0  0  0  0  0  0  0  0  0  0
    8.6434    3.5871  -14.5363 N   0  0  0  0  0  0  0  0  0  0  0  0
  1  2  1  0  0  0  0
  1 10  2  0  0  0  0
  2  3  1  0  0  0  0
  2  5  2  0  0  0  0
  3  4  1  0  0  0  0
  4  6  1  6  0  0  0
  4  9  1  0  0  0  0
  5  8  1  0  0  0  0
  5 12  1  0  0  0  0
  6  7  1  0  0  0  0
  7 11  1  0  0  0  0
  7 16  2  0  0  0  0
  8  9  1  0  0  0  0
 10 14  1  0  0  0  0
 11 13  2  0  0  0  0
 11 20  1  0  0  0  0
 12 14  2  0  0  0  0
 13 15  1  0  0  0  0
 13 18  1  0  0  0  0
 16 17  1  0  0  0  0
 17 20  1  0  0  0  0
 17 24  1  0  0  0  0
 18 19  2  0  0  0  0
 19 21  1  0  0  0  0
 19 22  1  0  0  0  0
 20 22  2  0  0  0  0
 21 23  1  0  0  0  0
 23 25  1  0  0  0  0
 24 29  1  6  0  0  0
 24 30  1  0  0  0  0
 25 26  1  0  0  0  0
 26 27  1  0  0  0  0
 27 28  1  0  0  0  0
 28 32  1  0  0  0  0
 30 31  1  0  0  0  0
 31 32  1  0  0  0  0
M  END
$$$$

 OpenBabel10082411353D

 32 35  0  0  0  0  0  0  0  0999 V2000
   11.6836    6.0105   -4.8831 F   0  0  0  0  0  0  0  0  0  0  0  0
   11.2562    7.2206   -5.0294 C   0  0  0  0  0  0  0  0  0  0  0  0
   12.0125    8.2418   -4.4408 C   0  0  0  0  0  0  0  0  0  0  0  0
   11.1918    7.2706   -6.5237 C   0  0  0  0  0  0  0  0  0  0  0  0
   11.6999    8.4488   -3.1704 F   0  0  0  0  0  0  0  0  0  0  0  0
    9.8648    7.0908   -4.5314 F   0  0  0  0  0  0  0  0  0  0  0  0
   11.6831    8.5291   -6.9682 C   0  0  0  0  0  0  0  0  0  0  0  0
   10.4785    6.5189   -7.4033 C   0  0  0  0  0  0  0  0  0  0  0  0
   11.6979    8.6661   -8.4760 C   0  0  0  0  0  0  0  0  0  0  0  0
   11.6248    9.5853   -5.0030 C   0  0  0  0  0  0  0  0  0  0  0  0
   11.8604    9.7907   -6.2903 O   0  0  0  0  0  0  0  0  0  0  0  0
   13.3557    8.1748   -4.5947 F   0  0  0  0  0  0  0  0  0  0  0  0
   10.5427    6.6061   -8.7190 C   0  0  0  0  0  0  0  0  0  0  0  0
   11.1158    7.7103   -9.2540 C   0  0  0  0  0  0  0  0  0  0  0  0
   11.3757    7.6656  -10.5293 N   0  0  0  0  0  0  0  0  0  0  0  0
   10.7153    7.7096  -11.5405 C   0  0  0  0  0  0  0  0  0  0  0  0
   11.2483    7.4711  -12.8542 C   0  0  0  0  0  0  0  0  0  0  0  0
    9.3980    7.7820  -11.5398 C   0  0  0  0  0  0  0  0  0  0  0  0
    8.6055    7.5889  -12.6525 C   0  0  0  0  0  0  0  0  0  0  0  0
   12.7508    7.3705  -13.0162 O   0  0  0  0  0  0  0  0  0  0  0  0
   10.5299    7.1831  -13.9856 C   0  0  0  0  0  0  0  0  0  0  0  0
    7.0533    7.7371  -12.5396 C   0  0  0  0  0  0  0  0  0  0  0  0
   11.2041    6.8490  -15.2304 C   0  0  0  0  0  0  0  0  0  0  0  0
   11.6393    5.5333  -15.3864 C   0  0  0  0  0  0  0  0  0  0  0  0
    9.1955    7.2935  -13.8301 C   0  0  0  0  0  0  0  0  0  0  0  0
   12.5294    5.1116  -16.1609 C   0  0  0  0  0  0  0  0  0  0  0  0
   11.2315    4.4703  -14.3200 C   0  0  0  0  0  0  0  0  0  0  0  0
   12.7622    3.6475  -16.0496 O   0  0  0  0  0  0  0  0  0  0  0  0
   11.9068    3.2956  -14.9142 N   0  0  0  0  0  0  0  0  0  0  0  0
    6.8136    8.8835  -12.2290 F   0  0  0  0  0  0  0  0  0  0  0  0
    6.6784    6.8524  -11.5852 F   0  0  0  0  0  0  0  0  0  0  0  0
    6.4508    7.3941  -13.6686 F   0  0  0  0  0  0  0  0  0  0  0  0
  1  2  1  0  0  0  0
  2  3  1  0  0  0  0
  2  4  1  0  0  0  0
  2  6  1  0  0  0  0
  3  5  1  0  0  0  0
  3 10  1  0  0  0  0
  3 12  1  0  0  0  0
  4  7  1  0  0  0  0
  4  8  2  0  0  0  0
  7  9  2  0  0  0  0
  7 11  1  0  0  0  0
  8 13  1  0  0  0  0
  9 14  1  0  0  0  0
 10 11  1  0  0  0  0
 13 14  2  0  0  0  0
 14 15  1  0  0  0  0
 15 16  1  0  0  0  0
 16 17  1  0  0  0  0
 16 18  2  0  0  0  0
 17 20  1  0  0  0  0
 17 21  2  0  0  0  0
 18 19  1  0  0  0  0
 19 22  1  0  0  0  0
 19 25  2  0  0  0  0
 21 23  1  0  0  0  0
 21 25  1  0  0  0  0
 22 30  1  0  0  0  0
 22 31  1  0  0  0  0
 22 32  1  0  0  0  0
 23 24  1  0  0  0  0
 24 26  2  0  0  0  0
 24 27  1  0  0  0  0
 26 28  1  0  0  0  0
 27 29  2  0  0  0  0
 28 29  1  0  0  0  0
M  END
$$$$

 OpenBabel10082411353D

 32 35  0  0  0  0  0  0  0  0999 V2000
   11.6836    6.0105   -4.8831 F   0  0  0  0  0  0  0  0  0  0  0  0
   11.2562    7.2206   -5.0294 C   0  0  0  0  0  0  0  0  0  0  0  0
   12.0125    8.2418   -4.4408 C   0  0  0  0  0  0  0  0  0  0  0  0
   11.1918    7.2706   -6.5237 C   0  0  0  0  0  0  0  0  0  0  0  0
   11.6999    8.4488   -3.1704 F   0  0  0  0  0  0  0  0  0  0  0  0
    9.8648    7.0908   -4.5314 F   0  0  0  0  0  0  0  0  0  0  0  0
   11.6831    8.5291   -6.9682 C   0  0  0  0  0  0  0  0  0  0  0  0
   10.4785    6.5189   -7.4033 C   0  0  0  0  0  0  0  0  0  0  0  0
   11.6979    8.6661   -8.4760 C   0  0  0  0  0  0  0  0  0  0  0  0
   11.6248    9.5853   -5.0030 C   0  0  0  0  0  0  0  0  0  0  0  0
   11.8604    9.7907   -6.2903 O   0  0  0  0  0  0  0  0  0  0  0  0
   13.3557    8.1748   -4.5947 F   0  0  0  0  0  0  0  0  0  0  0  0
   10.5427    6.6061   -8.7190 C   0  0  0  0  0  0  0  0  0  0  0  0
   11.1158    7.7103   -9.2540 C   0  0  0  0  0  0  0  0  0  0  0  0
   11.3757    7.6656  -10.5293 N   0  0  0  0  0  0  0  0  0  0  0  0
   10.7153    7.7096  -11.5405 C   0  0  0  0  0  0  0  0  0  0  0  0
   11.2483    7.4711  -12.8542 C   0  0  0  0  0  0  0  0  0  0  0  0
    9.3980    7.7820  -11.5398 C   0  0  0  0  0  0  0  0  0  0  0  0
    8.6055    7.5889  -12.6525 C   0  0  0  0  0  0  0  0  0  0  0  0
   12.7508    7.3705  -13.0162 O   0  0  0  0  0  0  0  0  0  0  0  0
   10.5299    7.1831  -13.9856 C   0  0  0  0  0  0  0  0  0  0  0  0
    7.0533    7.7371  -12.5396 C   0  0  0  0  0  0  0  0  0  0  0  0
   11.2041    6.8490  -15.2304 C   0  0  0  0  0  0  0  0  0  0  0  0
   11.6393    5.5333  -15.3864 C   0  0  0  0  0  0  0  0  0  0  0  0
    9.1955    7.2935  -13.8301 C   0  0  0  0  0  0  0  0  0  0  0  0
   12.5294    5.1116  -16.1609 C   0  0  0  0  0  0  0  0  0  0  0  0
   11.2315    4.4703  -14.3200 C   0  0  0  0  0  0  0  0  0  0  0  0
   13.0194    6.0876  -17.1697 C   0  0  0  0  0  0  0  0  0  0  0  0
   12.9874    3.8316  -16.1456 C   0  0  0  0  0  0  0  0  0  0  0  0
   11.6452    3.1935  -14.5057 C   0  0  0  0  0  0  0  0  0  0  0  0
   12.4472    2.8780  -15.5240 C   0  0  0  0  0  0  0  0  0  0  0  0
    6.5221    6.5187  -12.4805 C   0  0  0  0  0  0  0  0  0  0  0  0
  1  2  1  0  0  0  0
  2  3  1  0  0  0  0
  2  4  1  0  0  0  0
  2  6  1  0  0  0  0
  3  5  1  0  0  0  0
  3 10  1  0  0  0  0
  3 12  1  0  0  0  0
  4  7  1  0  0  0  0
  4  8  2  0  0  0  0
  7  9  2  0  0  0  0
  7 11  1  0  0  0  0
  8 13  1  0  0  0  0
  9 14  1  0  0  0  0
 10 11  1  0  0  0  0
 13 14  2  0  0  0  0
 14 15  1  0  0  0  0
 15 16  1  0  0  0  0
 16 17  1  0  0  0  0
 16 18  2  0  0  0  0
 17 20  1  0  0  0  0
 17 21  2  0  0  0  0
 18 19  1  0  0  0  0
 19 22  1  0  0  0  0
 19 25  2  0  0  0  0
 21 23  1  0  0  0  0
 21 25  1  0  0  0  0
 22 32  1  0  0  0  0
 23 24  1  0  0  0  0
 24 26  2  0  0  0  0
 24 27  1  0  0  0  0
 26 28  1  0  0  0  0
 26 29  1  0  0  0  0
 27 30  2  0  0  0  0
 29 31  2  0  0  0  0
 30 31  1  0  0  0  0
M  END
$$$$

 OpenBabel10082411353D

 32 38  0  0  0  0  0  0  0  0999 V2000
   13.2379    9.0584   -7.2681 C   0  0  0  0  0  0  0  0  0  0  0  0
   12.9396    9.3022   -5.9810 C   0  0  0  0  0  0  0  0  0  0  0  0
   12.1602    8.6694   -7.9361 C   0  0  0  0  0  0  0  0  0  0  0  0
   14.0320    9.7504   -5.0711 F   0  0  0  0  0  0  0  0  0  0  0  0
   10.9536    8.4526   -7.1212 C   0  0  1  0  0  0  0  0  0  0  0  0
   12.1901    8.3365   -9.3972 C   0  0  0  0  0  0  0  0  0  0  0  0
   11.0443    7.8367  -10.0430 C   0  0  0  0  0  0  0  0  0  0  0  0
   11.0471    8.9348   -5.8250 C   0  0  1  0  0  0  0  0  0  0  0  0
    9.5270    7.9533   -7.4234 C   0  0  2  0  0  0  0  0  0  0  0  0
    9.7802    8.7666   -5.0086 F   0  0  0  0  0  0  0  0  0  0  0  0
   11.9790    9.3452   -5.1373 C   0  0  0  0  0  0  0  0  0  0  0  0
    9.1878    6.9159   -6.7141 C   0  0  0  0  0  0  0  0  0  0  0  0
    9.5656    7.6242   -9.0101 C   0  0  2  0  0  0  0  0  0  0  0  0
    8.3077    6.0223   -7.3397 O   0  0  0  0  0  0  0  0  0  0  0  0
    9.5098    6.1454   -9.4071 C   0  0  1  0  0  0  0  0  0  0  0  0
    8.3994    5.5390   -8.6171 C   0  0  0  0  0  0  0  0  0  0  0  0
   10.8655    7.6135  -11.2894 C   0  0  0  0  0  0  0  0  0  0  0  0
    9.7694    7.2631  -11.8623 C   0  0  0  0  0  0  0  0  0  0  0  0
    9.5718    6.9892  -13.2172 C   0  0  0  0  0  0  0  0  0  0  0  0
    8.8640    6.1467  -10.8416 C   0  0  1  0  0  0  0  0  0  0  0  0
   11.9197    8.0705  -12.2158 O   0  0  0  0  0  0  0  0  0  0  0  0
    8.3199    5.0008  -11.2953 C   0  0  0  0  0  0  0  0  0  0  0  0
    8.1933    4.7686  -12.7280 C   0  0  2  0  0  0  0  0  0  0  0  0
    9.1677    5.5272  -13.6015 C   0  0  2  0  0  0  0  0  0  0  0  0
    6.8774    5.1320  -13.0855 O   0  0  0  0  0  0  0  0  0  0  0  0
    8.3481    3.2924  -13.0933 C   0  0  0  0  0  0  0  0  0  0  0  0
    7.1931    2.5678  -13.4416 C   0  0  0  0  0  0  0  0  0  0  0  0
    9.6019    2.7941  -13.1795 C   0  0  0  0  0  0  0  0  0  0  0  0
    5.8565    3.0211  -13.2309 C   0  0  0  0  0  0  0  0  0  0  0  0
   10.8054    3.6512  -13.0753 C   0  0  0  0  0  0  0  0  0  0  0  0
   10.5911    4.9476  -13.3410 C   0  0  0  0  0  0  0  0  0  0  0  0
    5.8665    4.4068  -12.7393 C   0  0  0  0  0  0  0  0  0  0  0  0
  1  2  1  0  0  0  0
  1  3  2  0  0  0  0
  2  4  1  0  0  0  0
  2 11  2  0  0  0  0
  3  6  1  0  0  0  0
  5  3  1  6  0  0  0
  5  8  1  0  0  0  0
  5  9  1  0  0  0  0
  6  7  2  0  0  0  0
  7 17  1  0  0  0  0
  8 10  1  1  0  0  0
  8 11  1  0  0  0  0
  9 12  1  1  0  0  0
  9 13  1  0  0  0  0
 12 14  1  0  0  0  0
 13  7  1  1  0  0  0
 13 15  1  0  0  0  0
 14 16  1  0  0  0  0
 15 16  1  1  0  0  0
 15 20  1  0  0  0  0
 17 18  2  0  0  0  0
 17 21  1  0  0  0  0
 18 19  1  0  0  0  0
 18 20  1  0  0  0  0
 20 22  1  6  0  0  0
 23 22  1  1  0  0  0
 23 24  1  0  0  0  0
 23 25  1  0  0  0  0
 23 26  1  0  0  0  0
 24 19  1  1  0  0  0
 24 31  1  0  0  0  0
 25 32  1  0  0  0  0
 26 27  1  0  0  0  0
 26 28  2  0  0  0  0
 27 29  1  0  0  0  0
 28 30  1  0  0  0  0
 29 32  1  0  0  0  0
 30 31  2  0  0  0  0
M  END
$$$$

 OpenBabel10082411353D

 22 25  0  0  0  0  0  0  0  0999 V2000
   11.6836    6.0105   -4.8831 F   0  0  0  0  0  0  0  0  0  0  0  0
   11.2562    7.2206   -5.0294 C   0  0  0  0  0  0  0  0  0  0  0  0
   12.0125    8.2418   -4.4408 C   0  0  0  0  0  0  0  0  0  0  0  0
   11.1918    7.2706   -6.5237 C   0  0  2  0  0  0  0  0  0  0  0  0
   11.6999    8.4488   -3.1704 F   0  0  0  0  0  0  0  0  0  0  0  0
    9.8648    7.0908   -4.5314 F   0  0  0  0  0  0  0  0  0  0  0  0
   11.6831    8.5291   -6.9682 C   0  0  1  0  0  0  0  0  0  0  0  0
   13.3042    8.0958   -4.5769 F   0  0  0  0  0  0  0  0  0  0  0  0
   10.0051    6.7877   -7.1387 C   0  0  2  0  0  0  0  0  0  0  0  0
   12.1549    9.4036   -6.0698 C   0  0  0  0  0  0  0  0  0  0  0  0
   11.7460    9.5074   -4.8672 O   0  0  0  0  0  0  0  0  0  0  0  0
   12.5684    8.5172   -7.8652 C   0  0  0  0  0  0  0  0  0  0  0  0
   10.4250    8.9412   -7.4869 C   0  0  0  0  0  0  0  0  0  0  0  0
    9.8902    5.4070   -7.8206 C   0  0  0  0  0  0  0  0  0  0  0  0
    8.7348    4.6919   -7.6168 C   0  0  0  0  0  0  0  0  0  0  0  0
    9.5887    7.8633   -8.0188 C   0  0  1  0  0  0  0  0  0  0  0  0
   10.0149    7.4671   -9.3945 C   0  0  0  0  0  0  0  0  0  0  0  0
    8.7013    3.5197   -8.2148 C   0  0  0  0  0  0  0  0  0  0  0  0
    9.3794    3.4628   -9.4166 C   0  0  0  0  0  0  0  0  0  0  0  0
   10.5263    5.4483   -8.9460 C   0  0  0  0  0  0  0  0  0  0  0  0
   11.1476    6.5822   -9.4270 C   0  0  0  0  0  0  0  0  0  0  0  0
   10.2906    4.3565   -9.7990 C   0  0  0  0  0  0  0  0  0  0  0  0
  1  2  1  0  0  0  0
  2  3  1  0  0  0  0
  2  6  1  0  0  0  0
  3  5  1  0  0  0  0
  3  8  1  0  0  0  0
  3 11  1  0  0  0  0
  4  2  1  1  0  0  0
  4  7  1  0  0  0  0
  4  9  1  0  0  0  0
  7 10  1  0  0  0  0
  7 12  1  6  0  0  0
  7 13  1  0  0  0  0
  9 14  1  6  0  0  0
  9 16  1  0  0  0  0
 10 11  1  0  0  0  0
 14 15  1  0  0  0  0
 14 20  2  0  0  0  0
 15 18  2  0  0  0  0
 16 13  1  1  0  0  0
 16 17  1  0  0  0  0
 17 21  1  0  0  0  0
 18 19  1  0  0  0  0
 19 22  2  0  0  0  0
 20 21  1  0  0  0  0
 20 22  1  0  0  0  0
M  END
$$$$

 OpenBabel10082411353D

 32 37  0  0  0  0  0  0  0  0999 V2000
   13.1862    9.4584   -4.4987 C   0  0  0  0  0  0  0  0  0  0  0  0
   12.1466    8.8379   -3.9099 C   0  0  0  0  0  0  0  0  0  0  0  0
   12.9882    9.7409   -5.8618 C   0  0  0  0  0  0  0  0  0  0  0  0
   11.9761    9.3177   -6.5889 C   0  0  0  0  0  0  0  0  0  0  0  0
   10.9346    8.5066   -5.9096 C   0  0  0  0  0  0  0  0  0  0  0  0
   12.2569    8.5495   -2.4516 C   0  0  0  0  0  0  0  0  0  0  0  0
   11.0697    8.2577   -4.5299 C   0  0  0  0  0  0  0  0  0  0  0  0
   11.7350    9.5912   -7.9371 O   0  0  0  0  0  0  0  0  0  0  0  0
    9.7397    8.0780   -6.6393 C   0  0  0  0  0  0  0  0  0  0  0  0
   10.8649    8.8162   -8.5483 C   0  0  2  0  0  0  0  0  0  0  0  0
    9.2400    6.9866   -6.2549 O   0  0  0  0  0  0  0  0  0  0  0  0
   10.8576    9.1019   -9.9991 C   0  0  0  0  0  0  0  0  0  0  0  0
   11.8034    8.3801  -10.7004 C   0  0  0  0  0  0  0  0  0  0  0  0
    9.8033    8.2783   -8.0085 N   0  0  0  0  0  0  0  0  0  0  0  0
   11.4502    7.6515  -11.8595 C   0  0  0  0  0  0  0  0  0  0  0  0
   10.3061    7.2417  -12.2192 C   0  0  0  0  0  0  0  0  0  0  0  0
   12.5619    7.1376  -12.7423 C   0  0  0  0  0  0  0  0  0  0  0  0
    9.9519    6.4550  -13.3394 C   0  0  0  0  0  0  0  0  0  0  0  0
   12.3234    6.3860  -13.8374 C   0  0  0  0  0  0  0  0  0  0  0  0
   11.0086    6.0227  -14.1262 C   0  0  0  0  0  0  0  0  0  0  0  0
   10.7528    5.1903  -15.3140 C   0  0  0  0  0  0  0  0  0  0  0  0
   10.7272    3.7455  -15.1287 N   0  0  0  0  0  0  0  0  0  0  0  0
    9.8835    3.1820  -14.4607 C   0  0  0  0  0  0  0  0  0  0  0  0
    9.9418    1.8005  -14.3797 N   0  0  0  0  0  0  0  0  0  0  0  0
    8.5108    3.6485  -13.9676 C   0  0  0  0  0  0  0  0  0  0  0  0
    7.4839    2.7202  -13.6392 C   0  0  0  0  0  0  0  0  0  0  0  0
   11.1594    1.4102  -15.0263 O   0  0  0  0  0  0  0  0  0  0  0  0
    6.2552    3.4010  -13.0220 C   0  0  0  0  0  0  0  0  0  0  0  0
    8.3526    4.9220  -13.5074 C   0  0  1  0  0  0  0  0  0  0  0  0
    8.6623    6.0876  -13.4992 N   0  0  0  0  0  0  0  0  0  0  0  0
   11.6570    2.7300  -15.4482 C   0  0  0  0  0  0  0  0  0  0  0  0
    6.6508    4.8545  -13.0185 C   0  0  0  0  0  0  0  0  0  0  0  0
  1  2  1  0  0  0  0
  1  3  2  0  0  0  0
  2  6  1  0  0  0  0
  2  7  2  0  0  0  0
  3  4  1  0  0  0  0
  4  5  2  0  0  0  0
  4  8  1  0  0  0  0
  5  7  1  0  0  0  0
  5  9  1  0  0  0  0
  8 10  1  0  0  0  0
  9 11  2  0  0  0  0
  9 14  1  0  0  0  0
 10 12  1  6  0  0  0
 10 14  1  0  0  0  0
 12 13  1  0  0  0  0
 13 15  1  0  0  0  0
 15 16  2  0  0  0  0
 15 17  1  0  0  0  0
 16 18  1  0  0  0  0
 17 19  2  0  0  0  0
 18 20  2  0  0  0  0
 18 30  1  0  0  0  0
 19 20  1  0  0  0  0
 20 21  1  0  0  0  0
 21 22  1  0  0  0  0
 22 23  1  0  0  0  0
 22 31  1  0  0  0  0
 23 24  2  0  0  0  0
 23 25  1  0  0  0  0
 24 27  1  0  0  0  0
 25 26  2  0  0  0  0
 25 29  1  0  0  0  0
 26 28  1  0  0  0  0
 27 31  1  0  0  0  0
 28 32  2  0  0  0  0
 29 30  1  0  0  0  0
 29 32  1  6  0  0  0
M  END
$$$$

 OpenBabel10082411353D

 32 35  0  0  0  0  0  0  0  0999 V2000
   13.2485    9.2493   -6.3668 O   0  0  0  0  0  0  0  0  0  0  0  0
   12.3055    9.1779   -7.4488 C   0  0  1  0  0  0  0  0  0  0  0  0
   12.5005    8.1033   -8.2440 C   0  0  0  0  0  0  0  0  0  0  0  0
   11.7072    8.0925   -9.4886 C   0  0  0  0  0  0  0  0  0  0  0  0
   12.2659    7.9483  -10.6668 C   0  0  0  0  0  0  0  0  0  0  0  0
   10.2869    8.0426   -9.4299 C   0  0  0  0  0  0  0  0  0  0  0  0
   13.6482    8.0497  -10.9162 O   0  0  0  0  0  0  0  0  0  0  0  0
   11.5356    7.8148  -11.9199 C   0  0  0  0  0  0  0  0  0  0  0  0
   12.2597    7.6523  -13.1838 C   0  0  0  0  0  0  0  0  0  0  0  0
    9.5345    7.8388  -10.6476 C   0  0  0  0  0  0  0  0  0  0  0  0
   12.7796    8.4277  -13.7325 O   0  0  0  0  0  0  0  0  0  0  0  0
   10.1724    7.7406  -11.8577 C   0  0  0  0  0  0  0  0  0  0  0  0
   12.4765    6.3392  -13.7439 N   0  0  0  0  0  0  0  0  0  0  0  0
    9.2368    7.4770  -13.0161 C   0  0  1  0  0  0  0  0  0  0  0  0
    8.7686    6.0601  -13.0538 C   0  0  0  0  0  0  0  0  0  0  0  0
   11.7377    5.1496  -13.1887 C   0  0  0  0  0  0  0  0  0  0  0  0
   10.9893    9.0510   -6.5404 C   0  0  0  0  0  0  0  0  0  0  0  0
   11.2522    8.1647   -5.3854 C   0  0  2  0  0  0  0  0  0  0  0  0
    7.8881    5.4892  -12.2818 C   0  0  0  0  0  0  0  0  0  0  0  0
    8.1030    8.4511  -12.9051 C   0  0  0  0  0  0  0  0  0  0  0  0
   11.2726    4.1709  -14.3554 C   0  0  0  0  0  0  0  0  0  0  0  0
   12.7640    9.8841   -5.1669 C   0  0  0  0  0  0  0  0  0  0  0  0
   10.2020    7.3447   -4.8869 O   0  0  0  0  0  0  0  0  0  0  0  0
    9.2807    5.2234  -14.0940 C   0  0  0  0  0  0  0  0  0  0  0  0
    9.9511    4.1599  -14.4562 C   0  0  2  0  0  0  0  0  0  0  0  0
   11.8540    8.9171   -4.3609 C   0  0  0  0  0  0  0  0  0  0  0  0
    7.1691    4.3941  -12.4554 C   0  0  0  0  0  0  0  0  0  0  0  0
    9.5765    2.9107  -13.8673 C   0  0  0  0  0  0  0  0  0  0  0  0
    6.2523    3.9466  -11.4197 O   0  0  0  0  0  0  0  0  0  0  0  0
   10.0883    1.7765  -14.3393 O   0  0  0  0  0  0  0  0  0  0  0  0
    8.2391    2.5427  -13.4966 N   0  0  0  0  0  0  0  0  0  0  0  0
    7.4764    3.5384  -13.4785 C   0  0  0  0  0  0  0  0  0  0  0  0
  1  2  1  0  0  0  0
  1 22  1  0  0  0  0
  2  3  1  6  0  0  0
  2 17  1  0  0  0  0
  3  4  1  0  0  0  0
  4  5  1  0  0  0  0
  4  6  2  0  0  0  0
  5  7  1  0  0  0  0
  5  8  2  0  0  0  0
  6 10  1  0  0  0  0
  8  9  1  0  0  0  0
  8 12  1  0  0  0  0
  9 11  2  0  0  0  0
  9 13  1  0  0  0  0
 10 12  2  0  0  0  0
 12 14  1  0  0  0  0
 13 16  1  0  0  0  0
 14 15  1  0  0  0  0
 14 20  1  1  0  0  0
 15 19  1  0  0  0  0
 15 24  2  0  0  0  0
 16 21  1  0  0  0  0
 17 18  1  0  0  0  0
 18 23  1  1  0  0  0
 18 26  1  0  0  0  0
 19 27  2  0  0  0  0
 22 26  1  0  0  0  0
 24 25  1  0  0  0  0
 25 21  1  1  0  0  0
 25 28  1  0  0  0  0
 27 29  1  0  0  0  0
 27 32  1  0  0  0  0
 28 30  2  0  0  0  0
 28 31  1  0  0  0  0
 31 32  1  0  0  0  0
M  END
$$$$

 OpenBabel10082411353D

 32 36  0  0  0  0  0  0  0  0999 V2000
   11.6849    3.3051  -14.7886 C   0  0  0  0  0  0  0  0  0  0  0  0
   11.9222    4.4917  -14.7896 C   0  0  0  0  0  0  0  0  0  0  0  0
   10.4105    3.0506  -15.0123 C   0  0  0  0  0  0  0  0  0  0  0  0
   11.4495    5.4335  -14.4813 C   0  0  0  0  0  0  0  0  0  0  0  0
    9.5038    4.0445  -14.6973 C   0  0  0  0  0  0  0  0  0  0  0  0
    8.0744    3.8032  -14.7673 O   0  0  0  0  0  0  0  0  0  0  0  0
    7.4019    4.2664  -13.6471 C   0  0  0  0  0  0  0  0  0  0  0  0
   11.8713    6.8371  -14.3117 C   0  0  0  0  0  0  0  0  0  0  0  0
   12.8441    7.2889  -15.0274 O   0  0  0  0  0  0  0  0  0  0  0  0
    9.9408    5.3883  -14.5322 C   0  0  0  0  0  0  0  0  0  0  0  0
   11.9372    7.2052  -12.9834 O   0  0  0  0  0  0  0  0  0  0  0  0
    7.6871    5.3657  -12.9437 C   0  0  0  0  0  0  0  0  0  0  0  0
    6.6825    5.6376  -11.8704 C   0  0  0  0  0  0  0  0  0  0  0  0
   12.9330    7.4672  -12.1262 C   0  0  0  0  0  0  0  0  0  0  0  0
    5.6490    4.8336  -11.7379 C   0  0  0  0  0  0  0  0  0  0  0  0
    6.2655    3.3248  -13.2380 C   0  0  0  0  0  0  0  0  0  0  0  0
   12.5459    7.5503  -10.6847 C   0  0  0  0  0  0  0  0  0  0  0  0
    5.5326    3.6923  -12.2221 C   0  0  0  0  0  0  0  0  0  0  0  0
   13.2808    8.2749   -9.7966 C   0  0  0  0  0  0  0  0  0  0  0  0
   12.7625    8.4244   -8.5830 C   0  0  0  0  0  0  0  0  0  0  0  0
   11.1393    7.2655  -10.3421 C   0  0  0  0  0  0  0  0  0  0  0  0
   10.7436    7.4242   -9.1139 C   0  0  0  0  0  0  0  0  0  0  0  0
   11.5582    7.9816   -8.1804 C   0  0  0  0  0  0  0  0  0  0  0  0
   11.0885    8.1382   -6.7137 C   0  0  1  0  0  0  0  0  0  0  0  0
    9.8528    8.8294   -6.6452 C   0  0  0  0  0  0  0  0  0  0  0  0
    8.8998    8.0398   -6.0308 C   0  0  0  0  0  0  0  0  0  0  0  0
    9.3715    6.6666   -6.1288 C   0  0  0  0  0  0  0  0  0  0  0  0
   10.7980    6.8271   -6.2455 C   0  0  2  0  0  0  0  0  0  0  0  0
   12.1160    8.8620   -5.8401 C   0  0  0  0  0  0  0  0  0  0  0  0
   12.1789    8.3531   -4.5239 C   0  0  0  0  0  0  0  0  0  0  0  0
   11.6035    6.9580   -4.4184 C   0  0  0  0  0  0  0  0  0  0  0  0
   11.7385    6.2164   -5.4391 C   0  0  0  0  0  0  0  0  0  0  0  0
  1  2  1  0  0  0  0
  1  3  2  0  0  0  0
  2  4  2  0  0  0  0
  3  5  1  0  0  0  0
  4  8  1  0  0  0  0
  4 10  1  0  0  0  0
  5  6  1  0  0  0  0
  5 10  2  0  0  0  0
  6  7  1  0  0  0  0
  7 12  2  0  0  0  0
  7 16  1  0  0  0  0
  8  9  2  0  0  0  0
  8 11  1  0  0  0  0
 11 14  1  0  0  0  0
 12 13  1  0  0  0  0
 13 15  2  0  0  0  0
 14 17  1  0  0  0  0
 15 18  1  0  0  0  0
 16 18  2  0  0  0  0
 17 19  1  0  0  0  0
 17 21  2  0  0  0  0
 19 20  2  0  0  0  0
 20 23  1  0  0  0  0
 21 22  1  0  0  0  0
 22 23  2  0  0  0  0
 24 23  1  6  0  0  0
 24 25  1  0  0  0  0
 24 28  1  0  0  0  0
 24 29  1  0  0  0  0
 25 26  1  0  0  0  0
 26 27  1  0  0  0  0
 28 27  1  1  0  0  0
 28 32  1  0  0  0  0
 29 30  1  0  0  0  0
 30 31  1  0  0  0  0
 31 32  1  0  0  0  0
M  END
$$$$

 OpenBabel10082411353D

 32 34  0  0  0  0  0  0  0  0999 V2000
   13.2485    9.2493   -6.3668 O   0  0  0  0  0  0  0  0  0  0  0  0
   12.3055    9.1779   -7.4488 C   0  0  1  0  0  0  0  0  0  0  0  0
   12.5005    8.1033   -8.2440 C   0  0  0  0  0  0  0  0  0  0  0  0
   11.7072    8.0925   -9.4886 C   0  0  0  0  0  0  0  0  0  0  0  0
   12.2659    7.9483  -10.6668 C   0  0  0  0  0  0  0  0  0  0  0  0
   10.2869    8.0426   -9.4299 C   0  0  0  0  0  0  0  0  0  0  0  0
   13.6482    8.0497  -10.9162 O   0  0  0  0  0  0  0  0  0  0  0  0
   11.5356    7.8148  -11.9199 C   0  0  0  0  0  0  0  0  0  0  0  0
   12.2597    7.6523  -13.1838 C   0  0  0  0  0  0  0  0  0  0  0  0
    9.5345    7.8388  -10.6476 C   0  0  0  0  0  0  0  0  0  0  0  0
   12.7796    8.4277  -13.7325 O   0  0  0  0  0  0  0  0  0  0  0  0
   10.1724    7.7406  -11.8577 C   0  0  0  0  0  0  0  0  0  0  0  0
   12.4765    6.3392  -13.7439 N   0  0  0  0  0  0  0  0  0  0  0  0
    9.2368    7.4770  -13.0161 C   0  0  1  0  0  0  0  0  0  0  0  0
    8.7686    6.0601  -13.0538 C   0  0  0  0  0  0  0  0  0  0  0  0
   11.7377    5.1496  -13.1887 C   0  0  0  0  0  0  0  0  0  0  0  0
   10.9893    9.0510   -6.5404 C   0  0  0  0  0  0  0  0  0  0  0  0
   11.2522    8.1647   -5.3854 C   0  0  2  0  0  0  0  0  0  0  0  0
    7.8881    5.4892  -12.2818 C   0  0  0  0  0  0  0  0  0  0  0  0
    8.1030    8.4511  -12.9051 C   0  0  0  0  0  0  0  0  0  0  0  0
   11.2726    4.1709  -14.3554 C   0  0  0  0  0  0  0  0  0  0  0  0
   12.7640    9.8841   -5.1669 C   0  0  0  0  0  0  0  0  0  0  0  0
   10.2020    7.3447   -4.8869 O   0  0  0  0  0  0  0  0  0  0  0  0
    9.2807    5.2234  -14.0940 C   0  0  0  0  0  0  0  0  0  0  0  0
    9.9511    4.1599  -14.4562 C   0  0  0  0  0  0  0  0  0  0  0  0
   11.8540    8.9171   -4.3609 C   0  0  0  0  0  0  0  0  0  0  0  0
    7.1691    4.3941  -12.4554 C   0  0  0  0  0  0  0  0  0  0  0  0
    6.3412    3.9013  -11.6588 O   0  0  0  0  0  0  0  0  0  0  0  0
    9.3533    2.9767  -14.8229 C   0  0  0  0  0  0  0  0  0  0  0  0
    9.4435    2.6595  -16.1671 C   0  0  0  0  0  0  0  0  0  0  0  0
    9.0211    1.8843  -13.9238 C   0  0  0  0  0  0  0  0  0  0  0  0
    5.7468    2.7795  -12.0526 C   0  0  0  0  0  0  0  0  0  0  0  0
  1  2  1  0  0  0  0
  1 22  1  0  0  0  0
  2  3  1  6  0  0  0
  2 17  1  0  0  0  0
  3  4  1  0  0  0  0
  4  5  1  0  0  0  0
  4  6  2  0  0  0  0
  5  7  1  0  0  0  0
  5  8  2  0  0  0  0
  6 10  1  0  0  0  0
  8  9  1  0  0  0  0
  8 12  1  0  0  0  0
  9 11  2  0  0  0  0
  9 13  1  0  0  0  0
 10 12  2  0  0  0  0
 12 14  1  0  0  0  0
 13 16  1  0  0  0  0
 14 15  1  0  0  0  0
 14 20  1  1  0  0  0
 15 19  1  0  0  0  0
 15 24  2  0  0  0  0
 16 21  1  0  0  0  0
 17 18  1  0  0  0  0
 18 23  1  1  0  0  0
 18 26  1  0  0  0  0
 19 27  2  3  0  0  0
 21 25  1  0  0  0  0
 22 26  1  0  0  0  0
 24 25  1  0  0  0  0
 25 29  2  0  0  0  0
 27 28  1  0  0  0  0
 28 32  1  0  0  0  0
 29 30  1  0  0  0  0
 29 31  1  0  0  0  0
M  END
$$$$

 OpenBabel10082411353D

 32 37  0  0  0  0  0  0  0  0999 V2000
   13.1862    9.4584   -4.4987 C   0  0  0  0  0  0  0  0  0  0  0  0
   12.1466    8.8379   -3.9099 C   0  0  0  0  0  0  0  0  0  0  0  0
   12.9882    9.7409   -5.8618 C   0  0  0  0  0  0  0  0  0  0  0  0
   11.9761    9.3177   -6.5889 C   0  0  0  0  0  0  0  0  0  0  0  0
   10.9346    8.5066   -5.9096 C   0  0  0  0  0  0  0  0  0  0  0  0
   12.2569    8.5495   -2.4516 C   0  0  0  0  0  0  0  0  0  0  0  0
   11.0697    8.2577   -4.5299 C   0  0  0  0  0  0  0  0  0  0  0  0
   11.7350    9.5912   -7.9371 O   0  0  0  0  0  0  0  0  0  0  0  0
    9.7397    8.0780   -6.6393 C   0  0  0  0  0  0  0  0  0  0  0  0
   10.8649    8.8162   -8.5483 C   0  0  0  0  0  0  0  0  0  0  0  0
    9.2400    6.9866   -6.2549 O   0  0  0  0  0  0  0  0  0  0  0  0
   10.8576    9.1019   -9.9991 C   0  0  1  0  0  0  0  0  0  0  0  0
    9.7545    8.2308   -7.9658 N   0  0  0  0  0  0  0  0  0  0  0  0
   11.8976    8.3673  -10.5997 C   0  0  0  0  0  0  0  0  0  0  0  0
   11.6687    7.6743  -11.8116 C   0  0  0  0  0  0  0  0  0  0  0  0
   10.4759    7.1713  -12.1199 C   0  0  0  0  0  0  0  0  0  0  0  0
    9.2658    7.5505  -11.5870 C   0  0  0  0  0  0  0  0  0  0  0  0
    9.3960    8.5265  -10.3465 C   0  0  0  0  0  0  0  0  0  0  0  0
   10.3867    6.1959  -13.1101 C   0  0  0  0  0  0  0  0  0  0  0  0
   12.6748    7.0682  -12.6078 N   0  0  0  0  0  0  0  0  0  0  0  0
    8.0007    7.2083  -12.0491 C   0  0  0  0  0  0  0  0  0  0  0  0
   11.5794    6.1529  -13.7240 N   0  0  0  0  0  0  0  0  0  0  0  0
    9.1443    5.7122  -13.5791 C   0  0  0  0  0  0  0  0  0  0  0  0
    7.9712    6.1359  -12.9896 C   0  0  0  0  0  0  0  0  0  0  0  0
    9.0687    4.6447  -14.6004 C   0  0  0  0  0  0  0  0  0  0  0  0
    8.9962    3.2747  -14.1231 C   0  0  0  0  0  0  0  0  0  0  0  0
   12.2384    5.4079  -14.6353 C   0  0  0  0  0  0  0  0  0  0  0  0
    7.9407    2.5597  -14.0934 C   0  0  0  0  0  0  0  0  0  0  0  0
    7.8648    1.2455  -14.1116 C   0  0  0  0  0  0  0  0  0  0  0  0
    9.0593    0.4407  -14.2336 C   0  0  0  0  0  0  0  0  0  0  0  0
   10.2370    1.1370  -14.4908 C   0  0  0  0  0  0  0  0  0  0  0  0
   10.2989    2.5851  -14.5233 C   0  0  0  0  0  0  0  0  0  0  0  0
  1  2  1  0  0  0  0
  1  3  2  0  0  0  0
  2  6  1  0  0  0  0
  2  7  2  0  0  0  0
  3  4  1  0  0  0  0
  4  5  2  0  0  0  0
  4  8  1  0  0  0  0
  5  7  1  0  0  0  0
  5  9  1  0  0  0  0
  8 10  1  0  0  0  0
  9 11  2  0  0  0  0
  9 13  1  0  0  0  0
 10 13  2  0  0  0  0
 12 10  1  1  0  0  0
 12 14  1  0  0  0  0
 12 18  1  0  0  0  0
 14 15  1  0  0  0  0
 15 16  1  0  0  0  0
 15 20  2  0  0  0  0
 16 17  1  0  0  0  0
 16 19  2  0  0  0  0
 17 18  1  0  0  0  0
 17 21  2  0  0  0  0
 19 22  1  0  0  0  0
 19 23  1  0  0  0  0
 20 22  1  0  0  0  0
 21 24  1  0  0  0  0
 22 27  1  0  0  0  0
 23 24  2  0  0  0  0
 23 25  1  0  0  0  0
 25 26  1  0  0  0  0
 26 28  1  0  0  0  0
 26 32  2  0  0  0  0
 28 29  2  0  0  0  0
 29 30  1  0  0  0  0
 30 31  2  0  0  0  0
 31 32  1  0  0  0  0
M  END
$$$$

 OpenBabel10082411353D

 32 34  0  0  0  0  0  0  0  0999 V2000
   10.9951    9.9694   -4.9946 C   0  0  0  0  0  0  0  0  0  0  0  0
   11.7938    9.3762   -4.2463 C   0  0  0  0  0  0  0  0  0  0  0  0
   10.8673    9.4548   -6.4276 C   0  0  0  0  0  0  0  0  0  0  0  0
   11.6576    7.9117   -4.2944 C   0  0  0  0  0  0  0  0  0  0  0  0
   10.5498    8.0257   -6.4521 C   0  0  0  0  0  0  0  0  0  0  0  0
   11.4715    7.2752   -5.6166 C   0  0  0  0  0  0  0  0  0  0  0  0
   10.5840    7.5390   -7.9254 C   0  0  0  0  0  0  0  0  0  0  0  0
   11.4612    8.1494   -8.8322 C   0  0  0  0  0  0  0  0  0  0  0  0
   12.6250    8.6294   -8.4338 O   0  0  0  0  0  0  0  0  0  0  0  0
   11.0835    8.4395  -10.0740 O   0  0  0  0  0  0  0  0  0  0  0  0
   11.2938    7.5612  -11.0769 C   0  0  0  0  0  0  0  0  0  0  0  0
   10.1547    7.2525  -11.9492 C   0  0  0  0  0  0  0  0  0  0  0  0
   10.4293    6.5622  -13.1348 C   0  0  0  0  0  0  0  0  0  0  0  0
   11.7295    6.4217  -13.6243 C   0  0  0  0  0  0  0  0  0  0  0  0
    8.8120    7.3918  -11.4649 C   0  0  0  0  0  0  0  0  0  0  0  0
   12.5351    7.8894  -11.6869 C   0  0  0  0  0  0  0  0  0  0  0  0
   13.5778    8.4243  -10.9673 O   0  0  0  0  0  0  0  0  0  0  0  0
    7.7211    7.1761  -12.4323 C   0  0  0  0  0  0  0  0  0  0  0  0
   12.8103    7.0723  -12.8897 C   0  0  0  0  0  0  0  0  0  0  0  0
    7.0543    5.9667  -12.3369 C   0  0  0  0  0  0  0  0  0  0  0  0
    7.2392    8.1844  -13.1320 C   0  0  0  0  0  0  0  0  0  0  0  0
   12.0288    5.6463  -14.9695 C   0  0  0  0  0  0  0  0  0  0  0  0
   12.1531    6.3362  -16.0124 C   0  0  0  0  0  0  0  0  0  0  0  0
   12.1104    7.7782  -16.1296 C   0  0  0  0  0  0  0  0  0  0  0  0
   12.2469    5.5558  -17.3031 C   0  0  0  0  0  0  0  0  0  0  0  0
   12.3775    4.3174  -14.8523 C   0  0  0  0  0  0  0  0  0  0  0  0
   12.4336    4.2065  -17.2211 C   0  0  0  0  0  0  0  0  0  0  0  0
   12.4152    3.5841  -15.8853 C   0  0  0  0  0  0  0  0  0  0  0  0
    6.3098    5.6244  -13.3419 O   0  0  0  0  0  0  0  0  0  0  0  0
    7.4949    5.1349  -11.4692 N   0  0  0  0  0  0  0  0  0  0  0  0
    6.9584    3.6720  -11.4521 C   0  0  0  0  0  0  0  0  0  0  0  0
    5.6669    3.5245  -12.1321 C   0  0  0  0  0  0  0  0  0  0  0  0
  1  2  1  0  0  0  0
  1  3  1  0  0  0  0
  2  4  1  0  0  0  0
  3  5  1  0  0  0  0
  4  6  1  0  0  0  0
  5  6  1  0  0  0  0
  5  7  1  0  0  0  0
  7  8  1  0  0  0  0
  8  9  2  0  0  0  0
  8 10  1  0  0  0  0
 10 11  1  0  0  0  0
 11 12  1  0  0  0  0
 11 16  2  0  0  0  0
 12 13  2  0  0  0  0
 12 15  1  0  0  0  0
 13 14  1  0  0  0  0
 14 19  2  0  0  0  0
 14 22  1  0  0  0  0
 15 18  1  0  0  0  0
 16 17  1  0  0  0  0
 16 19  1  0  0  0  0
 18 20  1  0  0  0  0
 18 21  2  0  0  0  0
 20 29  2  0  0  0  0
 20 30  1  0  0  0  0
 22 23  2  0  0  0  0
 22 26  1  0  0  0  0
 23 24  1  0  0  0  0
 23 25  1  0  0  0  0
 25 27  2  0  0  0  0
 26 28  2  0  0  0  0
 27 28  1  0  0  0  0
 30 31  1  0  0  0  0
 31 32  1  0  0  0  0
M  END
$$$$

 OpenBabel10082411353D

 32 36  0  0  0  0  0  0  0  0999 V2000
   12.8881    8.7759   -3.5681 C   0  0  0  0  0  0  0  0  0  0  0  0
   11.9416    9.4732   -4.1220 C   0  0  0  0  0  0  0  0  0  0  0  0
   12.3556    7.6012   -2.6527 C   0  0  0  0  0  0  0  0  0  0  0  0
   11.8805    9.3400   -5.6557 C   0  0  0  0  0  0  0  0  0  0  0  0
   11.7716    6.5414   -3.3821 C   0  0  0  0  0  0  0  0  0  0  0  0
   10.8523    8.6585   -6.3310 C   0  0  0  0  0  0  0  0  0  0  0  0
   11.1142    8.2520   -7.7289 C   0  0  0  0  0  0  0  0  0  0  0  0
   10.0478    7.6568   -8.4887 C   0  0  0  0  0  0  0  0  0  0  0  0
   12.3648    8.4339   -8.3703 C   0  0  0  0  0  0  0  0  0  0  0  0
   12.6142    8.1352   -9.7322 C   0  0  0  0  0  0  0  0  0  0  0  0
   10.2852    7.3833   -9.9138 C   0  0  0  0  0  0  0  0  0  0  0  0
   11.5161    7.5808  -10.4860 C   0  0  0  0  0  0  0  0  0  0  0  0
   11.6641    7.2285  -11.8174 O   0  0  0  0  0  0  0  0  0  0  0  0
   10.8624    6.4419  -12.4395 C   0  0  0  0  0  0  0  0  0  0  0  0
   11.2693    5.8267  -13.4966 C   0  0  0  0  0  0  0  0  0  0  0  0
    9.5259    6.2192  -11.9953 C   0  0  0  0  0  0  0  0  0  0  0  0
    9.2551    6.6732  -10.5921 C   0  0  2  0  0  0  0  0  0  0  0  0
    8.1388    7.5201  -10.6434 O   0  0  0  0  0  0  0  0  0  0  0  0
   12.6263    6.1828  -14.1606 C   0  0  0  0  0  0  0  0  0  0  0  0
    7.2614    7.1893  -11.7193 C   0  0  2  0  0  0  0  0  0  0  0  0
   12.6352    7.3184  -14.7782 C   0  0  0  0  0  0  0  0  0  0  0  0
    8.2277    6.2735  -12.5381 C   0  0  0  0  0  0  0  0  0  0  0  0
    7.7180    5.1928  -13.4230 C   0  0  0  0  0  0  0  0  0  0  0  0
    8.4439    4.2015  -13.9045 C   0  0  0  0  0  0  0  0  0  0  0  0
    6.9950    8.4483  -12.4502 C   0  0  0  0  0  0  0  0  0  0  0  0
    7.7472    3.2985  -14.8364 C   0  0  0  0  0  0  0  0  0  0  0  0
    9.0300    5.4319   -9.7786 C   0  0  0  0  0  0  0  0  0  0  0  0
    8.1705    1.9584  -14.6092 C   0  0  0  0  0  0  0  0  0  0  0  0
    9.3621    1.6865  -14.2893 C   0  0  0  0  0  0  0  0  0  0  0  0
    9.8137    3.7826  -13.5228 C   0  0  1  0  0  0  0  0  0  0  0  0
   10.2036    2.5376  -13.7093 C   0  0  0  0  0  0  0  0  0  0  0  0
   11.0963    4.5076  -13.5490 O   0  0  0  0  0  0  0  0  0  0  0  0
  1  2  1  0  0  0  0
  1  3  1  0  0  0  0
  2  4  1  0  0  0  0
  3  5  1  0  0  0  0
  4  6  1  0  0  0  0
  6  7  1  0  0  0  0
  7  8  1  0  0  0  0
  7  9  2  0  0  0  0
  8 11  2  0  0  0  0
  9 10  1  0  0  0  0
 10 12  2  0  0  0  0
 11 12  1  0  0  0  0
 11 17  1  0  0  0  0
 12 13  1  0  0  0  0
 13 14  1  0  0  0  0
 14 15  2  0  0  0  0
 14 16  1  0  0  0  0
 15 19  1  0  0  0  0
 15 32  1  0  0  0  0
 16 17  1  0  0  0  0
 16 22  2  0  0  0  0
 17 18  1  0  0  0  0
 17 27  1  1  0  0  0
 18 20  1  0  0  0  0
 19 21  2  0  0  0  0
 20 22  1  0  0  0  0
 20 25  1  6  0  0  0
 22 23  1  0  0  0  0
 23 24  2  0  0  0  0
 24 26  1  0  0  0  0
 24 30  1  0  0  0  0
 26 28  2  0  0  0  0
 28 29  1  0  0  0  0
 29 31  2  0  0  0  0
 30 31  1  6  0  0  0
 30 32  1  0  0  0  0
M  END
$$$$

 OpenBabel10082411353D

 32 35  0  0  0  0  0  0  0  0999 V2000
   11.6836    6.0105   -4.8831 F   0  0  0  0  0  0  0  0  0  0  0  0
   11.2562    7.2206   -5.0294 C   0  0  0  0  0  0  0  0  0  0  0  0
   12.0125    8.2418   -4.4408 C   0  0  0  0  0  0  0  0  0  0  0  0
   11.1918    7.2706   -6.5237 C   0  0  0  0  0  0  0  0  0  0  0  0
   11.6999    8.4488   -3.1704 F   0  0  0  0  0  0  0  0  0  0  0  0
    9.8648    7.0908   -4.5314 F   0  0  0  0  0  0  0  0  0  0  0  0
   11.6831    8.5291   -6.9682 C   0  0  0  0  0  0  0  0  0  0  0  0
   10.4785    6.5189   -7.4033 C   0  0  0  0  0  0  0  0  0  0  0  0
   11.6979    8.6661   -8.4760 C   0  0  0  0  0  0  0  0  0  0  0  0
   11.6248    9.5853   -5.0030 C   0  0  0  0  0  0  0  0  0  0  0  0
   11.8604    9.7907   -6.2903 O   0  0  0  0  0  0  0  0  0  0  0  0
   13.3557    8.1748   -4.5947 F   0  0  0  0  0  0  0  0  0  0  0  0
   10.5427    6.6061   -8.7190 C   0  0  0  0  0  0  0  0  0  0  0  0
   11.1158    7.7103   -9.2540 C   0  0  0  0  0  0  0  0  0  0  0  0
   11.3757    7.6656  -10.5293 N   0  0  0  0  0  0  0  0  0  0  0  0
   10.7153    7.7096  -11.5405 C   0  0  0  0  0  0  0  0  0  0  0  0
   11.2483    7.4711  -12.8542 C   0  0  0  0  0  0  0  0  0  0  0  0
    9.3980    7.7820  -11.5398 C   0  0  0  0  0  0  0  0  0  0  0  0
    8.6055    7.5889  -12.6525 C   0  0  0  0  0  0  0  0  0  0  0  0
   12.7508    7.3705  -13.0162 O   0  0  0  0  0  0  0  0  0  0  0  0
   10.5299    7.1831  -13.9856 C   0  0  0  0  0  0  0  0  0  0  0  0
    7.0533    7.7371  -12.5396 C   0  0  0  0  0  0  0  0  0  0  0  0
   11.2041    6.8490  -15.2304 C   0  0  0  0  0  0  0  0  0  0  0  0
   11.6393    5.5333  -15.3864 C   0  0  0  0  0  0  0  0  0  0  0  0
    9.1955    7.2935  -13.8301 C   0  0  0  0  0  0  0  0  0  0  0  0
   12.5294    5.1116  -16.1609 C   0  0  0  0  0  0  0  0  0  0  0  0
   11.2315    4.4703  -14.3200 C   0  0  0  0  0  0  0  0  0  0  0  0
   13.0194    6.0876  -17.1697 C   0  0  0  0  0  0  0  0  0  0  0  0
   12.9874    3.8316  -16.1456 C   0  0  0  0  0  0  0  0  0  0  0  0
   12.3949    2.9126  -15.4671 C   0  0  0  0  0  0  0  0  0  0  0  0
   10.2274    4.8149  -13.2643 C   0  0  0  0  0  0  0  0  0  0  0  0
   11.5798    3.2383  -14.4599 C   0  0  0  0  0  0  0  0  0  0  0  0
  1  2  1  0  0  0  0
  2  3  1  0  0  0  0
  2  4  1  0  0  0  0
  2  6  1  0  0  0  0
  3  5  1  0  0  0  0
  3 10  1  0  0  0  0
  3 12  1  0  0  0  0
  4  7  1  0  0  0  0
  4  8  2  0  0  0  0
  7  9  2  0  0  0  0
  7 11  1  0  0  0  0
  8 13  1  0  0  0  0
  9 14  1  0  0  0  0
 10 11  1  0  0  0  0
 13 14  2  0  0  0  0
 14 15  1  0  0  0  0
 15 16  1  0  0  0  0
 16 17  1  0  0  0  0
 16 18  2  0  0  0  0
 17 20  1  0  0  0  0
 17 21  2  0  0  0  0
 18 19  1  0  0  0  0
 19 22  1  0  0  0  0
 19 25  2  0  0  0  0
 21 23  1  0  0  0  0
 21 25  1  0  0  0  0
 23 24  1  0  0  0  0
 24 26  2  0  0  0  0
 24 27  1  0  0  0  0
 26 28  1  0  0  0  0
 26 29  1  0  0  0  0
 27 31  1  0  0  0  0
 27 32  2  0  0  0  0
 29 30  2  0  0  0  0
 30 32  1  0  0  0  0
M  END
$$$$

 OpenBabel10082411353D

 32 37  0  0  0  0  0  0  0  0999 V2000
   13.1862    9.4584   -4.4987 C   0  0  0  0  0  0  0  0  0  0  0  0
   12.1466    8.8379   -3.9099 C   0  0  0  0  0  0  0  0  0  0  0  0
   12.9882    9.7409   -5.8618 C   0  0  0  0  0  0  0  0  0  0  0  0
   11.9761    9.3177   -6.5889 C   0  0  0  0  0  0  0  0  0  0  0  0
   10.9346    8.5066   -5.9096 C   0  0  0  0  0  0  0  0  0  0  0  0
   12.2569    8.5495   -2.4516 C   0  0  0  0  0  0  0  0  0  0  0  0
   11.0697    8.2577   -4.5299 C   0  0  0  0  0  0  0  0  0  0  0  0
   11.7350    9.5912   -7.9371 O   0  0  0  0  0  0  0  0  0  0  0  0
    9.7397    8.0780   -6.6393 C   0  0  0  0  0  0  0  0  0  0  0  0
   10.8649    8.8162   -8.5483 C   0  0  2  0  0  0  0  0  0  0  0  0
    9.2400    6.9866   -6.2549 O   0  0  0  0  0  0  0  0  0  0  0  0
   10.8576    9.1019   -9.9991 C   0  0  0  0  0  0  0  0  0  0  0  0
   11.8034    8.3801  -10.7004 C   0  0  0  0  0  0  0  0  0  0  0  0
    9.8033    8.2783   -8.0085 N   0  0  0  0  0  0  0  0  0  0  0  0
   11.4502    7.6515  -11.8595 C   0  0  0  0  0  0  0  0  0  0  0  0
   10.3061    7.2417  -12.2192 C   0  0  0  0  0  0  0  0  0  0  0  0
   12.5619    7.1376  -12.7423 C   0  0  0  0  0  0  0  0  0  0  0  0
    9.9519    6.4550  -13.3394 C   0  0  0  0  0  0  0  0  0  0  0  0
   12.3234    6.3860  -13.8374 C   0  0  0  0  0  0  0  0  0  0  0  0
   11.0086    6.0227  -14.1262 C   0  0  0  0  0  0  0  0  0  0  0  0
   10.7528    5.1903  -15.3140 C   0  0  0  0  0  0  0  0  0  0  0  0
   10.7272    3.7455  -15.1287 N   0  0  0  0  0  0  0  0  0  0  0  0
    9.8835    3.1820  -14.4607 C   0  0  0  0  0  0  0  0  0  0  0  0
    9.9418    1.8005  -14.3797 N   0  0  0  0  0  0  0  0  0  0  0  0
    8.5108    3.6485  -13.9676 C   0  0  0  0  0  0  0  0  0  0  0  0
   11.5680    2.8120  -15.7082 C   0  0  0  0  0  0  0  0  0  0  0  0
   11.0526    1.5952  -15.2424 C   0  0  0  0  0  0  0  0  0  0  0  0
    7.4647    2.8366  -13.8428 C   0  0  0  0  0  0  0  0  0  0  0  0
    8.5402    4.7178  -13.0294 C   0  0  1  0  0  0  0  0  0  0  0  0
    8.6430    6.0174  -13.4751 O   0  0  0  0  0  0  0  0  0  0  0  0
    6.4402    3.5733  -12.9054 C   0  0  0  0  0  0  0  0  0  0  0  0
    7.1181    4.8703  -12.4015 C   0  0  0  0  0  0  0  0  0  0  0  0
  1  2  1  0  0  0  0
  1  3  2  0  0  0  0
  2  6  1  0  0  0  0
  2  7  2  0  0  0  0
  3  4  1  0  0  0  0
  4  5  2  0  0  0  0
  4  8  1  0  0  0  0
  5  7  1  0  0  0  0
  5  9  1  0  0  0  0
  8 10  1  0  0  0  0
  9 11  2  0  0  0  0
  9 14  1  0  0  0  0
 10 12  1  6  0  0  0
 10 14  1  0  0  0  0
 12 13  1  0  0  0  0
 13 15  1  0  0  0  0
 15 16  2  0  0  0  0
 15 17  1  0  0  0  0
 16 18  1  0  0  0  0
 17 19  2  0  0  0  0
 18 20  2  0  0  0  0
 18 30  1  0  0  0  0
 19 20  1  0  0  0  0
 20 21  1  0  0  0  0
 21 22  1  0  0  0  0
 22 23  1  0  0  0  0
 22 26  1  0  0  0  0
 23 24  2  0  0  0  0
 23 25  1  0  0  0  0
 24 27  1  0  0  0  0
 25 28  2  0  0  0  0
 25 29  1  0  0  0  0
 26 27  2  0  0  0  0
 28 31  1  0  0  0  0
 29 30  1  0  0  0  0
 29 32  1  6  0  0  0
 31 32  1  0  0  0  0
M  END
$$$$

 OpenBabel10082411353D

 32 35  0  0  0  0  0  0  0  0999 V2000
   11.6836    6.0105   -4.8831 F   0  0  0  0  0  0  0  0  0  0  0  0
   11.2562    7.2206   -5.0294 C   0  0  0  0  0  0  0  0  0  0  0  0
   12.0125    8.2418   -4.4408 C   0  0  0  0  0  0  0  0  0  0  0  0
   11.1918    7.2706   -6.5237 C   0  0  2  0  0  0  0  0  0  0  0  0
   11.6999    8.4488   -3.1704 F   0  0  0  0  0  0  0  0  0  0  0  0
    9.8648    7.0908   -4.5314 F   0  0  0  0  0  0  0  0  0  0  0  0
   11.6831    8.5291   -6.9682 C   0  0  1  0  0  0  0  0  0  0  0  0
   13.3042    8.0958   -4.5769 F   0  0  0  0  0  0  0  0  0  0  0  0
   10.0051    6.7877   -7.1387 C   0  0  2  0  0  0  0  0  0  0  0  0
   12.1549    9.4036   -6.0698 C   0  0  0  0  0  0  0  0  0  0  0  0
   11.7460    9.5074   -4.8672 O   0  0  0  0  0  0  0  0  0  0  0  0
   12.5684    8.5172   -7.8652 C   0  0  0  0  0  0  0  0  0  0  0  0
   10.4250    8.9412   -7.4869 C   0  0  0  0  0  0  0  0  0  0  0  0
    9.8902    5.4070   -7.8206 C   0  0  1  0  0  0  0  0  0  0  0  0
    8.7348    4.6919   -7.6168 C   0  0  0  0  0  0  0  0  0  0  0  0
    9.5887    7.8633   -8.0188 C   0  0  1  0  0  0  0  0  0  0  0  0
   10.0149    7.4671   -9.3945 C   0  0  0  0  0  0  0  0  0  0  0  0
    8.7013    3.5197   -8.2148 C   0  0  0  0  0  0  0  0  0  0  0  0
    9.3794    3.4628   -9.4166 C   0  0  0  0  0  0  0  0  0  0  0  0
    9.7670    8.0902  -10.5147 C   0  0  0  0  0  0  0  0  0  0  0  0
   10.1630    7.7248  -11.8028 C   0  0  0  0  0  0  0  0  0  0  0  0
   10.1363    4.5235   -9.8811 C   0  0  0  0  0  0  0  0  0  0  0  0
   10.2836    5.8862   -9.1314 C   0  0  2  0  0  0  0  0  0  0  0  0
    9.2642    7.6154  -12.7688 C   0  0  0  0  0  0  0  0  0  0  0  0
    9.7352    7.0429  -13.9890 C   0  0  0  0  0  0  0  0  0  0  0  0
    8.9431    5.9978  -14.4048 C   0  0  0  0  0  0  0  0  0  0  0  0
    8.0476    5.1914  -13.6918 C   0  0  0  0  0  0  0  0  0  0  0  0
    8.1490    3.7734  -13.7660 C   0  0  0  0  0  0  0  0  0  0  0  0
    9.0736    2.9805  -14.4439 C   0  0  0  0  0  0  0  0  0  0  0  0
    9.2269    1.7697  -14.1720 O   0  0  0  0  0  0  0  0  0  0  0  0
    9.4150    3.2777  -15.6845 O   0  0  0  0  0  0  0  0  0  0  0  0
    7.1525    3.0099  -12.9154 C   0  0  0  0  0  0  0  0  0  0  0  0
  1  2  1  0  0  0  0
  2  3  1  0  0  0  0
  2  6  1  0  0  0  0
  3  5  1  0  0  0  0
  3  8  1  0  0  0  0
  3 11  1  0  0  0  0
  4  2  1  1  0  0  0
  4  7  1  0  0  0  0
  4  9  1  0  0  0  0
  7 10  1  0  0  0  0
  7 12  1  6  0  0  0
  7 13  1  0  0  0  0
  9 14  1  0  0  0  0
  9 16  1  0  0  0  0
 10 11  1  0  0  0  0
 13 16  1  0  0  0  0
 14 15  1  0  0  0  0
 14 23  1  0  0  0  0
 15 18  2  0  0  0  0
 16 17  1  0  0  0  0
 17 20  2  3  0  0  0
 17 23  1  0  0  0  0
 18 19  1  0  0  0  0
 19 22  2  0  0  0  0
 20 21  1  0  0  0  0
 21 24  2  3  0  0  0
 22 23  1  0  0  0  0
 24 25  1  0  0  0  0
 25 26  2  3  0  0  0
 26 27  1  0  0  0  0
 27 28  2  3  0  0  0
 28 29  1  0  0  0  0
 28 32  1  0  0  0  0
 29 30  1  0  0  0  0
 29 31  2  0  0  0  0
M  END
$$$$

 OpenBabel10082411353D

 22 23  0  0  0  0  0  0  0  0999 V2000
   10.5609    9.5535   -4.4702 C   0  0  0  0  0  0  0  0  0  0  0  0
   11.6839    9.1489   -3.9903 C   0  0  0  0  0  0  0  0  0  0  0  0
   10.2877    9.0819   -5.9027 C   0  0  0  0  0  0  0  0  0  0  0  0
   12.5988    8.2866   -4.5511 C   0  0  0  0  0  0  0  0  0  0  0  0
    9.1354    9.4655   -6.5857 F   0  0  0  0  0  0  0  0  0  0  0  0
   11.1707    8.1809   -6.5446 C   0  0  0  0  0  0  0  0  0  0  0  0
   12.2965    7.8202   -5.8436 C   0  0  0  0  0  0  0  0  0  0  0  0
   10.9616    7.7758   -7.8673 C   0  0  0  0  0  0  0  0  0  0  0  0
   11.8870    8.0568   -8.9476 C   0  0  0  0  0  0  0  0  0  0  0  0
   11.7274    7.7065  -10.2596 C   0  0  0  0  0  0  0  0  0  0  0  0
   10.5224    7.2064  -10.7734 N   0  0  0  0  0  0  0  0  0  0  0  0
   10.3032    6.9631  -12.0412 C   0  0  0  0  0  0  0  0  0  0  0  0
   10.9588    7.2444  -13.0977 O   0  0  0  0  0  0  0  0  0  0  0  0
    9.0031    6.1874  -12.3186 C   0  0  1  0  0  0  0  0  0  0  0  0
    8.9136    5.3701  -13.4886 C   0  0  0  0  0  0  0  0  0  0  0  0
    8.5776    5.3771  -11.1276 C   0  0  0  0  0  0  0  0  0  0  0  0
    9.0588    3.9600  -13.2120 C   0  0  1  0  0  0  0  0  0  0  0  0
    8.5805    4.0096  -11.7850 C   0  0  0  0  0  0  0  0  0  0  0  0
    8.2815    3.0010  -13.9732 C   0  0  0  0  0  0  0  0  0  0  0  0
    8.8515    1.9058  -14.2340 O   0  0  0  0  0  0  0  0  0  0  0  0
    8.1751    7.4724  -12.4958 C   0  0  0  0  0  0  0  0  0  0  0  0
    7.0041    3.0136  -13.8290 O   0  0  0  0  0  0  0  0  0  0  0  0
  1  2  2  0  0  0  0
  1  3  1  0  0  0  0
  2  4  1  0  0  0  0
  3  5  1  0  0  0  0
  3  6  2  0  0  0  0
  4  7  2  0  0  0  0
  6  7  1  0  0  0  0
  6  8  1  0  0  0  0
  8  9  2  3  0  0  0
  9 10  1  0  0  0  0
 10 11  2  3  0  0  0
 11 12  1  0  0  0  0
 12 13  2  0  0  0  0
 12 14  1  0  0  0  0
 14 15  1  0  0  0  0
 14 16  1  0  0  0  0
 14 21  1  6  0  0  0
 15 17  1  0  0  0  0
 16 18  1  0  0  0  0
 17 18  1  0  0  0  0
 17 19  1  6  0  0  0
 19 20  1  0  0  0  0
 19 22  2  0  0  0  0
M  END
$$$$

 OpenBabel10082411353D

 32 35  0  0  0  0  0  0  0  0999 V2000
   11.6836    6.0105   -4.8831 F   0  0  0  0  0  0  0  0  0  0  0  0
   11.2562    7.2206   -5.0294 C   0  0  0  0  0  0  0  0  0  0  0  0
   12.0125    8.2418   -4.4408 C   0  0  0  0  0  0  0  0  0  0  0  0
   11.1918    7.2706   -6.5237 C   0  0  0  0  0  0  0  0  0  0  0  0
   11.6999    8.4488   -3.1704 F   0  0  0  0  0  0  0  0  0  0  0  0
    9.8648    7.0908   -4.5314 F   0  0  0  0  0  0  0  0  0  0  0  0
   11.6831    8.5291   -6.9682 C   0  0  0  0  0  0  0  0  0  0  0  0
   10.4785    6.5189   -7.4033 C   0  0  0  0  0  0  0  0  0  0  0  0
   11.6979    8.6661   -8.4760 C   0  0  0  0  0  0  0  0  0  0  0  0
   11.6248    9.5853   -5.0030 C   0  0  0  0  0  0  0  0  0  0  0  0
   11.8604    9.7907   -6.2903 O   0  0  0  0  0  0  0  0  0  0  0  0
   13.3557    8.1748   -4.5947 F   0  0  0  0  0  0  0  0  0  0  0  0
   10.5427    6.6061   -8.7190 C   0  0  0  0  0  0  0  0  0  0  0  0
   11.1158    7.7103   -9.2540 C   0  0  0  0  0  0  0  0  0  0  0  0
   11.3757    7.6656  -10.5293 N   0  0  0  0  0  0  0  0  0  0  0  0
   10.7153    7.7096  -11.5405 C   0  0  0  0  0  0  0  0  0  0  0  0
   11.2483    7.4711  -12.8542 C   0  0  0  0  0  0  0  0  0  0  0  0
    9.3980    7.7820  -11.5398 C   0  0  0  0  0  0  0  0  0  0  0  0
    8.6055    7.5889  -12.6525 C   0  0  0  0  0  0  0  0  0  0  0  0
   12.7508    7.3705  -13.0162 O   0  0  0  0  0  0  0  0  0  0  0  0
   10.5299    7.1831  -13.9856 C   0  0  0  0  0  0  0  0  0  0  0  0
    7.0533    7.7371  -12.5396 C   0  0  0  0  0  0  0  0  0  0  0  0
   11.2041    6.8490  -15.2304 C   0  0  0  0  0  0  0  0  0  0  0  0
   11.6393    5.5333  -15.3864 C   0  0  0  0  0  0  0  0  0  0  0  0
    9.1955    7.2935  -13.8301 C   0  0  0  0  0  0  0  0  0  0  0  0
   12.5294    5.1116  -16.1609 C   0  0  0  0  0  0  0  0  0  0  0  0
   11.2315    4.4703  -14.3200 C   0  0  0  0  0  0  0  0  0  0  0  0
   13.0194    6.0876  -17.1697 C   0  0  0  0  0  0  0  0  0  0  0  0
   12.3991    7.3271  -17.2011 C   0  0  0  0  0  0  0  0  0  0  0  0
   11.6234    7.7212  -16.1065 C   0  0  0  0  0  0  0  0  0  0  0  0
   10.0052    4.0409  -14.1961 C   0  0  0  0  0  0  0  0  0  0  0  0
    9.7446    2.8994  -13.3286 C   0  0  0  0  0  0  0  0  0  0  0  0
  1  2  1  0  0  0  0
  2  3  1  0  0  0  0
  2  4  1  0  0  0  0
  2  6  1  0  0  0  0
  3  5  1  0  0  0  0
  3 10  1  0  0  0  0
  3 12  1  0  0  0  0
  4  7  1  0  0  0  0
  4  8  2  0  0  0  0
  7  9  2  0  0  0  0
  7 11  1  0  0  0  0
  8 13  1  0  0  0  0
  9 14  1  0  0  0  0
 10 11  1  0  0  0  0
 13 14  2  0  0  0  0
 14 15  1  0  0  0  0
 15 16  1  0  0  0  0
 16 17  1  0  0  0  0
 16 18  2  0  0  0  0
 17 20  1  0  0  0  0
 17 21  2  0  0  0  0
 18 19  1  0  0  0  0
 19 22  1  0  0  0  0
 19 25  2  0  0  0  0
 21 23  1  0  0  0  0
 21 25  1  0  0  0  0
 23 24  1  0  0  0  0
 23 30  2  0  0  0  0
 24 26  2  0  0  0  0
 24 27  1  0  0  0  0
 26 28  1  0  0  0  0
 27 31  2  3  0  0  0
 28 29  2  0  0  0  0
 29 30  1  0  0  0  0
 31 32  1  0  0  0  0
M  END
$$$$

 OpenBabel10082411353D

 33 36  0  0  0  0  0  0  0  0999 V2000
   11.6836    6.0105   -4.8831 F   0  0  0  0  0  0  0  0  0  0  0  0
   11.2562    7.2206   -5.0294 C   0  0  0  0  0  0  0  0  0  0  0  0
   12.0125    8.2418   -4.4408 C   0  0  0  0  0  0  0  0  0  0  0  0
   11.1918    7.2706   -6.5237 C   0  0  2  0  0  0  0  0  0  0  0  0
   11.6999    8.4488   -3.1704 F   0  0  0  0  0  0  0  0  0  0  0  0
    9.8648    7.0908   -4.5314 F   0  0  0  0  0  0  0  0  0  0  0  0
   11.6831    8.5291   -6.9682 C   0  0  1  0  0  0  0  0  0  0  0  0
   13.3042    8.0958   -4.5769 F   0  0  0  0  0  0  0  0  0  0  0  0
   10.0051    6.7877   -7.1387 C   0  0  2  0  0  0  0  0  0  0  0  0
   12.1549    9.4036   -6.0698 C   0  0  0  0  0  0  0  0  0  0  0  0
   11.7460    9.5074   -4.8672 O   0  0  0  0  0  0  0  0  0  0  0  0
   12.5684    8.5172   -7.8652 C   0  0  0  0  0  0  0  0  0  0  0  0
   10.4250    8.9412   -7.4869 C   0  0  0  0  0  0  0  0  0  0  0  0
    9.8902    5.4070   -7.8206 C   0  0  1  0  0  0  0  0  0  0  0  0
    8.7348    4.6919   -7.6168 C   0  0  0  0  0  0  0  0  0  0  0  0
    9.5887    7.8633   -8.0188 C   0  0  1  0  0  0  0  0  0  0  0  0
   10.0149    7.4671   -9.3945 C   0  0  0  0  0  0  0  0  0  0  0  0
    8.7013    3.5197   -8.2148 C   0  0  0  0  0  0  0  0  0  0  0  0
    9.3794    3.4628   -9.4166 C   0  0  0  0  0  0  0  0  0  0  0  0
    9.7670    8.0902  -10.5147 C   0  0  0  0  0  0  0  0  0  0  0  0
   10.1630    7.7248  -11.8028 C   0  0  0  0  0  0  0  0  0  0  0  0
   10.1363    4.5235   -9.8811 C   0  0  0  0  0  0  0  0  0  0  0  0
   10.2836    5.8862   -9.1314 C   0  0  2  0  0  0  0  0  0  0  0  0
    9.2642    7.6154  -12.7688 C   0  0  0  0  0  0  0  0  0  0  0  0
    9.7352    7.0429  -13.9890 C   0  0  0  0  0  0  0  0  0  0  0  0
    8.9431    5.9978  -14.4048 C   0  0  0  0  0  0  0  0  0  0  0  0
    8.0476    5.1914  -13.6918 C   0  0  0  0  0  0  0  0  0  0  0  0
    8.1490    3.7734  -13.7660 C   0  0  0  0  0  0  0  0  0  0  0  0
    9.0736    2.9805  -14.4439 C   0  0  0  0  0  0  0  0  0  0  0  0
    9.2269    1.7697  -14.1720 O   0  0  0  0  0  0  0  0  0  0  0  0
    9.9759    3.5500  -15.2441 O   0  0  0  0  0  0  0  0  0  0  0  0
    7.2265    3.0546  -12.8202 C   0  0  0  0  0  0  0  0  0  0  0  0
    6.3545    3.9348  -12.1482 C   0  0  0  0  0  0  0  0  0  0  0  0
  1  2  1  0  0  0  0
  2  3  1  0  0  0  0
  2  6  1  0  0  0  0
  3  5  1  0  0  0  0
  3  8  1  0  0  0  0
  3 11  1  0  0  0  0
  4  2  1  1  0  0  0
  4  7  1  0  0  0  0
  4  9  1  0  0  0  0
  7 10  1  0  0  0  0
  7 12  1  6  0  0  0
  7 13  1  0  0  0  0
  9 14  1  0  0  0  0
  9 16  1  0  0  0  0
 10 11  1  0  0  0  0
 13 16  1  0  0  0  0
 14 15  1  0  0  0  0
 14 23  1  0  0  0  0
 15 18  2  0  0  0  0
 16 17  1  0  0  0  0
 17 20  2  3  0  0  0
 17 23  1  0  0  0  0
 18 19  1  0  0  0  0
 19 22  2  0  0  0  0
 20 21  1  0  0  0  0
 21 24  2  3  0  0  0
 22 23  1  0  0  0  0
 24 25  1  0  0  0  0
 25 26  2  3  0  0  0
 26 27  1  0  0  0  0
 27 28  2  3  0  0  0
 28 29  1  0  0  0  0
 28 32  1  0  0  0  0
 29 30  1  0  0  0  0
 29 31  2  0  0  0  0
 32 33  1  0  0  0  0
M  END
$$$$

 OpenBabel10082411353D

 33 38  0  0  0  0  0  0  0  0999 V2000
   13.1862    9.4584   -4.4987 C   0  0  0  0  0  0  0  0  0  0  0  0
   12.1466    8.8379   -3.9099 C   0  0  0  0  0  0  0  0  0  0  0  0
   12.9882    9.7409   -5.8618 C   0  0  0  0  0  0  0  0  0  0  0  0
   11.9761    9.3177   -6.5889 C   0  0  0  0  0  0  0  0  0  0  0  0
   10.9346    8.5066   -5.9096 C   0  0  0  0  0  0  0  0  0  0  0  0
   12.2569    8.5495   -2.4516 C   0  0  0  0  0  0  0  0  0  0  0  0
   11.0697    8.2577   -4.5299 C   0  0  0  0  0  0  0  0  0  0  0  0
   11.7350    9.5912   -7.9371 O   0  0  0  0  0  0  0  0  0  0  0  0
    9.7397    8.0780   -6.6393 C   0  0  0  0  0  0  0  0  0  0  0  0
   10.8649    8.8162   -8.5483 C   0  0  0  0  0  0  0  0  0  0  0  0
    9.2400    6.9866   -6.2549 O   0  0  0  0  0  0  0  0  0  0  0  0
   10.8576    9.1019   -9.9991 C   0  0  1  0  0  0  0  0  0  0  0  0
    9.7545    8.2308   -7.9658 N   0  0  0  0  0  0  0  0  0  0  0  0
   11.8976    8.3673  -10.5997 C   0  0  0  0  0  0  0  0  0  0  0  0
   11.6687    7.6743  -11.8116 C   0  0  0  0  0  0  0  0  0  0  0  0
   10.4759    7.1713  -12.1199 C   0  0  0  0  0  0  0  0  0  0  0  0
    9.2658    7.5505  -11.5870 C   0  0  0  0  0  0  0  0  0  0  0  0
    9.3960    8.5265  -10.3465 C   0  0  0  0  0  0  0  0  0  0  0  0
   10.3867    6.1959  -13.1101 C   0  0  0  0  0  0  0  0  0  0  0  0
   12.6748    7.0682  -12.6078 N   0  0  0  0  0  0  0  0  0  0  0  0
    8.0007    7.2083  -12.0491 C   0  0  0  0  0  0  0  0  0  0  0  0
   11.5794    6.1529  -13.7240 N   0  0  0  0  0  0  0  0  0  0  0  0
    9.1443    5.7122  -13.5791 C   0  0  0  0  0  0  0  0  0  0  0  0
    7.9712    6.1359  -12.9896 C   0  0  0  0  0  0  0  0  0  0  0  0
    9.0687    4.6447  -14.6004 C   0  0  0  0  0  0  0  0  0  0  0  0
   12.2387    5.4209  -14.6894 C   0  0  0  0  0  0  0  0  0  0  0  0
    8.9208    3.2815  -14.0940 C   0  0  0  0  0  0  0  0  0  0  0  0
    7.7858    2.6407  -14.1140 C   0  0  0  0  0  0  0  0  0  0  0  0
    7.5472    1.3762  -13.8376 C   0  0  0  0  0  0  0  0  0  0  0  0
    6.2507    0.7530  -13.5970 C   0  0  0  0  0  0  0  0  0  0  0  0
   10.1127    2.4594  -14.2170 C   0  0  0  0  0  0  0  0  0  0  0  0
   10.0087    1.1250  -13.9022 C   0  0  0  0  0  0  0  0  0  0  0  0
    8.7431    0.4557  -13.7167 C   0  0  0  0  0  0  0  0  0  0  0  0
  1  2  1  0  0  0  0
  1  3  2  0  0  0  0
  2  6  1  0  0  0  0
  2  7  2  0  0  0  0
  3  4  1  0  0  0  0
  4  5  2  0  0  0  0
  4  8  1  0  0  0  0
  5  7  1  0  0  0  0
  5  9  1  0  0  0  0
  8 10  1  0  0  0  0
  9 11  2  0  0  0  0
  9 13  1  0  0  0  0
 10 13  2  0  0  0  0
 12 10  1  1  0  0  0
 12 14  1  0  0  0  0
 12 18  1  0  0  0  0
 14 15  1  0  0  0  0
 15 16  1  0  0  0  0
 15 20  2  0  0  0  0
 16 17  1  0  0  0  0
 16 19  2  0  0  0  0
 17 18  1  0  0  0  0
 17 21  2  0  0  0  0
 19 22  1  0  0  0  0
 19 23  1  0  0  0  0
 20 22  1  0  0  0  0
 21 24  1  0  0  0  0
 22 26  1  0  0  0  0
 23 24  2  0  0  0  0
 23 25  1  0  0  0  0
 25 27  1  0  0  0  0
 27 28  1  0  0  0  0
 27 31  2  0  0  0  0
 28 29  2  0  0  0  0
 29 30  1  0  0  0  0
 29 33  1  0  0  0  0
 31 32  1  0  0  0  0
 32 33  2  0  0  0  0
M  END
$$$$

 OpenBabel10082411353D

 33 37  0  0  0  0  0  0  0  0999 V2000
   12.8881    8.7759   -3.5681 C   0  0  0  0  0  0  0  0  0  0  0  0
   11.9416    9.4732   -4.1220 C   0  0  0  0  0  0  0  0  0  0  0  0
   12.3556    7.6012   -2.6527 C   0  0  0  0  0  0  0  0  0  0  0  0
   11.8805    9.3400   -5.6557 C   0  0  0  0  0  0  0  0  0  0  0  0
   11.7716    6.5414   -3.3821 C   0  0  0  0  0  0  0  0  0  0  0  0
   10.8523    8.6585   -6.3310 C   0  0  0  0  0  0  0  0  0  0  0  0
   11.1142    8.2520   -7.7289 C   0  0  0  0  0  0  0  0  0  0  0  0
   10.0478    7.6568   -8.4887 C   0  0  0  0  0  0  0  0  0  0  0  0
   12.3648    8.4339   -8.3703 C   0  0  0  0  0  0  0  0  0  0  0  0
   12.6142    8.1352   -9.7322 C   0  0  0  0  0  0  0  0  0  0  0  0
   10.2852    7.3833   -9.9138 C   0  0  0  0  0  0  0  0  0  0  0  0
   11.5161    7.5808  -10.4860 C   0  0  0  0  0  0  0  0  0  0  0  0
   11.6641    7.2285  -11.8174 O   0  0  0  0  0  0  0  0  0  0  0  0
   10.8624    6.4419  -12.4395 C   0  0  0  0  0  0  0  0  0  0  0  0
   11.2693    5.8267  -13.4966 C   0  0  0  0  0  0  0  0  0  0  0  0
    9.5259    6.2192  -11.9953 C   0  0  0  0  0  0  0  0  0  0  0  0
    9.2551    6.6732  -10.5921 C   0  0  2  0  0  0  0  0  0  0  0  0
    8.1388    7.5201  -10.6434 O   0  0  0  0  0  0  0  0  0  0  0  0
   12.6263    6.1828  -14.1606 C   0  0  0  0  0  0  0  0  0  0  0  0
    7.2614    7.1893  -11.7193 C   0  0  2  0  0  0  0  0  0  0  0  0
   12.6352    7.3184  -14.7782 C   0  0  0  0  0  0  0  0  0  0  0  0
    8.2277    6.2735  -12.5381 C   0  0  0  0  0  0  0  0  0  0  0  0
    7.7180    5.1928  -13.4230 C   0  0  0  0  0  0  0  0  0  0  0  0
    8.4439    4.2015  -13.9045 C   0  0  0  0  0  0  0  0  0  0  0  0
    6.9950    8.4483  -12.4502 C   0  0  0  0  0  0  0  0  0  0  0  0
    7.7472    3.2985  -14.8364 C   0  0  0  0  0  0  0  0  0  0  0  0
    9.0300    5.4319   -9.7786 C   0  0  0  0  0  0  0  0  0  0  0  0
    8.1705    1.9584  -14.6092 C   0  0  0  0  0  0  0  0  0  0  0  0
    9.3621    1.6865  -14.2893 C   0  0  0  0  0  0  0  0  0  0  0  0
    9.9085    4.0088  -13.8348 C   0  0  0  0  0  0  0  0  0  0  0  0
    9.8911    0.4282  -14.4990 O   0  0  0  0  0  0  0  0  0  0  0  0
   10.3495    2.6692  -14.0340 C   0  0  0  0  0  0  0  0  0  0  0  0
   10.7992    4.5736  -13.8473 C   0  0  0  0  0  0  0  0  0  0  0  0
  1  2  1  0  0  0  0
  1  3  1  0  0  0  0
  2  4  1  0  0  0  0
  3  5  1  0  0  0  0
  4  6  1  0  0  0  0
  6  7  1  0  0  0  0
  7  8  1  0  0  0  0
  7  9  2  0  0  0  0
  8 11  2  0  0  0  0
  9 10  1  0  0  0  0
 10 12  2  0  0  0  0
 11 12  1  0  0  0  0
 11 17  1  0  0  0  0
 12 13  1  0  0  0  0
 13 14  1  0  0  0  0
 14 15  2  0  0  0  0
 14 16  1  0  0  0  0
 15 19  1  0  0  0  0
 15 33  1  0  0  0  0
 16 17  1  0  0  0  0
 16 22  2  0  0  0  0
 17 18  1  0  0  0  0
 17 27  1  1  0  0  0
 18 20  1  0  0  0  0
 19 21  2  0  0  0  0
 20 22  1  0  0  0  0
 20 25  1  6  0  0  0
 22 23  1  0  0  0  0
 23 24  2  0  0  0  0
 24 26  1  0  0  0  0
 24 30  1  0  0  0  0
 26 28  2  0  0  0  0
 28 29  1  0  0  0  0
 29 31  1  0  0  0  0
 29 32  2  0  0  0  0
 30 32  1  0  0  0  0
 30 33  2  0  0  0  0
M  END
$$$$

 OpenBabel10082411353D

 33 37  0  0  0  0  0  0  0  0999 V2000
   11.6836    6.0105   -4.8831 C   0  0  0  0  0  0  0  0  0  0  0  0
   11.1291    7.0732   -5.4395 C   0  0  0  0  0  0  0  0  0  0  0  0
   10.6954    7.0156   -6.8073 C   0  0  0  0  0  0  0  0  0  0  0  0
   10.2502    8.1187   -7.5536 C   0  0  2  0  0  0  0  0  0  0  0  0
   11.1205    8.4712   -4.9629 C   0  0  0  0  0  0  0  0  0  0  0  0
   10.8655    8.3511   -8.7960 C   0  0  0  0  0  0  0  0  0  0  0  0
   10.2922    7.8843   -9.9985 C   0  0  0  0  0  0  0  0  0  0  0  0
   10.4654    9.6993   -5.6120 C   0  0  0  0  0  0  0  0  0  0  0  0
   10.3510    9.5971   -7.0014 C   0  0  0  0  0  0  0  0  0  0  0  0
   12.2462    6.3351   -3.5020 C   0  0  0  0  0  0  0  0  0  0  0  0
   11.0471    7.5309  -11.1063 C   0  0  0  0  0  0  0  0  0  0  0  0
   11.7288    8.6923   -3.6518 C   0  0  0  0  0  0  0  0  0  0  0  0
   12.3991    7.7501  -11.1145 C   0  0  0  0  0  0  0  0  0  0  0  0
   12.3738    7.7580   -2.9599 C   0  0  0  0  0  0  0  0  0  0  0  0
   13.1285    8.5075  -10.1661 O   0  0  0  0  0  0  0  0  0  0  0  0
    9.0407    7.3775  -10.0973 N   0  0  0  0  0  0  0  0  0  0  0  0
    8.9787    6.9473  -11.4664 N   0  0  0  0  0  0  0  0  0  0  0  0
   13.1012    7.4459  -12.3707 C   0  0  0  0  0  0  0  0  0  0  0  0
   12.2395    6.9724  -13.2444 C   0  0  0  0  0  0  0  0  0  0  0  0
   10.2768    7.0170  -11.9799 C   0  0  0  0  0  0  0  0  0  0  0  0
   12.9237    6.5822  -14.5759 O   0  0  0  0  0  0  0  0  0  0  0  0
   11.0572    6.7510  -13.2462 C   0  0  0  0  0  0  0  0  0  0  0  0
   12.2650    6.1507  -15.6975 C   0  0  0  0  0  0  0  0  0  0  0  0
    7.7685    6.4505  -12.1034 C   0  0  1  0  0  0  0  0  0  0  0  0
   12.4975    4.7151  -15.7689 C   0  0  0  0  0  0  0  0  0  0  0  0
    7.7650    4.9557  -12.2290 C   0  0  1  0  0  0  0  0  0  0  0  0
   11.6443    4.0539  -14.7592 C   0  0  0  0  0  0  0  0  0  0  0  0
    6.5619    6.9298  -11.4542 C   0  0  0  0  0  0  0  0  0  0  0  0
    8.7723    4.4204  -12.7835 O   0  0  0  0  0  0  0  0  0  0  0  0
    7.3314    4.4491  -11.0008 O   0  0  0  0  0  0  0  0  0  0  0  0
   10.8567    2.9341  -15.2326 C   0  0  0  0  0  0  0  0  0  0  0  0
    8.7098    3.4570  -13.5431 C   0  0  0  0  0  0  0  0  0  0  0  0
    9.3562    3.1209  -14.8659 C   0  0  0  0  0  0  0  0  0  0  0  0
  1  2  1  0  0  0  0
  1 10  2  0  0  0  0
  2  3  1  0  0  0  0
  2  5  2  0  0  0  0
  3  4  1  0  0  0  0
  4  6  1  6  0  0  0
  4  9  1  0  0  0  0
  5  8  1  0  0  0  0
  5 12  1  0  0  0  0
  6  7  1  0  0  0  0
  7 11  1  0  0  0  0
  7 16  2  0  0  0  0
  8  9  1  0  0  0  0
 10 14  1  0  0  0  0
 11 13  2  0  0  0  0
 11 20  1  0  0  0  0
 12 14  2  0  0  0  0
 13 15  1  0  0  0  0
 13 18  1  0  0  0  0
 16 17  1  0  0  0  0
 17 20  1  0  0  0  0
 17 24  1  0  0  0  0
 18 19  2  0  0  0  0
 19 21  1  0  0  0  0
 19 22  1  0  0  0  0
 20 22  2  0  0  0  0
 21 23  1  0  0  0  0
 23 25  1  0  0  0  0
 24 26  1  0  0  0  0
 24 28  1  1  0  0  0
 25 27  1  0  0  0  0
 26 29  1  0  0  0  0
 26 30  1  1  0  0  0
 27 31  1  0  0  0  0
 29 32  1  0  0  0  0
 31 33  1  0  0  0  0
 32 33  1  0  0  0  0
M  END
$$$$

 OpenBabel10082411353D

 33 37  0  0  0  0  0  0  0  0999 V2000
   11.6849    3.3051  -14.7886 C   0  0  0  0  0  0  0  0  0  0  0  0
   11.9222    4.4917  -14.7896 C   0  0  0  0  0  0  0  0  0  0  0  0
   10.4105    3.0506  -15.0123 C   0  0  0  0  0  0  0  0  0  0  0  0
   11.4495    5.4335  -14.4813 C   0  0  0  0  0  0  0  0  0  0  0  0
    9.5038    4.0445  -14.6973 C   0  0  0  0  0  0  0  0  0  0  0  0
    8.0744    3.8032  -14.7673 O   0  0  0  0  0  0  0  0  0  0  0  0
    7.4019    4.2664  -13.6471 C   0  0  0  0  0  0  0  0  0  0  0  0
   11.8713    6.8371  -14.3117 C   0  0  0  0  0  0  0  0  0  0  0  0
   12.8441    7.2889  -15.0274 O   0  0  0  0  0  0  0  0  0  0  0  0
    9.9408    5.3883  -14.5322 C   0  0  0  0  0  0  0  0  0  0  0  0
   11.9372    7.2052  -12.9834 O   0  0  0  0  0  0  0  0  0  0  0  0
    7.6871    5.3657  -12.9437 C   0  0  0  0  0  0  0  0  0  0  0  0
    6.6825    5.6376  -11.8704 C   0  0  0  0  0  0  0  0  0  0  0  0
   12.9330    7.4672  -12.1262 C   0  0  0  0  0  0  0  0  0  0  0  0
    5.6490    4.8336  -11.7379 C   0  0  0  0  0  0  0  0  0  0  0  0
    6.2655    3.3248  -13.2380 C   0  0  0  0  0  0  0  0  0  0  0  0
   12.5459    7.5503  -10.6847 C   0  0  0  0  0  0  0  0  0  0  0  0
    5.5326    3.6923  -12.2221 C   0  0  0  0  0  0  0  0  0  0  0  0
   13.2808    8.2749   -9.7966 C   0  0  0  0  0  0  0  0  0  0  0  0
   12.7625    8.4244   -8.5830 C   0  0  0  0  0  0  0  0  0  0  0  0
   11.1393    7.2655  -10.3421 C   0  0  0  0  0  0  0  0  0  0  0  0
   10.7436    7.4242   -9.1139 C   0  0  0  0  0  0  0  0  0  0  0  0
   11.5582    7.9816   -8.1804 C   0  0  0  0  0  0  0  0  0  0  0  0
   11.0885    8.1382   -6.7137 C   0  0  2  0  0  0  0  0  0  0  0  0
    9.8528    8.8294   -6.6452 C   0  0  0  0  0  0  0  0  0  0  0  0
    8.8998    8.0398   -6.0308 C   0  0  0  0  0  0  0  0  0  0  0  0
    8.8000    6.8793   -6.8449 N   0  0  0  0  0  0  0  0  0  0  0  0
   12.1255    9.0138   -5.8625 C   0  0  0  0  0  0  0  0  0  0  0  0
    9.8119    5.9123   -6.6317 C   0  0  0  0  0  0  0  0  0  0  0  0
   11.1833    6.5986   -6.3510 C   0  0  2  0  0  0  0  0  0  0  0  0
   12.3571    8.4725   -4.5613 C   0  0  0  0  0  0  0  0  0  0  0  0
   11.8179    6.2491   -5.1906 C   0  0  0  0  0  0  0  0  0  0  0  0
   12.5090    7.1737   -4.2677 C   0  0  0  0  0  0  0  0  0  0  0  0
  1  2  1  0  0  0  0
  1  3  2  0  0  0  0
  2  4  2  0  0  0  0
  3  5  1  0  0  0  0
  4  8  1  0  0  0  0
  4 10  1  0  0  0  0
  5  6  1  0  0  0  0
  5 10  2  0  0  0  0
  6  7  1  0  0  0  0
  7 12  2  0  0  0  0
  7 16  1  0  0  0  0
  8  9  2  0  0  0  0
  8 11  1  0  0  0  0
 11 14  1  0  0  0  0
 12 13  1  0  0  0  0
 13 15  2  0  0  0  0
 14 17  1  0  0  0  0
 15 18  1  0  0  0  0
 16 18  2  0  0  0  0
 17 19  1  0  0  0  0
 17 21  2  0  0  0  0
 19 20  2  0  0  0  0
 20 23  1  0  0  0  0
 21 22  1  0  0  0  0
 22 23  2  0  0  0  0
 24 23  1  6  0  0  0
 24 25  1  0  0  0  0
 24 28  1  0  0  0  0
 24 30  1  0  0  0  0
 25 26  1  0  0  0  0
 26 27  1  0  0  0  0
 27 29  1  0  0  0  0
 28 31  1  0  0  0  0
 30 29  1  1  0  0  0
 30 32  1  0  0  0  0
 31 33  1  0  0  0  0
 32 33  1  0  0  0  0
M  END
$$$$

 OpenBabel10082411353D

 33 37  0  0  0  0  0  0  0  0999 V2000
   11.6836    6.0105   -4.8831 C   0  0  0  0  0  0  0  0  0  0  0  0
   11.1291    7.0732   -5.4395 C   0  0  0  0  0  0  0  0  0  0  0  0
   10.6954    7.0156   -6.8073 C   0  0  0  0  0  0  0  0  0  0  0  0
   10.2502    8.1187   -7.5536 C   0  0  2  0  0  0  0  0  0  0  0  0
   11.1205    8.4712   -4.9629 C   0  0  0  0  0  0  0  0  0  0  0  0
   10.8655    8.3511   -8.7960 C   0  0  0  0  0  0  0  0  0  0  0  0
   10.2922    7.8843   -9.9985 C   0  0  0  0  0  0  0  0  0  0  0  0
   10.4654    9.6993   -5.6120 C   0  0  0  0  0  0  0  0  0  0  0  0
   10.3510    9.5971   -7.0014 C   0  0  0  0  0  0  0  0  0  0  0  0
   12.2462    6.3351   -3.5020 C   0  0  0  0  0  0  0  0  0  0  0  0
   11.0471    7.5309  -11.1063 C   0  0  0  0  0  0  0  0  0  0  0  0
   11.7288    8.6923   -3.6518 C   0  0  0  0  0  0  0  0  0  0  0  0
   12.3991    7.7501  -11.1145 C   0  0  0  0  0  0  0  0  0  0  0  0
   12.3738    7.7580   -2.9599 C   0  0  0  0  0  0  0  0  0  0  0  0
   13.1285    8.5075  -10.1661 O   0  0  0  0  0  0  0  0  0  0  0  0
    9.0407    7.3775  -10.0973 N   0  0  0  0  0  0  0  0  0  0  0  0
    8.9787    6.9473  -11.4664 N   0  0  0  0  0  0  0  0  0  0  0  0
   13.1012    7.4459  -12.3707 C   0  0  0  0  0  0  0  0  0  0  0  0
   12.2395    6.9724  -13.2444 C   0  0  0  0  0  0  0  0  0  0  0  0
   10.2768    7.0170  -11.9799 C   0  0  0  0  0  0  0  0  0  0  0  0
   12.9237    6.5822  -14.5759 O   0  0  0  0  0  0  0  0  0  0  0  0
   11.0572    6.7510  -13.2462 C   0  0  0  0  0  0  0  0  0  0  0  0
   12.2650    6.1507  -15.6975 C   0  0  0  0  0  0  0  0  0  0  0  0
    7.7685    6.4505  -12.1034 C   0  0  1  0  0  0  0  0  0  0  0  0
   12.4975    4.7151  -15.7689 C   0  0  0  0  0  0  0  0  0  0  0  0
    7.7650    4.9557  -12.2290 C   0  0  1  0  0  0  0  0  0  0  0  0
   11.6443    4.0539  -14.7592 C   0  0  0  0  0  0  0  0  0  0  0  0
    6.5619    6.9298  -11.4542 C   0  0  0  0  0  0  0  0  0  0  0  0
    8.7723    4.4204  -12.7835 O   0  0  0  0  0  0  0  0  0  0  0  0
    7.3314    4.4491  -11.0008 O   0  0  0  0  0  0  0  0  0  0  0  0
    6.0604    8.0295  -12.3294 C   0  0  0  0  0  0  0  0  0  0  0  0
   10.3478    3.6655  -14.9498 C   0  0  0  0  0  0  0  0  0  0  0  0
    8.9714    3.8631  -14.0207 C   0  0  0  0  0  0  0  0  0  0  0  0
  1  2  1  0  0  0  0
  1 10  2  0  0  0  0
  2  3  1  0  0  0  0
  2  5  2  0  0  0  0
  3  4  1  0  0  0  0
  4  6  1  6  0  0  0
  4  9  1  0  0  0  0
  5  8  1  0  0  0  0
  5 12  1  0  0  0  0
  6  7  1  0  0  0  0
  7 11  1  0  0  0  0
  7 16  2  0  0  0  0
  8  9  1  0  0  0  0
 10 14  1  0  0  0  0
 11 13  2  0  0  0  0
 11 20  1  0  0  0  0
 12 14  2  0  0  0  0
 13 15  1  0  0  0  0
 13 18  1  0  0  0  0
 16 17  1  0  0  0  0
 17 20  1  0  0  0  0
 17 24  1  0  0  0  0
 18 19  2  0  0  0  0
 19 21  1  0  0  0  0
 19 22  1  0  0  0  0
 20 22  2  0  0  0  0
 21 23  1  0  0  0  0
 23 25  1  0  0  0  0
 24 26  1  0  0  0  0
 24 28  1  1  0  0  0
 25 27  1  0  0  0  0
 26 29  1  0  0  0  0
 26 30  1  1  0  0  0
 27 32  1  0  0  0  0
 28 31  1  0  0  0  0
 29 33  1  0  0  0  0
 32 33  2  0  0  0  0
M  END
$$$$

 OpenBabel10082411353D

 33 36  0  0  0  0  0  0  0  0999 V2000
   13.2485    9.2493   -6.3668 O   0  0  0  0  0  0  0  0  0  0  0  0
   11.8899    9.2134   -6.2448 C   0  0  0  0  0  0  0  0  0  0  0  0
   11.2917    8.4721   -7.1451 C   0  0  2  0  0  0  0  0  0  0  0  0
   11.1607   10.4722   -6.0470 C   0  0  0  0  0  0  0  0  0  0  0  0
   11.7146    8.5849   -4.7285 C   0  0  0  0  0  0  0  0  0  0  0  0
   11.6048    7.0556   -7.3991 C   0  0  0  0  0  0  0  0  0  0  0  0
   11.5522    9.2671   -8.5027 C   0  0  0  0  0  0  0  0  0  0  0  0
   10.5349    6.2379   -8.0614 C   0  0  0  0  0  0  0  0  0  0  0  0
    9.9834    6.9098   -9.3038 C   0  0  0  0  0  0  0  0  0  0  0  0
   10.5974    8.8811   -9.6754 C   0  0  0  0  0  0  0  0  0  0  0  0
   10.6045    7.5897  -10.0974 N   0  0  0  0  0  0  0  0  0  0  0  0
    9.6760    5.4914   -7.3551 C   0  0  0  0  0  0  0  0  0  0  0  0
    8.7056    4.8568   -8.0881 C   0  0  0  0  0  0  0  0  0  0  0  0
   10.9736    7.1415  -11.3511 C   0  0  0  0  0  0  0  0  0  0  0  0
    7.9232    3.8578   -7.2500 C   0  0  0  0  0  0  0  0  0  0  0  0
    8.3920    5.1060   -9.3112 C   0  0  0  0  0  0  0  0  0  0  0  0
    7.3201    4.4688   -9.9616 F   0  0  0  0  0  0  0  0  0  0  0  0
    9.0246    6.1537  -10.1135 C   0  0  0  0  0  0  0  0  0  0  0  0
   12.1533    7.6135  -11.9131 C   0  0  0  0  0  0  0  0  0  0  0  0
    8.2673    2.6446   -7.5038 O   0  0  0  0  0  0  0  0  0  0  0  0
    9.9435    6.5604  -12.0452 C   0  0  0  0  0  0  0  0  0  0  0  0
   13.1149    8.1847  -11.2029 O   0  0  0  0  0  0  0  0  0  0  0  0
    8.9379    5.9430  -11.3032 C   0  0  0  0  0  0  0  0  0  0  0  0
    7.0966    4.0684   -6.4725 O   0  0  0  0  0  0  0  0  0  0  0  0
    9.8888    6.3890  -13.4419 C   0  0  0  0  0  0  0  0  0  0  0  0
   12.3073    7.3410  -13.2971 C   0  0  0  0  0  0  0  0  0  0  0  0
   13.5106    7.7317  -13.9365 F   0  0  0  0  0  0  0  0  0  0  0  0
   11.3718    6.7844  -14.1043 C   0  0  0  0  0  0  0  0  0  0  0  0
   11.5943    6.4629  -15.3587 O   0  0  0  0  0  0  0  0  0  0  0  0
   11.7683    5.1004  -15.6712 C   0  0  0  0  0  0  0  0  0  0  0  0
   10.8590    4.2533  -15.1703 C   0  0  0  0  0  0  0  0  0  0  0  0
   11.3666    3.0013  -14.6932 C   0  0  0  0  0  0  0  0  0  0  0  0
   10.6826    2.5938  -13.5230 O   0  0  0  0  0  0  0  0  0  0  0  0
  1  2  1  0  0  0  0
  2  4  1  0  0  0  0
  2  5  1  0  0  0  0
  3  2  1  1  0  0  0
  3  6  1  0  0  0  0
  3  7  1  0  0  0  0
  6  8  1  0  0  0  0
  7 10  1  0  0  0  0
  8  9  1  0  0  0  0
  8 12  2  0  0  0  0
  9 11  1  0  0  0  0
  9 18  2  0  0  0  0
 10 11  1  0  0  0  0
 11 14  1  0  0  0  0
 12 13  1  0  0  0  0
 13 15  1  0  0  0  0
 13 16  2  0  0  0  0
 14 19  1  0  0  0  0
 14 21  2  0  0  0  0
 15 20  1  0  0  0  0
 15 24  2  0  0  0  0
 16 17  1  0  0  0  0
 16 18  1  0  0  0  0
 18 23  1  0  0  0  0
 19 22  1  0  0  0  0
 19 26  2  0  0  0  0
 21 23  1  0  0  0  0
 21 25  1  0  0  0  0
 25 28  2  0  0  0  0
 26 27  1  0  0  0  0
 26 28  1  0  0  0  0
 28 29  1  0  0  0  0
 29 30  1  0  0  0  0
 30 31  1  0  0  0  0
 31 32  1  0  0  0  0
 32 33  1  0  0  0  0
M  END
$$$$

 OpenBabel10082411353D

 33 37  0  0  0  0  0  0  0  0999 V2000
   11.6836    6.0105   -4.8831 C   0  0  0  0  0  0  0  0  0  0  0  0
   11.1291    7.0732   -5.4395 C   0  0  0  0  0  0  0  0  0  0  0  0
   10.6954    7.0156   -6.8073 C   0  0  0  0  0  0  0  0  0  0  0  0
   10.2502    8.1187   -7.5536 C   0  0  2  0  0  0  0  0  0  0  0  0
   11.1205    8.4712   -4.9629 C   0  0  0  0  0  0  0  0  0  0  0  0
   10.8655    8.3511   -8.7960 C   0  0  0  0  0  0  0  0  0  0  0  0
   10.2922    7.8843   -9.9985 C   0  0  0  0  0  0  0  0  0  0  0  0
   10.4654    9.6993   -5.6120 C   0  0  0  0  0  0  0  0  0  0  0  0
   10.3510    9.5971   -7.0014 C   0  0  0  0  0  0  0  0  0  0  0  0
   12.2462    6.3351   -3.5020 C   0  0  0  0  0  0  0  0  0  0  0  0
   11.0471    7.5309  -11.1063 C   0  0  0  0  0  0  0  0  0  0  0  0
   11.7288    8.6923   -3.6518 C   0  0  0  0  0  0  0  0  0  0  0  0
   12.3991    7.7501  -11.1145 C   0  0  0  0  0  0  0  0  0  0  0  0
   12.3738    7.7580   -2.9599 C   0  0  0  0  0  0  0  0  0  0  0  0
   13.1285    8.5075  -10.1661 O   0  0  0  0  0  0  0  0  0  0  0  0
    9.0407    7.3775  -10.0973 N   0  0  0  0  0  0  0  0  0  0  0  0
    8.9787    6.9473  -11.4664 N   0  0  0  0  0  0  0  0  0  0  0  0
   13.1012    7.4459  -12.3707 C   0  0  0  0  0  0  0  0  0  0  0  0
   12.2395    6.9724  -13.2444 C   0  0  0  0  0  0  0  0  0  0  0  0
   10.2768    7.0170  -11.9799 C   0  0  0  0  0  0  0  0  0  0  0  0
   12.9237    6.5822  -14.5759 O   0  0  0  0  0  0  0  0  0  0  0  0
   11.0572    6.7510  -13.2462 C   0  0  0  0  0  0  0  0  0  0  0  0
   12.2650    6.1507  -15.6975 C   0  0  0  0  0  0  0  0  0  0  0  0
    7.7685    6.4505  -12.1034 C   0  0  1  0  0  0  0  0  0  0  0  0
   12.4975    4.7151  -15.7689 C   0  0  0  0  0  0  0  0  0  0  0  0
    7.7650    4.9557  -12.2290 C   0  0  1  0  0  0  0  0  0  0  0  0
   11.6443    4.0539  -14.7592 C   0  0  0  0  0  0  0  0  0  0  0  0
    6.5619    6.9298  -11.4542 C   0  0  0  0  0  0  0  0  0  0  0  0
    8.7723    4.4204  -12.7835 O   0  0  0  0  0  0  0  0  0  0  0  0
    7.3314    4.4491  -11.0008 O   0  0  0  0  0  0  0  0  0  0  0  0
   10.8567    2.9341  -15.2326 C   0  0  0  0  0  0  0  0  0  0  0  0
    8.7098    3.4570  -13.5431 C   0  0  0  0  0  0  0  0  0  0  0  0
    9.7061    2.6969  -14.2505 C   0  0  0  0  0  0  0  0  0  0  0  0
  1  2  1  0  0  0  0
  1 10  2  0  0  0  0
  2  3  1  0  0  0  0
  2  5  2  0  0  0  0
  3  4  1  0  0  0  0
  4  6  1  6  0  0  0
  4  9  1  0  0  0  0
  5  8  1  0  0  0  0
  5 12  1  0  0  0  0
  6  7  1  0  0  0  0
  7 11  1  0  0  0  0
  7 16  2  0  0  0  0
  8  9  1  0  0  0  0
 10 14  1  0  0  0  0
 11 13  2  0  0  0  0
 11 20  1  0  0  0  0
 12 14  2  0  0  0  0
 13 15  1  0  0  0  0
 13 18  1  0  0  0  0
 16 17  1  0  0  0  0
 17 20  1  0  0  0  0
 17 24  1  0  0  0  0
 18 19  2  0  0  0  0
 19 21  1  0  0  0  0
 19 22  1  0  0  0  0
 20 22  2  0  0  0  0
 21 23  1  0  0  0  0
 23 25  1  0  0  0  0
 24 26  1  0  0  0  0
 24 28  1  1  0  0  0
 25 27  1  0  0  0  0
 26 29  1  0  0  0  0
 26 30  1  1  0  0  0
 27 31  1  0  0  0  0
 29 32  1  0  0  0  0
 31 33  1  0  0  0  0
 32 33  2  0  0  0  0
M  END
$$$$

 OpenBabel10082411353D

 33 37  0  0  0  0  0  0  0  0999 V2000
   12.7863    7.8241  -14.2109 C   0  0  0  0  0  0  0  0  0  0  0  0
   12.4233    7.7158  -13.0289 C   0  0  0  0  0  0  0  0  0  0  0  0
   11.3194    6.8571  -12.8028 C   0  0  0  0  0  0  0  0  0  0  0  0
   12.3150    7.2021  -15.3582 C   0  0  0  0  0  0  0  0  0  0  0  0
   11.2733    6.2739  -15.1502 C   0  0  0  0  0  0  0  0  0  0  0  0
   10.8099    6.0126  -13.8600 C   0  0  0  0  0  0  0  0  0  0  0  0
    9.6782    5.1428  -13.6488 C   0  0  0  0  0  0  0  0  0  0  0  0
    8.5753    5.3880  -12.9589 N   0  0  0  0  0  0  0  0  0  0  0  0
    8.3226    6.7011  -12.3862 C   0  0  0  0  0  0  0  0  0  0  0  0
    9.8502    3.8578  -14.0728 C   0  0  0  0  0  0  0  0  0  0  0  0
    7.3864    7.4720  -13.0530 C   0  0  0  0  0  0  0  0  0  0  0  0
    6.2412    7.8486  -12.2599 C   0  0  0  0  0  0  0  0  0  0  0  0
    7.6425    4.4186  -12.7943 C   0  0  0  0  0  0  0  0  0  0  0  0
   11.0297    3.2482  -14.8053 C   0  0  0  0  0  0  0  0  0  0  0  0
    8.6802    2.8955  -13.7960 C   0  0  0  0  0  0  0  0  0  0  0  0
    8.8565    1.5917  -14.3582 O   0  0  0  0  0  0  0  0  0  0  0  0
    7.6903    3.2226  -13.1994 N   0  0  0  0  0  0  0  0  0  0  0  0
    6.5724    2.3444  -12.8378 C   0  0  0  0  0  0  0  0  0  0  0  0
    9.0225    7.0353  -11.3259 C   0  0  0  0  0  0  0  0  0  0  0  0
    6.4787    4.7532  -12.1787 O   0  0  0  0  0  0  0  0  0  0  0  0
   10.5868    7.0468  -11.5199 C   0  0  0  0  0  0  0  0  0  0  0  0
   11.2761    7.4007  -10.4131 C   0  0  0  0  0  0  0  0  0  0  0  0
    8.6862    7.4300   -9.9877 C   0  0  0  0  0  0  0  0  0  0  0  0
    9.4326    7.6744   -8.9657 C   0  0  0  0  0  0  0  0  0  0  0  0
   10.6794    7.6568   -9.1312 C   0  0  2  0  0  0  0  0  0  0  0  0
    8.9269    7.9839   -7.6612 C   0  0  1  0  0  0  0  0  0  0  0  0
   11.6309    7.9931   -8.0642 C   0  0  0  0  0  0  0  0  0  0  0  0
    8.3711    7.1403   -7.0209 O   0  0  0  0  0  0  0  0  0  0  0  0
    9.8765    8.4197   -6.5527 C   0  0  0  0  0  0  0  0  0  0  0  0
   11.3201    8.0150   -6.9666 C   0  0  0  0  0  0  0  0  0  0  0  0
   12.2708    8.1718   -5.7201 C   0  0  0  0  0  0  0  0  0  0  0  0
   11.9396    7.3225   -4.6276 C   0  0  0  0  0  0  0  0  0  0  0  0
   12.7152    9.5214   -5.2867 C   0  0  0  0  0  0  0  0  0  0  0  0
  1  2  2  0  0  0  0
  1  4  1  0  0  0  0
  2  3  1  0  0  0  0
  3  6  2  0  0  0  0
  3 21  1  0  0  0  0
  4  5  2  0  0  0  0
  5  6  1  0  0  0  0
  6  7  1  0  0  0  0
  7  8  1  0  0  0  0
  7 10  2  0  0  0  0
  8  9  1  0  0  0  0
  8 13  1  0  0  0  0
  9 11  1  0  0  0  0
  9 19  2  0  0  0  0
 10 14  1  0  0  0  0
 10 15  1  0  0  0  0
 11 12  1  0  0  0  0
 13 17  1  0  0  0  0
 13 20  2  0  0  0  0
 15 16  2  0  0  0  0
 15 17  1  0  0  0  0
 17 18  1  0  0  0  0
 19 21  1  0  0  0  0
 19 23  1  0  0  0  0
 21 22  2  0  0  0  0
 23 24  2  0  0  0  0
 24 25  1  0  0  0  0
 24 26  1  0  0  0  0
 25 22  1  6  0  0  0
 25 27  1  0  0  0  0
 26 28  1  1  0  0  0
 26 29  1  0  0  0  0
 27 30  2  0  0  0  0
 29 30  1  0  0  0  0
 30 31  1  0  0  0  0
 31 32  1  0  0  0  0
 31 33  1  0  0  0  0
M  END
$$$$

 OpenBabel10082411353D

 22 25  0  0  0  0  0  0  0  0999 V2000
    8.0839    8.8860  -12.2561 C   0  0  0  0  0  0  0  0  0  0  0  0
    8.8273    7.7579  -12.2078 C   0  0  1  0  0  0  0  0  0  0  0  0
   10.1224    7.6608  -11.7635 C   0  0  0  0  0  0  0  0  0  0  0  0
    8.0207    6.6286  -11.5139 C   0  0  1  0  0  0  0  0  0  0  0  0
   10.3983    7.6617  -10.4085 C   0  0  0  0  0  0  0  0  0  0  0  0
   11.1796    7.3921  -12.6684 C   0  0  0  0  0  0  0  0  0  0  0  0
   11.7852    7.6560   -9.9808 C   0  0  0  0  0  0  0  0  0  0  0  0
    7.6417    5.4729  -12.5527 C   0  0  0  0  0  0  0  0  0  0  0  0
    6.4084    5.1570  -12.4330 C   0  0  0  0  0  0  0  0  0  0  0  0
   12.5068    7.3608  -12.2820 C   0  0  0  0  0  0  0  0  0  0  0  0
   12.0871    7.7355   -8.5565 C   0  0  0  0  0  0  0  0  0  0  0  0
    6.2013    3.7420  -13.0865 C   0  0  0  0  0  0  0  0  0  0  0  0
   12.7831    7.4995  -10.9693 C   0  0  0  0  0  0  0  0  0  0  0  0
   10.9919    8.0814   -7.6989 C   0  0  0  0  0  0  0  0  0  0  0  0
   10.7921    7.0977   -6.6776 C   0  0  0  0  0  0  0  0  0  0  0  0
   11.6280    7.1755   -5.5801 C   0  0  0  0  0  0  0  0  0  0  0  0
   11.7953    8.4697   -4.9108 C   0  0  0  0  0  0  0  0  0  0  0  0
   11.9083    9.5297   -5.7974 C   0  0  0  0  0  0  0  0  0  0  0  0
   11.1027    9.5166   -7.0312 C   0  0  0  0  0  0  0  0  0  0  0  0
    9.6186    8.2084   -8.3013 C   0  0  0  0  0  0  0  0  0  0  0  0
    9.4898    7.2155   -9.4480 C   0  0  1  0  0  0  0  0  0  0  0  0
    8.6892    6.3111  -10.2846 C   0  0  0  0  0  0  0  0  0  0  0  0
  2  1  1  1  0  0  0
  2  3  1  0  0  0  0
  2  4  1  0  0  0  0
  3  5  1  0  0  0  0
  3  6  2  0  0  0  0
  4  8  1  6  0  0  0
  4 22  1  0  0  0  0
  5  7  2  0  0  0  0
  5 21  1  0  0  0  0
  6 10  1  0  0  0  0
  7 11  1  0  0  0  0
  7 13  1  0  0  0  0
  8  9  1  0  0  0  0
  9 12  1  0  0  0  0
 10 13  2  0  0  0  0
 11 14  1  0  0  0  0
 14 15  1  0  0  0  0
 14 19  1  0  0  0  0
 14 20  1  0  0  0  0
 15 16  1  0  0  0  0
 16 17  1  0  0  0  0
 17 18  1  0  0  0  0
 18 19  1  0  0  0  0
 21 20  1  6  0  0  0
 21 22  1  0  0  0  0
M  END
$$$$

 OpenBabel10082411353D

 33 37  0  0  0  0  0  0  0  0999 V2000
   11.6836    6.0105   -4.8831 C   0  0  0  0  0  0  0  0  0  0  0  0
   11.1291    7.0732   -5.4395 C   0  0  0  0  0  0  0  0  0  0  0  0
   10.6954    7.0156   -6.8073 C   0  0  0  0  0  0  0  0  0  0  0  0
   10.2502    8.1187   -7.5536 C   0  0  2  0  0  0  0  0  0  0  0  0
   11.1205    8.4712   -4.9629 C   0  0  0  0  0  0  0  0  0  0  0  0
   10.8655    8.3511   -8.7960 C   0  0  0  0  0  0  0  0  0  0  0  0
   10.2922    7.8843   -9.9985 C   0  0  0  0  0  0  0  0  0  0  0  0
   10.4654    9.6993   -5.6120 C   0  0  0  0  0  0  0  0  0  0  0  0
   10.3510    9.5971   -7.0014 C   0  0  0  0  0  0  0  0  0  0  0  0
   12.2462    6.3351   -3.5020 C   0  0  0  0  0  0  0  0  0  0  0  0
   11.0471    7.5309  -11.1063 C   0  0  0  0  0  0  0  0  0  0  0  0
   11.7288    8.6923   -3.6518 C   0  0  0  0  0  0  0  0  0  0  0  0
   12.3991    7.7501  -11.1145 C   0  0  0  0  0  0  0  0  0  0  0  0
   12.3738    7.7580   -2.9599 C   0  0  0  0  0  0  0  0  0  0  0  0
   13.1285    8.5075  -10.1661 O   0  0  0  0  0  0  0  0  0  0  0  0
    9.0407    7.3775  -10.0973 N   0  0  0  0  0  0  0  0  0  0  0  0
    8.9787    6.9473  -11.4664 N   0  0  0  0  0  0  0  0  0  0  0  0
   13.1012    7.4459  -12.3707 C   0  0  0  0  0  0  0  0  0  0  0  0
   12.2395    6.9724  -13.2444 C   0  0  0  0  0  0  0  0  0  0  0  0
   10.2768    7.0170  -11.9799 C   0  0  0  0  0  0  0  0  0  0  0  0
   12.9237    6.5822  -14.5759 O   0  0  0  0  0  0  0  0  0  0  0  0
   10.8906    6.6526  -13.2252 C   0  0  0  0  0  0  0  0  0  0  0  0
   12.2396    6.1290  -15.6916 C   0  0  0  0  0  0  0  0  0  0  0  0
    7.8036    6.1825  -11.9342 C   0  0  0  0  0  0  0  0  0  0  0  0
   12.5015    4.7115  -15.7686 C   0  0  0  0  0  0  0  0  0  0  0  0
    7.1685    6.9992  -12.8245 C   0  0  0  0  0  0  0  0  0  0  0  0
   11.2461    3.8540  -15.4851 C   0  0  0  0  0  0  0  0  0  0  0  0
    7.6237    4.9154  -11.6529 C   0  0  0  0  0  0  0  0  0  0  0  0
   11.5093    2.6199  -15.0838 O   0  0  0  0  0  0  0  0  0  0  0  0
    6.0261    6.2586  -13.3813 C   0  0  0  0  0  0  0  0  0  0  0  0
    6.0000    4.8822  -12.9816 C   0  0  0  0  0  0  0  0  0  0  0  0
    6.7431    4.2616  -12.1933 C   0  0  0  0  0  0  0  0  0  0  0  0
   10.1533    4.4558  -15.0701 O   0  0  0  0  0  0  0  0  0  0  0  0
  1  2  1  0  0  0  0
  1 10  2  0  0  0  0
  2  3  1  0  0  0  0
  2  5  2  0  0  0  0
  3  4  1  0  0  0  0
  4  6  1  6  0  0  0
  4  9  1  0  0  0  0
  5  8  1  0  0  0  0
  5 12  1  0  0  0  0
  6  7  1  0  0  0  0
  7 11  1  0  0  0  0
  7 16  2  0  0  0  0
  8  9  1  0  0  0  0
 10 14  1  0  0  0  0
 11 13  2  0  0  0  0
 11 20  1  0  0  0  0
 12 14  2  0  0  0  0
 13 15  1  0  0  0  0
 13 18  1  0  0  0  0
 16 17  1  0  0  0  0
 17 20  1  0  0  0  0
 17 24  1  0  0  0  0
 18 19  2  0  0  0  0
 19 21  1  0  0  0  0
 19 22  1  0  0  0  0
 20 22  2  0  0  0  0
 21 23  1  0  0  0  0
 23 25  1  0  0  0  0
 24 26  2  0  0  0  0
 24 28  1  0  0  0  0
 25 27  1  0  0  0  0
 26 30  1  0  0  0  0
 27 29  2  0  0  0  0
 27 33  1  0  0  0  0
 28 32  2  0  0  0  0
 30 31  2  0  0  0  0
 31 32  1  0  0  0  0
M  END
$$$$

 OpenBabel10082411353D

 33 37  0  0  0  0  0  0  0  0999 V2000
   11.6836    6.0105   -4.8831 C   0  0  0  0  0  0  0  0  0  0  0  0
   11.1291    7.0732   -5.4395 C   0  0  0  0  0  0  0  0  0  0  0  0
   10.6954    7.0156   -6.8073 C   0  0  0  0  0  0  0  0  0  0  0  0
   10.2502    8.1187   -7.5536 C   0  0  2  0  0  0  0  0  0  0  0  0
   11.1205    8.4712   -4.9629 C   0  0  0  0  0  0  0  0  0  0  0  0
   10.8655    8.3511   -8.7960 C   0  0  0  0  0  0  0  0  0  0  0  0
   10.2922    7.8843   -9.9985 C   0  0  0  0  0  0  0  0  0  0  0  0
   10.4654    9.6993   -5.6120 C   0  0  0  0  0  0  0  0  0  0  0  0
   10.3510    9.5971   -7.0014 C   0  0  0  0  0  0  0  0  0  0  0  0
   12.2462    6.3351   -3.5020 C   0  0  0  0  0  0  0  0  0  0  0  0
   11.0471    7.5309  -11.1063 C   0  0  0  0  0  0  0  0  0  0  0  0
   11.7288    8.6923   -3.6518 C   0  0  0  0  0  0  0  0  0  0  0  0
   12.3991    7.7501  -11.1145 C   0  0  0  0  0  0  0  0  0  0  0  0
   12.3738    7.7580   -2.9599 C   0  0  0  0  0  0  0  0  0  0  0  0
   13.1285    8.5075  -10.1661 O   0  0  0  0  0  0  0  0  0  0  0  0
    9.0407    7.3775  -10.0973 N   0  0  0  0  0  0  0  0  0  0  0  0
    8.9787    6.9473  -11.4664 N   0  0  0  0  0  0  0  0  0  0  0  0
   13.1012    7.4459  -12.3707 C   0  0  0  0  0  0  0  0  0  0  0  0
   12.2395    6.9724  -13.2444 C   0  0  0  0  0  0  0  0  0  0  0  0
   10.2768    7.0170  -11.9799 C   0  0  0  0  0  0  0  0  0  0  0  0
   12.9237    6.5822  -14.5759 O   0  0  0  0  0  0  0  0  0  0  0  0
   11.0572    6.7510  -13.2462 C   0  0  0  0  0  0  0  0  0  0  0  0
   12.2650    6.1507  -15.6975 C   0  0  0  0  0  0  0  0  0  0  0  0
    7.7685    6.4505  -12.1034 C   0  0  1  0  0  0  0  0  0  0  0  0
   12.4975    4.7151  -15.7689 C   0  0  0  0  0  0  0  0  0  0  0  0
    7.7650    4.9557  -12.2290 C   0  0  1  0  0  0  0  0  0  0  0  0
   11.6443    4.0539  -14.7592 C   0  0  0  0  0  0  0  0  0  0  0  0
    6.5619    6.9298  -11.4542 C   0  0  0  0  0  0  0  0  0  0  0  0
    8.7723    4.4204  -12.7835 O   0  0  0  0  0  0  0  0  0  0  0  0
    7.3314    4.4491  -11.0008 O   0  0  0  0  0  0  0  0  0  0  0  0
    6.0604    8.0295  -12.3294 C   0  0  0  0  0  0  0  0  0  0  0  0
   10.3478    3.6655  -14.9498 C   0  0  0  0  0  0  0  0  0  0  0  0
    9.3673    3.3677  -13.7256 C   0  0  0  0  0  0  0  0  0  0  0  0
  1  2  1  0  0  0  0
  1 10  2  0  0  0  0
  2  3  1  0  0  0  0
  2  5  2  0  0  0  0
  3  4  1  0  0  0  0
  4  6  1  6  0  0  0
  4  9  1  0  0  0  0
  5  8  1  0  0  0  0
  5 12  1  0  0  0  0
  6  7  1  0  0  0  0
  7 11  1  0  0  0  0
  7 16  2  0  0  0  0
  8  9  1  0  0  0  0
 10 14  1  0  0  0  0
 11 13  2  0  0  0  0
 11 20  1  0  0  0  0
 12 14  2  0  0  0  0
 13 15  1  0  0  0  0
 13 18  1  0  0  0  0
 16 17  1  0  0  0  0
 17 20  1  0  0  0  0
 17 24  1  0  0  0  0
 18 19  2  0  0  0  0
 19 21  1  0  0  0  0
 19 22  1  0  0  0  0
 20 22  2  0  0  0  0
 21 23  1  0  0  0  0
 23 25  1  0  0  0  0
 24 26  1  0  0  0  0
 24 28  1  1  0  0  0
 25 27  1  0  0  0  0
 26 29  1  0  0  0  0
 26 30  1  1  0  0  0
 27 32  1  0  0  0  0
 28 31  1  0  0  0  0
 29 33  1  0  0  0  0
 32 33  1  0  0  0  0
M  END
$$$$

 OpenBabel10082411353D

 33 37  0  0  0  0  0  0  0  0999 V2000
   11.6836    6.0105   -4.8831 C   0  0  0  0  0  0  0  0  0  0  0  0
   11.1291    7.0732   -5.4395 C   0  0  0  0  0  0  0  0  0  0  0  0
   10.6954    7.0156   -6.8073 C   0  0  0  0  0  0  0  0  0  0  0  0
   10.2502    8.1187   -7.5536 C   0  0  2  0  0  0  0  0  0  0  0  0
   11.1205    8.4712   -4.9629 C   0  0  0  0  0  0  0  0  0  0  0  0
   10.8655    8.3511   -8.7960 C   0  0  0  0  0  0  0  0  0  0  0  0
   10.2922    7.8843   -9.9985 C   0  0  0  0  0  0  0  0  0  0  0  0
   10.4654    9.6993   -5.6120 C   0  0  0  0  0  0  0  0  0  0  0  0
   10.3510    9.5971   -7.0014 C   0  0  0  0  0  0  0  0  0  0  0  0
   12.2462    6.3351   -3.5020 C   0  0  0  0  0  0  0  0  0  0  0  0
   11.0471    7.5309  -11.1063 C   0  0  0  0  0  0  0  0  0  0  0  0
   11.7288    8.6923   -3.6518 C   0  0  0  0  0  0  0  0  0  0  0  0
   12.3991    7.7501  -11.1145 C   0  0  0  0  0  0  0  0  0  0  0  0
   12.3738    7.7580   -2.9599 C   0  0  0  0  0  0  0  0  0  0  0  0
   13.1285    8.5075  -10.1661 O   0  0  0  0  0  0  0  0  0  0  0  0
    9.0407    7.3775  -10.0973 N   0  0  0  0  0  0  0  0  0  0  0  0
    8.9787    6.9473  -11.4664 N   0  0  0  0  0  0  0  0  0  0  0  0
   13.1012    7.4459  -12.3707 C   0  0  0  0  0  0  0  0  0  0  0  0
   12.2395    6.9724  -13.2444 C   0  0  0  0  0  0  0  0  0  0  0  0
   10.2768    7.0170  -11.9799 C   0  0  0  0  0  0  0  0  0  0  0  0
    7.8073    6.9028  -12.1886 C   0  0  2  0  0  0  0  0  0  0  0  0
   10.8782    6.7325  -13.1253 C   0  0  0  0  0  0  0  0  0  0  0  0
    7.0194    7.9782  -12.2466 C   0  0  0  0  0  0  0  0  0  0  0  0
    7.2856    5.6605  -11.9799 C   0  0  0  0  0  0  0  0  0  0  0  0
    7.3493    4.6562  -13.0783 C   0  0  2  0  0  0  0  0  0  0  0  0
    6.7613    3.4938  -12.8195 C   0  0  0  0  0  0  0  0  0  0  0  0
    8.7500    4.5302  -13.3739 O   0  0  0  0  0  0  0  0  0  0  0  0
    9.1045    3.4685  -14.2177 C   0  0  1  0  0  0  0  0  0  0  0  0
    7.0862    2.3354  -13.8303 C   0  0  0  0  0  0  0  0  0  0  0  0
   10.6564    3.3700  -14.3452 C   0  0  0  0  0  0  0  0  0  0  0  0
    8.5455    2.1718  -13.8618 C   0  0  0  0  0  0  0  0  0  0  0  0
   11.2468    3.3603  -15.4966 O   0  0  0  0  0  0  0  0  0  0  0  0
   11.3014    3.3723  -13.2686 O   0  0  0  0  0  0  0  0  0  0  0  0
  1  2  1  0  0  0  0
  1 10  2  0  0  0  0
  2  3  1  0  0  0  0
  2  5  2  0  0  0  0
  3  4  1  0  0  0  0
  4  6  1  6  0  0  0
  4  9  1  0  0  0  0
  5  8  1  0  0  0  0
  5 12  1  0  0  0  0
  6  7  1  0  0  0  0
  7 11  1  0  0  0  0
  7 16  2  0  0  0  0
  8  9  1  0  0  0  0
 10 14  1  0  0  0  0
 11 13  2  0  0  0  0
 11 20  1  0  0  0  0
 12 14  2  0  0  0  0
 13 15  1  0  0  0  0
 13 18  1  0  0  0  0
 16 17  1  0  0  0  0
 17 20  1  0  0  0  0
 17 21  1  0  0  0  0
 18 19  2  0  0  0  0
 19 22  1  0  0  0  0
 20 22  2  0  0  0  0
 21 23  1  1  0  0  0
 21 24  1  0  0  0  0
 25 24  1  1  0  0  0
 25 26  1  0  0  0  0
 25 27  1  0  0  0  0
 26 29  1  0  0  0  0
 27 28  1  0  0  0  0
 28 30  1  1  0  0  0
 28 31  1  0  0  0  0
 29 31  1  0  0  0  0
 30 32  1  0  0  0  0
 30 33  2  0  0  0  0
M  END
$$$$

 OpenBabel10082411353D

 33 36  0  0  0  0  0  0  0  0999 V2000
   13.2485    9.2493   -6.3668 O   0  0  0  0  0  0  0  0  0  0  0  0
   11.8899    9.2134   -6.2448 C   0  0  0  0  0  0  0  0  0  0  0  0
   11.2917    8.4721   -7.1451 C   0  0  2  0  0  0  0  0  0  0  0  0
   11.1607   10.4722   -6.0470 C   0  0  0  0  0  0  0  0  0  0  0  0
   11.7146    8.5849   -4.7285 C   0  0  0  0  0  0  0  0  0  0  0  0
   11.6048    7.0556   -7.3991 C   0  0  0  0  0  0  0  0  0  0  0  0
   11.5522    9.2671   -8.5027 C   0  0  0  0  0  0  0  0  0  0  0  0
   10.5349    6.2379   -8.0614 C   0  0  0  0  0  0  0  0  0  0  0  0
    9.9834    6.9098   -9.3038 C   0  0  0  0  0  0  0  0  0  0  0  0
   10.5974    8.8811   -9.6754 C   0  0  0  0  0  0  0  0  0  0  0  0
   10.6045    7.5897  -10.0974 N   0  0  0  0  0  0  0  0  0  0  0  0
    9.6760    5.4914   -7.3551 C   0  0  0  0  0  0  0  0  0  0  0  0
    8.7056    4.8568   -8.0881 C   0  0  0  0  0  0  0  0  0  0  0  0
   10.9736    7.1415  -11.3511 C   0  0  0  0  0  0  0  0  0  0  0  0
    7.9232    3.8578   -7.2500 C   0  0  0  0  0  0  0  0  0  0  0  0
    8.3920    5.1060   -9.3112 C   0  0  0  0  0  0  0  0  0  0  0  0
    7.3201    4.4688   -9.9616 F   0  0  0  0  0  0  0  0  0  0  0  0
    9.0246    6.1537  -10.1135 C   0  0  0  0  0  0  0  0  0  0  0  0
   12.1533    7.6135  -11.9131 C   0  0  0  0  0  0  0  0  0  0  0  0
    8.2673    2.6446   -7.5038 O   0  0  0  0  0  0  0  0  0  0  0  0
    9.9435    6.5604  -12.0452 C   0  0  0  0  0  0  0  0  0  0  0  0
   13.1149    8.1847  -11.2029 O   0  0  0  0  0  0  0  0  0  0  0  0
    8.9379    5.9430  -11.3032 C   0  0  0  0  0  0  0  0  0  0  0  0
    7.0966    4.0684   -6.4725 O   0  0  0  0  0  0  0  0  0  0  0  0
    9.8888    6.3890  -13.4419 C   0  0  0  0  0  0  0  0  0  0  0  0
   12.3073    7.3410  -13.2971 C   0  0  0  0  0  0  0  0  0  0  0  0
   13.5106    7.7317  -13.9365 F   0  0  0  0  0  0  0  0  0  0  0  0
   11.3718    6.7844  -14.1043 C   0  0  0  0  0  0  0  0  0  0  0  0
   11.5943    6.4629  -15.3587 O   0  0  0  0  0  0  0  0  0  0  0  0
   11.7683    5.1004  -15.6712 C   0  0  0  0  0  0  0  0  0  0  0  0
   10.8590    4.2533  -15.1703 F   0  0  0  0  0  0  0  0  0  0  0  0
   11.4874    5.0738  -17.1083 F   0  0  0  0  0  0  0  0  0  0  0  0
   13.0813    4.6348  -15.7014 F   0  0  0  0  0  0  0  0  0  0  0  0
  1  2  1  0  0  0  0
  2  4  1  0  0  0  0
  2  5  1  0  0  0  0
  3  2  1  1  0  0  0
  3  6  1  0  0  0  0
  3  7  1  0  0  0  0
  6  8  1  0  0  0  0
  7 10  1  0  0  0  0
  8  9  1  0  0  0  0
  8 12  2  0  0  0  0
  9 11  1  0  0  0  0
  9 18  2  0  0  0  0
 10 11  1  0  0  0  0
 11 14  1  0  0  0  0
 12 13  1  0  0  0  0
 13 15  1  0  0  0  0
 13 16  2  0  0  0  0
 14 19  1  0  0  0  0
 14 21  2  0  0  0  0
 15 20  1  0  0  0  0
 15 24  2  0  0  0  0
 16 17  1  0  0  0  0
 16 18  1  0  0  0  0
 18 23  1  0  0  0  0
 19 22  1  0  0  0  0
 19 26  2  0  0  0  0
 21 23  1  0  0  0  0
 21 25  1  0  0  0  0
 25 28  2  0  0  0  0
 26 27  1  0  0  0  0
 26 28  1  0  0  0  0
 28 29  1  0  0  0  0
 29 30  1  0  0  0  0
 30 31  1  0  0  0  0
 30 32  1  0  0  0  0
 30 33  1  0  0  0  0
M  END
$$$$

 OpenBabel10082411353D

 33 38  0  0  0  0  0  0  0  0999 V2000
   12.7863    7.8241  -14.2109 C   0  0  0  0  0  0  0  0  0  0  0  0
   12.4233    7.7158  -13.0289 C   0  0  0  0  0  0  0  0  0  0  0  0
   12.9219    8.1949  -11.8668 C   0  0  0  0  0  0  0  0  0  0  0  0
   11.4275    6.6086  -12.7931 C   0  0  0  0  0  0  0  0  0  0  0  0
   10.3411    6.8404  -12.0679 C   0  0  0  0  0  0  0  0  0  0  0  0
   10.7226    7.4332  -10.7281 C   0  0  0  0  0  0  0  0  0  0  0  0
    9.0684    5.8539  -11.9851 C   0  0  0  0  0  0  0  0  0  0  0  0
    9.8080    7.4062   -9.6015 C   0  0  1  0  0  0  0  0  0  0  0  0
   11.9300    8.1400  -10.6702 C   0  0  0  0  0  0  0  0  0  0  0  0
   11.0289    6.0120  -14.2884 C   0  0  0  0  0  0  0  0  0  0  0  0
    9.9681    6.1425   -8.6941 C   0  0  0  0  0  0  0  0  0  0  0  0
   11.9646    6.5393  -15.2778 C   0  0  0  0  0  0  0  0  0  0  0  0
    9.7799    8.6458   -8.9051 C   0  0  0  0  0  0  0  0  0  0  0  0
   10.3186    4.8592  -14.6682 C   0  0  0  0  0  0  0  0  0  0  0  0
   10.2572    3.7867  -13.8865 C   0  0  1  0  0  0  0  0  0  0  0  0
    8.1840    6.1529  -12.9802 C   0  0  0  0  0  0  0  0  0  0  0  0
    8.9788    2.9888  -13.9279 C   0  0  0  0  0  0  0  0  0  0  0  0
   10.5404    8.5651   -7.5433 C   0  0  0  0  0  0  0  0  0  0  0  0
    9.1252    1.6963  -14.1301 O   0  0  0  0  0  0  0  0  0  0  0  0
    6.8473    5.4043  -12.6964 C   0  0  0  0  0  0  0  0  0  0  0  0
    7.8908    3.5177  -13.7211 N   0  0  0  0  0  0  0  0  0  0  0  0
   10.1332    7.5210   -6.6089 C   0  0  1  0  0  0  0  0  0  0  0  0
   11.5194    2.8993  -13.9918 C   0  0  0  0  0  0  0  0  0  0  0  0
   10.0708    6.2280   -7.2683 C   0  0  0  0  0  0  0  0  0  0  0  0
   11.1522    7.4502   -5.4668 C   0  0  0  0  0  0  0  0  0  0  0  0
    8.7267    8.0207   -6.1476 C   0  0  0  0  0  0  0  0  0  0  0  0
    7.0774    3.6887  -12.6814 C   0  0  0  0  0  0  0  0  0  0  0  0
   10.9239    6.9133   -4.3144 C   0  0  0  0  0  0  0  0  0  0  0  0
   12.0394    7.1477   -3.2637 C   0  0  0  0  0  0  0  0  0  0  0  0
   12.9613    8.2554   -3.7204 C   0  0  0  0  0  0  0  0  0  0  0  0
   13.0105    8.9412   -4.7184 C   0  0  0  0  0  0  0  0  0  0  0  0
   12.0310    8.6937   -5.6976 C   0  0  0  0  0  0  0  0  0  0  0  0
   11.8107    9.4590   -7.0153 C   0  0  0  0  0  0  0  0  0  0  0  0
  1  2  1  0  0  0  0
  1 12  1  0  0  0  0
  2  3  1  0  0  0  0
  2  4  2  0  0  0  0
  3  9  2  0  0  0  0
  4  5  1  0  0  0  0
  4 10  1  0  0  0  0
  5  6  2  0  0  0  0
  5  7  1  0  0  0  0
  6  9  1  0  0  0  0
  7 16  1  0  0  0  0
  8  6  1  6  0  0  0
  8 11  1  0  0  0  0
  8 13  1  0  0  0  0
 10 12  2  0  0  0  0
 10 14  1  0  0  0  0
 11 24  1  0  0  0  0
 13 18  1  0  0  0  0
 14 15  1  0  0  0  0
 15 17  1  0  0  0  0
 15 23  1  6  0  0  0
 16 20  1  0  0  0  0
 17 19  2  0  0  0  0
 17 21  1  0  0  0  0
 18 22  1  0  0  0  0
 18 33  2  0  0  0  0
 20 27  1  0  0  0  0
 21 27  1  0  0  0  0
 22 24  1  0  0  0  0
 22 25  1  0  0  0  0
 22 26  1  1  0  0  0
 25 28  1  0  0  0  0
 25 32  2  0  0  0  0
 28 29  2  0  0  0  0
 29 30  1  0  0  0  0
 30 31  2  0  0  0  0
 31 32  1  0  0  0  0
 32 33  1  0  0  0  0
M  END
$$$$

 OpenBabel10082411353D

 33 37  0  0  0  0  0  0  0  0999 V2000
   12.7863    7.8241  -14.2109 C   0  0  0  0  0  0  0  0  0  0  0  0
   12.4233    7.7158  -13.0289 C   0  0  0  0  0  0  0  0  0  0  0  0
   11.3194    6.8571  -12.8028 C   0  0  0  0  0  0  0  0  0  0  0  0
   12.3150    7.2021  -15.3582 C   0  0  0  0  0  0  0  0  0  0  0  0
   11.2733    6.2739  -15.1502 C   0  0  0  0  0  0  0  0  0  0  0  0
   10.8099    6.0126  -13.8600 C   0  0  0  0  0  0  0  0  0  0  0  0
    9.6782    5.1428  -13.6488 C   0  0  0  0  0  0  0  0  0  0  0  0
    8.5753    5.3880  -12.9589 N   0  0  0  0  0  0  0  0  0  0  0  0
    8.3226    6.7011  -12.3862 C   0  0  0  0  0  0  0  0  0  0  0  0
    9.8502    3.8578  -14.0728 C   0  0  0  0  0  0  0  0  0  0  0  0
    7.3864    7.4720  -13.0530 C   0  0  0  0  0  0  0  0  0  0  0  0
    6.2412    7.8486  -12.2599 C   0  0  0  0  0  0  0  0  0  0  0  0
    7.6425    4.4186  -12.7943 C   0  0  0  0  0  0  0  0  0  0  0  0
   11.0297    3.2482  -14.8053 C   0  0  0  0  0  0  0  0  0  0  0  0
    8.6802    2.8955  -13.7960 C   0  0  0  0  0  0  0  0  0  0  0  0
    8.8565    1.5917  -14.3582 O   0  0  0  0  0  0  0  0  0  0  0  0
    7.6903    3.2226  -13.1994 N   0  0  0  0  0  0  0  0  0  0  0  0
    6.5724    2.3444  -12.8378 C   0  0  0  0  0  0  0  0  0  0  0  0
    9.0225    7.0353  -11.3259 C   0  0  0  0  0  0  0  0  0  0  0  0
    6.4787    4.7532  -12.1787 O   0  0  0  0  0  0  0  0  0  0  0  0
   10.5868    7.0468  -11.5199 C   0  0  0  0  0  0  0  0  0  0  0  0
   11.2761    7.4007  -10.4131 C   0  0  0  0  0  0  0  0  0  0  0  0
    8.6862    7.4300   -9.9877 C   0  0  0  0  0  0  0  0  0  0  0  0
    9.4326    7.6744   -8.9657 C   0  0  0  0  0  0  0  0  0  0  0  0
   10.6794    7.6568   -9.1312 C   0  0  2  0  0  0  0  0  0  0  0  0
    8.9269    7.9839   -7.6612 C   0  0  1  0  0  0  0  0  0  0  0  0
   11.6309    7.9931   -8.0642 C   0  0  0  0  0  0  0  0  0  0  0  0
    8.3711    7.1403   -7.0209 O   0  0  0  0  0  0  0  0  0  0  0  0
    9.8765    8.4197   -6.5527 C   0  0  0  0  0  0  0  0  0  0  0  0
   11.3201    8.0150   -6.9666 C   0  0  0  0  0  0  0  0  0  0  0  0
   12.2708    8.1718   -5.7201 C   0  0  0  0  0  0  0  0  0  0  0  0
   11.9396    7.3225   -4.6276 C   0  0  0  0  0  0  0  0  0  0  0  0
   12.2534    7.9491   -3.3487 C   0  0  0  0  0  0  0  0  0  0  0  0
  1  2  2  0  0  0  0
  1  4  1  0  0  0  0
  2  3  1  0  0  0  0
  3  6  2  0  0  0  0
  3 21  1  0  0  0  0
  4  5  2  0  0  0  0
  5  6  1  0  0  0  0
  6  7  1  0  0  0  0
  7  8  1  0  0  0  0
  7 10  2  0  0  0  0
  8  9  1  0  0  0  0
  8 13  1  0  0  0  0
  9 11  1  0  0  0  0
  9 19  2  0  0  0  0
 10 14  1  0  0  0  0
 10 15  1  0  0  0  0
 11 12  1  0  0  0  0
 13 17  1  0  0  0  0
 13 20  2  0  0  0  0
 15 16  2  0  0  0  0
 15 17  1  0  0  0  0
 17 18  1  0  0  0  0
 19 21  1  0  0  0  0
 19 23  1  0  0  0  0
 21 22  2  0  0  0  0
 23 24  2  0  0  0  0
 24 25  1  0  0  0  0
 24 26  1  0  0  0  0
 25 22  1  6  0  0  0
 25 27  1  0  0  0  0
 26 28  1  1  0  0  0
 26 29  1  0  0  0  0
 27 30  2  0  0  0  0
 29 30  1  0  0  0  0
 30 31  1  0  0  0  0
 31 32  1  0  0  0  0
 32 33  1  0  0  0  0
M  END
$$$$

 OpenBabel10082411353D

 33 38  0  0  0  0  0  0  0  0999 V2000
   12.7863    7.8241  -14.2109 C   0  0  0  0  0  0  0  0  0  0  0  0
   12.4233    7.7158  -13.0289 C   0  0  0  0  0  0  0  0  0  0  0  0
   12.9219    8.1949  -11.8668 C   0  0  0  0  0  0  0  0  0  0  0  0
   11.4275    6.6086  -12.7931 C   0  0  0  0  0  0  0  0  0  0  0  0
   10.3411    6.8404  -12.0679 C   0  0  0  0  0  0  0  0  0  0  0  0
   10.7226    7.4332  -10.7281 C   0  0  0  0  0  0  0  0  0  0  0  0
    9.0684    5.8539  -11.9851 C   0  0  0  0  0  0  0  0  0  0  0  0
    9.8080    7.4062   -9.6015 C   0  0  1  0  0  0  0  0  0  0  0  0
   11.9300    8.1400  -10.6702 C   0  0  0  0  0  0  0  0  0  0  0  0
   11.0289    6.0120  -14.2884 C   0  0  0  0  0  0  0  0  0  0  0  0
    9.9681    6.1425   -8.6941 C   0  0  0  0  0  0  0  0  0  0  0  0
   11.9646    6.5393  -15.2778 C   0  0  0  0  0  0  0  0  0  0  0  0
    9.7799    8.6458   -8.9051 C   0  0  0  0  0  0  0  0  0  0  0  0
   10.3186    4.8592  -14.6682 C   0  0  0  0  0  0  0  0  0  0  0  0
   10.2572    3.7867  -13.8865 C   0  0  1  0  0  0  0  0  0  0  0  0
    8.1840    6.1529  -12.9802 C   0  0  0  0  0  0  0  0  0  0  0  0
    8.9788    2.9888  -13.9279 C   0  0  0  0  0  0  0  0  0  0  0  0
   10.5404    8.5651   -7.5433 C   0  0  2  0  0  0  0  0  0  0  0  0
    9.1252    1.6963  -14.1301 O   0  0  0  0  0  0  0  0  0  0  0  0
    6.8473    5.4043  -12.6964 C   0  0  0  0  0  0  0  0  0  0  0  0
    7.8908    3.5177  -13.7211 N   0  0  0  0  0  0  0  0  0  0  0  0
   10.1332    7.5210   -6.6089 C   0  0  1  0  0  0  0  0  0  0  0  0
   11.5194    2.8993  -13.9918 C   0  0  0  0  0  0  0  0  0  0  0  0
   10.0708    6.2280   -7.2683 C   0  0  2  0  0  0  0  0  0  0  0  0
   11.1522    7.4502   -5.4668 C   0  0  2  0  0  0  0  0  0  0  0  0
    7.0710    3.6888  -12.6852 C   0  0  0  0  0  0  0  0  0  0  0  0
    8.8634    7.9716   -5.8899 C   0  0  0  0  0  0  0  0  0  0  0  0
   11.6672    8.7295   -5.0477 C   0  0  0  0  0  0  0  0  0  0  0  0
   12.8636    8.7968   -4.4088 C   0  0  0  0  0  0  0  0  0  0  0  0
   10.6761    9.4046   -4.0611 C   0  0  0  0  0  0  0  0  0  0  0  0
   11.6128    9.6042   -6.3995 C   0  0  0  0  0  0  0  0  0  0  0  0
   12.2187    6.4964   -5.9251 C   0  0  0  0  0  0  0  0  0  0  0  0
   11.5225    5.4376   -6.7085 C   0  0  0  0  0  0  0  0  0  0  0  0
  1  2  1  0  0  0  0
  1 12  1  0  0  0  0
  2  3  1  0  0  0  0
  2  4  2  0  0  0  0
  3  9  2  0  0  0  0
  4  5  1  0  0  0  0
  4 10  1  0  0  0  0
  5  6  2  0  0  0  0
  5  7  1  0  0  0  0
  6  9  1  0  0  0  0
  7 16  1  0  0  0  0
  8  6  1  6  0  0  0
  8 11  1  0  0  0  0
  8 13  1  0  0  0  0
 10 12  2  0  0  0  0
 10 14  1  0  0  0  0
 14 15  1  0  0  0  0
 15 17  1  0  0  0  0
 15 23  1  6  0  0  0
 16 20  1  0  0  0  0
 17 19  2  0  0  0  0
 17 21  1  0  0  0  0
 18 13  1  1  0  0  0
 18 22  1  0  0  0  0
 18 31  1  0  0  0  0
 20 26  1  0  0  0  0
 21 26  1  0  0  0  0
 22 24  1  0  0  0  0
 22 25  1  0  0  0  0
 22 27  1  1  0  0  0
 24 11  1  6  0  0  0
 24 33  1  0  0  0  0
 25 28  1  0  0  0  0
 25 32  1  6  0  0  0
 28 29  1  0  0  0  0
 28 30  1  0  0  0  0
 28 31  1  0  0  0  0
 32 33  1  0  0  0  0
M  END
$$$$

 OpenBabel10082411353D

 33 35  0  0  0  0  0  0  0  0999 V2000
   10.9951    9.9694   -4.9946 C   0  0  0  0  0  0  0  0  0  0  0  0
   11.7938    9.3762   -4.2463 C   0  0  0  0  0  0  0  0  0  0  0  0
   10.8673    9.4548   -6.4276 C   0  0  0  0  0  0  0  0  0  0  0  0
   11.6576    7.9117   -4.2944 C   0  0  0  0  0  0  0  0  0  0  0  0
   10.5498    8.0257   -6.4521 C   0  0  0  0  0  0  0  0  0  0  0  0
   11.4715    7.2752   -5.6166 C   0  0  0  0  0  0  0  0  0  0  0  0
   10.5840    7.5390   -7.9254 C   0  0  0  0  0  0  0  0  0  0  0  0
   11.4612    8.1494   -8.8322 C   0  0  0  0  0  0  0  0  0  0  0  0
   12.6250    8.6294   -8.4338 O   0  0  0  0  0  0  0  0  0  0  0  0
   11.0835    8.4395  -10.0740 O   0  0  0  0  0  0  0  0  0  0  0  0
   11.2938    7.5612  -11.0769 C   0  0  0  0  0  0  0  0  0  0  0  0
   10.1547    7.2525  -11.9492 C   0  0  0  0  0  0  0  0  0  0  0  0
   10.4293    6.5622  -13.1348 C   0  0  0  0  0  0  0  0  0  0  0  0
   11.7295    6.4217  -13.6243 C   0  0  0  0  0  0  0  0  0  0  0  0
    8.8120    7.3918  -11.4649 C   0  0  0  0  0  0  0  0  0  0  0  0
   12.5351    7.8894  -11.6869 C   0  0  0  0  0  0  0  0  0  0  0  0
   13.5778    8.4243  -10.9673 O   0  0  0  0  0  0  0  0  0  0  0  0
    7.7211    7.1761  -12.4323 C   0  0  0  0  0  0  0  0  0  0  0  0
   12.8103    7.0723  -12.8897 C   0  0  0  0  0  0  0  0  0  0  0  0
    7.0543    5.9667  -12.3369 C   0  0  0  0  0  0  0  0  0  0  0  0
    7.2392    8.1844  -13.1320 C   0  0  0  0  0  0  0  0  0  0  0  0
    6.6882    5.3848  -13.5016 O   0  0  0  0  0  0  0  0  0  0  0  0
    6.5103    5.5543  -11.3870 O   0  0  0  0  0  0  0  0  0  0  0  0
    7.4031    4.0506  -13.7852 C   0  0  0  0  0  0  0  0  0  0  0  0
   11.9567    5.7137  -14.8744 C   0  0  0  0  0  0  0  0  0  0  0  0
    8.6219    3.9611  -14.1988 C   0  0  0  0  0  0  0  0  0  0  0  0
   12.1624    6.4252  -15.8904 C   0  0  0  0  0  0  0  0  0  0  0  0
    9.4613    3.0640  -13.5563 C   0  0  0  0  0  0  0  0  0  0  0  0
   12.1556    4.2801  -14.7975 C   0  0  0  0  0  0  0  0  0  0  0  0
   12.3605    3.5939  -15.9765 C   0  0  0  0  0  0  0  0  0  0  0  0
   12.4324    4.5248  -17.1521 C   0  0  0  0  0  0  0  0  0  0  0  0
   12.1014    7.8805  -15.9302 F   0  0  0  0  0  0  0  0  0  0  0  0
   12.4019    5.7635  -17.1292 C   0  0  0  0  0  0  0  0  0  0  0  0
  1  2  1  0  0  0  0
  1  3  1  0  0  0  0
  2  4  1  0  0  0  0
  3  5  1  0  0  0  0
  4  6  1  0  0  0  0
  5  6  1  0  0  0  0
  5  7  1  0  0  0  0
  7  8  1  0  0  0  0
  8  9  2  0  0  0  0
  8 10  1  0  0  0  0
 10 11  1  0  0  0  0
 11 12  1  0  0  0  0
 11 16  2  0  0  0  0
 12 13  2  0  0  0  0
 12 15  1  0  0  0  0
 13 14  1  0  0  0  0
 14 19  2  0  0  0  0
 14 25  1  0  0  0  0
 15 18  1  0  0  0  0
 16 17  1  0  0  0  0
 16 19  1  0  0  0  0
 18 20  1  0  0  0  0
 18 21  2  0  0  0  0
 20 22  1  0  0  0  0
 20 23  2  0  0  0  0
 22 24  1  0  0  0  0
 24 26  1  0  0  0  0
 25 27  2  0  0  0  0
 25 29  1  0  0  0  0
 26 28  1  0  0  0  0
 27 32  1  0  0  0  0
 27 33  1  0  0  0  0
 29 30  2  0  0  0  0
 30 31  1  0  0  0  0
 31 33  2  0  0  0  0
M  END
$$$$

 OpenBabel10082411353D

 33 37  0  0  0  0  0  0  0  0999 V2000
   13.2379    9.0584   -7.2681 C   0  0  0  0  0  0  0  0  0  0  0  0
   12.9396    9.3022   -5.9810 C   0  0  0  0  0  0  0  0  0  0  0  0
   12.1602    8.6694   -7.9361 C   0  0  0  0  0  0  0  0  0  0  0  0
   14.0320    9.7504   -5.0711 F   0  0  0  0  0  0  0  0  0  0  0  0
   10.9536    8.4526   -7.1212 C   0  0  1  0  0  0  0  0  0  0  0  0
   12.1901    8.3365   -9.3972 C   0  0  0  0  0  0  0  0  0  0  0  0
   11.0443    7.8367  -10.0430 C   0  0  0  0  0  0  0  0  0  0  0  0
   11.0471    8.9348   -5.8250 C   0  0  1  0  0  0  0  0  0  0  0  0
    9.5270    7.9533   -7.4234 C   0  0  2  0  0  0  0  0  0  0  0  0
    9.7802    8.7666   -5.0086 F   0  0  0  0  0  0  0  0  0  0  0  0
   11.9790    9.3452   -5.1373 C   0  0  0  0  0  0  0  0  0  0  0  0
    9.1878    6.9159   -6.7141 C   0  0  0  0  0  0  0  0  0  0  0  0
   11.1576    7.5184  -11.4190 C   0  0  0  0  0  0  0  0  0  0  0  0
    9.8595    7.5543   -8.9986 C   0  0  1  0  0  0  0  0  0  0  0  0
    9.9779    6.9809  -11.9943 C   0  0  0  0  0  0  0  0  0  0  0  0
   10.1471    6.6534  -13.4127 C   0  0  0  0  0  0  0  0  0  0  0  0
   12.3591    7.4352  -12.0563 C   0  0  0  0  0  0  0  0  0  0  0  0
    8.5551    6.8980  -11.2951 C   0  0  0  0  0  0  0  0  0  0  0  0
   12.2421    7.1981  -13.3125 C   0  0  0  0  0  0  0  0  0  0  0  0
   11.2735    6.6870  -13.9872 C   0  0  0  0  0  0  0  0  0  0  0  0
    8.1020    6.3652   -7.0525 O   0  0  0  0  0  0  0  0  0  0  0  0
   11.5320    6.1869  -15.4842 C   0  0  0  0  0  0  0  0  0  0  0  0
   11.6397    4.8187  -15.5947 N   0  0  0  0  0  0  0  0  0  0  0  0
   11.7429    6.9569  -16.3970 O   0  0  0  0  0  0  0  0  0  0  0  0
   11.2928    3.8324  -14.5891 C   0  0  0  0  0  0  0  0  0  0  0  0
    7.5388    6.6719  -11.9871 C   0  0  0  0  0  0  0  0  0  0  0  0
   11.5537    4.1926  -16.9885 C   0  0  0  0  0  0  0  0  0  0  0  0
    6.8943    7.7297  -12.6293 C   0  0  0  0  0  0  0  0  0  0  0  0
   12.4886    3.1529  -17.0211 C   0  0  0  0  0  0  0  0  0  0  0  0
   10.6070    2.6673  -14.9825 C   0  0  0  0  0  0  0  0  0  0  0  0
    8.7518    6.9671   -9.7339 N   0  0  0  0  0  0  0  0  0  0  0  0
   11.5970    2.0594  -16.1356 C   0  0  0  0  0  0  0  0  0  0  0  0
    7.5085    5.4920  -12.8281 C   0  0  0  0  0  0  0  0  0  0  0  0
  1  2  1  0  0  0  0
  1  3  2  0  0  0  0
  2  4  1  0  0  0  0
  2 11  2  0  0  0  0
  3  6  1  0  0  0  0
  5  3  1  6  0  0  0
  5  8  1  0  0  0  0
  5  9  1  0  0  0  0
  6  7  2  0  0  0  0
  7 13  1  0  0  0  0
  8 10  1  1  0  0  0
  8 11  1  0  0  0  0
  9 12  1  1  0  0  0
  9 14  1  0  0  0  0
 12 21  1  0  0  0  0
 13 15  2  0  0  0  0
 13 17  1  0  0  0  0
 14  7  1  6  0  0  0
 14 31  1  0  0  0  0
 15 16  1  0  0  0  0
 15 18  1  0  0  0  0
 16 20  2  0  0  0  0
 17 19  2  0  0  0  0
 18 26  1  0  0  0  0
 18 31  2  0  0  0  0
 19 20  1  0  0  0  0
 20 22  1  0  0  0  0
 22 23  1  0  0  0  0
 22 24  2  0  0  0  0
 23 25  1  0  0  0  0
 23 27  1  0  0  0  0
 25 30  1  0  0  0  0
 26 28  1  0  0  0  0
 26 33  1  0  0  0  0
 27 29  1  0  0  0  0
 29 32  1  0  0  0  0
 30 32  1  0  0  0  0
M  END
$$$$

 OpenBabel10082411353D

 33 36  0  0  0  0  0  0  0  0999 V2000
   13.4846    9.3979   -5.2029 C   0  0  0  0  0  0  0  0  0  0  0  0
   12.7871    9.3913   -6.3118 C   0  0  0  0  0  0  0  0  0  0  0  0
   11.3648    9.1424   -6.2947 C   0  0  0  0  0  0  0  0  0  0  0  0
   10.8726    9.0146   -5.0034 C   0  0  0  0  0  0  0  0  0  0  0  0
    9.3815    8.7865   -5.0373 F   0  0  0  0  0  0  0  0  0  0  0  0
   11.4703    9.0293   -3.8455 C   0  0  0  0  0  0  0  0  0  0  0  0
   10.7697    8.8716   -2.6325 F   0  0  0  0  0  0  0  0  0  0  0  0
   12.8710    9.2169   -3.9429 C   0  0  0  0  0  0  0  0  0  0  0  0
   10.4781    9.1384   -7.6682 C   0  0  0  0  0  0  0  0  0  0  0  0
   11.1390    9.1306   -8.8047 C   0  0  0  0  0  0  0  0  0  0  0  0
   10.8705    7.9638   -9.7397 C   0  0  0  0  0  0  0  0  0  0  0  0
   10.2908    8.0632  -10.8488 C   0  0  0  0  0  0  0  0  0  0  0  0
   10.4238    7.0375  -11.8282 C   0  0  0  0  0  0  0  0  0  0  0  0
    9.2433    8.9518  -11.2558 C   0  0  0  0  0  0  0  0  0  0  0  0
    8.5277    8.8707  -12.4031 C   0  0  0  0  0  0  0  0  0  0  0  0
    7.4469    9.8411  -12.5572 F   0  0  0  0  0  0  0  0  0  0  0  0
    8.5235    7.7173  -13.1606 C   0  0  0  0  0  0  0  0  0  0  0  0
   11.4736    5.9938  -11.5885 F   0  0  0  0  0  0  0  0  0  0  0  0
    9.6094    6.6956  -12.8849 C   0  0  0  0  0  0  0  0  0  0  0  0
    9.8332    5.4698  -13.8784 S   0  0  0  0  0  0  0  0  0  0  0  0
   10.9769    5.4319  -14.5253 O   0  0  0  0  0  0  0  0  0  0  0  0
    8.3413    5.5312  -14.5883 O   0  0  0  0  0  0  0  0  0  0  0  0
    9.8256    3.9847  -12.9897 C   0  0  1  0  0  0  0  0  0  0  0  0
    8.5770    3.2748  -13.0188 C   0  0  0  0  0  0  0  0  0  0  0  0
   10.7278    3.0709  -13.5601 C   0  0  0  0  0  0  0  0  0  0  0  0
    8.3700    2.2815  -13.9828 C   0  0  0  0  0  0  0  0  0  0  0  0
    7.4529    1.3749  -13.9455 C   0  0  0  0  0  0  0  0  0  0  0  0
   10.3190    2.3728  -14.7020 C   0  0  0  0  0  0  0  0  0  0  0  0
    7.3873    0.3022  -14.8243 C   0  0  0  0  0  0  0  0  0  0  0  0
   11.2882    2.0607  -15.5368 O   0  0  0  0  0  0  0  0  0  0  0  0
    8.3128    0.0461  -15.6825 C   0  0  0  0  0  0  0  0  0  0  0  0
    9.3553    1.0308  -15.6582 C   0  0  0  0  0  0  0  0  0  0  0  0
    9.4060    1.8664  -14.7775 C   0  0  0  0  0  0  0  0  0  0  0  0
  1  2  1  0  0  0  0
  1  8  2  0  0  0  0
  2  3  2  0  0  0  0
  3  4  1  0  0  0  0
  3  9  1  0  0  0  0
  4  5  1  0  0  0  0
  4  6  2  0  0  0  0
  6  7  1  0  0  0  0
  6  8  1  0  0  0  0
  9 10  1  0  0  0  0
 10 11  1  0  0  0  0
 11 12  1  0  0  0  0
 12 13  2  0  0  0  0
 12 14  1  0  0  0  0
 13 18  1  0  0  0  0
 13 19  1  0  0  0  0
 14 15  2  0  0  0  0
 15 16  1  0  0  0  0
 15 17  1  0  0  0  0
 17 19  2  0  0  0  0
 19 20  1  0  0  0  0
 20 21  2  0  0  0  0
 20 22  2  0  0  0  0
 23 20  1  6  0  0  0
 23 24  1  0  0  0  0
 23 25  1  0  0  0  0
 24 26  1  0  0  0  0
 25 28  1  0  0  0  0
 26 27  2  0  0  0  0
 26 33  1  0  0  0  0
 27 29  1  0  0  0  0
 28 30  2  0  0  0  0
 28 33  1  0  0  0  0
 29 31  2  0  0  0  0
 31 32  1  0  0  0  0
 32 33  2  0  0  0  0
M  END
$$$$

 OpenBabel10082411353D

 22 22  0  0  0  0  0  0  0  0999 V2000
   12.7863    7.8241  -14.2109 C   0  0  0  0  0  0  0  0  0  0  0  0
   12.4233    7.7158  -13.0289 C   0  0  0  0  0  0  0  0  0  0  0  0
   12.9219    8.1949  -11.8668 C   0  0  0  0  0  0  0  0  0  0  0  0
   11.4275    6.6086  -12.7931 C   0  0  0  0  0  0  0  0  0  0  0  0
   10.3411    6.8404  -12.0679 C   0  0  0  0  0  0  0  0  0  0  0  0
   10.7226    7.4332  -10.7281 C   0  0  0  0  0  0  0  0  0  0  0  0
   11.9330    8.1749  -10.6718 C   0  0  0  0  0  0  0  0  0  0  0  0
    9.1847    5.7774  -11.9431 C   0  0  0  0  0  0  0  0  0  0  0  0
    9.7417    7.5228   -9.7082 N   0  0  0  0  0  0  0  0  0  0  0  0
   10.0226    8.3874   -8.6769 C   0  0  0  0  0  0  0  0  0  0  0  0
    9.1518    4.6533  -11.9487 O   0  0  0  0  0  0  0  0  0  0  0  0
   11.1604    8.1263   -7.7543 C   0  0  0  0  0  0  0  0  0  0  0  0
    7.9973    6.4472  -11.5978 N   0  0  0  0  0  0  0  0  0  0  0  0
   11.7310    9.2018   -7.0541 C   0  0  0  0  0  0  0  0  0  0  0  0
   12.3263    8.8952   -5.7965 C   0  0  0  0  0  0  0  0  0  0  0  0
   11.2932    8.9099   -4.6399 C   0  0  0  0  0  0  0  0  0  0  0  0
   11.5242    7.9807   -3.7040 C   0  0  0  0  0  0  0  0  0  0  0  0
   11.3219    6.6446   -3.8643 C   0  0  0  0  0  0  0  0  0  0  0  0
    6.6848    5.8876  -11.9958 C   0  0  0  0  0  0  0  0  0  0  0  0
    6.8285    4.5716  -12.8379 C   0  0  0  0  0  0  0  0  0  0  0  0
    6.2582    3.4817  -12.2190 C   0  0  0  0  0  0  0  0  0  0  0  0
    6.2124    2.2622  -13.0614 C   0  0  0  0  0  0  0  0  0  0  0  0
  1  2  1  0  0  0  0
  2  3  1  0  0  0  0
  2  4  2  0  0  0  0
  3  7  2  0  0  0  0
  4  5  1  0  0  0  0
  5  6  2  0  0  0  0
  5  8  1  0  0  0  0
  6  7  1  0  0  0  0
  6  9  1  0  0  0  0
  8 11  2  0  0  0  0
  8 13  1  0  0  0  0
  9 10  1  0  0  0  0
 10 12  1  0  0  0  0
 12 14  1  0  0  0  0
 13 19  1  0  0  0  0
 14 15  1  0  0  0  0
 15 16  1  0  0  0  0
 16 17  1  0  0  0  0
 17 18  1  0  0  0  0
 19 20  1  0  0  0  0
 20 21  1  0  0  0  0
 21 22  1  0  0  0  0
M  END
$$$$

 OpenBabel10082411353D

 33 35  0  0  0  0  0  0  0  0999 V2000
   13.4846    9.3979   -5.2029 C   0  0  0  0  0  0  0  0  0  0  0  0
   12.7871    9.3913   -6.3118 C   0  0  0  0  0  0  0  0  0  0  0  0
   11.3648    9.1424   -6.2947 C   0  0  0  0  0  0  0  0  0  0  0  0
   10.8726    9.0146   -5.0034 C   0  0  0  0  0  0  0  0  0  0  0  0
    9.3815    8.7865   -5.0373 F   0  0  0  0  0  0  0  0  0  0  0  0
   11.4703    9.0293   -3.8455 C   0  0  0  0  0  0  0  0  0  0  0  0
   10.7697    8.8716   -2.6325 F   0  0  0  0  0  0  0  0  0  0  0  0
   12.8710    9.2169   -3.9429 C   0  0  0  0  0  0  0  0  0  0  0  0
   10.4781    9.1384   -7.6682 C   0  0  0  0  0  0  0  0  0  0  0  0
   11.1390    9.1306   -8.8047 C   0  0  0  0  0  0  0  0  0  0  0  0
   10.8705    7.9638   -9.7397 C   0  0  0  0  0  0  0  0  0  0  0  0
   10.2908    8.0632  -10.8488 C   0  0  0  0  0  0  0  0  0  0  0  0
   10.4238    7.0375  -11.8282 C   0  0  0  0  0  0  0  0  0  0  0  0
    9.2433    8.9518  -11.2558 C   0  0  0  0  0  0  0  0  0  0  0  0
    8.5277    8.8707  -12.4031 C   0  0  0  0  0  0  0  0  0  0  0  0
    7.4469    9.8411  -12.5572 F   0  0  0  0  0  0  0  0  0  0  0  0
    8.5235    7.7173  -13.1606 C   0  0  0  0  0  0  0  0  0  0  0  0
   11.4736    5.9938  -11.5885 F   0  0  0  0  0  0  0  0  0  0  0  0
    9.6094    6.6956  -12.8849 C   0  0  0  0  0  0  0  0  0  0  0  0
    9.8332    5.4698  -13.8784 S   0  0  0  0  0  0  0  0  0  0  0  0
   10.9769    5.4319  -14.5253 O   0  0  0  0  0  0  0  0  0  0  0  0
    8.3413    5.5312  -14.5883 O   0  0  0  0  0  0  0  0  0  0  0  0
    9.8256    3.9847  -12.9897 C   0  0  1  0  0  0  0  0  0  0  0  0
    8.5770    3.2748  -13.0188 C   0  0  0  0  0  0  0  0  0  0  0  0
   10.8471    3.1048  -13.4117 C   0  0  0  0  0  0  0  0  0  0  0  0
    7.5376    3.5959  -12.0573 C   0  0  0  0  0  0  0  0  0  0  0  0
    6.3044    3.0799  -12.1466 C   0  0  0  0  0  0  0  0  0  0  0  0
    8.1746    2.4491  -13.9809 C   0  0  0  0  0  0  0  0  0  0  0  0
    7.7849    4.6049  -11.0320 C   0  0  0  0  0  0  0  0  0  0  0  0
    6.9619    1.8432  -14.0566 C   0  0  0  0  0  0  0  0  0  0  0  0
    5.2931    3.5528  -11.1332 F   0  0  0  0  0  0  0  0  0  0  0  0
    6.6030    0.8716  -15.0346 F   0  0  0  0  0  0  0  0  0  0  0  0
    5.9408    2.2137  -13.1123 C   0  0  0  0  0  0  0  0  0  0  0  0
  1  2  1  0  0  0  0
  1  8  2  0  0  0  0
  2  3  2  0  0  0  0
  3  4  1  0  0  0  0
  3  9  1  0  0  0  0
  4  5  1  0  0  0  0
  4  6  2  0  0  0  0
  6  7  1  0  0  0  0
  6  8  1  0  0  0  0
  9 10  1  0  0  0  0
 10 11  1  0  0  0  0
 11 12  1  0  0  0  0
 12 13  2  0  0  0  0
 12 14  1  0  0  0  0
 13 18  1  0  0  0  0
 13 19  1  0  0  0  0
 14 15  2  0  0  0  0
 15 16  1  0  0  0  0
 15 17  1  0  0  0  0
 17 19  2  0  0  0  0
 19 20  1  0  0  0  0
 20 21  2  0  0  0  0
 20 22  2  0  0  0  0
 20 23  1  0  0  0  0
 23 24  1  0  0  0  0
 23 25  1  6  0  0  0
 24 26  1  0  0  0  0
 24 28  2  0  0  0  0
 26 27  2  0  0  0  0
 26 29  1  0  0  0  0
 27 31  1  0  0  0  0
 27 33  1  0  0  0  0
 28 30  1  0  0  0  0
 30 32  1  0  0  0  0
 30 33  2  0  0  0  0
M  END
$$$$

 OpenBabel10082411353D

 33 35  0  0  0  0  0  0  0  0999 V2000
   10.9951    9.9694   -4.9946 C   0  0  0  0  0  0  0  0  0  0  0  0
   11.7938    9.3762   -4.2463 C   0  0  0  0  0  0  0  0  0  0  0  0
   10.8673    9.4548   -6.4276 C   0  0  0  0  0  0  0  0  0  0  0  0
   11.6576    7.9117   -4.2944 C   0  0  0  0  0  0  0  0  0  0  0  0
   10.5498    8.0257   -6.4521 C   0  0  0  0  0  0  0  0  0  0  0  0
   11.4715    7.2752   -5.6166 C   0  0  0  0  0  0  0  0  0  0  0  0
   10.5840    7.5390   -7.9254 C   0  0  0  0  0  0  0  0  0  0  0  0
   11.4612    8.1494   -8.8322 C   0  0  0  0  0  0  0  0  0  0  0  0
   12.6250    8.6294   -8.4338 O   0  0  0  0  0  0  0  0  0  0  0  0
   11.0835    8.4395  -10.0740 O   0  0  0  0  0  0  0  0  0  0  0  0
   11.2938    7.5612  -11.0769 C   0  0  0  0  0  0  0  0  0  0  0  0
   10.1547    7.2525  -11.9492 C   0  0  0  0  0  0  0  0  0  0  0  0
   10.4293    6.5622  -13.1348 C   0  0  0  0  0  0  0  0  0  0  0  0
   11.7295    6.4217  -13.6243 C   0  0  0  0  0  0  0  0  0  0  0  0
    8.8120    7.3918  -11.4649 C   0  0  0  0  0  0  0  0  0  0  0  0
   12.5351    7.8894  -11.6869 C   0  0  0  0  0  0  0  0  0  0  0  0
   13.5778    8.4243  -10.9673 O   0  0  0  0  0  0  0  0  0  0  0  0
    7.7211    7.1761  -12.4323 C   0  0  0  0  0  0  0  0  0  0  0  0
   12.8103    7.0723  -12.8897 C   0  0  0  0  0  0  0  0  0  0  0  0
    7.0543    5.9667  -12.3369 C   0  0  0  0  0  0  0  0  0  0  0  0
    7.2392    8.1844  -13.1320 C   0  0  0  0  0  0  0  0  0  0  0  0
    6.6882    5.3848  -13.5016 O   0  0  0  0  0  0  0  0  0  0  0  0
    6.5103    5.5543  -11.3870 O   0  0  0  0  0  0  0  0  0  0  0  0
    6.2207    3.9777  -13.2572 C   0  0  0  0  0  0  0  0  0  0  0  0
   12.0582    5.6070  -14.9443 C   0  0  0  0  0  0  0  0  0  0  0  0
   11.9052    4.2756  -14.8803 C   0  0  0  0  0  0  0  0  0  0  0  0
   10.9395    3.6103  -15.4919 N   0  0  0  0  0  0  0  0  0  0  0  0
   12.5389    3.7388  -14.0413 O   0  0  0  0  0  0  0  0  0  0  0  0
    9.9932    4.3098  -16.2783 C   0  0  0  0  0  0  0  0  0  0  0  0
   10.5627    2.1949  -15.1051 C   0  0  0  0  0  0  0  0  0  0  0  0
    9.2333    1.9322  -14.7887 C   0  0  0  0  0  0  0  0  0  0  0  0
    8.4994    3.9079  -15.9758 C   0  0  0  0  0  0  0  0  0  0  0  0
    8.3398    2.4991  -15.7615 O   0  0  0  0  0  0  0  0  0  0  0  0
  1  2  1  0  0  0  0
  1  3  1  0  0  0  0
  2  4  1  0  0  0  0
  3  5  1  0  0  0  0
  4  6  1  0  0  0  0
  5  6  1  0  0  0  0
  5  7  1  0  0  0  0
  7  8  1  0  0  0  0
  8  9  2  0  0  0  0
  8 10  1  0  0  0  0
 10 11  1  0  0  0  0
 11 12  1  0  0  0  0
 11 16  2  0  0  0  0
 12 13  2  0  0  0  0
 12 15  1  0  0  0  0
 13 14  1  0  0  0  0
 14 19  2  0  0  0  0
 14 25  1  0  0  0  0
 15 18  1  0  0  0  0
 16 17  1  0  0  0  0
 16 19  1  0  0  0  0
 18 20  1  0  0  0  0
 18 21  2  0  0  0  0
 20 22  1  0  0  0  0
 20 23  2  0  0  0  0
 22 24  1  0  0  0  0
 25 26  1  0  0  0  0
 26 27  1  0  0  0  0
 26 28  2  0  0  0  0
 27 29  1  0  0  0  0
 27 30  1  0  0  0  0
 29 32  1  0  0  0  0
 30 31  1  0  0  0  0
 31 33  1  0  0  0  0
 32 33  1  0  0  0  0
M  END
$$$$

 OpenBabel10082411353D

 33 36  0  0  0  0  0  0  0  0999 V2000
   10.9951    9.9694   -4.9946 C   0  0  0  0  0  0  0  0  0  0  0  0
   11.7938    9.3762   -4.2463 C   0  0  0  0  0  0  0  0  0  0  0  0
   10.8673    9.4548   -6.4276 C   0  0  0  0  0  0  0  0  0  0  0  0
   11.6576    7.9117   -4.2944 C   0  0  0  0  0  0  0  0  0  0  0  0
   10.5498    8.0257   -6.4521 C   0  0  0  0  0  0  0  0  0  0  0  0
   11.4715    7.2752   -5.6166 C   0  0  0  0  0  0  0  0  0  0  0  0
   10.5840    7.5390   -7.9254 C   0  0  0  0  0  0  0  0  0  0  0  0
   11.4612    8.1494   -8.8322 C   0  0  0  0  0  0  0  0  0  0  0  0
   12.6250    8.6294   -8.4338 O   0  0  0  0  0  0  0  0  0  0  0  0
   11.0835    8.4395  -10.0740 O   0  0  0  0  0  0  0  0  0  0  0  0
   11.2938    7.5612  -11.0769 C   0  0  0  0  0  0  0  0  0  0  0  0
   10.1547    7.2525  -11.9492 C   0  0  0  0  0  0  0  0  0  0  0  0
   10.4293    6.5622  -13.1348 C   0  0  0  0  0  0  0  0  0  0  0  0
   11.7295    6.4217  -13.6243 C   0  0  0  0  0  0  0  0  0  0  0  0
    8.8120    7.3918  -11.4649 C   0  0  1  0  0  0  0  0  0  0  0  0
   12.5351    7.8894  -11.6869 C   0  0  0  0  0  0  0  0  0  0  0  0
   13.5778    8.4243  -10.9673 O   0  0  0  0  0  0  0  0  0  0  0  0
    7.7211    7.1761  -12.4323 C   0  0  0  0  0  0  0  0  0  0  0  0
   12.8103    7.0723  -12.8897 C   0  0  0  0  0  0  0  0  0  0  0  0
    7.0543    5.9667  -12.3369 C   0  0  0  0  0  0  0  0  0  0  0  0
    7.2392    8.1844  -13.1320 C   0  0  0  0  0  0  0  0  0  0  0  0
   12.0288    5.6463  -14.9695 C   0  0  0  0  0  0  0  0  0  0  0  0
   12.1531    6.3362  -16.0124 C   0  0  0  0  0  0  0  0  0  0  0  0
   12.1104    7.7782  -16.1296 C   0  0  0  0  0  0  0  0  0  0  0  0
   12.2469    5.5558  -17.3031 C   0  0  0  0  0  0  0  0  0  0  0  0
   12.3775    4.3174  -14.8523 C   0  0  0  0  0  0  0  0  0  0  0  0
   12.4336    4.2065  -17.2211 C   0  0  0  0  0  0  0  0  0  0  0  0
   12.4152    3.5841  -15.8853 C   0  0  0  0  0  0  0  0  0  0  0  0
    6.3098    5.6244  -13.3419 O   0  0  0  0  0  0  0  0  0  0  0  0
    7.4949    5.1349  -11.4692 N   0  0  0  0  0  0  0  0  0  0  0  0
    8.4681    5.2914  -10.4389 C   0  0  0  0  0  0  0  0  0  0  0  0
    6.4893    4.0288  -11.2108 C   0  0  0  0  0  0  0  0  0  0  0  0
    8.7345    6.4652  -10.3446 C   0  0  0  0  0  0  0  0  0  0  0  0
  1  2  1  0  0  0  0
  1  3  1  0  0  0  0
  2  4  1  0  0  0  0
  3  5  1  0  0  0  0
  4  6  1  0  0  0  0
  5  6  1  0  0  0  0
  5  7  1  0  0  0  0
  7  8  1  0  0  0  0
  8  9  2  0  0  0  0
  8 10  1  0  0  0  0
 10 11  1  0  0  0  0
 11 12  1  0  0  0  0
 11 16  2  0  0  0  0
 12 13  2  0  0  0  0
 13 14  1  0  0  0  0
 14 19  2  0  0  0  0
 14 22  1  0  0  0  0
 15 12  1  6  0  0  0
 15 18  1  0  0  0  0
 15 33  1  0  0  0  0
 16 17  1  0  0  0  0
 16 19  1  0  0  0  0
 18 20  1  0  0  0  0
 18 21  2  0  0  0  0
 20 29  2  0  0  0  0
 20 30  1  0  0  0  0
 22 23  2  0  0  0  0
 22 26  1  0  0  0  0
 23 24  1  0  0  0  0
 23 25  1  0  0  0  0
 25 27  2  0  0  0  0
 26 28  2  0  0  0  0
 27 28  1  0  0  0  0
 30 31  1  0  0  0  0
 30 32  1  0  0  0  0
 31 33  1  0  0  0  0
M  END
$$$$

 OpenBabel10082411353D

 33 37  0  0  0  0  0  0  0  0999 V2000
   11.6836    6.0105   -4.8831 F   0  0  0  0  0  0  0  0  0  0  0  0
   11.2562    7.2206   -5.0294 C   0  0  0  0  0  0  0  0  0  0  0  0
   12.0125    8.2418   -4.4408 C   0  0  0  0  0  0  0  0  0  0  0  0
   11.1918    7.2706   -6.5237 C   0  0  2  0  0  0  0  0  0  0  0  0
   11.6999    8.4488   -3.1704 F   0  0  0  0  0  0  0  0  0  0  0  0
    9.8648    7.0908   -4.5314 F   0  0  0  0  0  0  0  0  0  0  0  0
   11.6831    8.5291   -6.9682 C   0  0  1  0  0  0  0  0  0  0  0  0
   13.3042    8.0958   -4.5769 F   0  0  0  0  0  0  0  0  0  0  0  0
   10.0051    6.7877   -7.1387 C   0  0  0  0  0  0  0  0  0  0  0  0
   12.1549    9.4036   -6.0698 C   0  0  0  0  0  0  0  0  0  0  0  0
   11.7936    9.4593   -5.0623 C   0  0  0  0  0  0  0  0  0  0  0  0
    9.9626    7.1059   -8.5400 C   0  0  2  0  0  0  0  0  0  0  0  0
    9.3281    6.3754   -9.5451 C   0  0  0  0  0  0  0  0  0  0  0  0
   11.2649    7.4508   -8.9092 C   0  0  2  0  0  0  0  0  0  0  0  0
    9.8780    6.3752  -10.8235 C   0  0  0  0  0  0  0  0  0  0  0  0
    9.3265    5.6536  -11.9552 C   0  0  0  0  0  0  0  0  0  0  0  0
   12.1537    8.4765   -8.3210 C   0  0  0  0  0  0  0  0  0  0  0  0
    9.9894    5.7486  -13.2720 C   0  0  0  0  0  0  0  0  0  0  0  0
    8.2072    4.9461  -11.9101 C   0  0  0  0  0  0  0  0  0  0  0  0
    9.4728    4.9797  -14.2857 C   0  0  0  0  0  0  0  0  0  0  0  0
   10.9648    7.1894  -11.0334 C   0  0  0  0  0  0  0  0  0  0  0  0
    7.5782    4.8691  -10.5460 F   0  0  0  0  0  0  0  0  0  0  0  0
   11.6255    7.6926  -10.1331 C   0  0  0  0  0  0  0  0  0  0  0  0
    8.3435    4.2404  -14.0756 C   0  0  0  0  0  0  0  0  0  0  0  0
    7.6541    4.2141  -12.8444 C   0  0  0  0  0  0  0  0  0  0  0  0
   12.9214    8.0384  -10.2061 C   0  0  0  0  0  0  0  0  0  0  0  0
   10.2585    4.9732  -15.6109 C   0  0  0  0  0  0  0  0  0  0  0  0
   13.7805    8.2428  -11.3629 C   0  0  0  0  0  0  0  0  0  0  0  0
   13.1504    8.7144   -8.9175 N   0  0  0  0  0  0  0  0  0  0  0  0
   11.4080    4.1922  -15.6888 C   0  0  1  0  0  0  0  0  0  0  0  0
   11.3191    2.9927  -16.3763 C   0  0  0  0  0  0  0  0  0  0  0  0
   12.5829    5.1130  -16.2675 C   0  0  0  0  0  0  0  0  0  0  0  0
   12.6324    6.3980  -15.6343 C   0  0  0  0  0  0  0  0  0  0  0  0
  1  2  1  0  0  0  0
  2  3  1  0  0  0  0
  2  4  1  0  0  0  0
  2  6  1  0  0  0  0
  3  5  1  0  0  0  0
  3  8  1  0  0  0  0
  3 11  1  0  0  0  0
  4  7  1  0  0  0  0
  4  9  1  1  0  0  0
  7 10  1  1  0  0  0
  7 17  1  0  0  0  0
 10 11  1  0  0  0  0
 12  9  1  1  0  0  0
 12 13  1  0  0  0  0
 12 14  1  0  0  0  0
 13 15  1  0  0  0  0
 14 17  1  1  0  0  0
 14 23  1  0  0  0  0
 15 16  1  0  0  0  0
 15 21  2  0  0  0  0
 16 18  1  0  0  0  0
 16 19  2  0  0  0  0
 17 29  2  0  0  0  0
 18 20  2  0  0  0  0
 19 22  1  0  0  0  0
 19 25  1  0  0  0  0
 20 24  1  0  0  0  0
 20 27  1  0  0  0  0
 21 23  1  0  0  0  0
 23 26  2  0  0  0  0
 24 25  2  0  0  0  0
 26 28  1  0  0  0  0
 26 29  1  0  0  0  0
 27 30  1  0  0  0  0
 30 31  1  6  0  0  0
 30 32  1  0  0  0  0
 32 33  1  0  0  0  0
M  END
$$$$

 OpenBabel10082411353D

 33 37  0  0  0  0  0  0  0  0999 V2000
   12.8881    8.7759   -3.5681 C   0  0  0  0  0  0  0  0  0  0  0  0
   11.9416    9.4732   -4.1220 C   0  0  0  0  0  0  0  0  0  0  0  0
   12.3556    7.6012   -2.6527 C   0  0  0  0  0  0  0  0  0  0  0  0
   11.8805    9.3400   -5.6557 C   0  0  0  0  0  0  0  0  0  0  0  0
   11.7716    6.5414   -3.3821 C   0  0  0  0  0  0  0  0  0  0  0  0
   10.8523    8.6585   -6.3310 C   0  0  0  0  0  0  0  0  0  0  0  0
   11.1142    8.2520   -7.7289 C   0  0  0  0  0  0  0  0  0  0  0  0
   10.0478    7.6568   -8.4887 C   0  0  0  0  0  0  0  0  0  0  0  0
   12.3648    8.4339   -8.3703 C   0  0  0  0  0  0  0  0  0  0  0  0
   12.6142    8.1352   -9.7322 C   0  0  0  0  0  0  0  0  0  0  0  0
   10.2852    7.3833   -9.9138 C   0  0  0  0  0  0  0  0  0  0  0  0
   11.5161    7.5808  -10.4860 C   0  0  0  0  0  0  0  0  0  0  0  0
   11.6641    7.2285  -11.8174 O   0  0  0  0  0  0  0  0  0  0  0  0
   10.8624    6.4419  -12.4395 C   0  0  0  0  0  0  0  0  0  0  0  0
   11.2693    5.8267  -13.4966 C   0  0  0  0  0  0  0  0  0  0  0  0
    9.5259    6.2192  -11.9953 C   0  0  0  0  0  0  0  0  0  0  0  0
    9.2551    6.6732  -10.5921 C   0  0  2  0  0  0  0  0  0  0  0  0
    8.1388    7.5201  -10.6434 O   0  0  0  0  0  0  0  0  0  0  0  0
   12.6263    6.1828  -14.1606 C   0  0  0  0  0  0  0  0  0  0  0  0
    7.2614    7.1893  -11.7193 C   0  0  2  0  0  0  0  0  0  0  0  0
   12.6352    7.3184  -14.7782 C   0  0  0  0  0  0  0  0  0  0  0  0
    8.2277    6.2735  -12.5381 C   0  0  0  0  0  0  0  0  0  0  0  0
    7.7180    5.1928  -13.4230 C   0  0  0  0  0  0  0  0  0  0  0  0
    8.4439    4.2015  -13.9045 C   0  0  0  0  0  0  0  0  0  0  0  0
    6.9950    8.4483  -12.4502 C   0  0  0  0  0  0  0  0  0  0  0  0
    7.7472    3.2985  -14.8364 C   0  0  0  0  0  0  0  0  0  0  0  0
    9.0300    5.4319   -9.7786 C   0  0  0  0  0  0  0  0  0  0  0  0
    8.1705    1.9584  -14.6092 C   0  0  0  0  0  0  0  0  0  0  0  0
    9.3621    1.6865  -14.2893 C   0  0  2  0  0  0  0  0  0  0  0  0
    9.8137    3.7826  -13.5228 C   0  0  2  0  0  0  0  0  0  0  0  0
    9.8271    0.3695  -14.4257 O   0  0  0  0  0  0  0  0  0  0  0  0
   10.8262    4.3937  -13.7648 C   0  0  0  0  0  0  0  0  0  0  0  0
   10.2195    2.4946  -13.7322 C   0  0  0  0  0  0  0  0  0  0  0  0
  1  2  1  0  0  0  0
  1  3  1  0  0  0  0
  2  4  1  0  0  0  0
  3  5  1  0  0  0  0
  4  6  1  0  0  0  0
  6  7  1  0  0  0  0
  7  8  1  0  0  0  0
  7  9  2  0  0  0  0
  8 11  2  0  0  0  0
  9 10  1  0  0  0  0
 10 12  2  0  0  0  0
 11 12  1  0  0  0  0
 11 17  1  0  0  0  0
 12 13  1  0  0  0  0
 13 14  1  0  0  0  0
 14 15  2  0  0  0  0
 14 16  1  0  0  0  0
 15 19  1  0  0  0  0
 15 32  1  0  0  0  0
 16 17  1  0  0  0  0
 16 22  2  0  0  0  0
 17 18  1  0  0  0  0
 17 27  1  1  0  0  0
 18 20  1  0  0  0  0
 19 21  2  0  0  0  0
 20 22  1  0  0  0  0
 20 25  1  6  0  0  0
 22 23  1  0  0  0  0
 23 24  2  0  0  0  0
 24 26  1  0  0  0  0
 24 30  1  0  0  0  0
 26 28  2  0  0  0  0
 28 29  1  0  0  0  0
 29 31  1  1  0  0  0
 29 33  1  0  0  0  0
 30 32  1  6  0  0  0
 30 33  1  0  0  0  0
M  END
$$$$

 OpenBabel10082411353D

 33 37  0  0  0  0  0  0  0  0999 V2000
   11.6836    6.0105   -4.8831 C   0  0  0  0  0  0  0  0  0  0  0  0
   11.1291    7.0732   -5.4395 C   0  0  0  0  0  0  0  0  0  0  0  0
   10.6954    7.0156   -6.8073 C   0  0  0  0  0  0  0  0  0  0  0  0
   10.2502    8.1187   -7.5536 C   0  0  2  0  0  0  0  0  0  0  0  0
   11.1205    8.4712   -4.9629 C   0  0  0  0  0  0  0  0  0  0  0  0
   10.8655    8.3511   -8.7960 C   0  0  0  0  0  0  0  0  0  0  0  0
   10.2922    7.8843   -9.9985 C   0  0  0  0  0  0  0  0  0  0  0  0
   10.4654    9.6993   -5.6120 C   0  0  0  0  0  0  0  0  0  0  0  0
   10.3510    9.5971   -7.0014 C   0  0  0  0  0  0  0  0  0  0  0  0
   12.2462    6.3351   -3.5020 C   0  0  0  0  0  0  0  0  0  0  0  0
   11.0471    7.5309  -11.1063 C   0  0  0  0  0  0  0  0  0  0  0  0
   11.7288    8.6923   -3.6518 C   0  0  0  0  0  0  0  0  0  0  0  0
   12.3991    7.7501  -11.1145 C   0  0  0  0  0  0  0  0  0  0  0  0
   12.3738    7.7580   -2.9599 C   0  0  0  0  0  0  0  0  0  0  0  0
   13.1285    8.5075  -10.1661 O   0  0  0  0  0  0  0  0  0  0  0  0
    9.0407    7.3775  -10.0973 N   0  0  0  0  0  0  0  0  0  0  0  0
    8.9787    6.9473  -11.4664 N   0  0  0  0  0  0  0  0  0  0  0  0
   13.1012    7.4459  -12.3707 C   0  0  0  0  0  0  0  0  0  0  0  0
   12.2395    6.9724  -13.2444 C   0  0  0  0  0  0  0  0  0  0  0  0
   10.2768    7.0170  -11.9799 C   0  0  0  0  0  0  0  0  0  0  0  0
   12.9237    6.5822  -14.5759 O   0  0  0  0  0  0  0  0  0  0  0  0
   10.8906    6.6526  -13.2252 C   0  0  0  0  0  0  0  0  0  0  0  0
   12.2396    6.1290  -15.6916 C   0  0  0  0  0  0  0  0  0  0  0  0
    7.8036    6.1825  -11.9342 C   0  0  0  0  0  0  0  0  0  0  0  0
   12.5015    4.7115  -15.7686 C   0  0  0  0  0  0  0  0  0  0  0  0
   11.2371    3.8608  -15.4354 C   0  0  0  0  0  0  0  0  0  0  0  0
   10.7528    3.7938  -14.2514 C   0  0  0  0  0  0  0  0  0  0  0  0
    9.5139    2.8763  -14.1188 C   0  0  0  0  0  0  0  0  0  0  0  0
    8.4142    3.5280  -13.4436 C   0  0  0  0  0  0  0  0  0  0  0  0
    7.3718    6.7034  -13.1333 C   0  0  0  0  0  0  0  0  0  0  0  0
    7.3670    5.0799  -11.3228 C   0  0  0  0  0  0  0  0  0  0  0  0
    7.5175    2.9068  -12.6382 C   0  0  0  0  0  0  0  0  0  0  0  0
    6.6135    3.9415  -11.8891 C   0  0  0  0  0  0  0  0  0  0  0  0
  1  2  1  0  0  0  0
  1 10  2  0  0  0  0
  2  3  1  0  0  0  0
  2  5  2  0  0  0  0
  3  4  1  0  0  0  0
  4  6  1  6  0  0  0
  4  9  1  0  0  0  0
  5  8  1  0  0  0  0
  5 12  1  0  0  0  0
  6  7  1  0  0  0  0
  7 11  1  0  0  0  0
  7 16  2  0  0  0  0
  8  9  1  0  0  0  0
 10 14  1  0  0  0  0
 11 13  2  0  0  0  0
 11 20  1  0  0  0  0
 12 14  2  0  0  0  0
 13 15  1  0  0  0  0
 13 18  1  0  0  0  0
 16 17  1  0  0  0  0
 17 20  1  0  0  0  0
 17 24  1  0  0  0  0
 18 19  2  0  0  0  0
 19 21  1  0  0  0  0
 19 22  1  0  0  0  0
 20 22  2  0  0  0  0
 21 23  1  0  0  0  0
 23 25  1  0  0  0  0
 24 30  1  0  0  0  0
 24 31  2  0  0  0  0
 25 26  1  0  0  0  0
 26 27  1  0  0  0  0
 27 28  1  0  0  0  0
 28 29  1  0  0  0  0
 29 32  1  0  0  0  0
 31 33  1  0  0  0  0
 32 33  1  0  0  0  0
M  END
$$$$

 OpenBabel10082411353D

 33 35  0  0  0  0  0  0  0  0999 V2000
   10.9951    9.9694   -4.9946 C   0  0  0  0  0  0  0  0  0  0  0  0
   11.7938    9.3762   -4.2463 C   0  0  0  0  0  0  0  0  0  0  0  0
   10.8673    9.4548   -6.4276 C   0  0  0  0  0  0  0  0  0  0  0  0
   11.6576    7.9117   -4.2944 C   0  0  0  0  0  0  0  0  0  0  0  0
   10.5498    8.0257   -6.4521 C   0  0  0  0  0  0  0  0  0  0  0  0
   11.4715    7.2752   -5.6166 C   0  0  0  0  0  0  0  0  0  0  0  0
   10.5840    7.5390   -7.9254 C   0  0  0  0  0  0  0  0  0  0  0  0
   11.4612    8.1494   -8.8322 C   0  0  0  0  0  0  0  0  0  0  0  0
   12.6250    8.6294   -8.4338 O   0  0  0  0  0  0  0  0  0  0  0  0
   11.0835    8.4395  -10.0740 O   0  0  0  0  0  0  0  0  0  0  0  0
   11.2938    7.5612  -11.0769 C   0  0  0  0  0  0  0  0  0  0  0  0
   10.1547    7.2525  -11.9492 C   0  0  0  0  0  0  0  0  0  0  0  0
   10.4293    6.5622  -13.1348 C   0  0  0  0  0  0  0  0  0  0  0  0
   11.7295    6.4217  -13.6243 C   0  0  0  0  0  0  0  0  0  0  0  0
    8.8120    7.3918  -11.4649 C   0  0  0  0  0  0  0  0  0  0  0  0
   12.5351    7.8894  -11.6869 C   0  0  0  0  0  0  0  0  0  0  0  0
   13.5778    8.4243  -10.9673 O   0  0  0  0  0  0  0  0  0  0  0  0
    7.7211    7.1761  -12.4323 C   0  0  0  0  0  0  0  0  0  0  0  0
   12.8103    7.0723  -12.8897 C   0  0  0  0  0  0  0  0  0  0  0  0
    7.0543    5.9667  -12.3369 C   0  0  0  0  0  0  0  0  0  0  0  0
    7.2392    8.1844  -13.1320 C   0  0  0  0  0  0  0  0  0  0  0  0
    6.6882    5.3848  -13.5016 O   0  0  0  0  0  0  0  0  0  0  0  0
    6.5103    5.5543  -11.3870 O   0  0  0  0  0  0  0  0  0  0  0  0
    7.4031    4.0506  -13.7852 C   0  0  2  0  0  0  0  0  0  0  0  0
    8.6811    3.9966  -14.1333 C   0  0  0  0  0  0  0  0  0  0  0  0
   12.0732    5.6649  -14.9357 C   0  0  0  0  0  0  0  0  0  0  0  0
    6.5833    2.9970  -14.2590 C   0  0  0  0  0  0  0  0  0  0  0  0
   12.1769    6.3888  -15.9096 O   0  0  0  0  0  0  0  0  0  0  0  0
   12.3719    4.4123  -14.9068 N   0  0  0  0  0  0  0  0  0  0  0  0
   11.7028    3.4947  -13.8962 C   0  0  0  0  0  0  0  0  0  0  0  0
    9.5542    3.2595  -13.3888 N   0  0  0  0  0  0  0  0  0  0  0  0
    9.1502    4.5625  -15.1173 O   0  0  0  0  0  0  0  0  0  0  0  0
   10.5387    2.7615  -14.1660 C   0  0  0  0  0  0  0  0  0  0  0  0
  1  2  1  0  0  0  0
  1  3  1  0  0  0  0
  2  4  1  0  0  0  0
  3  5  1  0  0  0  0
  4  6  1  0  0  0  0
  5  6  1  0  0  0  0
  5  7  1  0  0  0  0
  7  8  1  0  0  0  0
  8  9  2  0  0  0  0
  8 10  1  0  0  0  0
 10 11  1  0  0  0  0
 11 12  1  0  0  0  0
 11 16  2  0  0  0  0
 12 13  2  0  0  0  0
 12 15  1  0  0  0  0
 13 14  1  0  0  0  0
 14 19  2  0  0  0  0
 14 26  1  0  0  0  0
 15 18  1  0  0  0  0
 16 17  1  0  0  0  0
 16 19  1  0  0  0  0
 18 20  1  0  0  0  0
 18 21  2  0  0  0  0
 20 22  1  0  0  0  0
 20 23  2  0  0  0  0
 22 24  1  0  0  0  0
 24 25  1  0  0  0  0
 24 27  1  6  0  0  0
 25 31  1  0  0  0  0
 25 32  2  0  0  0  0
 26 28  2  0  0  0  0
 26 29  1  0  0  0  0
 29 30  1  0  0  0  0
 30 33  1  0  0  0  0
 31 33  1  0  0  0  0
M  END
$$$$

 OpenBabel10082411353D

 33 35  0  0  0  0  0  0  0  0999 V2000
   10.9951    9.9694   -4.9946 C   0  0  0  0  0  0  0  0  0  0  0  0
   11.7938    9.3762   -4.2463 C   0  0  0  0  0  0  0  0  0  0  0  0
   10.8673    9.4548   -6.4276 C   0  0  0  0  0  0  0  0  0  0  0  0
   11.6576    7.9117   -4.2944 C   0  0  0  0  0  0  0  0  0  0  0  0
   10.5498    8.0257   -6.4521 C   0  0  0  0  0  0  0  0  0  0  0  0
   11.4715    7.2752   -5.6166 C   0  0  0  0  0  0  0  0  0  0  0  0
   10.5840    7.5390   -7.9254 C   0  0  0  0  0  0  0  0  0  0  0  0
   11.4612    8.1494   -8.8322 C   0  0  0  0  0  0  0  0  0  0  0  0
   12.6250    8.6294   -8.4338 O   0  0  0  0  0  0  0  0  0  0  0  0
   11.0835    8.4395  -10.0740 O   0  0  0  0  0  0  0  0  0  0  0  0
   11.2938    7.5612  -11.0769 C   0  0  0  0  0  0  0  0  0  0  0  0
   10.1547    7.2525  -11.9492 C   0  0  0  0  0  0  0  0  0  0  0  0
   10.4293    6.5622  -13.1348 C   0  0  0  0  0  0  0  0  0  0  0  0
   11.7295    6.4217  -13.6243 C   0  0  0  0  0  0  0  0  0  0  0  0
    8.8120    7.3918  -11.4649 C   0  0  0  0  0  0  0  0  0  0  0  0
   12.5351    7.8894  -11.6869 C   0  0  0  0  0  0  0  0  0  0  0  0
   13.5778    8.4243  -10.9673 O   0  0  0  0  0  0  0  0  0  0  0  0
    7.7211    7.1761  -12.4323 C   0  0  0  0  0  0  0  0  0  0  0  0
   12.8103    7.0723  -12.8897 C   0  0  0  0  0  0  0  0  0  0  0  0
    7.0543    5.9667  -12.3369 C   0  0  0  0  0  0  0  0  0  0  0  0
    7.2392    8.1844  -13.1320 C   0  0  0  0  0  0  0  0  0  0  0  0
    6.6882    5.3848  -13.5016 O   0  0  0  0  0  0  0  0  0  0  0  0
    6.5103    5.5543  -11.3870 O   0  0  0  0  0  0  0  0  0  0  0  0
    6.2207    3.9777  -13.2572 C   0  0  0  0  0  0  0  0  0  0  0  0
   12.0582    5.6070  -14.9443 C   0  0  0  0  0  0  0  0  0  0  0  0
   11.9052    4.2756  -14.8803 C   0  0  0  0  0  0  0  0  0  0  0  0
   10.9395    3.6103  -15.4919 N   0  0  0  0  0  0  0  0  0  0  0  0
   12.5389    3.7388  -14.0413 O   0  0  0  0  0  0  0  0  0  0  0  0
   10.7891    2.1469  -15.4128 C   0  0  0  0  0  0  0  0  0  0  0  0
    9.4086    1.7174  -15.2417 C   0  0  0  0  0  0  0  0  0  0  0  0
    9.0257    1.5362  -13.9400 O   0  0  0  0  0  0  0  0  0  0  0  0
    7.1985    2.9412  -13.8347 C   0  0  0  0  0  0  0  0  0  0  0  0
    7.7435    1.8647  -13.5920 C   0  0  0  0  0  0  0  0  0  0  0  0
  1  2  1  0  0  0  0
  1  3  1  0  0  0  0
  2  4  1  0  0  0  0
  3  5  1  0  0  0  0
  4  6  1  0  0  0  0
  5  6  1  0  0  0  0
  5  7  1  0  0  0  0
  7  8  1  0  0  0  0
  8  9  2  0  0  0  0
  8 10  1  0  0  0  0
 10 11  1  0  0  0  0
 11 12  1  0  0  0  0
 11 16  2  0  0  0  0
 12 13  2  0  0  0  0
 12 15  1  0  0  0  0
 13 14  1  0  0  0  0
 14 19  2  0  0  0  0
 14 25  1  0  0  0  0
 15 18  1  0  0  0  0
 16 17  1  0  0  0  0
 16 19  1  0  0  0  0
 18 20  1  0  0  0  0
 18 21  2  0  0  0  0
 20 22  1  0  0  0  0
 20 23  2  0  0  0  0
 22 24  1  0  0  0  0
 24 32  1  0  0  0  0
 25 26  1  0  0  0  0
 26 27  1  0  0  0  0
 26 28  2  0  0  0  0
 27 29  1  0  0  0  0
 29 30  1  0  0  0  0
 30 31  1  0  0  0  0
 31 33  1  0  0  0  0
 32 33  1  0  0  0  0
M  END
$$$$

 OpenBabel10082411353D

 33 37  0  0  0  0  0  0  0  0999 V2000
   11.6836    6.0105   -4.8831 C   0  0  0  0  0  0  0  0  0  0  0  0
   11.1291    7.0732   -5.4395 C   0  0  0  0  0  0  0  0  0  0  0  0
   10.6954    7.0156   -6.8073 C   0  0  0  0  0  0  0  0  0  0  0  0
   10.2502    8.1187   -7.5536 C   0  0  2  0  0  0  0  0  0  0  0  0
   11.1205    8.4712   -4.9629 C   0  0  0  0  0  0  0  0  0  0  0  0
   10.8655    8.3511   -8.7960 C   0  0  0  0  0  0  0  0  0  0  0  0
   10.2922    7.8843   -9.9985 C   0  0  0  0  0  0  0  0  0  0  0  0
   10.4654    9.6993   -5.6120 C   0  0  0  0  0  0  0  0  0  0  0  0
   10.3510    9.5971   -7.0014 C   0  0  0  0  0  0  0  0  0  0  0  0
   12.2462    6.3351   -3.5020 C   0  0  0  0  0  0  0  0  0  0  0  0
   11.0471    7.5309  -11.1063 C   0  0  0  0  0  0  0  0  0  0  0  0
   11.7288    8.6923   -3.6518 C   0  0  0  0  0  0  0  0  0  0  0  0
   12.3991    7.7501  -11.1145 C   0  0  0  0  0  0  0  0  0  0  0  0
   12.3738    7.7580   -2.9599 C   0  0  0  0  0  0  0  0  0  0  0  0
   13.1285    8.5075  -10.1661 O   0  0  0  0  0  0  0  0  0  0  0  0
    9.0407    7.3775  -10.0973 N   0  0  0  0  0  0  0  0  0  0  0  0
    8.9787    6.9473  -11.4664 N   0  0  0  0  0  0  0  0  0  0  0  0
   13.1486    7.4839  -12.3563 C   0  0  0  0  0  0  0  0  0  0  0  0
   10.2774    6.9211  -12.0258 C   0  0  0  0  0  0  0  0  0  0  0  0
    7.7103    6.4336  -11.9664 C   0  0  0  0  0  0  0  0  0  0  0  0
   12.3181    6.9212  -13.3802 C   0  0  0  0  0  0  0  0  0  0  0  0
   12.9543    6.5895  -14.6358 O   0  0  0  0  0  0  0  0  0  0  0  0
   10.9162    6.6353  -13.2980 C   0  0  0  0  0  0  0  0  0  0  0  0
    7.7682    4.9539  -12.3144 C   0  0  0  0  0  0  0  0  0  0  0  0
   12.5567    5.5127  -15.3192 C   0  0  0  0  0  0  0  0  0  0  0  0
    6.7187    7.1761  -12.3365 C   0  0  0  0  0  0  0  0  0  0  0  0
    6.6912    4.3470  -12.8055 C   0  0  0  0  0  0  0  0  0  0  0  0
    6.7602    8.6758  -12.1854 C   0  0  0  0  0  0  0  0  0  0  0  0
    5.5485    5.2159  -13.1184 C   0  0  0  0  0  0  0  0  0  0  0  0
    6.6442    2.9513  -13.0194 C   0  0  0  0  0  0  0  0  0  0  0  0
    5.5801    6.5306  -12.8963 C   0  0  0  0  0  0  0  0  0  0  0  0
    7.5307    2.4004  -13.8776 C   0  0  0  0  0  0  0  0  0  0  0  0
    7.6015    1.0697  -14.0754 C   0  0  0  0  0  0  0  0  0  0  0  0
  1  2  1  0  0  0  0
  1 10  2  0  0  0  0
  2  3  1  0  0  0  0
  2  5  2  0  0  0  0
  3  4  1  0  0  0  0
  4  6  1  6  0  0  0
  4  9  1  0  0  0  0
  5  8  1  0  0  0  0
  5 12  1  0  0  0  0
  6  7  1  0  0  0  0
  7 11  1  0  0  0  0
  7 16  2  0  0  0  0
  8  9  1  0  0  0  0
 10 14  1  0  0  0  0
 11 13  2  0  0  0  0
 11 19  1  0  0  0  0
 12 14  2  0  0  0  0
 13 15  1  0  0  0  0
 13 18  1  0  0  0  0
 16 17  1  0  0  0  0
 17 19  1  0  0  0  0
 17 20  1  0  0  0  0
 18 21  2  0  0  0  0
 19 23  2  0  0  0  0
 20 24  1  0  0  0  0
 20 26  2  0  0  0  0
 21 22  1  0  0  0  0
 21 23  1  0  0  0  0
 22 25  1  0  0  0  0
 24 27  2  0  0  0  0
 26 28  1  0  0  0  0
 26 31  1  0  0  0  0
 27 29  1  0  0  0  0
 27 30  1  0  0  0  0
 29 31  2  0  0  0  0
 30 32  1  0  0  0  0
 32 33  2  0  0  0  0
M  END
$$$$

 OpenBabel10082411353D

 33 36  0  0  0  0  0  0  0  0999 V2000
   13.2485    9.2493   -6.3668 O   0  0  0  0  0  0  0  0  0  0  0  0
   12.3055    9.1779   -7.4488 C   0  0  1  0  0  0  0  0  0  0  0  0
   12.5005    8.1033   -8.2440 C   0  0  0  0  0  0  0  0  0  0  0  0
   11.7072    8.0925   -9.4886 C   0  0  0  0  0  0  0  0  0  0  0  0
   12.2659    7.9483  -10.6668 C   0  0  0  0  0  0  0  0  0  0  0  0
   10.2869    8.0426   -9.4299 C   0  0  0  0  0  0  0  0  0  0  0  0
   13.6482    8.0497  -10.9162 O   0  0  0  0  0  0  0  0  0  0  0  0
   11.5356    7.8148  -11.9199 C   0  0  0  0  0  0  0  0  0  0  0  0
   12.2597    7.6523  -13.1838 C   0  0  0  0  0  0  0  0  0  0  0  0
    9.5345    7.8388  -10.6476 C   0  0  0  0  0  0  0  0  0  0  0  0
   12.7796    8.4277  -13.7325 O   0  0  0  0  0  0  0  0  0  0  0  0
   10.1724    7.7406  -11.8577 C   0  0  0  0  0  0  0  0  0  0  0  0
   12.4765    6.3392  -13.7439 N   0  0  0  0  0  0  0  0  0  0  0  0
    9.2368    7.4770  -13.0161 C   0  0  1  0  0  0  0  0  0  0  0  0
    8.7686    6.0601  -13.0538 C   0  0  0  0  0  0  0  0  0  0  0  0
   11.7377    5.1496  -13.1887 C   0  0  0  0  0  0  0  0  0  0  0  0
   10.9893    9.0510   -6.5404 C   0  0  0  0  0  0  0  0  0  0  0  0
   11.2522    8.1647   -5.3854 C   0  0  2  0  0  0  0  0  0  0  0  0
    7.8881    5.4892  -12.2818 C   0  0  0  0  0  0  0  0  0  0  0  0
    8.1030    8.4511  -12.9051 C   0  0  0  0  0  0  0  0  0  0  0  0
   11.2726    4.1709  -14.3554 C   0  0  0  0  0  0  0  0  0  0  0  0
   12.7640    9.8841   -5.1669 C   0  0  0  0  0  0  0  0  0  0  0  0
   10.2020    7.3447   -4.8869 O   0  0  0  0  0  0  0  0  0  0  0  0
    9.2807    5.2234  -14.0940 C   0  0  0  0  0  0  0  0  0  0  0  0
    9.9511    4.1599  -14.4562 C   0  0  2  0  0  0  0  0  0  0  0  0
   11.8540    8.9171   -4.3609 C   0  0  0  0  0  0  0  0  0  0  0  0
    9.4020    2.9741  -13.9922 C   0  0  0  0  0  0  0  0  0  0  0  0
    8.0775    2.6860  -13.9460 O   0  0  0  0  0  0  0  0  0  0  0  0
   10.0446    2.1558  -13.3513 O   0  0  0  0  0  0  0  0  0  0  0  0
    7.1914    3.0971  -13.0197 C   0  0  2  0  0  0  0  0  0  0  0  0
    6.1146    2.1772  -12.8639 C   0  0  0  0  0  0  0  0  0  0  0  0
    7.2658    4.4549  -12.1961 C   0  0  0  0  0  0  0  0  0  0  0  0
    7.6505    6.2484  -11.1331 O   0  0  0  0  0  0  0  0  0  0  0  0
  1  2  1  0  0  0  0
  1 22  1  0  0  0  0
  2  3  1  6  0  0  0
  2 17  1  0  0  0  0
  3  4  1  0  0  0  0
  4  5  1  0  0  0  0
  4  6  2  0  0  0  0
  5  7  1  0  0  0  0
  5  8  2  0  0  0  0
  6 10  1  0  0  0  0
  8  9  1  0  0  0  0
  8 12  1  0  0  0  0
  9 11  2  0  0  0  0
  9 13  1  0  0  0  0
 10 12  2  0  0  0  0
 12 14  1  0  0  0  0
 13 16  1  0  0  0  0
 14 15  1  0  0  0  0
 14 20  1  1  0  0  0
 15 19  1  0  0  0  0
 15 24  2  0  0  0  0
 16 21  1  0  0  0  0
 17 18  1  0  0  0  0
 18 23  1  1  0  0  0
 18 26  1  0  0  0  0
 19 32  1  0  0  0  0
 19 33  2  0  0  0  0
 22 26  1  0  0  0  0
 24 25  1  0  0  0  0
 25 21  1  1  0  0  0
 25 27  1  0  0  0  0
 27 28  1  0  0  0  0
 27 29  2  0  0  0  0
 28 30  1  0  0  0  0
 30 31  1  6  0  0  0
 30 32  1  0  0  0  0
M  END
$$$$

 OpenBabel10082411353D

 23 26  0  0  0  0  0  0  0  0999 V2000
   13.2485    9.2493   -6.3668 O   0  0  0  0  0  0  0  0  0  0  0  0
   12.3055    9.1779   -7.4488 C   0  0  0  0  0  0  0  0  0  0  0  0
   11.3830    8.1797   -7.0652 C   0  0  1  0  0  0  0  0  0  0  0  0
   10.7709    8.3176   -5.8621 O   0  0  0  0  0  0  0  0  0  0  0  0
   10.3061    7.2510   -5.2285 C   0  0  0  0  0  0  0  0  0  0  0  0
   10.3303    8.0826   -8.1962 C   0  0  2  0  0  0  0  0  0  0  0  0
   11.3674    6.2215   -5.4116 C   0  0  1  0  0  0  0  0  0  0  0  0
   12.0647    6.7899   -6.6886 C   0  0  0  0  0  0  0  0  0  0  0  0
   10.0567    6.8694   -8.7194 C   0  0  0  0  0  0  0  0  0  0  0  0
   10.7404    8.9785   -9.4036 C   0  0  0  0  0  0  0  0  0  0  0  0
   12.4250    6.3587   -4.4276 C   0  0  0  0  0  0  0  0  0  0  0  0
    9.1150    6.8205   -9.7964 N   0  0  2  0  0  0  0  0  0  0  0  0
    8.7137    5.4459  -10.1877 C   0  0  0  0  0  0  0  0  0  0  0  0
    9.7064    7.3810  -11.0641 C   0  0  1  0  0  0  0  0  0  0  0  0
   11.7591    8.3271  -10.0852 O   0  0  0  0  0  0  0  0  0  0  0  0
    8.5180    5.0826  -11.5531 C   0  0  2  0  0  0  0  0  0  0  0  0
   11.1448    7.5452  -11.1048 C   0  0  0  0  0  0  0  0  0  0  0  0
    9.2391    6.2566  -12.2242 C   0  0  1  0  0  0  0  0  0  0  0  0
    8.2764    6.9812  -13.0626 C   0  0  0  0  0  0  0  0  0  0  0  0
    6.8462    6.9036  -12.4547 C   0  0  0  0  0  0  0  0  0  0  0  0
   11.9196    6.6760  -11.7679 O   0  0  0  0  0  0  0  0  0  0  0  0
    7.0472    5.1870  -11.9060 C   0  0  1  0  0  0  0  0  0  0  0  0
    6.6430    4.4813  -13.1744 C   0  0  0  0  0  0  0  0  0  0  0  0
  1  2  1  0  0  0  0
  3  2  1  6  0  0  0
  3  4  1  0  0  0  0
  3  6  1  0  0  0  0
  3  8  1  0  0  0  0
  4  5  1  0  0  0  0
  5  7  1  0  0  0  0
  6  9  1  6  0  0  0
  6 10  1  0  0  0  0
  7  8  1  0  0  0  0
  7 11  1  1  0  0  0
 10 15  1  0  0  0  0
 12  9  1  1  0  0  0
 12 13  1  0  0  0  0
 12 14  1  0  0  0  0
 14 17  1  1  0  0  0
 14 18  1  0  0  0  0
 15 17  1  0  0  0  0
 16 13  1  1  0  0  0
 16 18  1  0  0  0  0
 16 22  1  0  0  0  0
 17 21  2  0  0  0  0
 18 19  1  6  0  0  0
 19 20  1  0  0  0  0
 20 22  1  0  0  0  0
 22 23  1  6  0  0  0
M  END
$$$$

 OpenBabel10082411353D

 33 35  0  0  0  0  0  0  0  0999 V2000
   10.9951    9.9694   -4.9946 C   0  0  0  0  0  0  0  0  0  0  0  0
   11.7938    9.3762   -4.2463 C   0  0  0  0  0  0  0  0  0  0  0  0
   10.8673    9.4548   -6.4276 C   0  0  0  0  0  0  0  0  0  0  0  0
   11.6576    7.9117   -4.2944 C   0  0  0  0  0  0  0  0  0  0  0  0
   10.5498    8.0257   -6.4521 C   0  0  0  0  0  0  0  0  0  0  0  0
   11.4715    7.2752   -5.6166 C   0  0  0  0  0  0  0  0  0  0  0  0
   10.5840    7.5390   -7.9254 C   0  0  0  0  0  0  0  0  0  0  0  0
   11.4612    8.1494   -8.8322 C   0  0  0  0  0  0  0  0  0  0  0  0
   12.6250    8.6294   -8.4338 O   0  0  0  0  0  0  0  0  0  0  0  0
   11.0835    8.4395  -10.0740 O   0  0  0  0  0  0  0  0  0  0  0  0
   11.2938    7.5612  -11.0769 C   0  0  0  0  0  0  0  0  0  0  0  0
   10.1547    7.2525  -11.9492 C   0  0  0  0  0  0  0  0  0  0  0  0
   10.4293    6.5622  -13.1348 C   0  0  0  0  0  0  0  0  0  0  0  0
   11.7295    6.4217  -13.6243 C   0  0  0  0  0  0  0  0  0  0  0  0
    8.8120    7.3918  -11.4649 C   0  0  0  0  0  0  0  0  0  0  0  0
   12.5351    7.8894  -11.6869 C   0  0  0  0  0  0  0  0  0  0  0  0
   13.5778    8.4243  -10.9673 O   0  0  0  0  0  0  0  0  0  0  0  0
    7.7211    7.1761  -12.4323 C   0  0  0  0  0  0  0  0  0  0  0  0
   12.8103    7.0723  -12.8897 C   0  0  0  0  0  0  0  0  0  0  0  0
    7.0543    5.9667  -12.3369 C   0  0  0  0  0  0  0  0  0  0  0  0
    7.2392    8.1844  -13.1320 C   0  0  0  0  0  0  0  0  0  0  0  0
    6.6882    5.3848  -13.5016 O   0  0  0  0  0  0  0  0  0  0  0  0
    6.5103    5.5543  -11.3870 O   0  0  0  0  0  0  0  0  0  0  0  0
    7.4031    4.0506  -13.7852 C   0  0  2  0  0  0  0  0  0  0  0  0
    8.6811    3.9966  -14.1333 C   0  0  0  0  0  0  0  0  0  0  0  0
   12.0732    5.6649  -14.9357 C   0  0  0  0  0  0  0  0  0  0  0  0
    6.5833    2.9970  -14.2590 C   0  0  0  0  0  0  0  0  0  0  0  0
   12.1769    6.3888  -15.9096 O   0  0  0  0  0  0  0  0  0  0  0  0
   11.8863    4.3874  -14.9650 N   0  0  0  0  0  0  0  0  0  0  0  0
    9.2289    2.7351  -14.2957 C   0  0  0  0  0  0  0  0  0  0  0  0
   11.5865    3.5710  -13.7825 C   0  0  0  0  0  0  0  0  0  0  0  0
    6.3983    1.9007  -13.2293 C   0  0  0  0  0  0  0  0  0  0  0  0
   10.6831    2.3733  -14.2114 C   0  0  0  0  0  0  0  0  0  0  0  0
  1  2  1  0  0  0  0
  1  3  1  0  0  0  0
  2  4  1  0  0  0  0
  3  5  1  0  0  0  0
  4  6  1  0  0  0  0
  5  6  1  0  0  0  0
  5  7  1  0  0  0  0
  7  8  1  0  0  0  0
  8  9  2  0  0  0  0
  8 10  1  0  0  0  0
 10 11  1  0  0  0  0
 11 12  1  0  0  0  0
 11 16  2  0  0  0  0
 12 13  2  0  0  0  0
 12 15  1  0  0  0  0
 13 14  1  0  0  0  0
 14 19  2  0  0  0  0
 14 26  1  0  0  0  0
 15 18  1  0  0  0  0
 16 17  1  0  0  0  0
 16 19  1  0  0  0  0
 18 20  1  0  0  0  0
 18 21  2  0  0  0  0
 20 22  1  0  0  0  0
 20 23  2  0  0  0  0
 22 24  1  0  0  0  0
 24 25  1  0  0  0  0
 24 27  1  6  0  0  0
 25 30  1  0  0  0  0
 26 28  2  0  0  0  0
 26 29  1  0  0  0  0
 27 32  1  0  0  0  0
 29 31  1  0  0  0  0
 30 33  2  0  0  0  0
 31 33  1  0  0  0  0
M  END
$$$$

 OpenBabel10082411353D

 33 37  0  0  0  0  0  0  0  0999 V2000
   11.6836    6.0105   -4.8831 C   0  0  0  0  0  0  0  0  0  0  0  0
   11.1291    7.0732   -5.4395 C   0  0  0  0  0  0  0  0  0  0  0  0
   10.6954    7.0156   -6.8073 C   0  0  0  0  0  0  0  0  0  0  0  0
   10.2502    8.1187   -7.5536 C   0  0  2  0  0  0  0  0  0  0  0  0
   11.1205    8.4712   -4.9629 C   0  0  0  0  0  0  0  0  0  0  0  0
   10.8655    8.3511   -8.7960 C   0  0  0  0  0  0  0  0  0  0  0  0
   10.2922    7.8843   -9.9985 C   0  0  0  0  0  0  0  0  0  0  0  0
   10.4654    9.6993   -5.6120 C   0  0  0  0  0  0  0  0  0  0  0  0
   10.3510    9.5971   -7.0014 C   0  0  0  0  0  0  0  0  0  0  0  0
   12.2462    6.3351   -3.5020 C   0  0  0  0  0  0  0  0  0  0  0  0
   11.0471    7.5309  -11.1063 C   0  0  0  0  0  0  0  0  0  0  0  0
   11.7288    8.6923   -3.6518 C   0  0  0  0  0  0  0  0  0  0  0  0
   12.3991    7.7501  -11.1145 C   0  0  0  0  0  0  0  0  0  0  0  0
   12.3738    7.7580   -2.9599 C   0  0  0  0  0  0  0  0  0  0  0  0
   13.1285    8.5075  -10.1661 O   0  0  0  0  0  0  0  0  0  0  0  0
    9.0407    7.3775  -10.0973 N   0  0  0  0  0  0  0  0  0  0  0  0
    8.9787    6.9473  -11.4664 N   0  0  0  0  0  0  0  0  0  0  0  0
   13.1012    7.4459  -12.3707 C   0  0  0  0  0  0  0  0  0  0  0  0
   12.2395    6.9724  -13.2444 C   0  0  0  0  0  0  0  0  0  0  0  0
   10.2768    7.0170  -11.9799 C   0  0  0  0  0  0  0  0  0  0  0  0
    7.8073    6.9028  -12.1886 C   0  0  0  0  0  0  0  0  0  0  0  0
   10.8782    6.7325  -13.1253 C   0  0  0  0  0  0  0  0  0  0  0  0
    7.0194    7.9782  -12.2466 C   0  0  0  0  0  0  0  0  0  0  0  0
    7.5977    5.6931  -12.5976 C   0  0  0  0  0  0  0  0  0  0  0  0
    8.4582    4.5155  -12.4062 C   0  0  0  0  0  0  0  0  0  0  0  0
    8.4287    3.3641  -13.2856 C   0  0  0  0  0  0  0  0  0  0  0  0
    9.5731    2.9649  -13.9595 C   0  0  0  0  0  0  0  0  0  0  0  0
   10.6334    3.7851  -14.0785 C   0  0  0  0  0  0  0  0  0  0  0  0
    9.4750    1.7859  -14.8134 C   0  0  0  0  0  0  0  0  0  0  0  0
    7.2595    2.7704  -13.4025 C   0  0  0  0  0  0  0  0  0  0  0  0
    8.2556    1.1449  -14.8333 C   0  0  0  0  0  0  0  0  0  0  0  0
    7.1589    1.5555  -14.1678 C   0  0  0  0  0  0  0  0  0  0  0  0
   11.9101    3.3773  -14.5336 C   0  0  0  0  0  0  0  0  0  0  0  0
  1  2  1  0  0  0  0
  1 10  2  0  0  0  0
  2  3  1  0  0  0  0
  2  5  2  0  0  0  0
  3  4  1  0  0  0  0
  4  6  1  6  0  0  0
  4  9  1  0  0  0  0
  5  8  1  0  0  0  0
  5 12  1  0  0  0  0
  6  7  1  0  0  0  0
  7 11  1  0  0  0  0
  7 16  2  0  0  0  0
  8  9  1  0  0  0  0
 10 14  1  0  0  0  0
 11 13  2  0  0  0  0
 11 20  1  0  0  0  0
 12 14  2  0  0  0  0
 13 15  1  0  0  0  0
 13 18  1  0  0  0  0
 16 17  1  0  0  0  0
 17 20  1  0  0  0  0
 17 21  1  0  0  0  0
 18 19  2  0  0  0  0
 19 22  1  0  0  0  0
 20 22  2  0  0  0  0
 21 23  1  0  0  0  0
 21 24  2  3  0  0  0
 24 25  1  0  0  0  0
 25 26  1  0  0  0  0
 26 27  1  0  0  0  0
 26 30  2  0  0  0  0
 27 28  2  3  0  0  0
 27 29  1  0  0  0  0
 28 33  1  0  0  0  0
 29 31  2  0  0  0  0
 30 32  1  0  0  0  0
 31 32  1  0  0  0  0
M  END
$$$$

 OpenBabel10082411353D

 33 36  0  0  0  0  0  0  0  0999 V2000
   11.6836    6.0105   -4.8831 C   0  0  0  0  0  0  0  0  0  0  0  0
   11.1291    7.0732   -5.4395 C   0  0  0  0  0  0  0  0  0  0  0  0
   10.6954    7.0156   -6.8073 C   0  0  0  0  0  0  0  0  0  0  0  0
   10.2502    8.1187   -7.5536 C   0  0  2  0  0  0  0  0  0  0  0  0
   11.1205    8.4712   -4.9629 C   0  0  0  0  0  0  0  0  0  0  0  0
   10.8655    8.3511   -8.7960 C   0  0  0  0  0  0  0  0  0  0  0  0
   10.2922    7.8843   -9.9985 C   0  0  0  0  0  0  0  0  0  0  0  0
   10.4654    9.6993   -5.6120 C   0  0  0  0  0  0  0  0  0  0  0  0
   10.3510    9.5971   -7.0014 C   0  0  0  0  0  0  0  0  0  0  0  0
   12.2462    6.3351   -3.5020 C   0  0  0  0  0  0  0  0  0  0  0  0
   11.0471    7.5309  -11.1063 C   0  0  0  0  0  0  0  0  0  0  0  0
   11.7288    8.6923   -3.6518 C   0  0  0  0  0  0  0  0  0  0  0  0
   12.3991    7.7501  -11.1145 C   0  0  0  0  0  0  0  0  0  0  0  0
   12.3738    7.7580   -2.9599 C   0  0  0  0  0  0  0  0  0  0  0  0
   13.1285    8.5075  -10.1661 O   0  0  0  0  0  0  0  0  0  0  0  0
    9.0407    7.3775  -10.0973 N   0  0  0  0  0  0  0  0  0  0  0  0
    8.9787    6.9473  -11.4664 N   0  0  0  0  0  0  0  0  0  0  0  0
   13.1012    7.4459  -12.3707 C   0  0  0  0  0  0  0  0  0  0  0  0
   12.2395    6.9724  -13.2444 C   0  0  0  0  0  0  0  0  0  0  0  0
   10.2768    7.0170  -11.9799 C   0  0  0  0  0  0  0  0  0  0  0  0
   12.9237    6.5822  -14.5759 O   0  0  0  0  0  0  0  0  0  0  0  0
   11.0572    6.7510  -13.2462 C   0  0  0  0  0  0  0  0  0  0  0  0
   12.2650    6.1507  -15.6975 C   0  0  0  0  0  0  0  0  0  0  0  0
    7.7685    6.4505  -12.1034 C   0  0  1  0  0  0  0  0  0  0  0  0
   12.4975    4.7151  -15.7689 C   0  0  0  0  0  0  0  0  0  0  0  0
    7.7650    4.9557  -12.2290 C   0  0  0  0  0  0  0  0  0  0  0  0
   11.6443    4.0539  -14.7592 C   0  0  0  0  0  0  0  0  0  0  0  0
    6.5619    6.9298  -11.4542 C   0  0  0  0  0  0  0  0  0  0  0  0
    8.7723    4.4204  -12.7835 O   0  0  0  0  0  0  0  0  0  0  0  0
    7.3314    4.4491  -11.0008 O   0  0  0  0  0  0  0  0  0  0  0  0
   10.8567    2.9341  -15.2326 C   0  0  0  0  0  0  0  0  0  0  0  0
   10.7563    1.8258  -14.4164 O   0  0  0  0  0  0  0  0  0  0  0  0
    6.0686    8.0460  -12.3161 C   0  0  0  0  0  0  0  0  0  0  0  0
  1  2  1  0  0  0  0
  1 10  2  0  0  0  0
  2  3  1  0  0  0  0
  2  5  2  0  0  0  0
  3  4  1  0  0  0  0
  4  6  1  6  0  0  0
  4  9  1  0  0  0  0
  5  8  1  0  0  0  0
  5 12  1  0  0  0  0
  6  7  1  0  0  0  0
  7 11  1  0  0  0  0
  7 16  2  0  0  0  0
  8  9  1  0  0  0  0
 10 14  1  0  0  0  0
 11 13  2  0  0  0  0
 11 20  1  0  0  0  0
 12 14  2  0  0  0  0
 13 15  1  0  0  0  0
 13 18  1  0  0  0  0
 16 17  1  0  0  0  0
 17 20  1  0  0  0  0
 17 24  1  0  0  0  0
 18 19  2  0  0  0  0
 19 21  1  0  0  0  0
 19 22  1  0  0  0  0
 20 22  2  0  0  0  0
 21 23  1  0  0  0  0
 23 25  1  0  0  0  0
 24 26  1  0  0  0  0
 24 28  1  1  0  0  0
 25 27  1  0  0  0  0
 26 29  1  0  0  0  0
 26 30  1  0  0  0  0
 27 31  1  0  0  0  0
 28 33  1  0  0  0  0
 31 32  1  0  0  0  0
M  END
$$$$

 OpenBabel10082411353D

 33 35  0  0  0  0  0  0  0  0999 V2000
   10.9951    9.9694   -4.9946 C   0  0  0  0  0  0  0  0  0  0  0  0
   11.7938    9.3762   -4.2463 C   0  0  0  0  0  0  0  0  0  0  0  0
   10.8673    9.4548   -6.4276 C   0  0  0  0  0  0  0  0  0  0  0  0
   11.6576    7.9117   -4.2944 C   0  0  0  0  0  0  0  0  0  0  0  0
   10.5498    8.0257   -6.4521 C   0  0  0  0  0  0  0  0  0  0  0  0
   11.4715    7.2752   -5.6166 C   0  0  0  0  0  0  0  0  0  0  0  0
   10.5840    7.5390   -7.9254 C   0  0  0  0  0  0  0  0  0  0  0  0
   11.4612    8.1494   -8.8322 C   0  0  0  0  0  0  0  0  0  0  0  0
   12.6250    8.6294   -8.4338 O   0  0  0  0  0  0  0  0  0  0  0  0
   11.0835    8.4395  -10.0740 O   0  0  0  0  0  0  0  0  0  0  0  0
   11.2938    7.5612  -11.0769 C   0  0  0  0  0  0  0  0  0  0  0  0
   10.1547    7.2525  -11.9492 C   0  0  0  0  0  0  0  0  0  0  0  0
   10.4293    6.5622  -13.1348 C   0  0  0  0  0  0  0  0  0  0  0  0
   11.7295    6.4217  -13.6243 C   0  0  0  0  0  0  0  0  0  0  0  0
    8.8120    7.3918  -11.4649 C   0  0  0  0  0  0  0  0  0  0  0  0
   12.5351    7.8894  -11.6869 C   0  0  0  0  0  0  0  0  0  0  0  0
   13.5778    8.4243  -10.9673 O   0  0  0  0  0  0  0  0  0  0  0  0
    7.7211    7.1761  -12.4323 C   0  0  0  0  0  0  0  0  0  0  0  0
   12.8103    7.0723  -12.8897 C   0  0  0  0  0  0  0  0  0  0  0  0
    7.0543    5.9667  -12.3369 C   0  0  0  0  0  0  0  0  0  0  0  0
    7.2392    8.1844  -13.1320 C   0  0  0  0  0  0  0  0  0  0  0  0
    6.6882    5.3848  -13.5016 O   0  0  0  0  0  0  0  0  0  0  0  0
    6.5103    5.5543  -11.3870 O   0  0  0  0  0  0  0  0  0  0  0  0
    7.4031    4.0506  -13.7852 C   0  0  2  0  0  0  0  0  0  0  0  0
    8.6811    3.9966  -14.1333 C   0  0  0  0  0  0  0  0  0  0  0  0
   12.0732    5.6649  -14.9357 C   0  0  0  0  0  0  0  0  0  0  0  0
    6.5833    2.9970  -14.2590 C   0  0  0  0  0  0  0  0  0  0  0  0
   12.1769    6.3888  -15.9096 O   0  0  0  0  0  0  0  0  0  0  0  0
   11.8863    4.3874  -14.9650 N   0  0  0  0  0  0  0  0  0  0  0  0
    9.2289    2.7351  -14.2957 C   0  0  0  0  0  0  0  0  0  0  0  0
   11.5865    3.5710  -13.7825 C   0  0  0  0  0  0  0  0  0  0  0  0
    6.3983    1.9007  -13.2293 C   0  0  0  0  0  0  0  0  0  0  0  0
   10.7250    2.5991  -14.4231 C   0  0  0  0  0  0  0  0  0  0  0  0
  1  2  1  0  0  0  0
  1  3  1  0  0  0  0
  2  4  1  0  0  0  0
  3  5  1  0  0  0  0
  4  6  1  0  0  0  0
  5  6  1  0  0  0  0
  5  7  1  0  0  0  0
  7  8  1  0  0  0  0
  8  9  2  0  0  0  0
  8 10  1  0  0  0  0
 10 11  1  0  0  0  0
 11 12  1  0  0  0  0
 11 16  2  0  0  0  0
 12 13  2  0  0  0  0
 12 15  1  0  0  0  0
 13 14  1  0  0  0  0
 14 19  2  0  0  0  0
 14 26  1  0  0  0  0
 15 18  1  0  0  0  0
 16 17  1  0  0  0  0
 16 19  1  0  0  0  0
 18 20  1  0  0  0  0
 18 21  2  0  0  0  0
 20 22  1  0  0  0  0
 20 23  2  0  0  0  0
 22 24  1  0  0  0  0
 24 25  1  0  0  0  0
 24 27  1  6  0  0  0
 25 30  1  0  0  0  0
 26 28  2  0  0  0  0
 26 29  1  0  0  0  0
 27 32  1  0  0  0  0
 29 31  1  0  0  0  0
 30 33  1  0  0  0  0
 31 33  1  0  0  0  0
M  END
$$$$

 OpenBabel10082411353D

 33 37  0  0  0  0  0  0  0  0999 V2000
   13.2485    9.2493   -6.3668 O   0  0  0  0  0  0  0  0  0  0  0  0
   12.3055    9.1779   -7.4488 C   0  0  1  0  0  0  0  0  0  0  0  0
   12.5005    8.1033   -8.2440 C   0  0  0  0  0  0  0  0  0  0  0  0
   11.7072    8.0925   -9.4886 C   0  0  0  0  0  0  0  0  0  0  0  0
   12.2659    7.9483  -10.6668 C   0  0  0  0  0  0  0  0  0  0  0  0
   10.2869    8.0426   -9.4299 C   0  0  0  0  0  0  0  0  0  0  0  0
   13.6482    8.0497  -10.9162 O   0  0  0  0  0  0  0  0  0  0  0  0
   11.5356    7.8148  -11.9199 C   0  0  0  0  0  0  0  0  0  0  0  0
   12.2597    7.6523  -13.1838 C   0  0  0  0  0  0  0  0  0  0  0  0
    9.5345    7.8388  -10.6476 C   0  0  0  0  0  0  0  0  0  0  0  0
   12.7796    8.4277  -13.7325 O   0  0  0  0  0  0  0  0  0  0  0  0
   10.1724    7.7406  -11.8577 C   0  0  0  0  0  0  0  0  0  0  0  0
   12.4765    6.3392  -13.7439 N   0  0  0  0  0  0  0  0  0  0  0  0
    9.2368    7.4770  -13.0161 C   0  0  1  0  0  0  0  0  0  0  0  0
    8.7686    6.0601  -13.0538 C   0  0  0  0  0  0  0  0  0  0  0  0
   11.7377    5.1496  -13.1887 C   0  0  0  0  0  0  0  0  0  0  0  0
   10.9893    9.0510   -6.5404 C   0  0  0  0  0  0  0  0  0  0  0  0
   11.2522    8.1647   -5.3854 C   0  0  2  0  0  0  0  0  0  0  0  0
    7.8881    5.4892  -12.2818 C   0  0  0  0  0  0  0  0  0  0  0  0
    8.1030    8.4511  -12.9051 C   0  0  0  0  0  0  0  0  0  0  0  0
   11.2726    4.1709  -14.3554 C   0  0  1  0  0  0  0  0  0  0  0  0
   12.7640    9.8841   -5.1669 C   0  0  0  0  0  0  0  0  0  0  0  0
   10.2020    7.3447   -4.8869 C   0  0  0  0  0  0  0  0  0  0  0  0
    9.2831    5.2239  -14.0945 C   0  0  0  0  0  0  0  0  0  0  0  0
    7.4658    4.1818  -12.3783 C   0  0  0  0  0  0  0  0  0  0  0  0
   11.8409    9.0255   -4.2786 C   0  0  0  0  0  0  0  0  0  0  0  0
    8.0323    3.4365  -13.5317 C   0  0  0  0  0  0  0  0  0  0  0  0
    8.8555    3.9527  -14.2628 C   0  0  0  0  0  0  0  0  0  0  0  0
    9.6277    3.1977  -15.2748 N   0  0  0  0  0  0  0  0  0  0  0  0
    8.9998    2.0715  -15.8197 C   0  0  0  0  0  0  0  0  0  0  0  0
   12.6128    6.2686  -15.1761 C   0  0  0  0  0  0  0  0  0  0  0  0
   10.9655    2.8434  -14.8300 C   0  0  0  0  0  0  0  0  0  0  0  0
   10.4445    5.2155  -14.9828 O   0  0  0  0  0  0  0  0  0  0  0  0
  1  2  1  0  0  0  0
  1 22  1  0  0  0  0
  2  3  1  6  0  0  0
  2 17  1  0  0  0  0
  3  4  1  0  0  0  0
  4  5  1  0  0  0  0
  4  6  2  0  0  0  0
  5  7  1  0  0  0  0
  5  8  2  0  0  0  0
  6 10  1  0  0  0  0
  8  9  1  0  0  0  0
  8 12  1  0  0  0  0
  9 11  2  0  0  0  0
  9 13  1  0  0  0  0
 10 12  2  0  0  0  0
 12 14  1  0  0  0  0
 13 16  1  0  0  0  0
 13 31  1  0  0  0  0
 14 15  1  0  0  0  0
 14 20  1  1  0  0  0
 15 19  1  0  0  0  0
 15 24  2  0  0  0  0
 17 18  1  0  0  0  0
 18 23  1  1  0  0  0
 18 26  1  0  0  0  0
 19 25  2  0  0  0  0
 21 16  1  1  0  0  0
 21 32  1  0  0  0  0
 21 33  1  0  0  0  0
 22 26  1  0  0  0  0
 24 28  1  0  0  0  0
 24 33  1  0  0  0  0
 25 27  1  0  0  0  0
 27 28  2  0  0  0  0
 28 29  1  0  0  0  0
 29 30  1  0  0  0  0
 29 32  1  0  0  0  0
M  END
$$$$

 OpenBabel10082411353D

 33 37  0  0  0  0  0  0  0  0999 V2000
   12.7863    7.8241  -14.2109 C   0  0  0  0  0  0  0  0  0  0  0  0
   12.4233    7.7158  -13.0289 C   0  0  0  0  0  0  0  0  0  0  0  0
   11.3194    6.8571  -12.8028 C   0  0  0  0  0  0  0  0  0  0  0  0
   12.3150    7.2021  -15.3582 C   0  0  0  0  0  0  0  0  0  0  0  0
   11.2733    6.2739  -15.1502 C   0  0  0  0  0  0  0  0  0  0  0  0
   10.8099    6.0126  -13.8600 C   0  0  0  0  0  0  0  0  0  0  0  0
    9.6782    5.1428  -13.6488 C   0  0  0  0  0  0  0  0  0  0  0  0
    8.5753    5.3880  -12.9589 N   0  0  0  0  0  0  0  0  0  0  0  0
    8.3226    6.7011  -12.3862 C   0  0  0  0  0  0  0  0  0  0  0  0
    9.8502    3.8578  -14.0728 C   0  0  0  0  0  0  0  0  0  0  0  0
    7.3864    7.4720  -13.0530 C   0  0  0  0  0  0  0  0  0  0  0  0
    6.2412    7.8486  -12.2599 C   0  0  0  0  0  0  0  0  0  0  0  0
    7.6425    4.4186  -12.7943 C   0  0  0  0  0  0  0  0  0  0  0  0
   11.0297    3.2482  -14.8053 C   0  0  0  0  0  0  0  0  0  0  0  0
    8.6802    2.8955  -13.7960 C   0  0  0  0  0  0  0  0  0  0  0  0
    8.8565    1.5917  -14.3582 O   0  0  0  0  0  0  0  0  0  0  0  0
    7.6903    3.2226  -13.1994 N   0  0  0  0  0  0  0  0  0  0  0  0
    6.5724    2.3444  -12.8378 C   0  0  0  0  0  0  0  0  0  0  0  0
    9.0225    7.0353  -11.3259 C   0  0  0  0  0  0  0  0  0  0  0  0
    6.4787    4.7532  -12.1787 O   0  0  0  0  0  0  0  0  0  0  0  0
   10.5868    7.0468  -11.5199 C   0  0  0  0  0  0  0  0  0  0  0  0
   11.2761    7.4007  -10.4131 C   0  0  0  0  0  0  0  0  0  0  0  0
    8.6862    7.4300   -9.9877 C   0  0  0  0  0  0  0  0  0  0  0  0
    9.4326    7.6744   -8.9657 C   0  0  0  0  0  0  0  0  0  0  0  0
   10.6794    7.6568   -9.1312 C   0  0  2  0  0  0  0  0  0  0  0  0
    8.9269    7.9839   -7.6612 C   0  0  0  0  0  0  0  0  0  0  0  0
   11.4232    7.9744   -7.9321 C   0  0  0  0  0  0  0  0  0  0  0  0
   10.9573    8.3184   -6.8885 C   0  0  0  0  0  0  0  0  0  0  0  0
    7.5782    7.8797   -7.5710 F   0  0  0  0  0  0  0  0  0  0  0  0
   11.9524    8.6726   -5.5732 C   0  0  0  0  0  0  0  0  0  0  0  0
    9.6187    8.2626   -6.6518 C   0  0  0  0  0  0  0  0  0  0  0  0
   12.5165    9.9103   -5.6523 C   0  0  0  0  0  0  0  0  0  0  0  0
   11.0865    8.7700   -4.2956 C   0  0  0  0  0  0  0  0  0  0  0  0
  1  2  2  0  0  0  0
  1  4  1  0  0  0  0
  2  3  1  0  0  0  0
  3  6  2  0  0  0  0
  3 21  1  0  0  0  0
  4  5  2  0  0  0  0
  5  6  1  0  0  0  0
  6  7  1  0  0  0  0
  7  8  1  0  0  0  0
  7 10  2  0  0  0  0
  8  9  1  0  0  0  0
  8 13  1  0  0  0  0
  9 11  1  0  0  0  0
  9 19  2  0  0  0  0
 10 14  1  0  0  0  0
 10 15  1  0  0  0  0
 11 12  1  0  0  0  0
 13 17  1  0  0  0  0
 13 20  2  0  0  0  0
 15 16  2  0  0  0  0
 15 17  1  0  0  0  0
 17 18  1  0  0  0  0
 19 21  1  0  0  0  0
 19 23  1  0  0  0  0
 21 22  2  0  0  0  0
 23 24  2  0  0  0  0
 24 25  1  0  0  0  0
 24 26  1  0  0  0  0
 25 22  1  6  0  0  0
 25 27  1  0  0  0  0
 26 29  1  0  0  0  0
 26 31  2  0  0  0  0
 27 28  2  0  0  0  0
 28 30  1  0  0  0  0
 28 31  1  0  0  0  0
 30 32  1  0  0  0  0
 30 33  1  0  0  0  0
M  END
$$$$

 OpenBabel10082411353D

 33 34  0  0  0  0  0  0  0  0999 V2000
   10.9951    9.9694   -4.9946 C   0  0  0  0  0  0  0  0  0  0  0  0
   11.7938    9.3762   -4.2463 C   0  0  0  0  0  0  0  0  0  0  0  0
   10.8673    9.4548   -6.4276 C   0  0  0  0  0  0  0  0  0  0  0  0
   11.6576    7.9117   -4.2944 C   0  0  0  0  0  0  0  0  0  0  0  0
   10.5498    8.0257   -6.4521 C   0  0  0  0  0  0  0  0  0  0  0  0
   11.4715    7.2752   -5.6166 C   0  0  0  0  0  0  0  0  0  0  0  0
   10.5840    7.5390   -7.9254 C   0  0  0  0  0  0  0  0  0  0  0  0
   11.4612    8.1494   -8.8322 C   0  0  0  0  0  0  0  0  0  0  0  0
   12.6250    8.6294   -8.4338 O   0  0  0  0  0  0  0  0  0  0  0  0
   11.0835    8.4395  -10.0740 O   0  0  0  0  0  0  0  0  0  0  0  0
   11.2938    7.5612  -11.0769 C   0  0  0  0  0  0  0  0  0  0  0  0
   10.1547    7.2525  -11.9492 C   0  0  0  0  0  0  0  0  0  0  0  0
   10.4293    6.5622  -13.1348 C   0  0  0  0  0  0  0  0  0  0  0  0
   11.7295    6.4217  -13.6243 C   0  0  0  0  0  0  0  0  0  0  0  0
    8.8120    7.3918  -11.4649 C   0  0  0  0  0  0  0  0  0  0  0  0
   12.5351    7.8894  -11.6869 C   0  0  0  0  0  0  0  0  0  0  0  0
   13.5778    8.4243  -10.9673 O   0  0  0  0  0  0  0  0  0  0  0  0
    7.7211    7.1761  -12.4323 C   0  0  0  0  0  0  0  0  0  0  0  0
   12.8103    7.0723  -12.8897 C   0  0  0  0  0  0  0  0  0  0  0  0
    7.0543    5.9667  -12.3369 C   0  0  0  0  0  0  0  0  0  0  0  0
    7.2392    8.1844  -13.1320 C   0  0  0  0  0  0  0  0  0  0  0  0
    6.6882    5.3848  -13.5016 O   0  0  0  0  0  0  0  0  0  0  0  0
    6.5103    5.5543  -11.3870 O   0  0  0  0  0  0  0  0  0  0  0  0
    7.4031    4.0506  -13.7852 C   0  0  2  0  0  0  0  0  0  0  0  0
    8.6811    3.9966  -14.1333 C   0  0  0  0  0  0  0  0  0  0  0  0
   12.0732    5.6649  -14.9357 C   0  0  0  0  0  0  0  0  0  0  0  0
    6.5833    2.9970  -14.2590 C   0  0  0  0  0  0  0  0  0  0  0  0
   12.1769    6.3888  -15.9096 O   0  0  0  0  0  0  0  0  0  0  0  0
   12.3719    4.4123  -14.9068 N   0  0  0  0  0  0  0  0  0  0  0  0
   12.5762    3.6738  -16.0392 C   0  0  0  0  0  0  0  0  0  0  0  0
   11.1946    3.1354  -16.6607 C   0  0  0  0  0  0  0  0  0  0  0  0
    9.4642    3.0156  -13.5942 O   0  0  0  0  0  0  0  0  0  0  0  0
    9.1955    4.8941  -14.8710 O   0  0  0  0  0  0  0  0  0  0  0  0
  1  2  1  0  0  0  0
  1  3  1  0  0  0  0
  2  4  1  0  0  0  0
  3  5  1  0  0  0  0
  4  6  1  0  0  0  0
  5  6  1  0  0  0  0
  5  7  1  0  0  0  0
  7  8  1  0  0  0  0
  8  9  2  0  0  0  0
  8 10  1  0  0  0  0
 10 11  1  0  0  0  0
 11 12  1  0  0  0  0
 11 16  2  0  0  0  0
 12 13  2  0  0  0  0
 12 15  1  0  0  0  0
 13 14  1  0  0  0  0
 14 19  2  0  0  0  0
 14 26  1  0  0  0  0
 15 18  1  0  0  0  0
 16 17  1  0  0  0  0
 16 19  1  0  0  0  0
 18 20  1  0  0  0  0
 18 21  2  0  0  0  0
 20 22  1  0  0  0  0
 20 23  2  0  0  0  0
 22 24  1  0  0  0  0
 24 25  1  0  0  0  0
 24 27  1  6  0  0  0
 25 32  1  0  0  0  0
 25 33  2  0  0  0  0
 26 28  2  0  0  0  0
 26 29  1  0  0  0  0
 29 30  1  0  0  0  0
 30 31  1  0  0  0  0
M  END
$$$$

 OpenBabel10082411353D

 33 38  0  0  0  0  0  0  0  0999 V2000
   13.1862    9.4584   -4.4987 C   0  0  0  0  0  0  0  0  0  0  0  0
   12.1466    8.8379   -3.9099 C   0  0  0  0  0  0  0  0  0  0  0  0
   12.9882    9.7409   -5.8618 C   0  0  0  0  0  0  0  0  0  0  0  0
   11.9761    9.3177   -6.5889 C   0  0  0  0  0  0  0  0  0  0  0  0
   10.9346    8.5066   -5.9096 C   0  0  0  0  0  0  0  0  0  0  0  0
   12.2569    8.5495   -2.4516 C   0  0  0  0  0  0  0  0  0  0  0  0
   11.0697    8.2577   -4.5299 C   0  0  0  0  0  0  0  0  0  0  0  0
   11.7350    9.5912   -7.9371 O   0  0  0  0  0  0  0  0  0  0  0  0
    9.7397    8.0780   -6.6393 C   0  0  0  0  0  0  0  0  0  0  0  0
   10.8649    8.8162   -8.5483 C   0  0  2  0  0  0  0  0  0  0  0  0
    9.2400    6.9866   -6.2549 O   0  0  0  0  0  0  0  0  0  0  0  0
   10.8576    9.1019   -9.9991 C   0  0  0  0  0  0  0  0  0  0  0  0
   11.8034    8.3801  -10.7004 C   0  0  0  0  0  0  0  0  0  0  0  0
    9.8033    8.2783   -8.0085 N   0  0  0  0  0  0  0  0  0  0  0  0
   11.4502    7.6515  -11.8595 C   0  0  0  0  0  0  0  0  0  0  0  0
   10.3061    7.2417  -12.2192 C   0  0  0  0  0  0  0  0  0  0  0  0
   12.5619    7.1376  -12.7423 C   0  0  0  0  0  0  0  0  0  0  0  0
    9.9519    6.4550  -13.3394 C   0  0  0  0  0  0  0  0  0  0  0  0
   12.3234    6.3860  -13.8374 C   0  0  0  0  0  0  0  0  0  0  0  0
   11.0086    6.0227  -14.1262 C   0  0  0  0  0  0  0  0  0  0  0  0
   10.7528    5.1903  -15.3140 C   0  0  0  0  0  0  0  0  0  0  0  0
   10.7272    3.7455  -15.1287 N   0  0  0  0  0  0  0  0  0  0  0  0
    9.8835    3.1820  -14.4607 C   0  0  0  0  0  0  0  0  0  0  0  0
    9.9418    1.8005  -14.3797 N   0  0  0  0  0  0  0  0  0  0  0  0
    8.5108    3.6485  -13.9676 C   0  0  0  0  0  0  0  0  0  0  0  0
    7.4839    2.7202  -13.6392 C   0  0  0  0  0  0  0  0  0  0  0  0
   11.1594    1.4102  -15.0263 O   0  0  0  0  0  0  0  0  0  0  0  0
    6.2552    3.4010  -13.0220 C   0  0  0  0  0  0  0  0  0  0  0  0
    8.3526    4.9220  -13.5074 C   0  0  1  0  0  0  0  0  0  0  0  0
    8.6623    6.0876  -13.4992 C   0  0  1  0  0  0  0  0  0  0  0  0
    6.8394    4.8048  -12.9728 N   0  0  0  0  0  0  0  0  0  0  0  0
   11.5821    2.7082  -15.6341 C   0  0  0  0  0  0  0  0  0  0  0  0
    7.7463    6.9395  -12.7507 C   0  0  0  0  0  0  0  0  0  0  0  0
  1  2  1  0  0  0  0
  1  3  2  0  0  0  0
  2  6  1  0  0  0  0
  2  7  2  0  0  0  0
  3  4  1  0  0  0  0
  4  5  2  0  0  0  0
  4  8  1  0  0  0  0
  5  7  1  0  0  0  0
  5  9  1  0  0  0  0
  8 10  1  0  0  0  0
  9 11  2  0  0  0  0
  9 14  1  0  0  0  0
 10 12  1  6  0  0  0
 10 14  1  0  0  0  0
 12 13  1  0  0  0  0
 13 15  1  0  0  0  0
 15 16  2  0  0  0  0
 15 17  1  0  0  0  0
 16 18  1  0  0  0  0
 17 19  2  0  0  0  0
 18 20  2  0  0  0  0
 18 30  1  0  0  0  0
 19 20  1  0  0  0  0
 20 21  1  0  0  0  0
 21 22  1  0  0  0  0
 22 23  1  0  0  0  0
 22 32  1  0  0  0  0
 23 24  2  0  0  0  0
 23 25  1  0  0  0  0
 24 27  1  0  0  0  0
 25 26  2  0  0  0  0
 26 28  1  0  0  0  0
 27 32  1  0  0  0  0
 28 31  2  0  0  0  0
 29 25  1  6  0  0  0
 29 30  1  0  0  0  0
 29 31  1  0  0  0  0
 30 33  1  1  0  0  0
M  END
$$$$

 OpenBabel10082411353D

 33 37  0  0  0  0  0  0  0  0999 V2000
   11.6836    6.0105   -4.8831 F   0  0  0  0  0  0  0  0  0  0  0  0
   11.2562    7.2206   -5.0294 C   0  0  0  0  0  0  0  0  0  0  0  0
   12.0125    8.2418   -4.4408 C   0  0  0  0  0  0  0  0  0  0  0  0
   11.1918    7.2706   -6.5237 C   0  0  2  0  0  0  0  0  0  0  0  0
   11.6999    8.4488   -3.1704 F   0  0  0  0  0  0  0  0  0  0  0  0
    9.8648    7.0908   -4.5314 F   0  0  0  0  0  0  0  0  0  0  0  0
   11.6831    8.5291   -6.9682 C   0  0  1  0  0  0  0  0  0  0  0  0
   13.3042    8.0958   -4.5769 F   0  0  0  0  0  0  0  0  0  0  0  0
   10.0051    6.7877   -7.1387 C   0  0  0  0  0  0  0  0  0  0  0  0
   12.1549    9.4036   -6.0698 C   0  0  0  0  0  0  0  0  0  0  0  0
   11.7936    9.4593   -5.0623 C   0  0  0  0  0  0  0  0  0  0  0  0
    9.9626    7.1059   -8.5400 C   0  0  2  0  0  0  0  0  0  0  0  0
    9.3281    6.3754   -9.5451 C   0  0  0  0  0  0  0  0  0  0  0  0
   11.2649    7.4508   -8.9092 C   0  0  2  0  0  0  0  0  0  0  0  0
    9.8780    6.3752  -10.8235 C   0  0  0  0  0  0  0  0  0  0  0  0
    9.3265    5.6536  -11.9552 C   0  0  0  0  0  0  0  0  0  0  0  0
   12.1537    8.4765   -8.3210 C   0  0  0  0  0  0  0  0  0  0  0  0
    9.9894    5.7486  -13.2720 C   0  0  0  0  0  0  0  0  0  0  0  0
    8.2072    4.9461  -11.9101 C   0  0  0  0  0  0  0  0  0  0  0  0
    9.4728    4.9797  -14.2857 C   0  0  0  0  0  0  0  0  0  0  0  0
   10.9648    7.1894  -11.0334 C   0  0  0  0  0  0  0  0  0  0  0  0
    7.5782    4.8691  -10.5460 F   0  0  0  0  0  0  0  0  0  0  0  0
   11.6255    7.6926  -10.1331 C   0  0  0  0  0  0  0  0  0  0  0  0
    8.3435    4.2404  -14.0756 C   0  0  0  0  0  0  0  0  0  0  0  0
    7.6541    4.2141  -12.8444 C   0  0  0  0  0  0  0  0  0  0  0  0
   12.9214    8.0384  -10.2061 C   0  0  0  0  0  0  0  0  0  0  0  0
   10.2585    4.9732  -15.6109 C   0  0  0  0  0  0  0  0  0  0  0  0
   13.7805    8.2428  -11.3629 C   0  0  0  0  0  0  0  0  0  0  0  0
   13.1504    8.7144   -8.9175 N   0  0  0  0  0  0  0  0  0  0  0  0
   11.4080    4.1922  -15.6888 C   0  0  0  0  0  0  0  0  0  0  0  0
   11.3191    2.9927  -16.3763 C   0  0  0  0  0  0  0  0  0  0  0  0
   11.9181    3.8506  -14.2805 C   0  0  0  0  0  0  0  0  0  0  0  0
   12.4889    4.9267  -16.3376 C   0  0  0  0  0  0  0  0  0  0  0  0
  1  2  1  0  0  0  0
  2  3  1  0  0  0  0
  2  4  1  0  0  0  0
  2  6  1  0  0  0  0
  3  5  1  0  0  0  0
  3  8  1  0  0  0  0
  3 11  1  0  0  0  0
  4  7  1  0  0  0  0
  4  9  1  1  0  0  0
  7 10  1  1  0  0  0
  7 17  1  0  0  0  0
 10 11  1  0  0  0  0
 12  9  1  1  0  0  0
 12 13  1  0  0  0  0
 12 14  1  0  0  0  0
 13 15  1  0  0  0  0
 14 17  1  1  0  0  0
 14 23  1  0  0  0  0
 15 16  1  0  0  0  0
 15 21  2  0  0  0  0
 16 18  1  0  0  0  0
 16 19  2  0  0  0  0
 17 29  2  0  0  0  0
 18 20  2  0  0  0  0
 19 22  1  0  0  0  0
 19 25  1  0  0  0  0
 20 24  1  0  0  0  0
 20 27  1  0  0  0  0
 21 23  1  0  0  0  0
 23 26  2  0  0  0  0
 24 25  2  0  0  0  0
 26 28  1  0  0  0  0
 26 29  1  0  0  0  0
 27 30  1  0  0  0  0
 30 31  1  0  0  0  0
 30 32  1  0  0  0  0
 30 33  1  0  0  0  0
M  END
$$$$

 OpenBabel10082411353D

 33 36  0  0  0  0  0  0  0  0999 V2000
   13.4846    9.3979   -5.2029 C   0  0  0  0  0  0  0  0  0  0  0  0
   12.7871    9.3913   -6.3118 C   0  0  0  0  0  0  0  0  0  0  0  0
   11.3648    9.1424   -6.2947 C   0  0  0  0  0  0  0  0  0  0  0  0
   10.8726    9.0146   -5.0034 C   0  0  0  0  0  0  0  0  0  0  0  0
    9.3815    8.7865   -5.0373 F   0  0  0  0  0  0  0  0  0  0  0  0
   11.4703    9.0293   -3.8455 C   0  0  0  0  0  0  0  0  0  0  0  0
   10.7697    8.8716   -2.6325 F   0  0  0  0  0  0  0  0  0  0  0  0
   12.8710    9.2169   -3.9429 C   0  0  0  0  0  0  0  0  0  0  0  0
   10.4781    9.1384   -7.6682 C   0  0  0  0  0  0  0  0  0  0  0  0
   11.1390    9.1306   -8.8047 C   0  0  0  0  0  0  0  0  0  0  0  0
   10.8705    7.9638   -9.7397 C   0  0  0  0  0  0  0  0  0  0  0  0
   10.2908    8.0632  -10.8488 C   0  0  0  0  0  0  0  0  0  0  0  0
   10.4238    7.0375  -11.8282 C   0  0  0  0  0  0  0  0  0  0  0  0
    9.2433    8.9518  -11.2558 C   0  0  0  0  0  0  0  0  0  0  0  0
    8.5277    8.8707  -12.4031 C   0  0  0  0  0  0  0  0  0  0  0  0
    7.4469    9.8411  -12.5572 F   0  0  0  0  0  0  0  0  0  0  0  0
    8.5235    7.7173  -13.1606 C   0  0  0  0  0  0  0  0  0  0  0  0
   11.4736    5.9938  -11.5885 F   0  0  0  0  0  0  0  0  0  0  0  0
    9.6094    6.6956  -12.8849 C   0  0  0  0  0  0  0  0  0  0  0  0
    9.8332    5.4698  -13.8784 S   0  0  0  0  0  0  0  0  0  0  0  0
   10.9769    5.4319  -14.5253 O   0  0  0  0  0  0  0  0  0  0  0  0
    8.3413    5.5312  -14.5883 O   0  0  0  0  0  0  0  0  0  0  0  0
    9.8256    3.9847  -12.9897 C   0  0  1  0  0  0  0  0  0  0  0  0
    8.5770    3.2748  -13.0188 C   0  0  0  0  0  0  0  0  0  0  0  0
   10.7278    3.0709  -13.5601 C   0  0  0  0  0  0  0  0  0  0  0  0
    8.3700    2.2815  -13.9828 C   0  0  0  0  0  0  0  0  0  0  0  0
    7.4529    1.3749  -13.9455 C   0  0  0  0  0  0  0  0  0  0  0  0
   10.3190    2.3728  -14.7020 C   0  0  0  0  0  0  0  0  0  0  0  0
    6.2319    1.5433  -12.9826 C   0  0  0  0  0  0  0  0  0  0  0  0
    9.2874    1.9740  -14.8926 C   0  0  0  0  0  0  0  0  0  0  0  0
    7.4540    3.4858  -12.2218 C   0  0  0  0  0  0  0  0  0  0  0  0
    7.4744    4.7696  -11.3713 C   0  0  0  0  0  0  0  0  0  0  0  0
    6.3383    2.7006  -12.2120 C   0  0  0  0  0  0  0  0  0  0  0  0
  1  2  1  0  0  0  0
  1  8  2  0  0  0  0
  2  3  2  0  0  0  0
  3  4  1  0  0  0  0
  3  9  1  0  0  0  0
  4  5  1  0  0  0  0
  4  6  2  0  0  0  0
  6  7  1  0  0  0  0
  6  8  1  0  0  0  0
  9 10  1  0  0  0  0
 10 11  1  0  0  0  0
 11 12  1  0  0  0  0
 12 13  2  0  0  0  0
 12 14  1  0  0  0  0
 13 18  1  0  0  0  0
 13 19  1  0  0  0  0
 14 15  2  0  0  0  0
 15 16  1  0  0  0  0
 15 17  1  0  0  0  0
 17 19  2  0  0  0  0
 19 20  1  0  0  0  0
 20 21  2  0  0  0  0
 20 22  2  0  0  0  0
 23 20  1  6  0  0  0
 23 24  1  0  0  0  0
 23 25  1  0  0  0  0
 24 26  1  0  0  0  0
 24 31  2  0  0  0  0
 25 28  1  0  0  0  0
 26 27  2  0  0  0  0
 26 30  1  0  0  0  0
 27 29  1  0  0  0  0
 28 30  2  0  0  0  0
 29 33  2  0  0  0  0
 31 32  1  0  0  0  0
 31 33  1  0  0  0  0
M  END
$$$$

 OpenBabel10082411353D

 23 25  0  0  0  0  0  0  0  0999 V2000
   10.7609    9.6228   -4.2714 C   0  0  0  0  0  0  0  0  0  0  0  0
   10.4930    9.4831   -5.5343 C   0  0  0  0  0  0  0  0  0  0  0  0
   11.6139    8.5907   -3.8078 C   0  0  0  0  0  0  0  0  0  0  0  0
   10.6916    8.7185   -6.3306 C   0  0  0  0  0  0  0  0  0  0  0  0
   11.4775    7.4908   -5.9802 C   0  0  0  0  0  0  0  0  0  0  0  0
   10.1045    8.7095   -7.8164 C   0  0  0  0  0  0  0  0  0  0  0  0
   11.8703    7.5203   -4.5985 C   0  0  0  0  0  0  0  0  0  0  0  0
   10.7919    7.9248   -8.8228 C   0  0  2  0  0  0  0  0  0  0  0  0
   11.9364    8.4952   -9.3965 C   0  0  0  0  0  0  0  0  0  0  0  0
    9.8959    7.3469   -9.8494 C   0  0  0  0  0  0  0  0  0  0  0  0
   12.2659    8.0794  -10.7080 C   0  0  0  0  0  0  0  0  0  0  0  0
   10.4408    6.8044  -11.0562 C   0  0  2  0  0  0  0  0  0  0  0  0
   11.4386    7.6856  -11.6482 N   0  0  0  0  0  0  0  0  0  0  0  0
    9.4200    6.2781  -12.0473 C   0  0  2  0  0  0  0  0  0  0  0  0
   11.6788    7.6359  -13.0249 C   0  0  0  0  0  0  0  0  0  0  0  0
   12.6986    7.8374  -13.5514 O   0  0  0  0  0  0  0  0  0  0  0  0
    8.6050    5.1568  -11.5138 C   0  0  0  0  0  0  0  0  0  0  0  0
    9.9990    5.8712  -13.2928 C   0  0  1  0  0  0  0  0  0  0  0  0
   10.5693    7.3889  -13.8893 C   0  0  0  0  0  0  0  0  0  0  0  0
   11.1361    4.9366  -13.2042 C   0  0  0  0  0  0  0  0  0  0  0  0
   10.9712    3.7479  -14.2147 C   0  0  0  0  0  0  0  0  0  0  0  0
   11.8924    3.5447  -15.0178 O   0  0  0  0  0  0  0  0  0  0  0  0
   10.0045    3.0036  -14.0935 O   0  0  0  0  0  0  0  0  0  0  0  0
  1  2  1  0  0  0  0
  1  3  2  0  0  0  0
  2  4  2  0  0  0  0
  3  7  1  0  0  0  0
  4  5  1  0  0  0  0
  4  6  1  0  0  0  0
  5  7  2  0  0  0  0
  8  6  1  6  0  0  0
  8  9  1  0  0  0  0
  8 10  1  0  0  0  0
  9 11  1  0  0  0  0
 11 13  1  0  0  0  0
 12 10  1  1  0  0  0
 12 13  1  0  0  0  0
 12 14  1  0  0  0  0
 13 15  1  0  0  0  0
 14 17  1  1  0  0  0
 14 18  1  0  0  0  0
 15 16  2  0  0  0  0
 15 19  1  0  0  0  0
 18 19  1  0  0  0  0
 18 20  1  1  0  0  0
 20 21  1  0  0  0  0
 21 22  2  0  0  0  0
 21 23  1  0  0  0  0
M  END
$$$$

 OpenBabel10082411353D

 10 11  0  0  0  0  0  0  0  0999 V2000
   10.5338    9.5630   -5.0683 C   0  0  0  0  0  0  0  0  0  0  0  0
   10.6529    8.9188   -6.2858 C   0  0  0  0  0  0  0  0  0  0  0  0
   11.6285    9.4290   -4.1493 C   0  0  0  0  0  0  0  0  0  0  0  0
    9.5925    9.0678   -7.3132 C   0  0  0  0  0  0  0  0  0  0  0  0
   10.0291    8.3478   -8.5888 C   0  0  0  0  0  0  0  0  0  0  0  0
   12.6887    8.6221   -4.3928 C   0  0  0  0  0  0  0  0  0  0  0  0
   11.6291    7.9637   -6.3634 C   0  0  0  0  0  0  0  0  0  0  0  0
   12.6177    7.8567   -5.5124 C   0  0  0  0  0  0  0  0  0  0  0  0
   11.7456    7.1466   -7.6302 C   0  0  0  0  0  0  0  0  0  0  0  0
   10.5521    7.1349   -8.3854 C   0  0  0  0  0  0  0  0  0  0  0  0
  1  2  1  0  0  0  0
  1  3  2  0  0  0  0
  2  4  1  0  0  0  0
  2  7  2  0  0  0  0
  3  6  1  0  0  0  0
  4  5  1  0  0  0  0
  5 10  1  0  0  0  0
  6  8  2  0  0  0  0
  7  8  1  0  0  0  0
  7  9  1  0  0  0  0
  9 10  1  0  0  0  0
M  END
$$$$

 OpenBabel10082411353D

 33 36  0  0  0  0  0  0  0  0999 V2000
   10.9951    9.9694   -4.9946 C   0  0  0  0  0  0  0  0  0  0  0  0
   11.7938    9.3762   -4.2463 C   0  0  0  0  0  0  0  0  0  0  0  0
   10.8673    9.4548   -6.4276 C   0  0  0  0  0  0  0  0  0  0  0  0
   11.6576    7.9117   -4.2944 C   0  0  0  0  0  0  0  0  0  0  0  0
   10.5498    8.0257   -6.4521 C   0  0  0  0  0  0  0  0  0  0  0  0
   11.4715    7.2752   -5.6166 C   0  0  0  0  0  0  0  0  0  0  0  0
   10.5840    7.5390   -7.9254 C   0  0  0  0  0  0  0  0  0  0  0  0
   11.4612    8.1494   -8.8322 C   0  0  0  0  0  0  0  0  0  0  0  0
   12.6250    8.6294   -8.4338 O   0  0  0  0  0  0  0  0  0  0  0  0
   11.0835    8.4395  -10.0740 O   0  0  0  0  0  0  0  0  0  0  0  0
   11.2938    7.5612  -11.0769 C   0  0  0  0  0  0  0  0  0  0  0  0
   10.1547    7.2525  -11.9492 C   0  0  0  0  0  0  0  0  0  0  0  0
   10.4293    6.5622  -13.1348 C   0  0  0  0  0  0  0  0  0  0  0  0
   11.7295    6.4217  -13.6243 C   0  0  0  0  0  0  0  0  0  0  0  0
    8.8120    7.3918  -11.4649 C   0  0  0  0  0  0  0  0  0  0  0  0
   12.5351    7.8894  -11.6869 C   0  0  0  0  0  0  0  0  0  0  0  0
   13.5778    8.4243  -10.9673 O   0  0  0  0  0  0  0  0  0  0  0  0
    7.7211    7.1761  -12.4323 C   0  0  0  0  0  0  0  0  0  0  0  0
   12.8103    7.0723  -12.8897 C   0  0  0  0  0  0  0  0  0  0  0  0
    7.0543    5.9667  -12.3369 C   0  0  0  0  0  0  0  0  0  0  0  0
    7.2392    8.1844  -13.1320 C   0  0  0  0  0  0  0  0  0  0  0  0
    6.6882    5.3848  -13.5016 O   0  0  0  0  0  0  0  0  0  0  0  0
    6.5103    5.5543  -11.3870 O   0  0  0  0  0  0  0  0  0  0  0  0
    7.4031    4.0506  -13.7852 C   0  0  0  0  0  0  0  0  0  0  0  0
    8.6811    3.9966  -14.1333 C   0  0  0  0  0  0  0  0  0  0  0  0
   12.0732    5.6649  -14.9357 C   0  0  0  0  0  0  0  0  0  0  0  0
   12.2134    6.3585  -15.8991 O   0  0  0  0  0  0  0  0  0  0  0  0
    9.3344    2.7860  -14.0136 C   0  0  0  0  0  0  0  0  0  0  0  0
    6.5327    3.0153  -13.7881 C   0  0  0  0  0  0  0  0  0  0  0  0
    8.4178    1.5850  -13.8562 C   0  0  0  0  0  0  0  0  0  0  0  0
   10.8823    2.5549  -14.1553 C   0  0  0  0  0  0  0  0  0  0  0  0
   11.4354    3.7706  -14.8452 C   0  0  0  0  0  0  0  0  0  0  0  0
    7.0885    1.7443  -13.7788 C   0  0  0  0  0  0  0  0  0  0  0  0
  1  2  1  0  0  0  0
  1  3  1  0  0  0  0
  2  4  1  0  0  0  0
  3  5  1  0  0  0  0
  4  6  1  0  0  0  0
  5  6  1  0  0  0  0
  5  7  1  0  0  0  0
  7  8  1  0  0  0  0
  8  9  2  0  0  0  0
  8 10  1  0  0  0  0
 10 11  1  0  0  0  0
 11 12  1  0  0  0  0
 11 16  2  0  0  0  0
 12 13  2  0  0  0  0
 12 15  1  0  0  0  0
 13 14  1  0  0  0  0
 14 19  2  0  0  0  0
 14 26  1  0  0  0  0
 15 18  1  0  0  0  0
 16 17  1  0  0  0  0
 16 19  1  0  0  0  0
 18 20  1  0  0  0  0
 18 21  2  0  0  0  0
 20 22  1  0  0  0  0
 20 23  2  0  0  0  0
 22 24  1  0  0  0  0
 24 25  1  0  0  0  0
 24 29  2  0  0  0  0
 25 28  2  0  0  0  0
 26 27  2  0  0  0  0
 26 32  1  0  0  0  0
 28 30  1  0  0  0  0
 28 31  1  0  0  0  0
 29 33  1  0  0  0  0
 30 33  2  0  0  0  0
 31 32  1  0  0  0  0
M  END
$$$$

 OpenBabel10082411353D

 34 38  0  0  0  0  0  0  0  0999 V2000
   11.6849    3.3051  -14.7886 C   0  0  0  0  0  0  0  0  0  0  0  0
   11.9222    4.4917  -14.7896 C   0  0  0  0  0  0  0  0  0  0  0  0
   10.4105    3.0506  -15.0123 C   0  0  0  0  0  0  0  0  0  0  0  0
   11.4495    5.4335  -14.4813 C   0  0  0  0  0  0  0  0  0  0  0  0
    9.5038    4.0445  -14.6973 C   0  0  0  0  0  0  0  0  0  0  0  0
    8.0744    3.8032  -14.7673 O   0  0  0  0  0  0  0  0  0  0  0  0
    7.4019    4.2664  -13.6471 C   0  0  0  0  0  0  0  0  0  0  0  0
   11.8713    6.8371  -14.3117 C   0  0  0  0  0  0  0  0  0  0  0  0
   12.8441    7.2889  -15.0274 O   0  0  0  0  0  0  0  0  0  0  0  0
    9.9408    5.3883  -14.5322 C   0  0  0  0  0  0  0  0  0  0  0  0
   11.9372    7.2052  -12.9834 O   0  0  0  0  0  0  0  0  0  0  0  0
    7.6871    5.3657  -12.9437 C   0  0  0  0  0  0  0  0  0  0  0  0
    6.6825    5.6376  -11.8704 C   0  0  0  0  0  0  0  0  0  0  0  0
   12.9330    7.4672  -12.1262 C   0  0  0  0  0  0  0  0  0  0  0  0
    5.6490    4.8336  -11.7379 C   0  0  0  0  0  0  0  0  0  0  0  0
    6.2655    3.3248  -13.2380 C   0  0  0  0  0  0  0  0  0  0  0  0
   12.5459    7.5503  -10.6847 C   0  0  0  0  0  0  0  0  0  0  0  0
    5.5326    3.6923  -12.2221 C   0  0  0  0  0  0  0  0  0  0  0  0
   13.2808    8.2749   -9.7966 C   0  0  0  0  0  0  0  0  0  0  0  0
   12.7625    8.4244   -8.5830 C   0  0  0  0  0  0  0  0  0  0  0  0
   11.1393    7.2655  -10.3421 C   0  0  0  0  0  0  0  0  0  0  0  0
   10.7436    7.4242   -9.1139 C   0  0  0  0  0  0  0  0  0  0  0  0
   11.5582    7.9816   -8.1804 C   0  0  0  0  0  0  0  0  0  0  0  0
   11.0885    8.1382   -6.7137 C   0  0  2  0  0  0  0  0  0  0  0  0
    9.8528    8.8294   -6.6452 C   0  0  0  0  0  0  0  0  0  0  0  0
    8.8998    8.0398   -6.0308 C   0  0  0  0  0  0  0  0  0  0  0  0
    8.8000    6.8793   -6.8449 N   0  0  0  0  0  0  0  0  0  0  0  0
   12.1255    9.0138   -5.8625 C   0  0  0  0  0  0  0  0  0  0  0  0
    9.8119    5.9123   -6.6317 C   0  0  0  0  0  0  0  0  0  0  0  0
   11.1833    6.5986   -6.3510 C   0  0  2  0  0  0  0  0  0  0  0  0
   12.3571    8.4725   -4.5613 C   0  0  0  0  0  0  0  0  0  0  0  0
   11.8179    6.2491   -5.1906 C   0  0  0  0  0  0  0  0  0  0  0  0
   12.1185    7.2542   -4.2260 C   0  0  0  0  0  0  0  0  0  0  0  0
   12.3888    9.5339   -3.7556 O   0  0  0  0  0  0  0  0  0  0  0  0
  1  2  1  0  0  0  0
  1  3  2  0  0  0  0
  2  4  2  0  0  0  0
  3  5  1  0  0  0  0
  4  8  1  0  0  0  0
  4 10  1  0  0  0  0
  5  6  1  0  0  0  0
  5 10  2  0  0  0  0
  6  7  1  0  0  0  0
  7 12  2  0  0  0  0
  7 16  1  0  0  0  0
  8  9  2  0  0  0  0
  8 11  1  0  0  0  0
 11 14  1  0  0  0  0
 12 13  1  0  0  0  0
 13 15  2  0  0  0  0
 14 17  1  0  0  0  0
 15 18  1  0  0  0  0
 16 18  2  0  0  0  0
 17 19  1  0  0  0  0
 17 21  2  0  0  0  0
 19 20  2  0  0  0  0
 20 23  1  0  0  0  0
 21 22  1  0  0  0  0
 22 23  2  0  0  0  0
 24 23  1  6  0  0  0
 24 25  1  0  0  0  0
 24 28  1  0  0  0  0
 24 30  1  0  0  0  0
 25 26  1  0  0  0  0
 26 27  1  0  0  0  0
 27 29  1  0  0  0  0
 28 31  1  0  0  0  0
 30 29  1  1  0  0  0
 30 32  1  0  0  0  0
 31 33  1  0  0  0  0
 31 34  2  0  0  0  0
 32 33  2  0  0  0  0
M  END
$$$$

 OpenBabel10082411353D

 34 38  0  0  0  0  0  0  0  0999 V2000
   11.6849    3.3051  -14.7886 C   0  0  0  0  0  0  0  0  0  0  0  0
   11.9222    4.4917  -14.7896 C   0  0  0  0  0  0  0  0  0  0  0  0
   10.4105    3.0506  -15.0123 C   0  0  0  0  0  0  0  0  0  0  0  0
   11.4495    5.4335  -14.4813 C   0  0  0  0  0  0  0  0  0  0  0  0
    9.5038    4.0445  -14.6973 C   0  0  0  0  0  0  0  0  0  0  0  0
    8.0744    3.8032  -14.7673 O   0  0  0  0  0  0  0  0  0  0  0  0
    7.4019    4.2664  -13.6471 C   0  0  0  0  0  0  0  0  0  0  0  0
   11.8713    6.8371  -14.3117 C   0  0  0  0  0  0  0  0  0  0  0  0
   12.8441    7.2889  -15.0274 O   0  0  0  0  0  0  0  0  0  0  0  0
    9.9408    5.3883  -14.5322 C   0  0  0  0  0  0  0  0  0  0  0  0
   11.9372    7.2052  -12.9834 O   0  0  0  0  0  0  0  0  0  0  0  0
    7.6871    5.3657  -12.9437 C   0  0  0  0  0  0  0  0  0  0  0  0
    6.6825    5.6376  -11.8704 C   0  0  0  0  0  0  0  0  0  0  0  0
   12.9330    7.4672  -12.1262 C   0  0  0  0  0  0  0  0  0  0  0  0
    5.6490    4.8336  -11.7379 C   0  0  0  0  0  0  0  0  0  0  0  0
    6.2655    3.3248  -13.2380 C   0  0  0  0  0  0  0  0  0  0  0  0
   12.5459    7.5503  -10.6847 C   0  0  0  0  0  0  0  0  0  0  0  0
    5.5326    3.6923  -12.2221 C   0  0  0  0  0  0  0  0  0  0  0  0
   13.2808    8.2749   -9.7966 C   0  0  0  0  0  0  0  0  0  0  0  0
   12.7625    8.4244   -8.5830 C   0  0  0  0  0  0  0  0  0  0  0  0
   11.1393    7.2655  -10.3421 C   0  0  0  0  0  0  0  0  0  0  0  0
   10.7436    7.4242   -9.1139 C   0  0  0  0  0  0  0  0  0  0  0  0
   11.5582    7.9816   -8.1804 C   0  0  0  0  0  0  0  0  0  0  0  0
   11.0885    8.1382   -6.7137 C   0  0  1  0  0  0  0  0  0  0  0  0
    9.8528    8.8294   -6.6452 C   0  0  0  0  0  0  0  0  0  0  0  0
    8.8998    8.0398   -6.0308 C   0  0  0  0  0  0  0  0  0  0  0  0
    9.3715    6.6666   -6.1288 C   0  0  2  0  0  0  0  0  0  0  0  0
   10.7980    6.8271   -6.2455 C   0  0  2  0  0  0  0  0  0  0  0  0
   12.1160    8.8620   -5.8401 C   0  0  0  0  0  0  0  0  0  0  0  0
   12.1789    8.3531   -4.5239 C   0  0  1  0  0  0  0  0  0  0  0  0
    8.5385    6.0926   -7.2579 C   0  0  0  0  0  0  0  0  0  0  0  0
   12.6867    9.0631   -3.4365 C   0  0  0  0  0  0  0  0  0  0  0  0
   11.4672    6.8627   -4.8312 C   0  0  0  0  0  0  0  0  0  0  0  0
    8.6834    4.7561   -7.2173 O   0  0  0  0  0  0  0  0  0  0  0  0
  1  2  1  0  0  0  0
  1  3  2  0  0  0  0
  2  4  2  0  0  0  0
  3  5  1  0  0  0  0
  4  8  1  0  0  0  0
  4 10  1  0  0  0  0
  5  6  1  0  0  0  0
  5 10  2  0  0  0  0
  6  7  1  0  0  0  0
  7 12  2  0  0  0  0
  7 16  1  0  0  0  0
  8  9  2  0  0  0  0
  8 11  1  0  0  0  0
 11 14  1  0  0  0  0
 12 13  1  0  0  0  0
 13 15  2  0  0  0  0
 14 17  1  0  0  0  0
 15 18  1  0  0  0  0
 16 18  2  0  0  0  0
 17 19  1  0  0  0  0
 17 21  2  0  0  0  0
 19 20  2  0  0  0  0
 20 23  1  0  0  0  0
 21 22  1  0  0  0  0
 22 23  2  0  0  0  0
 24 23  1  6  0  0  0
 24 25  1  0  0  0  0
 24 28  1  0  0  0  0
 24 29  1  0  0  0  0
 25 26  1  0  0  0  0
 26 27  1  0  0  0  0
 27 28  1  0  0  0  0
 27 31  1  6  0  0  0
 28 33  1  1  0  0  0
 29 30  1  0  0  0  0
 30 32  1  1  0  0  0
 30 33  1  0  0  0  0
 31 34  1  0  0  0  0
M  END
$$$$

 OpenBabel10082411353D

 34 36  0  0  0  0  0  0  0  0999 V2000
   10.9951    9.9694   -4.9946 C   0  0  0  0  0  0  0  0  0  0  0  0
   11.7938    9.3762   -4.2463 C   0  0  0  0  0  0  0  0  0  0  0  0
   10.8673    9.4548   -6.4276 C   0  0  0  0  0  0  0  0  0  0  0  0
   11.6576    7.9117   -4.2944 C   0  0  0  0  0  0  0  0  0  0  0  0
   10.5498    8.0257   -6.4521 C   0  0  0  0  0  0  0  0  0  0  0  0
   11.4715    7.2752   -5.6166 C   0  0  0  0  0  0  0  0  0  0  0  0
   10.5840    7.5390   -7.9254 C   0  0  0  0  0  0  0  0  0  0  0  0
   11.4612    8.1494   -8.8322 C   0  0  0  0  0  0  0  0  0  0  0  0
   12.6250    8.6294   -8.4338 O   0  0  0  0  0  0  0  0  0  0  0  0
   11.0835    8.4395  -10.0740 O   0  0  0  0  0  0  0  0  0  0  0  0
   11.2938    7.5612  -11.0769 C   0  0  0  0  0  0  0  0  0  0  0  0
   10.1547    7.2525  -11.9492 C   0  0  0  0  0  0  0  0  0  0  0  0
   10.4293    6.5622  -13.1348 C   0  0  0  0  0  0  0  0  0  0  0  0
   11.7295    6.4217  -13.6243 C   0  0  0  0  0  0  0  0  0  0  0  0
    8.8120    7.3918  -11.4649 C   0  0  0  0  0  0  0  0  0  0  0  0
   12.5351    7.8894  -11.6869 C   0  0  0  0  0  0  0  0  0  0  0  0
   13.5778    8.4243  -10.9673 O   0  0  0  0  0  0  0  0  0  0  0  0
    7.7211    7.1761  -12.4323 C   0  0  0  0  0  0  0  0  0  0  0  0
   12.8103    7.0723  -12.8897 C   0  0  0  0  0  0  0  0  0  0  0  0
    7.0543    5.9667  -12.3369 C   0  0  0  0  0  0  0  0  0  0  0  0
    7.2392    8.1844  -13.1320 C   0  0  0  0  0  0  0  0  0  0  0  0
    6.6882    5.3848  -13.5016 O   0  0  0  0  0  0  0  0  0  0  0  0
    6.5103    5.5543  -11.3870 O   0  0  0  0  0  0  0  0  0  0  0  0
    7.4031    4.0506  -13.7852 C   0  0  2  0  0  0  0  0  0  0  0  0
    8.6811    3.9966  -14.1333 C   0  0  0  0  0  0  0  0  0  0  0  0
   12.0732    5.6649  -14.9357 C   0  0  0  0  0  0  0  0  0  0  0  0
    6.5833    2.9970  -14.2590 C   0  0  0  0  0  0  0  0  0  0  0  0
   12.1769    6.3888  -15.9096 O   0  0  0  0  0  0  0  0  0  0  0  0
   11.8863    4.3874  -14.9650 N   0  0  0  0  0  0  0  0  0  0  0  0
    9.2289    2.7351  -14.2957 C   0  0  0  0  0  0  0  0  0  0  0  0
   11.5865    3.5710  -13.7825 C   0  0  0  0  0  0  0  0  0  0  0  0
   12.1383    3.6331  -16.1595 C   0  0  0  0  0  0  0  0  0  0  0  0
    6.4109    1.9116  -13.2469 C   0  0  0  0  0  0  0  0  0  0  0  0
   10.6046    2.4470  -14.1644 C   0  0  0  0  0  0  0  0  0  0  0  0
  1  2  1  0  0  0  0
  1  3  1  0  0  0  0
  2  4  1  0  0  0  0
  3  5  1  0  0  0  0
  4  6  1  0  0  0  0
  5  6  1  0  0  0  0
  5  7  1  0  0  0  0
  7  8  1  0  0  0  0
  8  9  2  0  0  0  0
  8 10  1  0  0  0  0
 10 11  1  0  0  0  0
 11 12  1  0  0  0  0
 11 16  2  0  0  0  0
 12 13  2  0  0  0  0
 12 15  1  0  0  0  0
 13 14  1  0  0  0  0
 14 19  2  0  0  0  0
 14 26  1  0  0  0  0
 15 18  1  0  0  0  0
 16 17  1  0  0  0  0
 16 19  1  0  0  0  0
 18 20  1  0  0  0  0
 18 21  2  0  0  0  0
 20 22  1  0  0  0  0
 20 23  2  0  0  0  0
 22 24  1  0  0  0  0
 24 25  1  0  0  0  0
 24 27  1  6  0  0  0
 25 30  1  0  0  0  0
 26 28  2  0  0  0  0
 26 29  1  0  0  0  0
 27 33  1  0  0  0  0
 29 31  1  0  0  0  0
 29 32  1  0  0  0  0
 30 34  2  0  0  0  0
 31 34  1  0  0  0  0
M  END
$$$$

 OpenBabel10082411353D

 34 38  0  0  0  0  0  0  0  0999 V2000
   12.7863    7.8241  -14.2109 C   0  0  0  0  0  0  0  0  0  0  0  0
   12.4233    7.7158  -13.0289 C   0  0  0  0  0  0  0  0  0  0  0  0
   11.3194    6.8571  -12.8028 C   0  0  0  0  0  0  0  0  0  0  0  0
   12.3150    7.2021  -15.3582 C   0  0  0  0  0  0  0  0  0  0  0  0
   11.2733    6.2739  -15.1502 C   0  0  0  0  0  0  0  0  0  0  0  0
   10.8099    6.0126  -13.8600 C   0  0  0  0  0  0  0  0  0  0  0  0
    9.6782    5.1428  -13.6488 C   0  0  0  0  0  0  0  0  0  0  0  0
    8.5753    5.3880  -12.9589 N   0  0  0  0  0  0  0  0  0  0  0  0
    8.3226    6.7011  -12.3862 C   0  0  0  0  0  0  0  0  0  0  0  0
    9.8502    3.8578  -14.0728 C   0  0  0  0  0  0  0  0  0  0  0  0
    7.3864    7.4720  -13.0530 C   0  0  0  0  0  0  0  0  0  0  0  0
    6.2412    7.8486  -12.2599 C   0  0  0  0  0  0  0  0  0  0  0  0
    7.6425    4.4186  -12.7943 C   0  0  0  0  0  0  0  0  0  0  0  0
   11.0297    3.2482  -14.8053 C   0  0  0  0  0  0  0  0  0  0  0  0
    8.6802    2.8955  -13.7960 C   0  0  0  0  0  0  0  0  0  0  0  0
    8.8565    1.5917  -14.3582 O   0  0  0  0  0  0  0  0  0  0  0  0
    7.6903    3.2226  -13.1994 N   0  0  0  0  0  0  0  0  0  0  0  0
    6.5724    2.3444  -12.8378 C   0  0  0  0  0  0  0  0  0  0  0  0
    9.0225    7.0353  -11.3259 C   0  0  0  0  0  0  0  0  0  0  0  0
    6.4787    4.7532  -12.1787 O   0  0  0  0  0  0  0  0  0  0  0  0
   10.5868    7.0468  -11.5199 C   0  0  0  0  0  0  0  0  0  0  0  0
   11.2761    7.4007  -10.4131 C   0  0  0  0  0  0  0  0  0  0  0  0
    8.6862    7.4300   -9.9877 C   0  0  0  0  0  0  0  0  0  0  0  0
    9.4326    7.6744   -8.9657 C   0  0  0  0  0  0  0  0  0  0  0  0
   10.6794    7.6568   -9.1312 C   0  0  2  0  0  0  0  0  0  0  0  0
    8.9269    7.9839   -7.6612 C   0  0  1  0  0  0  0  0  0  0  0  0
   11.6309    7.9931   -8.0642 C   0  0  0  0  0  0  0  0  0  0  0  0
    8.3711    7.1403   -7.0209 O   0  0  0  0  0  0  0  0  0  0  0  0
    9.8765    8.4197   -6.5527 C   0  0  0  0  0  0  0  0  0  0  0  0
   11.3201    8.0150   -6.9666 C   0  0  0  0  0  0  0  0  0  0  0  0
   12.1339    7.7910   -5.7569 O   0  0  0  0  0  0  0  0  0  0  0  0
   12.5298    8.8436   -4.9181 C   0  0  1  0  0  0  0  0  0  0  0  0
   11.6992    9.9555   -4.9503 F   0  0  0  0  0  0  0  0  0  0  0  0
   12.5271    8.4062   -3.5175 C   0  0  0  0  0  0  0  0  0  0  0  0
  1  2  2  0  0  0  0
  1  4  1  0  0  0  0
  2  3  1  0  0  0  0
  3  6  2  0  0  0  0
  3 21  1  0  0  0  0
  4  5  2  0  0  0  0
  5  6  1  0  0  0  0
  6  7  1  0  0  0  0
  7  8  1  0  0  0  0
  7 10  2  0  0  0  0
  8  9  1  0  0  0  0
  8 13  1  0  0  0  0
  9 11  1  0  0  0  0
  9 19  2  0  0  0  0
 10 14  1  0  0  0  0
 10 15  1  0  0  0  0
 11 12  1  0  0  0  0
 13 17  1  0  0  0  0
 13 20  2  0  0  0  0
 15 16  2  0  0  0  0
 15 17  1  0  0  0  0
 17 18  1  0  0  0  0
 19 21  1  0  0  0  0
 19 23  1  0  0  0  0
 21 22  2  0  0  0  0
 23 24  2  0  0  0  0
 24 25  1  0  0  0  0
 24 26  1  0  0  0  0
 25 22  1  6  0  0  0
 25 27  1  0  0  0  0
 26 28  1  1  0  0  0
 26 29  1  0  0  0  0
 27 30  2  0  0  0  0
 29 30  1  0  0  0  0
 30 31  1  0  0  0  0
 31 32  1  0  0  0  0
 32 33  1  0  0  0  0
 32 34  1  1  0  0  0
M  END
$$$$

 OpenBabel10082411353D

 34 37  0  0  0  0  0  0  0  0999 V2000
   10.9951    9.9694   -4.9946 C   0  0  0  0  0  0  0  0  0  0  0  0
   11.7938    9.3762   -4.2463 C   0  0  0  0  0  0  0  0  0  0  0  0
   10.8673    9.4548   -6.4276 C   0  0  0  0  0  0  0  0  0  0  0  0
   11.6576    7.9117   -4.2944 C   0  0  0  0  0  0  0  0  0  0  0  0
   10.5498    8.0257   -6.4521 C   0  0  0  0  0  0  0  0  0  0  0  0
   11.4715    7.2752   -5.6166 C   0  0  0  0  0  0  0  0  0  0  0  0
   10.5840    7.5390   -7.9254 C   0  0  0  0  0  0  0  0  0  0  0  0
   11.4612    8.1494   -8.8322 C   0  0  0  0  0  0  0  0  0  0  0  0
   12.6250    8.6294   -8.4338 O   0  0  0  0  0  0  0  0  0  0  0  0
   11.0835    8.4395  -10.0740 O   0  0  0  0  0  0  0  0  0  0  0  0
   11.2938    7.5612  -11.0769 C   0  0  0  0  0  0  0  0  0  0  0  0
   10.1547    7.2525  -11.9492 C   0  0  0  0  0  0  0  0  0  0  0  0
   10.4293    6.5622  -13.1348 C   0  0  0  0  0  0  0  0  0  0  0  0
   11.7295    6.4217  -13.6243 C   0  0  0  0  0  0  0  0  0  0  0  0
    8.8120    7.3918  -11.4649 C   0  0  0  0  0  0  0  0  0  0  0  0
   12.5351    7.8894  -11.6869 C   0  0  0  0  0  0  0  0  0  0  0  0
   13.5778    8.4243  -10.9673 O   0  0  0  0  0  0  0  0  0  0  0  0
    7.7211    7.1761  -12.4323 C   0  0  0  0  0  0  0  0  0  0  0  0
   12.8103    7.0723  -12.8897 C   0  0  0  0  0  0  0  0  0  0  0  0
    7.0543    5.9667  -12.3369 C   0  0  0  0  0  0  0  0  0  0  0  0
    7.2392    8.1844  -13.1320 C   0  0  0  0  0  0  0  0  0  0  0  0
    6.6882    5.3848  -13.5016 O   0  0  0  0  0  0  0  0  0  0  0  0
    6.5103    5.5543  -11.3870 O   0  0  0  0  0  0  0  0  0  0  0  0
    7.4031    4.0506  -13.7852 C   0  0  0  0  0  0  0  0  0  0  0  0
    8.6811    3.9966  -14.1333 C   0  0  0  0  0  0  0  0  0  0  0  0
   12.0732    5.6649  -14.9357 C   0  0  0  0  0  0  0  0  0  0  0  0
   12.2134    6.3585  -15.8991 O   0  0  0  0  0  0  0  0  0  0  0  0
    9.3344    2.7860  -14.0136 C   0  0  0  0  0  0  0  0  0  0  0  0
    8.6199    1.5951  -13.7674 C   0  0  0  0  0  0  0  0  0  0  0  0
    6.6664    2.8721  -13.4413 C   0  0  0  0  0  0  0  0  0  0  0  0
   10.9558    2.6780  -14.2922 C   0  0  0  0  0  0  0  0  0  0  0  0
    7.3924    1.6063  -13.5310 C   0  0  0  0  0  0  0  0  0  0  0  0
   12.0653    4.2861  -14.9668 N   0  0  0  0  0  0  0  0  0  0  0  0
   11.2309    3.5633  -15.2047 N   0  0  0  0  0  0  0  0  0  0  0  0
  1  2  1  0  0  0  0
  1  3  1  0  0  0  0
  2  4  1  0  0  0  0
  3  5  1  0  0  0  0
  4  6  1  0  0  0  0
  5  6  1  0  0  0  0
  5  7  1  0  0  0  0
  7  8  1  0  0  0  0
  8  9  2  0  0  0  0
  8 10  1  0  0  0  0
 10 11  1  0  0  0  0
 11 12  1  0  0  0  0
 11 16  2  0  0  0  0
 12 13  2  0  0  0  0
 12 15  1  0  0  0  0
 13 14  1  0  0  0  0
 14 19  2  0  0  0  0
 14 26  1  0  0  0  0
 15 18  1  0  0  0  0
 16 17  1  0  0  0  0
 16 19  1  0  0  0  0
 18 20  1  0  0  0  0
 18 21  2  0  0  0  0
 20 22  1  0  0  0  0
 20 23  2  0  0  0  0
 22 24  1  0  0  0  0
 24 25  1  0  0  0  0
 24 30  2  0  0  0  0
 25 28  2  0  0  0  0
 26 27  2  0  0  0  0
 26 33  1  0  0  0  0
 28 29  1  0  0  0  0
 28 31  1  0  0  0  0
 29 32  2  0  0  0  0
 30 32  1  0  0  0  0
 31 34  1  0  0  0  0
 33 34  1  0  0  0  0
M  END
$$$$

 OpenBabel10082411353D

 34 38  0  0  0  0  0  0  0  0999 V2000
   11.6836    6.0105   -4.8831 C   0  0  0  0  0  0  0  0  0  0  0  0
   11.1291    7.0732   -5.4395 C   0  0  0  0  0  0  0  0  0  0  0  0
   10.6954    7.0156   -6.8073 C   0  0  0  0  0  0  0  0  0  0  0  0
   10.2502    8.1187   -7.5536 C   0  0  2  0  0  0  0  0  0  0  0  0
   11.1205    8.4712   -4.9629 C   0  0  0  0  0  0  0  0  0  0  0  0
   10.8655    8.3511   -8.7960 C   0  0  0  0  0  0  0  0  0  0  0  0
   10.2922    7.8843   -9.9985 C   0  0  0  0  0  0  0  0  0  0  0  0
   10.4654    9.6993   -5.6120 C   0  0  0  0  0  0  0  0  0  0  0  0
   10.3510    9.5971   -7.0014 C   0  0  0  0  0  0  0  0  0  0  0  0
   12.2462    6.3351   -3.5020 C   0  0  0  0  0  0  0  0  0  0  0  0
   11.0471    7.5309  -11.1063 C   0  0  0  0  0  0  0  0  0  0  0  0
   11.7288    8.6923   -3.6518 C   0  0  0  0  0  0  0  0  0  0  0  0
   12.3991    7.7501  -11.1145 C   0  0  0  0  0  0  0  0  0  0  0  0
   12.3738    7.7580   -2.9599 C   0  0  0  0  0  0  0  0  0  0  0  0
   13.1285    8.5075  -10.1661 O   0  0  0  0  0  0  0  0  0  0  0  0
    9.0407    7.3775  -10.0973 N   0  0  0  0  0  0  0  0  0  0  0  0
    8.9787    6.9473  -11.4664 N   0  0  0  0  0  0  0  0  0  0  0  0
   13.1486    7.4839  -12.3563 C   0  0  0  0  0  0  0  0  0  0  0  0
   10.2774    6.9211  -12.0258 C   0  0  0  0  0  0  0  0  0  0  0  0
    7.7103    6.4336  -11.9664 C   0  0  0  0  0  0  0  0  0  0  0  0
   12.3181    6.9212  -13.3802 C   0  0  0  0  0  0  0  0  0  0  0  0
   12.9543    6.5895  -14.6358 O   0  0  0  0  0  0  0  0  0  0  0  0
   10.9162    6.6353  -13.2980 C   0  0  0  0  0  0  0  0  0  0  0  0
    7.7682    4.9539  -12.3144 C   0  0  0  0  0  0  0  0  0  0  0  0
   12.5567    5.5127  -15.3192 C   0  0  0  0  0  0  0  0  0  0  0  0
    6.7187    7.1761  -12.3365 C   0  0  0  0  0  0  0  0  0  0  0  0
    6.6912    4.3470  -12.8055 C   0  0  0  0  0  0  0  0  0  0  0  0
    6.7602    8.6758  -12.1854 C   0  0  0  0  0  0  0  0  0  0  0  0
    5.5485    5.2159  -13.1184 C   0  0  0  0  0  0  0  0  0  0  0  0
    5.6893    6.5482  -12.7472 C   0  0  0  0  0  0  0  0  0  0  0  0
    6.6054    2.8409  -13.0852 C   0  0  0  0  0  0  0  0  0  0  0  0
    7.5873    2.4036  -13.9796 C   0  0  0  0  0  0  0  0  0  0  0  0
    8.4931    3.2282  -14.5069 O   0  0  0  0  0  0  0  0  0  0  0  0
    7.5700    1.2676  -14.4861 O   0  0  0  0  0  0  0  0  0  0  0  0
  1  2  1  0  0  0  0
  1 10  2  0  0  0  0
  2  3  1  0  0  0  0
  2  5  2  0  0  0  0
  3  4  1  0  0  0  0
  4  6  1  6  0  0  0
  4  9  1  0  0  0  0
  5  8  1  0  0  0  0
  5 12  1  0  0  0  0
  6  7  1  0  0  0  0
  7 11  1  0  0  0  0
  7 16  2  0  0  0  0
  8  9  1  0  0  0  0
 10 14  1  0  0  0  0
 11 13  2  0  0  0  0
 11 19  1  0  0  0  0
 12 14  2  0  0  0  0
 13 15  1  0  0  0  0
 13 18  1  0  0  0  0
 16 17  1  0  0  0  0
 17 19  1  0  0  0  0
 17 20  1  0  0  0  0
 18 21  2  0  0  0  0
 19 23  2  0  0  0  0
 20 24  1  0  0  0  0
 20 26  2  0  0  0  0
 21 22  1  0  0  0  0
 21 23  1  0  0  0  0
 22 25  1  0  0  0  0
 24 27  2  0  0  0  0
 26 28  1  0  0  0  0
 26 30  1  0  0  0  0
 27 29  1  0  0  0  0
 27 31  1  0  0  0  0
 29 30  2  0  0  0  0
 31 32  1  0  0  0  0
 32 33  1  0  0  0  0
 32 34  2  0  0  0  0
M  END
$$$$

 OpenBabel10082411353D

 34 39  0  0  0  0  0  0  0  0999 V2000
   13.2485    9.2493   -6.3668 O   0  0  0  0  0  0  0  0  0  0  0  0
   12.3055    9.1779   -7.4488 C   0  0  1  0  0  0  0  0  0  0  0  0
   12.5005    8.1033   -8.2440 C   0  0  0  0  0  0  0  0  0  0  0  0
   11.7072    8.0925   -9.4886 C   0  0  0  0  0  0  0  0  0  0  0  0
   12.2659    7.9483  -10.6668 C   0  0  0  0  0  0  0  0  0  0  0  0
   10.2869    8.0426   -9.4299 C   0  0  0  0  0  0  0  0  0  0  0  0
   13.6482    8.0497  -10.9162 O   0  0  0  0  0  0  0  0  0  0  0  0
   11.5356    7.8148  -11.9199 C   0  0  0  0  0  0  0  0  0  0  0  0
   12.2597    7.6523  -13.1838 C   0  0  0  0  0  0  0  0  0  0  0  0
    9.5345    7.8388  -10.6476 C   0  0  0  0  0  0  0  0  0  0  0  0
   12.7796    8.4277  -13.7325 O   0  0  0  0  0  0  0  0  0  0  0  0
   10.1724    7.7406  -11.8577 C   0  0  0  0  0  0  0  0  0  0  0  0
   12.4765    6.3392  -13.7439 N   0  0  0  0  0  0  0  0  0  0  0  0
    9.2368    7.4770  -13.0161 C   0  0  1  0  0  0  0  0  0  0  0  0
    8.7686    6.0601  -13.0538 C   0  0  0  0  0  0  0  0  0  0  0  0
   11.7377    5.1496  -13.1887 C   0  0  0  0  0  0  0  0  0  0  0  0
   10.9893    9.0510   -6.5404 C   0  0  0  0  0  0  0  0  0  0  0  0
   11.2522    8.1647   -5.3854 C   0  0  2  0  0  0  0  0  0  0  0  0
    7.8881    5.4892  -12.2818 C   0  0  0  0  0  0  0  0  0  0  0  0
    8.1030    8.4511  -12.9051 C   0  0  0  0  0  0  0  0  0  0  0  0
   11.2726    4.1709  -14.3554 C   0  0  1  0  0  0  0  0  0  0  0  0
   12.7640    9.8841   -5.1669 C   0  0  0  0  0  0  0  0  0  0  0  0
   10.2020    7.3447   -4.8869 C   0  0  0  0  0  0  0  0  0  0  0  0
    9.2831    5.2239  -14.0945 C   0  0  0  0  0  0  0  0  0  0  0  0
    7.4658    4.1818  -12.3783 C   0  0  0  0  0  0  0  0  0  0  0  0
   11.8409    9.0255   -4.2786 C   0  0  0  0  0  0  0  0  0  0  0  0
    8.0323    3.4365  -13.5317 C   0  0  0  0  0  0  0  0  0  0  0  0
    8.8555    3.9527  -14.2628 C   0  0  0  0  0  0  0  0  0  0  0  0
    9.6277    3.1977  -15.2748 N   0  0  0  0  0  0  0  0  0  0  0  0
    8.9998    2.0715  -15.8197 C   0  0  0  0  0  0  0  0  0  0  0  0
   12.6128    6.2686  -15.1761 C   0  0  0  0  0  0  0  0  0  0  0  0
   10.9655    2.8434  -14.8300 C   0  0  0  0  0  0  0  0  0  0  0  0
   10.4445    5.2155  -14.9828 N   0  0  0  0  0  0  0  0  0  0  0  0
   11.2546    6.3395  -15.5036 C   0  0  0  0  0  0  0  0  0  0  0  0
  1  2  1  0  0  0  0
  1 22  1  0  0  0  0
  2  3  1  6  0  0  0
  2 17  1  0  0  0  0
  3  4  1  0  0  0  0
  4  5  1  0  0  0  0
  4  6  2  0  0  0  0
  5  7  1  0  0  0  0
  5  8  2  0  0  0  0
  6 10  1  0  0  0  0
  8  9  1  0  0  0  0
  8 12  1  0  0  0  0
  9 11  2  0  0  0  0
  9 13  1  0  0  0  0
 10 12  2  0  0  0  0
 12 14  1  0  0  0  0
 13 16  1  0  0  0  0
 13 31  1  0  0  0  0
 14 15  1  0  0  0  0
 14 20  1  1  0  0  0
 15 19  1  0  0  0  0
 15 24  2  0  0  0  0
 17 18  1  0  0  0  0
 18 23  1  1  0  0  0
 18 26  1  0  0  0  0
 19 25  2  0  0  0  0
 21 16  1  1  0  0  0
 21 32  1  0  0  0  0
 21 33  1  0  0  0  0
 22 26  1  0  0  0  0
 24 28  1  0  0  0  0
 24 33  1  0  0  0  0
 25 27  1  0  0  0  0
 27 28  2  0  0  0  0
 28 29  1  0  0  0  0
 29 30  1  0  0  0  0
 29 32  1  0  0  0  0
 31 34  1  0  0  0  0
 33 34  1  0  0  0  0
M  END
$$$$

 OpenBabel10082411353D

 34 40  0  0  0  0  0  0  0  0999 V2000
   12.7863    7.8241  -14.2109 C   0  0  0  0  0  0  0  0  0  0  0  0
   12.4233    7.7158  -13.0289 C   0  0  0  0  0  0  0  0  0  0  0  0
   11.3194    6.8571  -12.8028 C   0  0  0  0  0  0  0  0  0  0  0  0
   12.3150    7.2021  -15.3582 C   0  0  0  0  0  0  0  0  0  0  0  0
   11.2733    6.2739  -15.1502 C   0  0  0  0  0  0  0  0  0  0  0  0
   10.8099    6.0126  -13.8600 C   0  0  0  0  0  0  0  0  0  0  0  0
    9.6782    5.1428  -13.6488 C   0  0  0  0  0  0  0  0  0  0  0  0
    8.5753    5.3880  -12.9589 N   0  0  0  0  0  0  0  0  0  0  0  0
    8.3226    6.7011  -12.3862 C   0  0  0  0  0  0  0  0  0  0  0  0
    9.8502    3.8578  -14.0728 C   0  0  0  0  0  0  0  0  0  0  0  0
    7.3864    7.4720  -13.0530 C   0  0  0  0  0  0  0  0  0  0  0  0
    6.2412    7.8486  -12.2599 C   0  0  0  0  0  0  0  0  0  0  0  0
    7.6425    4.4186  -12.7943 C   0  0  0  0  0  0  0  0  0  0  0  0
   11.0297    3.2482  -14.8053 C   0  0  0  0  0  0  0  0  0  0  0  0
    8.6802    2.8955  -13.7960 C   0  0  0  0  0  0  0  0  0  0  0  0
    8.8565    1.5917  -14.3582 O   0  0  0  0  0  0  0  0  0  0  0  0
    7.6903    3.2226  -13.1994 N   0  0  0  0  0  0  0  0  0  0  0  0
    6.5724    2.3444  -12.8378 C   0  0  0  0  0  0  0  0  0  0  0  0
    9.0225    7.0353  -11.3259 C   0  0  0  0  0  0  0  0  0  0  0  0
    6.2405    4.8489  -12.4515 C   0  0  0  0  0  0  0  0  0  0  0  0
   10.5875    7.0617  -11.5321 C   0  0  0  0  0  0  0  0  0  0  0  0
   11.0960    7.6093  -10.4100 C   0  0  0  0  0  0  0  0  0  0  0  0
    8.4039    7.3336  -10.1102 C   0  0  0  0  0  0  0  0  0  0  0  0
   10.6086    7.8156   -9.1888 C   0  0  0  0  0  0  0  0  0  0  0  0
    9.3113    7.5527   -9.2022 C   0  0  0  0  0  0  0  0  0  0  0  0
    5.5868    3.4174  -12.3561 C   0  0  0  0  0  0  0  0  0  0  0  0
    8.7252    7.9330   -7.6242 C   0  0  0  0  0  0  0  0  0  0  0  0
   11.1859    8.0862   -7.9601 C   0  0  0  0  0  0  0  0  0  0  0  0
   12.7495    8.2704   -8.0174 C   0  0  0  0  0  0  0  0  0  0  0  0
   10.4493    8.2542   -6.7750 C   0  0  0  0  0  0  0  0  0  0  0  0
    9.2994    8.2572   -6.6670 C   0  0  0  0  0  0  0  0  0  0  0  0
   13.1401    9.0633   -6.8773 C   0  0  0  0  0  0  0  0  0  0  0  0
   11.2317    8.8770   -5.6231 C   0  0  0  0  0  0  0  0  0  0  0  0
   12.6833    9.1867   -5.8305 C   0  0  0  0  0  0  0  0  0  0  0  0
  1  2  2  0  0  0  0
  1  4  1  0  0  0  0
  2  3  1  0  0  0  0
  3  6  2  0  0  0  0
  3 21  1  0  0  0  0
  4  5  2  0  0  0  0
  5  6  1  0  0  0  0
  6  7  1  0  0  0  0
  7  8  1  0  0  0  0
  7 10  2  0  0  0  0
  8  9  1  0  0  0  0
  8 13  1  0  0  0  0
  9 11  1  0  0  0  0
  9 19  2  0  0  0  0
 10 14  1  0  0  0  0
 10 15  1  0  0  0  0
 11 12  1  0  0  0  0
 13 17  1  0  0  0  0
 13 20  2  0  0  0  0
 15 16  2  0  0  0  0
 15 17  1  0  0  0  0
 17 18  1  0  0  0  0
 18 26  2  0  0  0  0
 19 21  1  0  0  0  0
 19 23  1  0  0  0  0
 20 26  1  0  0  0  0
 21 22  2  0  0  0  0
 22 24  1  0  0  0  0
 23 25  2  0  0  0  0
 24 25  1  0  0  0  0
 24 28  2  0  0  0  0
 25 27  1  0  0  0  0
 27 31  1  0  0  0  0
 28 29  1  0  0  0  0
 28 30  1  0  0  0  0
 29 32  1  0  0  0  0
 30 31  1  0  0  0  0
 30 33  2  0  0  0  0
 32 34  2  0  0  0  0
 33 34  1  0  0  0  0
M  END
$$$$

 OpenBabel10082411353D

 34 38  0  0  0  0  0  0  0  0999 V2000
   11.6836    6.0105   -4.8831 C   0  0  0  0  0  0  0  0  0  0  0  0
   11.1291    7.0732   -5.4395 C   0  0  0  0  0  0  0  0  0  0  0  0
   10.6954    7.0156   -6.8073 C   0  0  0  0  0  0  0  0  0  0  0  0
   10.2502    8.1187   -7.5536 C   0  0  2  0  0  0  0  0  0  0  0  0
   11.1205    8.4712   -4.9629 C   0  0  0  0  0  0  0  0  0  0  0  0
   10.8655    8.3511   -8.7960 C   0  0  0  0  0  0  0  0  0  0  0  0
   10.2922    7.8843   -9.9985 C   0  0  0  0  0  0  0  0  0  0  0  0
   10.4654    9.6993   -5.6120 C   0  0  0  0  0  0  0  0  0  0  0  0
   10.3510    9.5971   -7.0014 C   0  0  0  0  0  0  0  0  0  0  0  0
   12.2462    6.3351   -3.5020 C   0  0  0  0  0  0  0  0  0  0  0  0
   11.0471    7.5309  -11.1063 C   0  0  0  0  0  0  0  0  0  0  0  0
   11.7288    8.6923   -3.6518 C   0  0  0  0  0  0  0  0  0  0  0  0
   12.3991    7.7501  -11.1145 C   0  0  0  0  0  0  0  0  0  0  0  0
   12.3738    7.7580   -2.9599 C   0  0  0  0  0  0  0  0  0  0  0  0
   13.1285    8.5075  -10.1661 O   0  0  0  0  0  0  0  0  0  0  0  0
    9.0407    7.3775  -10.0973 N   0  0  0  0  0  0  0  0  0  0  0  0
    8.9787    6.9473  -11.4664 N   0  0  0  0  0  0  0  0  0  0  0  0
   13.1012    7.4459  -12.3707 C   0  0  0  0  0  0  0  0  0  0  0  0
   12.2395    6.9724  -13.2444 C   0  0  0  0  0  0  0  0  0  0  0  0
   10.2768    7.0170  -11.9799 C   0  0  0  0  0  0  0  0  0  0  0  0
   12.9237    6.5822  -14.5759 O   0  0  0  0  0  0  0  0  0  0  0  0
   10.8906    6.6526  -13.2252 C   0  0  0  0  0  0  0  0  0  0  0  0
   12.2396    6.1290  -15.6916 C   0  0  0  0  0  0  0  0  0  0  0  0
    7.8036    6.1825  -11.9342 C   0  0  0  0  0  0  0  0  0  0  0  0
   12.5015    4.7115  -15.7686 C   0  0  0  0  0  0  0  0  0  0  0  0
    7.1685    6.9992  -12.8245 C   0  0  0  0  0  0  0  0  0  0  0  0
   11.2461    3.8540  -15.4851 C   0  0  0  0  0  0  0  0  0  0  0  0
    7.6237    4.9154  -11.6529 C   0  0  0  0  0  0  0  0  0  0  0  0
    6.6378    4.1960  -12.2267 C   0  0  0  0  0  0  0  0  0  0  0  0
    6.2717    2.7675  -11.9743 C   0  0  0  0  0  0  0  0  0  0  0  0
    5.7856    5.1129  -13.1319 C   0  0  0  0  0  0  0  0  0  0  0  0
    6.1728    6.3542  -13.2609 C   0  0  0  0  0  0  0  0  0  0  0  0
   11.4623    2.5522  -15.3666 O   0  0  0  0  0  0  0  0  0  0  0  0
   10.1346    4.3893  -15.1537 O   0  0  0  0  0  0  0  0  0  0  0  0
  1  2  1  0  0  0  0
  1 10  2  0  0  0  0
  2  3  1  0  0  0  0
  2  5  2  0  0  0  0
  3  4  1  0  0  0  0
  4  6  1  6  0  0  0
  4  9  1  0  0  0  0
  5  8  1  0  0  0  0
  5 12  1  0  0  0  0
  6  7  1  0  0  0  0
  7 11  1  0  0  0  0
  7 16  2  0  0  0  0
  8  9  1  0  0  0  0
 10 14  1  0  0  0  0
 11 13  2  0  0  0  0
 11 20  1  0  0  0  0
 12 14  2  0  0  0  0
 13 15  1  0  0  0  0
 13 18  1  0  0  0  0
 16 17  1  0  0  0  0
 17 20  1  0  0  0  0
 17 24  1  0  0  0  0
 18 19  2  0  0  0  0
 19 21  1  0  0  0  0
 19 22  1  0  0  0  0
 20 22  2  0  0  0  0
 21 23  1  0  0  0  0
 23 25  1  0  0  0  0
 24 26  2  0  0  0  0
 24 28  1  0  0  0  0
 25 27  1  0  0  0  0
 26 32  1  0  0  0  0
 27 33  2  0  0  0  0
 27 34  1  0  0  0  0
 28 29  2  0  0  0  0
 29 30  1  0  0  0  0
 29 31  1  0  0  0  0
 31 32  2  0  0  0  0
M  END
$$$$

 OpenBabel10082411353D

 23 24  0  0  0  0  0  0  0  0999 V2000
   10.7609    9.6228   -4.2714 C   0  0  0  0  0  0  0  0  0  0  0  0
   10.4930    9.4831   -5.5343 C   0  0  0  0  0  0  0  0  0  0  0  0
   11.6139    8.5907   -3.8078 C   0  0  0  0  0  0  0  0  0  0  0  0
   10.6916    8.7185   -6.3306 C   0  0  0  0  0  0  0  0  0  0  0  0
   11.4775    7.4908   -5.9802 C   0  0  0  0  0  0  0  0  0  0  0  0
   10.1045    8.7095   -7.8164 C   0  0  0  0  0  0  0  0  0  0  0  0
   11.8703    7.5203   -4.5985 C   0  0  0  0  0  0  0  0  0  0  0  0
   10.7919    7.9248   -8.8228 C   0  0  2  0  0  0  0  0  0  0  0  0
   11.9364    8.4952   -9.3965 C   0  0  0  0  0  0  0  0  0  0  0  0
    9.8959    7.3469   -9.8494 C   0  0  0  0  0  0  0  0  0  0  0  0
   12.2659    8.0794  -10.7080 C   0  0  0  0  0  0  0  0  0  0  0  0
   10.4408    6.8044  -11.0562 C   0  0  2  0  0  0  0  0  0  0  0  0
   11.4386    7.6856  -11.6482 N   0  0  0  0  0  0  0  0  0  0  0  0
    9.4200    6.2781  -12.0473 C   0  0  0  0  0  0  0  0  0  0  0  0
   11.6788    7.6359  -13.0249 C   0  0  0  0  0  0  0  0  0  0  0  0
   12.6986    7.8374  -13.5514 O   0  0  0  0  0  0  0  0  0  0  0  0
    8.6050    5.1568  -11.5138 C   0  0  0  0  0  0  0  0  0  0  0  0
    7.6410    4.7257  -12.4434 C   0  0  0  0  0  0  0  0  0  0  0  0
    6.4153    5.2345  -12.2053 C   0  0  0  0  0  0  0  0  0  0  0  0
    7.8432    3.6523  -13.3317 C   0  0  0  0  0  0  0  0  0  0  0  0
    9.2094    3.1050  -13.6229 C   0  0  0  0  0  0  0  0  0  0  0  0
   10.2699    3.8163  -14.0936 C   0  0  0  0  0  0  0  0  0  0  0  0
   11.5811    3.2262  -14.1219 C   0  0  0  0  0  0  0  0  0  0  0  0
  1  2  1  0  0  0  0
  1  3  2  0  0  0  0
  2  4  2  0  0  0  0
  3  7  1  0  0  0  0
  4  5  1  0  0  0  0
  4  6  1  0  0  0  0
  5  7  2  0  0  0  0
  8  6  1  6  0  0  0
  8  9  1  0  0  0  0
  8 10  1  0  0  0  0
  9 11  1  0  0  0  0
 10 12  1  0  0  0  0
 11 13  1  0  0  0  0
 12 13  1  0  0  0  0
 12 14  1  6  0  0  0
 13 15  1  0  0  0  0
 14 17  1  0  0  0  0
 15 16  2  0  0  0  0
 17 18  1  0  0  0  0
 18 19  1  0  0  0  0
 18 20  2  3  0  0  0
 20 21  1  0  0  0  0
 21 22  1  0  0  0  0
 22 23  1  0  0  0  0
M  END
$$$$

 OpenBabel10082411353D

 34 40  0  0  0  0  0  0  0  0999 V2000
   13.1862    9.4584   -4.4987 C   0  0  0  0  0  0  0  0  0  0  0  0
   12.1466    8.8379   -3.9099 C   0  0  0  0  0  0  0  0  0  0  0  0
   12.9882    9.7409   -5.8618 C   0  0  0  0  0  0  0  0  0  0  0  0
   11.9761    9.3177   -6.5889 C   0  0  0  0  0  0  0  0  0  0  0  0
   10.9346    8.5066   -5.9096 C   0  0  0  0  0  0  0  0  0  0  0  0
   12.2569    8.5495   -2.4516 C   0  0  0  0  0  0  0  0  0  0  0  0
   11.0697    8.2577   -4.5299 C   0  0  0  0  0  0  0  0  0  0  0  0
   11.7350    9.5912   -7.9371 O   0  0  0  0  0  0  0  0  0  0  0  0
    9.7397    8.0780   -6.6393 C   0  0  0  0  0  0  0  0  0  0  0  0
   10.8649    8.8162   -8.5483 C   0  0  2  0  0  0  0  0  0  0  0  0
    9.2400    6.9866   -6.2549 O   0  0  0  0  0  0  0  0  0  0  0  0
   10.8576    9.1019   -9.9991 C   0  0  0  0  0  0  0  0  0  0  0  0
   11.8034    8.3801  -10.7004 C   0  0  0  0  0  0  0  0  0  0  0  0
    9.8033    8.2783   -8.0085 N   0  0  0  0  0  0  0  0  0  0  0  0
   11.4502    7.6515  -11.8595 C   0  0  0  0  0  0  0  0  0  0  0  0
   10.3061    7.2417  -12.2192 C   0  0  0  0  0  0  0  0  0  0  0  0
   12.5619    7.1376  -12.7423 C   0  0  0  0  0  0  0  0  0  0  0  0
    9.9519    6.4550  -13.3394 C   0  0  0  0  0  0  0  0  0  0  0  0
   12.3234    6.3860  -13.8374 C   0  0  0  0  0  0  0  0  0  0  0  0
   11.0086    6.0227  -14.1262 C   0  0  0  0  0  0  0  0  0  0  0  0
   10.7528    5.1903  -15.3140 C   0  0  0  0  0  0  0  0  0  0  0  0
   10.7272    3.7455  -15.1287 N   0  0  0  0  0  0  0  0  0  0  0  0
    9.8835    3.1820  -14.4607 C   0  0  0  0  0  0  0  0  0  0  0  0
    9.9418    1.8005  -14.3797 N   0  0  0  0  0  0  0  0  0  0  0  0
    8.5108    3.6485  -13.9676 C   0  0  0  0  0  0  0  0  0  0  0  0
    7.4839    2.7202  -13.6392 C   0  0  0  0  0  0  0  0  0  0  0  0
   11.1594    1.4102  -15.0263 O   0  0  0  0  0  0  0  0  0  0  0  0
   11.5806    2.7148  -15.4973 C   0  0  0  0  0  0  0  0  0  0  0  0
    8.1482    4.9455  -13.8318 C   0  0  2  0  0  0  0  0  0  0  0  0
    8.5688    6.1536  -13.5560 C   0  0  0  0  0  0  0  0  0  0  0  0
    7.6851    7.1904  -13.3092 C   0  0  0  0  0  0  0  0  0  0  0  0
    6.2526    6.5780  -13.2519 C   0  0  0  0  0  0  0  0  0  0  0  0
    6.5353    5.0056  -13.1591 C   0  0  0  0  0  0  0  0  0  0  0  0
    6.3325    3.6970  -13.4837 C   0  0  0  0  0  0  0  0  0  0  0  0
  1  2  1  0  0  0  0
  1  3  2  0  0  0  0
  2  6  1  0  0  0  0
  2  7  2  0  0  0  0
  3  4  1  0  0  0  0
  4  5  2  0  0  0  0
  4  8  1  0  0  0  0
  5  7  1  0  0  0  0
  5  9  1  0  0  0  0
  8 10  1  0  0  0  0
  9 11  2  0  0  0  0
  9 14  1  0  0  0  0
 10 12  1  6  0  0  0
 10 14  1  0  0  0  0
 12 13  1  0  0  0  0
 13 15  1  0  0  0  0
 15 16  2  0  0  0  0
 15 17  1  0  0  0  0
 16 18  1  0  0  0  0
 17 19  2  0  0  0  0
 18 20  2  0  0  0  0
 18 30  1  0  0  0  0
 19 20  1  0  0  0  0
 20 21  1  0  0  0  0
 21 22  1  0  0  0  0
 22 23  1  0  0  0  0
 22 28  1  0  0  0  0
 23 24  2  0  0  0  0
 23 25  1  0  0  0  0
 24 27  1  0  0  0  0
 25 26  2  0  0  0  0
 26 34  1  0  0  0  0
 27 28  1  0  0  0  0
 29 25  1  1  0  0  0
 29 30  1  0  0  0  0
 29 33  1  0  0  0  0
 30 31  2  0  0  0  0
 31 32  1  0  0  0  0
 32 33  1  0  0  0  0
 33 34  2  0  0  0  0
M  END
$$$$

 OpenBabel10082411353D

 34 37  0  0  0  0  0  0  0  0999 V2000
   10.9951    9.9694   -4.9946 C   0  0  0  0  0  0  0  0  0  0  0  0
   11.7938    9.3762   -4.2463 C   0  0  0  0  0  0  0  0  0  0  0  0
   10.8673    9.4548   -6.4276 C   0  0  0  0  0  0  0  0  0  0  0  0
   11.6576    7.9117   -4.2944 C   0  0  0  0  0  0  0  0  0  0  0  0
   10.5498    8.0257   -6.4521 C   0  0  0  0  0  0  0  0  0  0  0  0
   11.4715    7.2752   -5.6166 C   0  0  0  0  0  0  0  0  0  0  0  0
   10.5840    7.5390   -7.9254 C   0  0  0  0  0  0  0  0  0  0  0  0
   11.4612    8.1494   -8.8322 C   0  0  0  0  0  0  0  0  0  0  0  0
   12.6250    8.6294   -8.4338 O   0  0  0  0  0  0  0  0  0  0  0  0
   11.0835    8.4395  -10.0740 O   0  0  0  0  0  0  0  0  0  0  0  0
   11.2938    7.5612  -11.0769 C   0  0  0  0  0  0  0  0  0  0  0  0
   10.1547    7.2525  -11.9492 C   0  0  0  0  0  0  0  0  0  0  0  0
   10.4293    6.5622  -13.1348 C   0  0  0  0  0  0  0  0  0  0  0  0
   11.7295    6.4217  -13.6243 C   0  0  0  0  0  0  0  0  0  0  0  0
    8.8120    7.3918  -11.4649 C   0  0  0  0  0  0  0  0  0  0  0  0
   12.5351    7.8894  -11.6869 C   0  0  0  0  0  0  0  0  0  0  0  0
   13.5778    8.4243  -10.9673 O   0  0  0  0  0  0  0  0  0  0  0  0
    7.7211    7.1761  -12.4323 C   0  0  0  0  0  0  0  0  0  0  0  0
   12.8103    7.0723  -12.8897 C   0  0  0  0  0  0  0  0  0  0  0  0
    7.0543    5.9667  -12.3369 C   0  0  0  0  0  0  0  0  0  0  0  0
    7.2392    8.1844  -13.1320 C   0  0  0  0  0  0  0  0  0  0  0  0
    6.6882    5.3848  -13.5016 O   0  0  0  0  0  0  0  0  0  0  0  0
    6.5103    5.5543  -11.3870 O   0  0  0  0  0  0  0  0  0  0  0  0
    7.4031    4.0506  -13.7852 C   0  0  0  0  0  0  0  0  0  0  0  0
    8.6811    3.9966  -14.1333 C   0  0  0  0  0  0  0  0  0  0  0  0
   12.0732    5.6649  -14.9357 C   0  0  0  0  0  0  0  0  0  0  0  0
   12.2134    6.3585  -15.8991 O   0  0  0  0  0  0  0  0  0  0  0  0
    9.3344    2.7860  -14.0136 C   0  0  0  0  0  0  0  0  0  0  0  0
    6.5327    3.0153  -13.7881 C   0  0  0  0  0  0  0  0  0  0  0  0
    8.4178    1.5850  -13.8562 C   0  0  0  0  0  0  0  0  0  0  0  0
   12.3043    4.3753  -14.8597 N   0  0  0  0  0  0  0  0  0  0  0  0
    7.1166    1.7652  -13.7354 C   0  0  0  0  0  0  0  0  0  0  0  0
   10.6677    2.5359  -14.2751 C   0  0  0  0  0  0  0  0  0  0  0  0
   11.3339    3.4019  -15.3338 C   0  0  0  0  0  0  0  0  0  0  0  0
  1  2  1  0  0  0  0
  1  3  1  0  0  0  0
  2  4  1  0  0  0  0
  3  5  1  0  0  0  0
  4  6  1  0  0  0  0
  5  6  1  0  0  0  0
  5  7  1  0  0  0  0
  7  8  1  0  0  0  0
  8  9  2  0  0  0  0
  8 10  1  0  0  0  0
 10 11  1  0  0  0  0
 11 12  1  0  0  0  0
 11 16  2  0  0  0  0
 12 13  2  0  0  0  0
 12 15  1  0  0  0  0
 13 14  1  0  0  0  0
 14 19  2  0  0  0  0
 14 26  1  0  0  0  0
 15 18  1  0  0  0  0
 16 17  1  0  0  0  0
 16 19  1  0  0  0  0
 18 20  1  0  0  0  0
 18 21  2  0  0  0  0
 20 22  1  0  0  0  0
 20 23  2  0  0  0  0
 22 24  1  0  0  0  0
 24 25  1  0  0  0  0
 24 29  2  0  0  0  0
 25 28  2  0  0  0  0
 26 27  2  0  0  0  0
 26 31  1  0  0  0  0
 28 30  1  0  0  0  0
 28 33  1  0  0  0  0
 29 32  1  0  0  0  0
 30 32  2  0  0  0  0
 31 34  1  0  0  0  0
 33 34  1  0  0  0  0
M  END
$$$$

 OpenBabel10082411353D

 34 38  0  0  0  0  0  0  0  0999 V2000
   11.6836    6.0105   -4.8831 C   0  0  0  0  0  0  0  0  0  0  0  0
   11.1291    7.0732   -5.4395 C   0  0  0  0  0  0  0  0  0  0  0  0
   10.6954    7.0156   -6.8073 C   0  0  0  0  0  0  0  0  0  0  0  0
   10.2502    8.1187   -7.5536 C   0  0  2  0  0  0  0  0  0  0  0  0
   11.1205    8.4712   -4.9629 C   0  0  0  0  0  0  0  0  0  0  0  0
   10.8655    8.3511   -8.7960 C   0  0  0  0  0  0  0  0  0  0  0  0
   10.2922    7.8843   -9.9985 C   0  0  0  0  0  0  0  0  0  0  0  0
   10.4654    9.6993   -5.6120 C   0  0  0  0  0  0  0  0  0  0  0  0
   10.3510    9.5971   -7.0014 C   0  0  0  0  0  0  0  0  0  0  0  0
   12.2462    6.3351   -3.5020 C   0  0  0  0  0  0  0  0  0  0  0  0
   11.0471    7.5309  -11.1063 C   0  0  0  0  0  0  0  0  0  0  0  0
   11.7288    8.6923   -3.6518 C   0  0  0  0  0  0  0  0  0  0  0  0
   12.3991    7.7501  -11.1145 C   0  0  0  0  0  0  0  0  0  0  0  0
   12.3738    7.7580   -2.9599 C   0  0  0  0  0  0  0  0  0  0  0  0
   13.1285    8.5075  -10.1661 O   0  0  0  0  0  0  0  0  0  0  0  0
    9.0407    7.3775  -10.0973 N   0  0  0  0  0  0  0  0  0  0  0  0
    8.9787    6.9473  -11.4664 N   0  0  0  0  0  0  0  0  0  0  0  0
   13.1486    7.4839  -12.3563 C   0  0  0  0  0  0  0  0  0  0  0  0
   10.2774    6.9211  -12.0258 C   0  0  0  0  0  0  0  0  0  0  0  0
    7.7103    6.4336  -11.9664 C   0  0  0  0  0  0  0  0  0  0  0  0
   12.3181    6.9212  -13.3802 C   0  0  0  0  0  0  0  0  0  0  0  0
   12.9543    6.5895  -14.6358 O   0  0  0  0  0  0  0  0  0  0  0  0
   10.9162    6.6353  -13.2980 C   0  0  0  0  0  0  0  0  0  0  0  0
    7.7682    4.9539  -12.3144 C   0  0  0  0  0  0  0  0  0  0  0  0
   12.5567    5.5127  -15.3192 C   0  0  0  0  0  0  0  0  0  0  0  0
    6.7187    7.1761  -12.3365 C   0  0  0  0  0  0  0  0  0  0  0  0
    6.6912    4.3470  -12.8055 C   0  0  0  0  0  0  0  0  0  0  0  0
    6.7602    8.6758  -12.1854 C   0  0  0  0  0  0  0  0  0  0  0  0
    5.5485    5.2159  -13.1184 C   0  0  0  0  0  0  0  0  0  0  0  0
    6.6442    2.9513  -13.0194 C   0  0  0  0  0  0  0  0  0  0  0  0
    5.5801    6.5306  -12.8963 C   0  0  0  0  0  0  0  0  0  0  0  0
    5.8641    2.2222  -12.5343 O   0  0  0  0  0  0  0  0  0  0  0  0
    7.7621    2.3518  -13.5953 N   0  0  0  0  0  0  0  0  0  0  0  0
    7.8479    0.9598  -13.9750 C   0  0  0  0  0  0  0  0  0  0  0  0
  1  2  1  0  0  0  0
  1 10  2  0  0  0  0
  2  3  1  0  0  0  0
  2  5  2  0  0  0  0
  3  4  1  0  0  0  0
  4  6  1  6  0  0  0
  4  9  1  0  0  0  0
  5  8  1  0  0  0  0
  5 12  1  0  0  0  0
  6  7  1  0  0  0  0
  7 11  1  0  0  0  0
  7 16  2  0  0  0  0
  8  9  1  0  0  0  0
 10 14  1  0  0  0  0
 11 13  2  0  0  0  0
 11 19  1  0  0  0  0
 12 14  2  0  0  0  0
 13 15  1  0  0  0  0
 13 18  1  0  0  0  0
 16 17  1  0  0  0  0
 17 19  1  0  0  0  0
 17 20  1  0  0  0  0
 18 21  2  0  0  0  0
 19 23  2  0  0  0  0
 20 24  1  0  0  0  0
 20 26  2  0  0  0  0
 21 22  1  0  0  0  0
 21 23  1  0  0  0  0
 22 25  1  0  0  0  0
 24 27  2  0  0  0  0
 26 28  1  0  0  0  0
 26 31  1  0  0  0  0
 27 29  1  0  0  0  0
 27 30  1  0  0  0  0
 29 31  2  0  0  0  0
 30 32  2  0  0  0  0
 30 33  1  0  0  0  0
 33 34  1  0  0  0  0
M  END
$$$$

 OpenBabel10082411353D

 34 38  0  0  0  0  0  0  0  0999 V2000
   11.6836    6.0105   -4.8831 C   0  0  0  0  0  0  0  0  0  0  0  0
   11.1291    7.0732   -5.4395 C   0  0  0  0  0  0  0  0  0  0  0  0
   10.6954    7.0156   -6.8073 C   0  0  0  0  0  0  0  0  0  0  0  0
   10.2502    8.1187   -7.5536 C   0  0  2  0  0  0  0  0  0  0  0  0
   11.1205    8.4712   -4.9629 C   0  0  0  0  0  0  0  0  0  0  0  0
   10.8655    8.3511   -8.7960 C   0  0  0  0  0  0  0  0  0  0  0  0
   10.2922    7.8843   -9.9985 C   0  0  0  0  0  0  0  0  0  0  0  0
   10.4654    9.6993   -5.6120 C   0  0  0  0  0  0  0  0  0  0  0  0
   10.3510    9.5971   -7.0014 C   0  0  0  0  0  0  0  0  0  0  0  0
   12.2462    6.3351   -3.5020 C   0  0  0  0  0  0  0  0  0  0  0  0
   11.0471    7.5309  -11.1063 C   0  0  0  0  0  0  0  0  0  0  0  0
   11.7288    8.6923   -3.6518 C   0  0  0  0  0  0  0  0  0  0  0  0
   12.3991    7.7501  -11.1145 C   0  0  0  0  0  0  0  0  0  0  0  0
   12.3738    7.7580   -2.9599 C   0  0  0  0  0  0  0  0  0  0  0  0
   13.1285    8.5075  -10.1661 O   0  0  0  0  0  0  0  0  0  0  0  0
    9.0407    7.3775  -10.0973 N   0  0  0  0  0  0  0  0  0  0  0  0
    8.9787    6.9473  -11.4664 N   0  0  0  0  0  0  0  0  0  0  0  0
   13.1012    7.4459  -12.3707 C   0  0  0  0  0  0  0  0  0  0  0  0
   12.2395    6.9724  -13.2444 C   0  0  0  0  0  0  0  0  0  0  0  0
   10.2768    7.0170  -11.9799 C   0  0  0  0  0  0  0  0  0  0  0  0
   12.9237    6.5822  -14.5759 O   0  0  0  0  0  0  0  0  0  0  0  0
   11.0572    6.7510  -13.2462 C   0  0  0  0  0  0  0  0  0  0  0  0
   12.2650    6.1507  -15.6975 C   0  0  0  0  0  0  0  0  0  0  0  0
    7.7685    6.4505  -12.1034 C   0  0  1  0  0  0  0  0  0  0  0  0
   12.4975    4.7151  -15.7689 C   0  0  0  0  0  0  0  0  0  0  0  0
    7.7650    4.9557  -12.2290 C   0  0  1  0  0  0  0  0  0  0  0  0
   11.6443    4.0539  -14.7592 C   0  0  0  0  0  0  0  0  0  0  0  0
    6.5619    6.9298  -11.4542 C   0  0  0  0  0  0  0  0  0  0  0  0
    8.7723    4.4204  -12.7835 O   0  0  0  0  0  0  0  0  0  0  0  0
    7.3314    4.4491  -11.0008 O   0  0  0  0  0  0  0  0  0  0  0  0
    6.0604    8.0295  -12.3294 C   0  0  0  0  0  0  0  0  0  0  0  0
   10.3478    3.6655  -14.9498 C   0  0  0  0  0  0  0  0  0  0  0  0
    8.9714    3.8631  -14.0207 C   0  0  0  0  0  0  0  0  0  0  0  0
    8.0590    3.2492  -14.0714 O   0  0  0  0  0  0  0  0  0  0  0  0
  1  2  1  0  0  0  0
  1 10  2  0  0  0  0
  2  3  1  0  0  0  0
  2  5  2  0  0  0  0
  3  4  1  0  0  0  0
  4  6  1  6  0  0  0
  4  9  1  0  0  0  0
  5  8  1  0  0  0  0
  5 12  1  0  0  0  0
  6  7  1  0  0  0  0
  7 11  1  0  0  0  0
  7 16  2  0  0  0  0
  8  9  1  0  0  0  0
 10 14  1  0  0  0  0
 11 13  2  0  0  0  0
 11 20  1  0  0  0  0
 12 14  2  0  0  0  0
 13 15  1  0  0  0  0
 13 18  1  0  0  0  0
 16 17  1  0  0  0  0
 17 20  1  0  0  0  0
 17 24  1  0  0  0  0
 18 19  2  0  0  0  0
 19 21  1  0  0  0  0
 19 22  1  0  0  0  0
 20 22  2  0  0  0  0
 21 23  1  0  0  0  0
 23 25  1  0  0  0  0
 24 26  1  0  0  0  0
 24 28  1  1  0  0  0
 25 27  1  0  0  0  0
 26 29  1  0  0  0  0
 26 30  1  1  0  0  0
 27 32  1  0  0  0  0
 28 31  1  0  0  0  0
 29 33  1  0  0  0  0
 32 33  1  0  0  0  0
 33 34  2  0  0  0  0
M  END
$$$$

 OpenBabel10082411353D

 34 41  0  0  0  0  0  0  0  0999 V2000
    8.0806    9.0240  -12.7589 C   0  0  0  0  0  0  0  0  0  0  0  0
    8.6514    7.8645  -12.2948 C   0  0  0  0  0  0  0  0  0  0  0  0
    9.9575    7.9974  -11.8426 C   0  0  0  0  0  0  0  0  0  0  0  0
   10.7657    6.8667  -11.6050 C   0  0  1  0  0  0  0  0  0  0  0  0
   10.7682    5.9590  -12.8271 C   0  0  0  0  0  0  0  0  0  0  0  0
   12.1553    7.3846  -11.2315 C   0  0  0  0  0  0  0  0  0  0  0  0
    8.0676    6.6451  -12.2974 C   0  0  0  0  0  0  0  0  0  0  0  0
   10.1892    6.1240  -10.3860 C   0  0  0  0  0  0  0  0  0  0  0  0
   11.8375    5.4373  -13.3240 O   0  0  0  0  0  0  0  0  0  0  0  0
    8.6785    5.4761  -13.0273 C   0  0  1  0  0  0  0  0  0  0  0  0
    9.1969    5.2405  -10.4969 C   0  0  1  0  0  0  0  0  0  0  0  0
    7.2213    6.2210  -11.3074 C   0  0  0  0  0  0  0  0  0  0  0  0
   12.5590    7.6872   -9.9896 C   0  0  0  0  0  0  0  0  0  0  0  0
    9.7633    5.0333  -12.9720 C   0  0  1  0  0  0  0  0  0  0  0  0
   10.0661    4.0167  -14.0373 N   0  0  0  0  0  0  0  0  0  0  0  0
   13.6906    8.3004   -9.6233 O   0  0  0  0  0  0  0  0  0  0  0  0
    7.6357    4.5123  -12.6317 C   0  0  2  0  0  0  0  0  0  0  0  0
    6.8831    4.9171  -11.7031 C   0  0  0  0  0  0  0  0  0  0  0  0
   10.5937    6.6967   -9.1779 C   0  0  0  0  0  0  0  0  0  0  0  0
    9.5087    4.3263  -11.6925 C   0  0  2  0  0  0  0  0  0  0  0  0
   11.6359    7.4449   -8.9125 C   0  0  0  0  0  0  0  0  0  0  0  0
   11.9716    7.9159   -7.6200 C   0  0  0  0  0  0  0  0  0  0  0  0
    8.4648    3.6122  -12.2840 C   0  0  2  0  0  0  0  0  0  0  0  0
    9.3128    4.5571   -9.1689 C   0  0  0  0  0  0  0  0  0  0  0  0
   10.9557    7.6369   -6.5929 C   0  0  1  0  0  0  0  0  0  0  0  0
    9.6490    2.8108  -13.7776 C   0  0  1  0  0  0  0  0  0  0  0  0
    9.6716    6.1981   -8.0224 C   0  0  2  0  0  0  0  0  0  0  0  0
    8.5511    2.5400  -13.1402 C   0  0  0  0  0  0  0  0  0  0  0  0
    9.7877    2.0302  -15.0383 O   0  0  0  0  0  0  0  0  0  0  0  0
   10.2949    6.3957   -6.8142 C   0  0  0  0  0  0  0  0  0  0  0  0
    9.0872    5.0431   -8.0754 C   0  0  0  0  0  0  0  0  0  0  0  0
   11.6109    7.7802   -5.1646 C   0  0  0  0  0  0  0  0  0  0  0  0
   11.6041    6.8019   -4.4350 C   0  0  0  0  0  0  0  0  0  0  0  0
   11.0954    9.0275   -4.4523 C   0  0  0  0  0  0  0  0  0  0  0  0
  1  2  1  0  0  0  0
  2  3  1  0  0  0  0
  2  7  2  0  0  0  0
  4  3  1  6  0  0  0
  4  5  1  0  0  0  0
  4  6  1  0  0  0  0
  4  8  1  0  0  0  0
  5  9  2  0  0  0  0
  6 13  1  0  0  0  0
  7 12  1  0  0  0  0
  8 11  1  0  0  0  0
  8 19  2  0  0  0  0
 10  7  1  1  0  0  0
 10 14  1  0  0  0  0
 10 17  1  0  0  0  0
 11 20  1  0  0  0  0
 11 24  1  1  0  0  0
 12 18  1  0  0  0  0
 13 16  2  0  0  0  0
 13 21  1  0  0  0  0
 14  5  1  1  0  0  0
 14 15  1  0  0  0  0
 14 20  1  0  0  0  0
 15 26  1  0  0  0  0
 17 18  1  1  0  0  0
 17 23  1  0  0  0  0
 19 21  1  0  0  0  0
 19 27  1  0  0  0  0
 20 23  1  0  0  0  0
 21 22  2  0  0  0  0
 22 25  1  0  0  0  0
 23 28  1  0  0  0  0
 24 31  1  0  0  0  0
 25 30  1  0  0  0  0
 25 32  1  0  0  0  0
 26 28  1  0  0  0  0
 26 29  1  0  0  0  0
 27 30  1  0  0  0  0
 27 31  1  0  0  0  0
 32 33  1  0  0  0  0
 32 34  1  0  0  0  0
M  END
$$$$

 OpenBabel10082411353D

 34 41  0  0  0  0  0  0  0  0999 V2000
    8.0806    9.0240  -12.7589 C   0  0  0  0  0  0  0  0  0  0  0  0
    8.6514    7.8645  -12.2948 C   0  0  0  0  0  0  0  0  0  0  0  0
    9.9575    7.9974  -11.8426 C   0  0  0  0  0  0  0  0  0  0  0  0
   10.7657    6.8667  -11.6050 C   0  0  1  0  0  0  0  0  0  0  0  0
   10.7682    5.9590  -12.8271 C   0  0  0  0  0  0  0  0  0  0  0  0
   12.1553    7.3846  -11.2315 C   0  0  0  0  0  0  0  0  0  0  0  0
    8.0676    6.6451  -12.2974 C   0  0  0  0  0  0  0  0  0  0  0  0
   10.1892    6.1240  -10.3860 C   0  0  0  0  0  0  0  0  0  0  0  0
   11.8375    5.4373  -13.3240 O   0  0  0  0  0  0  0  0  0  0  0  0
    8.6785    5.4761  -13.0273 C   0  0  1  0  0  0  0  0  0  0  0  0
    9.1969    5.2405  -10.4969 C   0  0  1  0  0  0  0  0  0  0  0  0
    7.2213    6.2210  -11.3074 C   0  0  0  0  0  0  0  0  0  0  0  0
   12.5590    7.6872   -9.9896 C   0  0  0  0  0  0  0  0  0  0  0  0
    9.7633    5.0333  -12.9720 C   0  0  1  0  0  0  0  0  0  0  0  0
   10.0661    4.0167  -14.0373 N   0  0  0  0  0  0  0  0  0  0  0  0
   13.6906    8.3004   -9.6233 O   0  0  0  0  0  0  0  0  0  0  0  0
    7.6357    4.5123  -12.6317 C   0  0  2  0  0  0  0  0  0  0  0  0
    6.8831    4.9171  -11.7031 C   0  0  0  0  0  0  0  0  0  0  0  0
   10.5937    6.6967   -9.1779 C   0  0  0  0  0  0  0  0  0  0  0  0
    9.5087    4.3263  -11.6925 C   0  0  2  0  0  0  0  0  0  0  0  0
   11.6359    7.4449   -8.9125 C   0  0  0  0  0  0  0  0  0  0  0  0
   11.9716    7.9159   -7.6200 C   0  0  0  0  0  0  0  0  0  0  0  0
    8.4648    3.6122  -12.2840 C   0  0  2  0  0  0  0  0  0  0  0  0
    9.3128    4.5571   -9.1689 C   0  0  0  0  0  0  0  0  0  0  0  0
   10.9557    7.6369   -6.5929 C   0  0  0  0  0  0  0  0  0  0  0  0
    9.6490    2.8108  -13.7776 C   0  0  0  0  0  0  0  0  0  0  0  0
   10.2419    1.7839  -14.4904 O   0  0  0  0  0  0  0  0  0  0  0  0
    9.8235    6.3429   -8.0308 C   0  0  0  0  0  0  0  0  0  0  0  0
    8.5421    2.5419  -13.1600 C   0  0  0  0  0  0  0  0  0  0  0  0
   10.0139    6.8647   -6.7816 C   0  0  0  0  0  0  0  0  0  0  0  0
    8.9641    5.2626   -8.0936 N   0  0  0  0  0  0  0  0  0  0  0  0
   11.2469    8.3497   -5.2452 C   0  0  0  0  0  0  0  0  0  0  0  0
   11.4983    9.8480   -5.2974 C   0  0  0  0  0  0  0  0  0  0  0  0
   12.8193    9.9906   -5.4757 C   0  0  0  0  0  0  0  0  0  0  0  0
  1  2  1  0  0  0  0
  2  3  1  0  0  0  0
  2  7  2  0  0  0  0
  4  3  1  6  0  0  0
  4  5  1  0  0  0  0
  4  6  1  0  0  0  0
  4  8  1  0  0  0  0
  5  9  2  0  0  0  0
  6 13  1  0  0  0  0
  7 12  1  0  0  0  0
  8 11  1  0  0  0  0
  8 19  2  0  0  0  0
 10  7  1  1  0  0  0
 10 14  1  0  0  0  0
 10 17  1  0  0  0  0
 11 20  1  0  0  0  0
 11 24  1  1  0  0  0
 12 18  1  0  0  0  0
 13 16  2  0  0  0  0
 13 21  1  0  0  0  0
 14  5  1  1  0  0  0
 14 15  1  0  0  0  0
 14 20  1  0  0  0  0
 15 26  1  0  0  0  0
 17 18  1  1  0  0  0
 17 23  1  0  0  0  0
 19 21  1  0  0  0  0
 19 28  1  0  0  0  0
 20 23  1  0  0  0  0
 21 22  2  0  0  0  0
 22 25  1  0  0  0  0
 23 29  1  0  0  0  0
 24 31  1  0  0  0  0
 25 30  2  0  0  0  0
 25 32  1  0  0  0  0
 26 27  2  0  0  0  0
 26 29  1  0  0  0  0
 28 30  1  0  0  0  0
 28 31  2  0  0  0  0
 32 33  1  0  0  0  0
 33 34  1  0  0  0  0
M  END
$$$$

 OpenBabel10082411353D

 34 36  0  0  0  0  0  0  0  0999 V2000
   13.2485    9.2493   -6.3668 O   0  0  0  0  0  0  0  0  0  0  0  0
   11.8899    9.2134   -6.2448 C   0  0  2  0  0  0  0  0  0  0  0  0
   11.2917    8.4721   -7.1451 C   0  0  2  0  0  0  0  0  0  0  0  0
   11.1607   10.4722   -6.0470 C   0  0  0  0  0  0  0  0  0  0  0  0
   11.8942    8.2744   -4.8861 C   0  0  1  0  0  0  0  0  0  0  0  0
   12.6962    8.6810   -3.7632 C   0  0  0  0  0  0  0  0  0  0  0  0
   10.5733    7.9819   -4.4741 O   0  0  0  0  0  0  0  0  0  0  0  0
   12.2118    6.9274   -5.0046 C   0  0  0  0  0  0  0  0  0  0  0  0
   11.4062    7.0803   -7.3138 C   0  0  1  0  0  0  0  0  0  0  0  0
   11.6893    9.1493   -8.4831 O   0  0  0  0  0  0  0  0  0  0  0  0
   11.3707    6.2717   -6.1614 C   0  0  0  0  0  0  0  0  0  0  0  0
   10.2564    6.5939   -8.3321 C   0  0  0  0  0  0  0  0  0  0  0  0
   10.4218    6.4667   -9.6182 C   0  0  0  0  0  0  0  0  0  0  0  0
    9.0449    6.2933   -7.8128 C   0  0  0  0  0  0  0  0  0  0  0  0
   11.5623    6.9616  -10.3788 C   0  0  0  0  0  0  0  0  0  0  0  0
    9.1836    6.0871  -10.1212 C   0  0  0  0  0  0  0  0  0  0  0  0
    8.3594    5.8680   -8.9980 N   0  0  0  0  0  0  0  0  0  0  0  0
    8.9634    5.7685  -11.5222 C   0  0  0  0  0  0  0  0  0  0  0  0
    9.9387    6.2140  -12.4284 C   0  0  0  0  0  0  0  0  0  0  0  0
   11.2531    6.8246  -11.9916 C   0  0  0  0  0  0  0  0  0  0  0  0
   12.2137    7.2131  -12.9706 C   0  0  0  0  0  0  0  0  0  0  0  0
    7.7583    5.2325  -11.8353 C   0  0  0  0  0  0  0  0  0  0  0  0
   11.9530    7.0918  -14.3342 C   0  0  0  0  0  0  0  0  0  0  0  0
    7.8032    4.3774  -13.0353 N   0  0  0  0  0  0  0  0  0  0  0  0
    6.7267    5.4406  -11.2899 O   0  0  0  0  0  0  0  0  0  0  0  0
    8.9854    3.9863  -13.7176 C   0  0  0  0  0  0  0  0  0  0  0  0
    6.5146    3.7830  -13.4329 C   0  0  0  0  0  0  0  0  0  0  0  0
    6.4313    2.3027  -12.9333 C   0  0  0  0  0  0  0  0  0  0  0  0
    9.4261    4.8643  -14.5927 O   0  0  0  0  0  0  0  0  0  0  0  0
    9.4412    2.7657  -13.5549 O   0  0  0  0  0  0  0  0  0  0  0  0
    9.6923    1.9142  -14.6881 C   0  0  0  0  0  0  0  0  0  0  0  0
    8.9333    0.7213  -14.4600 C   0  0  0  0  0  0  0  0  0  0  0  0
   11.1595    1.7840  -14.8675 C   0  0  0  0  0  0  0  0  0  0  0  0
   13.3318    7.8002  -12.4834 O   0  0  0  0  0  0  0  0  0  0  0  0
  1  2  1  0  0  0  0
  2  3  1  0  0  0  0
  2  4  1  1  0  0  0
  2  5  1  0  0  0  0
  3  9  1  0  0  0  0
  3 10  1  6  0  0  0
  5  6  1  1  0  0  0
  5  7  1  0  0  0  0
  5  8  1  0  0  0  0
  8 11  1  0  0  0  0
  9 11  1  0  0  0  0
  9 12  1  6  0  0  0
 12 13  1  0  0  0  0
 12 14  2  0  0  0  0
 13 15  1  0  0  0  0
 13 16  2  0  0  0  0
 14 17  1  0  0  0  0
 15 20  2  0  0  0  0
 16 17  1  0  0  0  0
 16 18  1  0  0  0  0
 18 19  2  0  0  0  0
 18 22  1  0  0  0  0
 19 20  1  0  0  0  0
 20 21  1  0  0  0  0
 21 23  1  0  0  0  0
 21 34  2  0  0  0  0
 22 24  1  0  0  0  0
 22 25  2  0  0  0  0
 24 26  1  0  0  0  0
 24 27  1  0  0  0  0
 26 29  2  0  0  0  0
 26 30  1  0  0  0  0
 27 28  1  0  0  0  0
 30 31  1  0  0  0  0
 31 32  1  0  0  0  0
 31 33  1  0  0  0  0
M  END
$$$$

 OpenBabel10082411353D

 34 40  0  0  0  0  0  0  0  0999 V2000
   13.1862    9.4584   -4.4987 C   0  0  0  0  0  0  0  0  0  0  0  0
   12.1466    8.8379   -3.9099 C   0  0  0  0  0  0  0  0  0  0  0  0
   12.9882    9.7409   -5.8618 C   0  0  0  0  0  0  0  0  0  0  0  0
   11.9761    9.3177   -6.5889 C   0  0  0  0  0  0  0  0  0  0  0  0
   10.9346    8.5066   -5.9096 C   0  0  0  0  0  0  0  0  0  0  0  0
   12.2569    8.5495   -2.4516 C   0  0  0  0  0  0  0  0  0  0  0  0
   11.0697    8.2577   -4.5299 C   0  0  0  0  0  0  0  0  0  0  0  0
   11.7350    9.5912   -7.9371 O   0  0  0  0  0  0  0  0  0  0  0  0
    9.7397    8.0780   -6.6393 C   0  0  0  0  0  0  0  0  0  0  0  0
   10.8649    8.8162   -8.5483 C   0  0  2  0  0  0  0  0  0  0  0  0
    9.2400    6.9866   -6.2549 O   0  0  0  0  0  0  0  0  0  0  0  0
   10.8576    9.1019   -9.9991 C   0  0  0  0  0  0  0  0  0  0  0  0
   11.8034    8.3801  -10.7004 C   0  0  0  0  0  0  0  0  0  0  0  0
    9.8033    8.2783   -8.0085 N   0  0  0  0  0  0  0  0  0  0  0  0
   11.4502    7.6515  -11.8595 C   0  0  0  0  0  0  0  0  0  0  0  0
   10.3061    7.2417  -12.2192 C   0  0  0  0  0  0  0  0  0  0  0  0
   12.5619    7.1376  -12.7423 C   0  0  0  0  0  0  0  0  0  0  0  0
    9.9519    6.4550  -13.3394 C   0  0  0  0  0  0  0  0  0  0  0  0
   12.3234    6.3860  -13.8374 C   0  0  0  0  0  0  0  0  0  0  0  0
   11.0086    6.0227  -14.1262 C   0  0  0  0  0  0  0  0  0  0  0  0
   10.7528    5.1903  -15.3140 C   0  0  0  0  0  0  0  0  0  0  0  0
   10.7272    3.7455  -15.1287 N   0  0  0  0  0  0  0  0  0  0  0  0
    9.8835    3.1820  -14.4607 C   0  0  0  0  0  0  0  0  0  0  0  0
    9.9418    1.8005  -14.3797 N   0  0  0  0  0  0  0  0  0  0  0  0
    8.5108    3.6485  -13.9676 C   0  0  0  0  0  0  0  0  0  0  0  0
    7.4839    2.7202  -13.6392 C   0  0  0  0  0  0  0  0  0  0  0  0
   11.1594    1.4102  -15.0263 O   0  0  0  0  0  0  0  0  0  0  0  0
   11.5806    2.7148  -15.4973 C   0  0  0  0  0  0  0  0  0  0  0  0
    8.1482    4.9455  -13.8318 C   0  0  2  0  0  0  0  0  0  0  0  0
    8.5688    6.1536  -13.5560 C   0  0  0  0  0  0  0  0  0  0  0  0
    7.6851    7.1904  -13.3092 C   0  0  0  0  0  0  0  0  0  0  0  0
    6.2526    6.5780  -13.2519 C   0  0  0  0  0  0  0  0  0  0  0  0
    6.5353    5.0056  -13.1591 C   0  0  1  0  0  0  0  0  0  0  0  0
    6.2076    3.6685  -13.2234 C   0  0  0  0  0  0  0  0  0  0  0  0
  1  2  1  0  0  0  0
  1  3  2  0  0  0  0
  2  6  1  0  0  0  0
  2  7  2  0  0  0  0
  3  4  1  0  0  0  0
  4  5  2  0  0  0  0
  4  8  1  0  0  0  0
  5  7  1  0  0  0  0
  5  9  1  0  0  0  0
  8 10  1  0  0  0  0
  9 11  2  0  0  0  0
  9 14  1  0  0  0  0
 10 12  1  6  0  0  0
 10 14  1  0  0  0  0
 12 13  1  0  0  0  0
 13 15  1  0  0  0  0
 15 16  2  0  0  0  0
 15 17  1  0  0  0  0
 16 18  1  0  0  0  0
 17 19  2  0  0  0  0
 18 20  2  0  0  0  0
 18 30  1  0  0  0  0
 19 20  1  0  0  0  0
 20 21  1  0  0  0  0
 21 22  1  0  0  0  0
 22 23  1  0  0  0  0
 22 28  1  0  0  0  0
 23 24  2  0  0  0  0
 23 25  1  0  0  0  0
 24 27  1  0  0  0  0
 25 26  2  0  0  0  0
 26 34  1  0  0  0  0
 27 28  1  0  0  0  0
 29 25  1  1  0  0  0
 29 30  1  0  0  0  0
 29 33  1  0  0  0  0
 30 31  2  0  0  0  0
 31 32  1  0  0  0  0
 33 32  1  6  0  0  0
 33 34  1  0  0  0  0
M  END
$$$$

 OpenBabel10082411353D

 34 37  0  0  0  0  0  0  0  0999 V2000
   10.9951    9.9694   -4.9946 C   0  0  0  0  0  0  0  0  0  0  0  0
   11.7938    9.3762   -4.2463 C   0  0  0  0  0  0  0  0  0  0  0  0
   10.8673    9.4548   -6.4276 C   0  0  0  0  0  0  0  0  0  0  0  0
   11.6576    7.9117   -4.2944 C   0  0  0  0  0  0  0  0  0  0  0  0
   10.5498    8.0257   -6.4521 C   0  0  0  0  0  0  0  0  0  0  0  0
   11.4715    7.2752   -5.6166 C   0  0  0  0  0  0  0  0  0  0  0  0
   10.5840    7.5390   -7.9254 C   0  0  0  0  0  0  0  0  0  0  0  0
   11.4612    8.1494   -8.8322 C   0  0  0  0  0  0  0  0  0  0  0  0
   12.6250    8.6294   -8.4338 O   0  0  0  0  0  0  0  0  0  0  0  0
   11.0835    8.4395  -10.0740 O   0  0  0  0  0  0  0  0  0  0  0  0
   11.2938    7.5612  -11.0769 C   0  0  0  0  0  0  0  0  0  0  0  0
   10.1547    7.2525  -11.9492 C   0  0  0  0  0  0  0  0  0  0  0  0
   10.4293    6.5622  -13.1348 C   0  0  0  0  0  0  0  0  0  0  0  0
   11.7295    6.4217  -13.6243 C   0  0  0  0  0  0  0  0  0  0  0  0
    8.8120    7.3918  -11.4649 C   0  0  0  0  0  0  0  0  0  0  0  0
   12.5351    7.8894  -11.6869 C   0  0  0  0  0  0  0  0  0  0  0  0
   13.5778    8.4243  -10.9673 O   0  0  0  0  0  0  0  0  0  0  0  0
    7.7211    7.1761  -12.4323 C   0  0  0  0  0  0  0  0  0  0  0  0
   12.8103    7.0723  -12.8897 C   0  0  0  0  0  0  0  0  0  0  0  0
    7.0543    5.9667  -12.3369 C   0  0  0  0  0  0  0  0  0  0  0  0
    7.2392    8.1844  -13.1320 C   0  0  0  0  0  0  0  0  0  0  0  0
    6.6882    5.3848  -13.5016 O   0  0  0  0  0  0  0  0  0  0  0  0
    6.5103    5.5543  -11.3870 O   0  0  0  0  0  0  0  0  0  0  0  0
    6.2207    3.9777  -13.2572 C   0  0  0  0  0  0  0  0  0  0  0  0
   12.0582    5.6070  -14.9443 C   0  0  0  0  0  0  0  0  0  0  0  0
   11.9052    4.2756  -14.8803 C   0  0  0  0  0  0  0  0  0  0  0  0
   10.9395    3.6103  -15.4919 N   0  0  0  0  0  0  0  0  0  0  0  0
   12.5389    3.7388  -14.0413 O   0  0  0  0  0  0  0  0  0  0  0  0
    9.9932    4.3098  -16.2783 C   0  0  0  0  0  0  0  0  0  0  0  0
   10.5627    2.1949  -15.1051 C   0  0  0  0  0  0  0  0  0  0  0  0
    9.2333    1.9322  -14.7887 C   0  0  0  0  0  0  0  0  0  0  0  0
    8.3151    3.0850  -15.3143 C   0  0  0  0  0  0  0  0  0  0  0  0
    8.6446    4.2120  -15.6202 C   0  0  0  0  0  0  0  0  0  0  0  0
    6.9948    2.9096  -14.1053 C   0  0  0  0  0  0  0  0  0  0  0  0
  1  2  1  0  0  0  0
  1  3  1  0  0  0  0
  2  4  1  0  0  0  0
  3  5  1  0  0  0  0
  4  6  1  0  0  0  0
  5  6  1  0  0  0  0
  5  7  1  0  0  0  0
  7  8  1  0  0  0  0
  8  9  2  0  0  0  0
  8 10  1  0  0  0  0
 10 11  1  0  0  0  0
 11 12  1  0  0  0  0
 11 16  2  0  0  0  0
 12 13  2  0  0  0  0
 12 15  1  0  0  0  0
 13 14  1  0  0  0  0
 14 19  2  0  0  0  0
 14 25  1  0  0  0  0
 15 18  1  0  0  0  0
 16 17  1  0  0  0  0
 16 19  1  0  0  0  0
 18 20  1  0  0  0  0
 18 21  2  0  0  0  0
 20 22  1  0  0  0  0
 20 23  2  0  0  0  0
 22 24  1  0  0  0  0
 24 34  1  0  0  0  0
 25 26  1  0  0  0  0
 26 27  1  0  0  0  0
 26 28  2  0  0  0  0
 27 29  1  0  0  0  0
 27 30  1  0  0  0  0
 29 33  1  0  0  0  0
 30 31  1  0  0  0  0
 31 32  1  0  0  0  0
 32 33  1  0  0  0  0
 32 34  1  0  0  0  0
M  END
$$$$

 OpenBabel10082411353D

 34 38  0  0  0  0  0  0  0  0999 V2000
   11.7527    6.7167   -4.7267 C   0  0  0  0  0  0  0  0  0  0  0  0
   11.3604    7.8330   -5.1958 C   0  0  0  0  0  0  0  0  0  0  0  0
   11.9716    9.1406   -4.8358 C   0  0  0  0  0  0  0  0  0  0  0  0
   12.8208    9.1898   -3.7754 C   0  0  0  0  0  0  0  0  0  0  0  0
   11.5618   10.3164   -5.5823 C   0  0  0  0  0  0  0  0  0  0  0  0
   10.2222    7.9560   -6.3260 C   0  0  1  0  0  0  0  0  0  0  0  0
   12.5813    6.7718   -3.5084 C   0  0  0  0  0  0  0  0  0  0  0  0
   13.1322    8.0255   -3.1079 C   0  0  0  0  0  0  0  0  0  0  0  0
   10.5013    9.0080   -7.2834 C   0  0  0  0  0  0  0  0  0  0  0  0
   11.0312   10.2433   -6.8991 C   0  0  0  0  0  0  0  0  0  0  0  0
    9.7464    6.6848   -6.7683 C   0  0  0  0  0  0  0  0  0  0  0  0
    9.1254    6.8396   -8.1536 C   0  0  0  0  0  0  0  0  0  0  0  0
   10.0681    7.4827   -8.9648 N   0  0  0  0  0  0  0  0  0  0  0  0
   10.1951    8.8602   -8.7205 C   0  0  0  0  0  0  0  0  0  0  0  0
    9.9367    7.2258  -10.4555 C   0  0  0  0  0  0  0  0  0  0  0  0
   10.9645    7.5893  -11.2033 C   0  0  0  0  0  0  0  0  0  0  0  0
    8.7287    7.0211  -11.0482 C   0  0  0  0  0  0  0  0  0  0  0  0
    8.6190    6.8246  -12.4014 C   0  0  0  0  0  0  0  0  0  0  0  0
    7.3283    6.3600  -13.0063 C   0  0  0  0  0  0  0  0  0  0  0  0
    9.6941    6.8388  -13.0484 C   0  0  0  0  0  0  0  0  0  0  0  0
    6.2744    6.7752  -12.3957 F   0  0  0  0  0  0  0  0  0  0  0  0
    6.9788    4.8827  -12.8291 C   0  0  0  0  0  0  0  0  0  0  0  0
   12.2828    7.8960  -10.6504 O   0  0  0  0  0  0  0  0  0  0  0  0
   10.9769    7.1640  -12.5420 C   0  0  0  0  0  0  0  0  0  0  0  0
    7.4812    3.9607  -13.5548 C   0  0  0  0  0  0  0  0  0  0  0  0
    6.2751    4.3540  -11.7448 C   0  0  0  0  0  0  0  0  0  0  0  0
    8.3236    4.2924  -14.7844 F   0  0  0  0  0  0  0  0  0  0  0  0
   12.0773    7.2422  -13.3726 C   0  0  0  0  0  0  0  0  0  0  0  0
    5.9210    3.1009  -11.7035 C   0  0  0  0  0  0  0  0  0  0  0  0
    6.4478    2.1633  -12.8239 C   0  0  0  0  0  0  0  0  0  0  0  0
    7.5353    6.7951  -14.1585 F   0  0  0  0  0  0  0  0  0  0  0  0
    7.2006    2.6422  -13.6925 C   0  0  0  0  0  0  0  0  0  0  0  0
   12.6247    6.3513  -13.9422 O   0  0  0  0  0  0  0  0  0  0  0  0
   12.9035    8.3064  -13.3050 O   0  0  0  0  0  0  0  0  0  0  0  0
  1  2  1  0  0  0  0
  1  7  2  0  0  0  0
  2  3  2  0  0  0  0
  2  6  1  0  0  0  0
  3  4  1  0  0  0  0
  3  5  1  0  0  0  0
  4  8  2  0  0  0  0
  5 10  1  0  0  0  0
  6  9  1  0  0  0  0
  6 11  1  6  0  0  0
  7  8  1  0  0  0  0
  9 10  2  0  0  0  0
  9 14  1  0  0  0  0
 11 12  1  0  0  0  0
 12 13  1  0  0  0  0
 13 14  1  0  0  0  0
 13 15  1  0  0  0  0
 15 16  1  0  0  0  0
 15 17  2  0  0  0  0
 16 23  1  0  0  0  0
 16 24  2  0  0  0  0
 17 18  1  0  0  0  0
 18 19  1  0  0  0  0
 18 20  2  0  0  0  0
 19 21  1  0  0  0  0
 19 22  1  0  0  0  0
 19 31  1  0  0  0  0
 20 24  1  0  0  0  0
 22 25  2  0  0  0  0
 22 26  1  0  0  0  0
 24 28  1  0  0  0  0
 25 27  1  0  0  0  0
 25 32  1  0  0  0  0
 26 29  2  0  0  0  0
 28 33  2  0  0  0  0
 28 34  1  0  0  0  0
 29 30  1  0  0  0  0
 30 32  2  0  0  0  0
M  END
$$$$

 OpenBabel10082411353D

 23 25  0  0  0  0  0  0  0  0999 V2000
   12.8881    8.7759   -3.5681 C   0  0  0  0  0  0  0  0  0  0  0  0
   11.9416    9.4732   -4.1220 C   0  0  0  0  0  0  0  0  0  0  0  0
   12.3556    7.6012   -2.6527 C   0  0  0  0  0  0  0  0  0  0  0  0
   11.8805    9.3400   -5.6557 C   0  0  0  0  0  0  0  0  0  0  0  0
   11.7716    6.5414   -3.3821 C   0  0  0  0  0  0  0  0  0  0  0  0
   10.8523    8.6585   -6.3310 C   0  0  0  0  0  0  0  0  0  0  0  0
   11.1142    8.2520   -7.7289 C   0  0  0  0  0  0  0  0  0  0  0  0
   10.0478    7.6568   -8.4887 C   0  0  0  0  0  0  0  0  0  0  0  0
   12.3648    8.4339   -8.3703 C   0  0  0  0  0  0  0  0  0  0  0  0
   12.6142    8.1352   -9.7322 C   0  0  0  0  0  0  0  0  0  0  0  0
   10.2852    7.3833   -9.9138 C   0  0  0  0  0  0  0  0  0  0  0  0
   11.5161    7.5808  -10.4860 C   0  0  0  0  0  0  0  0  0  0  0  0
   11.6641    7.2285  -11.8174 O   0  0  0  0  0  0  0  0  0  0  0  0
   10.8624    6.4419  -12.4395 C   0  0  0  0  0  0  0  0  0  0  0  0
   11.2693    5.8267  -13.4966 C   0  0  0  0  0  0  0  0  0  0  0  0
   10.3973    4.9870  -14.3057 C   0  0  0  0  0  0  0  0  0  0  0  0
    9.1338    4.5860  -13.7335 C   0  0  0  0  0  0  0  0  0  0  0  0
    8.3197    3.6632  -14.4500 O   0  0  0  0  0  0  0  0  0  0  0  0
    9.4187    5.9856  -12.0936 C   0  0  0  0  0  0  0  0  0  0  0  0
   10.9783    4.1149  -15.6442 Cl  0  0  0  0  0  0  0  0  0  0  0  0
    9.1865    6.9421  -10.7324 C   0  0  0  0  0  0  0  0  0  0  0  0
    7.3725    3.0169  -13.7360 C   0  0  0  0  0  0  0  0  0  0  0  0
    8.7013    5.3037  -12.6408 C   0  0  0  0  0  0  0  0  0  0  0  0
  1  2  1  0  0  0  0
  1  3  1  0  0  0  0
  2  4  1  0  0  0  0
  3  5  1  0  0  0  0
  4  6  1  0  0  0  0
  6  7  1  0  0  0  0
  7  8  1  0  0  0  0
  7  9  2  0  0  0  0
  8 11  2  0  0  0  0
  9 10  1  0  0  0  0
 10 12  2  0  0  0  0
 11 12  1  0  0  0  0
 11 21  1  0  0  0  0
 12 13  1  0  0  0  0
 13 14  1  0  0  0  0
 14 15  2  0  0  0  0
 14 19  1  0  0  0  0
 15 16  1  0  0  0  0
 16 17  2  0  0  0  0
 16 20  1  0  0  0  0
 17 18  1  0  0  0  0
 17 23  1  0  0  0  0
 18 22  1  0  0  0  0
 19 21  1  0  0  0  0
 19 23  2  0  0  0  0
M  END
$$$$

 OpenBabel10082411353D

 34 39  0  0  0  0  0  0  0  0999 V2000
   13.1862    9.4584   -4.4987 C   0  0  0  0  0  0  0  0  0  0  0  0
   12.1466    8.8379   -3.9099 C   0  0  0  0  0  0  0  0  0  0  0  0
   12.9882    9.7409   -5.8618 C   0  0  0  0  0  0  0  0  0  0  0  0
   11.9761    9.3177   -6.5889 C   0  0  0  0  0  0  0  0  0  0  0  0
   10.9346    8.5066   -5.9096 C   0  0  0  0  0  0  0  0  0  0  0  0
   12.2569    8.5495   -2.4516 C   0  0  0  0  0  0  0  0  0  0  0  0
   11.0697    8.2577   -4.5299 C   0  0  0  0  0  0  0  0  0  0  0  0
   11.7350    9.5912   -7.9371 O   0  0  0  0  0  0  0  0  0  0  0  0
    9.7397    8.0780   -6.6393 C   0  0  0  0  0  0  0  0  0  0  0  0
   10.8649    8.8162   -8.5483 C   0  0  2  0  0  0  0  0  0  0  0  0
    9.2400    6.9866   -6.2549 O   0  0  0  0  0  0  0  0  0  0  0  0
   10.8576    9.1019   -9.9991 C   0  0  0  0  0  0  0  0  0  0  0  0
   11.8034    8.3801  -10.7004 C   0  0  0  0  0  0  0  0  0  0  0  0
    9.8033    8.2783   -8.0085 N   0  0  0  0  0  0  0  0  0  0  0  0
   11.4502    7.6515  -11.8595 C   0  0  0  0  0  0  0  0  0  0  0  0
   10.3061    7.2417  -12.2192 C   0  0  0  0  0  0  0  0  0  0  0  0
   12.5619    7.1376  -12.7423 C   0  0  0  0  0  0  0  0  0  0  0  0
    9.9519    6.4550  -13.3394 C   0  0  0  0  0  0  0  0  0  0  0  0
   12.3234    6.3860  -13.8374 C   0  0  0  0  0  0  0  0  0  0  0  0
   11.0086    6.0227  -14.1262 C   0  0  0  0  0  0  0  0  0  0  0  0
   10.7528    5.1903  -15.3140 C   0  0  0  0  0  0  0  0  0  0  0  0
   10.7272    3.7455  -15.1287 N   0  0  0  0  0  0  0  0  0  0  0  0
    9.8835    3.1820  -14.4607 C   0  0  0  0  0  0  0  0  0  0  0  0
    9.9418    1.8005  -14.3797 N   0  0  0  0  0  0  0  0  0  0  0  0
    8.5108    3.6485  -13.9676 C   0  0  0  0  0  0  0  0  0  0  0  0
    7.4839    2.7202  -13.6392 C   0  0  0  0  0  0  0  0  0  0  0  0
   11.1594    1.4102  -15.0263 O   0  0  0  0  0  0  0  0  0  0  0  0
    6.2552    3.4010  -13.0220 C   0  0  0  0  0  0  0  0  0  0  0  0
    8.1772    4.9396  -13.6310 O   0  0  0  0  0  0  0  0  0  0  0  0
    6.6820    4.5200  -12.3963 C   0  0  0  0  0  0  0  0  0  0  0  0
    7.6868    5.1806  -12.5256 C   0  0  0  0  0  0  0  0  0  0  0  0
   11.5421    2.7548  -15.4853 C   0  0  0  0  0  0  0  0  0  0  0  0
    7.9623    6.6842  -12.2201 C   0  0  0  0  0  0  0  0  0  0  0  0
    8.9927    7.5596  -11.6693 C   0  0  0  0  0  0  0  0  0  0  0  0
  1  2  1  0  0  0  0
  1  3  2  0  0  0  0
  2  6  1  0  0  0  0
  2  7  2  0  0  0  0
  3  4  1  0  0  0  0
  4  5  2  0  0  0  0
  4  8  1  0  0  0  0
  5  7  1  0  0  0  0
  5  9  1  0  0  0  0
  8 10  1  0  0  0  0
  9 11  2  0  0  0  0
  9 14  1  0  0  0  0
 10 12  1  6  0  0  0
 10 14  1  0  0  0  0
 12 13  1  0  0  0  0
 13 15  1  0  0  0  0
 15 16  2  0  0  0  0
 15 17  1  0  0  0  0
 16 18  1  0  0  0  0
 16 34  1  0  0  0  0
 17 19  2  0  0  0  0
 18 20  2  0  0  0  0
 19 20  1  0  0  0  0
 20 21  1  0  0  0  0
 21 22  1  0  0  0  0
 22 23  1  0  0  0  0
 22 32  1  0  0  0  0
 23 24  2  0  0  0  0
 23 25  1  0  0  0  0
 24 27  1  0  0  0  0
 25 26  2  0  0  0  0
 25 29  1  0  0  0  0
 26 28  1  0  0  0  0
 27 32  1  0  0  0  0
 28 30  1  0  0  0  0
 29 31  1  0  0  0  0
 30 31  2  0  0  0  0
 31 33  1  0  0  0  0
 33 34  1  0  0  0  0
M  END
$$$$

 OpenBabel10082411353D

 34 40  0  0  0  0  0  0  0  0999 V2000
   13.1862    9.4584   -4.4987 C   0  0  0  0  0  0  0  0  0  0  0  0
   12.1466    8.8379   -3.9099 C   0  0  0  0  0  0  0  0  0  0  0  0
   12.9882    9.7409   -5.8618 C   0  0  0  0  0  0  0  0  0  0  0  0
   11.9761    9.3177   -6.5889 C   0  0  0  0  0  0  0  0  0  0  0  0
   10.9346    8.5066   -5.9096 C   0  0  0  0  0  0  0  0  0  0  0  0
   12.2569    8.5495   -2.4516 C   0  0  0  0  0  0  0  0  0  0  0  0
   11.0697    8.2577   -4.5299 C   0  0  0  0  0  0  0  0  0  0  0  0
   11.7350    9.5912   -7.9371 O   0  0  0  0  0  0  0  0  0  0  0  0
    9.7397    8.0780   -6.6393 C   0  0  0  0  0  0  0  0  0  0  0  0
   10.8649    8.8162   -8.5483 C   0  0  2  0  0  0  0  0  0  0  0  0
    9.2400    6.9866   -6.2549 O   0  0  0  0  0  0  0  0  0  0  0  0
   10.8576    9.1019   -9.9991 C   0  0  0  0  0  0  0  0  0  0  0  0
   11.8034    8.3801  -10.7004 C   0  0  0  0  0  0  0  0  0  0  0  0
    9.8033    8.2783   -8.0085 N   0  0  0  0  0  0  0  0  0  0  0  0
   11.4502    7.6515  -11.8595 C   0  0  0  0  0  0  0  0  0  0  0  0
   10.3061    7.2417  -12.2192 C   0  0  0  0  0  0  0  0  0  0  0  0
   12.5619    7.1376  -12.7423 C   0  0  0  0  0  0  0  0  0  0  0  0
    9.9519    6.4550  -13.3394 C   0  0  0  0  0  0  0  0  0  0  0  0
   12.3234    6.3860  -13.8374 C   0  0  0  0  0  0  0  0  0  0  0  0
   11.0086    6.0227  -14.1262 C   0  0  0  0  0  0  0  0  0  0  0  0
   10.7528    5.1903  -15.3140 C   0  0  0  0  0  0  0  0  0  0  0  0
   10.7272    3.7455  -15.1287 N   0  0  0  0  0  0  0  0  0  0  0  0
    9.8835    3.1820  -14.4607 C   0  0  0  0  0  0  0  0  0  0  0  0
    9.9418    1.8005  -14.3797 N   0  0  0  0  0  0  0  0  0  0  0  0
    8.5108    3.6485  -13.9676 C   0  0  0  0  0  0  0  0  0  0  0  0
    7.4839    2.7202  -13.6392 C   0  0  0  0  0  0  0  0  0  0  0  0
   11.1594    1.4102  -15.0263 O   0  0  0  0  0  0  0  0  0  0  0  0
   11.5806    2.7148  -15.4973 C   0  0  0  0  0  0  0  0  0  0  0  0
    8.1482    4.9455  -13.8318 C   0  0  2  0  0  0  0  0  0  0  0  0
    8.5688    6.1536  -13.5560 C   0  0  0  0  0  0  0  0  0  0  0  0
    7.6851    7.1904  -13.3092 C   0  0  0  0  0  0  0  0  0  0  0  0
    6.2526    6.5780  -13.2519 C   0  0  0  0  0  0  0  0  0  0  0  0
    6.6962    4.9443  -13.6142 N   0  0  2  0  0  0  0  0  0  0  0  0
    6.2597    3.4656  -13.1473 C   0  0  0  0  0  0  0  0  0  0  0  0
  1  2  1  0  0  0  0
  1  3  2  0  0  0  0
  2  6  1  0  0  0  0
  2  7  2  0  0  0  0
  3  4  1  0  0  0  0
  4  5  2  0  0  0  0
  4  8  1  0  0  0  0
  5  7  1  0  0  0  0
  5  9  1  0  0  0  0
  8 10  1  0  0  0  0
  9 11  2  0  0  0  0
  9 14  1  0  0  0  0
 10 12  1  6  0  0  0
 10 14  1  0  0  0  0
 12 13  1  0  0  0  0
 13 15  1  0  0  0  0
 15 16  2  0  0  0  0
 15 17  1  0  0  0  0
 16 18  1  0  0  0  0
 17 19  2  0  0  0  0
 18 20  2  0  0  0  0
 18 30  1  0  0  0  0
 19 20  1  0  0  0  0
 20 21  1  0  0  0  0
 21 22  1  0  0  0  0
 22 23  1  0  0  0  0
 22 28  1  0  0  0  0
 23 24  2  0  0  0  0
 23 25  1  0  0  0  0
 24 27  1  0  0  0  0
 25 26  2  0  0  0  0
 26 34  1  0  0  0  0
 27 28  1  0  0  0  0
 29 25  1  1  0  0  0
 29 30  1  0  0  0  0
 29 33  1  0  0  0  0
 30 31  2  0  0  0  0
 31 32  1  0  0  0  0
 33 32  1  1  0  0  0
 33 34  1  0  0  0  0
M  END
$$$$

 OpenBabel10082411353D

 34 39  0  0  0  0  0  0  0  0999 V2000
   12.8881    8.7759   -3.5681 C   0  0  0  0  0  0  0  0  0  0  0  0
   11.9416    9.4732   -4.1220 C   0  0  0  0  0  0  0  0  0  0  0  0
   12.3556    7.6012   -2.6527 C   0  0  0  0  0  0  0  0  0  0  0  0
   11.8805    9.3400   -5.6557 C   0  0  0  0  0  0  0  0  0  0  0  0
   11.7716    6.5414   -3.3821 C   0  0  0  0  0  0  0  0  0  0  0  0
   10.8523    8.6585   -6.3310 C   0  0  0  0  0  0  0  0  0  0  0  0
   11.1142    8.2520   -7.7289 C   0  0  0  0  0  0  0  0  0  0  0  0
   10.0478    7.6568   -8.4887 C   0  0  0  0  0  0  0  0  0  0  0  0
   12.3648    8.4339   -8.3703 C   0  0  0  0  0  0  0  0  0  0  0  0
   12.6142    8.1352   -9.7322 C   0  0  0  0  0  0  0  0  0  0  0  0
   10.2852    7.3833   -9.9138 C   0  0  0  0  0  0  0  0  0  0  0  0
   11.5161    7.5808  -10.4860 C   0  0  0  0  0  0  0  0  0  0  0  0
   11.6641    7.2285  -11.8174 O   0  0  0  0  0  0  0  0  0  0  0  0
   10.8624    6.4419  -12.4395 C   0  0  0  0  0  0  0  0  0  0  0  0
   11.2693    5.8267  -13.4966 C   0  0  0  0  0  0  0  0  0  0  0  0
    9.5259    6.2192  -11.9953 C   0  0  0  0  0  0  0  0  0  0  0  0
    9.2551    6.6732  -10.5921 C   0  0  2  0  0  0  0  0  0  0  0  0
    8.1388    7.5201  -10.6434 O   0  0  0  0  0  0  0  0  0  0  0  0
   12.6263    6.1828  -14.1606 C   0  0  0  0  0  0  0  0  0  0  0  0
    7.2614    7.1893  -11.7193 C   0  0  2  0  0  0  0  0  0  0  0  0
   12.6352    7.3184  -14.7782 C   0  0  0  0  0  0  0  0  0  0  0  0
    8.2277    6.2735  -12.5381 C   0  0  0  0  0  0  0  0  0  0  0  0
    7.7180    5.1928  -13.4230 C   0  0  0  0  0  0  0  0  0  0  0  0
    8.4439    4.2015  -13.9045 C   0  0  0  0  0  0  0  0  0  0  0  0
    6.9950    8.4483  -12.4502 C   0  0  0  0  0  0  0  0  0  0  0  0
    7.7472    3.2985  -14.8364 C   0  0  0  0  0  0  0  0  0  0  0  0
    9.0300    5.4319   -9.7786 C   0  0  0  0  0  0  0  0  0  0  0  0
    8.1705    1.9584  -14.6092 C   0  0  0  0  0  0  0  0  0  0  0  0
    9.3621    1.6865  -14.2893 C   0  0  0  0  0  0  0  0  0  0  0  0
    9.9085    4.0088  -13.8348 C   0  0  1  0  0  0  0  0  0  0  0  0
   10.3595    2.7608  -13.8533 C   0  0  0  0  0  0  0  0  0  0  0  0
   10.9962    4.6837  -14.2602 C   0  0  2  0  0  0  0  0  0  0  0  0
   11.8931    4.3817  -15.1603 C   0  0  0  0  0  0  0  0  0  0  0  0
   12.9519    5.2463  -15.1532 N   0  0  0  0  0  0  0  0  0  0  0  0
  1  2  1  0  0  0  0
  1  3  1  0  0  0  0
  2  4  1  0  0  0  0
  3  5  1  0  0  0  0
  4  6  1  0  0  0  0
  6  7  1  0  0  0  0
  7  8  1  0  0  0  0
  7  9  2  0  0  0  0
  8 11  2  0  0  0  0
  9 10  1  0  0  0  0
 10 12  2  0  0  0  0
 11 12  1  0  0  0  0
 11 17  1  0  0  0  0
 12 13  1  0  0  0  0
 13 14  1  0  0  0  0
 14 15  2  0  0  0  0
 14 16  1  0  0  0  0
 15 19  1  0  0  0  0
 15 32  1  0  0  0  0
 16 17  1  0  0  0  0
 16 22  2  0  0  0  0
 17 18  1  0  0  0  0
 17 27  1  1  0  0  0
 18 20  1  0  0  0  0
 19 21  2  0  0  0  0
 19 34  1  0  0  0  0
 20 22  1  0  0  0  0
 20 25  1  6  0  0  0
 22 23  1  0  0  0  0
 23 24  2  0  0  0  0
 24 26  1  0  0  0  0
 24 30  1  0  0  0  0
 26 28  2  0  0  0  0
 28 29  1  0  0  0  0
 29 31  2  0  0  0  0
 30 31  1  6  0  0  0
 30 32  1  0  0  0  0
 32 33  1  1  0  0  0
 33 34  2  0  0  0  0
M  END
$$$$

 OpenBabel10082411353D

 34 38  0  0  0  0  0  0  0  0999 V2000
   13.2485    9.2493   -6.3668 O   0  0  0  0  0  0  0  0  0  0  0  0
   12.3055    9.1779   -7.4488 C   0  0  1  0  0  0  0  0  0  0  0  0
   12.5005    8.1033   -8.2440 C   0  0  0  0  0  0  0  0  0  0  0  0
   11.7072    8.0925   -9.4886 C   0  0  0  0  0  0  0  0  0  0  0  0
   12.2659    7.9483  -10.6668 C   0  0  0  0  0  0  0  0  0  0  0  0
   10.2869    8.0426   -9.4299 C   0  0  0  0  0  0  0  0  0  0  0  0
   13.6482    8.0497  -10.9162 O   0  0  0  0  0  0  0  0  0  0  0  0
   11.5356    7.8148  -11.9199 C   0  0  0  0  0  0  0  0  0  0  0  0
   12.2597    7.6523  -13.1838 C   0  0  0  0  0  0  0  0  0  0  0  0
    9.5345    7.8388  -10.6476 C   0  0  0  0  0  0  0  0  0  0  0  0
   12.7796    8.4277  -13.7325 O   0  0  0  0  0  0  0  0  0  0  0  0
   10.1724    7.7406  -11.8577 C   0  0  0  0  0  0  0  0  0  0  0  0
   12.4765    6.3392  -13.7439 N   0  0  0  0  0  0  0  0  0  0  0  0
    9.2368    7.4770  -13.0161 C   0  0  1  0  0  0  0  0  0  0  0  0
    8.7686    6.0601  -13.0538 C   0  0  0  0  0  0  0  0  0  0  0  0
   11.7377    5.1496  -13.1887 C   0  0  0  0  0  0  0  0  0  0  0  0
   10.9893    9.0510   -6.5404 C   0  0  0  0  0  0  0  0  0  0  0  0
   11.2522    8.1647   -5.3854 C   0  0  2  0  0  0  0  0  0  0  0  0
    7.8881    5.4892  -12.2818 C   0  0  0  0  0  0  0  0  0  0  0  0
    8.1030    8.4511  -12.9051 C   0  0  0  0  0  0  0  0  0  0  0  0
   11.2726    4.1709  -14.3554 C   0  0  0  0  0  0  0  0  0  0  0  0
   12.7640    9.8841   -5.1669 C   0  0  0  0  0  0  0  0  0  0  0  0
   10.2020    7.3447   -4.8869 O   0  0  0  0  0  0  0  0  0  0  0  0
    9.2807    5.2234  -14.0940 C   0  0  0  0  0  0  0  0  0  0  0  0
    9.9511    4.1599  -14.4562 C   0  0  2  0  0  0  0  0  0  0  0  0
   11.8540    8.9171   -4.3609 C   0  0  0  0  0  0  0  0  0  0  0  0
    7.1691    4.3941  -12.4554 C   0  0  0  0  0  0  0  0  0  0  0  0
    9.5765    2.9107  -13.8673 C   0  0  0  0  0  0  0  0  0  0  0  0
    6.2523    3.9466  -11.4197 O   0  0  0  0  0  0  0  0  0  0  0  0
   10.0883    1.7765  -14.3393 O   0  0  0  0  0  0  0  0  0  0  0  0
    8.2391    2.5427  -13.4966 N   0  0  0  0  0  0  0  0  0  0  0  0
    7.2945    3.3364  -13.1320 C   0  0  1  0  0  0  0  0  0  0  0  0
    5.6087    2.9538  -12.0623 C   0  0  0  0  0  0  0  0  0  0  0  0
    6.2307    2.5998  -13.0275 C   0  0  0  0  0  0  0  0  0  0  0  0
  1  2  1  0  0  0  0
  1 22  1  0  0  0  0
  2  3  1  6  0  0  0
  2 17  1  0  0  0  0
  3  4  1  0  0  0  0
  4  5  1  0  0  0  0
  4  6  2  0  0  0  0
  5  7  1  0  0  0  0
  5  8  2  0  0  0  0
  6 10  1  0  0  0  0
  8  9  1  0  0  0  0
  8 12  1  0  0  0  0
  9 11  2  0  0  0  0
  9 13  1  0  0  0  0
 10 12  2  0  0  0  0
 12 14  1  0  0  0  0
 13 16  1  0  0  0  0
 14 15  1  0  0  0  0
 14 20  1  1  0  0  0
 15 19  1  0  0  0  0
 15 24  2  0  0  0  0
 16 21  1  0  0  0  0
 17 18  1  0  0  0  0
 18 23  1  1  0  0  0
 18 26  1  0  0  0  0
 19 27  2  0  0  0  0
 22 26  1  0  0  0  0
 24 25  1  0  0  0  0
 25 21  1  1  0  0  0
 25 28  1  0  0  0  0
 27 29  1  0  0  0  0
 27 32  1  0  0  0  0
 28 30  2  0  0  0  0
 28 31  1  0  0  0  0
 29 33  1  0  0  0  0
 31 32  1  0  0  0  0
 32 34  1  1  0  0  0
 33 34  1  0  0  0  0
M  END
$$$$

 OpenBabel10082411353D

 34 37  0  0  0  0  0  0  0  0999 V2000
   10.9951    9.9694   -4.9946 C   0  0  0  0  0  0  0  0  0  0  0  0
   11.7938    9.3762   -4.2463 C   0  0  0  0  0  0  0  0  0  0  0  0
   10.8673    9.4548   -6.4276 C   0  0  0  0  0  0  0  0  0  0  0  0
   11.6576    7.9117   -4.2944 C   0  0  0  0  0  0  0  0  0  0  0  0
   10.5498    8.0257   -6.4521 C   0  0  0  0  0  0  0  0  0  0  0  0
   11.4715    7.2752   -5.6166 C   0  0  0  0  0  0  0  0  0  0  0  0
   10.5840    7.5390   -7.9254 C   0  0  0  0  0  0  0  0  0  0  0  0
   11.4612    8.1494   -8.8322 C   0  0  0  0  0  0  0  0  0  0  0  0
   12.6250    8.6294   -8.4338 O   0  0  0  0  0  0  0  0  0  0  0  0
   11.0835    8.4395  -10.0740 O   0  0  0  0  0  0  0  0  0  0  0  0
   11.2938    7.5612  -11.0769 C   0  0  0  0  0  0  0  0  0  0  0  0
   10.1547    7.2525  -11.9492 C   0  0  0  0  0  0  0  0  0  0  0  0
   10.4293    6.5622  -13.1348 C   0  0  0  0  0  0  0  0  0  0  0  0
   11.7295    6.4217  -13.6243 C   0  0  0  0  0  0  0  0  0  0  0  0
    8.8120    7.3918  -11.4649 C   0  0  0  0  0  0  0  0  0  0  0  0
   12.5351    7.8894  -11.6869 C   0  0  0  0  0  0  0  0  0  0  0  0
   13.5778    8.4243  -10.9673 O   0  0  0  0  0  0  0  0  0  0  0  0
    7.7211    7.1761  -12.4323 C   0  0  0  0  0  0  0  0  0  0  0  0
   12.8103    7.0723  -12.8897 C   0  0  0  0  0  0  0  0  0  0  0  0
    7.0543    5.9667  -12.3369 C   0  0  0  0  0  0  0  0  0  0  0  0
    7.2392    8.1844  -13.1320 C   0  0  0  0  0  0  0  0  0  0  0  0
    6.6882    5.3848  -13.5016 O   0  0  0  0  0  0  0  0  0  0  0  0
    6.5103    5.5543  -11.3870 O   0  0  0  0  0  0  0  0  0  0  0  0
    7.4031    4.0506  -13.7852 C   0  0  2  0  0  0  0  0  0  0  0  0
    8.6811    3.9966  -14.1333 C   0  0  0  0  0  0  0  0  0  0  0  0
   12.0732    5.6649  -14.9357 C   0  0  0  0  0  0  0  0  0  0  0  0
    6.5833    2.9970  -14.2590 C   0  0  0  0  0  0  0  0  0  0  0  0
   12.1769    6.3888  -15.9096 O   0  0  0  0  0  0  0  0  0  0  0  0
   12.3719    4.4123  -14.9068 N   0  0  0  0  0  0  0  0  0  0  0  0
   11.7028    3.4947  -13.8962 C   0  0  0  0  0  0  0  0  0  0  0  0
   10.7688    2.3985  -14.5841 C   0  0  0  0  0  0  0  0  0  0  0  0
    9.3420    2.6877  -14.1220 C   0  0  0  0  0  0  0  0  0  0  0  0
    7.2293    1.8099  -14.1693 C   0  0  0  0  0  0  0  0  0  0  0  0
    8.5717    1.5815  -14.3441 C   0  0  0  0  0  0  0  0  0  0  0  0
  1  2  1  0  0  0  0
  1  3  1  0  0  0  0
  2  4  1  0  0  0  0
  3  5  1  0  0  0  0
  4  6  1  0  0  0  0
  5  6  1  0  0  0  0
  5  7  1  0  0  0  0
  7  8  1  0  0  0  0
  8  9  2  0  0  0  0
  8 10  1  0  0  0  0
 10 11  1  0  0  0  0
 11 12  1  0  0  0  0
 11 16  2  0  0  0  0
 12 13  2  0  0  0  0
 12 15  1  0  0  0  0
 13 14  1  0  0  0  0
 14 19  2  0  0  0  0
 14 26  1  0  0  0  0
 15 18  1  0  0  0  0
 16 17  1  0  0  0  0
 16 19  1  0  0  0  0
 18 20  1  0  0  0  0
 18 21  2  0  0  0  0
 20 22  1  0  0  0  0
 20 23  2  0  0  0  0
 22 24  1  0  0  0  0
 24 25  1  6  0  0  0
 24 27  1  0  0  0  0
 25 32  2  0  0  0  0
 26 28  2  0  0  0  0
 26 29  1  0  0  0  0
 27 33  2  0  0  0  0
 29 30  1  0  0  0  0
 30 31  1  0  0  0  0
 31 32  1  0  0  0  0
 32 34  1  0  0  0  0
 33 34  1  0  0  0  0
M  END
$$$$

 OpenBabel10082411353D

 34 37  0  0  0  0  0  0  0  0999 V2000
   11.6836    6.0105   -4.8831 F   0  0  0  0  0  0  0  0  0  0  0  0
   11.2562    7.2206   -5.0294 C   0  0  0  0  0  0  0  0  0  0  0  0
   12.0125    8.2418   -4.4408 C   0  0  0  0  0  0  0  0  0  0  0  0
   11.1918    7.2706   -6.5237 C   0  0  0  0  0  0  0  0  0  0  0  0
   11.6999    8.4488   -3.1704 F   0  0  0  0  0  0  0  0  0  0  0  0
    9.8648    7.0908   -4.5314 F   0  0  0  0  0  0  0  0  0  0  0  0
   11.6831    8.5291   -6.9682 C   0  0  0  0  0  0  0  0  0  0  0  0
   10.4785    6.5189   -7.4033 C   0  0  0  0  0  0  0  0  0  0  0  0
   11.6979    8.6661   -8.4760 C   0  0  0  0  0  0  0  0  0  0  0  0
   11.6248    9.5853   -5.0030 C   0  0  0  0  0  0  0  0  0  0  0  0
   11.8604    9.7907   -6.2903 O   0  0  0  0  0  0  0  0  0  0  0  0
   13.3557    8.1748   -4.5947 F   0  0  0  0  0  0  0  0  0  0  0  0
   10.5427    6.6061   -8.7190 C   0  0  0  0  0  0  0  0  0  0  0  0
   11.1158    7.7103   -9.2540 C   0  0  0  0  0  0  0  0  0  0  0  0
   11.3757    7.6656  -10.5293 N   0  0  0  0  0  0  0  0  0  0  0  0
   10.7153    7.7096  -11.5405 C   0  0  0  0  0  0  0  0  0  0  0  0
   11.2483    7.4711  -12.8542 C   0  0  0  0  0  0  0  0  0  0  0  0
    9.3980    7.7820  -11.5398 C   0  0  0  0  0  0  0  0  0  0  0  0
    8.6055    7.5889  -12.6525 C   0  0  0  0  0  0  0  0  0  0  0  0
   12.7508    7.3705  -13.0162 O   0  0  0  0  0  0  0  0  0  0  0  0
   10.5299    7.1831  -13.9856 C   0  0  0  0  0  0  0  0  0  0  0  0
    7.0533    7.7371  -12.5396 C   0  0  0  0  0  0  0  0  0  0  0  0
   11.2041    6.8490  -15.2304 C   0  0  0  0  0  0  0  0  0  0  0  0
   11.6393    5.5333  -15.3864 C   0  0  0  0  0  0  0  0  0  0  0  0
    9.1955    7.2935  -13.8301 C   0  0  0  0  0  0  0  0  0  0  0  0
   12.5294    5.1116  -16.1609 C   0  0  0  0  0  0  0  0  0  0  0  0
   11.2315    4.4703  -14.3200 C   0  0  0  0  0  0  0  0  0  0  0  0
   13.0194    6.0876  -17.1697 C   0  0  0  0  0  0  0  0  0  0  0  0
   12.9874    3.8316  -16.1456 C   0  0  0  0  0  0  0  0  0  0  0  0
   11.6452    3.1935  -14.5057 C   0  0  0  0  0  0  0  0  0  0  0  0
   12.4472    2.8780  -15.5240 C   0  0  0  0  0  0  0  0  0  0  0  0
    6.8122    8.8774  -12.2279 F   0  0  0  0  0  0  0  0  0  0  0  0
    6.4954    7.3178  -13.6168 F   0  0  0  0  0  0  0  0  0  0  0  0
    6.6649    6.8074  -11.5754 F   0  0  0  0  0  0  0  0  0  0  0  0
  1  2  1  0  0  0  0
  2  3  1  0  0  0  0
  2  4  1  0  0  0  0
  2  6  1  0  0  0  0
  3  5  1  0  0  0  0
  3 10  1  0  0  0  0
  3 12  1  0  0  0  0
  4  7  1  0  0  0  0
  4  8  2  0  0  0  0
  7  9  2  0  0  0  0
  7 11  1  0  0  0  0
  8 13  1  0  0  0  0
  9 14  1  0  0  0  0
 10 11  1  0  0  0  0
 13 14  2  0  0  0  0
 14 15  1  0  0  0  0
 15 16  1  0  0  0  0
 16 17  1  0  0  0  0
 16 18  2  0  0  0  0
 17 20  1  0  0  0  0
 17 21  2  0  0  0  0
 18 19  1  0  0  0  0
 19 22  1  0  0  0  0
 19 25  2  0  0  0  0
 21 23  1  0  0  0  0
 21 25  1  0  0  0  0
 22 32  1  0  0  0  0
 22 33  1  0  0  0  0
 22 34  1  0  0  0  0
 23 24  1  0  0  0  0
 24 26  2  0  0  0  0
 24 27  1  0  0  0  0
 26 28  1  0  0  0  0
 26 29  1  0  0  0  0
 27 30  2  0  0  0  0
 29 31  2  0  0  0  0
 30 31  1  0  0  0  0
M  END
$$$$

 OpenBabel10082411353D

 34 38  0  0  0  0  0  0  0  0999 V2000
   12.7863    7.8241  -14.2109 C   0  0  0  0  0  0  0  0  0  0  0  0
   12.4233    7.7158  -13.0289 C   0  0  0  0  0  0  0  0  0  0  0  0
   11.3194    6.8571  -12.8028 C   0  0  0  0  0  0  0  0  0  0  0  0
   12.3150    7.2021  -15.3582 C   0  0  0  0  0  0  0  0  0  0  0  0
   11.2733    6.2739  -15.1502 C   0  0  0  0  0  0  0  0  0  0  0  0
   10.8099    6.0126  -13.8600 C   0  0  0  0  0  0  0  0  0  0  0  0
    9.6782    5.1428  -13.6488 C   0  0  0  0  0  0  0  0  0  0  0  0
    8.5753    5.3880  -12.9589 N   0  0  0  0  0  0  0  0  0  0  0  0
    8.3226    6.7011  -12.3862 C   0  0  0  0  0  0  0  0  0  0  0  0
    9.8502    3.8578  -14.0728 C   0  0  0  0  0  0  0  0  0  0  0  0
    7.3864    7.4720  -13.0530 C   0  0  0  0  0  0  0  0  0  0  0  0
    6.2412    7.8486  -12.2599 C   0  0  0  0  0  0  0  0  0  0  0  0
    7.6425    4.4186  -12.7943 C   0  0  0  0  0  0  0  0  0  0  0  0
   11.0297    3.2482  -14.8053 C   0  0  0  0  0  0  0  0  0  0  0  0
    8.6802    2.8955  -13.7960 C   0  0  0  0  0  0  0  0  0  0  0  0
    8.8565    1.5917  -14.3582 O   0  0  0  0  0  0  0  0  0  0  0  0
    7.6903    3.2226  -13.1994 N   0  0  0  0  0  0  0  0  0  0  0  0
    6.5724    2.3444  -12.8378 C   0  0  0  0  0  0  0  0  0  0  0  0
    9.0225    7.0353  -11.3259 C   0  0  0  0  0  0  0  0  0  0  0  0
    6.4787    4.7532  -12.1787 O   0  0  0  0  0  0  0  0  0  0  0  0
   10.5868    7.0468  -11.5199 C   0  0  0  0  0  0  0  0  0  0  0  0
   11.2761    7.4007  -10.4131 C   0  0  0  0  0  0  0  0  0  0  0  0
    8.6862    7.4300   -9.9877 C   0  0  0  0  0  0  0  0  0  0  0  0
    9.4326    7.6744   -8.9657 C   0  0  0  0  0  0  0  0  0  0  0  0
   10.6794    7.6568   -9.1312 C   0  0  2  0  0  0  0  0  0  0  0  0
    8.9269    7.9839   -7.6612 C   0  0  1  0  0  0  0  0  0  0  0  0
   11.6309    7.9931   -8.0642 C   0  0  0  0  0  0  0  0  0  0  0  0
    8.3711    7.1403   -7.0209 O   0  0  0  0  0  0  0  0  0  0  0  0
    9.8765    8.4197   -6.5527 C   0  0  0  0  0  0  0  0  0  0  0  0
   11.3201    8.0150   -6.9666 C   0  0  0  0  0  0  0  0  0  0  0  0
   12.1339    7.7910   -5.7569 O   0  0  0  0  0  0  0  0  0  0  0  0
   12.5298    8.8436   -4.9181 C   0  0  0  0  0  0  0  0  0  0  0  0
   12.4289    8.5765   -3.5344 C   0  0  0  0  0  0  0  0  0  0  0  0
   12.1942    7.1669   -3.3453 C   0  0  0  0  0  0  0  0  0  0  0  0
  1  2  2  0  0  0  0
  1  4  1  0  0  0  0
  2  3  1  0  0  0  0
  3  6  2  0  0  0  0
  3 21  1  0  0  0  0
  4  5  2  0  0  0  0
  5  6  1  0  0  0  0
  6  7  1  0  0  0  0
  7  8  1  0  0  0  0
  7 10  2  0  0  0  0
  8  9  1  0  0  0  0
  8 13  1  0  0  0  0
  9 11  1  0  0  0  0
  9 19  2  0  0  0  0
 10 14  1  0  0  0  0
 10 15  1  0  0  0  0
 11 12  1  0  0  0  0
 13 17  1  0  0  0  0
 13 20  2  0  0  0  0
 15 16  2  0  0  0  0
 15 17  1  0  0  0  0
 17 18  1  0  0  0  0
 19 21  1  0  0  0  0
 19 23  1  0  0  0  0
 21 22  2  0  0  0  0
 23 24  2  0  0  0  0
 24 25  1  0  0  0  0
 24 26  1  0  0  0  0
 25 22  1  6  0  0  0
 25 27  1  0  0  0  0
 26 28  1  1  0  0  0
 26 29  1  0  0  0  0
 27 30  2  0  0  0  0
 29 30  1  0  0  0  0
 30 31  1  0  0  0  0
 31 32  1  0  0  0  0
 32 33  1  0  0  0  0
 33 34  1  0  0  0  0
M  END
$$$$

 OpenBabel10082411353D

 34 39  0  0  0  0  0  0  0  0999 V2000
   12.8881    8.7759   -3.5681 C   0  0  0  0  0  0  0  0  0  0  0  0
   11.9416    9.4732   -4.1220 C   0  0  0  0  0  0  0  0  0  0  0  0
   12.1782    9.3707   -5.6407 C   0  0  0  0  0  0  0  0  0  0  0  0
   11.3825    8.3447   -6.3966 C   0  0  0  0  0  0  0  0  0  0  0  0
   11.8188    8.0044   -7.6822 C   0  0  0  0  0  0  0  0  0  0  0  0
   10.3120    7.6600   -5.7120 C   0  0  0  0  0  0  0  0  0  0  0  0
   10.8678    7.0723   -8.2897 C   0  0  0  0  0  0  0  0  0  0  0  0
    9.5717    6.7245   -6.3809 C   0  0  0  0  0  0  0  0  0  0  0  0
    9.8820    6.4468   -7.7081 C   0  0  0  0  0  0  0  0  0  0  0  0
   11.2611    6.6953   -9.7105 C   0  0  1  0  0  0  0  0  0  0  0  0
   10.0425    6.5460  -10.5971 C   0  0  0  0  0  0  0  0  0  0  0  0
   11.8062    7.8130  -10.4883 C   0  0  0  0  0  0  0  0  0  0  0  0
    8.8746    5.5265   -8.4149 C   0  0  0  0  0  0  0  0  0  0  0  0
   13.1546    8.1022  -10.4049 O   0  0  0  0  0  0  0  0  0  0  0  0
   10.3114    6.7627  -11.8786 C   0  0  0  0  0  0  0  0  0  0  0  0
   11.3906    7.6694  -11.8036 N   0  0  0  0  0  0  0  0  0  0  0  0
   11.9779    8.2398  -13.0316 C   0  0  0  0  0  0  0  0  0  0  0  0
    8.8154    6.0162   -9.9613 C   0  0  0  0  0  0  0  0  0  0  0  0
    9.6102    6.3636  -13.0859 C   0  0  0  0  0  0  0  0  0  0  0  0
   11.8804    7.4718  -14.1937 C   0  0  0  0  0  0  0  0  0  0  0  0
   10.7017    6.3981  -14.2482 C   0  0  0  0  0  0  0  0  0  0  0  0
   10.3813    5.8427  -15.4547 C   0  0  0  0  0  0  0  0  0  0  0  0
    9.2579    5.0507  -15.6184 C   0  0  0  0  0  0  0  0  0  0  0  0
   12.6748    7.4257  -15.2457 C   0  0  0  0  0  0  0  0  0  0  0  0
    9.3685    3.7401  -15.1559 C   0  0  0  0  0  0  0  0  0  0  0  0
    8.3659    3.0522  -14.5002 C   0  0  0  0  0  0  0  0  0  0  0  0
   12.6043    6.8047  -16.2697 C   0  0  0  0  0  0  0  0  0  0  0  0
   11.4101    5.8658  -16.4224 C   0  0  0  0  0  0  0  0  0  0  0  0
   10.5997    2.9383  -15.1733 C   0  0  0  0  0  0  0  0  0  0  0  0
    7.0961    3.7840  -14.3516 O   0  0  0  0  0  0  0  0  0  0  0  0
    8.4462    1.8458  -14.2090 C   0  0  0  0  0  0  0  0  0  0  0  0
    7.1249    1.1893  -13.6094 C   0  0  0  0  0  0  0  0  0  0  0  0
    9.6503    1.1874  -14.2693 C   0  0  0  0  0  0  0  0  0  0  0  0
   10.6771    1.7320  -14.7345 C   0  0  0  0  0  0  0  0  0  0  0  0
  1  2  1  0  0  0  0
  2  3  1  0  0  0  0
  3  4  1  0  0  0  0
  4  5  2  0  0  0  0
  4  6  1  0  0  0  0
  5  7  1  0  0  0  0
  6  8  2  0  0  0  0
  7  9  2  0  0  0  0
  8  9  1  0  0  0  0
  9 13  1  0  0  0  0
 10  7  1  1  0  0  0
 10 11  1  0  0  0  0
 10 12  1  0  0  0  0
 11 15  2  0  0  0  0
 11 18  1  0  0  0  0
 12 14  2  0  0  0  0
 12 16  1  0  0  0  0
 13 18  1  0  0  0  0
 15 16  1  0  0  0  0
 15 19  1  0  0  0  0
 16 17  1  0  0  0  0
 17 20  1  0  0  0  0
 19 21  1  0  0  0  0
 20 21  2  0  0  0  0
 20 24  1  0  0  0  0
 21 22  1  0  0  0  0
 22 23  1  0  0  0  0
 22 28  2  0  0  0  0
 23 25  1  0  0  0  0
 24 27  2  0  0  0  0
 25 26  1  0  0  0  0
 25 29  2  0  0  0  0
 26 30  1  0  0  0  0
 26 31  2  0  0  0  0
 27 28  1  0  0  0  0
 29 34  1  0  0  0  0
 31 32  1  0  0  0  0
 31 33  1  0  0  0  0
 33 34  2  0  0  0  0
M  END
$$$$

 OpenBabel10082411353D

 34 39  0  0  0  0  0  0  0  0999 V2000
   13.2485    9.2493   -6.3668 O   0  0  0  0  0  0  0  0  0  0  0  0
   12.3055    9.1779   -7.4488 C   0  0  1  0  0  0  0  0  0  0  0  0
   12.5005    8.1033   -8.2440 C   0  0  0  0  0  0  0  0  0  0  0  0
   11.7072    8.0925   -9.4886 C   0  0  0  0  0  0  0  0  0  0  0  0
   12.2659    7.9483  -10.6668 C   0  0  0  0  0  0  0  0  0  0  0  0
   10.2869    8.0426   -9.4299 C   0  0  0  0  0  0  0  0  0  0  0  0
   13.6482    8.0497  -10.9162 O   0  0  0  0  0  0  0  0  0  0  0  0
   11.5356    7.8148  -11.9199 C   0  0  0  0  0  0  0  0  0  0  0  0
   12.2597    7.6523  -13.1838 C   0  0  0  0  0  0  0  0  0  0  0  0
    9.5345    7.8388  -10.6476 C   0  0  0  0  0  0  0  0  0  0  0  0
   12.7796    8.4277  -13.7325 O   0  0  0  0  0  0  0  0  0  0  0  0
   10.1724    7.7406  -11.8577 C   0  0  0  0  0  0  0  0  0  0  0  0
   12.4765    6.3392  -13.7439 N   0  0  0  0  0  0  0  0  0  0  0  0
    9.2368    7.4770  -13.0161 C   0  0  1  0  0  0  0  0  0  0  0  0
    8.7686    6.0601  -13.0538 C   0  0  0  0  0  0  0  0  0  0  0  0
   11.7377    5.1496  -13.1887 C   0  0  0  0  0  0  0  0  0  0  0  0
   10.9893    9.0510   -6.5404 C   0  0  0  0  0  0  0  0  0  0  0  0
   11.2522    8.1647   -5.3854 C   0  0  2  0  0  0  0  0  0  0  0  0
    7.8881    5.4892  -12.2818 C   0  0  0  0  0  0  0  0  0  0  0  0
    8.1030    8.4511  -12.9051 C   0  0  0  0  0  0  0  0  0  0  0  0
   11.2726    4.1709  -14.3554 C   0  0  1  0  0  0  0  0  0  0  0  0
   12.7640    9.8841   -5.1669 C   0  0  0  0  0  0  0  0  0  0  0  0
   10.2020    7.3447   -4.8869 C   0  0  0  0  0  0  0  0  0  0  0  0
    9.2831    5.2239  -14.0945 C   0  0  0  0  0  0  0  0  0  0  0  0
    7.4658    4.1818  -12.3783 C   0  0  0  0  0  0  0  0  0  0  0  0
   11.8409    9.0255   -4.2786 C   0  0  0  0  0  0  0  0  0  0  0  0
    8.0323    3.4365  -13.5317 C   0  0  0  0  0  0  0  0  0  0  0  0
    8.8555    3.9527  -14.2628 C   0  0  0  0  0  0  0  0  0  0  0  0
    9.6277    3.1977  -15.2748 N   0  0  0  0  0  0  0  0  0  0  0  0
    8.9998    2.0715  -15.8197 C   0  0  0  0  0  0  0  0  0  0  0  0
   12.6128    6.2686  -15.1761 C   0  0  0  0  0  0  0  0  0  0  0  0
   11.0179    3.2027  -15.0642 C   0  0  0  0  0  0  0  0  0  0  0  0
   10.4859    5.2862  -15.0147 C   0  0  1  0  0  0  0  0  0  0  0  0
   11.2346    6.3457  -15.7556 C   0  0  0  0  0  0  0  0  0  0  0  0
  1  2  1  0  0  0  0
  1 22  1  0  0  0  0
  2  3  1  6  0  0  0
  2 17  1  0  0  0  0
  3  4  1  0  0  0  0
  4  5  1  0  0  0  0
  4  6  2  0  0  0  0
  5  7  1  0  0  0  0
  5  8  2  0  0  0  0
  6 10  1  0  0  0  0
  8  9  1  0  0  0  0
  8 12  1  0  0  0  0
  9 11  2  0  0  0  0
  9 13  1  0  0  0  0
 10 12  2  0  0  0  0
 12 14  1  0  0  0  0
 13 16  1  0  0  0  0
 13 31  1  0  0  0  0
 14 15  1  0  0  0  0
 14 20  1  1  0  0  0
 15 19  1  0  0  0  0
 15 24  2  0  0  0  0
 17 18  1  0  0  0  0
 18 23  1  1  0  0  0
 18 26  1  0  0  0  0
 19 25  2  0  0  0  0
 21 16  1  1  0  0  0
 21 32  1  0  0  0  0
 21 33  1  0  0  0  0
 22 26  1  0  0  0  0
 24 28  1  0  0  0  0
 24 33  1  0  0  0  0
 25 27  1  0  0  0  0
 27 28  2  0  0  0  0
 28 29  1  0  0  0  0
 29 30  1  0  0  0  0
 29 32  1  0  0  0  0
 31 34  1  0  0  0  0
 33 34  1  1  0  0  0
M  END
$$$$

 OpenBabel10082411353D

 34 41  0  0  0  0  0  0  0  0999 V2000
    8.0806    9.0240  -12.7589 C   0  0  0  0  0  0  0  0  0  0  0  0
    8.6514    7.8645  -12.2948 C   0  0  0  0  0  0  0  0  0  0  0  0
    9.9575    7.9974  -11.8426 C   0  0  0  0  0  0  0  0  0  0  0  0
   10.7657    6.8667  -11.6050 C   0  0  1  0  0  0  0  0  0  0  0  0
   10.7682    5.9590  -12.8271 C   0  0  0  0  0  0  0  0  0  0  0  0
   12.1553    7.3846  -11.2315 C   0  0  0  0  0  0  0  0  0  0  0  0
    8.0676    6.6451  -12.2974 C   0  0  0  0  0  0  0  0  0  0  0  0
   10.1892    6.1240  -10.3860 C   0  0  0  0  0  0  0  0  0  0  0  0
   11.8375    5.4373  -13.3240 O   0  0  0  0  0  0  0  0  0  0  0  0
    8.6785    5.4761  -13.0273 C   0  0  1  0  0  0  0  0  0  0  0  0
    9.1969    5.2405  -10.4969 C   0  0  1  0  0  0  0  0  0  0  0  0
    7.2213    6.2210  -11.3074 C   0  0  0  0  0  0  0  0  0  0  0  0
   12.5590    7.6872   -9.9896 C   0  0  0  0  0  0  0  0  0  0  0  0
    9.7633    5.0333  -12.9720 C   0  0  1  0  0  0  0  0  0  0  0  0
   10.0661    4.0167  -14.0373 N   0  0  0  0  0  0  0  0  0  0  0  0
   13.6906    8.3004   -9.6233 O   0  0  0  0  0  0  0  0  0  0  0  0
    7.6357    4.5123  -12.6317 C   0  0  2  0  0  0  0  0  0  0  0  0
    6.8831    4.9171  -11.7031 C   0  0  0  0  0  0  0  0  0  0  0  0
   10.5937    6.6967   -9.1779 C   0  0  0  0  0  0  0  0  0  0  0  0
    9.5087    4.3263  -11.6925 C   0  0  2  0  0  0  0  0  0  0  0  0
   11.6359    7.4449   -8.9125 C   0  0  0  0  0  0  0  0  0  0  0  0
   11.9716    7.9159   -7.6200 C   0  0  0  0  0  0  0  0  0  0  0  0
    8.4648    3.6122  -12.2840 C   0  0  2  0  0  0  0  0  0  0  0  0
    9.3128    4.5571   -9.1689 C   0  0  0  0  0  0  0  0  0  0  0  0
   10.9557    7.6369   -6.5929 C   0  0  0  0  0  0  0  0  0  0  0  0
    9.6490    2.8108  -13.7776 C   0  0  0  0  0  0  0  0  0  0  0  0
   10.2419    1.7839  -14.4904 O   0  0  0  0  0  0  0  0  0  0  0  0
    9.8235    6.3429   -8.0308 C   0  0  2  0  0  0  0  0  0  0  0  0
    8.5421    2.5419  -13.1600 C   0  0  0  0  0  0  0  0  0  0  0  0
   11.3117    8.3032   -5.1935 C   0  0  0  0  0  0  0  0  0  0  0  0
    9.9682    6.8581   -6.7779 C   0  0  0  0  0  0  0  0  0  0  0  0
    9.0681    5.1447   -8.0490 C   0  0  0  0  0  0  0  0  0  0  0  0
   11.6222    9.7670   -5.2390 C   0  0  0  0  0  0  0  0  0  0  0  0
   11.6386    7.6299   -4.1141 C   0  0  0  0  0  0  0  0  0  0  0  0
  1  2  1  0  0  0  0
  2  3  1  0  0  0  0
  2  7  2  0  0  0  0
  4  3  1  6  0  0  0
  4  5  1  0  0  0  0
  4  6  1  0  0  0  0
  4  8  1  0  0  0  0
  5  9  2  0  0  0  0
  6 13  1  0  0  0  0
  7 12  1  0  0  0  0
  8 11  1  0  0  0  0
  8 19  2  0  0  0  0
 10  7  1  1  0  0  0
 10 14  1  0  0  0  0
 10 17  1  0  0  0  0
 11 20  1  0  0  0  0
 11 24  1  1  0  0  0
 12 18  1  0  0  0  0
 13 16  2  0  0  0  0
 13 21  1  0  0  0  0
 14  5  1  1  0  0  0
 14 15  1  0  0  0  0
 14 20  1  0  0  0  0
 15 26  1  0  0  0  0
 17 18  1  1  0  0  0
 17 23  1  0  0  0  0
 19 21  1  0  0  0  0
 19 28  1  0  0  0  0
 20 23  1  0  0  0  0
 21 22  2  0  0  0  0
 22 25  1  0  0  0  0
 23 29  1  0  0  0  0
 24 32  1  0  0  0  0
 25 30  1  0  0  0  0
 25 31  2  0  0  0  0
 26 27  2  0  0  0  0
 26 29  1  0  0  0  0
 28 31  1  0  0  0  0
 28 32  1  0  0  0  0
 30 33  1  0  0  0  0
 30 34  1  0  0  0  0
M  END
$$$$

 OpenBabel10082411353D

 23 25  0  0  0  0  0  0  0  0999 V2000
   12.8881    8.7759   -3.5681 C   0  0  0  0  0  0  0  0  0  0  0  0
   11.9416    9.4732   -4.1220 C   0  0  0  0  0  0  0  0  0  0  0  0
   12.1782    9.3707   -5.6407 C   0  0  0  0  0  0  0  0  0  0  0  0
   11.3825    8.3447   -6.3966 C   0  0  0  0  0  0  0  0  0  0  0  0
   11.8188    8.0044   -7.6822 C   0  0  0  0  0  0  0  0  0  0  0  0
   10.3120    7.6600   -5.7120 C   0  0  0  0  0  0  0  0  0  0  0  0
   10.8678    7.0723   -8.2897 C   0  0  0  0  0  0  0  0  0  0  0  0
    9.5717    6.7245   -6.3809 C   0  0  0  0  0  0  0  0  0  0  0  0
    9.8820    6.4468   -7.7081 C   0  0  0  0  0  0  0  0  0  0  0  0
   11.2611    6.6953   -9.7105 C   0  0  0  0  0  0  0  0  0  0  0  0
   10.0425    6.5460  -10.5971 C   0  0  2  0  0  0  0  0  0  0  0  0
    9.7273    7.6207  -11.3847 C   0  0  2  0  0  0  0  0  0  0  0  0
    9.9764    7.6413  -12.5696 O   0  0  0  0  0  0  0  0  0  0  0  0
    8.9346    5.4564   -8.3902 C   0  0  0  0  0  0  0  0  0  0  0  0
    9.8333    8.7949  -10.6903 O   0  0  0  0  0  0  0  0  0  0  0  0
   10.1994    6.5090  -13.2877 C   0  0  0  0  0  0  0  0  0  0  0  0
    9.1009    5.7605   -9.7643 N   0  0  0  0  0  0  0  0  0  0  0  0
    9.3287    5.5101  -13.3734 C   0  0  0  0  0  0  0  0  0  0  0  0
   11.5472    6.3771  -13.9303 C   0  0  0  0  0  0  0  0  0  0  0  0
   11.8963    5.2865  -14.6458 C   0  0  0  0  0  0  0  0  0  0  0  0
   10.9730    4.2334  -14.7769 C   0  0  0  0  0  0  0  0  0  0  0  0
    9.7366    4.2994  -14.1236 C   0  0  0  0  0  0  0  0  0  0  0  0
   11.3320    2.9883  -15.4119 C   0  0  0  0  0  0  0  0  0  0  0  0
  1  2  1  0  0  0  0
  2  3  1  0  0  0  0
  3  4  1  0  0  0  0
  4  5  2  0  0  0  0
  4  6  1  0  0  0  0
  5  7  1  0  0  0  0
  6  8  2  0  0  0  0
  7  9  2  0  0  0  0
  7 10  1  0  0  0  0
  8  9  1  0  0  0  0
  9 14  1  0  0  0  0
 10 11  1  0  0  0  0
 11 12  1  1  0  0  0
 11 17  1  0  0  0  0
 12 13  1  0  0  0  0
 12 15  1  1  0  0  0
 13 16  1  0  0  0  0
 14 17  1  0  0  0  0
 16 18  1  0  0  0  0
 16 19  2  0  0  0  0
 18 22  2  0  0  0  0
 19 20  1  0  0  0  0
 20 21  2  0  0  0  0
 21 22  1  0  0  0  0
 21 23  1  0  0  0  0
M  END
$$$$

 OpenBabel10082411353D

 34 38  0  0  0  0  0  0  0  0999 V2000
   12.7863    7.8241  -14.2109 C   0  0  0  0  0  0  0  0  0  0  0  0
   12.4233    7.7158  -13.0289 C   0  0  0  0  0  0  0  0  0  0  0  0
   11.3194    6.8571  -12.8028 C   0  0  0  0  0  0  0  0  0  0  0  0
   12.3150    7.2021  -15.3582 C   0  0  0  0  0  0  0  0  0  0  0  0
   11.2733    6.2739  -15.1502 C   0  0  0  0  0  0  0  0  0  0  0  0
   10.8099    6.0126  -13.8600 C   0  0  0  0  0  0  0  0  0  0  0  0
    9.6782    5.1428  -13.6488 C   0  0  0  0  0  0  0  0  0  0  0  0
    8.5753    5.3880  -12.9589 N   0  0  0  0  0  0  0  0  0  0  0  0
    8.3226    6.7011  -12.3862 C   0  0  0  0  0  0  0  0  0  0  0  0
    9.8502    3.8578  -14.0728 C   0  0  0  0  0  0  0  0  0  0  0  0
    7.3864    7.4720  -13.0530 C   0  0  0  0  0  0  0  0  0  0  0  0
    6.2412    7.8486  -12.2599 C   0  0  0  0  0  0  0  0  0  0  0  0
    7.6425    4.4186  -12.7943 C   0  0  0  0  0  0  0  0  0  0  0  0
   11.0297    3.2482  -14.8053 C   0  0  0  0  0  0  0  0  0  0  0  0
    8.6802    2.8955  -13.7960 C   0  0  0  0  0  0  0  0  0  0  0  0
    8.8565    1.5917  -14.3582 O   0  0  0  0  0  0  0  0  0  0  0  0
    7.6903    3.2226  -13.1994 N   0  0  0  0  0  0  0  0  0  0  0  0
    6.5724    2.3444  -12.8378 C   0  0  0  0  0  0  0  0  0  0  0  0
    9.0225    7.0353  -11.3259 C   0  0  0  0  0  0  0  0  0  0  0  0
    6.4787    4.7532  -12.1787 O   0  0  0  0  0  0  0  0  0  0  0  0
   10.5868    7.0468  -11.5199 C   0  0  0  0  0  0  0  0  0  0  0  0
   11.2761    7.4007  -10.4131 C   0  0  0  0  0  0  0  0  0  0  0  0
    8.6862    7.4300   -9.9877 C   0  0  0  0  0  0  0  0  0  0  0  0
    9.4326    7.6744   -8.9657 C   0  0  0  0  0  0  0  0  0  0  0  0
   10.6794    7.6568   -9.1312 C   0  0  2  0  0  0  0  0  0  0  0  0
    8.9269    7.9839   -7.6612 C   0  0  1  0  0  0  0  0  0  0  0  0
   11.6309    7.9931   -8.0642 C   0  0  0  0  0  0  0  0  0  0  0  0
    8.3711    7.1403   -7.0209 O   0  0  0  0  0  0  0  0  0  0  0  0
    9.8765    8.4197   -6.5527 C   0  0  0  0  0  0  0  0  0  0  0  0
   11.3201    8.0150   -6.9666 C   0  0  1  0  0  0  0  0  0  0  0  0
   11.1593    6.5339   -6.5907 C   0  0  0  0  0  0  0  0  0  0  0  0
   12.2626    8.7295   -5.9931 C   0  0  0  0  0  0  0  0  0  0  0  0
   12.6056    9.8201   -6.5693 O   0  0  0  0  0  0  0  0  0  0  0  0
   12.5997    8.3968   -4.7676 O   0  0  0  0  0  0  0  0  0  0  0  0
  1  2  2  0  0  0  0
  1  4  1  0  0  0  0
  2  3  1  0  0  0  0
  3  6  2  0  0  0  0
  3 21  1  0  0  0  0
  4  5  2  0  0  0  0
  5  6  1  0  0  0  0
  6  7  1  0  0  0  0
  7  8  1  0  0  0  0
  7 10  2  0  0  0  0
  8  9  1  0  0  0  0
  8 13  1  0  0  0  0
  9 11  1  0  0  0  0
  9 19  2  0  0  0  0
 10 14  1  0  0  0  0
 10 15  1  0  0  0  0
 11 12  1  0  0  0  0
 13 17  1  0  0  0  0
 13 20  2  0  0  0  0
 15 16  2  0  0  0  0
 15 17  1  0  0  0  0
 17 18  1  0  0  0  0
 19 21  1  0  0  0  0
 19 23  1  0  0  0  0
 21 22  2  0  0  0  0
 23 24  2  0  0  0  0
 24 25  1  0  0  0  0
 24 26  1  0  0  0  0
 25 22  1  6  0  0  0
 25 27  1  0  0  0  0
 26 28  1  1  0  0  0
 26 29  1  0  0  0  0
 27 30  1  0  0  0  0
 29 30  1  0  0  0  0
 30 31  1  1  0  0  0
 30 32  1  0  0  0  0
 32 33  2  0  0  0  0
 32 34  1  0  0  0  0
M  END
$$$$

 OpenBabel10082411353D

 34 38  0  0  0  0  0  0  0  0999 V2000
   13.2379    9.0584   -7.2681 C   0  0  0  0  0  0  0  0  0  0  0  0
   12.9396    9.3022   -5.9810 C   0  0  0  0  0  0  0  0  0  0  0  0
   12.1602    8.6694   -7.9361 C   0  0  0  0  0  0  0  0  0  0  0  0
   14.0320    9.7504   -5.0711 F   0  0  0  0  0  0  0  0  0  0  0  0
   10.9536    8.4526   -7.1212 C   0  0  1  0  0  0  0  0  0  0  0  0
   12.1901    8.3365   -9.3972 C   0  0  0  0  0  0  0  0  0  0  0  0
   11.0443    7.8367  -10.0430 C   0  0  0  0  0  0  0  0  0  0  0  0
   11.0471    8.9348   -5.8250 C   0  0  1  0  0  0  0  0  0  0  0  0
    9.5270    7.9533   -7.4234 C   0  0  2  0  0  0  0  0  0  0  0  0
    9.7802    8.7666   -5.0086 F   0  0  0  0  0  0  0  0  0  0  0  0
   11.9790    9.3452   -5.1373 C   0  0  0  0  0  0  0  0  0  0  0  0
    9.1878    6.9159   -6.7141 C   0  0  0  0  0  0  0  0  0  0  0  0
   11.1576    7.5184  -11.4190 C   0  0  0  0  0  0  0  0  0  0  0  0
    9.8595    7.5543   -8.9986 C   0  0  0  0  0  0  0  0  0  0  0  0
    9.9779    6.9809  -11.9943 C   0  0  0  0  0  0  0  0  0  0  0  0
   10.1471    6.6534  -13.4127 C   0  0  0  0  0  0  0  0  0  0  0  0
   12.3591    7.4352  -12.0563 C   0  0  0  0  0  0  0  0  0  0  0  0
    8.5551    6.8980  -11.2951 C   0  0  1  0  0  0  0  0  0  0  0  0
   12.2421    7.1981  -13.3125 C   0  0  0  0  0  0  0  0  0  0  0  0
   11.2735    6.6870  -13.9872 C   0  0  0  0  0  0  0  0  0  0  0  0
    8.1020    6.3652   -7.0525 O   0  0  0  0  0  0  0  0  0  0  0  0
   11.5320    6.1869  -15.4842 C   0  0  0  0  0  0  0  0  0  0  0  0
   11.6397    4.8187  -15.5947 N   0  0  0  0  0  0  0  0  0  0  0  0
   11.7429    6.9569  -16.3970 O   0  0  0  0  0  0  0  0  0  0  0  0
   11.2928    3.8324  -14.5891 C   0  0  0  0  0  0  0  0  0  0  0  0
    7.5388    6.6719  -11.9871 C   0  0  2  0  0  0  0  0  0  0  0  0
   11.5537    4.1926  -16.9885 C   0  0  0  0  0  0  0  0  0  0  0  0
    6.8943    7.7297  -12.6293 C   0  0  0  0  0  0  0  0  0  0  0  0
   12.4886    3.1529  -17.0211 C   0  0  0  0  0  0  0  0  0  0  0  0
   10.6070    2.6673  -14.9825 C   0  0  0  0  0  0  0  0  0  0  0  0
    8.7518    6.9671   -9.7339 N   0  0  0  0  0  0  0  0  0  0  0  0
    6.5675    6.0002  -11.2424 C   0  0  0  0  0  0  0  0  0  0  0  0
   11.5969    2.0413  -16.1354 C   0  0  0  0  0  0  0  0  0  0  0  0
    6.8104    4.5643  -11.2240 O   0  0  0  0  0  0  0  0  0  0  0  0
  1  2  1  0  0  0  0
  1  3  2  0  0  0  0
  2  4  1  0  0  0  0
  2 11  2  0  0  0  0
  3  6  1  0  0  0  0
  5  3  1  6  0  0  0
  5  8  1  0  0  0  0
  5  9  1  0  0  0  0
  6  7  2  0  0  0  0
  7 13  1  0  0  0  0
  7 14  1  0  0  0  0
  8 10  1  1  0  0  0
  8 11  1  0  0  0  0
  9 12  1  1  0  0  0
  9 14  1  0  0  0  0
 12 21  1  0  0  0  0
 13 15  2  0  0  0  0
 13 17  1  0  0  0  0
 14 31  2  0  0  0  0
 15 16  1  0  0  0  0
 15 18  1  0  0  0  0
 16 20  2  0  0  0  0
 17 19  2  0  0  0  0
 18 26  1  1  0  0  0
 18 31  1  0  0  0  0
 19 20  1  0  0  0  0
 20 22  1  0  0  0  0
 22 23  1  0  0  0  0
 22 24  2  0  0  0  0
 23 25  1  0  0  0  0
 23 27  1  0  0  0  0
 25 30  1  0  0  0  0
 26 28  1  1  0  0  0
 26 32  1  0  0  0  0
 27 29  1  0  0  0  0
 29 33  1  0  0  0  0
 30 33  1  0  0  0  0
 32 34  1  0  0  0  0
M  END
$$$$

 OpenBabel10082411353D

 34 37  0  0  0  0  0  0  0  0999 V2000
   10.9951    9.9694   -4.9946 C   0  0  0  0  0  0  0  0  0  0  0  0
   11.7938    9.3762   -4.2463 C   0  0  0  0  0  0  0  0  0  0  0  0
   10.8673    9.4548   -6.4276 C   0  0  0  0  0  0  0  0  0  0  0  0
   11.6576    7.9117   -4.2944 C   0  0  0  0  0  0  0  0  0  0  0  0
   10.5498    8.0257   -6.4521 C   0  0  0  0  0  0  0  0  0  0  0  0
   11.4715    7.2752   -5.6166 C   0  0  0  0  0  0  0  0  0  0  0  0
   10.5840    7.5390   -7.9254 C   0  0  0  0  0  0  0  0  0  0  0  0
   11.4612    8.1494   -8.8322 C   0  0  0  0  0  0  0  0  0  0  0  0
   12.6250    8.6294   -8.4338 O   0  0  0  0  0  0  0  0  0  0  0  0
   11.0835    8.4395  -10.0740 O   0  0  0  0  0  0  0  0  0  0  0  0
   11.2938    7.5612  -11.0769 C   0  0  0  0  0  0  0  0  0  0  0  0
   10.1547    7.2525  -11.9492 C   0  0  0  0  0  0  0  0  0  0  0  0
   10.4293    6.5622  -13.1348 C   0  0  0  0  0  0  0  0  0  0  0  0
   11.7295    6.4217  -13.6243 C   0  0  0  0  0  0  0  0  0  0  0  0
    8.8120    7.3918  -11.4649 C   0  0  0  0  0  0  0  0  0  0  0  0
   12.5351    7.8894  -11.6869 C   0  0  0  0  0  0  0  0  0  0  0  0
   13.5778    8.4243  -10.9673 O   0  0  0  0  0  0  0  0  0  0  0  0
    7.7211    7.1761  -12.4323 C   0  0  0  0  0  0  0  0  0  0  0  0
   12.8103    7.0723  -12.8897 C   0  0  0  0  0  0  0  0  0  0  0  0
    7.0543    5.9667  -12.3369 C   0  0  0  0  0  0  0  0  0  0  0  0
    7.2392    8.1844  -13.1320 C   0  0  0  0  0  0  0  0  0  0  0  0
    6.6882    5.3848  -13.5016 O   0  0  0  0  0  0  0  0  0  0  0  0
    6.5103    5.5543  -11.3870 O   0  0  0  0  0  0  0  0  0  0  0  0
    7.4031    4.0506  -13.7852 C   0  0  0  0  0  0  0  0  0  0  0  0
   11.9567    5.7137  -14.8744 C   0  0  0  0  0  0  0  0  0  0  0  0
    8.6219    3.9611  -14.1988 C   0  0  0  0  0  0  0  0  0  0  0  0
   12.1624    6.4252  -15.8904 C   0  0  0  0  0  0  0  0  0  0  0  0
    9.4613    3.0640  -13.5563 C   0  0  0  0  0  0  0  0  0  0  0  0
   12.1556    4.2801  -14.7975 C   0  0  0  0  0  0  0  0  0  0  0  0
   12.3902    5.6468  -17.1373 C   0  0  0  0  0  0  0  0  0  0  0  0
   12.4464    4.3082  -17.1505 C   0  0  0  0  0  0  0  0  0  0  0  0
   11.7355    3.5021  -13.6183 C   0  0  0  0  0  0  0  0  0  0  0  0
   10.6722    2.6818  -14.1419 N   0  0  0  0  0  0  0  0  0  0  0  0
   12.2408    3.6837  -15.8743 C   0  0  0  0  0  0  0  0  0  0  0  0
  1  2  1  0  0  0  0
  1  3  1  0  0  0  0
  2  4  1  0  0  0  0
  3  5  1  0  0  0  0
  4  6  1  0  0  0  0
  5  6  1  0  0  0  0
  5  7  1  0  0  0  0
  7  8  1  0  0  0  0
  8  9  2  0  0  0  0
  8 10  1  0  0  0  0
 10 11  1  0  0  0  0
 11 12  1  0  0  0  0
 11 16  2  0  0  0  0
 12 13  2  0  0  0  0
 12 15  1  0  0  0  0
 13 14  1  0  0  0  0
 14 19  2  0  0  0  0
 14 25  1  0  0  0  0
 15 18  1  0  0  0  0
 16 17  1  0  0  0  0
 16 19  1  0  0  0  0
 18 20  1  0  0  0  0
 18 21  2  0  0  0  0
 20 22  1  0  0  0  0
 20 23  2  0  0  0  0
 22 24  1  0  0  0  0
 24 26  1  0  0  0  0
 25 27  2  0  0  0  0
 25 29  1  0  0  0  0
 26 28  1  0  0  0  0
 27 30  1  0  0  0  0
 28 33  1  0  0  0  0
 29 32  1  0  0  0  0
 29 34  2  0  0  0  0
 30 31  2  0  0  0  0
 31 34  1  0  0  0  0
 32 33  1  0  0  0  0
M  END
$$$$

 OpenBabel10082411353D

 34 39  0  0  0  0  0  0  0  0999 V2000
   11.6836    6.0105   -4.8831 C   0  0  0  0  0  0  0  0  0  0  0  0
   11.9279    6.9038   -3.8792 C   0  0  0  0  0  0  0  0  0  0  0  0
   11.9719    8.3126   -4.1286 C   0  0  0  0  0  0  0  0  0  0  0  0
   11.3811    6.5964   -6.0845 C   0  0  0  0  0  0  0  0  0  0  0  0
   11.0420    5.6445   -7.1434 C   0  0  1  0  0  0  0  0  0  0  0  0
   11.3536    7.9055   -6.3870 C   0  0  0  0  0  0  0  0  0  0  0  0
    9.8569    4.8089   -7.0560 C   0  0  0  0  0  0  0  0  0  0  0  0
   11.5991    8.8196   -5.3527 C   0  0  0  0  0  0  0  0  0  0  0  0
   11.5316   10.2233   -5.5794 F   0  0  0  0  0  0  0  0  0  0  0  0
   10.9798    8.5285   -7.6795 C   0  0  0  0  0  0  0  0  0  0  0  0
   10.6556    6.3745   -8.5461 C   0  0  0  0  0  0  0  0  0  0  0  0
    9.6410    3.9438   -8.1044 C   0  0  0  0  0  0  0  0  0  0  0  0
   11.0669    7.6169   -8.7871 N   0  0  0  0  0  0  0  0  0  0  0  0
    9.9214    5.7500   -9.4200 C   0  0  0  0  0  0  0  0  0  0  0  0
   12.1374    7.7991   -9.6010 C   0  0  0  0  0  0  0  0  0  0  0  0
   13.3966    8.0702   -9.2678 O   0  0  0  0  0  0  0  0  0  0  0  0
   11.9065    8.1067  -10.9940 C   0  0  0  0  0  0  0  0  0  0  0  0
   11.5891    6.9407  -11.8496 C   0  0  1  0  0  0  0  0  0  0  0  0
    9.6383    6.5905  -10.7511 C   0  0  0  0  0  0  0  0  0  0  0  0
   10.3417    6.3234  -11.9172 N   0  0  0  0  0  0  0  0  0  0  0  0
    9.1610    4.6231   -9.2679 C   0  0  0  0  0  0  0  0  0  0  0  0
   10.0460    5.1982  -12.4989 C   0  0  0  0  0  0  0  0  0  0  0  0
   10.8981    4.6542  -13.4877 C   0  0  0  0  0  0  0  0  0  0  0  0
   11.5282    5.4948  -14.3618 C   0  0  0  0  0  0  0  0  0  0  0  0
   10.9982    3.2780  -13.6504 C   0  0  0  0  0  0  0  0  0  0  0  0
    9.0509    4.4032  -12.0961 O   0  0  0  0  0  0  0  0  0  0  0  0
   11.4776    6.9477  -14.3020 C   0  0  0  0  0  0  0  0  0  0  0  0
   11.6842    2.7820  -14.6687 C   0  0  0  0  0  0  0  0  0  0  0  0
   12.2153    7.1356  -13.2652 C   0  0  0  0  0  0  0  0  0  0  0  0
   11.8796    4.9830  -15.5580 C   0  0  0  0  0  0  0  0  0  0  0  0
   12.4025    5.8900  -16.5865 C   0  0  0  0  0  0  0  0  0  0  0  0
   13.5281    6.3041  -16.5723 O   0  0  0  0  0  0  0  0  0  0  0  0
   12.1202    3.6428  -15.6904 C   0  0  0  0  0  0  0  0  0  0  0  0
   11.5880    6.1788  -17.5916 O   0  0  0  0  0  0  0  0  0  0  0  0
  1  2  1  0  0  0  0
  1  4  2  0  0  0  0
  2  3  2  0  0  0  0
  3  8  1  0  0  0  0
  4  5  1  0  0  0  0
  4  6  1  0  0  0  0
  5  7  1  1  0  0  0
  5 11  1  0  0  0  0
  6  8  2  0  0  0  0
  6 10  1  0  0  0  0
  7 12  1  0  0  0  0
  8  9  1  0  0  0  0
 10 13  1  0  0  0  0
 11 13  1  0  0  0  0
 11 14  2  0  0  0  0
 12 21  1  0  0  0  0
 13 15  1  0  0  0  0
 14 19  1  0  0  0  0
 14 21  1  0  0  0  0
 15 16  2  0  0  0  0
 15 17  1  0  0  0  0
 18 17  1  6  0  0  0
 18 20  1  0  0  0  0
 18 29  1  0  0  0  0
 19 20  1  0  0  0  0
 20 22  1  0  0  0  0
 22 23  1  0  0  0  0
 22 26  2  0  0  0  0
 23 24  1  0  0  0  0
 23 25  2  0  0  0  0
 24 27  1  0  0  0  0
 24 30  2  0  0  0  0
 25 28  1  0  0  0  0
 27 29  1  0  0  0  0
 28 33  2  0  0  0  0
 30 31  1  0  0  0  0
 30 33  1  0  0  0  0
 31 32  2  0  0  0  0
 31 34  1  0  0  0  0
M  END
$$$$

 OpenBabel10082411353D

 35 40  0  0  0  0  0  0  0  0999 V2000
   12.8881    8.7759   -3.5681 C   0  0  0  0  0  0  0  0  0  0  0  0
   11.9416    9.4732   -4.1220 C   0  0  0  0  0  0  0  0  0  0  0  0
   12.3556    7.6012   -2.6527 C   0  0  0  0  0  0  0  0  0  0  0  0
   11.8805    9.3400   -5.6557 C   0  0  0  0  0  0  0  0  0  0  0  0
   11.7716    6.5414   -3.3821 C   0  0  0  0  0  0  0  0  0  0  0  0
   10.8523    8.6585   -6.3310 C   0  0  0  0  0  0  0  0  0  0  0  0
   11.1142    8.2520   -7.7289 C   0  0  0  0  0  0  0  0  0  0  0  0
   10.0478    7.6568   -8.4887 C   0  0  0  0  0  0  0  0  0  0  0  0
   12.3648    8.4339   -8.3703 C   0  0  0  0  0  0  0  0  0  0  0  0
   12.6142    8.1352   -9.7322 C   0  0  0  0  0  0  0  0  0  0  0  0
   10.2852    7.3833   -9.9138 C   0  0  0  0  0  0  0  0  0  0  0  0
   11.5161    7.5808  -10.4860 C   0  0  0  0  0  0  0  0  0  0  0  0
   11.6641    7.2285  -11.8174 O   0  0  0  0  0  0  0  0  0  0  0  0
   10.8624    6.4419  -12.4395 C   0  0  0  0  0  0  0  0  0  0  0  0
   11.2693    5.8267  -13.4966 C   0  0  0  0  0  0  0  0  0  0  0  0
    9.5259    6.2192  -11.9953 C   0  0  0  0  0  0  0  0  0  0  0  0
    9.2551    6.6732  -10.5921 C   0  0  2  0  0  0  0  0  0  0  0  0
    8.1388    7.5201  -10.6434 O   0  0  0  0  0  0  0  0  0  0  0  0
   12.6263    6.1828  -14.1606 C   0  0  0  0  0  0  0  0  0  0  0  0
    7.2614    7.1893  -11.7193 C   0  0  2  0  0  0  0  0  0  0  0  0
   12.6352    7.3184  -14.7782 C   0  0  0  0  0  0  0  0  0  0  0  0
    8.2277    6.2735  -12.5381 C   0  0  0  0  0  0  0  0  0  0  0  0
    7.7180    5.1928  -13.4230 C   0  0  0  0  0  0  0  0  0  0  0  0
    8.4439    4.2015  -13.9045 C   0  0  0  0  0  0  0  0  0  0  0  0
    6.9950    8.4483  -12.4502 C   0  0  0  0  0  0  0  0  0  0  0  0
    7.7472    3.2985  -14.8364 C   0  0  0  0  0  0  0  0  0  0  0  0
    9.0300    5.4319   -9.7786 C   0  0  0  0  0  0  0  0  0  0  0  0
    8.1705    1.9584  -14.6092 C   0  0  0  0  0  0  0  0  0  0  0  0
    9.3621    1.6865  -14.2893 C   0  0  0  0  0  0  0  0  0  0  0  0
    9.7363    3.9677  -13.5638 C   0  0  1  0  0  0  0  0  0  0  0  0
   10.3860    2.7957  -13.6197 C   0  0  0  0  0  0  0  0  0  0  0  0
   11.0084    4.6578  -13.9997 C   0  0  0  0  0  0  0  0  0  0  0  0
   11.8638    3.9235  -14.6373 N   0  0  0  0  0  0  0  0  0  0  0  0
   12.7596    4.7990  -15.1612 N   0  0  0  0  0  0  0  0  0  0  0  0
   13.4321    4.8850  -15.9819 O   0  0  0  0  0  0  0  0  0  0  0  0
  1  2  1  0  0  0  0
  1  3  1  0  0  0  0
  2  4  1  0  0  0  0
  3  5  1  0  0  0  0
  4  6  1  0  0  0  0
  6  7  1  0  0  0  0
  7  8  1  0  0  0  0
  7  9  2  0  0  0  0
  8 11  2  0  0  0  0
  9 10  1  0  0  0  0
 10 12  2  0  0  0  0
 11 12  1  0  0  0  0
 11 17  1  0  0  0  0
 12 13  1  0  0  0  0
 13 14  1  0  0  0  0
 14 15  2  0  0  0  0
 14 16  1  0  0  0  0
 15 19  1  0  0  0  0
 15 32  1  0  0  0  0
 16 17  1  0  0  0  0
 16 22  2  0  0  0  0
 17 18  1  0  0  0  0
 17 27  1  1  0  0  0
 18 20  1  0  0  0  0
 19 21  2  0  0  0  0
 19 34  1  0  0  0  0
 20 22  1  0  0  0  0
 20 25  1  6  0  0  0
 22 23  1  0  0  0  0
 23 24  2  0  0  0  0
 24 26  1  0  0  0  0
 24 30  1  0  0  0  0
 26 28  2  0  0  0  0
 28 29  1  0  0  0  0
 29 31  2  0  0  0  0
 30 31  1  6  0  0  0
 30 32  1  0  0  0  0
 32 33  2  0  0  0  0
 33 34  1  0  0  0  0
 34 35  1  0  0  0  0
M  END
$$$$

 OpenBabel10082411353D

 35 39  0  0  0  0  0  0  0  0999 V2000
   12.7863    7.8241  -14.2109 C   0  0  0  0  0  0  0  0  0  0  0  0
   12.4233    7.7158  -13.0289 C   0  0  0  0  0  0  0  0  0  0  0  0
   11.3194    6.8571  -12.8028 C   0  0  0  0  0  0  0  0  0  0  0  0
   12.3150    7.2021  -15.3582 C   0  0  0  0  0  0  0  0  0  0  0  0
   11.2733    6.2739  -15.1502 C   0  0  0  0  0  0  0  0  0  0  0  0
   10.8099    6.0126  -13.8600 C   0  0  0  0  0  0  0  0  0  0  0  0
    9.6782    5.1428  -13.6488 C   0  0  0  0  0  0  0  0  0  0  0  0
    8.5753    5.3880  -12.9589 N   0  0  0  0  0  0  0  0  0  0  0  0
    8.3226    6.7011  -12.3862 C   0  0  0  0  0  0  0  0  0  0  0  0
    9.8502    3.8578  -14.0728 C   0  0  0  0  0  0  0  0  0  0  0  0
    7.3864    7.4720  -13.0530 C   0  0  0  0  0  0  0  0  0  0  0  0
    6.2412    7.8486  -12.2599 C   0  0  0  0  0  0  0  0  0  0  0  0
    7.6425    4.4186  -12.7943 C   0  0  0  0  0  0  0  0  0  0  0  0
   11.0297    3.2482  -14.8053 C   0  0  0  0  0  0  0  0  0  0  0  0
    8.6802    2.8955  -13.7960 C   0  0  0  0  0  0  0  0  0  0  0  0
    8.8565    1.5917  -14.3582 O   0  0  0  0  0  0  0  0  0  0  0  0
    7.6903    3.2226  -13.1994 N   0  0  0  0  0  0  0  0  0  0  0  0
    6.5724    2.3444  -12.8378 C   0  0  0  0  0  0  0  0  0  0  0  0
    9.0225    7.0353  -11.3259 C   0  0  0  0  0  0  0  0  0  0  0  0
    6.4787    4.7532  -12.1787 O   0  0  0  0  0  0  0  0  0  0  0  0
   10.5868    7.0468  -11.5199 C   0  0  0  0  0  0  0  0  0  0  0  0
   11.2761    7.4007  -10.4131 C   0  0  0  0  0  0  0  0  0  0  0  0
    8.6862    7.4300   -9.9877 C   0  0  0  0  0  0  0  0  0  0  0  0
    9.4326    7.6744   -8.9657 C   0  0  0  0  0  0  0  0  0  0  0  0
   10.6794    7.6568   -9.1312 C   0  0  2  0  0  0  0  0  0  0  0  0
    8.9269    7.9839   -7.6612 C   0  0  0  0  0  0  0  0  0  0  0  0
   11.4232    7.9744   -7.9321 C   0  0  0  0  0  0  0  0  0  0  0  0
   10.9573    8.3184   -6.8885 C   0  0  0  0  0  0  0  0  0  0  0  0
    7.5782    7.8797   -7.5710 F   0  0  0  0  0  0  0  0  0  0  0  0
   11.9524    8.6726   -5.5732 C   0  0  0  0  0  0  0  0  0  0  0  0
   12.5628    9.9251   -5.6215 C   0  0  0  0  0  0  0  0  0  0  0  0
   11.7409    8.0483   -4.4624 C   0  0  0  0  0  0  0  0  0  0  0  0
   12.5004    8.4224   -3.2820 C   0  0  0  0  0  0  0  0  0  0  0  0
    9.5554    8.2872   -6.6249 C   0  0  0  0  0  0  0  0  0  0  0  0
   11.0418    6.6582   -4.1795 C   0  0  0  0  0  0  0  0  0  0  0  0
  1  2  2  0  0  0  0
  1  4  1  0  0  0  0
  2  3  1  0  0  0  0
  3  6  2  0  0  0  0
  3 21  1  0  0  0  0
  4  5  2  0  0  0  0
  5  6  1  0  0  0  0
  6  7  1  0  0  0  0
  7  8  1  0  0  0  0
  7 10  2  0  0  0  0
  8  9  1  0  0  0  0
  8 13  1  0  0  0  0
  9 11  1  0  0  0  0
  9 19  2  0  0  0  0
 10 14  1  0  0  0  0
 10 15  1  0  0  0  0
 11 12  1  0  0  0  0
 13 17  1  0  0  0  0
 13 20  2  0  0  0  0
 15 16  2  0  0  0  0
 15 17  1  0  0  0  0
 17 18  1  0  0  0  0
 19 21  1  0  0  0  0
 19 23  1  0  0  0  0
 21 22  2  0  0  0  0
 23 24  2  0  0  0  0
 24 25  1  0  0  0  0
 24 26  1  0  0  0  0
 25 22  1  6  0  0  0
 25 27  1  0  0  0  0
 26 29  1  0  0  0  0
 26 34  2  0  0  0  0
 27 28  2  0  0  0  0
 28 30  1  0  0  0  0
 28 34  1  0  0  0  0
 30 31  1  0  0  0  0
 30 32  2  0  0  0  0
 32 33  1  0  0  0  0
 32 35  1  0  0  0  0
M  END
$$$$

 OpenBabel10082411353D

 35 42  0  0  0  0  0  0  0  0999 V2000
    8.0806    9.0240  -12.7589 C   0  0  0  0  0  0  0  0  0  0  0  0
    8.6514    7.8645  -12.2948 C   0  0  0  0  0  0  0  0  0  0  0  0
    9.9575    7.9974  -11.8426 C   0  0  0  0  0  0  0  0  0  0  0  0
   10.7657    6.8667  -11.6050 C   0  0  1  0  0  0  0  0  0  0  0  0
   10.7682    5.9590  -12.8271 C   0  0  0  0  0  0  0  0  0  0  0  0
   12.1553    7.3846  -11.2315 C   0  0  0  0  0  0  0  0  0  0  0  0
    8.0676    6.6451  -12.2974 C   0  0  0  0  0  0  0  0  0  0  0  0
   10.1892    6.1240  -10.3860 C   0  0  0  0  0  0  0  0  0  0  0  0
   11.8375    5.4373  -13.3240 O   0  0  0  0  0  0  0  0  0  0  0  0
    8.6785    5.4761  -13.0273 C   0  0  1  0  0  0  0  0  0  0  0  0
    9.1969    5.2405  -10.4969 C   0  0  1  0  0  0  0  0  0  0  0  0
    7.2213    6.2210  -11.3074 C   0  0  0  0  0  0  0  0  0  0  0  0
   12.5590    7.6872   -9.9896 C   0  0  0  0  0  0  0  0  0  0  0  0
    9.7633    5.0333  -12.9720 C   0  0  1  0  0  0  0  0  0  0  0  0
   10.0661    4.0167  -14.0373 N   0  0  0  0  0  0  0  0  0  0  0  0
   13.6906    8.3004   -9.6233 O   0  0  0  0  0  0  0  0  0  0  0  0
    7.6357    4.5123  -12.6317 C   0  0  2  0  0  0  0  0  0  0  0  0
    6.8831    4.9171  -11.7031 C   0  0  0  0  0  0  0  0  0  0  0  0
   10.5937    6.6967   -9.1779 C   0  0  0  0  0  0  0  0  0  0  0  0
    9.5087    4.3263  -11.6925 C   0  0  2  0  0  0  0  0  0  0  0  0
   11.6359    7.4449   -8.9125 C   0  0  0  0  0  0  0  0  0  0  0  0
   11.9716    7.9159   -7.6200 C   0  0  0  0  0  0  0  0  0  0  0  0
    8.4648    3.6122  -12.2840 C   0  0  2  0  0  0  0  0  0  0  0  0
    9.3128    4.5571   -9.1689 C   0  0  0  0  0  0  0  0  0  0  0  0
   10.9557    7.6369   -6.5929 C   0  0  1  0  0  0  0  0  0  0  0  0
    9.6490    2.8108  -13.7776 C   0  0  1  0  0  0  0  0  0  0  0  0
    9.6716    6.1981   -8.0224 C   0  0  0  0  0  0  0  0  0  0  0  0
    8.5511    2.5400  -13.1402 C   0  0  0  0  0  0  0  0  0  0  0  0
    9.7877    2.0302  -15.0383 O   0  0  0  0  0  0  0  0  0  0  0  0
    8.9718    5.1868   -8.0766 C   0  0  0  0  0  0  0  0  0  0  0  0
   10.0315    6.7384   -6.7150 C   0  0  0  0  0  0  0  0  0  0  0  0
   11.4399    8.1200   -5.1203 C   0  0  0  0  0  0  0  0  0  0  0  0
   11.7755    9.5106   -5.0957 C   0  0  0  0  0  0  0  0  0  0  0  0
   12.4874    7.3926   -4.5006 C   0  0  0  0  0  0  0  0  0  0  0  0
   10.3062    7.8560   -4.2380 C   0  0  0  0  0  0  0  0  0  0  0  0
  1  2  1  0  0  0  0
  2  3  1  0  0  0  0
  2  7  2  0  0  0  0
  4  3  1  6  0  0  0
  4  5  1  0  0  0  0
  4  6  1  0  0  0  0
  4  8  1  0  0  0  0
  5  9  2  0  0  0  0
  6 13  1  0  0  0  0
  7 12  1  0  0  0  0
  8 11  1  0  0  0  0
  8 19  2  0  0  0  0
 10  7  1  1  0  0  0
 10 14  1  0  0  0  0
 10 17  1  0  0  0  0
 11 20  1  0  0  0  0
 11 24  1  1  0  0  0
 12 18  1  0  0  0  0
 13 16  2  0  0  0  0
 13 21  1  0  0  0  0
 14  5  1  1  0  0  0
 14 15  1  0  0  0  0
 14 20  1  0  0  0  0
 15 26  1  0  0  0  0
 17 18  1  1  0  0  0
 17 23  1  0  0  0  0
 19 21  1  0  0  0  0
 19 27  1  0  0  0  0
 20 23  1  0  0  0  0
 21 22  2  0  0  0  0
 22 25  1  0  0  0  0
 23 28  1  0  0  0  0
 24 30  1  0  0  0  0
 25 31  1  0  0  0  0
 25 32  1  0  0  0  0
 26 28  1  0  0  0  0
 26 29  1  0  0  0  0
 27 30  1  0  0  0  0
 27 31  2  0  0  0  0
 32 33  1  0  0  0  0
 32 34  1  0  0  0  0
 32 35  1  0  0  0  0
M  END
$$$$

 OpenBabel10082411353D

 35 40  0  0  0  0  0  0  0  0999 V2000
   12.8881    8.7759   -3.5681 C   0  0  0  0  0  0  0  0  0  0  0  0
   11.9416    9.4732   -4.1220 C   0  0  0  0  0  0  0  0  0  0  0  0
   12.3556    7.6012   -2.6527 C   0  0  0  0  0  0  0  0  0  0  0  0
   11.8805    9.3400   -5.6557 C   0  0  0  0  0  0  0  0  0  0  0  0
   11.7716    6.5414   -3.3821 C   0  0  0  0  0  0  0  0  0  0  0  0
   10.8523    8.6585   -6.3310 C   0  0  0  0  0  0  0  0  0  0  0  0
   11.1142    8.2520   -7.7289 C   0  0  0  0  0  0  0  0  0  0  0  0
   10.0478    7.6568   -8.4887 C   0  0  0  0  0  0  0  0  0  0  0  0
   12.3648    8.4339   -8.3703 C   0  0  0  0  0  0  0  0  0  0  0  0
   12.6142    8.1352   -9.7322 C   0  0  0  0  0  0  0  0  0  0  0  0
   10.2852    7.3833   -9.9138 C   0  0  0  0  0  0  0  0  0  0  0  0
   11.5161    7.5808  -10.4860 C   0  0  0  0  0  0  0  0  0  0  0  0
   11.6641    7.2285  -11.8174 O   0  0  0  0  0  0  0  0  0  0  0  0
   10.8624    6.4419  -12.4395 C   0  0  0  0  0  0  0  0  0  0  0  0
   11.2693    5.8267  -13.4966 C   0  0  0  0  0  0  0  0  0  0  0  0
    9.5259    6.2192  -11.9953 C   0  0  0  0  0  0  0  0  0  0  0  0
    9.2551    6.6732  -10.5921 C   0  0  2  0  0  0  0  0  0  0  0  0
    8.1388    7.5201  -10.6434 O   0  0  0  0  0  0  0  0  0  0  0  0
   12.6263    6.1828  -14.1606 C   0  0  0  0  0  0  0  0  0  0  0  0
    7.2614    7.1893  -11.7193 C   0  0  2  0  0  0  0  0  0  0  0  0
   12.6352    7.3184  -14.7782 C   0  0  0  0  0  0  0  0  0  0  0  0
    8.2277    6.2735  -12.5381 C   0  0  0  0  0  0  0  0  0  0  0  0
    7.7180    5.1928  -13.4230 C   0  0  0  0  0  0  0  0  0  0  0  0
    8.4439    4.2015  -13.9045 C   0  0  0  0  0  0  0  0  0  0  0  0
    6.9950    8.4483  -12.4502 C   0  0  0  0  0  0  0  0  0  0  0  0
    7.7472    3.2985  -14.8364 C   0  0  0  0  0  0  0  0  0  0  0  0
    9.0300    5.4319   -9.7786 C   0  0  0  0  0  0  0  0  0  0  0  0
    8.1705    1.9584  -14.6092 C   0  0  0  0  0  0  0  0  0  0  0  0
    9.3621    1.6865  -14.2893 C   0  0  0  0  0  0  0  0  0  0  0  0
    9.9085    4.0088  -13.8348 C   0  0  1  0  0  0  0  0  0  0  0  0
   10.3595    2.7608  -13.8533 C   0  0  0  0  0  0  0  0  0  0  0  0
   10.9962    4.6837  -14.2602 C   0  0  2  0  0  0  0  0  0  0  0  0
   11.8931    4.3817  -15.1603 C   0  0  0  0  0  0  0  0  0  0  0  0
   12.9519    5.2463  -15.1532 N   0  0  0  0  0  0  0  0  0  0  0  0
   13.9894    5.2764  -15.9701 C   0  0  0  0  0  0  0  0  0  0  0  0
  1  2  1  0  0  0  0
  1  3  1  0  0  0  0
  2  4  1  0  0  0  0
  3  5  1  0  0  0  0
  4  6  1  0  0  0  0
  6  7  1  0  0  0  0
  7  8  1  0  0  0  0
  7  9  2  0  0  0  0
  8 11  2  0  0  0  0
  9 10  1  0  0  0  0
 10 12  2  0  0  0  0
 11 12  1  0  0  0  0
 11 17  1  0  0  0  0
 12 13  1  0  0  0  0
 13 14  1  0  0  0  0
 14 15  2  0  0  0  0
 14 16  1  0  0  0  0
 15 19  1  0  0  0  0
 15 32  1  0  0  0  0
 16 17  1  0  0  0  0
 16 22  2  0  0  0  0
 17 18  1  0  0  0  0
 17 27  1  1  0  0  0
 18 20  1  0  0  0  0
 19 21  2  0  0  0  0
 19 34  1  0  0  0  0
 20 22  1  0  0  0  0
 20 25  1  6  0  0  0
 22 23  1  0  0  0  0
 23 24  2  0  0  0  0
 24 26  1  0  0  0  0
 24 30  1  0  0  0  0
 26 28  2  0  0  0  0
 28 29  1  0  0  0  0
 29 31  2  0  0  0  0
 30 31  1  6  0  0  0
 30 32  1  0  0  0  0
 32 33  1  1  0  0  0
 33 34  1  0  0  0  0
 34 35  1  0  0  0  0
M  END
$$$$

 OpenBabel10082411353D

 35 39  0  0  0  0  0  0  0  0999 V2000
   13.2379    9.0584   -7.2681 C   0  0  0  0  0  0  0  0  0  0  0  0
   12.9396    9.3022   -5.9810 C   0  0  0  0  0  0  0  0  0  0  0  0
   12.1602    8.6694   -7.9361 C   0  0  0  0  0  0  0  0  0  0  0  0
   14.0320    9.7504   -5.0711 F   0  0  0  0  0  0  0  0  0  0  0  0
   10.9536    8.4526   -7.1212 C   0  0  1  0  0  0  0  0  0  0  0  0
   12.1901    8.3365   -9.3972 C   0  0  0  0  0  0  0  0  0  0  0  0
   11.0443    7.8367  -10.0430 C   0  0  0  0  0  0  0  0  0  0  0  0
   11.0471    8.9348   -5.8250 C   0  0  1  0  0  0  0  0  0  0  0  0
    9.5270    7.9533   -7.4234 C   0  0  2  0  0  0  0  0  0  0  0  0
    9.7802    8.7666   -5.0086 F   0  0  0  0  0  0  0  0  0  0  0  0
   11.9790    9.3452   -5.1373 C   0  0  0  0  0  0  0  0  0  0  0  0
    9.1878    6.9159   -6.7141 C   0  0  0  0  0  0  0  0  0  0  0  0
   11.1576    7.5184  -11.4190 C   0  0  0  0  0  0  0  0  0  0  0  0
    9.8595    7.5543   -8.9986 C   0  0  1  0  0  0  0  0  0  0  0  0
    9.9779    6.9809  -11.9943 C   0  0  0  0  0  0  0  0  0  0  0  0
   10.1471    6.6534  -13.4127 C   0  0  0  0  0  0  0  0  0  0  0  0
   12.3591    7.4352  -12.0563 C   0  0  0  0  0  0  0  0  0  0  0  0
    8.5551    6.8980  -11.2951 C   0  0  1  0  0  0  0  0  0  0  0  0
   12.2421    7.1981  -13.3125 C   0  0  0  0  0  0  0  0  0  0  0  0
   11.2735    6.6870  -13.9872 C   0  0  0  0  0  0  0  0  0  0  0  0
    8.1020    6.3652   -7.0525 O   0  0  0  0  0  0  0  0  0  0  0  0
   11.5320    6.1869  -15.4842 C   0  0  0  0  0  0  0  0  0  0  0  0
   11.6397    4.8187  -15.5947 N   0  0  0  0  0  0  0  0  0  0  0  0
   11.7429    6.9569  -16.3970 O   0  0  0  0  0  0  0  0  0  0  0  0
   11.2928    3.8324  -14.5891 C   0  0  0  0  0  0  0  0  0  0  0  0
    7.5388    6.6719  -11.9871 C   0  0  0  0  0  0  0  0  0  0  0  0
   11.5537    4.1926  -16.9885 C   0  0  0  0  0  0  0  0  0  0  0  0
    6.8943    7.7297  -12.6293 C   0  0  0  0  0  0  0  0  0  0  0  0
   12.4886    3.1529  -17.0211 C   0  0  0  0  0  0  0  0  0  0  0  0
   10.6070    2.6673  -14.9825 C   0  0  0  0  0  0  0  0  0  0  0  0
    7.0671    5.3528  -12.1345 C   0  0  0  0  0  0  0  0  0  0  0  0
    8.8121    6.8590   -9.7791 C   0  0  0  0  0  0  0  0  0  0  0  0
    7.5818    4.1934  -11.6434 C   0  0  0  0  0  0  0  0  0  0  0  0
    5.7203    5.2905  -12.7717 C   0  0  0  0  0  0  0  0  0  0  0  0
   11.5057    2.0673  -16.2557 C   0  0  0  0  0  0  0  0  0  0  0  0
  1  2  1  0  0  0  0
  1  3  2  0  0  0  0
  2  4  1  0  0  0  0
  2 11  2  0  0  0  0
  3  6  1  0  0  0  0
  5  3  1  6  0  0  0
  5  8  1  0  0  0  0
  5  9  1  0  0  0  0
  6  7  2  0  0  0  0
  7 13  1  0  0  0  0
  7 14  1  0  0  0  0
  8 10  1  1  0  0  0
  8 11  1  0  0  0  0
  9 12  1  1  0  0  0
  9 14  1  0  0  0  0
 12 21  1  0  0  0  0
 13 15  2  0  0  0  0
 13 17  1  0  0  0  0
 14 32  1  6  0  0  0
 15 16  1  0  0  0  0
 15 18  1  0  0  0  0
 16 20  2  0  0  0  0
 17 19  2  0  0  0  0
 18 26  1  6  0  0  0
 18 32  1  0  0  0  0
 19 20  1  0  0  0  0
 20 22  1  0  0  0  0
 22 23  1  0  0  0  0
 22 24  2  0  0  0  0
 23 25  1  0  0  0  0
 23 27  1  0  0  0  0
 25 30  1  0  0  0  0
 26 28  1  0  0  0  0
 26 31  2  0  0  0  0
 27 29  1  0  0  0  0
 29 35  1  0  0  0  0
 30 35  1  0  0  0  0
 31 33  1  0  0  0  0
 31 34  1  0  0  0  0
M  END
$$$$

 OpenBabel10082411353D

 35 39  0  0  0  0  0  0  0  0999 V2000
   13.2485    9.2493   -6.3668 O   0  0  0  0  0  0  0  0  0  0  0  0
   12.3055    9.1779   -7.4488 C   0  0  1  0  0  0  0  0  0  0  0  0
   12.5005    8.1033   -8.2440 C   0  0  0  0  0  0  0  0  0  0  0  0
   11.7072    8.0925   -9.4886 C   0  0  0  0  0  0  0  0  0  0  0  0
   12.2659    7.9483  -10.6668 C   0  0  0  0  0  0  0  0  0  0  0  0
   10.2869    8.0426   -9.4299 C   0  0  0  0  0  0  0  0  0  0  0  0
   13.6482    8.0497  -10.9162 O   0  0  0  0  0  0  0  0  0  0  0  0
   11.5356    7.8148  -11.9199 C   0  0  0  0  0  0  0  0  0  0  0  0
   12.2597    7.6523  -13.1838 C   0  0  0  0  0  0  0  0  0  0  0  0
    9.5345    7.8388  -10.6476 C   0  0  0  0  0  0  0  0  0  0  0  0
   12.7796    8.4277  -13.7325 O   0  0  0  0  0  0  0  0  0  0  0  0
   10.1724    7.7406  -11.8577 C   0  0  0  0  0  0  0  0  0  0  0  0
   12.4765    6.3392  -13.7439 N   0  0  0  0  0  0  0  0  0  0  0  0
    9.2368    7.4770  -13.0161 C   0  0  1  0  0  0  0  0  0  0  0  0
    8.7686    6.0601  -13.0538 C   0  0  0  0  0  0  0  0  0  0  0  0
   11.7377    5.1496  -13.1887 C   0  0  0  0  0  0  0  0  0  0  0  0
   10.9893    9.0510   -6.5404 C   0  0  0  0  0  0  0  0  0  0  0  0
   11.2522    8.1647   -5.3854 C   0  0  2  0  0  0  0  0  0  0  0  0
    7.8881    5.4892  -12.2818 C   0  0  0  0  0  0  0  0  0  0  0  0
    8.1030    8.4511  -12.9051 C   0  0  0  0  0  0  0  0  0  0  0  0
   11.2726    4.1709  -14.3554 C   0  0  0  0  0  0  0  0  0  0  0  0
   12.7640    9.8841   -5.1669 C   0  0  0  0  0  0  0  0  0  0  0  0
   10.2020    7.3447   -4.8869 O   0  0  0  0  0  0  0  0  0  0  0  0
    9.2807    5.2234  -14.0940 C   0  0  0  0  0  0  0  0  0  0  0  0
    9.9511    4.1599  -14.4562 C   0  0  2  0  0  0  0  0  0  0  0  0
   11.8540    8.9171   -4.3609 C   0  0  0  0  0  0  0  0  0  0  0  0
    9.4020    2.9741  -13.9922 C   0  0  0  0  0  0  0  0  0  0  0  0
    8.0775    2.6860  -13.9460 O   0  0  0  0  0  0  0  0  0  0  0  0
   10.0446    2.1558  -13.3513 O   0  0  0  0  0  0  0  0  0  0  0  0
    7.1914    3.0971  -13.0197 C   0  0  0  0  0  0  0  0  0  0  0  0
    6.1146    2.1772  -12.8639 C   0  0  0  0  0  0  0  0  0  0  0  0
    5.1952    2.5308  -11.8712 C   0  0  0  0  0  0  0  0  0  0  0  0
    7.4987    6.2362  -11.1918 O   0  0  0  0  0  0  0  0  0  0  0  0
    7.1229    4.2745  -12.3199 C   0  0  0  0  0  0  0  0  0  0  0  0
    5.7430    3.9586  -11.3883 C   0  0  0  0  0  0  0  0  0  0  0  0
  1  2  1  0  0  0  0
  1 22  1  0  0  0  0
  2  3  1  6  0  0  0
  2 17  1  0  0  0  0
  3  4  1  0  0  0  0
  4  5  1  0  0  0  0
  4  6  2  0  0  0  0
  5  7  1  0  0  0  0
  5  8  2  0  0  0  0
  6 10  1  0  0  0  0
  8  9  1  0  0  0  0
  8 12  1  0  0  0  0
  9 11  2  0  0  0  0
  9 13  1  0  0  0  0
 10 12  2  0  0  0  0
 12 14  1  0  0  0  0
 13 16  1  0  0  0  0
 14 15  1  0  0  0  0
 14 20  1  1  0  0  0
 15 19  1  0  0  0  0
 15 24  2  0  0  0  0
 16 21  1  0  0  0  0
 17 18  1  0  0  0  0
 18 23  1  1  0  0  0
 18 26  1  0  0  0  0
 19 33  2  0  0  0  0
 19 34  1  0  0  0  0
 22 26  1  0  0  0  0
 24 25  1  0  0  0  0
 25 21  1  1  0  0  0
 25 27  1  0  0  0  0
 27 28  1  0  0  0  0
 27 29  2  0  0  0  0
 28 30  1  0  0  0  0
 30 31  2  0  0  0  0
 30 34  1  0  0  0  0
 31 32  1  0  0  0  0
 32 35  2  0  0  0  0
 34 35  2  0  0  0  0
M  END
$$$$

 OpenBabel10082411353D

 23 24  0  0  0  0  0  0  0  0999 V2000
   10.5338    9.5630   -5.0683 C   0  0  0  0  0  0  0  0  0  0  0  0
   11.6326    9.3232   -4.4343 C   0  0  0  0  0  0  0  0  0  0  0  0
   10.1175    8.4558   -5.9583 O   0  0  0  0  0  0  0  0  0  0  0  0
   11.2137    7.9307   -6.4519 C   0  0  1  0  0  0  0  0  0  0  0  0
   12.3805    8.4362   -5.4668 C   0  0  0  0  0  0  0  0  0  0  0  0
   11.1829    6.4410   -6.3835 C   0  0  0  0  0  0  0  0  0  0  0  0
   11.5307    8.4278   -7.8431 C   0  0  0  0  0  0  0  0  0  0  0  0
   10.9695    7.6928   -8.9182 C   0  0  0  0  0  0  0  0  0  0  0  0
   10.6724    8.2768  -10.0336 C   0  0  0  0  0  0  0  0  0  0  0  0
   10.0385    7.4564  -11.1366 C   0  0  0  0  0  0  0  0  0  0  0  0
   10.1397    6.1099  -11.1838 C   0  0  0  0  0  0  0  0  0  0  0  0
    9.3255    8.2273  -12.2243 C   0  0  0  0  0  0  0  0  0  0  0  0
    9.4818    5.3261  -11.9356 N   0  0  0  0  0  0  0  0  0  0  0  0
    9.1458    4.1362  -11.6259 C   0  0  0  0  0  0  0  0  0  0  0  0
    7.9187    8.5771  -11.8467 C   0  0  0  0  0  0  0  0  0  0  0  0
    8.5017    3.9760  -10.2907 C   0  0  0  0  0  0  0  0  0  0  0  0
    9.2225    4.2264   -9.1940 C   0  0  0  0  0  0  0  0  0  0  0  0
    8.5466    3.2744  -12.7339 C   0  0  0  0  0  0  0  0  0  0  0  0
    7.2670    2.9086  -12.8479 C   0  0  0  0  0  0  0  0  0  0  0  0
    9.3315    2.5647  -13.3888 C   0  0  0  0  0  0  0  0  0  0  0  0
    6.7273    2.1067  -13.8017 C   0  0  0  0  0  0  0  0  0  0  0  0
    8.9930    1.6654  -14.4338 C   0  0  0  0  0  0  0  0  0  0  0  0
    7.6871    1.4426  -14.5943 C   0  0  0  0  0  0  0  0  0  0  0  0
  1  2  1  0  0  0  0
  1  3  1  0  0  0  0
  2  5  1  0  0  0  0
  3  4  1  0  0  0  0
  4  5  1  0  0  0  0
  4  6  1  1  0  0  0
  4  7  1  0  0  0  0
  7  8  1  0  0  0  0
  8  9  2  3  0  0  0
  9 10  1  0  0  0  0
 10 11  2  3  0  0  0
 10 12  1  0  0  0  0
 11 13  1  0  0  0  0
 12 15  1  0  0  0  0
 13 14  2  3  0  0  0
 14 16  1  0  0  0  0
 14 18  1  0  0  0  0
 16 17  1  0  0  0  0
 18 19  1  0  0  0  0
 18 20  2  0  0  0  0
 19 21  2  0  0  0  0
 20 22  1  0  0  0  0
 21 23  1  0  0  0  0
 22 23  2  0  0  0  0
M  END
$$$$

 OpenBabel10082411353D

 35 41  0  0  0  0  0  0  0  0999 V2000
   13.1862    9.4584   -4.4987 C   0  0  0  0  0  0  0  0  0  0  0  0
   12.1466    8.8379   -3.9099 C   0  0  0  0  0  0  0  0  0  0  0  0
   12.9882    9.7409   -5.8618 C   0  0  0  0  0  0  0  0  0  0  0  0
   11.9761    9.3177   -6.5889 C   0  0  0  0  0  0  0  0  0  0  0  0
   10.9346    8.5066   -5.9096 C   0  0  0  0  0  0  0  0  0  0  0  0
   12.2569    8.5495   -2.4516 C   0  0  0  0  0  0  0  0  0  0  0  0
   11.0697    8.2577   -4.5299 C   0  0  0  0  0  0  0  0  0  0  0  0
   11.7350    9.5912   -7.9371 O   0  0  0  0  0  0  0  0  0  0  0  0
    9.7397    8.0780   -6.6393 C   0  0  0  0  0  0  0  0  0  0  0  0
   10.8649    8.8162   -8.5483 C   0  0  2  0  0  0  0  0  0  0  0  0
    9.2400    6.9866   -6.2549 O   0  0  0  0  0  0  0  0  0  0  0  0
   10.8576    9.1019   -9.9991 C   0  0  0  0  0  0  0  0  0  0  0  0
   11.8034    8.3801  -10.7004 C   0  0  0  0  0  0  0  0  0  0  0  0
    9.8033    8.2783   -8.0085 N   0  0  0  0  0  0  0  0  0  0  0  0
   11.4502    7.6515  -11.8595 C   0  0  0  0  0  0  0  0  0  0  0  0
   10.3061    7.2417  -12.2192 C   0  0  0  0  0  0  0  0  0  0  0  0
   12.5619    7.1376  -12.7423 C   0  0  0  0  0  0  0  0  0  0  0  0
    9.9519    6.4550  -13.3394 C   0  0  0  0  0  0  0  0  0  0  0  0
   12.3234    6.3860  -13.8374 C   0  0  0  0  0  0  0  0  0  0  0  0
   11.0086    6.0227  -14.1262 C   0  0  0  0  0  0  0  0  0  0  0  0
   10.7528    5.1903  -15.3140 C   0  0  0  0  0  0  0  0  0  0  0  0
   10.7272    3.7455  -15.1287 N   0  0  0  0  0  0  0  0  0  0  0  0
    9.8835    3.1820  -14.4607 C   0  0  0  0  0  0  0  0  0  0  0  0
    9.9418    1.8005  -14.3797 N   0  0  0  0  0  0  0  0  0  0  0  0
    8.5108    3.6485  -13.9676 C   0  0  0  0  0  0  0  0  0  0  0  0
    7.4839    2.7202  -13.6392 C   0  0  0  0  0  0  0  0  0  0  0  0
   11.1594    1.4102  -15.0263 O   0  0  0  0  0  0  0  0  0  0  0  0
   11.5806    2.7148  -15.4973 C   0  0  0  0  0  0  0  0  0  0  0  0
    8.1482    4.9455  -13.8318 C   0  0  2  0  0  0  0  0  0  0  0  0
    8.5688    6.1536  -13.5560 C   0  0  0  0  0  0  0  0  0  0  0  0
    7.6851    7.1904  -13.3092 C   0  0  0  0  0  0  0  0  0  0  0  0
    6.2526    6.5780  -13.2519 C   0  0  0  0  0  0  0  0  0  0  0  0
    6.6962    4.9443  -13.6142 N   0  0  0  0  0  0  0  0  0  0  0  0
    6.3413    3.6610  -13.2730 C   0  0  0  0  0  0  0  0  0  0  0  0
    5.1696    3.3230  -12.9340 O   0  0  0  0  0  0  0  0  0  0  0  0
  1  2  1  0  0  0  0
  1  3  2  0  0  0  0
  2  6  1  0  0  0  0
  2  7  2  0  0  0  0
  3  4  1  0  0  0  0
  4  5  2  0  0  0  0
  4  8  1  0  0  0  0
  5  7  1  0  0  0  0
  5  9  1  0  0  0  0
  8 10  1  0  0  0  0
  9 11  2  0  0  0  0
  9 14  1  0  0  0  0
 10 12  1  6  0  0  0
 10 14  1  0  0  0  0
 12 13  1  0  0  0  0
 13 15  1  0  0  0  0
 15 16  2  0  0  0  0
 15 17  1  0  0  0  0
 16 18  1  0  0  0  0
 17 19  2  0  0  0  0
 18 20  2  0  0  0  0
 18 30  1  0  0  0  0
 19 20  1  0  0  0  0
 20 21  1  0  0  0  0
 21 22  1  0  0  0  0
 22 23  1  0  0  0  0
 22 28  1  0  0  0  0
 23 24  2  0  0  0  0
 23 25  1  0  0  0  0
 24 27  1  0  0  0  0
 25 26  2  0  0  0  0
 26 34  1  0  0  0  0
 27 28  1  0  0  0  0
 29 25  1  1  0  0  0
 29 30  1  0  0  0  0
 29 33  1  0  0  0  0
 30 31  2  0  0  0  0
 31 32  1  0  0  0  0
 32 33  1  0  0  0  0
 33 34  1  0  0  0  0
 34 35  2  0  0  0  0
M  END
$$$$

 OpenBabel10082411353D

 35 39  0  0  0  0  0  0  0  0999 V2000
   13.2485    9.2493   -6.3668 O   0  0  0  0  0  0  0  0  0  0  0  0
   12.3055    9.1779   -7.4488 C   0  0  1  0  0  0  0  0  0  0  0  0
   12.5005    8.1033   -8.2440 C   0  0  0  0  0  0  0  0  0  0  0  0
   11.7072    8.0925   -9.4886 C   0  0  0  0  0  0  0  0  0  0  0  0
   12.2659    7.9483  -10.6668 C   0  0  0  0  0  0  0  0  0  0  0  0
   10.2869    8.0426   -9.4299 C   0  0  0  0  0  0  0  0  0  0  0  0
   13.6482    8.0497  -10.9162 O   0  0  0  0  0  0  0  0  0  0  0  0
   11.5356    7.8148  -11.9199 C   0  0  0  0  0  0  0  0  0  0  0  0
   12.2597    7.6523  -13.1838 C   0  0  0  0  0  0  0  0  0  0  0  0
    9.5345    7.8388  -10.6476 C   0  0  0  0  0  0  0  0  0  0  0  0
   12.7796    8.4277  -13.7325 O   0  0  0  0  0  0  0  0  0  0  0  0
   10.1724    7.7406  -11.8577 C   0  0  0  0  0  0  0  0  0  0  0  0
   12.4765    6.3392  -13.7439 N   0  0  0  0  0  0  0  0  0  0  0  0
    9.2368    7.4770  -13.0161 C   0  0  1  0  0  0  0  0  0  0  0  0
    8.7686    6.0601  -13.0538 C   0  0  0  0  0  0  0  0  0  0  0  0
   11.7377    5.1496  -13.1887 C   0  0  0  0  0  0  0  0  0  0  0  0
   10.9893    9.0510   -6.5404 C   0  0  0  0  0  0  0  0  0  0  0  0
   11.2522    8.1647   -5.3854 C   0  0  2  0  0  0  0  0  0  0  0  0
    7.8881    5.4892  -12.2818 C   0  0  0  0  0  0  0  0  0  0  0  0
    8.1030    8.4511  -12.9051 C   0  0  0  0  0  0  0  0  0  0  0  0
   11.2726    4.1709  -14.3554 C   0  0  0  0  0  0  0  0  0  0  0  0
   12.7640    9.8841   -5.1669 C   0  0  0  0  0  0  0  0  0  0  0  0
   10.2020    7.3447   -4.8869 O   0  0  0  0  0  0  0  0  0  0  0  0
    9.2807    5.2234  -14.0940 C   0  0  0  0  0  0  0  0  0  0  0  0
    9.9511    4.1599  -14.4562 C   0  0  2  0  0  0  0  0  0  0  0  0
   11.8540    8.9171   -4.3609 C   0  0  0  0  0  0  0  0  0  0  0  0
    9.4020    2.9741  -13.9922 C   0  0  0  0  0  0  0  0  0  0  0  0
    8.0775    2.6860  -13.9460 O   0  0  0  0  0  0  0  0  0  0  0  0
   10.0446    2.1558  -13.3513 O   0  0  0  0  0  0  0  0  0  0  0  0
    7.1914    3.0971  -13.0197 C   0  0  0  0  0  0  0  0  0  0  0  0
    6.1146    2.1772  -12.8639 C   0  0  0  0  0  0  0  0  0  0  0  0
    6.9754    4.3940  -12.4759 C   0  0  0  0  0  0  0  0  0  0  0  0
    5.7013    4.5713  -11.8455 C   0  0  0  0  0  0  0  0  0  0  0  0
    5.0113    2.4020  -12.2491 C   0  0  0  0  0  0  0  0  0  0  0  0
    4.8259    3.6005  -11.7062 C   0  0  0  0  0  0  0  0  0  0  0  0
  1  2  1  0  0  0  0
  1 22  1  0  0  0  0
  2  3  1  6  0  0  0
  2 17  1  0  0  0  0
  3  4  1  0  0  0  0
  4  5  1  0  0  0  0
  4  6  2  0  0  0  0
  5  7  1  0  0  0  0
  5  8  2  0  0  0  0
  6 10  1  0  0  0  0
  8  9  1  0  0  0  0
  8 12  1  0  0  0  0
  9 11  2  0  0  0  0
  9 13  1  0  0  0  0
 10 12  2  0  0  0  0
 12 14  1  0  0  0  0
 13 16  1  0  0  0  0
 14 15  1  0  0  0  0
 14 20  1  1  0  0  0
 15 19  1  0  0  0  0
 15 24  2  0  0  0  0
 16 21  1  0  0  0  0
 17 18  1  0  0  0  0
 18 23  1  1  0  0  0
 18 26  1  0  0  0  0
 19 32  1  0  0  0  0
 22 26  1  0  0  0  0
 24 25  1  0  0  0  0
 25 21  1  1  0  0  0
 25 27  1  0  0  0  0
 27 28  1  0  0  0  0
 27 29  2  0  0  0  0
 28 30  1  0  0  0  0
 30 31  1  0  0  0  0
 30 32  2  0  0  0  0
 31 34  2  0  0  0  0
 32 33  1  0  0  0  0
 33 35  2  0  0  0  0
 34 35  1  0  0  0  0
M  END
$$$$

 OpenBabel10082411353D

 35 39  0  0  0  0  0  0  0  0999 V2000
   11.6836    6.0105   -4.8831 C   0  0  0  0  0  0  0  0  0  0  0  0
   11.1291    7.0732   -5.4395 C   0  0  0  0  0  0  0  0  0  0  0  0
   10.6954    7.0156   -6.8073 C   0  0  0  0  0  0  0  0  0  0  0  0
   10.2502    8.1187   -7.5536 C   0  0  2  0  0  0  0  0  0  0  0  0
   11.1205    8.4712   -4.9629 C   0  0  0  0  0  0  0  0  0  0  0  0
   10.8655    8.3511   -8.7960 C   0  0  0  0  0  0  0  0  0  0  0  0
   10.2922    7.8843   -9.9985 C   0  0  0  0  0  0  0  0  0  0  0  0
   10.4654    9.6993   -5.6120 C   0  0  0  0  0  0  0  0  0  0  0  0
   10.3510    9.5971   -7.0014 C   0  0  0  0  0  0  0  0  0  0  0  0
   12.2462    6.3351   -3.5020 C   0  0  0  0  0  0  0  0  0  0  0  0
   11.0471    7.5309  -11.1063 C   0  0  0  0  0  0  0  0  0  0  0  0
   11.7288    8.6923   -3.6518 C   0  0  0  0  0  0  0  0  0  0  0  0
   12.3991    7.7501  -11.1145 C   0  0  0  0  0  0  0  0  0  0  0  0
   12.3738    7.7580   -2.9599 C   0  0  0  0  0  0  0  0  0  0  0  0
   13.1285    8.5075  -10.1661 O   0  0  0  0  0  0  0  0  0  0  0  0
    9.0407    7.3775  -10.0973 N   0  0  0  0  0  0  0  0  0  0  0  0
    8.9787    6.9473  -11.4664 N   0  0  0  0  0  0  0  0  0  0  0  0
   13.1012    7.4459  -12.3707 C   0  0  0  0  0  0  0  0  0  0  0  0
   12.2395    6.9724  -13.2444 C   0  0  0  0  0  0  0  0  0  0  0  0
   10.2768    7.0170  -11.9799 C   0  0  0  0  0  0  0  0  0  0  0  0
   12.9237    6.5822  -14.5759 O   0  0  0  0  0  0  0  0  0  0  0  0
   10.8906    6.6526  -13.2252 C   0  0  0  0  0  0  0  0  0  0  0  0
   12.2396    6.1290  -15.6916 C   0  0  0  0  0  0  0  0  0  0  0  0
    7.8036    6.1825  -11.9342 C   0  0  0  0  0  0  0  0  0  0  0  0
   12.5015    4.7115  -15.7686 C   0  0  0  0  0  0  0  0  0  0  0  0
   11.2371    3.8608  -15.4354 C   0  0  0  0  0  0  0  0  0  0  0  0
   10.7528    3.7938  -14.2514 C   0  0  0  0  0  0  0  0  0  0  0  0
    9.5139    2.8763  -14.1188 C   0  0  0  0  0  0  0  0  0  0  0  0
    8.4142    3.5280  -13.4436 C   0  0  0  0  0  0  0  0  0  0  0  0
    7.3718    6.7034  -13.1333 C   0  0  0  0  0  0  0  0  0  0  0  0
    5.7967    6.5816  -13.0476 C   0  0  0  0  0  0  0  0  0  0  0  0
    7.1897    2.9736  -13.5368 C   0  0  0  0  0  0  0  0  0  0  0  0
    7.1496    1.5799  -14.1014 C   0  0  0  0  0  0  0  0  0  0  0  0
    8.0727    0.9719  -14.3354 C   0  0  0  0  0  0  0  0  0  0  0  0
    9.4751    1.5790  -14.4234 C   0  0  0  0  0  0  0  0  0  0  0  0
  1  2  1  0  0  0  0
  1 10  2  0  0  0  0
  2  3  1  0  0  0  0
  2  5  2  0  0  0  0
  3  4  1  0  0  0  0
  4  6  1  6  0  0  0
  4  9  1  0  0  0  0
  5  8  1  0  0  0  0
  5 12  1  0  0  0  0
  6  7  1  0  0  0  0
  7 11  1  0  0  0  0
  7 16  2  0  0  0  0
  8  9  1  0  0  0  0
 10 14  1  0  0  0  0
 11 13  2  0  0  0  0
 11 20  1  0  0  0  0
 12 14  2  0  0  0  0
 13 15  1  0  0  0  0
 13 18  1  0  0  0  0
 16 17  1  0  0  0  0
 17 20  1  0  0  0  0
 17 24  1  0  0  0  0
 18 19  2  0  0  0  0
 19 21  1  0  0  0  0
 19 22  1  0  0  0  0
 20 22  2  0  0  0  0
 21 23  1  0  0  0  0
 23 25  1  0  0  0  0
 24 30  1  0  0  0  0
 25 26  1  0  0  0  0
 26 27  1  0  0  0  0
 27 28  1  0  0  0  0
 28 29  1  0  0  0  0
 28 35  2  0  0  0  0
 29 32  2  0  0  0  0
 30 31  1  0  0  0  0
 32 33  1  0  0  0  0
 33 34  2  0  0  0  0
 34 35  1  0  0  0  0
M  END
$$$$

 OpenBabel10082411353D

 35 39  0  0  0  0  0  0  0  0999 V2000
   11.6836    6.0105   -4.8831 C   0  0  0  0  0  0  0  0  0  0  0  0
   11.1291    7.0732   -5.4395 C   0  0  0  0  0  0  0  0  0  0  0  0
   10.6954    7.0156   -6.8073 C   0  0  0  0  0  0  0  0  0  0  0  0
   10.2502    8.1187   -7.5536 C   0  0  2  0  0  0  0  0  0  0  0  0
   11.1205    8.4712   -4.9629 C   0  0  0  0  0  0  0  0  0  0  0  0
   10.8655    8.3511   -8.7960 C   0  0  0  0  0  0  0  0  0  0  0  0
   10.2922    7.8843   -9.9985 C   0  0  0  0  0  0  0  0  0  0  0  0
   10.4654    9.6993   -5.6120 C   0  0  0  0  0  0  0  0  0  0  0  0
   10.3510    9.5971   -7.0014 C   0  0  0  0  0  0  0  0  0  0  0  0
   12.2462    6.3351   -3.5020 C   0  0  0  0  0  0  0  0  0  0  0  0
   11.0471    7.5309  -11.1063 C   0  0  0  0  0  0  0  0  0  0  0  0
   11.7288    8.6923   -3.6518 C   0  0  0  0  0  0  0  0  0  0  0  0
   12.3991    7.7501  -11.1145 C   0  0  0  0  0  0  0  0  0  0  0  0
   12.3738    7.7580   -2.9599 C   0  0  0  0  0  0  0  0  0  0  0  0
   13.1285    8.5075  -10.1661 O   0  0  0  0  0  0  0  0  0  0  0  0
    9.0407    7.3775  -10.0973 N   0  0  0  0  0  0  0  0  0  0  0  0
    8.9787    6.9473  -11.4664 N   0  0  0  0  0  0  0  0  0  0  0  0
   13.1012    7.4459  -12.3707 C   0  0  0  0  0  0  0  0  0  0  0  0
   12.2395    6.9724  -13.2444 C   0  0  0  0  0  0  0  0  0  0  0  0
   10.2768    7.0170  -11.9799 C   0  0  0  0  0  0  0  0  0  0  0  0
   12.9237    6.5822  -14.5759 O   0  0  0  0  0  0  0  0  0  0  0  0
   10.8906    6.6526  -13.2252 C   0  0  0  0  0  0  0  0  0  0  0  0
   12.2396    6.1290  -15.6916 C   0  0  0  0  0  0  0  0  0  0  0  0
    7.8036    6.1825  -11.9342 C   0  0  0  0  0  0  0  0  0  0  0  0
   12.5015    4.7115  -15.7686 C   0  0  0  0  0  0  0  0  0  0  0  0
    7.1685    6.9992  -12.8245 C   0  0  0  0  0  0  0  0  0  0  0  0
   11.2461    3.8540  -15.4851 C   0  0  0  0  0  0  0  0  0  0  0  0
    7.6237    4.9154  -11.6529 C   0  0  0  0  0  0  0  0  0  0  0  0
    6.0177    6.2707  -13.3932 C   0  0  0  0  0  0  0  0  0  0  0  0
   10.6165    3.9039  -14.4137 C   0  0  0  0  0  0  0  0  0  0  0  0
    6.6584    4.2061  -12.2277 C   0  0  0  0  0  0  0  0  0  0  0  0
    7.3655    8.3459  -13.1625 C   0  0  0  0  0  0  0  0  0  0  0  0
    5.7563    4.9505  -13.1493 C   0  0  0  0  0  0  0  0  0  0  0  0
   10.7208    2.8752  -13.4702 O   0  0  0  0  0  0  0  0  0  0  0  0
    9.7693    4.7733  -14.0331 O   0  0  0  0  0  0  0  0  0  0  0  0
  1  2  1  0  0  0  0
  1 10  2  0  0  0  0
  2  3  1  0  0  0  0
  2  5  2  0  0  0  0
  3  4  1  0  0  0  0
  4  6  1  6  0  0  0
  4  9  1  0  0  0  0
  5  8  1  0  0  0  0
  5 12  1  0  0  0  0
  6  7  1  0  0  0  0
  7 11  1  0  0  0  0
  7 16  2  0  0  0  0
  8  9  1  0  0  0  0
 10 14  1  0  0  0  0
 11 13  2  0  0  0  0
 11 20  1  0  0  0  0
 12 14  2  0  0  0  0
 13 15  1  0  0  0  0
 13 18  1  0  0  0  0
 16 17  1  0  0  0  0
 17 20  1  0  0  0  0
 17 24  1  0  0  0  0
 18 19  2  0  0  0  0
 19 21  1  0  0  0  0
 19 22  1  0  0  0  0
 20 22  2  0  0  0  0
 21 23  1  0  0  0  0
 23 25  1  0  0  0  0
 24 26  2  0  0  0  0
 24 28  1  0  0  0  0
 25 27  1  0  0  0  0
 26 29  1  0  0  0  0
 26 32  1  0  0  0  0
 27 30  1  0  0  0  0
 28 31  2  0  0  0  0
 29 33  2  0  0  0  0
 30 34  1  0  0  0  0
 30 35  2  0  0  0  0
 31 33  1  0  0  0  0
M  END
$$$$

 OpenBabel10082411353D

 35 40  0  0  0  0  0  0  0  0999 V2000
   12.8881    8.7759   -3.5681 C   0  0  0  0  0  0  0  0  0  0  0  0
   11.9416    9.4732   -4.1220 C   0  0  0  0  0  0  0  0  0  0  0  0
   12.1782    9.3707   -5.6407 C   0  0  0  0  0  0  0  0  0  0  0  0
   11.3825    8.3447   -6.3966 C   0  0  0  0  0  0  0  0  0  0  0  0
   11.8188    8.0044   -7.6822 C   0  0  0  0  0  0  0  0  0  0  0  0
   10.3120    7.6600   -5.7120 C   0  0  0  0  0  0  0  0  0  0  0  0
   10.8678    7.0723   -8.2897 C   0  0  0  0  0  0  0  0  0  0  0  0
    9.5717    6.7245   -6.3809 C   0  0  0  0  0  0  0  0  0  0  0  0
    9.8820    6.4468   -7.7081 C   0  0  0  0  0  0  0  0  0  0  0  0
   11.2611    6.6953   -9.7105 C   0  0  1  0  0  0  0  0  0  0  0  0
   10.0425    6.5460  -10.5971 C   0  0  0  0  0  0  0  0  0  0  0  0
   11.8062    7.8130  -10.4883 C   0  0  0  0  0  0  0  0  0  0  0  0
    8.8746    5.5265   -8.4149 C   0  0  0  0  0  0  0  0  0  0  0  0
   13.1546    8.1022  -10.4049 O   0  0  0  0  0  0  0  0  0  0  0  0
   10.3114    6.7627  -11.8786 C   0  0  0  0  0  0  0  0  0  0  0  0
   11.3906    7.6694  -11.8036 N   0  0  0  0  0  0  0  0  0  0  0  0
   11.9779    8.2398  -13.0316 C   0  0  0  0  0  0  0  0  0  0  0  0
    8.8154    6.0162   -9.9613 C   0  0  0  0  0  0  0  0  0  0  0  0
    9.6102    6.3636  -13.0859 C   0  0  0  0  0  0  0  0  0  0  0  0
   11.8804    7.4718  -14.1937 C   0  0  0  0  0  0  0  0  0  0  0  0
   10.7017    6.3981  -14.2482 C   0  0  0  0  0  0  0  0  0  0  0  0
   10.3813    5.8427  -15.4547 C   0  0  0  0  0  0  0  0  0  0  0  0
    9.2579    5.0507  -15.6184 C   0  0  0  0  0  0  0  0  0  0  0  0
   12.6748    7.4257  -15.2457 C   0  0  0  0  0  0  0  0  0  0  0  0
    9.3685    3.7401  -15.1559 C   0  0  0  0  0  0  0  0  0  0  0  0
   11.4448    5.9436  -16.3841 C   0  0  0  0  0  0  0  0  0  0  0  0
    8.3308    3.1061  -14.4825 C   0  0  0  0  0  0  0  0  0  0  0  0
   12.5097    6.7445  -16.2996 C   0  0  0  0  0  0  0  0  0  0  0  0
    8.5965    1.7263  -14.0307 C   0  0  0  0  0  0  0  0  0  0  0  0
   10.6046    2.9384  -15.3659 C   0  0  0  0  0  0  0  0  0  0  0  0
    7.3860    1.1151  -13.4295 C   0  0  0  0  0  0  0  0  0  0  0  0
   10.7717    1.8876  -14.7644 C   0  0  0  0  0  0  0  0  0  0  0  0
    9.7090    1.1461  -14.1869 C   0  0  0  0  0  0  0  0  0  0  0  0
    7.4479   -0.1878  -13.3422 O   0  0  0  0  0  0  0  0  0  0  0  0
    6.3823    1.6826  -13.0096 O   0  0  0  0  0  0  0  0  0  0  0  0
  1  2  1  0  0  0  0
  2  3  1  0  0  0  0
  3  4  1  0  0  0  0
  4  5  2  0  0  0  0
  4  6  1  0  0  0  0
  5  7  1  0  0  0  0
  6  8  2  0  0  0  0
  7  9  2  0  0  0  0
  8  9  1  0  0  0  0
  9 13  1  0  0  0  0
 10  7  1  1  0  0  0
 10 11  1  0  0  0  0
 10 12  1  0  0  0  0
 11 15  2  0  0  0  0
 11 18  1  0  0  0  0
 12 14  2  0  0  0  0
 12 16  1  0  0  0  0
 13 18  1  0  0  0  0
 15 16  1  0  0  0  0
 15 19  1  0  0  0  0
 16 17  1  0  0  0  0
 17 20  1  0  0  0  0
 19 21  1  0  0  0  0
 20 21  2  0  0  0  0
 20 24  1  0  0  0  0
 21 22  1  0  0  0  0
 22 23  1  0  0  0  0
 22 26  2  0  0  0  0
 23 25  1  0  0  0  0
 24 28  2  0  0  0  0
 25 27  2  0  0  0  0
 25 30  1  0  0  0  0
 26 28  1  0  0  0  0
 27 29  1  0  0  0  0
 29 31  1  0  0  0  0
 29 33  2  0  0  0  0
 30 32  2  0  0  0  0
 31 34  1  0  0  0  0
 31 35  2  0  0  0  0
 32 33  1  0  0  0  0
M  END
$$$$

 OpenBabel10082411353D

 35 38  0  0  0  0  0  0  0  0999 V2000
   10.9951    9.9694   -4.9946 C   0  0  0  0  0  0  0  0  0  0  0  0
   11.7938    9.3762   -4.2463 C   0  0  0  0  0  0  0  0  0  0  0  0
   10.8673    9.4548   -6.4276 C   0  0  0  0  0  0  0  0  0  0  0  0
   11.6576    7.9117   -4.2944 C   0  0  0  0  0  0  0  0  0  0  0  0
   10.5498    8.0257   -6.4521 C   0  0  0  0  0  0  0  0  0  0  0  0
   11.4715    7.2752   -5.6166 C   0  0  0  0  0  0  0  0  0  0  0  0
   10.5840    7.5390   -7.9254 C   0  0  0  0  0  0  0  0  0  0  0  0
   11.4612    8.1494   -8.8322 C   0  0  0  0  0  0  0  0  0  0  0  0
   12.6250    8.6294   -8.4338 O   0  0  0  0  0  0  0  0  0  0  0  0
   11.0835    8.4395  -10.0740 O   0  0  0  0  0  0  0  0  0  0  0  0
   11.2938    7.5612  -11.0769 C   0  0  0  0  0  0  0  0  0  0  0  0
   10.1547    7.2525  -11.9492 C   0  0  0  0  0  0  0  0  0  0  0  0
   10.4293    6.5622  -13.1348 C   0  0  0  0  0  0  0  0  0  0  0  0
   11.7295    6.4217  -13.6243 C   0  0  0  0  0  0  0  0  0  0  0  0
    8.8120    7.3918  -11.4649 C   0  0  0  0  0  0  0  0  0  0  0  0
   12.5351    7.8894  -11.6869 C   0  0  0  0  0  0  0  0  0  0  0  0
   13.5778    8.4243  -10.9673 O   0  0  0  0  0  0  0  0  0  0  0  0
    7.7211    7.1761  -12.4323 C   0  0  0  0  0  0  0  0  0  0  0  0
   12.8103    7.0723  -12.8897 C   0  0  0  0  0  0  0  0  0  0  0  0
    7.0543    5.9667  -12.3369 C   0  0  0  0  0  0  0  0  0  0  0  0
    7.2392    8.1844  -13.1320 C   0  0  0  0  0  0  0  0  0  0  0  0
    6.6882    5.3848  -13.5016 O   0  0  0  0  0  0  0  0  0  0  0  0
    6.5103    5.5543  -11.3870 O   0  0  0  0  0  0  0  0  0  0  0  0
    7.4031    4.0506  -13.7852 C   0  0  0  0  0  0  0  0  0  0  0  0
    8.6811    3.9966  -14.1333 C   0  0  0  0  0  0  0  0  0  0  0  0
   12.0732    5.6649  -14.9357 C   0  0  0  0  0  0  0  0  0  0  0  0
    6.5842    3.0104  -13.4449 C   0  0  0  0  0  0  0  0  0  0  0  0
   12.1810    6.3505  -15.9550 C   0  0  0  0  0  0  0  0  0  0  0  0
   12.4265    5.3943  -17.1098 C   0  0  0  0  0  0  0  0  0  0  0  0
   11.9184    4.2576  -14.8844 C   0  0  0  0  0  0  0  0  0  0  0  0
   12.0158    3.4782  -15.9106 C   0  0  0  0  0  0  0  0  0  0  0  0
    9.2148    2.7501  -14.3419 C   0  0  0  0  0  0  0  0  0  0  0  0
    7.1383    1.7713  -13.6522 C   0  0  0  0  0  0  0  0  0  0  0  0
    8.4540    1.5743  -14.0454 C   0  0  0  0  0  0  0  0  0  0  0  0
   12.3245    4.1757  -17.1330 C   0  0  0  0  0  0  0  0  0  0  0  0
  1  2  1  0  0  0  0
  1  3  1  0  0  0  0
  2  4  1  0  0  0  0
  3  5  1  0  0  0  0
  4  6  1  0  0  0  0
  5  6  1  0  0  0  0
  5  7  1  0  0  0  0
  7  8  1  0  0  0  0
  8  9  2  0  0  0  0
  8 10  1  0  0  0  0
 10 11  1  0  0  0  0
 11 12  1  0  0  0  0
 11 16  2  0  0  0  0
 12 13  2  0  0  0  0
 12 15  1  0  0  0  0
 13 14  1  0  0  0  0
 14 19  2  0  0  0  0
 14 26  1  0  0  0  0
 15 18  1  0  0  0  0
 16 17  1  0  0  0  0
 16 19  1  0  0  0  0
 18 20  1  0  0  0  0
 18 21  2  0  0  0  0
 20 22  1  0  0  0  0
 20 23  2  0  0  0  0
 22 24  1  0  0  0  0
 24 25  1  0  0  0  0
 24 27  2  0  0  0  0
 25 32  2  0  0  0  0
 26 28  2  0  0  0  0
 26 30  1  0  0  0  0
 27 33  1  0  0  0  0
 28 29  1  0  0  0  0
 29 35  2  0  0  0  0
 30 31  2  0  0  0  0
 31 35  1  0  0  0  0
 32 34  1  0  0  0  0
 33 34  2  0  0  0  0
M  END
$$$$

 OpenBabel10082411353D

 35 40  0  0  0  0  0  0  0  0999 V2000
   12.8881    8.7759   -3.5681 C   0  0  0  0  0  0  0  0  0  0  0  0
   11.9416    9.4732   -4.1220 C   0  0  0  0  0  0  0  0  0  0  0  0
   12.1782    9.3707   -5.6407 C   0  0  0  0  0  0  0  0  0  0  0  0
   11.3825    8.3447   -6.3966 C   0  0  0  0  0  0  0  0  0  0  0  0
   11.8188    8.0044   -7.6822 C   0  0  0  0  0  0  0  0  0  0  0  0
   10.3120    7.6600   -5.7120 C   0  0  0  0  0  0  0  0  0  0  0  0
   10.8678    7.0723   -8.2897 C   0  0  0  0  0  0  0  0  0  0  0  0
    9.5717    6.7245   -6.3809 C   0  0  0  0  0  0  0  0  0  0  0  0
    9.8820    6.4468   -7.7081 C   0  0  0  0  0  0  0  0  0  0  0  0
   11.2611    6.6953   -9.7105 C   0  0  1  0  0  0  0  0  0  0  0  0
   10.0425    6.5460  -10.5971 C   0  0  0  0  0  0  0  0  0  0  0  0
   11.8062    7.8130  -10.4883 C   0  0  0  0  0  0  0  0  0  0  0  0
    8.8746    5.5265   -8.4149 C   0  0  0  0  0  0  0  0  0  0  0  0
   13.1546    8.1022  -10.4049 O   0  0  0  0  0  0  0  0  0  0  0  0
   10.3114    6.7627  -11.8786 C   0  0  0  0  0  0  0  0  0  0  0  0
   11.3906    7.6694  -11.8036 N   0  0  0  0  0  0  0  0  0  0  0  0
   11.9779    8.2398  -13.0316 C   0  0  0  0  0  0  0  0  0  0  0  0
    8.8154    6.0162   -9.9613 C   0  0  0  0  0  0  0  0  0  0  0  0
    9.6102    6.3636  -13.0859 C   0  0  0  0  0  0  0  0  0  0  0  0
   11.8804    7.4718  -14.1937 C   0  0  0  0  0  0  0  0  0  0  0  0
   10.7017    6.3981  -14.2482 C   0  0  0  0  0  0  0  0  0  0  0  0
   10.3813    5.8427  -15.4547 C   0  0  0  0  0  0  0  0  0  0  0  0
    9.2579    5.0507  -15.6184 C   0  0  0  0  0  0  0  0  0  0  0  0
   12.6748    7.4257  -15.2457 C   0  0  0  0  0  0  0  0  0  0  0  0
    9.3685    3.7401  -15.1559 C   0  0  0  0  0  0  0  0  0  0  0  0
   11.4448    5.9436  -16.3841 C   0  0  0  0  0  0  0  0  0  0  0  0
    8.3308    3.1061  -14.4825 C   0  0  0  0  0  0  0  0  0  0  0  0
   12.5097    6.7445  -16.2996 C   0  0  0  0  0  0  0  0  0  0  0  0
    8.5965    1.7263  -14.0307 C   0  0  0  0  0  0  0  0  0  0  0  0
   10.6046    2.9384  -15.3659 C   0  0  0  0  0  0  0  0  0  0  0  0
    7.3860    1.1151  -13.4295 C   0  0  0  0  0  0  0  0  0  0  0  0
   10.7717    1.8876  -14.7644 C   0  0  0  0  0  0  0  0  0  0  0  0
    9.6767    1.1135  -14.1997 C   0  0  0  0  0  0  0  0  0  0  0  0
    6.3555    1.8259  -12.8910 C   0  0  0  0  0  0  0  0  0  0  0  0
    5.4485    1.2006  -12.0085 C   0  0  0  0  0  0  0  0  0  0  0  0
  1  2  1  0  0  0  0
  2  3  1  0  0  0  0
  3  4  1  0  0  0  0
  4  5  2  0  0  0  0
  4  6  1  0  0  0  0
  5  7  1  0  0  0  0
  6  8  2  0  0  0  0
  7  9  2  0  0  0  0
  8  9  1  0  0  0  0
  9 13  1  0  0  0  0
 10  7  1  1  0  0  0
 10 11  1  0  0  0  0
 10 12  1  0  0  0  0
 11 15  2  0  0  0  0
 11 18  1  0  0  0  0
 12 14  2  0  0  0  0
 12 16  1  0  0  0  0
 13 18  1  0  0  0  0
 15 16  1  0  0  0  0
 15 19  1  0  0  0  0
 16 17  1  0  0  0  0
 17 20  1  0  0  0  0
 19 21  1  0  0  0  0
 20 21  2  0  0  0  0
 20 24  1  0  0  0  0
 21 22  1  0  0  0  0
 22 23  1  0  0  0  0
 22 26  2  0  0  0  0
 23 25  1  0  0  0  0
 24 28  2  0  0  0  0
 25 27  2  0  0  0  0
 25 30  1  0  0  0  0
 26 28  1  0  0  0  0
 27 29  1  0  0  0  0
 29 31  1  0  0  0  0
 29 33  2  0  0  0  0
 30 32  2  0  0  0  0
 31 34  2  3  0  0  0
 32 33  1  0  0  0  0
 34 35  1  0  0  0  0
M  END
$$$$

 OpenBabel10082411353D

 35 44  0  0  0  0  0  0  0  0999 V2000
    8.0806    9.0240  -12.7589 C   0  0  0  0  0  0  0  0  0  0  0  0
    8.6514    7.8645  -12.2948 C   0  0  0  0  0  0  0  0  0  0  0  0
    9.9575    7.9974  -11.8426 C   0  0  0  0  0  0  0  0  0  0  0  0
   10.7657    6.8667  -11.6050 C   0  0  1  0  0  0  0  0  0  0  0  0
   10.7682    5.9590  -12.8271 C   0  0  0  0  0  0  0  0  0  0  0  0
   12.1553    7.3846  -11.2315 C   0  0  0  0  0  0  0  0  0  0  0  0
    8.0676    6.6451  -12.2974 C   0  0  0  0  0  0  0  0  0  0  0  0
   10.1892    6.1240  -10.3860 C   0  0  0  0  0  0  0  0  0  0  0  0
   11.8375    5.4373  -13.3240 O   0  0  0  0  0  0  0  0  0  0  0  0
    8.6785    5.4761  -13.0273 C   0  0  1  0  0  0  0  0  0  0  0  0
    9.1969    5.2405  -10.4969 C   0  0  1  0  0  0  0  0  0  0  0  0
    7.2213    6.2210  -11.3074 C   0  0  1  0  0  0  0  0  0  0  0  0
   12.5590    7.6872   -9.9896 C   0  0  0  0  0  0  0  0  0  0  0  0
    9.7633    5.0333  -12.9720 C   0  0  1  0  0  0  0  0  0  0  0  0
   10.0661    4.0167  -14.0373 N   0  0  0  0  0  0  0  0  0  0  0  0
   13.6906    8.3004   -9.6233 O   0  0  0  0  0  0  0  0  0  0  0  0
    7.6357    4.5123  -12.6317 C   0  0  2  0  0  0  0  0  0  0  0  0
    6.8831    4.9171  -11.7031 C   0  0  1  0  0  0  0  0  0  0  0  0
   10.5937    6.6967   -9.1779 C   0  0  0  0  0  0  0  0  0  0  0  0
    9.5087    4.3263  -11.6925 C   0  0  2  0  0  0  0  0  0  0  0  0
   11.6359    7.4449   -8.9125 C   0  0  0  0  0  0  0  0  0  0  0  0
   11.9716    7.9159   -7.6200 C   0  0  0  0  0  0  0  0  0  0  0  0
    8.4648    3.6122  -12.2840 C   0  0  2  0  0  0  0  0  0  0  0  0
    9.3128    4.5571   -9.1689 C   0  0  0  0  0  0  0  0  0  0  0  0
   10.9557    7.6369   -6.5929 C   0  0  0  0  0  0  0  0  0  0  0  0
    9.6490    2.8108  -13.7776 C   0  0  0  0  0  0  0  0  0  0  0  0
   10.2419    1.7839  -14.4904 O   0  0  0  0  0  0  0  0  0  0  0  0
    9.8235    6.3429   -8.0308 C   0  0  0  0  0  0  0  0  0  0  0  0
    8.5421    2.5419  -13.1600 C   0  0  0  0  0  0  0  0  0  0  0  0
   10.0139    6.8647   -6.7816 C   0  0  0  0  0  0  0  0  0  0  0  0
    8.9641    5.2626   -8.0936 N   0  0  0  0  0  0  0  0  0  0  0  0
    7.9178    5.6594  -10.4374 C   0  0  1  0  0  0  0  0  0  0  0  0
   11.2467    8.3685   -5.1947 C   0  0  0  0  0  0  0  0  0  0  0  0
   11.5422    9.8380   -5.2891 C   0  0  0  0  0  0  0  0  0  0  0  0
   11.8562    7.6642   -4.2356 C   0  0  0  0  0  0  0  0  0  0  0  0
  1  2  1  0  0  0  0
  2  3  1  0  0  0  0
  2  7  2  0  0  0  0
  4  3  1  6  0  0  0
  4  5  1  0  0  0  0
  4  6  1  0  0  0  0
  4  8  1  0  0  0  0
  5  9  2  0  0  0  0
  6 13  1  0  0  0  0
  8 11  1  0  0  0  0
  8 19  2  0  0  0  0
 10  7  1  1  0  0  0
 10 14  1  0  0  0  0
 10 17  1  0  0  0  0
 11 20  1  0  0  0  0
 11 24  1  1  0  0  0
 11 32  1  0  0  0  0
 12  7  1  6  0  0  0
 12 18  1  0  0  0  0
 12 32  1  0  0  0  0
 13 16  2  0  0  0  0
 13 21  1  0  0  0  0
 14  5  1  1  0  0  0
 14 15  1  0  0  0  0
 14 20  1  0  0  0  0
 15 26  1  0  0  0  0
 17 18  1  0  0  0  0
 17 23  1  0  0  0  0
 18 32  1  0  0  0  0
 19 21  1  0  0  0  0
 19 28  1  0  0  0  0
 20 23  1  0  0  0  0
 21 22  2  0  0  0  0
 22 25  1  0  0  0  0
 23 29  1  0  0  0  0
 24 31  1  0  0  0  0
 25 30  2  0  0  0  0
 25 33  1  0  0  0  0
 26 27  2  0  0  0  0
 26 29  1  0  0  0  0
 28 30  1  0  0  0  0
 28 31  2  0  0  0  0
 33 34  1  0  0  0  0
 33 35  1  0  0  0  0
M  END
$$$$

 OpenBabel10082411353D

 35 41  0  0  0  0  0  0  0  0999 V2000
   13.1862    9.4584   -4.4987 C   0  0  0  0  0  0  0  0  0  0  0  0
   12.1466    8.8379   -3.9099 C   0  0  0  0  0  0  0  0  0  0  0  0
   12.9882    9.7409   -5.8618 C   0  0  0  0  0  0  0  0  0  0  0  0
   11.9761    9.3177   -6.5889 C   0  0  0  0  0  0  0  0  0  0  0  0
   10.9346    8.5066   -5.9096 C   0  0  0  0  0  0  0  0  0  0  0  0
   12.2569    8.5495   -2.4516 C   0  0  0  0  0  0  0  0  0  0  0  0
   11.0697    8.2577   -4.5299 C   0  0  0  0  0  0  0  0  0  0  0  0
   11.7350    9.5912   -7.9371 O   0  0  0  0  0  0  0  0  0  0  0  0
    9.7397    8.0780   -6.6393 C   0  0  0  0  0  0  0  0  0  0  0  0
   10.8649    8.8162   -8.5483 C   0  0  2  0  0  0  0  0  0  0  0  0
    9.2400    6.9866   -6.2549 O   0  0  0  0  0  0  0  0  0  0  0  0
   10.8576    9.1019   -9.9991 C   0  0  0  0  0  0  0  0  0  0  0  0
   11.8034    8.3801  -10.7004 C   0  0  0  0  0  0  0  0  0  0  0  0
    9.8033    8.2783   -8.0085 N   0  0  0  0  0  0  0  0  0  0  0  0
   11.4502    7.6515  -11.8595 C   0  0  0  0  0  0  0  0  0  0  0  0
   10.3061    7.2417  -12.2192 C   0  0  0  0  0  0  0  0  0  0  0  0
   12.5619    7.1376  -12.7423 C   0  0  0  0  0  0  0  0  0  0  0  0
    9.9519    6.4550  -13.3394 C   0  0  0  0  0  0  0  0  0  0  0  0
   12.3234    6.3860  -13.8374 C   0  0  0  0  0  0  0  0  0  0  0  0
   11.0086    6.0227  -14.1262 C   0  0  0  0  0  0  0  0  0  0  0  0
   10.7528    5.1903  -15.3140 C   0  0  0  0  0  0  0  0  0  0  0  0
   10.7272    3.7455  -15.1287 N   0  0  0  0  0  0  0  0  0  0  0  0
    9.8835    3.1820  -14.4607 C   0  0  0  0  0  0  0  0  0  0  0  0
    9.9418    1.8005  -14.3797 N   0  0  0  0  0  0  0  0  0  0  0  0
    8.5108    3.6485  -13.9676 C   0  0  0  0  0  0  0  0  0  0  0  0
    7.4839    2.7202  -13.6392 C   0  0  0  0  0  0  0  0  0  0  0  0
   11.1594    1.4102  -15.0263 O   0  0  0  0  0  0  0  0  0  0  0  0
   11.5806    2.7148  -15.4973 C   0  0  0  0  0  0  0  0  0  0  0  0
    8.1482    4.9455  -13.8318 C   0  0  0  0  0  0  0  0  0  0  0  0
    8.5688    6.1536  -13.5560 C   0  0  0  0  0  0  0  0  0  0  0  0
    7.6851    7.1904  -13.3092 C   0  0  0  0  0  0  0  0  0  0  0  0
    6.3091    6.9783  -13.2955 C   0  0  0  0  0  0  0  0  0  0  0  0
    6.6662    4.5684  -13.4213 C   0  0  0  0  0  0  0  0  0  0  0  0
    6.3652    3.4007  -13.1941 O   0  0  0  0  0  0  0  0  0  0  0  0
    5.8314    5.7565  -13.1994 C   0  0  0  0  0  0  0  0  0  0  0  0
  1  2  1  0  0  0  0
  1  3  2  0  0  0  0
  2  6  1  0  0  0  0
  2  7  2  0  0  0  0
  3  4  1  0  0  0  0
  4  5  2  0  0  0  0
  4  8  1  0  0  0  0
  5  7  1  0  0  0  0
  5  9  1  0  0  0  0
  8 10  1  0  0  0  0
  9 11  2  0  0  0  0
  9 14  1  0  0  0  0
 10 12  1  6  0  0  0
 10 14  1  0  0  0  0
 12 13  1  0  0  0  0
 13 15  1  0  0  0  0
 15 16  2  0  0  0  0
 15 17  1  0  0  0  0
 16 18  1  0  0  0  0
 17 19  2  0  0  0  0
 18 20  2  0  0  0  0
 18 30  1  0  0  0  0
 19 20  1  0  0  0  0
 20 21  1  0  0  0  0
 21 22  1  0  0  0  0
 22 23  1  0  0  0  0
 22 28  1  0  0  0  0
 23 24  2  0  0  0  0
 23 25  1  0  0  0  0
 24 27  1  0  0  0  0
 25 26  2  0  0  0  0
 25 29  1  0  0  0  0
 26 34  1  0  0  0  0
 27 28  1  0  0  0  0
 29 30  1  0  0  0  0
 29 33  2  0  0  0  0
 30 31  2  0  0  0  0
 31 32  1  0  0  0  0
 32 35  2  0  0  0  0
 33 34  1  0  0  0  0
 33 35  1  0  0  0  0
M  END
$$$$

 OpenBabel10082411353D

 35 39  0  0  0  0  0  0  0  0999 V2000
   11.6836    6.0105   -4.8831 F   0  0  0  0  0  0  0  0  0  0  0  0
   11.2562    7.2206   -5.0294 C   0  0  0  0  0  0  0  0  0  0  0  0
   12.0125    8.2418   -4.4408 C   0  0  0  0  0  0  0  0  0  0  0  0
   11.1918    7.2706   -6.5237 C   0  0  0  0  0  0  0  0  0  0  0  0
   11.6999    8.4488   -3.1704 F   0  0  0  0  0  0  0  0  0  0  0  0
    9.8648    7.0908   -4.5314 F   0  0  0  0  0  0  0  0  0  0  0  0
   11.6831    8.5291   -6.9682 C   0  0  0  0  0  0  0  0  0  0  0  0
   10.4785    6.5189   -7.4033 C   0  0  0  0  0  0  0  0  0  0  0  0
   11.6979    8.6661   -8.4760 C   0  0  0  0  0  0  0  0  0  0  0  0
   11.6248    9.5853   -5.0030 C   0  0  0  0  0  0  0  0  0  0  0  0
   11.8604    9.7907   -6.2903 O   0  0  0  0  0  0  0  0  0  0  0  0
   13.3557    8.1748   -4.5947 F   0  0  0  0  0  0  0  0  0  0  0  0
   10.5427    6.6061   -8.7190 C   0  0  0  0  0  0  0  0  0  0  0  0
   11.1158    7.7103   -9.2540 C   0  0  0  0  0  0  0  0  0  0  0  0
   11.3757    7.6656  -10.5293 N   0  0  0  0  0  0  0  0  0  0  0  0
   10.7153    7.7096  -11.5405 C   0  0  0  0  0  0  0  0  0  0  0  0
   11.2483    7.4711  -12.8542 C   0  0  0  0  0  0  0  0  0  0  0  0
    9.3980    7.7820  -11.5398 C   0  0  0  0  0  0  0  0  0  0  0  0
    8.6055    7.5889  -12.6525 C   0  0  0  0  0  0  0  0  0  0  0  0
   12.7508    7.3705  -13.0162 O   0  0  0  0  0  0  0  0  0  0  0  0
   10.5299    7.1831  -13.9856 C   0  0  0  0  0  0  0  0  0  0  0  0
    7.0533    7.7371  -12.5396 C   0  0  0  0  0  0  0  0  0  0  0  0
   11.2041    6.8490  -15.2304 C   0  0  0  0  0  0  0  0  0  0  0  0
   11.6393    5.5333  -15.3864 C   0  0  0  0  0  0  0  0  0  0  0  0
    9.1955    7.2935  -13.8301 C   0  0  0  0  0  0  0  0  0  0  0  0
   12.5294    5.1116  -16.1609 C   0  0  0  0  0  0  0  0  0  0  0  0
   11.2315    4.4703  -14.3200 C   0  0  0  0  0  0  0  0  0  0  0  0
   13.0194    6.0876  -17.1697 C   0  0  0  0  0  0  0  0  0  0  0  0
   12.9874    3.8316  -16.1456 C   0  0  0  0  0  0  0  0  0  0  0  0
   12.3949    2.9126  -15.4671 C   0  0  0  0  0  0  0  0  0  0  0  0
   10.2274    4.8149  -13.2643 C   0  0  0  0  0  0  0  0  0  0  0  0
    8.9564    4.3798  -13.5553 C   0  0  0  0  0  0  0  0  0  0  0  0
    8.7030    2.9995  -13.6113 C   0  0  0  0  0  0  0  0  0  0  0  0
    9.7992    2.3267  -14.3141 C   0  0  0  0  0  0  0  0  0  0  0  0
   11.0677    3.1702  -14.6270 C   0  0  0  0  0  0  0  0  0  0  0  0
  1  2  1  0  0  0  0
  2  3  1  0  0  0  0
  2  4  1  0  0  0  0
  2  6  1  0  0  0  0
  3  5  1  0  0  0  0
  3 10  1  0  0  0  0
  3 12  1  0  0  0  0
  4  7  1  0  0  0  0
  4  8  2  0  0  0  0
  7  9  2  0  0  0  0
  7 11  1  0  0  0  0
  8 13  1  0  0  0  0
  9 14  1  0  0  0  0
 10 11  1  0  0  0  0
 13 14  2  0  0  0  0
 14 15  1  0  0  0  0
 15 16  1  0  0  0  0
 16 17  1  0  0  0  0
 16 18  2  0  0  0  0
 17 20  1  0  0  0  0
 17 21  2  0  0  0  0
 18 19  1  0  0  0  0
 19 22  1  0  0  0  0
 19 25  2  0  0  0  0
 21 23  1  0  0  0  0
 21 25  1  0  0  0  0
 23 24  1  0  0  0  0
 24 26  2  0  0  0  0
 24 27  1  0  0  0  0
 26 28  1  0  0  0  0
 26 29  1  0  0  0  0
 27 31  1  0  0  0  0
 27 35  2  0  0  0  0
 29 30  2  0  0  0  0
 30 35  1  0  0  0  0
 31 32  2  0  0  0  0
 32 33  1  0  0  0  0
 33 34  2  0  0  0  0
 34 35  1  0  0  0  0
M  END
$$$$

 OpenBabel10082411353D

 24 26  0  0  0  0  0  0  0  0999 V2000
   10.1007    9.4495   -5.3698 C   0  0  0  0  0  0  0  0  0  0  0  0
    9.9859    8.8073   -6.5781 C   0  0  0  0  0  0  0  0  0  0  0  0
   11.2498    9.2723   -4.7903 C   0  0  0  0  0  0  0  0  0  0  0  0
   12.1568    8.4292   -5.5116 O   0  0  0  0  0  0  0  0  0  0  0  0
   11.3529    8.1637   -6.7127 C   0  0  0  0  0  0  0  0  0  0  0  0
   11.8835    7.3441   -7.8185 C   0  0  0  0  0  0  0  0  0  0  0  0
   11.1262    7.5684   -9.0587 N   0  0  0  0  0  0  0  0  0  0  0  0
    9.8238    7.1089   -9.2338 C   0  0  2  0  0  0  0  0  0  0  0  0
   11.7480    9.8161   -3.3777 C   0  0  0  0  0  0  0  0  0  0  0  0
   11.7356    8.2488  -10.0902 C   0  0  0  0  0  0  0  0  0  0  0  0
    9.4341    5.8943   -8.8721 C   0  0  0  0  0  0  0  0  0  0  0  0
    9.7694    7.0989  -10.8453 C   0  0  0  0  0  0  0  0  0  0  0  0
    8.8311    6.4140  -11.5294 C   0  0  2  0  0  0  0  0  0  0  0  0
   10.8954    7.8394  -11.3563 C   0  0  0  0  0  0  0  0  0  0  0  0
   11.0209    7.9784  -12.7105 C   0  0  0  0  0  0  0  0  0  0  0  0
   12.3231    8.0542  -13.3067 C   0  0  0  0  0  0  0  0  0  0  0  0
    7.6836    7.0157  -11.6778 C   0  0  0  0  0  0  0  0  0  0  0  0
   12.9976    8.6161  -10.2479 O   0  0  0  0  0  0  0  0  0  0  0  0
    8.5576    4.9800  -11.3013 C   0  0  0  0  0  0  0  0  0  0  0  0
    6.5797    6.2593  -11.8560 C   0  0  0  0  0  0  0  0  0  0  0  0
    7.1108    4.7790  -11.7785 N   0  0  0  0  0  0  0  0  0  0  0  0
    6.5471    3.6885  -12.3005 C   0  0  0  0  0  0  0  0  0  0  0  0
    7.0570    3.0403  -13.3679 C   0  0  0  0  0  0  0  0  0  0  0  0
    5.6897    3.0117  -11.5562 O   0  0  0  0  0  0  0  0  0  0  0  0
  1  2  1  0  0  0  0
  1  3  2  0  0  0  0
  2  5  2  0  0  0  0
  3  4  1  0  0  0  0
  3  9  1  0  0  0  0
  4  5  1  0  0  0  0
  5  6  1  0  0  0  0
  6  7  1  0  0  0  0
  7  8  1  0  0  0  0
  7 10  1  0  0  0  0
  8 11  1  6  0  0  0
  8 12  1  0  0  0  0
 10 14  1  0  0  0  0
 10 18  2  0  0  0  0
 12 14  2  0  0  0  0
 13 12  1  1  0  0  0
 13 17  1  0  0  0  0
 13 19  1  0  0  0  0
 14 15  1  0  0  0  0
 15 16  1  0  0  0  0
 17 20  1  0  0  0  0
 19 21  1  0  0  0  0
 20 21  1  0  0  0  0
 21 22  1  0  0  0  0
 22 23  1  0  0  0  0
 22 24  2  0  0  0  0
M  END
$$$$

 OpenBabel10082411353D

 35 40  0  0  0  0  0  0  0  0999 V2000
   12.8881    8.7759   -3.5681 C   0  0  0  0  0  0  0  0  0  0  0  0
   11.9416    9.4732   -4.1220 C   0  0  0  0  0  0  0  0  0  0  0  0
   12.1782    9.3707   -5.6407 C   0  0  0  0  0  0  0  0  0  0  0  0
   11.3825    8.3447   -6.3966 C   0  0  0  0  0  0  0  0  0  0  0  0
   11.8188    8.0044   -7.6822 C   0  0  0  0  0  0  0  0  0  0  0  0
   10.3120    7.6600   -5.7120 C   0  0  0  0  0  0  0  0  0  0  0  0
   10.8678    7.0723   -8.2897 C   0  0  0  0  0  0  0  0  0  0  0  0
    9.5717    6.7245   -6.3809 C   0  0  0  0  0  0  0  0  0  0  0  0
    9.8820    6.4468   -7.7081 C   0  0  0  0  0  0  0  0  0  0  0  0
   11.2611    6.6953   -9.7105 C   0  0  1  0  0  0  0  0  0  0  0  0
   10.0425    6.5460  -10.5971 C   0  0  0  0  0  0  0  0  0  0  0  0
   11.8062    7.8130  -10.4883 C   0  0  0  0  0  0  0  0  0  0  0  0
    8.8746    5.5265   -8.4149 C   0  0  0  0  0  0  0  0  0  0  0  0
   13.1546    8.1022  -10.4049 O   0  0  0  0  0  0  0  0  0  0  0  0
   10.3114    6.7627  -11.8786 C   0  0  0  0  0  0  0  0  0  0  0  0
   11.3906    7.6694  -11.8036 N   0  0  0  0  0  0  0  0  0  0  0  0
   11.9779    8.2398  -13.0316 C   0  0  0  0  0  0  0  0  0  0  0  0
    8.8154    6.0162   -9.9613 C   0  0  0  0  0  0  0  0  0  0  0  0
    9.6102    6.3636  -13.0859 C   0  0  0  0  0  0  0  0  0  0  0  0
   11.8804    7.4718  -14.1937 C   0  0  0  0  0  0  0  0  0  0  0  0
   10.7017    6.3981  -14.2482 C   0  0  0  0  0  0  0  0  0  0  0  0
   10.3813    5.8427  -15.4547 C   0  0  0  0  0  0  0  0  0  0  0  0
    9.2579    5.0507  -15.6184 C   0  0  0  0  0  0  0  0  0  0  0  0
   12.6748    7.4257  -15.2457 C   0  0  0  0  0  0  0  0  0  0  0  0
    9.3685    3.7401  -15.1559 C   0  0  0  0  0  0  0  0  0  0  0  0
   11.4448    5.9436  -16.3841 C   0  0  0  0  0  0  0  0  0  0  0  0
    8.3308    3.1061  -14.4825 C   0  0  0  0  0  0  0  0  0  0  0  0
   11.2134    5.2120  -17.6590 O   0  0  0  0  0  0  0  0  0  0  0  0
   10.6408    2.9582  -14.9966 C   0  0  0  0  0  0  0  0  0  0  0  0
    7.0377    3.8409  -14.5091 O   0  0  0  0  0  0  0  0  0  0  0  0
    8.3302    1.8540  -13.8310 C   0  0  0  0  0  0  0  0  0  0  0  0
    9.5297    1.1874  -13.8415 C   0  0  0  0  0  0  0  0  0  0  0  0
   12.5667    6.7101  -16.3095 C   0  0  0  0  0  0  0  0  0  0  0  0
   10.7194    1.6987  -14.4021 C   0  0  0  0  0  0  0  0  0  0  0  0
    6.6494    4.3547  -13.2765 C   0  0  0  0  0  0  0  0  0  0  0  0
  1  2  1  0  0  0  0
  2  3  1  0  0  0  0
  3  4  1  0  0  0  0
  4  5  2  0  0  0  0
  4  6  1  0  0  0  0
  5  7  1  0  0  0  0
  6  8  2  0  0  0  0
  7  9  2  0  0  0  0
  8  9  1  0  0  0  0
  9 13  1  0  0  0  0
 10  7  1  1  0  0  0
 10 11  1  0  0  0  0
 10 12  1  0  0  0  0
 11 15  2  0  0  0  0
 11 18  1  0  0  0  0
 12 14  2  0  0  0  0
 12 16  1  0  0  0  0
 13 18  1  0  0  0  0
 15 16  1  0  0  0  0
 15 19  1  0  0  0  0
 16 17  1  0  0  0  0
 17 20  1  0  0  0  0
 19 21  1  0  0  0  0
 20 21  2  0  0  0  0
 20 24  1  0  0  0  0
 21 22  1  0  0  0  0
 22 23  1  0  0  0  0
 22 26  2  0  0  0  0
 23 25  1  0  0  0  0
 24 33  2  0  0  0  0
 25 27  2  0  0  0  0
 25 29  1  0  0  0  0
 26 28  1  0  0  0  0
 26 33  1  0  0  0  0
 27 30  1  0  0  0  0
 27 31  1  0  0  0  0
 29 34  2  0  0  0  0
 30 35  1  0  0  0  0
 31 32  2  0  0  0  0
 32 34  1  0  0  0  0
M  END
$$$$

 OpenBabel10082411353D

 35 39  0  0  0  0  0  0  0  0999 V2000
   12.7863    7.8241  -14.2109 C   0  0  0  0  0  0  0  0  0  0  0  0
   12.4233    7.7158  -13.0289 C   0  0  0  0  0  0  0  0  0  0  0  0
   12.9219    8.1949  -11.8668 C   0  0  0  0  0  0  0  0  0  0  0  0
   11.4275    6.6086  -12.7931 C   0  0  0  0  0  0  0  0  0  0  0  0
   10.3411    6.8404  -12.0679 C   0  0  0  0  0  0  0  0  0  0  0  0
   10.7226    7.4332  -10.7281 C   0  0  0  0  0  0  0  0  0  0  0  0
    9.0684    5.8539  -11.9851 C   0  0  0  0  0  0  0  0  0  0  0  0
    9.8080    7.4062   -9.6015 C   0  0  1  0  0  0  0  0  0  0  0  0
   11.9300    8.1400  -10.6702 C   0  0  0  0  0  0  0  0  0  0  0  0
   11.0289    6.0120  -14.2884 C   0  0  0  0  0  0  0  0  0  0  0  0
    9.9681    6.1425   -8.6941 C   0  0  0  0  0  0  0  0  0  0  0  0
   11.9646    6.5393  -15.2778 C   0  0  0  0  0  0  0  0  0  0  0  0
    7.9421    6.5510  -12.0400 C   0  0  0  0  0  0  0  0  0  0  0  0
    6.8223    5.8894  -11.8438 C   0  0  0  0  0  0  0  0  0  0  0  0
    7.9314    8.0789  -12.0389 C   0  0  0  0  0  0  0  0  0  0  0  0
    9.3627    6.3381   -7.3418 C   0  0  2  0  0  0  0  0  0  0  0  0
   10.2468    4.9325  -14.6366 C   0  0  0  0  0  0  0  0  0  0  0  0
    6.8170    4.4641  -12.3272 C   0  0  0  0  0  0  0  0  0  0  0  0
    5.5121    3.7068  -12.3508 C   0  0  0  0  0  0  0  0  0  0  0  0
    7.9039    3.8445  -12.7337 C   0  0  0  0  0  0  0  0  0  0  0  0
    8.0182    2.5187  -13.1423 O   0  0  0  0  0  0  0  0  0  0  0  0
    9.2141    4.5954  -12.4982 C   0  0  0  0  0  0  0  0  0  0  0  0
    8.9053    2.1783  -14.1134 C   0  0  0  0  0  0  0  0  0  0  0  0
    8.0545    6.1173   -7.3498 O   0  0  0  0  0  0  0  0  0  0  0  0
    9.9758    7.7625   -7.0124 C   0  0  2  0  0  0  0  0  0  0  0  0
   10.2099    8.4161   -8.4507 C   0  0  0  0  0  0  0  0  0  0  0  0
   11.0248    7.8052   -6.0748 C   0  0  0  0  0  0  0  0  0  0  0  0
   10.9159    4.0096  -15.7115 C   0  0  0  0  0  0  0  0  0  0  0  0
   11.6883    3.0598  -15.1795 O   0  0  0  0  0  0  0  0  0  0  0  0
   10.9435    7.0147   -4.9614 C   0  0  0  0  0  0  0  0  0  0  0  0
   12.1279    7.1288   -3.8886 C   0  0  0  0  0  0  0  0  0  0  0  0
   12.2862    7.5632   -6.8824 O   0  0  0  0  0  0  0  0  0  0  0  0
   11.2234    9.2581   -5.4861 C   0  0  0  0  0  0  0  0  0  0  0  0
   12.3477    9.4706   -4.5600 C   0  0  0  0  0  0  0  0  0  0  0  0
   12.2475    8.5547   -3.4322 C   0  0  0  0  0  0  0  0  0  0  0  0
  1  2  1  0  0  0  0
  1 12  1  0  0  0  0
  2  3  1  0  0  0  0
  2  4  2  0  0  0  0
  3  9  2  0  0  0  0
  4  5  1  0  0  0  0
  4 10  1  0  0  0  0
  5  6  2  0  0  0  0
  5  7  1  0  0  0  0
  6  9  1  0  0  0  0
  7 13  1  0  0  0  0
  7 22  2  0  0  0  0
  8  6  1  6  0  0  0
  8 11  1  0  0  0  0
  8 26  1  0  0  0  0
 10 12  2  0  0  0  0
 10 17  1  0  0  0  0
 11 16  1  0  0  0  0
 13 14  2  0  0  0  0
 13 15  1  0  0  0  0
 14 18  1  0  0  0  0
 16 24  1  6  0  0  0
 16 25  1  0  0  0  0
 17 28  1  0  0  0  0
 18 19  1  0  0  0  0
 18 20  2  0  0  0  0
 20 21  1  0  0  0  0
 20 22  1  0  0  0  0
 21 23  1  0  0  0  0
 25 26  1  6  0  0  0
 25 27  1  0  0  0  0
 27 30  1  0  0  0  0
 27 32  1  0  0  0  0
 27 33  1  0  0  0  0
 28 29  1  0  0  0  0
 30 31  1  0  0  0  0
 31 35  1  0  0  0  0
 33 34  1  0  0  0  0
 34 35  1  0  0  0  0
M  END
$$$$

 OpenBabel10082411353D

 35 38  0  0  0  0  0  0  0  0999 V2000
   11.6836    6.0105   -4.8831 F   0  0  0  0  0  0  0  0  0  0  0  0
   11.2562    7.2206   -5.0294 C   0  0  0  0  0  0  0  0  0  0  0  0
   12.0125    8.2418   -4.4408 C   0  0  0  0  0  0  0  0  0  0  0  0
   11.1918    7.2706   -6.5237 C   0  0  0  0  0  0  0  0  0  0  0  0
   11.6999    8.4488   -3.1704 F   0  0  0  0  0  0  0  0  0  0  0  0
    9.8648    7.0908   -4.5314 F   0  0  0  0  0  0  0  0  0  0  0  0
   11.6831    8.5291   -6.9682 C   0  0  0  0  0  0  0  0  0  0  0  0
   10.4785    6.5189   -7.4033 C   0  0  0  0  0  0  0  0  0  0  0  0
   11.6979    8.6661   -8.4760 C   0  0  0  0  0  0  0  0  0  0  0  0
   11.6248    9.5853   -5.0030 C   0  0  0  0  0  0  0  0  0  0  0  0
   11.8604    9.7907   -6.2903 O   0  0  0  0  0  0  0  0  0  0  0  0
   13.3557    8.1748   -4.5947 F   0  0  0  0  0  0  0  0  0  0  0  0
   10.5427    6.6061   -8.7190 C   0  0  0  0  0  0  0  0  0  0  0  0
   11.1158    7.7103   -9.2540 C   0  0  0  0  0  0  0  0  0  0  0  0
   11.3757    7.6656  -10.5293 N   0  0  0  0  0  0  0  0  0  0  0  0
   10.7153    7.7096  -11.5405 C   0  0  0  0  0  0  0  0  0  0  0  0
   11.2483    7.4711  -12.8542 C   0  0  0  0  0  0  0  0  0  0  0  0
    9.3980    7.7820  -11.5398 C   0  0  0  0  0  0  0  0  0  0  0  0
    8.6055    7.5889  -12.6525 C   0  0  0  0  0  0  0  0  0  0  0  0
   12.7508    7.3705  -13.0162 O   0  0  0  0  0  0  0  0  0  0  0  0
   10.5299    7.1831  -13.9856 C   0  0  0  0  0  0  0  0  0  0  0  0
    7.0533    7.7371  -12.5396 C   0  0  0  0  0  0  0  0  0  0  0  0
   11.2041    6.8490  -15.2304 C   0  0  0  0  0  0  0  0  0  0  0  0
   11.6393    5.5333  -15.3864 C   0  0  0  0  0  0  0  0  0  0  0  0
    9.1955    7.2935  -13.8301 C   0  0  0  0  0  0  0  0  0  0  0  0
   12.5294    5.1116  -16.1609 C   0  0  0  0  0  0  0  0  0  0  0  0
   11.2315    4.4703  -14.3200 C   0  0  0  0  0  0  0  0  0  0  0  0
   13.0194    6.0876  -17.1697 C   0  0  0  0  0  0  0  0  0  0  0  0
   11.5246    3.1793  -14.7338 C   0  0  0  0  0  0  0  0  0  0  0  0
   11.0190    2.1425  -13.8182 F   0  0  0  0  0  0  0  0  0  0  0  0
   12.9231    3.9436  -16.4408 C   0  0  0  0  0  0  0  0  0  0  0  0
   14.0738    6.7479  -16.8441 O   0  0  0  0  0  0  0  0  0  0  0  0
   12.4991    6.4238  -18.2607 O   0  0  0  0  0  0  0  0  0  0  0  0
   12.3084    2.8168  -15.6553 C   0  0  0  0  0  0  0  0  0  0  0  0
    6.5123    6.5286  -12.4899 C   0  0  0  0  0  0  0  0  0  0  0  0
  1  2  1  0  0  0  0
  2  3  1  0  0  0  0
  2  4  1  0  0  0  0
  2  6  1  0  0  0  0
  3  5  1  0  0  0  0
  3 10  1  0  0  0  0
  3 12  1  0  0  0  0
  4  7  1  0  0  0  0
  4  8  2  0  0  0  0
  7  9  2  0  0  0  0
  7 11  1  0  0  0  0
  8 13  1  0  0  0  0
  9 14  1  0  0  0  0
 10 11  1  0  0  0  0
 13 14  2  0  0  0  0
 14 15  1  0  0  0  0
 15 16  1  0  0  0  0
 16 17  1  0  0  0  0
 16 18  2  0  0  0  0
 17 20  1  0  0  0  0
 17 21  2  0  0  0  0
 18 19  1  0  0  0  0
 19 22  1  0  0  0  0
 19 25  2  0  0  0  0
 21 23  1  0  0  0  0
 21 25  1  0  0  0  0
 22 35  1  0  0  0  0
 23 24  1  0  0  0  0
 24 26  2  0  0  0  0
 24 27  1  0  0  0  0
 26 28  1  0  0  0  0
 26 31  1  0  0  0  0
 27 29  2  0  0  0  0
 28 32  1  0  0  0  0
 28 33  2  0  0  0  0
 29 30  1  0  0  0  0
 29 34  1  0  0  0  0
 31 34  2  0  0  0  0
M  END
$$$$

 OpenBabel10082411353D

 35 41  0  0  0  0  0  0  0  0999 V2000
   12.7863    7.8241  -14.2109 C   0  0  0  0  0  0  0  0  0  0  0  0
   12.4233    7.7158  -13.0289 C   0  0  0  0  0  0  0  0  0  0  0  0
   11.3194    6.8571  -12.8028 C   0  0  0  0  0  0  0  0  0  0  0  0
   12.3150    7.2021  -15.3582 C   0  0  0  0  0  0  0  0  0  0  0  0
   11.2733    6.2739  -15.1502 C   0  0  0  0  0  0  0  0  0  0  0  0
   10.8099    6.0126  -13.8600 C   0  0  0  0  0  0  0  0  0  0  0  0
    9.6782    5.1428  -13.6488 C   0  0  0  0  0  0  0  0  0  0  0  0
    8.5753    5.3880  -12.9589 N   0  0  0  0  0  0  0  0  0  0  0  0
    8.3226    6.7011  -12.3862 C   0  0  0  0  0  0  0  0  0  0  0  0
    9.8502    3.8578  -14.0728 C   0  0  0  0  0  0  0  0  0  0  0  0
    7.3864    7.4720  -13.0530 C   0  0  0  0  0  0  0  0  0  0  0  0
    6.2412    7.8486  -12.2599 C   0  0  0  0  0  0  0  0  0  0  0  0
    7.6425    4.4186  -12.7943 C   0  0  0  0  0  0  0  0  0  0  0  0
   11.0297    3.2482  -14.8053 C   0  0  0  0  0  0  0  0  0  0  0  0
    8.6802    2.8955  -13.7960 C   0  0  0  0  0  0  0  0  0  0  0  0
    8.8565    1.5917  -14.3582 O   0  0  0  0  0  0  0  0  0  0  0  0
    7.6903    3.2226  -13.1994 N   0  0  0  0  0  0  0  0  0  0  0  0
    6.5724    2.3444  -12.8378 C   0  0  0  0  0  0  0  0  0  0  0  0
    9.0225    7.0353  -11.3259 C   0  0  0  0  0  0  0  0  0  0  0  0
    6.2405    4.8489  -12.4515 C   0  0  0  0  0  0  0  0  0  0  0  0
   10.5875    7.0617  -11.5321 C   0  0  0  0  0  0  0  0  0  0  0  0
   11.0960    7.6093  -10.4100 C   0  0  0  0  0  0  0  0  0  0  0  0
    8.4039    7.3336  -10.1102 C   0  0  0  0  0  0  0  0  0  0  0  0
   10.6086    7.8156   -9.1888 C   0  0  0  0  0  0  0  0  0  0  0  0
    9.3113    7.5527   -9.2022 C   0  0  0  0  0  0  0  0  0  0  0  0
    5.5868    3.4174  -12.3561 C   0  0  0  0  0  0  0  0  0  0  0  0
    8.7252    7.9330   -7.6242 C   0  0  0  0  0  0  0  0  0  0  0  0
   11.1859    8.0862   -7.9601 C   0  0  0  0  0  0  0  0  0  0  0  0
   12.7495    8.2704   -8.0174 C   0  0  0  0  0  0  0  0  0  0  0  0
   10.4493    8.2542   -6.7750 C   0  0  0  0  0  0  0  0  0  0  0  0
    9.2142    8.3462   -6.7539 C   0  0  0  0  0  0  0  0  0  0  0  0
   11.4483    9.0676   -5.7294 C   0  0  0  0  0  0  0  0  0  0  0  0
   10.5479    6.9328   -5.7137 C   0  0  0  0  0  0  0  0  0  0  0  0
   11.5948    8.6095   -4.3991 C   0  0  0  0  0  0  0  0  0  0  0  0
   11.3321    7.0892   -4.5738 C   0  0  0  0  0  0  0  0  0  0  0  0
  1  2  2  0  0  0  0
  1  4  1  0  0  0  0
  2  3  1  0  0  0  0
  3  6  2  0  0  0  0
  3 21  1  0  0  0  0
  4  5  2  0  0  0  0
  5  6  1  0  0  0  0
  6  7  1  0  0  0  0
  7  8  1  0  0  0  0
  7 10  2  0  0  0  0
  8  9  1  0  0  0  0
  8 13  1  0  0  0  0
  9 11  1  0  0  0  0
  9 19  2  0  0  0  0
 10 14  1  0  0  0  0
 10 15  1  0  0  0  0
 11 12  1  0  0  0  0
 13 17  1  0  0  0  0
 13 20  2  0  0  0  0
 15 16  2  0  0  0  0
 15 17  1  0  0  0  0
 17 18  1  0  0  0  0
 18 26  2  0  0  0  0
 19 21  1  0  0  0  0
 19 23  1  0  0  0  0
 20 26  1  0  0  0  0
 21 22  2  0  0  0  0
 22 24  1  0  0  0  0
 23 25  2  0  0  0  0
 24 25  1  0  0  0  0
 24 28  2  0  0  0  0
 25 27  1  0  0  0  0
 27 31  2  0  0  0  0
 28 29  1  0  0  0  0
 28 30  1  0  0  0  0
 30 31  1  0  0  0  0
 30 32  1  0  0  0  0
 30 33  1  0  0  0  0
 32 34  1  0  0  0  0
 33 35  1  0  0  0  0
 34 35  1  0  0  0  0
M  END
$$$$

 OpenBabel10082411353D

 35 37  0  0  0  0  0  0  0  0999 V2000
   10.9951    9.9694   -4.9946 C   0  0  0  0  0  0  0  0  0  0  0  0
   11.7938    9.3762   -4.2463 C   0  0  0  0  0  0  0  0  0  0  0  0
   10.8673    9.4548   -6.4276 C   0  0  0  0  0  0  0  0  0  0  0  0
   11.6576    7.9117   -4.2944 C   0  0  0  0  0  0  0  0  0  0  0  0
   10.5498    8.0257   -6.4521 C   0  0  0  0  0  0  0  0  0  0  0  0
   11.4715    7.2752   -5.6166 C   0  0  0  0  0  0  0  0  0  0  0  0
   10.5840    7.5390   -7.9254 C   0  0  0  0  0  0  0  0  0  0  0  0
   11.4612    8.1494   -8.8322 C   0  0  0  0  0  0  0  0  0  0  0  0
   12.6250    8.6294   -8.4338 O   0  0  0  0  0  0  0  0  0  0  0  0
   11.0835    8.4395  -10.0740 O   0  0  0  0  0  0  0  0  0  0  0  0
   11.2938    7.5612  -11.0769 C   0  0  0  0  0  0  0  0  0  0  0  0
   10.1547    7.2525  -11.9492 C   0  0  0  0  0  0  0  0  0  0  0  0
   10.4293    6.5622  -13.1348 C   0  0  0  0  0  0  0  0  0  0  0  0
   11.7295    6.4217  -13.6243 C   0  0  0  0  0  0  0  0  0  0  0  0
    8.8120    7.3918  -11.4649 C   0  0  0  0  0  0  0  0  0  0  0  0
   12.5351    7.8894  -11.6869 C   0  0  0  0  0  0  0  0  0  0  0  0
   13.5778    8.4243  -10.9673 O   0  0  0  0  0  0  0  0  0  0  0  0
    7.7211    7.1761  -12.4323 C   0  0  0  0  0  0  0  0  0  0  0  0
   12.8103    7.0723  -12.8897 C   0  0  0  0  0  0  0  0  0  0  0  0
    7.0543    5.9667  -12.3369 C   0  0  0  0  0  0  0  0  0  0  0  0
    7.2392    8.1844  -13.1320 C   0  0  0  0  0  0  0  0  0  0  0  0
    6.6882    5.3848  -13.5016 O   0  0  0  0  0  0  0  0  0  0  0  0
    6.5103    5.5543  -11.3870 O   0  0  0  0  0  0  0  0  0  0  0  0
    7.4031    4.0506  -13.7852 C   0  0  0  0  0  0  0  0  0  0  0  0
   11.9567    5.7137  -14.8744 C   0  0  0  0  0  0  0  0  0  0  0  0
    8.6219    3.9611  -14.1988 C   0  0  0  0  0  0  0  0  0  0  0  0
   12.1624    6.4252  -15.8904 C   0  0  0  0  0  0  0  0  0  0  0  0
    9.4613    3.0640  -13.5563 C   0  0  0  0  0  0  0  0  0  0  0  0
   12.1556    4.2801  -14.7975 C   0  0  0  0  0  0  0  0  0  0  0  0
   12.3902    5.6468  -17.1373 C   0  0  0  0  0  0  0  0  0  0  0  0
   12.6050    6.4725  -18.3183 C   0  0  0  0  0  0  0  0  0  0  0  0
   11.6103    7.1141  -18.6176 O   0  0  0  0  0  0  0  0  0  0  0  0
   12.4663    4.3131  -17.2640 C   0  0  0  0  0  0  0  0  0  0  0  0
   12.2986    3.5998  -16.0144 C   0  0  0  0  0  0  0  0  0  0  0  0
   13.7275    6.8431  -18.7411 O   0  0  0  0  0  0  0  0  0  0  0  0
  1  2  1  0  0  0  0
  1  3  1  0  0  0  0
  2  4  1  0  0  0  0
  3  5  1  0  0  0  0
  4  6  1  0  0  0  0
  5  6  1  0  0  0  0
  5  7  1  0  0  0  0
  7  8  1  0  0  0  0
  8  9  2  0  0  0  0
  8 10  1  0  0  0  0
 10 11  1  0  0  0  0
 11 12  1  0  0  0  0
 11 16  2  0  0  0  0
 12 13  2  0  0  0  0
 12 15  1  0  0  0  0
 13 14  1  0  0  0  0
 14 19  2  0  0  0  0
 14 25  1  0  0  0  0
 15 18  1  0  0  0  0
 16 17  1  0  0  0  0
 16 19  1  0  0  0  0
 18 20  1  0  0  0  0
 18 21  2  0  0  0  0
 20 22  1  0  0  0  0
 20 23  2  0  0  0  0
 22 24  1  0  0  0  0
 24 26  1  0  0  0  0
 25 27  2  0  0  0  0
 25 29  1  0  0  0  0
 26 28  1  0  0  0  0
 27 30  1  0  0  0  0
 29 34  2  0  0  0  0
 30 31  1  0  0  0  0
 30 33  2  0  0  0  0
 31 32  1  0  0  0  0
 31 35  2  0  0  0  0
 33 34  1  0  0  0  0
M  END
$$$$

 OpenBabel10082411353D

 35 39  0  0  0  0  0  0  0  0999 V2000
   12.7863    7.8241  -14.2109 C   0  0  0  0  0  0  0  0  0  0  0  0
   12.4233    7.7158  -13.0289 C   0  0  0  0  0  0  0  0  0  0  0  0
   11.3194    6.8571  -12.8028 C   0  0  0  0  0  0  0  0  0  0  0  0
   12.3150    7.2021  -15.3582 C   0  0  0  0  0  0  0  0  0  0  0  0
   11.2733    6.2739  -15.1502 C   0  0  0  0  0  0  0  0  0  0  0  0
   10.8099    6.0126  -13.8600 C   0  0  0  0  0  0  0  0  0  0  0  0
    9.6782    5.1428  -13.6488 C   0  0  0  0  0  0  0  0  0  0  0  0
    8.5753    5.3880  -12.9589 N   0  0  0  0  0  0  0  0  0  0  0  0
    8.3226    6.7011  -12.3862 C   0  0  0  0  0  0  0  0  0  0  0  0
    9.8502    3.8578  -14.0728 C   0  0  0  0  0  0  0  0  0  0  0  0
    7.3864    7.4720  -13.0530 C   0  0  0  0  0  0  0  0  0  0  0  0
    6.2412    7.8486  -12.2599 C   0  0  0  0  0  0  0  0  0  0  0  0
    7.6425    4.4186  -12.7943 C   0  0  0  0  0  0  0  0  0  0  0  0
   11.0297    3.2482  -14.8053 C   0  0  0  0  0  0  0  0  0  0  0  0
    8.6802    2.8955  -13.7960 C   0  0  0  0  0  0  0  0  0  0  0  0
    8.8565    1.5917  -14.3582 O   0  0  0  0  0  0  0  0  0  0  0  0
    7.6903    3.2226  -13.1994 N   0  0  0  0  0  0  0  0  0  0  0  0
    6.5724    2.3444  -12.8378 C   0  0  0  0  0  0  0  0  0  0  0  0
    9.0225    7.0353  -11.3259 C   0  0  0  0  0  0  0  0  0  0  0  0
    6.4787    4.7532  -12.1787 O   0  0  0  0  0  0  0  0  0  0  0  0
   10.5868    7.0468  -11.5199 C   0  0  0  0  0  0  0  0  0  0  0  0
   11.2761    7.4007  -10.4131 C   0  0  0  0  0  0  0  0  0  0  0  0
    8.6862    7.4300   -9.9877 C   0  0  0  0  0  0  0  0  0  0  0  0
    9.4326    7.6744   -8.9657 C   0  0  0  0  0  0  0  0  0  0  0  0
   10.6794    7.6568   -9.1312 C   0  0  2  0  0  0  0  0  0  0  0  0
    8.9269    7.9839   -7.6612 C   0  0  1  0  0  0  0  0  0  0  0  0
   11.6309    7.9931   -8.0642 C   0  0  0  0  0  0  0  0  0  0  0  0
    8.3711    7.1403   -7.0209 O   0  0  0  0  0  0  0  0  0  0  0  0
    9.8765    8.4197   -6.5527 C   0  0  0  0  0  0  0  0  0  0  0  0
   11.3201    8.0150   -6.9666 C   0  0  0  0  0  0  0  0  0  0  0  0
   12.1339    7.7910   -5.7569 O   0  0  0  0  0  0  0  0  0  0  0  0
   12.5298    8.8436   -4.9181 C   0  0  0  0  0  0  0  0  0  0  0  0
   11.6992    9.9555   -4.9503 F   0  0  0  0  0  0  0  0  0  0  0  0
   12.5271    8.4062   -3.5175 F   0  0  0  0  0  0  0  0  0  0  0  0
   13.7127    9.3372   -5.1584 F   0  0  0  0  0  0  0  0  0  0  0  0
  1  2  2  0  0  0  0
  1  4  1  0  0  0  0
  2  3  1  0  0  0  0
  3  6  2  0  0  0  0
  3 21  1  0  0  0  0
  4  5  2  0  0  0  0
  5  6  1  0  0  0  0
  6  7  1  0  0  0  0
  7  8  1  0  0  0  0
  7 10  2  0  0  0  0
  8  9  1  0  0  0  0
  8 13  1  0  0  0  0
  9 11  1  0  0  0  0
  9 19  2  0  0  0  0
 10 14  1  0  0  0  0
 10 15  1  0  0  0  0
 11 12  1  0  0  0  0
 13 17  1  0  0  0  0
 13 20  2  0  0  0  0
 15 16  2  0  0  0  0
 15 17  1  0  0  0  0
 17 18  1  0  0  0  0
 19 21  1  0  0  0  0
 19 23  1  0  0  0  0
 21 22  2  0  0  0  0
 23 24  2  0  0  0  0
 24 25  1  0  0  0  0
 24 26  1  0  0  0  0
 25 22  1  6  0  0  0
 25 27  1  0  0  0  0
 26 28  1  1  0  0  0
 26 29  1  0  0  0  0
 27 30  2  0  0  0  0
 29 30  1  0  0  0  0
 30 31  1  0  0  0  0
 31 32  1  0  0  0  0
 32 33  1  0  0  0  0
 32 34  1  0  0  0  0
 32 35  1  0  0  0  0
M  END
$$$$

 OpenBabel10082411353D

 35 40  0  0  0  0  0  0  0  0999 V2000
   12.8881    8.7759   -3.5681 C   0  0  0  0  0  0  0  0  0  0  0  0
   11.9416    9.4732   -4.1220 C   0  0  0  0  0  0  0  0  0  0  0  0
   12.3556    7.6012   -2.6527 C   0  0  0  0  0  0  0  0  0  0  0  0
   11.8805    9.3400   -5.6557 C   0  0  0  0  0  0  0  0  0  0  0  0
   11.7716    6.5414   -3.3821 C   0  0  0  0  0  0  0  0  0  0  0  0
   10.8523    8.6585   -6.3310 C   0  0  0  0  0  0  0  0  0  0  0  0
   11.1142    8.2520   -7.7289 C   0  0  0  0  0  0  0  0  0  0  0  0
   10.0478    7.6568   -8.4887 C   0  0  0  0  0  0  0  0  0  0  0  0
   12.3648    8.4339   -8.3703 C   0  0  0  0  0  0  0  0  0  0  0  0
   12.6142    8.1352   -9.7322 C   0  0  0  0  0  0  0  0  0  0  0  0
   10.2852    7.3833   -9.9138 C   0  0  0  0  0  0  0  0  0  0  0  0
   11.5161    7.5808  -10.4860 C   0  0  0  0  0  0  0  0  0  0  0  0
   11.6641    7.2285  -11.8174 O   0  0  0  0  0  0  0  0  0  0  0  0
   10.8624    6.4419  -12.4395 C   0  0  0  0  0  0  0  0  0  0  0  0
   11.2693    5.8267  -13.4966 C   0  0  0  0  0  0  0  0  0  0  0  0
    9.5259    6.2192  -11.9953 C   0  0  0  0  0  0  0  0  0  0  0  0
    9.2551    6.6732  -10.5921 C   0  0  2  0  0  0  0  0  0  0  0  0
    8.1388    7.5201  -10.6434 O   0  0  0  0  0  0  0  0  0  0  0  0
   12.6263    6.1828  -14.1606 C   0  0  0  0  0  0  0  0  0  0  0  0
    7.2614    7.1893  -11.7193 C   0  0  2  0  0  0  0  0  0  0  0  0
   12.6352    7.3184  -14.7782 C   0  0  0  0  0  0  0  0  0  0  0  0
    8.2277    6.2735  -12.5381 C   0  0  0  0  0  0  0  0  0  0  0  0
    7.7180    5.1928  -13.4230 C   0  0  0  0  0  0  0  0  0  0  0  0
    8.4439    4.2015  -13.9045 C   0  0  0  0  0  0  0  0  0  0  0  0
    6.9950    8.4483  -12.4502 C   0  0  0  0  0  0  0  0  0  0  0  0
    7.7472    3.2985  -14.8364 C   0  0  0  0  0  0  0  0  0  0  0  0
    9.0300    5.4319   -9.7786 C   0  0  0  0  0  0  0  0  0  0  0  0
    8.1705    1.9584  -14.6092 C   0  0  0  0  0  0  0  0  0  0  0  0
    9.3621    1.6865  -14.2893 C   0  0  0  0  0  0  0  0  0  0  0  0
    9.9085    4.0088  -13.8348 C   0  0  1  0  0  0  0  0  0  0  0  0
   10.3595    2.7608  -13.8533 C   0  0  0  0  0  0  0  0  0  0  0  0
   10.9962    4.6837  -14.2602 C   0  0  2  0  0  0  0  0  0  0  0  0
   11.8931    4.3817  -15.1603 C   0  0  0  0  0  0  0  0  0  0  0  0
   12.9519    5.2463  -15.1532 N   0  0  0  0  0  0  0  0  0  0  0  0
   11.8885    3.3714  -15.8880 O   0  0  0  0  0  0  0  0  0  0  0  0
  1  2  1  0  0  0  0
  1  3  1  0  0  0  0
  2  4  1  0  0  0  0
  3  5  1  0  0  0  0
  4  6  1  0  0  0  0
  6  7  1  0  0  0  0
  7  8  1  0  0  0  0
  7  9  2  0  0  0  0
  8 11  2  0  0  0  0
  9 10  1  0  0  0  0
 10 12  2  0  0  0  0
 11 12  1  0  0  0  0
 11 17  1  0  0  0  0
 12 13  1  0  0  0  0
 13 14  1  0  0  0  0
 14 15  2  0  0  0  0
 14 16  1  0  0  0  0
 15 19  1  0  0  0  0
 16 17  1  0  0  0  0
 16 22  2  0  0  0  0
 17 18  1  0  0  0  0
 17 27  1  1  0  0  0
 18 20  1  0  0  0  0
 19 21  2  0  0  0  0
 19 34  1  0  0  0  0
 20 22  1  0  0  0  0
 20 25  1  6  0  0  0
 22 23  1  0  0  0  0
 23 24  2  0  0  0  0
 24 26  1  0  0  0  0
 24 30  1  0  0  0  0
 26 28  2  0  0  0  0
 28 29  1  0  0  0  0
 29 31  2  0  0  0  0
 30 31  1  6  0  0  0
 30 32  1  0  0  0  0
 32 15  1  1  0  0  0
 32 33  1  0  0  0  0
 33 34  1  0  0  0  0
 33 35  2  0  0  0  0
M  END
$$$$

 OpenBabel10082411353D

 35 39  0  0  0  0  0  0  0  0999 V2000
   12.7863    7.8241  -14.2109 C   0  0  0  0  0  0  0  0  0  0  0  0
   12.4233    7.7158  -13.0289 C   0  0  0  0  0  0  0  0  0  0  0  0
   11.3194    6.8571  -12.8028 C   0  0  0  0  0  0  0  0  0  0  0  0
   12.3150    7.2021  -15.3582 C   0  0  0  0  0  0  0  0  0  0  0  0
   11.2733    6.2739  -15.1502 C   0  0  0  0  0  0  0  0  0  0  0  0
   10.8099    6.0126  -13.8600 C   0  0  0  0  0  0  0  0  0  0  0  0
    9.6782    5.1428  -13.6488 C   0  0  0  0  0  0  0  0  0  0  0  0
    8.5753    5.3880  -12.9589 N   0  0  0  0  0  0  0  0  0  0  0  0
    8.3226    6.7011  -12.3862 C   0  0  0  0  0  0  0  0  0  0  0  0
    9.8502    3.8578  -14.0728 C   0  0  0  0  0  0  0  0  0  0  0  0
    7.3864    7.4720  -13.0530 C   0  0  0  0  0  0  0  0  0  0  0  0
    6.2412    7.8486  -12.2599 C   0  0  0  0  0  0  0  0  0  0  0  0
    7.6425    4.4186  -12.7943 C   0  0  0  0  0  0  0  0  0  0  0  0
   11.0297    3.2482  -14.8053 C   0  0  0  0  0  0  0  0  0  0  0  0
    8.6802    2.8955  -13.7960 C   0  0  0  0  0  0  0  0  0  0  0  0
    8.8565    1.5917  -14.3582 O   0  0  0  0  0  0  0  0  0  0  0  0
    7.6903    3.2226  -13.1994 N   0  0  0  0  0  0  0  0  0  0  0  0
    6.5724    2.3444  -12.8378 C   0  0  0  0  0  0  0  0  0  0  0  0
    9.0225    7.0353  -11.3259 C   0  0  0  0  0  0  0  0  0  0  0  0
    6.4787    4.7532  -12.1787 O   0  0  0  0  0  0  0  0  0  0  0  0
   10.5868    7.0468  -11.5199 C   0  0  0  0  0  0  0  0  0  0  0  0
   11.2761    7.4007  -10.4131 C   0  0  0  0  0  0  0  0  0  0  0  0
    8.6862    7.4300   -9.9877 C   0  0  0  0  0  0  0  0  0  0  0  0
    9.4326    7.6744   -8.9657 C   0  0  0  0  0  0  0  0  0  0  0  0
   10.8581    7.6684   -9.2058 C   0  0  1  0  0  0  0  0  0  0  0  0
   11.6483    7.9198   -7.9603 C   0  0  0  0  0  0  0  0  0  0  0  0
    9.0674    8.0768   -7.5387 C   0  0  0  0  0  0  0  0  0  0  0  0
   11.3403    8.3430   -6.9328 C   0  0  0  0  0  0  0  0  0  0  0  0
    9.8811    8.3757   -6.6063 C   0  0  0  0  0  0  0  0  0  0  0  0
   12.3484    8.7628   -5.5143 S   0  0  0  0  0  0  0  0  0  0  0  0
   11.9329    8.0235   -4.3593 N   0  0  0  0  0  0  0  0  0  0  0  0
   12.0045    8.6437   -2.9775 C   0  0  0  0  0  0  0  0  0  0  0  0
   13.4918    8.7943   -6.0179 O   0  0  0  0  0  0  0  0  0  0  0  0
   11.6990   10.2930   -5.2968 O   0  0  0  0  0  0  0  0  0  0  0  0
   11.0486    6.8791   -4.2835 C   0  0  0  0  0  0  0  0  0  0  0  0
  1  2  2  0  0  0  0
  1  4  1  0  0  0  0
  2  3  1  0  0  0  0
  3  6  2  0  0  0  0
  3 21  1  0  0  0  0
  4  5  2  0  0  0  0
  5  6  1  0  0  0  0
  6  7  1  0  0  0  0
  7  8  1  0  0  0  0
  7 10  2  0  0  0  0
  8  9  1  0  0  0  0
  8 13  1  0  0  0  0
  9 11  1  0  0  0  0
  9 19  2  0  0  0  0
 10 14  1  0  0  0  0
 10 15  1  0  0  0  0
 11 12  1  0  0  0  0
 13 17  1  0  0  0  0
 13 20  2  0  0  0  0
 15 16  2  0  0  0  0
 15 17  1  0  0  0  0
 17 18  1  0  0  0  0
 19 21  1  0  0  0  0
 19 23  1  0  0  0  0
 21 22  2  0  0  0  0
 23 24  2  0  0  0  0
 24 25  1  0  0  0  0
 24 27  1  0  0  0  0
 25 22  1  1  0  0  0
 25 26  1  0  0  0  0
 26 28  2  0  0  0  0
 27 29  2  0  0  0  0
 28 29  1  0  0  0  0
 28 30  1  0  0  0  0
 30 31  1  0  0  0  0
 30 33  2  0  0  0  0
 30 34  2  0  0  0  0
 31 32  1  0  0  0  0
 31 35  1  0  0  0  0
M  END
$$$$

 OpenBabel10082411353D

 35 40  0  0  0  0  0  0  0  0999 V2000
   12.7863    7.8241  -14.2109 C   0  0  0  0  0  0  0  0  0  0  0  0
   12.4233    7.7158  -13.0289 C   0  0  0  0  0  0  0  0  0  0  0  0
   11.3194    6.8571  -12.8028 C   0  0  0  0  0  0  0  0  0  0  0  0
   12.3150    7.2021  -15.3582 C   0  0  0  0  0  0  0  0  0  0  0  0
   11.2733    6.2739  -15.1502 C   0  0  0  0  0  0  0  0  0  0  0  0
   10.8099    6.0126  -13.8600 C   0  0  0  0  0  0  0  0  0  0  0  0
    9.6782    5.1428  -13.6488 C   0  0  0  0  0  0  0  0  0  0  0  0
    8.5753    5.3880  -12.9589 N   0  0  0  0  0  0  0  0  0  0  0  0
    8.3226    6.7011  -12.3862 C   0  0  0  0  0  0  0  0  0  0  0  0
    9.8502    3.8578  -14.0728 C   0  0  0  0  0  0  0  0  0  0  0  0
    7.3864    7.4720  -13.0530 C   0  0  0  0  0  0  0  0  0  0  0  0
    6.2412    7.8486  -12.2599 C   0  0  0  0  0  0  0  0  0  0  0  0
    7.6425    4.4186  -12.7943 C   0  0  0  0  0  0  0  0  0  0  0  0
   11.0297    3.2482  -14.8053 C   0  0  0  0  0  0  0  0  0  0  0  0
    8.6802    2.8955  -13.7960 C   0  0  0  0  0  0  0  0  0  0  0  0
    8.8565    1.5917  -14.3582 O   0  0  0  0  0  0  0  0  0  0  0  0
    7.6903    3.2226  -13.1994 N   0  0  0  0  0  0  0  0  0  0  0  0
    6.5724    2.3444  -12.8378 C   0  0  0  0  0  0  0  0  0  0  0  0
    9.0225    7.0353  -11.3259 C   0  0  0  0  0  0  0  0  0  0  0  0
    6.4787    4.7532  -12.1787 O   0  0  0  0  0  0  0  0  0  0  0  0
   10.5868    7.0468  -11.5199 C   0  0  0  0  0  0  0  0  0  0  0  0
   11.2761    7.4007  -10.4131 C   0  0  0  0  0  0  0  0  0  0  0  0
    8.6862    7.4300   -9.9877 C   0  0  0  0  0  0  0  0  0  0  0  0
    9.4326    7.6744   -8.9657 C   0  0  0  0  0  0  0  0  0  0  0  0
   10.6794    7.6568   -9.1312 C   0  0  2  0  0  0  0  0  0  0  0  0
    8.9269    7.9839   -7.6612 C   0  0  1  0  0  0  0  0  0  0  0  0
   11.6309    7.9931   -8.0642 C   0  0  0  0  0  0  0  0  0  0  0  0
    8.3711    7.1403   -7.0209 O   0  0  0  0  0  0  0  0  0  0  0  0
   12.9608    8.2618   -8.2804 C   0  0  0  0  0  0  0  0  0  0  0  0
    9.9250    8.3644   -6.5140 C   0  0  0  0  0  0  0  0  0  0  0  0
   13.7427    8.4855   -7.1841 C   0  0  0  0  0  0  0  0  0  0  0  0
   11.1706    8.4104   -6.8496 C   0  0  0  0  0  0  0  0  0  0  0  0
   12.0199    8.7771   -5.7011 C   0  0  0  0  0  0  0  0  0  0  0  0
   13.4295    8.8950   -5.9994 C   0  0  0  0  0  0  0  0  0  0  0  0
   11.6677    8.4985   -4.4114 O   0  0  0  0  0  0  0  0  0  0  0  0
  1  2  2  0  0  0  0
  1  4  1  0  0  0  0
  2  3  1  0  0  0  0
  3  6  2  0  0  0  0
  3 21  1  0  0  0  0
  4  5  2  0  0  0  0
  5  6  1  0  0  0  0
  6  7  1  0  0  0  0
  7  8  1  0  0  0  0
  7 10  2  0  0  0  0
  8  9  1  0  0  0  0
  8 13  1  0  0  0  0
  9 11  1  0  0  0  0
  9 19  2  0  0  0  0
 10 14  1  0  0  0  0
 10 15  1  0  0  0  0
 11 12  1  0  0  0  0
 13 17  1  0  0  0  0
 13 20  2  0  0  0  0
 15 16  2  0  0  0  0
 15 17  1  0  0  0  0
 17 18  1  0  0  0  0
 19 21  1  0  0  0  0
 19 23  1  0  0  0  0
 21 22  2  0  0  0  0
 23 24  2  0  0  0  0
 24 25  1  0  0  0  0
 24 26  1  0  0  0  0
 25 22  1  6  0  0  0
 25 27  1  0  0  0  0
 26 28  1  1  0  0  0
 26 30  1  0  0  0  0
 27 29  2  0  0  0  0
 27 32  1  0  0  0  0
 29 31  1  0  0  0  0
 30 32  2  0  0  0  0
 31 34  2  0  0  0  0
 32 33  1  0  0  0  0
 33 34  1  0  0  0  0
 33 35  2  0  0  0  0
M  END
$$$$

 OpenBabel10082411353D

 35 42  0  0  0  0  0  0  0  0999 V2000
    8.0806    9.0240  -12.7589 C   0  0  0  0  0  0  0  0  0  0  0  0
    8.6514    7.8645  -12.2948 C   0  0  0  0  0  0  0  0  0  0  0  0
    9.9575    7.9974  -11.8426 C   0  0  0  0  0  0  0  0  0  0  0  0
   10.7657    6.8667  -11.6050 C   0  0  1  0  0  0  0  0  0  0  0  0
   10.7682    5.9590  -12.8271 C   0  0  0  0  0  0  0  0  0  0  0  0
   12.1553    7.3846  -11.2315 C   0  0  0  0  0  0  0  0  0  0  0  0
    8.0676    6.6451  -12.2974 C   0  0  0  0  0  0  0  0  0  0  0  0
   10.1892    6.1240  -10.3860 C   0  0  0  0  0  0  0  0  0  0  0  0
   11.8375    5.4373  -13.3240 O   0  0  0  0  0  0  0  0  0  0  0  0
    8.6785    5.4761  -13.0273 C   0  0  1  0  0  0  0  0  0  0  0  0
    9.1969    5.2405  -10.4969 C   0  0  1  0  0  0  0  0  0  0  0  0
    7.2213    6.2210  -11.3074 C   0  0  0  0  0  0  0  0  0  0  0  0
   12.5590    7.6872   -9.9896 C   0  0  0  0  0  0  0  0  0  0  0  0
    9.7633    5.0333  -12.9720 C   0  0  1  0  0  0  0  0  0  0  0  0
   10.0661    4.0167  -14.0373 N   0  0  0  0  0  0  0  0  0  0  0  0
   13.6906    8.3004   -9.6233 O   0  0  0  0  0  0  0  0  0  0  0  0
    7.6357    4.5123  -12.6317 C   0  0  2  0  0  0  0  0  0  0  0  0
    6.8831    4.9171  -11.7031 C   0  0  0  0  0  0  0  0  0  0  0  0
   10.5937    6.6967   -9.1779 C   0  0  0  0  0  0  0  0  0  0  0  0
    9.5087    4.3263  -11.6925 C   0  0  2  0  0  0  0  0  0  0  0  0
   11.6359    7.4449   -8.9125 C   0  0  0  0  0  0  0  0  0  0  0  0
   11.9716    7.9159   -7.6200 C   0  0  0  0  0  0  0  0  0  0  0  0
    8.4648    3.6122  -12.2840 C   0  0  2  0  0  0  0  0  0  0  0  0
    9.3128    4.5571   -9.1689 C   0  0  0  0  0  0  0  0  0  0  0  0
   10.9557    7.6369   -6.5929 C   0  0  0  0  0  0  0  0  0  0  0  0
    9.6490    2.8108  -13.7776 C   0  0  0  0  0  0  0  0  0  0  0  0
   10.2419    1.7839  -14.4904 O   0  0  0  0  0  0  0  0  0  0  0  0
    9.8235    6.3429   -8.0308 C   0  0  2  0  0  0  0  0  0  0  0  0
    8.5421    2.5419  -13.1600 C   0  0  0  0  0  0  0  0  0  0  0  0
   11.3117    8.3032   -5.1935 C   0  0  0  0  0  0  0  0  0  0  0  0
    9.9682    6.8581   -6.7779 C   0  0  0  0  0  0  0  0  0  0  0  0
    9.0681    5.1447   -8.0490 C   0  0  0  0  0  0  0  0  0  0  0  0
   11.9566    7.5381   -4.3003 C   0  0  0  0  0  0  0  0  0  0  0  0
   12.1515    9.6203   -5.4790 C   0  0  0  0  0  0  0  0  0  0  0  0
    9.9405    8.8235   -4.6177 C   0  0  0  0  0  0  0  0  0  0  0  0
  1  2  1  0  0  0  0
  2  3  1  0  0  0  0
  2  7  2  0  0  0  0
  4  3  1  6  0  0  0
  4  5  1  0  0  0  0
  4  6  1  0  0  0  0
  4  8  1  0  0  0  0
  5  9  2  0  0  0  0
  6 13  1  0  0  0  0
  7 12  1  0  0  0  0
  8 11  1  0  0  0  0
  8 19  2  0  0  0  0
 10  7  1  1  0  0  0
 10 14  1  0  0  0  0
 10 17  1  0  0  0  0
 11 20  1  0  0  0  0
 11 24  1  1  0  0  0
 12 18  1  0  0  0  0
 13 16  2  0  0  0  0
 13 21  1  0  0  0  0
 14  5  1  1  0  0  0
 14 15  1  0  0  0  0
 14 20  1  0  0  0  0
 15 26  1  0  0  0  0
 17 18  1  1  0  0  0
 17 23  1  0  0  0  0
 19 21  1  0  0  0  0
 19 28  1  0  0  0  0
 20 23  1  0  0  0  0
 21 22  2  0  0  0  0
 22 25  1  0  0  0  0
 23 29  1  0  0  0  0
 24 32  1  0  0  0  0
 25 30  1  0  0  0  0
 25 31  2  0  0  0  0
 26 27  2  0  0  0  0
 26 29  1  0  0  0  0
 28 31  1  0  0  0  0
 28 32  1  0  0  0  0
 30 33  1  0  0  0  0
 30 34  1  0  0  0  0
 30 35  1  0  0  0  0
M  END
$$$$

 OpenBabel10082411353D

 24 26  0  0  0  0  0  0  0  0999 V2000
   12.8881    8.7759   -3.5681 C   0  0  0  0  0  0  0  0  0  0  0  0
   11.9416    9.4732   -4.1220 C   0  0  0  0  0  0  0  0  0  0  0  0
   12.3556    7.6012   -2.6527 C   0  0  0  0  0  0  0  0  0  0  0  0
   11.8805    9.3400   -5.6557 C   0  0  0  0  0  0  0  0  0  0  0  0
   11.7716    6.5414   -3.3821 C   0  0  0  0  0  0  0  0  0  0  0  0
   10.8523    8.6585   -6.3310 C   0  0  0  0  0  0  0  0  0  0  0  0
   11.1142    8.2520   -7.7289 C   0  0  0  0  0  0  0  0  0  0  0  0
   10.0478    7.6568   -8.4887 C   0  0  0  0  0  0  0  0  0  0  0  0
   12.3648    8.4339   -8.3703 C   0  0  0  0  0  0  0  0  0  0  0  0
   12.6142    8.1352   -9.7322 C   0  0  0  0  0  0  0  0  0  0  0  0
   10.2852    7.3833   -9.9138 C   0  0  0  0  0  0  0  0  0  0  0  0
   11.5161    7.5808  -10.4860 C   0  0  0  0  0  0  0  0  0  0  0  0
   11.6641    7.2285  -11.8174 O   0  0  0  0  0  0  0  0  0  0  0  0
   10.8624    6.4419  -12.4395 C   0  0  0  0  0  0  0  0  0  0  0  0
   11.2693    5.8267  -13.4966 C   0  0  0  0  0  0  0  0  0  0  0  0
   10.3973    4.9870  -14.3057 C   0  0  0  0  0  0  0  0  0  0  0  0
    9.1338    4.5860  -13.7335 C   0  0  0  0  0  0  0  0  0  0  0  0
    8.3197    3.6632  -14.4500 O   0  0  0  0  0  0  0  0  0  0  0  0
    9.4187    5.9856  -12.0936 C   0  0  0  0  0  0  0  0  0  0  0  0
   10.8446    4.2136  -15.4548 O   0  0  0  0  0  0  0  0  0  0  0  0
   11.7881    3.2972  -15.3534 C   0  0  0  0  0  0  0  0  0  0  0  0
    7.8833    2.5554  -13.7800 C   0  0  0  0  0  0  0  0  0  0  0  0
    9.0798    6.7780  -10.7355 C   0  0  0  0  0  0  0  0  0  0  0  0
    8.6975    5.2566  -12.6301 C   0  0  0  0  0  0  0  0  0  0  0  0
  1  2  1  0  0  0  0
  1  3  1  0  0  0  0
  2  4  1  0  0  0  0
  3  5  1  0  0  0  0
  4  6  1  0  0  0  0
  6  7  1  0  0  0  0
  7  8  1  0  0  0  0
  7  9  2  0  0  0  0
  8 11  2  0  0  0  0
  9 10  1  0  0  0  0
 10 12  2  0  0  0  0
 11 12  1  0  0  0  0
 11 23  1  0  0  0  0
 12 13  1  0  0  0  0
 13 14  1  0  0  0  0
 14 15  2  0  0  0  0
 14 19  1  0  0  0  0
 15 16  1  0  0  0  0
 16 17  2  0  0  0  0
 16 20  1  0  0  0  0
 17 18  1  0  0  0  0
 17 24  1  0  0  0  0
 18 22  1  0  0  0  0
 19 23  1  0  0  0  0
 19 24  2  0  0  0  0
 20 21  1  0  0  0  0
M  END
$$$$

 OpenBabel10082411353D

 35 40  0  0  0  0  0  0  0  0999 V2000
   12.8881    8.7759   -3.5681 C   0  0  0  0  0  0  0  0  0  0  0  0
   11.9416    9.4732   -4.1220 C   0  0  0  0  0  0  0  0  0  0  0  0
   12.1782    9.3707   -5.6407 C   0  0  0  0  0  0  0  0  0  0  0  0
   11.3825    8.3447   -6.3966 C   0  0  0  0  0  0  0  0  0  0  0  0
   11.8188    8.0044   -7.6822 C   0  0  0  0  0  0  0  0  0  0  0  0
   10.3120    7.6600   -5.7120 C   0  0  0  0  0  0  0  0  0  0  0  0
   10.8678    7.0723   -8.2897 C   0  0  0  0  0  0  0  0  0  0  0  0
    9.5717    6.7245   -6.3809 C   0  0  0  0  0  0  0  0  0  0  0  0
    9.8820    6.4468   -7.7081 C   0  0  0  0  0  0  0  0  0  0  0  0
   11.2611    6.6953   -9.7105 C   0  0  1  0  0  0  0  0  0  0  0  0
   10.0425    6.5460  -10.5971 C   0  0  0  0  0  0  0  0  0  0  0  0
   11.8062    7.8130  -10.4883 C   0  0  0  0  0  0  0  0  0  0  0  0
    8.8746    5.5265   -8.4149 C   0  0  0  0  0  0  0  0  0  0  0  0
   13.1546    8.1022  -10.4049 O   0  0  0  0  0  0  0  0  0  0  0  0
   10.3114    6.7627  -11.8786 C   0  0  0  0  0  0  0  0  0  0  0  0
   11.3906    7.6694  -11.8036 N   0  0  0  0  0  0  0  0  0  0  0  0
   11.9779    8.2398  -13.0316 C   0  0  0  0  0  0  0  0  0  0  0  0
    8.8154    6.0162   -9.9613 C   0  0  0  0  0  0  0  0  0  0  0  0
    9.6102    6.3636  -13.0859 C   0  0  0  0  0  0  0  0  0  0  0  0
   11.8804    7.4718  -14.1937 C   0  0  0  0  0  0  0  0  0  0  0  0
   10.7017    6.3981  -14.2482 C   0  0  0  0  0  0  0  0  0  0  0  0
   10.3813    5.8427  -15.4547 C   0  0  0  0  0  0  0  0  0  0  0  0
    9.2579    5.0507  -15.6184 C   0  0  0  0  0  0  0  0  0  0  0  0
   12.6748    7.4257  -15.2457 C   0  0  0  0  0  0  0  0  0  0  0  0
    9.3685    3.7401  -15.1559 C   0  0  0  0  0  0  0  0  0  0  0  0
   11.4448    5.9436  -16.3841 C   0  0  0  0  0  0  0  0  0  0  0  0
    8.3308    3.1061  -14.4825 C   0  0  0  0  0  0  0  0  0  0  0  0
   12.5097    6.7445  -16.2996 C   0  0  0  0  0  0  0  0  0  0  0  0
    8.5965    1.7263  -14.0307 C   0  0  0  0  0  0  0  0  0  0  0  0
   10.6046    2.9384  -15.3659 C   0  0  0  0  0  0  0  0  0  0  0  0
    7.3860    1.1151  -13.4295 C   0  0  0  0  0  0  0  0  0  0  0  0
   10.7717    1.8876  -14.7644 C   0  0  0  0  0  0  0  0  0  0  0  0
    9.7090    1.1461  -14.1869 C   0  0  0  0  0  0  0  0  0  0  0  0
    7.4479   -0.1878  -13.3422 O   0  0  0  0  0  0  0  0  0  0  0  0
    6.4598    1.6995  -12.7236 N   0  0  0  0  0  0  0  0  0  0  0  0
  1  2  1  0  0  0  0
  2  3  1  0  0  0  0
  3  4  1  0  0  0  0
  4  5  2  0  0  0  0
  4  6  1  0  0  0  0
  5  7  1  0  0  0  0
  6  8  2  0  0  0  0
  7  9  2  0  0  0  0
  8  9  1  0  0  0  0
  9 13  1  0  0  0  0
 10  7  1  1  0  0  0
 10 11  1  0  0  0  0
 10 12  1  0  0  0  0
 11 15  2  0  0  0  0
 11 18  1  0  0  0  0
 12 14  2  0  0  0  0
 12 16  1  0  0  0  0
 13 18  1  0  0  0  0
 15 16  1  0  0  0  0
 15 19  1  0  0  0  0
 16 17  1  0  0  0  0
 17 20  1  0  0  0  0
 19 21  1  0  0  0  0
 20 21  2  0  0  0  0
 20 24  1  0  0  0  0
 21 22  1  0  0  0  0
 22 23  1  0  0  0  0
 22 26  2  0  0  0  0
 23 25  1  0  0  0  0
 24 28  2  0  0  0  0
 25 27  2  0  0  0  0
 25 30  1  0  0  0  0
 26 28  1  0  0  0  0
 27 29  1  0  0  0  0
 29 31  1  0  0  0  0
 29 33  2  0  0  0  0
 30 32  2  0  0  0  0
 31 34  2  0  0  0  0
 31 35  1  0  0  0  0
 32 33  1  0  0  0  0
M  END
$$$$

 OpenBabel10082411353D

 35 40  0  0  0  0  0  0  0  0999 V2000
   11.6836    6.0105   -4.8831 C   0  0  0  0  0  0  0  0  0  0  0  0
   11.1291    7.0732   -5.4395 C   0  0  0  0  0  0  0  0  0  0  0  0
   10.6954    7.0156   -6.8073 C   0  0  0  0  0  0  0  0  0  0  0  0
   10.2502    8.1187   -7.5536 C   0  0  2  0  0  0  0  0  0  0  0  0
   11.1205    8.4712   -4.9629 C   0  0  0  0  0  0  0  0  0  0  0  0
   10.8655    8.3511   -8.7960 C   0  0  0  0  0  0  0  0  0  0  0  0
   10.2922    7.8843   -9.9985 C   0  0  0  0  0  0  0  0  0  0  0  0
   10.4654    9.6993   -5.6120 C   0  0  0  0  0  0  0  0  0  0  0  0
   10.3510    9.5971   -7.0014 C   0  0  0  0  0  0  0  0  0  0  0  0
   12.2462    6.3351   -3.5020 C   0  0  0  0  0  0  0  0  0  0  0  0
   11.0471    7.5309  -11.1063 C   0  0  0  0  0  0  0  0  0  0  0  0
   11.7288    8.6923   -3.6518 C   0  0  0  0  0  0  0  0  0  0  0  0
   12.3991    7.7501  -11.1145 C   0  0  0  0  0  0  0  0  0  0  0  0
   12.3738    7.7580   -2.9599 C   0  0  0  0  0  0  0  0  0  0  0  0
   13.1285    8.5075  -10.1661 O   0  0  0  0  0  0  0  0  0  0  0  0
    9.0407    7.3775  -10.0973 N   0  0  0  0  0  0  0  0  0  0  0  0
    8.9787    6.9473  -11.4664 N   0  0  0  0  0  0  0  0  0  0  0  0
   13.1012    7.4459  -12.3707 C   0  0  0  0  0  0  0  0  0  0  0  0
   12.2395    6.9724  -13.2444 C   0  0  0  0  0  0  0  0  0  0  0  0
   10.2768    7.0170  -11.9799 C   0  0  0  0  0  0  0  0  0  0  0  0
   12.9237    6.5822  -14.5759 O   0  0  0  0  0  0  0  0  0  0  0  0
   10.8906    6.6526  -13.2252 C   0  0  0  0  0  0  0  0  0  0  0  0
   12.2396    6.1290  -15.6916 C   0  0  0  0  0  0  0  0  0  0  0  0
    7.7368    6.4514  -12.0707 C   0  0  0  0  0  0  0  0  0  0  0  0
    7.1353    7.2872  -12.8105 C   0  0  0  0  0  0  0  0  0  0  0  0
    7.6622    5.0135  -12.1225 C   0  0  0  0  0  0  0  0  0  0  0  0
   12.5092    4.6950  -15.8147 C   0  0  0  0  0  0  0  0  0  0  0  0
    5.9403    6.5840  -13.2897 C   0  0  0  0  0  0  0  0  0  0  0  0
   11.2738    3.8422  -15.5220 N   0  0  0  0  0  0  0  0  0  0  0  0
    8.7139    4.1736  -11.4601 C   0  0  0  0  0  0  0  0  0  0  0  0
    6.6269    4.4744  -12.6955 C   0  0  0  0  0  0  0  0  0  0  0  0
    9.4620    3.2890  -12.1895 O   0  0  0  0  0  0  0  0  0  0  0  0
    5.7480    5.3068  -13.3143 C   0  0  0  0  0  0  0  0  0  0  0  0
    9.2569    3.2107  -13.4796 C   0  0  0  0  0  0  0  0  0  0  0  0
   10.5064    2.8350  -14.3092 C   0  0  0  0  0  0  0  0  0  0  0  0
  1  2  1  0  0  0  0
  1 10  2  0  0  0  0
  2  3  1  0  0  0  0
  2  5  2  0  0  0  0
  3  4  1  0  0  0  0
  4  6  1  6  0  0  0
  4  9  1  0  0  0  0
  5  8  1  0  0  0  0
  5 12  1  0  0  0  0
  6  7  1  0  0  0  0
  7 11  1  0  0  0  0
  7 16  2  0  0  0  0
  8  9  1  0  0  0  0
 10 14  1  0  0  0  0
 11 13  2  0  0  0  0
 11 20  1  0  0  0  0
 12 14  2  0  0  0  0
 13 15  1  0  0  0  0
 13 18  1  0  0  0  0
 16 17  1  0  0  0  0
 17 20  1  0  0  0  0
 17 24  1  0  0  0  0
 18 19  2  0  0  0  0
 19 21  1  0  0  0  0
 19 22  1  0  0  0  0
 20 22  2  0  0  0  0
 21 23  1  0  0  0  0
 23 27  1  0  0  0  0
 24 25  2  0  0  0  0
 24 26  1  0  0  0  0
 25 28  1  0  0  0  0
 26 30  1  0  0  0  0
 26 31  2  0  0  0  0
 27 29  1  0  0  0  0
 28 33  2  0  0  0  0
 29 35  1  0  0  0  0
 30 32  1  0  0  0  0
 31 33  1  0  0  0  0
 32 34  1  0  0  0  0
 34 35  1  0  0  0  0
M  END
$$$$

 OpenBabel10082411353D

 35 40  0  0  0  0  0  0  0  0999 V2000
   12.8881    8.7759   -3.5681 C   0  0  0  0  0  0  0  0  0  0  0  0
   11.9416    9.4732   -4.1220 C   0  0  0  0  0  0  0  0  0  0  0  0
   12.3556    7.6012   -2.6527 C   0  0  0  0  0  0  0  0  0  0  0  0
   11.8805    9.3400   -5.6557 C   0  0  0  0  0  0  0  0  0  0  0  0
   11.7716    6.5414   -3.3821 C   0  0  0  0  0  0  0  0  0  0  0  0
   10.8523    8.6585   -6.3310 C   0  0  0  0  0  0  0  0  0  0  0  0
   11.1142    8.2520   -7.7289 C   0  0  0  0  0  0  0  0  0  0  0  0
   10.0478    7.6568   -8.4887 C   0  0  0  0  0  0  0  0  0  0  0  0
   12.3648    8.4339   -8.3703 C   0  0  0  0  0  0  0  0  0  0  0  0
   12.6142    8.1352   -9.7322 C   0  0  0  0  0  0  0  0  0  0  0  0
   10.2852    7.3833   -9.9138 C   0  0  0  0  0  0  0  0  0  0  0  0
   11.5161    7.5808  -10.4860 C   0  0  0  0  0  0  0  0  0  0  0  0
   11.6641    7.2285  -11.8174 O   0  0  0  0  0  0  0  0  0  0  0  0
   10.8624    6.4419  -12.4395 C   0  0  0  0  0  0  0  0  0  0  0  0
   11.2693    5.8267  -13.4966 C   0  0  0  0  0  0  0  0  0  0  0  0
    9.5259    6.2192  -11.9953 C   0  0  0  0  0  0  0  0  0  0  0  0
    9.2551    6.6732  -10.5921 C   0  0  2  0  0  0  0  0  0  0  0  0
    8.1388    7.5201  -10.6434 O   0  0  0  0  0  0  0  0  0  0  0  0
   12.6263    6.1828  -14.1606 C   0  0  0  0  0  0  0  0  0  0  0  0
    7.2614    7.1893  -11.7193 C   0  0  2  0  0  0  0  0  0  0  0  0
   12.6352    7.3184  -14.7782 C   0  0  0  0  0  0  0  0  0  0  0  0
    8.2277    6.2735  -12.5381 C   0  0  0  0  0  0  0  0  0  0  0  0
    7.7180    5.1928  -13.4230 C   0  0  0  0  0  0  0  0  0  0  0  0
    8.4439    4.2015  -13.9045 C   0  0  0  0  0  0  0  0  0  0  0  0
    6.9950    8.4483  -12.4502 C   0  0  0  0  0  0  0  0  0  0  0  0
    7.7472    3.2985  -14.8364 C   0  0  0  0  0  0  0  0  0  0  0  0
    9.0300    5.4319   -9.7786 C   0  0  0  0  0  0  0  0  0  0  0  0
    8.1705    1.9584  -14.6092 C   0  0  0  0  0  0  0  0  0  0  0  0
    9.3621    1.6865  -14.2893 C   0  0  1  0  0  0  0  0  0  0  0  0
    9.8137    3.7826  -13.5228 C   0  0  2  0  0  0  0  0  0  0  0  0
    9.8271    0.3695  -14.4257 O   0  0  0  0  0  0  0  0  0  0  0  0
   10.8262    4.3937  -13.7648 C   0  0  0  0  0  0  0  0  0  0  0  0
   10.2251    2.5084  -13.8601 C   0  0  2  0  0  0  0  0  0  0  0  0
   11.3359    2.9568  -14.2871 O   0  0  0  0  0  0  0  0  0  0  0  0
   11.7876    3.8565  -14.2858 N   0  0  0  0  0  0  0  0  0  0  0  0
  1  2  1  0  0  0  0
  1  3  1  0  0  0  0
  2  4  1  0  0  0  0
  3  5  1  0  0  0  0
  4  6  1  0  0  0  0
  6  7  1  0  0  0  0
  7  8  1  0  0  0  0
  7  9  2  0  0  0  0
  8 11  2  0  0  0  0
  9 10  1  0  0  0  0
 10 12  2  0  0  0  0
 11 12  1  0  0  0  0
 11 17  1  0  0  0  0
 12 13  1  0  0  0  0
 13 14  1  0  0  0  0
 14 15  2  0  0  0  0
 14 16  1  0  0  0  0
 15 19  1  0  0  0  0
 15 32  1  0  0  0  0
 16 17  1  0  0  0  0
 16 22  2  0  0  0  0
 17 18  1  0  0  0  0
 17 27  1  1  0  0  0
 18 20  1  0  0  0  0
 19 21  2  0  0  0  0
 20 22  1  0  0  0  0
 20 25  1  6  0  0  0
 22 23  1  0  0  0  0
 23 24  2  0  0  0  0
 24 26  1  0  0  0  0
 26 28  2  0  0  0  0
 28 29  1  0  0  0  0
 29 31  1  6  0  0  0
 29 33  1  0  0  0  0
 30 24  1  6  0  0  0
 30 32  1  0  0  0  0
 30 33  1  0  0  0  0
 32 35  2  0  0  0  0
 33 34  1  6  0  0  0
 34 35  1  0  0  0  0
M  END
$$$$

 OpenBabel10082411353D

 35 39  0  0  0  0  0  0  0  0999 V2000
   11.6836    6.0105   -4.8831 C   0  0  0  0  0  0  0  0  0  0  0  0
   11.1291    7.0732   -5.4395 C   0  0  0  0  0  0  0  0  0  0  0  0
   10.6954    7.0156   -6.8073 C   0  0  0  0  0  0  0  0  0  0  0  0
   10.2502    8.1187   -7.5536 C   0  0  2  0  0  0  0  0  0  0  0  0
   11.1205    8.4712   -4.9629 C   0  0  0  0  0  0  0  0  0  0  0  0
   10.8655    8.3511   -8.7960 C   0  0  0  0  0  0  0  0  0  0  0  0
   10.2922    7.8843   -9.9985 C   0  0  0  0  0  0  0  0  0  0  0  0
   10.4654    9.6993   -5.6120 C   0  0  0  0  0  0  0  0  0  0  0  0
   10.3510    9.5971   -7.0014 C   0  0  0  0  0  0  0  0  0  0  0  0
   12.2462    6.3351   -3.5020 C   0  0  0  0  0  0  0  0  0  0  0  0
   11.0471    7.5309  -11.1063 C   0  0  0  0  0  0  0  0  0  0  0  0
   11.7288    8.6923   -3.6518 C   0  0  0  0  0  0  0  0  0  0  0  0
   12.3991    7.7501  -11.1145 C   0  0  0  0  0  0  0  0  0  0  0  0
   12.3738    7.7580   -2.9599 C   0  0  0  0  0  0  0  0  0  0  0  0
   13.1285    8.5075  -10.1661 O   0  0  0  0  0  0  0  0  0  0  0  0
    9.0407    7.3775  -10.0973 N   0  0  0  0  0  0  0  0  0  0  0  0
    8.9787    6.9473  -11.4664 N   0  0  0  0  0  0  0  0  0  0  0  0
   13.1486    7.4839  -12.3563 C   0  0  0  0  0  0  0  0  0  0  0  0
   10.2774    6.9211  -12.0258 C   0  0  0  0  0  0  0  0  0  0  0  0
    7.7103    6.4336  -11.9664 C   0  0  0  0  0  0  0  0  0  0  0  0
   12.3181    6.9212  -13.3802 C   0  0  0  0  0  0  0  0  0  0  0  0
   12.9543    6.5895  -14.6358 O   0  0  0  0  0  0  0  0  0  0  0  0
   10.9162    6.6353  -13.2980 C   0  0  0  0  0  0  0  0  0  0  0  0
    7.7682    4.9539  -12.3144 C   0  0  0  0  0  0  0  0  0  0  0  0
   12.5567    5.5127  -15.3192 C   0  0  0  0  0  0  0  0  0  0  0  0
    6.7187    7.1761  -12.3365 C   0  0  0  0  0  0  0  0  0  0  0  0
    6.6912    4.3470  -12.8055 C   0  0  0  0  0  0  0  0  0  0  0  0
    6.7602    8.6758  -12.1854 C   0  0  0  0  0  0  0  0  0  0  0  0
    5.5485    5.2159  -13.1184 C   0  0  0  0  0  0  0  0  0  0  0  0
    6.6442    2.9513  -13.0194 C   0  0  0  0  0  0  0  0  0  0  0  0
    5.5801    6.5306  -12.8963 C   0  0  0  0  0  0  0  0  0  0  0  0
    5.8641    2.2222  -12.5343 O   0  0  0  0  0  0  0  0  0  0  0  0
    7.6249    2.4132  -13.8428 N   0  0  0  0  0  0  0  0  0  0  0  0
    7.7386    1.0303  -14.1833 C   0  0  0  0  0  0  0  0  0  0  0  0
    9.2295    0.7031  -14.5920 C   0  0  0  0  0  0  0  0  0  0  0  0
  1  2  1  0  0  0  0
  1 10  2  0  0  0  0
  2  3  1  0  0  0  0
  2  5  2  0  0  0  0
  3  4  1  0  0  0  0
  4  6  1  6  0  0  0
  4  9  1  0  0  0  0
  5  8  1  0  0  0  0
  5 12  1  0  0  0  0
  6  7  1  0  0  0  0
  7 11  1  0  0  0  0
  7 16  2  0  0  0  0
  8  9  1  0  0  0  0
 10 14  1  0  0  0  0
 11 13  2  0  0  0  0
 11 19  1  0  0  0  0
 12 14  2  0  0  0  0
 13 15  1  0  0  0  0
 13 18  1  0  0  0  0
 16 17  1  0  0  0  0
 17 19  1  0  0  0  0
 17 20  1  0  0  0  0
 18 21  2  0  0  0  0
 19 23  2  0  0  0  0
 20 24  1  0  0  0  0
 20 26  2  0  0  0  0
 21 22  1  0  0  0  0
 21 23  1  0  0  0  0
 22 25  1  0  0  0  0
 24 27  2  0  0  0  0
 26 28  1  0  0  0  0
 26 31  1  0  0  0  0
 27 29  1  0  0  0  0
 27 30  1  0  0  0  0
 29 31  2  0  0  0  0
 30 32  2  0  0  0  0
 30 33  1  0  0  0  0
 33 34  1  0  0  0  0
 34 35  1  0  0  0  0
M  END
$$$$

 OpenBabel10082411353D

 35 40  0  0  0  0  0  0  0  0999 V2000
   12.8881    8.7759   -3.5681 C   0  0  0  0  0  0  0  0  0  0  0  0
   11.9416    9.4732   -4.1220 C   0  0  0  0  0  0  0  0  0  0  0  0
   12.3556    7.6012   -2.6527 C   0  0  0  0  0  0  0  0  0  0  0  0
   11.8805    9.3400   -5.6557 C   0  0  0  0  0  0  0  0  0  0  0  0
   11.7716    6.5414   -3.3821 C   0  0  0  0  0  0  0  0  0  0  0  0
   10.8523    8.6585   -6.3310 C   0  0  0  0  0  0  0  0  0  0  0  0
   11.1142    8.2520   -7.7289 C   0  0  0  0  0  0  0  0  0  0  0  0
   10.0478    7.6568   -8.4887 C   0  0  0  0  0  0  0  0  0  0  0  0
   12.3648    8.4339   -8.3703 C   0  0  0  0  0  0  0  0  0  0  0  0
   12.6142    8.1352   -9.7322 C   0  0  0  0  0  0  0  0  0  0  0  0
   10.2852    7.3833   -9.9138 C   0  0  0  0  0  0  0  0  0  0  0  0
   11.5161    7.5808  -10.4860 C   0  0  0  0  0  0  0  0  0  0  0  0
   11.6641    7.2285  -11.8174 O   0  0  0  0  0  0  0  0  0  0  0  0
   10.8624    6.4419  -12.4395 C   0  0  0  0  0  0  0  0  0  0  0  0
   11.2693    5.8267  -13.4966 C   0  0  0  0  0  0  0  0  0  0  0  0
    9.5259    6.2192  -11.9953 C   0  0  0  0  0  0  0  0  0  0  0  0
    9.2551    6.6732  -10.5921 C   0  0  2  0  0  0  0  0  0  0  0  0
    8.1388    7.5201  -10.6434 O   0  0  0  0  0  0  0  0  0  0  0  0
   12.6263    6.1828  -14.1606 C   0  0  0  0  0  0  0  0  0  0  0  0
    7.2614    7.1893  -11.7193 C   0  0  2  0  0  0  0  0  0  0  0  0
   12.6352    7.3184  -14.7782 C   0  0  0  0  0  0  0  0  0  0  0  0
    8.2277    6.2735  -12.5381 C   0  0  0  0  0  0  0  0  0  0  0  0
    7.7180    5.1928  -13.4230 C   0  0  0  0  0  0  0  0  0  0  0  0
    8.4439    4.2015  -13.9045 C   0  0  0  0  0  0  0  0  0  0  0  0
    6.9950    8.4483  -12.4502 C   0  0  0  0  0  0  0  0  0  0  0  0
    7.7472    3.2985  -14.8364 C   0  0  0  0  0  0  0  0  0  0  0  0
    9.0300    5.4319   -9.7786 C   0  0  0  0  0  0  0  0  0  0  0  0
    8.1705    1.9584  -14.6092 C   0  0  0  0  0  0  0  0  0  0  0  0
    9.3621    1.6865  -14.2893 C   0  0  0  0  0  0  0  0  0  0  0  0
    9.9085    4.0088  -13.8348 C   0  0  1  0  0  0  0  0  0  0  0  0
    9.8911    0.4282  -14.4990 O   0  0  0  0  0  0  0  0  0  0  0  0
   10.3495    2.6692  -14.0340 C   0  0  0  0  0  0  0  0  0  0  0  0
   11.0142    4.6491  -14.2939 C   0  0  0  0  0  0  0  0  0  0  0  0
   11.8519    4.2833  -15.0639 C   0  0  0  0  0  0  0  0  0  0  0  0
   12.8269    5.1892  -15.1561 O   0  0  0  0  0  0  0  0  0  0  0  0
  1  2  1  0  0  0  0
  1  3  1  0  0  0  0
  2  4  1  0  0  0  0
  3  5  1  0  0  0  0
  4  6  1  0  0  0  0
  6  7  1  0  0  0  0
  7  8  1  0  0  0  0
  7  9  2  0  0  0  0
  8 11  2  0  0  0  0
  9 10  1  0  0  0  0
 10 12  2  0  0  0  0
 11 12  1  0  0  0  0
 11 17  1  0  0  0  0
 12 13  1  0  0  0  0
 13 14  1  0  0  0  0
 14 15  2  0  0  0  0
 14 16  1  0  0  0  0
 15 19  1  0  0  0  0
 15 33  1  0  0  0  0
 16 17  1  0  0  0  0
 16 22  2  0  0  0  0
 17 18  1  0  0  0  0
 17 27  1  1  0  0  0
 18 20  1  0  0  0  0
 19 21  2  0  0  0  0
 19 35  1  0  0  0  0
 20 22  1  0  0  0  0
 20 25  1  6  0  0  0
 22 23  1  0  0  0  0
 23 24  2  0  0  0  0
 24 26  1  0  0  0  0
 24 30  1  0  0  0  0
 26 28  2  0  0  0  0
 28 29  1  0  0  0  0
 29 31  1  0  0  0  0
 29 32  2  0  0  0  0
 30 32  1  6  0  0  0
 30 33  1  0  0  0  0
 33 34  2  0  0  0  0
 34 35  1  0  0  0  0
M  END
$$$$

 OpenBabel10082411353D

 35 41  0  0  0  0  0  0  0  0999 V2000
   13.1862    9.4584   -4.4987 C   0  0  0  0  0  0  0  0  0  0  0  0
   12.1466    8.8379   -3.9099 C   0  0  0  0  0  0  0  0  0  0  0  0
   12.9882    9.7409   -5.8618 C   0  0  0  0  0  0  0  0  0  0  0  0
   11.9761    9.3177   -6.5889 C   0  0  0  0  0  0  0  0  0  0  0  0
   10.9346    8.5066   -5.9096 C   0  0  0  0  0  0  0  0  0  0  0  0
   12.2569    8.5495   -2.4516 C   0  0  0  0  0  0  0  0  0  0  0  0
   11.0697    8.2577   -4.5299 C   0  0  0  0  0  0  0  0  0  0  0  0
   11.7350    9.5912   -7.9371 O   0  0  0  0  0  0  0  0  0  0  0  0
    9.7397    8.0780   -6.6393 C   0  0  0  0  0  0  0  0  0  0  0  0
   10.8649    8.8162   -8.5483 C   0  0  2  0  0  0  0  0  0  0  0  0
    9.2400    6.9866   -6.2549 O   0  0  0  0  0  0  0  0  0  0  0  0
   10.8576    9.1019   -9.9991 C   0  0  0  0  0  0  0  0  0  0  0  0
   11.8034    8.3801  -10.7004 C   0  0  0  0  0  0  0  0  0  0  0  0
    9.8033    8.2783   -8.0085 N   0  0  0  0  0  0  0  0  0  0  0  0
   11.4502    7.6515  -11.8595 C   0  0  0  0  0  0  0  0  0  0  0  0
   10.3061    7.2417  -12.2192 C   0  0  0  0  0  0  0  0  0  0  0  0
   12.5619    7.1376  -12.7423 C   0  0  0  0  0  0  0  0  0  0  0  0
    9.9519    6.4550  -13.3394 C   0  0  0  0  0  0  0  0  0  0  0  0
   12.3234    6.3860  -13.8374 C   0  0  0  0  0  0  0  0  0  0  0  0
   11.0086    6.0227  -14.1262 C   0  0  0  0  0  0  0  0  0  0  0  0
   10.7528    5.1903  -15.3140 C   0  0  0  0  0  0  0  0  0  0  0  0
   10.7272    3.7455  -15.1287 N   0  0  0  0  0  0  0  0  0  0  0  0
    9.8835    3.1820  -14.4607 C   0  0  0  0  0  0  0  0  0  0  0  0
    9.9418    1.8005  -14.3797 N   0  0  0  0  0  0  0  0  0  0  0  0
    8.5108    3.6485  -13.9676 C   0  0  0  0  0  0  0  0  0  0  0  0
    7.4839    2.7202  -13.6392 C   0  0  0  0  0  0  0  0  0  0  0  0
   11.1594    1.4102  -15.0263 O   0  0  0  0  0  0  0  0  0  0  0  0
   11.5806    2.7148  -15.4973 C   0  0  0  0  0  0  0  0  0  0  0  0
    8.1482    4.9455  -13.8318 C   0  0  0  0  0  0  0  0  0  0  0  0
    8.5688    6.1536  -13.5560 C   0  0  0  0  0  0  0  0  0  0  0  0
    7.6851    7.1904  -13.3092 C   0  0  0  0  0  0  0  0  0  0  0  0
    6.3091    6.9783  -13.2955 C   0  0  0  0  0  0  0  0  0  0  0  0
    6.6662    4.5684  -13.4213 C   0  0  0  0  0  0  0  0  0  0  0  0
    6.4050    3.3780  -13.3711 N   0  0  0  0  0  0  0  0  0  0  0  0
    5.7806    5.7626  -13.1315 C   0  0  0  0  0  0  0  0  0  0  0  0
  1  2  1  0  0  0  0
  1  3  2  0  0  0  0
  2  6  1  0  0  0  0
  2  7  2  0  0  0  0
  3  4  1  0  0  0  0
  4  5  2  0  0  0  0
  4  8  1  0  0  0  0
  5  7  1  0  0  0  0
  5  9  1  0  0  0  0
  8 10  1  0  0  0  0
  9 11  2  0  0  0  0
  9 14  1  0  0  0  0
 10 12  1  6  0  0  0
 10 14  1  0  0  0  0
 12 13  1  0  0  0  0
 13 15  1  0  0  0  0
 15 16  2  0  0  0  0
 15 17  1  0  0  0  0
 16 18  1  0  0  0  0
 17 19  2  0  0  0  0
 18 20  2  0  0  0  0
 18 30  1  0  0  0  0
 19 20  1  0  0  0  0
 20 21  1  0  0  0  0
 21 22  1  0  0  0  0
 22 23  1  0  0  0  0
 22 28  1  0  0  0  0
 23 24  2  0  0  0  0
 23 25  1  0  0  0  0
 24 27  1  0  0  0  0
 25 26  2  0  0  0  0
 25 29  1  0  0  0  0
 26 34  1  0  0  0  0
 27 28  1  0  0  0  0
 29 30  1  0  0  0  0
 29 33  2  0  0  0  0
 30 31  2  0  0  0  0
 31 32  1  0  0  0  0
 32 35  2  0  0  0  0
 33 34  1  0  0  0  0
 33 35  1  0  0  0  0
M  END
$$$$

 OpenBabel10082411353D

 35 39  0  0  0  0  0  0  0  0999 V2000
   12.7863    7.8241  -14.2109 C   0  0  0  0  0  0  0  0  0  0  0  0
   12.4233    7.7158  -13.0289 C   0  0  0  0  0  0  0  0  0  0  0  0
   11.3194    6.8571  -12.8028 C   0  0  0  0  0  0  0  0  0  0  0  0
   12.3150    7.2021  -15.3582 C   0  0  0  0  0  0  0  0  0  0  0  0
   11.2733    6.2739  -15.1502 C   0  0  0  0  0  0  0  0  0  0  0  0
   10.8099    6.0126  -13.8600 C   0  0  0  0  0  0  0  0  0  0  0  0
    9.6782    5.1428  -13.6488 C   0  0  0  0  0  0  0  0  0  0  0  0
    8.5753    5.3880  -12.9589 N   0  0  0  0  0  0  0  0  0  0  0  0
    8.3226    6.7011  -12.3862 C   0  0  0  0  0  0  0  0  0  0  0  0
    9.8502    3.8578  -14.0728 C   0  0  0  0  0  0  0  0  0  0  0  0
    7.3864    7.4720  -13.0530 C   0  0  0  0  0  0  0  0  0  0  0  0
    6.2412    7.8486  -12.2599 C   0  0  0  0  0  0  0  0  0  0  0  0
    7.6425    4.4186  -12.7943 C   0  0  0  0  0  0  0  0  0  0  0  0
   11.0297    3.2482  -14.8053 C   0  0  0  0  0  0  0  0  0  0  0  0
    8.6802    2.8955  -13.7960 C   0  0  0  0  0  0  0  0  0  0  0  0
    8.8565    1.5917  -14.3582 O   0  0  0  0  0  0  0  0  0  0  0  0
    7.6903    3.2226  -13.1994 N   0  0  0  0  0  0  0  0  0  0  0  0
    6.5724    2.3444  -12.8378 C   0  0  0  0  0  0  0  0  0  0  0  0
    9.0225    7.0353  -11.3259 C   0  0  0  0  0  0  0  0  0  0  0  0
    6.4787    4.7532  -12.1787 O   0  0  0  0  0  0  0  0  0  0  0  0
   10.5868    7.0468  -11.5199 C   0  0  0  0  0  0  0  0  0  0  0  0
   11.2761    7.4007  -10.4131 C   0  0  0  0  0  0  0  0  0  0  0  0
    8.6862    7.4300   -9.9877 C   0  0  0  0  0  0  0  0  0  0  0  0
    9.4326    7.6744   -8.9657 C   0  0  0  0  0  0  0  0  0  0  0  0
   10.6794    7.6568   -9.1312 C   0  0  2  0  0  0  0  0  0  0  0  0
    8.9269    7.9839   -7.6612 C   0  0  1  0  0  0  0  0  0  0  0  0
   11.6309    7.9931   -8.0642 C   0  0  0  0  0  0  0  0  0  0  0  0
    8.3711    7.1403   -7.0209 O   0  0  0  0  0  0  0  0  0  0  0  0
    9.8765    8.4197   -6.5527 C   0  0  0  0  0  0  0  0  0  0  0  0
   11.3201    8.0150   -6.9666 C   0  0  1  0  0  0  0  0  0  0  0  0
   11.1593    6.5339   -6.5907 C   0  0  0  0  0  0  0  0  0  0  0  0
   12.3495    8.6948   -6.0759 C   0  0  0  0  0  0  0  0  0  0  0  0
   12.2249    8.7489   -4.6784 C   0  0  0  0  0  0  0  0  0  0  0  0
   11.3583    7.8321   -4.0963 O   0  0  0  0  0  0  0  0  0  0  0  0
   12.6985    9.4392   -3.6762 N   0  0  0  0  0  0  0  0  0  0  0  0
  1  2  2  0  0  0  0
  1  4  1  0  0  0  0
  2  3  1  0  0  0  0
  3  6  2  0  0  0  0
  3 21  1  0  0  0  0
  4  5  2  0  0  0  0
  5  6  1  0  0  0  0
  6  7  1  0  0  0  0
  7  8  1  0  0  0  0
  7 10  2  0  0  0  0
  8  9  1  0  0  0  0
  8 13  1  0  0  0  0
  9 11  1  0  0  0  0
  9 19  2  0  0  0  0
 10 14  1  0  0  0  0
 10 15  1  0  0  0  0
 11 12  1  0  0  0  0
 13 17  1  0  0  0  0
 13 20  2  0  0  0  0
 15 16  2  0  0  0  0
 15 17  1  0  0  0  0
 17 18  1  0  0  0  0
 19 21  1  0  0  0  0
 19 23  1  0  0  0  0
 21 22  2  0  0  0  0
 23 24  2  0  0  0  0
 24 25  1  0  0  0  0
 24 26  1  0  0  0  0
 25 22  1  6  0  0  0
 25 27  1  0  0  0  0
 26 28  1  1  0  0  0
 26 29  1  0  0  0  0
 27 30  1  0  0  0  0
 29 30  1  0  0  0  0
 30 31  1  1  0  0  0
 30 32  1  0  0  0  0
 32 33  1  0  0  0  0
 33 34  2  0  0  0  0
 33 35  1  0  0  0  0
M  END
$$$$

 OpenBabel10082411353D

 35 38  0  0  0  0  0  0  0  0999 V2000
   10.9951    9.9694   -4.9946 C   0  0  0  0  0  0  0  0  0  0  0  0
   11.7938    9.3762   -4.2463 C   0  0  0  0  0  0  0  0  0  0  0  0
   10.8673    9.4548   -6.4276 C   0  0  0  0  0  0  0  0  0  0  0  0
   11.6576    7.9117   -4.2944 C   0  0  0  0  0  0  0  0  0  0  0  0
   10.5498    8.0257   -6.4521 C   0  0  0  0  0  0  0  0  0  0  0  0
   11.4715    7.2752   -5.6166 C   0  0  0  0  0  0  0  0  0  0  0  0
   10.5840    7.5390   -7.9254 C   0  0  0  0  0  0  0  0  0  0  0  0
   11.4612    8.1494   -8.8322 C   0  0  0  0  0  0  0  0  0  0  0  0
   12.6250    8.6294   -8.4338 O   0  0  0  0  0  0  0  0  0  0  0  0
   11.0835    8.4395  -10.0740 O   0  0  0  0  0  0  0  0  0  0  0  0
   11.2938    7.5612  -11.0769 C   0  0  0  0  0  0  0  0  0  0  0  0
   10.1547    7.2525  -11.9492 C   0  0  0  0  0  0  0  0  0  0  0  0
   10.4293    6.5622  -13.1348 C   0  0  0  0  0  0  0  0  0  0  0  0
   11.7295    6.4217  -13.6243 C   0  0  0  0  0  0  0  0  0  0  0  0
    8.8120    7.3918  -11.4649 C   0  0  0  0  0  0  0  0  0  0  0  0
   12.5351    7.8894  -11.6869 C   0  0  0  0  0  0  0  0  0  0  0  0
   13.5778    8.4243  -10.9673 O   0  0  0  0  0  0  0  0  0  0  0  0
    7.7211    7.1761  -12.4323 C   0  0  0  0  0  0  0  0  0  0  0  0
   12.8103    7.0723  -12.8897 C   0  0  0  0  0  0  0  0  0  0  0  0
    7.0543    5.9667  -12.3369 C   0  0  0  0  0  0  0  0  0  0  0  0
    7.2392    8.1844  -13.1320 C   0  0  0  0  0  0  0  0  0  0  0  0
    6.6882    5.3848  -13.5016 O   0  0  0  0  0  0  0  0  0  0  0  0
    6.5103    5.5543  -11.3870 O   0  0  0  0  0  0  0  0  0  0  0  0
    7.4031    4.0506  -13.7852 C   0  0  2  0  0  0  0  0  0  0  0  0
    8.6811    3.9966  -14.1333 C   0  0  0  0  0  0  0  0  0  0  0  0
   12.0732    5.6649  -14.9357 C   0  0  0  0  0  0  0  0  0  0  0  0
    6.5833    2.9970  -14.2590 C   0  0  0  0  0  0  0  0  0  0  0  0
   12.1769    6.3888  -15.9096 O   0  0  0  0  0  0  0  0  0  0  0  0
   11.8863    4.3874  -14.9650 N   0  0  0  0  0  0  0  0  0  0  0  0
    9.2289    2.7351  -14.2957 C   0  0  0  0  0  0  0  0  0  0  0  0
   11.5865    3.5710  -13.7825 C   0  0  0  0  0  0  0  0  0  0  0  0
   12.1383    3.6331  -16.1595 C   0  0  0  0  0  0  0  0  0  0  0  0
    6.4109    1.9116  -13.2469 C   0  0  0  0  0  0  0  0  0  0  0  0
   10.7528    2.6664  -14.3753 C   0  0  2  0  0  0  0  0  0  0  0  0
   10.9445    2.8374  -15.9209 C   0  0  0  0  0  0  0  0  0  0  0  0
  1  2  1  0  0  0  0
  1  3  1  0  0  0  0
  2  4  1  0  0  0  0
  3  5  1  0  0  0  0
  4  6  1  0  0  0  0
  5  6  1  0  0  0  0
  5  7  1  0  0  0  0
  7  8  1  0  0  0  0
  8  9  2  0  0  0  0
  8 10  1  0  0  0  0
 10 11  1  0  0  0  0
 11 12  1  0  0  0  0
 11 16  2  0  0  0  0
 12 13  2  0  0  0  0
 12 15  1  0  0  0  0
 13 14  1  0  0  0  0
 14 19  2  0  0  0  0
 14 26  1  0  0  0  0
 15 18  1  0  0  0  0
 16 17  1  0  0  0  0
 16 19  1  0  0  0  0
 18 20  1  0  0  0  0
 18 21  2  0  0  0  0
 20 22  1  0  0  0  0
 20 23  2  0  0  0  0
 22 24  1  0  0  0  0
 24 25  1  0  0  0  0
 24 27  1  6  0  0  0
 25 30  1  0  0  0  0
 26 28  2  0  0  0  0
 26 29  1  0  0  0  0
 27 33  1  0  0  0  0
 29 31  1  0  0  0  0
 29 32  1  0  0  0  0
 31 34  1  0  0  0  0
 32 35  1  0  0  0  0
 34 30  1  6  0  0  0
 34 35  1  0  0  0  0
M  END
$$$$

 OpenBabel10082411353D

 35 39  0  0  0  0  0  0  0  0999 V2000
   12.7863    7.8241  -14.2109 C   0  0  0  0  0  0  0  0  0  0  0  0
   12.4233    7.7158  -13.0289 C   0  0  0  0  0  0  0  0  0  0  0  0
   11.3194    6.8571  -12.8028 C   0  0  0  0  0  0  0  0  0  0  0  0
   12.3150    7.2021  -15.3582 C   0  0  0  0  0  0  0  0  0  0  0  0
   11.2733    6.2739  -15.1502 C   0  0  0  0  0  0  0  0  0  0  0  0
   10.8099    6.0126  -13.8600 C   0  0  0  0  0  0  0  0  0  0  0  0
    9.6782    5.1428  -13.6488 C   0  0  0  0  0  0  0  0  0  0  0  0
    8.5753    5.3880  -12.9589 N   0  0  0  0  0  0  0  0  0  0  0  0
    8.3226    6.7011  -12.3862 C   0  0  0  0  0  0  0  0  0  0  0  0
    9.8502    3.8578  -14.0728 C   0  0  0  0  0  0  0  0  0  0  0  0
    7.3864    7.4720  -13.0530 C   0  0  0  0  0  0  0  0  0  0  0  0
    6.2412    7.8486  -12.2599 C   0  0  0  0  0  0  0  0  0  0  0  0
    7.6425    4.4186  -12.7943 C   0  0  0  0  0  0  0  0  0  0  0  0
   11.0297    3.2482  -14.8053 C   0  0  0  0  0  0  0  0  0  0  0  0
    8.6802    2.8955  -13.7960 C   0  0  0  0  0  0  0  0  0  0  0  0
    8.8565    1.5917  -14.3582 O   0  0  0  0  0  0  0  0  0  0  0  0
    7.6903    3.2226  -13.1994 N   0  0  0  0  0  0  0  0  0  0  0  0
    6.5724    2.3444  -12.8378 C   0  0  0  0  0  0  0  0  0  0  0  0
    9.0225    7.0353  -11.3259 C   0  0  0  0  0  0  0  0  0  0  0  0
    6.4787    4.7532  -12.1787 O   0  0  0  0  0  0  0  0  0  0  0  0
   10.5868    7.0468  -11.5199 C   0  0  0  0  0  0  0  0  0  0  0  0
   11.2761    7.4007  -10.4131 C   0  0  0  0  0  0  0  0  0  0  0  0
    8.6862    7.4300   -9.9877 C   0  0  0  0  0  0  0  0  0  0  0  0
    9.4326    7.6744   -8.9657 C   0  0  0  0  0  0  0  0  0  0  0  0
   10.6794    7.6568   -9.1312 C   0  0  2  0  0  0  0  0  0  0  0  0
    8.9269    7.9839   -7.6612 C   0  0  1  0  0  0  0  0  0  0  0  0
   11.6309    7.9931   -8.0642 C   0  0  0  0  0  0  0  0  0  0  0  0
    8.3711    7.1403   -7.0209 O   0  0  0  0  0  0  0  0  0  0  0  0
    9.8765    8.4197   -6.5527 C   0  0  0  0  0  0  0  0  0  0  0  0
   11.3201    8.0150   -6.9666 C   0  0  1  0  0  0  0  0  0  0  0  0
   11.1593    6.5339   -6.5907 C   0  0  0  0  0  0  0  0  0  0  0  0
   12.3495    8.6948   -6.0759 C   0  0  0  0  0  0  0  0  0  0  0  0
   12.2249    8.7489   -4.6784 C   0  0  0  0  0  0  0  0  0  0  0  0
   11.3583    7.8321   -4.0963 O   0  0  0  0  0  0  0  0  0  0  0  0
   12.8378    9.5611   -3.8651 O   0  0  0  0  0  0  0  0  0  0  0  0
  1  2  2  0  0  0  0
  1  4  1  0  0  0  0
  2  3  1  0  0  0  0
  3  6  2  0  0  0  0
  3 21  1  0  0  0  0
  4  5  2  0  0  0  0
  5  6  1  0  0  0  0
  6  7  1  0  0  0  0
  7  8  1  0  0  0  0
  7 10  2  0  0  0  0
  8  9  1  0  0  0  0
  8 13  1  0  0  0  0
  9 11  1  0  0  0  0
  9 19  2  0  0  0  0
 10 14  1  0  0  0  0
 10 15  1  0  0  0  0
 11 12  1  0  0  0  0
 13 17  1  0  0  0  0
 13 20  2  0  0  0  0
 15 16  2  0  0  0  0
 15 17  1  0  0  0  0
 17 18  1  0  0  0  0
 19 21  1  0  0  0  0
 19 23  1  0  0  0  0
 21 22  2  0  0  0  0
 23 24  2  0  0  0  0
 24 25  1  0  0  0  0
 24 26  1  0  0  0  0
 25 22  1  6  0  0  0
 25 27  1  0  0  0  0
 26 28  1  1  0  0  0
 26 29  1  0  0  0  0
 27 30  1  0  0  0  0
 29 30  1  0  0  0  0
 30 31  1  1  0  0  0
 30 32  1  0  0  0  0
 32 33  1  0  0  0  0
 33 34  2  0  0  0  0
 33 35  1  0  0  0  0
M  END
$$$$

 OpenBabel10082411353D

 35 37  0  0  0  0  0  0  0  0999 V2000
   10.9951    9.9694   -4.9946 C   0  0  0  0  0  0  0  0  0  0  0  0
   11.7938    9.3762   -4.2463 C   0  0  0  0  0  0  0  0  0  0  0  0
   10.8673    9.4548   -6.4276 C   0  0  0  0  0  0  0  0  0  0  0  0
   11.6576    7.9117   -4.2944 C   0  0  0  0  0  0  0  0  0  0  0  0
   10.5498    8.0257   -6.4521 C   0  0  0  0  0  0  0  0  0  0  0  0
   11.4715    7.2752   -5.6166 C   0  0  0  0  0  0  0  0  0  0  0  0
   10.5840    7.5390   -7.9254 C   0  0  0  0  0  0  0  0  0  0  0  0
   11.4612    8.1494   -8.8322 C   0  0  0  0  0  0  0  0  0  0  0  0
   12.6250    8.6294   -8.4338 O   0  0  0  0  0  0  0  0  0  0  0  0
   11.0835    8.4395  -10.0740 O   0  0  0  0  0  0  0  0  0  0  0  0
   11.2938    7.5612  -11.0769 C   0  0  0  0  0  0  0  0  0  0  0  0
   10.1547    7.2525  -11.9492 C   0  0  0  0  0  0  0  0  0  0  0  0
   10.4293    6.5622  -13.1348 C   0  0  0  0  0  0  0  0  0  0  0  0
   11.7295    6.4217  -13.6243 C   0  0  0  0  0  0  0  0  0  0  0  0
    8.8120    7.3918  -11.4649 C   0  0  0  0  0  0  0  0  0  0  0  0
   12.5351    7.8894  -11.6869 C   0  0  0  0  0  0  0  0  0  0  0  0
   13.5778    8.4243  -10.9673 O   0  0  0  0  0  0  0  0  0  0  0  0
    7.7211    7.1761  -12.4323 C   0  0  0  0  0  0  0  0  0  0  0  0
   12.8103    7.0723  -12.8897 C   0  0  0  0  0  0  0  0  0  0  0  0
    7.0543    5.9667  -12.3369 C   0  0  0  0  0  0  0  0  0  0  0  0
    7.2392    8.1844  -13.1320 C   0  0  0  0  0  0  0  0  0  0  0  0
    6.6882    5.3848  -13.5016 O   0  0  0  0  0  0  0  0  0  0  0  0
    6.5103    5.5543  -11.3870 O   0  0  0  0  0  0  0  0  0  0  0  0
    7.4031    4.0506  -13.7852 C   0  0  0  0  0  0  0  0  0  0  0  0
   11.9567    5.7137  -14.8744 C   0  0  0  0  0  0  0  0  0  0  0  0
    8.6219    3.9611  -14.1988 C   0  0  0  0  0  0  0  0  0  0  0  0
   12.1624    6.4252  -15.8904 C   0  0  0  0  0  0  0  0  0  0  0  0
    9.4613    3.0640  -13.5563 C   0  0  0  0  0  0  0  0  0  0  0  0
   12.1556    4.2801  -14.7975 C   0  0  0  0  0  0  0  0  0  0  0  0
   12.3902    5.6468  -17.1373 C   0  0  0  0  0  0  0  0  0  0  0  0
   12.6050    6.4725  -18.3183 C   0  0  0  0  0  0  0  0  0  0  0  0
   11.6103    7.1141  -18.6176 O   0  0  0  0  0  0  0  0  0  0  0  0
   13.5946    6.4767  -18.9680 O   0  0  0  0  0  0  0  0  0  0  0  0
   10.5926    2.5337  -14.4158 C   0  0  0  0  0  0  0  0  0  0  0  0
   11.2313    3.4777  -15.2592 N   0  0  0  0  0  0  0  0  0  0  0  0
  1  2  1  0  0  0  0
  1  3  1  0  0  0  0
  2  4  1  0  0  0  0
  3  5  1  0  0  0  0
  4  6  1  0  0  0  0
  5  6  1  0  0  0  0
  5  7  1  0  0  0  0
  7  8  1  0  0  0  0
  8  9  2  0  0  0  0
  8 10  1  0  0  0  0
 10 11  1  0  0  0  0
 11 12  1  0  0  0  0
 11 16  2  0  0  0  0
 12 13  2  0  0  0  0
 12 15  1  0  0  0  0
 13 14  1  0  0  0  0
 14 19  2  0  0  0  0
 14 25  1  0  0  0  0
 15 18  1  0  0  0  0
 16 17  1  0  0  0  0
 16 19  1  0  0  0  0
 18 20  1  0  0  0  0
 18 21  2  0  0  0  0
 20 22  1  0  0  0  0
 20 23  2  0  0  0  0
 22 24  1  0  0  0  0
 24 26  1  0  0  0  0
 25 27  2  3  0  0  0
 25 29  1  0  0  0  0
 26 28  1  0  0  0  0
 27 30  1  0  0  0  0
 28 34  1  0  0  0  0
 29 35  1  0  0  0  0
 30 31  1  0  0  0  0
 31 32  1  0  0  0  0
 31 33  2  0  0  0  0
 34 35  1  0  0  0  0
M  END
$$$$

 OpenBabel10082411353D

 24 24  0  0  0  0  0  0  0  0999 V2000
   13.2485    9.2493   -6.3668 O   0  0  0  0  0  0  0  0  0  0  0  0
   12.3055    9.1779   -7.4488 C   0  0  0  0  0  0  0  0  0  0  0  0
   11.3830    8.1797   -7.0652 C   0  0  1  0  0  0  0  0  0  0  0  0
   10.7709    8.3176   -5.8621 O   0  0  0  0  0  0  0  0  0  0  0  0
   10.3061    7.2510   -5.2285 C   0  0  0  0  0  0  0  0  0  0  0  0
   10.3303    8.0826   -8.1962 C   0  0  0  0  0  0  0  0  0  0  0  0
   11.3101    6.8518   -4.2475 C   0  0  0  0  0  0  0  0  0  0  0  0
   12.4447    7.8420   -4.1556 O   0  0  0  0  0  0  0  0  0  0  0  0
   10.4511    8.7425   -9.3220 O   0  0  0  0  0  0  0  0  0  0  0  0
   10.2315    8.0253  -10.5261 C   0  0  0  0  0  0  0  0  0  0  0  0
   11.3067    7.4020  -11.1367 C   0  0  0  0  0  0  0  0  0  0  0  0
    9.0290    7.9896  -11.0541 C   0  0  0  0  0  0  0  0  0  0  0  0
   12.6723    7.5504  -10.6115 C   0  0  0  0  0  0  0  0  0  0  0  0
    8.9814    7.2074  -12.3513 C   0  0  0  0  0  0  0  0  0  0  0  0
   11.0207    6.7639  -12.2973 C   0  0  0  0  0  0  0  0  0  0  0  0
   13.3850    8.6343  -10.8695 O   0  0  0  0  0  0  0  0  0  0  0  0
    9.8242    6.6095  -12.7723 C   0  0  0  0  0  0  0  0  0  0  0  0
    9.6621    5.6843  -13.7122 N   0  0  0  0  0  0  0  0  0  0  0  0
    7.4702    6.9592  -12.9070 C   0  0  0  0  0  0  0  0  0  0  0  0
    6.5937    7.8359  -12.2626 C   0  0  0  0  0  0  0  0  0  0  0  0
   10.4388    5.3940  -14.7259 C   0  0  0  0  0  0  0  0  0  0  0  0
   10.0777    4.4713  -15.8060 C   0  0  0  0  0  0  0  0  0  0  0  0
   10.8039    3.1835  -15.7057 C   0  0  0  0  0  0  0  0  0  0  0  0
   10.0461    2.2131  -14.8016 C   0  0  0  0  0  0  0  0  0  0  0  0
  1  2  1  0  0  0  0
  3  2  1  6  0  0  0
  3  4  1  0  0  0  0
  3  6  1  0  0  0  0
  4  5  1  0  0  0  0
  5  7  1  0  0  0  0
  6  9  1  0  0  0  0
  7  8  1  0  0  0  0
  9 10  1  0  0  0  0
 10 11  1  0  0  0  0
 10 12  2  0  0  0  0
 11 13  1  0  0  0  0
 11 15  2  0  0  0  0
 12 14  1  0  0  0  0
 13 16  2  0  0  0  0
 14 17  2  0  0  0  0
 14 19  1  0  0  0  0
 15 17  1  0  0  0  0
 17 18  1  0  0  0  0
 18 21  2  3  0  0  0
 19 20  1  0  0  0  0
 21 22  1  0  0  0  0
 22 23  1  0  0  0  0
 23 24  1  0  0  0  0
M  END
$$$$

 OpenBabel10082411353D

 35 39  0  0  0  0  0  0  0  0999 V2000
   11.6836    6.0105   -4.8831 C   0  0  0  0  0  0  0  0  0  0  0  0
   11.1291    7.0732   -5.4395 C   0  0  0  0  0  0  0  0  0  0  0  0
   10.6954    7.0156   -6.8073 C   0  0  0  0  0  0  0  0  0  0  0  0
   10.2502    8.1187   -7.5536 C   0  0  2  0  0  0  0  0  0  0  0  0
   11.1205    8.4712   -4.9629 C   0  0  0  0  0  0  0  0  0  0  0  0
   10.8655    8.3511   -8.7960 C   0  0  0  0  0  0  0  0  0  0  0  0
   10.2922    7.8843   -9.9985 C   0  0  0  0  0  0  0  0  0  0  0  0
   10.4654    9.6993   -5.6120 C   0  0  0  0  0  0  0  0  0  0  0  0
   10.3510    9.5971   -7.0014 C   0  0  0  0  0  0  0  0  0  0  0  0
   12.2462    6.3351   -3.5020 C   0  0  0  0  0  0  0  0  0  0  0  0
   11.0471    7.5309  -11.1063 C   0  0  0  0  0  0  0  0  0  0  0  0
   11.7288    8.6923   -3.6518 C   0  0  0  0  0  0  0  0  0  0  0  0
   12.3991    7.7501  -11.1145 C   0  0  0  0  0  0  0  0  0  0  0  0
   12.3738    7.7580   -2.9599 C   0  0  0  0  0  0  0  0  0  0  0  0
   13.1285    8.5075  -10.1661 O   0  0  0  0  0  0  0  0  0  0  0  0
    9.0407    7.3775  -10.0973 N   0  0  0  0  0  0  0  0  0  0  0  0
    8.9787    6.9473  -11.4664 N   0  0  0  0  0  0  0  0  0  0  0  0
   13.1012    7.4459  -12.3707 C   0  0  0  0  0  0  0  0  0  0  0  0
   12.2395    6.9724  -13.2444 C   0  0  0  0  0  0  0  0  0  0  0  0
   10.2768    7.0170  -11.9799 C   0  0  0  0  0  0  0  0  0  0  0  0
   12.9237    6.5822  -14.5759 O   0  0  0  0  0  0  0  0  0  0  0  0
   10.8906    6.6526  -13.2252 C   0  0  0  0  0  0  0  0  0  0  0  0
   12.2396    6.1290  -15.6916 C   0  0  0  0  0  0  0  0  0  0  0  0
    7.8036    6.1825  -11.9342 C   0  0  0  0  0  0  0  0  0  0  0  0
   12.5015    4.7115  -15.7686 C   0  0  0  0  0  0  0  0  0  0  0  0
    7.1685    6.9992  -12.8245 C   0  0  0  0  0  0  0  0  0  0  0  0
   11.2461    3.8540  -15.4851 C   0  0  0  0  0  0  0  0  0  0  0  0
    7.6237    4.9154  -11.6529 C   0  0  0  0  0  0  0  0  0  0  0  0
    6.0177    6.2707  -13.3932 C   0  0  0  0  0  0  0  0  0  0  0  0
   10.6165    3.9039  -14.4137 C   0  0  2  0  0  0  0  0  0  0  0  0
    6.6584    4.2061  -12.2277 C   0  0  0  0  0  0  0  0  0  0  0  0
    7.3655    8.3459  -13.1625 C   0  0  0  0  0  0  0  0  0  0  0  0
    5.8138    4.9115  -13.0915 C   0  0  0  0  0  0  0  0  0  0  0  0
   10.7175    2.8759  -13.4716 O   0  0  0  0  0  0  0  0  0  0  0  0
    9.1614    3.9713  -14.4285 C   0  0  0  0  0  0  0  0  0  0  0  0
  1  2  1  0  0  0  0
  1 10  2  0  0  0  0
  2  3  1  0  0  0  0
  2  5  2  0  0  0  0
  3  4  1  0  0  0  0
  4  6  1  6  0  0  0
  4  9  1  0  0  0  0
  5  8  1  0  0  0  0
  5 12  1  0  0  0  0
  6  7  1  0  0  0  0
  7 11  1  0  0  0  0
  7 16  2  0  0  0  0
  8  9  1  0  0  0  0
 10 14  1  0  0  0  0
 11 13  2  0  0  0  0
 11 20  1  0  0  0  0
 12 14  2  0  0  0  0
 13 15  1  0  0  0  0
 13 18  1  0  0  0  0
 16 17  1  0  0  0  0
 17 20  1  0  0  0  0
 17 24  1  0  0  0  0
 18 19  2  0  0  0  0
 19 21  1  0  0  0  0
 19 22  1  0  0  0  0
 20 22  2  0  0  0  0
 21 23  1  0  0  0  0
 23 25  1  0  0  0  0
 24 26  2  0  0  0  0
 24 28  1  0  0  0  0
 25 27  1  0  0  0  0
 26 29  1  0  0  0  0
 26 32  1  0  0  0  0
 27 30  1  0  0  0  0
 28 31  2  0  0  0  0
 29 33  2  0  0  0  0
 30 34  1  0  0  0  0
 30 35  1  6  0  0  0
 31 33  1  0  0  0  0
M  END
$$$$

 OpenBabel10082411353D

 35 38  0  0  0  0  0  0  0  0999 V2000
   10.9951    9.9694   -4.9946 C   0  0  0  0  0  0  0  0  0  0  0  0
   11.7938    9.3762   -4.2463 C   0  0  0  0  0  0  0  0  0  0  0  0
   10.8673    9.4548   -6.4276 C   0  0  0  0  0  0  0  0  0  0  0  0
   11.6576    7.9117   -4.2944 C   0  0  0  0  0  0  0  0  0  0  0  0
   10.5498    8.0257   -6.4521 C   0  0  0  0  0  0  0  0  0  0  0  0
   11.4715    7.2752   -5.6166 C   0  0  0  0  0  0  0  0  0  0  0  0
   10.5840    7.5390   -7.9254 C   0  0  0  0  0  0  0  0  0  0  0  0
   11.4612    8.1494   -8.8322 C   0  0  0  0  0  0  0  0  0  0  0  0
   12.6250    8.6294   -8.4338 O   0  0  0  0  0  0  0  0  0  0  0  0
   11.0835    8.4395  -10.0740 O   0  0  0  0  0  0  0  0  0  0  0  0
   11.2938    7.5612  -11.0769 C   0  0  0  0  0  0  0  0  0  0  0  0
   10.1547    7.2525  -11.9492 C   0  0  0  0  0  0  0  0  0  0  0  0
   10.4293    6.5622  -13.1348 C   0  0  0  0  0  0  0  0  0  0  0  0
   11.7295    6.4217  -13.6243 C   0  0  0  0  0  0  0  0  0  0  0  0
    8.8120    7.3918  -11.4649 C   0  0  0  0  0  0  0  0  0  0  0  0
   12.5351    7.8894  -11.6869 C   0  0  0  0  0  0  0  0  0  0  0  0
   13.5778    8.4243  -10.9673 O   0  0  0  0  0  0  0  0  0  0  0  0
    7.7211    7.1761  -12.4323 C   0  0  0  0  0  0  0  0  0  0  0  0
   12.8103    7.0723  -12.8897 C   0  0  0  0  0  0  0  0  0  0  0  0
    7.0543    5.9667  -12.3369 C   0  0  0  0  0  0  0  0  0  0  0  0
    7.2392    8.1844  -13.1320 C   0  0  0  0  0  0  0  0  0  0  0  0
    6.6882    5.3848  -13.5016 O   0  0  0  0  0  0  0  0  0  0  0  0
    6.5103    5.5543  -11.3870 O   0  0  0  0  0  0  0  0  0  0  0  0
    7.4031    4.0506  -13.7852 C   0  0  2  0  0  0  0  0  0  0  0  0
    8.6811    3.9966  -14.1333 C   0  0  0  0  0  0  0  0  0  0  0  0
   12.0732    5.6649  -14.9357 C   0  0  0  0  0  0  0  0  0  0  0  0
    6.5833    2.9970  -14.2590 C   0  0  0  0  0  0  0  0  0  0  0  0
   12.1769    6.3888  -15.9096 O   0  0  0  0  0  0  0  0  0  0  0  0
   11.8863    4.3874  -14.9650 N   0  0  0  0  0  0  0  0  0  0  0  0
    9.2289    2.7351  -14.2957 C   0  0  0  0  0  0  0  0  0  0  0  0
   11.5865    3.5710  -13.7825 C   0  0  0  0  0  0  0  0  0  0  0  0
   12.1383    3.6331  -16.1595 C   0  0  0  0  0  0  0  0  0  0  0  0
   10.5802    2.4654  -14.1547 C   0  0  0  0  0  0  0  0  0  0  0  0
    7.4047    1.8702  -14.6154 C   0  0  0  0  0  0  0  0  0  0  0  0
    8.6031    1.6505  -14.6251 C   0  0  0  0  0  0  0  0  0  0  0  0
  1  2  1  0  0  0  0
  1  3  1  0  0  0  0
  2  4  1  0  0  0  0
  3  5  1  0  0  0  0
  4  6  1  0  0  0  0
  5  6  1  0  0  0  0
  5  7  1  0  0  0  0
  7  8  1  0  0  0  0
  8  9  2  0  0  0  0
  8 10  1  0  0  0  0
 10 11  1  0  0  0  0
 11 12  1  0  0  0  0
 11 16  2  0  0  0  0
 12 13  2  0  0  0  0
 12 15  1  0  0  0  0
 13 14  1  0  0  0  0
 14 19  2  0  0  0  0
 14 26  1  0  0  0  0
 15 18  1  0  0  0  0
 16 17  1  0  0  0  0
 16 19  1  0  0  0  0
 18 20  1  0  0  0  0
 18 21  2  0  0  0  0
 20 22  1  0  0  0  0
 20 23  2  0  0  0  0
 22 24  1  0  0  0  0
 24 25  1  6  0  0  0
 24 27  1  0  0  0  0
 25 30  1  0  0  0  0
 26 28  2  0  0  0  0
 26 29  1  0  0  0  0
 27 34  1  0  0  0  0
 29 31  1  0  0  0  0
 29 32  1  0  0  0  0
 30 33  2  0  0  0  0
 30 35  1  0  0  0  0
 31 33  1  0  0  0  0
 34 35  2  0  0  0  0
M  END
$$$$

 OpenBabel10082411353D

 35 40  0  0  0  0  0  0  0  0999 V2000
   11.6836    6.0105   -4.8831 C   0  0  0  0  0  0  0  0  0  0  0  0
   11.1291    7.0732   -5.4395 C   0  0  0  0  0  0  0  0  0  0  0  0
   10.6954    7.0156   -6.8073 C   0  0  0  0  0  0  0  0  0  0  0  0
   10.2502    8.1187   -7.5536 C   0  0  2  0  0  0  0  0  0  0  0  0
   11.1205    8.4712   -4.9629 C   0  0  0  0  0  0  0  0  0  0  0  0
   10.8655    8.3511   -8.7960 C   0  0  0  0  0  0  0  0  0  0  0  0
   10.2922    7.8843   -9.9985 C   0  0  0  0  0  0  0  0  0  0  0  0
   10.4654    9.6993   -5.6120 C   0  0  0  0  0  0  0  0  0  0  0  0
   10.3510    9.5971   -7.0014 C   0  0  0  0  0  0  0  0  0  0  0  0
   12.2462    6.3351   -3.5020 C   0  0  0  0  0  0  0  0  0  0  0  0
   11.0471    7.5309  -11.1063 C   0  0  0  0  0  0  0  0  0  0  0  0
   11.7288    8.6923   -3.6518 C   0  0  0  0  0  0  0  0  0  0  0  0
   12.3991    7.7501  -11.1145 C   0  0  0  0  0  0  0  0  0  0  0  0
   12.3738    7.7580   -2.9599 C   0  0  0  0  0  0  0  0  0  0  0  0
   13.1285    8.5075  -10.1661 O   0  0  0  0  0  0  0  0  0  0  0  0
    9.0407    7.3775  -10.0973 N   0  0  0  0  0  0  0  0  0  0  0  0
    8.9787    6.9473  -11.4664 N   0  0  0  0  0  0  0  0  0  0  0  0
   13.1012    7.4459  -12.3707 C   0  0  0  0  0  0  0  0  0  0  0  0
   12.2395    6.9724  -13.2444 C   0  0  0  0  0  0  0  0  0  0  0  0
   10.2768    7.0170  -11.9799 C   0  0  0  0  0  0  0  0  0  0  0  0
   12.9237    6.5822  -14.5759 O   0  0  0  0  0  0  0  0  0  0  0  0
   10.8906    6.6526  -13.2252 C   0  0  0  0  0  0  0  0  0  0  0  0
   12.2396    6.1290  -15.6916 C   0  0  0  0  0  0  0  0  0  0  0  0
    7.8036    6.1825  -11.9342 C   0  0  0  0  0  0  0  0  0  0  0  0
   12.5015    4.7115  -15.7686 C   0  0  0  0  0  0  0  0  0  0  0  0
    7.1685    6.9992  -12.8245 C   0  0  0  0  0  0  0  0  0  0  0  0
   11.2461    3.8540  -15.4851 C   0  0  0  0  0  0  0  0  0  0  0  0
    7.6237    4.9154  -11.6529 C   0  0  0  0  0  0  0  0  0  0  0  0
    6.0177    6.2707  -13.3932 C   0  0  0  0  0  0  0  0  0  0  0  0
   10.6165    3.9039  -14.4137 C   0  0  0  0  0  0  0  0  0  0  0  0
    6.6584    4.2061  -12.2277 C   0  0  0  0  0  0  0  0  0  0  0  0
    9.2599    3.6898  -14.4734 N   0  0  0  0  0  0  0  0  0  0  0  0
   10.4393    3.3818  -16.3918 N   0  0  0  0  0  0  0  0  0  0  0  0
    9.2069    3.0924  -15.7595 N   0  0  0  0  0  0  0  0  0  0  0  0
    5.9172    4.8791  -12.9904 C   0  0  0  0  0  0  0  0  0  0  0  0
  1  2  1  0  0  0  0
  1 10  2  0  0  0  0
  2  3  1  0  0  0  0
  2  5  2  0  0  0  0
  3  4  1  0  0  0  0
  4  6  1  6  0  0  0
  4  9  1  0  0  0  0
  5  8  1  0  0  0  0
  5 12  1  0  0  0  0
  6  7  1  0  0  0  0
  7 11  1  0  0  0  0
  7 16  2  0  0  0  0
  8  9  1  0  0  0  0
 10 14  1  0  0  0  0
 11 13  2  0  0  0  0
 11 20  1  0  0  0  0
 12 14  2  0  0  0  0
 13 15  1  0  0  0  0
 13 18  1  0  0  0  0
 16 17  1  0  0  0  0
 17 20  1  0  0  0  0
 17 24  1  0  0  0  0
 18 19  2  0  0  0  0
 19 21  1  0  0  0  0
 19 22  1  0  0  0  0
 20 22  2  0  0  0  0
 21 23  1  0  0  0  0
 23 25  1  0  0  0  0
 24 26  2  0  0  0  0
 24 28  1  0  0  0  0
 25 27  1  0  0  0  0
 26 29  1  0  0  0  0
 27 30  1  0  0  0  0
 27 33  2  0  0  0  0
 28 31  2  0  0  0  0
 29 35  2  0  0  0  0
 30 32  2  0  0  0  0
 31 35  1  0  0  0  0
 32 34  1  0  0  0  0
 33 34  1  0  0  0  0
M  END
$$$$

 OpenBabel10082411353D

 35 39  0  0  0  0  0  0  0  0999 V2000
   11.6836    6.0105   -4.8831 F   0  0  0  0  0  0  0  0  0  0  0  0
   11.2562    7.2206   -5.0294 C   0  0  0  0  0  0  0  0  0  0  0  0
   12.0125    8.2418   -4.4408 C   0  0  0  0  0  0  0  0  0  0  0  0
   11.1918    7.2706   -6.5237 C   0  0  0  0  0  0  0  0  0  0  0  0
   11.6999    8.4488   -3.1704 F   0  0  0  0  0  0  0  0  0  0  0  0
    9.8648    7.0908   -4.5314 F   0  0  0  0  0  0  0  0  0  0  0  0
   11.6831    8.5291   -6.9682 C   0  0  0  0  0  0  0  0  0  0  0  0
   10.4785    6.5189   -7.4033 C   0  0  0  0  0  0  0  0  0  0  0  0
   11.6979    8.6661   -8.4760 C   0  0  0  0  0  0  0  0  0  0  0  0
   11.6248    9.5853   -5.0030 C   0  0  0  0  0  0  0  0  0  0  0  0
   11.8604    9.7907   -6.2903 O   0  0  0  0  0  0  0  0  0  0  0  0
   13.3557    8.1748   -4.5947 F   0  0  0  0  0  0  0  0  0  0  0  0
   10.5427    6.6061   -8.7190 C   0  0  0  0  0  0  0  0  0  0  0  0
   11.1158    7.7103   -9.2540 C   0  0  0  0  0  0  0  0  0  0  0  0
   11.3757    7.6656  -10.5293 N   0  0  0  0  0  0  0  0  0  0  0  0
   10.7153    7.7096  -11.5405 C   0  0  0  0  0  0  0  0  0  0  0  0
   11.2483    7.4711  -12.8542 C   0  0  0  0  0  0  0  0  0  0  0  0
    9.3980    7.7820  -11.5398 C   0  0  0  0  0  0  0  0  0  0  0  0
    8.6055    7.5889  -12.6525 C   0  0  0  0  0  0  0  0  0  0  0  0
   12.7508    7.3705  -13.0162 O   0  0  0  0  0  0  0  0  0  0  0  0
   10.5299    7.1831  -13.9856 C   0  0  0  0  0  0  0  0  0  0  0  0
    7.0533    7.7371  -12.5396 C   0  0  0  0  0  0  0  0  0  0  0  0
   11.2041    6.8490  -15.2304 C   0  0  0  0  0  0  0  0  0  0  0  0
   11.6393    5.5333  -15.3864 C   0  0  0  0  0  0  0  0  0  0  0  0
    9.1955    7.2935  -13.8301 C   0  0  0  0  0  0  0  0  0  0  0  0
   12.5294    5.1116  -16.1609 C   0  0  0  0  0  0  0  0  0  0  0  0
   11.2315    4.4703  -14.3200 C   0  0  0  0  0  0  0  0  0  0  0  0
   13.0194    6.0876  -17.1697 C   0  0  0  0  0  0  0  0  0  0  0  0
   11.5246    3.1793  -14.7338 C   0  0  0  0  0  0  0  0  0  0  0  0
   12.2907    7.1277  -17.4891 C   0  0  0  0  0  0  0  0  0  0  0  0
   12.7931    3.6728  -16.1995 O   0  0  0  0  0  0  0  0  0  0  0  0
   11.9829    2.9644  -15.6858 C   0  0  0  0  0  0  0  0  0  0  0  0
   11.5885    7.6631  -16.2153 C   0  0  0  0  0  0  0  0  0  0  0  0
    6.4842    6.5543  -12.4626 C   0  0  0  0  0  0  0  0  0  0  0  0
   12.0759    1.7229  -16.2352 O   0  0  0  0  0  0  0  0  0  0  0  0
  1  2  1  0  0  0  0
  2  3  1  0  0  0  0
  2  4  1  0  0  0  0
  2  6  1  0  0  0  0
  3  5  1  0  0  0  0
  3 10  1  0  0  0  0
  3 12  1  0  0  0  0
  4  7  1  0  0  0  0
  4  8  2  0  0  0  0
  7  9  2  0  0  0  0
  7 11  1  0  0  0  0
  8 13  1  0  0  0  0
  9 14  1  0  0  0  0
 10 11  1  0  0  0  0
 13 14  2  0  0  0  0
 14 15  1  0  0  0  0
 15 16  1  0  0  0  0
 16 17  1  0  0  0  0
 16 18  2  0  0  0  0
 17 20  1  0  0  0  0
 17 21  2  0  0  0  0
 18 19  1  0  0  0  0
 19 22  1  0  0  0  0
 19 25  2  0  0  0  0
 21 23  1  0  0  0  0
 21 25  1  0  0  0  0
 22 34  1  0  0  0  0
 23 24  1  0  0  0  0
 23 33  2  0  0  0  0
 24 26  2  0  0  0  0
 24 27  1  0  0  0  0
 26 28  1  0  0  0  0
 26 31  1  0  0  0  0
 27 29  2  0  0  0  0
 28 30  2  0  0  0  0
 29 32  1  0  0  0  0
 30 33  1  0  0  0  0
 31 32  1  0  0  0  0
 32 35  2  0  0  0  0
M  END
$$$$

 OpenBabel10082411353D

 35 42  0  0  0  0  0  0  0  0999 V2000
    8.0806    9.0240  -12.7589 C   0  0  0  0  0  0  0  0  0  0  0  0
    8.6514    7.8645  -12.2948 C   0  0  0  0  0  0  0  0  0  0  0  0
    9.9575    7.9974  -11.8426 C   0  0  0  0  0  0  0  0  0  0  0  0
   10.7657    6.8667  -11.6050 C   0  0  1  0  0  0  0  0  0  0  0  0
   10.7682    5.9590  -12.8271 C   0  0  0  0  0  0  0  0  0  0  0  0
   12.1553    7.3846  -11.2315 C   0  0  0  0  0  0  0  0  0  0  0  0
    8.0676    6.6451  -12.2974 C   0  0  0  0  0  0  0  0  0  0  0  0
   10.1892    6.1240  -10.3860 C   0  0  0  0  0  0  0  0  0  0  0  0
   11.8375    5.4373  -13.3240 O   0  0  0  0  0  0  0  0  0  0  0  0
    8.6785    5.4761  -13.0273 C   0  0  1  0  0  0  0  0  0  0  0  0
    9.1969    5.2405  -10.4969 C   0  0  1  0  0  0  0  0  0  0  0  0
    7.2213    6.2210  -11.3074 C   0  0  0  0  0  0  0  0  0  0  0  0
   12.5590    7.6872   -9.9896 C   0  0  0  0  0  0  0  0  0  0  0  0
    9.7633    5.0333  -12.9720 C   0  0  1  0  0  0  0  0  0  0  0  0
   10.0661    4.0167  -14.0373 N   0  0  0  0  0  0  0  0  0  0  0  0
   13.6906    8.3004   -9.6233 O   0  0  0  0  0  0  0  0  0  0  0  0
    7.6357    4.5123  -12.6317 C   0  0  2  0  0  0  0  0  0  0  0  0
    6.8831    4.9171  -11.7031 C   0  0  0  0  0  0  0  0  0  0  0  0
   10.5937    6.6967   -9.1779 C   0  0  0  0  0  0  0  0  0  0  0  0
    9.5087    4.3263  -11.6925 C   0  0  2  0  0  0  0  0  0  0  0  0
   11.6359    7.4449   -8.9125 C   0  0  0  0  0  0  0  0  0  0  0  0
   11.9716    7.9159   -7.6200 C   0  0  0  0  0  0  0  0  0  0  0  0
    8.4648    3.6122  -12.2840 C   0  0  2  0  0  0  0  0  0  0  0  0
    9.3128    4.5571   -9.1689 C   0  0  0  0  0  0  0  0  0  0  0  0
   10.9557    7.6369   -6.5929 C   0  0  1  0  0  0  0  0  0  0  0  0
    9.6490    2.8108  -13.7776 C   0  0  1  0  0  0  0  0  0  0  0  0
    9.6716    6.1981   -8.0224 C   0  0  2  0  0  0  0  0  0  0  0  0
    8.5511    2.5400  -13.1402 C   0  0  0  0  0  0  0  0  0  0  0  0
    9.7877    2.0302  -15.0383 O   0  0  0  0  0  0  0  0  0  0  0  0
   10.2949    6.3957   -6.8142 C   0  0  0  0  0  0  0  0  0  0  0  0
    8.7552    3.1757   -9.1739 O   0  0  0  0  0  0  0  0  0  0  0  0
    9.3324    4.9684   -7.9868 C   0  0  0  0  0  0  0  0  0  0  0  0
   11.6505    7.6446   -5.2444 C   0  0  0  0  0  0  0  0  0  0  0  0
   12.0283    8.9950   -4.7620 C   0  0  0  0  0  0  0  0  0  0  0  0
   10.9383    7.1708   -4.1067 C   0  0  0  0  0  0  0  0  0  0  0  0
  1  2  1  0  0  0  0
  2  3  1  0  0  0  0
  2  7  2  0  0  0  0
  4  3  1  6  0  0  0
  4  5  1  0  0  0  0
  4  6  1  0  0  0  0
  4  8  1  0  0  0  0
  5  9  2  0  0  0  0
  6 13  1  0  0  0  0
  7 12  1  0  0  0  0
  8 19  2  0  0  0  0
 10  7  1  1  0  0  0
 10 14  1  0  0  0  0
 10 17  1  0  0  0  0
 11  8  1  1  0  0  0
 11 20  1  0  0  0  0
 11 24  1  0  0  0  0
 12 18  1  0  0  0  0
 13 16  2  0  0  0  0
 13 21  1  0  0  0  0
 14  5  1  1  0  0  0
 14 15  1  0  0  0  0
 14 20  1  0  0  0  0
 15 26  1  0  0  0  0
 17 18  1  1  0  0  0
 17 23  1  0  0  0  0
 19 21  1  0  0  0  0
 19 27  1  0  0  0  0
 20 23  1  0  0  0  0
 21 22  2  0  0  0  0
 22 25  1  0  0  0  0
 23 28  1  0  0  0  0
 24 31  2  0  0  0  0
 24 32  1  0  0  0  0
 25 30  1  0  0  0  0
 25 33  1  0  0  0  0
 26 28  1  0  0  0  0
 26 29  1  0  0  0  0
 27 30  1  0  0  0  0
 27 32  1  0  0  0  0
 33 34  1  0  0  0  0
 33 35  1  0  0  0  0
M  END
$$$$

 OpenBabel10082411353D

 36 39  0  0  0  0  0  0  0  0999 V2000
   10.9951    9.9694   -4.9946 C   0  0  0  0  0  0  0  0  0  0  0  0
   11.7938    9.3762   -4.2463 C   0  0  0  0  0  0  0  0  0  0  0  0
   10.8673    9.4548   -6.4276 C   0  0  0  0  0  0  0  0  0  0  0  0
   11.6576    7.9117   -4.2944 C   0  0  0  0  0  0  0  0  0  0  0  0
   10.5498    8.0257   -6.4521 C   0  0  0  0  0  0  0  0  0  0  0  0
   11.4715    7.2752   -5.6166 C   0  0  0  0  0  0  0  0  0  0  0  0
   10.5840    7.5390   -7.9254 C   0  0  0  0  0  0  0  0  0  0  0  0
   11.4612    8.1494   -8.8322 C   0  0  0  0  0  0  0  0  0  0  0  0
   12.6250    8.6294   -8.4338 O   0  0  0  0  0  0  0  0  0  0  0  0
   11.0835    8.4395  -10.0740 O   0  0  0  0  0  0  0  0  0  0  0  0
   11.2938    7.5612  -11.0769 C   0  0  0  0  0  0  0  0  0  0  0  0
   10.1547    7.2525  -11.9492 C   0  0  0  0  0  0  0  0  0  0  0  0
   10.4293    6.5622  -13.1348 C   0  0  0  0  0  0  0  0  0  0  0  0
   11.7295    6.4217  -13.6243 C   0  0  0  0  0  0  0  0  0  0  0  0
    8.8120    7.3918  -11.4649 C   0  0  0  0  0  0  0  0  0  0  0  0
   12.5351    7.8894  -11.6869 C   0  0  0  0  0  0  0  0  0  0  0  0
   13.5778    8.4243  -10.9673 O   0  0  0  0  0  0  0  0  0  0  0  0
    7.7211    7.1761  -12.4323 C   0  0  0  0  0  0  0  0  0  0  0  0
   12.8103    7.0723  -12.8897 C   0  0  0  0  0  0  0  0  0  0  0  0
    7.0543    5.9667  -12.3369 C   0  0  0  0  0  0  0  0  0  0  0  0
    7.2392    8.1844  -13.1320 C   0  0  0  0  0  0  0  0  0  0  0  0
    6.6882    5.3848  -13.5016 O   0  0  0  0  0  0  0  0  0  0  0  0
    6.5103    5.5543  -11.3870 O   0  0  0  0  0  0  0  0  0  0  0  0
    7.4031    4.0506  -13.7852 C   0  0  0  0  0  0  0  0  0  0  0  0
    8.6811    3.9966  -14.1333 C   0  0  0  0  0  0  0  0  0  0  0  0
   12.0732    5.6649  -14.9357 C   0  0  0  0  0  0  0  0  0  0  0  0
   12.2134    6.3585  -15.8991 O   0  0  0  0  0  0  0  0  0  0  0  0
    9.3344    2.7860  -14.0136 C   0  0  0  0  0  0  0  0  0  0  0  0
    6.5327    3.0153  -13.7881 C   0  0  0  0  0  0  0  0  0  0  0  0
    8.4178    1.5850  -13.8562 C   0  0  0  0  0  0  0  0  0  0  0  0
   10.8823    2.5549  -14.1553 C   0  0  0  0  0  0  0  0  0  0  0  0
    9.0753    0.3302  -14.0076 F   0  0  0  0  0  0  0  0  0  0  0  0
   11.7796    4.3456  -14.9743 N   0  0  0  0  0  0  0  0  0  0  0  0
   11.3100    3.6975  -13.9807 N   0  0  0  0  0  0  0  0  0  0  0  0
    7.1433    1.6701  -13.7956 C   0  0  0  0  0  0  0  0  0  0  0  0
   11.8306    3.6186  -16.1217 C   0  0  0  0  0  0  0  0  0  0  0  0
  1  2  1  0  0  0  0
  1  3  1  0  0  0  0
  2  4  1  0  0  0  0
  3  5  1  0  0  0  0
  4  6  1  0  0  0  0
  5  6  1  0  0  0  0
  5  7  1  0  0  0  0
  7  8  1  0  0  0  0
  8  9  2  0  0  0  0
  8 10  1  0  0  0  0
 10 11  1  0  0  0  0
 11 12  1  0  0  0  0
 11 16  2  0  0  0  0
 12 13  2  0  0  0  0
 12 15  1  0  0  0  0
 13 14  1  0  0  0  0
 14 19  2  0  0  0  0
 14 26  1  0  0  0  0
 15 18  1  0  0  0  0
 16 17  1  0  0  0  0
 16 19  1  0  0  0  0
 18 20  1  0  0  0  0
 18 21  2  0  0  0  0
 20 22  1  0  0  0  0
 20 23  2  0  0  0  0
 22 24  1  0  0  0  0
 24 25  1  0  0  0  0
 24 29  2  0  0  0  0
 25 28  2  0  0  0  0
 26 27  2  0  0  0  0
 26 33  1  0  0  0  0
 28 30  1  0  0  0  0
 28 31  1  0  0  0  0
 29 35  1  0  0  0  0
 30 32  1  0  0  0  0
 30 35  2  0  0  0  0
 31 34  1  0  0  0  0
 33 34  1  0  0  0  0
 33 36  1  0  0  0  0
M  END
$$$$

 OpenBabel10082411353D

 36 43  0  0  0  0  0  0  0  0999 V2000
    8.0806    9.0240  -12.7589 C   0  0  0  0  0  0  0  0  0  0  0  0
    8.6514    7.8645  -12.2948 C   0  0  0  0  0  0  0  0  0  0  0  0
    9.9575    7.9974  -11.8426 C   0  0  0  0  0  0  0  0  0  0  0  0
   10.7657    6.8667  -11.6050 C   0  0  1  0  0  0  0  0  0  0  0  0
   10.7682    5.9590  -12.8271 C   0  0  0  0  0  0  0  0  0  0  0  0
   12.1553    7.3846  -11.2315 C   0  0  0  0  0  0  0  0  0  0  0  0
    8.0676    6.6451  -12.2974 C   0  0  0  0  0  0  0  0  0  0  0  0
   10.1892    6.1240  -10.3860 C   0  0  0  0  0  0  0  0  0  0  0  0
   11.8375    5.4373  -13.3240 O   0  0  0  0  0  0  0  0  0  0  0  0
    8.6785    5.4761  -13.0273 C   0  0  1  0  0  0  0  0  0  0  0  0
    9.1969    5.2405  -10.4969 C   0  0  1  0  0  0  0  0  0  0  0  0
    7.2213    6.2210  -11.3074 C   0  0  0  0  0  0  0  0  0  0  0  0
   12.5590    7.6872   -9.9896 C   0  0  0  0  0  0  0  0  0  0  0  0
    9.7633    5.0333  -12.9720 C   0  0  1  0  0  0  0  0  0  0  0  0
   10.0661    4.0167  -14.0373 N   0  0  0  0  0  0  0  0  0  0  0  0
   13.6906    8.3004   -9.6233 O   0  0  0  0  0  0  0  0  0  0  0  0
    7.6357    4.5123  -12.6317 C   0  0  2  0  0  0  0  0  0  0  0  0
    6.8831    4.9171  -11.7031 C   0  0  0  0  0  0  0  0  0  0  0  0
   10.5937    6.6967   -9.1779 C   0  0  0  0  0  0  0  0  0  0  0  0
    9.5087    4.3263  -11.6925 C   0  0  2  0  0  0  0  0  0  0  0  0
   11.6359    7.4449   -8.9125 C   0  0  0  0  0  0  0  0  0  0  0  0
   11.9716    7.9159   -7.6200 C   0  0  0  0  0  0  0  0  0  0  0  0
    8.4648    3.6122  -12.2840 C   0  0  2  0  0  0  0  0  0  0  0  0
    9.3128    4.5571   -9.1689 C   0  0  0  0  0  0  0  0  0  0  0  0
   10.9557    7.6369   -6.5929 C   0  0  0  0  0  0  0  0  0  0  0  0
    9.6490    2.8108  -13.7776 C   0  0  0  0  0  0  0  0  0  0  0  0
   10.2419    1.7839  -14.4904 O   0  0  0  0  0  0  0  0  0  0  0  0
    9.8235    6.3429   -8.0308 C   0  0  0  0  0  0  0  0  0  0  0  0
    8.5421    2.5419  -13.1600 C   0  0  0  0  0  0  0  0  0  0  0  0
   10.0139    6.8647   -6.7816 C   0  0  0  0  0  0  0  0  0  0  0  0
   11.3672    8.3499   -5.0541 S   0  0  0  0  0  0  0  0  0  0  0  0
   11.5679    9.7418   -5.1315 O   0  0  0  0  0  0  0  0  0  0  0  0
    9.0389    5.3019   -8.0369 C   0  0  0  0  0  0  0  0  0  0  0  0
   12.6417    7.6840   -4.4265 N   0  0  0  0  0  0  0  0  0  0  0  0
   10.1441    8.1733   -4.2118 O   0  0  0  0  0  0  0  0  0  0  0  0
   12.3328    6.9257   -3.2376 C   0  0  0  0  0  0  0  0  0  0  0  0
  1  2  1  0  0  0  0
  2  3  1  0  0  0  0
  2  7  2  0  0  0  0
  4  3  1  6  0  0  0
  4  5  1  0  0  0  0
  4  6  1  0  0  0  0
  4  8  1  0  0  0  0
  5  9  2  0  0  0  0
  6 13  1  0  0  0  0
  7 12  1  0  0  0  0
  8 11  1  0  0  0  0
  8 19  2  0  0  0  0
 10  7  1  1  0  0  0
 10 14  1  0  0  0  0
 10 17  1  0  0  0  0
 11 20  1  0  0  0  0
 11 24  1  1  0  0  0
 12 18  1  0  0  0  0
 13 16  2  0  0  0  0
 13 21  1  0  0  0  0
 14  5  1  1  0  0  0
 14 15  1  0  0  0  0
 14 20  1  0  0  0  0
 15 26  1  0  0  0  0
 17 18  1  1  0  0  0
 17 23  1  0  0  0  0
 19 21  1  0  0  0  0
 19 28  1  0  0  0  0
 20 23  1  0  0  0  0
 21 22  2  0  0  0  0
 22 25  1  0  0  0  0
 23 29  1  0  0  0  0
 24 33  1  0  0  0  0
 25 30  2  0  0  0  0
 25 31  1  0  0  0  0
 26 27  2  0  0  0  0
 26 29  1  0  0  0  0
 28 30  1  0  0  0  0
 28 33  2  0  0  0  0
 31 32  2  0  0  0  0
 31 34  1  0  0  0  0
 31 35  2  0  0  0  0
 34 36  1  0  0  0  0
M  END
$$$$

 OpenBabel10082411353D

 36 45  0  0  0  0  0  0  0  0999 V2000
    8.0806    9.0240  -12.7589 C   0  0  0  0  0  0  0  0  0  0  0  0
    8.6514    7.8645  -12.2948 C   0  0  0  0  0  0  0  0  0  0  0  0
    9.9575    7.9974  -11.8426 C   0  0  0  0  0  0  0  0  0  0  0  0
   10.7657    6.8667  -11.6050 C   0  0  1  0  0  0  0  0  0  0  0  0
   10.7682    5.9590  -12.8271 C   0  0  0  0  0  0  0  0  0  0  0  0
   12.1553    7.3846  -11.2315 C   0  0  0  0  0  0  0  0  0  0  0  0
    8.0676    6.6451  -12.2974 C   0  0  0  0  0  0  0  0  0  0  0  0
   10.1892    6.1240  -10.3860 C   0  0  0  0  0  0  0  0  0  0  0  0
   11.8375    5.4373  -13.3240 O   0  0  0  0  0  0  0  0  0  0  0  0
    8.6785    5.4761  -13.0273 C   0  0  1  0  0  0  0  0  0  0  0  0
    9.1969    5.2405  -10.4969 C   0  0  1  0  0  0  0  0  0  0  0  0
    7.2213    6.2210  -11.3074 C   0  0  1  0  0  0  0  0  0  0  0  0
   12.5590    7.6872   -9.9896 C   0  0  0  0  0  0  0  0  0  0  0  0
    9.7633    5.0333  -12.9720 C   0  0  1  0  0  0  0  0  0  0  0  0
   10.0661    4.0167  -14.0373 N   0  0  0  0  0  0  0  0  0  0  0  0
   13.6906    8.3004   -9.6233 O   0  0  0  0  0  0  0  0  0  0  0  0
    7.6357    4.5123  -12.6317 C   0  0  2  0  0  0  0  0  0  0  0  0
    6.8831    4.9171  -11.7031 C   0  0  0  0  0  0  0  0  0  0  0  0
   10.5937    6.6967   -9.1779 C   0  0  0  0  0  0  0  0  0  0  0  0
    9.5087    4.3263  -11.6925 C   0  0  2  0  0  0  0  0  0  0  0  0
   11.6359    7.4449   -8.9125 C   0  0  0  0  0  0  0  0  0  0  0  0
   11.9716    7.9159   -7.6200 C   0  0  0  0  0  0  0  0  0  0  0  0
    8.4648    3.6122  -12.2840 C   0  0  2  0  0  0  0  0  0  0  0  0
    9.3128    4.5571   -9.1689 C   0  0  0  0  0  0  0  0  0  0  0  0
   10.9557    7.6369   -6.5929 C   0  0  0  0  0  0  0  0  0  0  0  0
    9.6490    2.8108  -13.7776 C   0  0  1  0  0  0  0  0  0  0  0  0
    9.6716    6.1981   -8.0224 C   0  0  2  0  0  0  0  0  0  0  0  0
    8.5511    2.5400  -13.1402 C   0  0  0  0  0  0  0  0  0  0  0  0
    9.7877    2.0302  -15.0383 O   0  0  0  0  0  0  0  0  0  0  0  0
   10.2949    6.3957   -6.8142 C   0  0  0  0  0  0  0  0  0  0  0  0
   10.0248    8.9234   -6.5076 C   0  0  0  0  0  0  0  0  0  0  0  0
    9.3611    4.9578   -8.0921 C   0  0  0  0  0  0  0  0  0  0  0  0
    7.9396    5.6593  -10.4947 C   0  0  0  0  0  0  0  0  0  0  0  0
   11.7023    7.8880   -5.4088 C   0  0  0  0  0  0  0  0  0  0  0  0
   11.7351    9.2389   -4.6857 C   0  0  0  0  0  0  0  0  0  0  0  0
   10.4148    9.8468   -5.3330 C   0  0  0  0  0  0  0  0  0  0  0  0
  1  2  1  0  0  0  0
  2  3  1  0  0  0  0
  2  7  2  0  0  0  0
  4  3  1  6  0  0  0
  4  5  1  0  0  0  0
  4  6  1  0  0  0  0
  4  8  1  0  0  0  0
  5  9  2  0  0  0  0
  6 13  1  0  0  0  0
  7 12  1  0  0  0  0
  8 11  1  0  0  0  0
  8 19  2  0  0  0  0
 10  7  1  1  0  0  0
 10 14  1  0  0  0  0
 10 17  1  0  0  0  0
 11 20  1  0  0  0  0
 11 24  1  1  0  0  0
 11 33  1  0  0  0  0
 12 18  1  6  0  0  0
 12 33  1  0  0  0  0
 13 16  2  0  0  0  0
 13 21  1  0  0  0  0
 14  5  1  1  0  0  0
 14 15  1  0  0  0  0
 14 20  1  0  0  0  0
 15 26  1  0  0  0  0
 17 18  1  1  0  0  0
 17 23  1  0  0  0  0
 19 21  1  0  0  0  0
 19 27  1  0  0  0  0
 20 23  1  0  0  0  0
 21 22  2  0  0  0  0
 22 25  1  0  0  0  0
 23 28  1  0  0  0  0
 24 32  2  0  0  0  0
 25 30  1  0  0  0  0
 25 31  1  0  0  0  0
 25 34  1  0  0  0  0
 26 28  1  0  0  0  0
 26 29  1  0  0  0  0
 27 30  1  0  0  0  0
 27 32  1  0  0  0  0
 31 36  1  0  0  0  0
 34 35  1  0  0  0  0
 35 36  1  0  0  0  0
M  END
$$$$

 OpenBabel10082411353D

 36 39  0  0  0  0  0  0  0  0999 V2000
   10.9951    9.9694   -4.9946 C   0  0  0  0  0  0  0  0  0  0  0  0
   11.7938    9.3762   -4.2463 C   0  0  0  0  0  0  0  0  0  0  0  0
   10.8673    9.4548   -6.4276 C   0  0  0  0  0  0  0  0  0  0  0  0
   11.6576    7.9117   -4.2944 C   0  0  0  0  0  0  0  0  0  0  0  0
   10.5498    8.0257   -6.4521 C   0  0  0  0  0  0  0  0  0  0  0  0
   11.4715    7.2752   -5.6166 C   0  0  0  0  0  0  0  0  0  0  0  0
   10.5840    7.5390   -7.9254 C   0  0  0  0  0  0  0  0  0  0  0  0
   11.4612    8.1494   -8.8322 C   0  0  0  0  0  0  0  0  0  0  0  0
   12.6250    8.6294   -8.4338 O   0  0  0  0  0  0  0  0  0  0  0  0
   11.0835    8.4395  -10.0740 O   0  0  0  0  0  0  0  0  0  0  0  0
   11.2938    7.5612  -11.0769 C   0  0  0  0  0  0  0  0  0  0  0  0
   10.1547    7.2525  -11.9492 C   0  0  0  0  0  0  0  0  0  0  0  0
   10.4293    6.5622  -13.1348 C   0  0  0  0  0  0  0  0  0  0  0  0
   11.7295    6.4217  -13.6243 C   0  0  0  0  0  0  0  0  0  0  0  0
    8.8120    7.3918  -11.4649 C   0  0  0  0  0  0  0  0  0  0  0  0
   12.5351    7.8894  -11.6869 C   0  0  0  0  0  0  0  0  0  0  0  0
   13.5778    8.4243  -10.9673 O   0  0  0  0  0  0  0  0  0  0  0  0
    7.7211    7.1761  -12.4323 C   0  0  0  0  0  0  0  0  0  0  0  0
   12.8103    7.0723  -12.8897 C   0  0  0  0  0  0  0  0  0  0  0  0
    7.0543    5.9667  -12.3369 C   0  0  0  0  0  0  0  0  0  0  0  0
    7.2392    8.1844  -13.1320 C   0  0  0  0  0  0  0  0  0  0  0  0
    6.6882    5.3848  -13.5016 O   0  0  0  0  0  0  0  0  0  0  0  0
    6.5103    5.5543  -11.3870 O   0  0  0  0  0  0  0  0  0  0  0  0
    7.4031    4.0506  -13.7852 C   0  0  0  0  0  0  0  0  0  0  0  0
    8.6811    3.9966  -14.1333 C   0  0  0  0  0  0  0  0  0  0  0  0
   12.0732    5.6649  -14.9357 C   0  0  0  0  0  0  0  0  0  0  0  0
    6.5842    3.0104  -13.4449 C   0  0  0  0  0  0  0  0  0  0  0  0
   12.1810    6.3505  -15.9550 C   0  0  0  0  0  0  0  0  0  0  0  0
   12.4422    5.6328  -17.1718 C   0  0  0  0  0  0  0  0  0  0  0  0
    5.1615    3.1639  -12.9487 C   0  0  0  0  0  0  0  0  0  0  0  0
   12.4897    4.2439  -17.0738 C   0  0  0  0  0  0  0  0  0  0  0  0
    7.2322    1.7149  -13.5830 C   0  0  0  0  0  0  0  0  0  0  0  0
   11.8860    4.2886  -14.6807 C   0  0  0  0  0  0  0  0  0  0  0  0
    8.2337    1.5246  -14.0207 C   0  0  0  0  0  0  0  0  0  0  0  0
    9.2722    2.7186  -14.3186 C   0  0  0  0  0  0  0  0  0  0  0  0
   12.2264    3.5659  -15.9179 C   0  0  0  0  0  0  0  0  0  0  0  0
  1  2  1  0  0  0  0
  1  3  1  0  0  0  0
  2  4  1  0  0  0  0
  3  5  1  0  0  0  0
  4  6  1  0  0  0  0
  5  6  1  0  0  0  0
  5  7  1  0  0  0  0
  7  8  1  0  0  0  0
  8  9  2  0  0  0  0
  8 10  1  0  0  0  0
 10 11  1  0  0  0  0
 11 12  1  0  0  0  0
 11 16  2  0  0  0  0
 12 13  2  0  0  0  0
 12 15  1  0  0  0  0
 13 14  1  0  0  0  0
 14 19  2  0  0  0  0
 14 26  1  0  0  0  0
 15 18  1  0  0  0  0
 16 17  1  0  0  0  0
 16 19  1  0  0  0  0
 18 20  1  0  0  0  0
 18 21  2  0  0  0  0
 20 22  1  0  0  0  0
 20 23  2  0  0  0  0
 22 24  1  0  0  0  0
 24 25  1  0  0  0  0
 24 27  2  0  0  0  0
 25 35  2  0  0  0  0
 26 28  2  0  0  0  0
 26 33  1  0  0  0  0
 27 30  1  0  0  0  0
 27 32  1  0  0  0  0
 28 29  1  0  0  0  0
 29 31  2  0  0  0  0
 31 36  1  0  0  0  0
 32 34  2  0  0  0  0
 33 36  2  0  0  0  0
 34 35  1  0  0  0  0
M  END
$$$$

 OpenBabel10082411353D

 36 40  0  0  0  0  0  0  0  0999 V2000
   13.2485    9.2493   -6.3668 O   0  0  0  0  0  0  0  0  0  0  0  0
   12.3055    9.1779   -7.4488 C   0  0  1  0  0  0  0  0  0  0  0  0
   12.5005    8.1033   -8.2440 C   0  0  0  0  0  0  0  0  0  0  0  0
   11.7072    8.0925   -9.4886 C   0  0  0  0  0  0  0  0  0  0  0  0
   12.2659    7.9483  -10.6668 C   0  0  0  0  0  0  0  0  0  0  0  0
   10.2869    8.0426   -9.4299 C   0  0  0  0  0  0  0  0  0  0  0  0
   13.6482    8.0497  -10.9162 O   0  0  0  0  0  0  0  0  0  0  0  0
   11.5356    7.8148  -11.9199 C   0  0  0  0  0  0  0  0  0  0  0  0
   12.2597    7.6523  -13.1838 C   0  0  0  0  0  0  0  0  0  0  0  0
    9.5345    7.8388  -10.6476 C   0  0  0  0  0  0  0  0  0  0  0  0
   12.7796    8.4277  -13.7325 O   0  0  0  0  0  0  0  0  0  0  0  0
   10.1724    7.7406  -11.8577 C   0  0  0  0  0  0  0  0  0  0  0  0
   12.4765    6.3392  -13.7439 N   0  0  0  0  0  0  0  0  0  0  0  0
    9.2368    7.4770  -13.0161 C   0  0  1  0  0  0  0  0  0  0  0  0
    8.7686    6.0601  -13.0538 C   0  0  0  0  0  0  0  0  0  0  0  0
   11.7377    5.1496  -13.1887 C   0  0  0  0  0  0  0  0  0  0  0  0
   10.9893    9.0510   -6.5404 C   0  0  0  0  0  0  0  0  0  0  0  0
   11.2522    8.1647   -5.3854 C   0  0  2  0  0  0  0  0  0  0  0  0
    7.8881    5.4892  -12.2818 C   0  0  0  0  0  0  0  0  0  0  0  0
    8.1030    8.4511  -12.9051 C   0  0  0  0  0  0  0  0  0  0  0  0
   11.2726    4.1709  -14.3554 C   0  0  0  0  0  0  0  0  0  0  0  0
   12.7640    9.8841   -5.1669 C   0  0  0  0  0  0  0  0  0  0  0  0
   10.2020    7.3447   -4.8869 O   0  0  0  0  0  0  0  0  0  0  0  0
    9.2807    5.2234  -14.0940 C   0  0  0  0  0  0  0  0  0  0  0  0
    9.9511    4.1599  -14.4562 C   0  0  2  0  0  0  0  0  0  0  0  0
   11.8540    8.9171   -4.3609 C   0  0  0  0  0  0  0  0  0  0  0  0
    9.4020    2.9741  -13.9922 C   0  0  0  0  0  0  0  0  0  0  0  0
    8.0775    2.6860  -13.9460 O   0  0  0  0  0  0  0  0  0  0  0  0
   10.0446    2.1558  -13.3513 O   0  0  0  0  0  0  0  0  0  0  0  0
    7.1914    3.0971  -13.0197 C   0  0  0  0  0  0  0  0  0  0  0  0
    6.1146    2.1772  -12.8639 C   0  0  0  0  0  0  0  0  0  0  0  0
    6.9754    4.3940  -12.4759 C   0  0  0  0  0  0  0  0  0  0  0  0
    5.7013    4.5713  -11.8455 C   0  0  0  0  0  0  0  0  0  0  0  0
    5.0113    2.4020  -12.2491 C   0  0  0  0  0  0  0  0  0  0  0  0
    7.7922    5.8675  -11.0355 O   0  0  0  0  0  0  0  0  0  0  0  0
    4.7856    3.5628  -11.7868 C   0  0  0  0  0  0  0  0  0  0  0  0
  1  2  1  0  0  0  0
  1 22  1  0  0  0  0
  2  3  1  6  0  0  0
  2 17  1  0  0  0  0
  3  4  1  0  0  0  0
  4  5  1  0  0  0  0
  4  6  2  0  0  0  0
  5  7  1  0  0  0  0
  5  8  2  0  0  0  0
  6 10  1  0  0  0  0
  8  9  1  0  0  0  0
  8 12  1  0  0  0  0
  9 11  2  0  0  0  0
  9 13  1  0  0  0  0
 10 12  2  0  0  0  0
 12 14  1  0  0  0  0
 13 16  1  0  0  0  0
 14 15  1  0  0  0  0
 14 20  1  1  0  0  0
 15 19  1  0  0  0  0
 15 24  2  0  0  0  0
 16 21  1  0  0  0  0
 17 18  1  0  0  0  0
 18 23  1  1  0  0  0
 18 26  1  0  0  0  0
 19 32  1  0  0  0  0
 19 35  2  0  0  0  0
 22 26  1  0  0  0  0
 24 25  1  0  0  0  0
 25 21  1  1  0  0  0
 25 27  1  0  0  0  0
 27 28  1  0  0  0  0
 27 29  2  0  0  0  0
 28 30  1  0  0  0  0
 30 31  1  0  0  0  0
 30 32  2  0  0  0  0
 31 34  2  0  0  0  0
 32 33  1  0  0  0  0
 33 36  2  0  0  0  0
 34 36  1  0  0  0  0
M  END
$$$$

 OpenBabel10082411353D

 24 26  0  0  0  0  0  0  0  0999 V2000
   12.8881    8.7759   -3.5681 C   0  0  0  0  0  0  0  0  0  0  0  0
   11.9416    9.4732   -4.1220 C   0  0  0  0  0  0  0  0  0  0  0  0
   12.3556    7.6012   -2.6527 C   0  0  0  0  0  0  0  0  0  0  0  0
   11.8805    9.3400   -5.6557 C   0  0  0  0  0  0  0  0  0  0  0  0
   11.7716    6.5414   -3.3821 C   0  0  0  0  0  0  0  0  0  0  0  0
   10.8523    8.6585   -6.3310 C   0  0  0  0  0  0  0  0  0  0  0  0
   11.1142    8.2520   -7.7289 C   0  0  0  0  0  0  0  0  0  0  0  0
   10.0478    7.6568   -8.4887 C   0  0  0  0  0  0  0  0  0  0  0  0
   12.3648    8.4339   -8.3703 C   0  0  0  0  0  0  0  0  0  0  0  0
   12.6142    8.1352   -9.7322 C   0  0  0  0  0  0  0  0  0  0  0  0
   10.2852    7.3833   -9.9138 C   0  0  0  0  0  0  0  0  0  0  0  0
   11.5161    7.5808  -10.4860 C   0  0  0  0  0  0  0  0  0  0  0  0
   11.6641    7.2285  -11.8174 O   0  0  0  0  0  0  0  0  0  0  0  0
   10.8624    6.4419  -12.4395 C   0  0  0  0  0  0  0  0  0  0  0  0
   11.2693    5.8267  -13.4966 C   0  0  0  0  0  0  0  0  0  0  0  0
   10.3973    4.9870  -14.3057 C   0  0  0  0  0  0  0  0  0  0  0  0
    9.1338    4.5860  -13.7335 C   0  0  0  0  0  0  0  0  0  0  0  0
    8.3197    3.6632  -14.4500 O   0  0  0  0  0  0  0  0  0  0  0  0
    9.4187    5.9856  -12.0936 C   0  0  0  0  0  0  0  0  0  0  0  0
   10.8446    4.2136  -15.4548 O   0  0  0  0  0  0  0  0  0  0  0  0
    8.2585    2.3859  -14.0455 C   0  0  0  0  0  0  0  0  0  0  0  0
    8.6921    5.2106  -12.6458 C   0  0  0  0  0  0  0  0  0  0  0  0
    9.2614    6.7850  -10.8098 O   0  0  0  0  0  0  0  0  0  0  0  0
   12.0113    3.5326  -15.3640 C   0  0  0  0  0  0  0  0  0  0  0  0
  1  2  1  0  0  0  0
  1  3  1  0  0  0  0
  2  4  1  0  0  0  0
  3  5  1  0  0  0  0
  4  6  1  0  0  0  0
  6  7  1  0  0  0  0
  7  8  1  0  0  0  0
  7  9  2  0  0  0  0
  8 11  2  0  0  0  0
  9 10  1  0  0  0  0
 10 12  2  0  0  0  0
 11 12  1  0  0  0  0
 11 23  1  0  0  0  0
 12 13  1  0  0  0  0
 13 14  1  0  0  0  0
 14 15  2  0  0  0  0
 14 19  1  0  0  0  0
 15 16  1  0  0  0  0
 16 17  2  0  0  0  0
 16 20  1  0  0  0  0
 17 18  1  0  0  0  0
 17 22  1  0  0  0  0
 18 21  1  0  0  0  0
 19 22  2  0  0  0  0
 19 23  1  0  0  0  0
 20 24  1  0  0  0  0
M  END
$$$$

 OpenBabel10082411353D

 36 41  0  0  0  0  0  0  0  0999 V2000
   11.6836    6.0105   -4.8831 C   0  0  0  0  0  0  0  0  0  0  0  0
   11.1291    7.0732   -5.4395 C   0  0  0  0  0  0  0  0  0  0  0  0
   10.6954    7.0156   -6.8073 C   0  0  0  0  0  0  0  0  0  0  0  0
   10.2502    8.1187   -7.5536 C   0  0  2  0  0  0  0  0  0  0  0  0
   11.1205    8.4712   -4.9629 C   0  0  0  0  0  0  0  0  0  0  0  0
   10.8655    8.3511   -8.7960 C   0  0  0  0  0  0  0  0  0  0  0  0
   10.2922    7.8843   -9.9985 C   0  0  0  0  0  0  0  0  0  0  0  0
   10.4654    9.6993   -5.6120 C   0  0  0  0  0  0  0  0  0  0  0  0
   10.3510    9.5971   -7.0014 C   0  0  0  0  0  0  0  0  0  0  0  0
   12.2462    6.3351   -3.5020 C   0  0  0  0  0  0  0  0  0  0  0  0
   11.0471    7.5309  -11.1063 C   0  0  0  0  0  0  0  0  0  0  0  0
   11.7288    8.6923   -3.6518 C   0  0  0  0  0  0  0  0  0  0  0  0
   12.3991    7.7501  -11.1145 C   0  0  0  0  0  0  0  0  0  0  0  0
   12.3738    7.7580   -2.9599 C   0  0  0  0  0  0  0  0  0  0  0  0
   13.1285    8.5075  -10.1661 O   0  0  0  0  0  0  0  0  0  0  0  0
    9.0407    7.3775  -10.0973 N   0  0  0  0  0  0  0  0  0  0  0  0
    8.9787    6.9473  -11.4664 N   0  0  0  0  0  0  0  0  0  0  0  0
   13.1012    7.4459  -12.3707 C   0  0  0  0  0  0  0  0  0  0  0  0
   12.2395    6.9724  -13.2444 C   0  0  0  0  0  0  0  0  0  0  0  0
   10.2768    7.0170  -11.9799 C   0  0  0  0  0  0  0  0  0  0  0  0
   12.9237    6.5822  -14.5759 O   0  0  0  0  0  0  0  0  0  0  0  0
   10.8906    6.6526  -13.2252 C   0  0  0  0  0  0  0  0  0  0  0  0
   12.2396    6.1290  -15.6916 C   0  0  0  0  0  0  0  0  0  0  0  0
    7.7368    6.4514  -12.0707 C   0  0  0  0  0  0  0  0  0  0  0  0
    7.1353    7.2872  -12.8105 C   0  0  0  0  0  0  0  0  0  0  0  0
    7.6622    5.0135  -12.1225 C   0  0  0  0  0  0  0  0  0  0  0  0
   12.5092    4.6950  -15.8147 C   0  0  0  0  0  0  0  0  0  0  0  0
    5.9403    6.5840  -13.2897 C   0  0  0  0  0  0  0  0  0  0  0  0
   11.2738    3.8422  -15.5220 N   0  0  0  0  0  0  0  0  0  0  0  0
    8.7139    4.1736  -11.4601 C   0  0  0  0  0  0  0  0  0  0  0  0
    5.7546    5.3014  -13.2955 C   0  0  0  0  0  0  0  0  0  0  0  0
    6.7066    4.4368  -12.5910 C   0  0  0  0  0  0  0  0  0  0  0  0
   11.4629    2.6467  -15.2377 C   0  0  0  0  0  0  0  0  0  0  0  0
    9.9887    4.3648  -15.3332 C   0  0  0  0  0  0  0  0  0  0  0  0
   10.2095    2.0807  -14.4932 C   0  0  0  0  0  0  0  0  0  0  0  0
    9.2055    3.2903  -14.8627 C   0  0  0  0  0  0  0  0  0  0  0  0
  1  2  1  0  0  0  0
  1 10  2  0  0  0  0
  2  3  1  0  0  0  0
  2  5  2  0  0  0  0
  3  4  1  0  0  0  0
  4  6  1  6  0  0  0
  4  9  1  0  0  0  0
  5  8  1  0  0  0  0
  5 12  1  0  0  0  0
  6  7  1  0  0  0  0
  7 11  1  0  0  0  0
  7 16  2  0  0  0  0
  8  9  1  0  0  0  0
 10 14  1  0  0  0  0
 11 13  2  0  0  0  0
 11 20  1  0  0  0  0
 12 14  2  0  0  0  0
 13 15  1  0  0  0  0
 13 18  1  0  0  0  0
 16 17  1  0  0  0  0
 17 20  1  0  0  0  0
 17 24  1  0  0  0  0
 18 19  2  0  0  0  0
 19 21  1  0  0  0  0
 19 22  1  0  0  0  0
 20 22  2  0  0  0  0
 21 23  1  0  0  0  0
 23 27  1  0  0  0  0
 24 25  2  0  0  0  0
 24 26  1  0  0  0  0
 25 28  1  0  0  0  0
 26 30  1  0  0  0  0
 26 32  2  0  0  0  0
 27 29  1  0  0  0  0
 28 31  2  0  0  0  0
 29 33  1  0  0  0  0
 29 34  1  0  0  0  0
 31 32  1  0  0  0  0
 33 35  1  0  0  0  0
 34 36  1  0  0  0  0
 35 36  1  0  0  0  0
M  END
$$$$

 OpenBabel10082411353D

 36 45  0  0  0  0  0  0  0  0999 V2000
    8.0806    9.0240  -12.7589 C   0  0  0  0  0  0  0  0  0  0  0  0
    8.6514    7.8645  -12.2948 C   0  0  0  0  0  0  0  0  0  0  0  0
    9.9575    7.9974  -11.8426 C   0  0  0  0  0  0  0  0  0  0  0  0
   10.7657    6.8667  -11.6050 C   0  0  1  0  0  0  0  0  0  0  0  0
   10.7682    5.9590  -12.8271 C   0  0  0  0  0  0  0  0  0  0  0  0
   12.1553    7.3846  -11.2315 C   0  0  0  0  0  0  0  0  0  0  0  0
    8.0676    6.6451  -12.2974 C   0  0  0  0  0  0  0  0  0  0  0  0
   10.1892    6.1240  -10.3860 C   0  0  0  0  0  0  0  0  0  0  0  0
   11.8375    5.4373  -13.3240 O   0  0  0  0  0  0  0  0  0  0  0  0
    8.6785    5.4761  -13.0273 C   0  0  1  0  0  0  0  0  0  0  0  0
    9.1969    5.2405  -10.4969 C   0  0  1  0  0  0  0  0  0  0  0  0
    7.2213    6.2210  -11.3074 C   0  0  1  0  0  0  0  0  0  0  0  0
   12.5590    7.6872   -9.9896 C   0  0  0  0  0  0  0  0  0  0  0  0
    9.7633    5.0333  -12.9720 C   0  0  1  0  0  0  0  0  0  0  0  0
   10.0661    4.0167  -14.0373 N   0  0  0  0  0  0  0  0  0  0  0  0
   13.6906    8.3004   -9.6233 O   0  0  0  0  0  0  0  0  0  0  0  0
    7.6357    4.5123  -12.6317 C   0  0  2  0  0  0  0  0  0  0  0  0
    6.8831    4.9171  -11.7031 C   0  0  1  0  0  0  0  0  0  0  0  0
   10.5937    6.6967   -9.1779 C   0  0  0  0  0  0  0  0  0  0  0  0
    9.5087    4.3263  -11.6925 C   0  0  2  0  0  0  0  0  0  0  0  0
   11.6359    7.4449   -8.9125 C   0  0  0  0  0  0  0  0  0  0  0  0
   11.9716    7.9159   -7.6200 C   0  0  0  0  0  0  0  0  0  0  0  0
    8.4648    3.6122  -12.2840 C   0  0  2  0  0  0  0  0  0  0  0  0
    9.3128    4.5571   -9.1689 C   0  0  0  0  0  0  0  0  0  0  0  0
   10.9557    7.6369   -6.5929 C   0  0  0  0  0  0  0  0  0  0  0  0
    9.6490    2.8108  -13.7776 C   0  0  0  0  0  0  0  0  0  0  0  0
   10.2419    1.7839  -14.4904 O   0  0  0  0  0  0  0  0  0  0  0  0
    9.8235    6.3429   -8.0308 C   0  0  0  0  0  0  0  0  0  0  0  0
    8.5421    2.5419  -13.1600 C   0  0  0  0  0  0  0  0  0  0  0  0
   10.0139    6.8647   -6.7816 C   0  0  0  0  0  0  0  0  0  0  0  0
    8.9641    5.2626   -8.0936 N   0  0  0  0  0  0  0  0  0  0  0  0
    7.9178    5.6594  -10.4374 C   0  0  1  0  0  0  0  0  0  0  0  0
   11.2467    8.3685   -5.1947 C   0  0  0  0  0  0  0  0  0  0  0  0
   11.5422    9.8380   -5.2891 C   0  0  0  0  0  0  0  0  0  0  0  0
   10.1950    8.3457   -4.3206 C   0  0  0  0  0  0  0  0  0  0  0  0
   12.5141    7.7132   -4.5748 C   0  0  0  0  0  0  0  0  0  0  0  0
  1  2  1  0  0  0  0
  2  3  1  0  0  0  0
  2  7  2  0  0  0  0
  4  3  1  6  0  0  0
  4  5  1  0  0  0  0
  4  6  1  0  0  0  0
  4  8  1  0  0  0  0
  5  9  2  0  0  0  0
  6 13  1  0  0  0  0
  8 11  1  0  0  0  0
  8 19  2  0  0  0  0
 10  7  1  1  0  0  0
 10 14  1  0  0  0  0
 10 17  1  0  0  0  0
 11 20  1  0  0  0  0
 11 24  1  1  0  0  0
 11 32  1  0  0  0  0
 12  7  1  6  0  0  0
 12 18  1  0  0  0  0
 12 32  1  0  0  0  0
 13 16  2  0  0  0  0
 13 21  1  0  0  0  0
 14  5  1  1  0  0  0
 14 15  1  0  0  0  0
 14 20  1  0  0  0  0
 15 26  1  0  0  0  0
 17 18  1  0  0  0  0
 17 23  1  0  0  0  0
 18 32  1  0  0  0  0
 19 21  1  0  0  0  0
 19 28  1  0  0  0  0
 20 23  1  0  0  0  0
 21 22  2  0  0  0  0
 22 25  1  0  0  0  0
 23 29  1  0  0  0  0
 24 31  1  0  0  0  0
 25 30  2  0  0  0  0
 25 33  1  0  0  0  0
 26 27  2  0  0  0  0
 26 29  1  0  0  0  0
 28 30  1  0  0  0  0
 28 31  2  0  0  0  0
 33 34  1  0  0  0  0
 33 35  1  0  0  0  0
 33 36  1  0  0  0  0
M  END
$$$$

 OpenBabel10082411353D

 36 41  0  0  0  0  0  0  0  0999 V2000
   11.6836    6.0105   -4.8831 C   0  0  0  0  0  0  0  0  0  0  0  0
   11.1291    7.0732   -5.4395 C   0  0  0  0  0  0  0  0  0  0  0  0
   10.6954    7.0156   -6.8073 C   0  0  0  0  0  0  0  0  0  0  0  0
   10.2502    8.1187   -7.5536 C   0  0  2  0  0  0  0  0  0  0  0  0
   11.1205    8.4712   -4.9629 C   0  0  0  0  0  0  0  0  0  0  0  0
   10.8655    8.3511   -8.7960 C   0  0  0  0  0  0  0  0  0  0  0  0
   10.2922    7.8843   -9.9985 C   0  0  0  0  0  0  0  0  0  0  0  0
   10.4654    9.6993   -5.6120 C   0  0  0  0  0  0  0  0  0  0  0  0
   10.3510    9.5971   -7.0014 C   0  0  0  0  0  0  0  0  0  0  0  0
   12.2462    6.3351   -3.5020 C   0  0  0  0  0  0  0  0  0  0  0  0
   11.0471    7.5309  -11.1063 C   0  0  0  0  0  0  0  0  0  0  0  0
   11.7288    8.6923   -3.6518 C   0  0  0  0  0  0  0  0  0  0  0  0
   12.3991    7.7501  -11.1145 C   0  0  0  0  0  0  0  0  0  0  0  0
   12.3738    7.7580   -2.9599 C   0  0  0  0  0  0  0  0  0  0  0  0
   13.1285    8.5075  -10.1661 O   0  0  0  0  0  0  0  0  0  0  0  0
    9.0407    7.3775  -10.0973 N   0  0  0  0  0  0  0  0  0  0  0  0
    8.9787    6.9473  -11.4664 N   0  0  0  0  0  0  0  0  0  0  0  0
   13.1012    7.4459  -12.3707 C   0  0  0  0  0  0  0  0  0  0  0  0
   12.2395    6.9724  -13.2444 C   0  0  0  0  0  0  0  0  0  0  0  0
   10.2768    7.0170  -11.9799 C   0  0  0  0  0  0  0  0  0  0  0  0
   12.9237    6.5822  -14.5759 O   0  0  0  0  0  0  0  0  0  0  0  0
   10.8906    6.6526  -13.2252 C   0  0  0  0  0  0  0  0  0  0  0  0
   12.2396    6.1290  -15.6916 C   0  0  0  0  0  0  0  0  0  0  0  0
    7.7368    6.4514  -12.0707 C   0  0  0  0  0  0  0  0  0  0  0  0
    7.1353    7.2872  -12.8105 C   0  0  0  0  0  0  0  0  0  0  0  0
    7.6622    5.0135  -12.1225 C   0  0  0  0  0  0  0  0  0  0  0  0
   12.5092    4.6950  -15.8147 C   0  0  0  0  0  0  0  0  0  0  0  0
    5.9403    6.5840  -13.2897 C   0  0  0  0  0  0  0  0  0  0  0  0
   11.2738    3.8422  -15.5220 N   0  0  0  0  0  0  0  0  0  0  0  0
    8.7139    4.1736  -11.4601 C   0  0  0  0  0  0  0  0  0  0  0  0
    5.7546    5.3014  -13.2955 C   0  0  0  0  0  0  0  0  0  0  0  0
   10.5665    3.9988  -14.5162 C   0  0  0  0  0  0  0  0  0  0  0  0
   11.2403    2.6657  -16.2927 C   0  0  0  0  0  0  0  0  0  0  0  0
    9.3488    3.2304  -14.4620 C   0  0  0  0  0  0  0  0  0  0  0  0
    9.6031    2.1282  -15.6022 S   0  0  0  0  0  0  0  0  0  0  0  0
    6.6942    4.4774  -12.6329 C   0  0  0  0  0  0  0  0  0  0  0  0
  1  2  1  0  0  0  0
  1 10  2  0  0  0  0
  2  3  1  0  0  0  0
  2  5  2  0  0  0  0
  3  4  1  0  0  0  0
  4  6  1  6  0  0  0
  4  9  1  0  0  0  0
  5  8  1  0  0  0  0
  5 12  1  0  0  0  0
  6  7  1  0  0  0  0
  7 11  1  0  0  0  0
  7 16  2  0  0  0  0
  8  9  1  0  0  0  0
 10 14  1  0  0  0  0
 11 13  2  0  0  0  0
 11 20  1  0  0  0  0
 12 14  2  0  0  0  0
 13 15  1  0  0  0  0
 13 18  1  0  0  0  0
 16 17  1  0  0  0  0
 17 20  1  0  0  0  0
 17 24  1  0  0  0  0
 18 19  2  0  0  0  0
 19 21  1  0  0  0  0
 19 22  1  0  0  0  0
 20 22  2  0  0  0  0
 21 23  1  0  0  0  0
 23 27  1  0  0  0  0
 24 25  2  0  0  0  0
 24 26  1  0  0  0  0
 25 28  1  0  0  0  0
 26 30  1  0  0  0  0
 26 36  2  0  0  0  0
 27 29  1  0  0  0  0
 28 31  2  0  0  0  0
 29 32  1  0  0  0  0
 29 33  1  0  0  0  0
 31 36  1  0  0  0  0
 32 34  2  0  0  0  0
 33 35  1  0  0  0  0
 34 35  1  0  0  0  0
M  END
$$$$

 OpenBabel10082411353D

 36 42  0  0  0  0  0  0  0  0999 V2000
   13.1862    9.4584   -4.4987 C   0  0  0  0  0  0  0  0  0  0  0  0
   12.1466    8.8379   -3.9099 C   0  0  0  0  0  0  0  0  0  0  0  0
   12.9882    9.7409   -5.8618 C   0  0  0  0  0  0  0  0  0  0  0  0
   11.9761    9.3177   -6.5889 C   0  0  0  0  0  0  0  0  0  0  0  0
   10.9346    8.5066   -5.9096 C   0  0  0  0  0  0  0  0  0  0  0  0
   12.2569    8.5495   -2.4516 C   0  0  0  0  0  0  0  0  0  0  0  0
   11.0697    8.2577   -4.5299 C   0  0  0  0  0  0  0  0  0  0  0  0
   11.7350    9.5912   -7.9371 O   0  0  0  0  0  0  0  0  0  0  0  0
    9.7397    8.0780   -6.6393 C   0  0  0  0  0  0  0  0  0  0  0  0
   10.8649    8.8162   -8.5483 C   0  0  2  0  0  0  0  0  0  0  0  0
    9.2400    6.9866   -6.2549 O   0  0  0  0  0  0  0  0  0  0  0  0
   10.8576    9.1019   -9.9991 C   0  0  0  0  0  0  0  0  0  0  0  0
   11.8034    8.3801  -10.7004 C   0  0  0  0  0  0  0  0  0  0  0  0
    9.8033    8.2783   -8.0085 N   0  0  0  0  0  0  0  0  0  0  0  0
   11.4502    7.6515  -11.8595 C   0  0  0  0  0  0  0  0  0  0  0  0
   10.3061    7.2417  -12.2192 C   0  0  0  0  0  0  0  0  0  0  0  0
   12.5619    7.1376  -12.7423 C   0  0  0  0  0  0  0  0  0  0  0  0
    9.9519    6.4550  -13.3394 C   0  0  0  0  0  0  0  0  0  0  0  0
   12.3234    6.3860  -13.8374 C   0  0  0  0  0  0  0  0  0  0  0  0
   11.0086    6.0227  -14.1262 C   0  0  0  0  0  0  0  0  0  0  0  0
   10.7528    5.1903  -15.3140 C   0  0  0  0  0  0  0  0  0  0  0  0
   10.7272    3.7455  -15.1287 N   0  0  0  0  0  0  0  0  0  0  0  0
    9.8835    3.1820  -14.4607 C   0  0  0  0  0  0  0  0  0  0  0  0
    9.9418    1.8005  -14.3797 N   0  0  0  0  0  0  0  0  0  0  0  0
    8.5108    3.6485  -13.9676 C   0  0  0  0  0  0  0  0  0  0  0  0
    7.4839    2.7202  -13.6392 C   0  0  0  0  0  0  0  0  0  0  0  0
   11.1594    1.4102  -15.0263 O   0  0  0  0  0  0  0  0  0  0  0  0
   11.5806    2.7148  -15.4973 C   0  0  0  0  0  0  0  0  0  0  0  0
    8.1482    4.9455  -13.8318 C   0  0  2  0  0  0  0  0  0  0  0  0
    8.5912    6.0153  -13.4949 N   0  0  0  0  0  0  0  0  0  0  0  0
    6.7132    4.7459  -13.1700 N   0  0  1  0  0  0  0  0  0  0  0  0
    7.4835    1.2250  -13.7929 C   0  0  0  0  0  0  0  0  0  0  0  0
    6.4929    3.4306  -13.1061 N   0  0  0  0  0  0  0  0  0  0  0  0
    6.2248    5.7104  -12.3743 C   0  0  0  0  0  0  0  0  0  0  0  0
    5.3699    2.9263  -12.3112 C   0  0  0  0  0  0  0  0  0  0  0  0
    7.2824    6.9024  -12.6652 C   0  0  0  0  0  0  0  0  0  0  0  0
  1  2  1  0  0  0  0
  1  3  2  0  0  0  0
  2  6  1  0  0  0  0
  2  7  2  0  0  0  0
  3  4  1  0  0  0  0
  4  5  2  0  0  0  0
  4  8  1  0  0  0  0
  5  7  1  0  0  0  0
  5  9  1  0  0  0  0
  8 10  1  0  0  0  0
  9 11  2  0  0  0  0
  9 14  1  0  0  0  0
 10 12  1  6  0  0  0
 10 14  1  0  0  0  0
 12 13  1  0  0  0  0
 13 15  1  0  0  0  0
 15 16  2  0  0  0  0
 15 17  1  0  0  0  0
 16 18  1  0  0  0  0
 17 19  2  0  0  0  0
 18 20  2  0  0  0  0
 18 30  1  0  0  0  0
 19 20  1  0  0  0  0
 20 21  1  0  0  0  0
 21 22  1  0  0  0  0
 22 23  1  0  0  0  0
 22 28  1  0  0  0  0
 23 24  2  0  0  0  0
 23 25  1  0  0  0  0
 24 27  1  0  0  0  0
 25 26  2  0  0  0  0
 26 32  1  0  0  0  0
 26 33  1  0  0  0  0
 27 28  1  0  0  0  0
 29 25  1  1  0  0  0
 29 30  1  0  0  0  0
 29 31  1  0  0  0  0
 30 36  1  0  0  0  0
 31 33  1  0  0  0  0
 31 34  1  1  0  0  0
 33 35  1  0  0  0  0
 34 36  1  0  0  0  0
M  END
$$$$

 OpenBabel10082411353D

 36 41  0  0  0  0  0  0  0  0999 V2000
   12.7863    7.8241  -14.2109 C   0  0  0  0  0  0  0  0  0  0  0  0
   12.4233    7.7158  -13.0289 C   0  0  0  0  0  0  0  0  0  0  0  0
   11.3194    6.8571  -12.8028 C   0  0  0  0  0  0  0  0  0  0  0  0
   12.3150    7.2021  -15.3582 C   0  0  0  0  0  0  0  0  0  0  0  0
   11.2733    6.2739  -15.1502 C   0  0  0  0  0  0  0  0  0  0  0  0
   10.8099    6.0126  -13.8600 C   0  0  0  0  0  0  0  0  0  0  0  0
    9.6782    5.1428  -13.6488 C   0  0  0  0  0  0  0  0  0  0  0  0
    8.5753    5.3880  -12.9589 N   0  0  0  0  0  0  0  0  0  0  0  0
    8.3226    6.7011  -12.3862 C   0  0  0  0  0  0  0  0  0  0  0  0
    9.8502    3.8578  -14.0728 C   0  0  0  0  0  0  0  0  0  0  0  0
    7.3864    7.4720  -13.0530 C   0  0  0  0  0  0  0  0  0  0  0  0
    6.2412    7.8486  -12.2599 C   0  0  0  0  0  0  0  0  0  0  0  0
    7.6425    4.4186  -12.7943 C   0  0  0  0  0  0  0  0  0  0  0  0
   11.0297    3.2482  -14.8053 C   0  0  0  0  0  0  0  0  0  0  0  0
    8.6802    2.8955  -13.7960 C   0  0  0  0  0  0  0  0  0  0  0  0
    8.8565    1.5917  -14.3582 O   0  0  0  0  0  0  0  0  0  0  0  0
    7.6903    3.2226  -13.1994 N   0  0  0  0  0  0  0  0  0  0  0  0
    6.5724    2.3444  -12.8378 C   0  0  0  0  0  0  0  0  0  0  0  0
    9.0225    7.0353  -11.3259 C   0  0  0  0  0  0  0  0  0  0  0  0
    6.4787    4.7532  -12.1787 O   0  0  0  0  0  0  0  0  0  0  0  0
   10.5868    7.0468  -11.5199 C   0  0  0  0  0  0  0  0  0  0  0  0
   11.2761    7.4007  -10.4131 C   0  0  0  0  0  0  0  0  0  0  0  0
    8.6862    7.4300   -9.9877 C   0  0  0  0  0  0  0  0  0  0  0  0
    9.4326    7.6744   -8.9657 C   0  0  0  0  0  0  0  0  0  0  0  0
   10.6794    7.6568   -9.1312 C   0  0  2  0  0  0  0  0  0  0  0  0
    8.9269    7.9839   -7.6612 C   0  0  0  0  0  0  0  0  0  0  0  0
   11.4232    7.9744   -7.9321 C   0  0  0  0  0  0  0  0  0  0  0  0
   10.9573    8.3184   -6.8885 C   0  0  0  0  0  0  0  0  0  0  0  0
    7.5782    7.8797   -7.5710 F   0  0  0  0  0  0  0  0  0  0  0  0
   11.9524    8.6726   -5.5732 C   0  0  0  0  0  0  0  0  0  0  0  0
   12.5628    9.9251   -5.6215 C   0  0  0  0  0  0  0  0  0  0  0  0
   11.7409    8.0483   -4.4624 C   0  0  0  0  0  0  0  0  0  0  0  0
   13.2690   10.1339   -4.4918 C   0  0  0  0  0  0  0  0  0  0  0  0
    9.4630    8.1816   -6.7271 C   0  0  0  0  0  0  0  0  0  0  0  0
   10.9271    6.5813   -4.2694 Cl  0  0  0  0  0  0  0  0  0  0  0  0
   12.9323    9.0041   -3.3558 S   0  0  0  0  0  0  0  0  0  0  0  0
  1  2  2  0  0  0  0
  1  4  1  0  0  0  0
  2  3  1  0  0  0  0
  3  6  2  0  0  0  0
  3 21  1  0  0  0  0
  4  5  2  0  0  0  0
  5  6  1  0  0  0  0
  6  7  1  0  0  0  0
  7  8  1  0  0  0  0
  7 10  2  0  0  0  0
  8  9  1  0  0  0  0
  8 13  1  0  0  0  0
  9 11  1  0  0  0  0
  9 19  2  0  0  0  0
 10 14  1  0  0  0  0
 10 15  1  0  0  0  0
 11 12  1  0  0  0  0
 13 17  1  0  0  0  0
 13 20  2  0  0  0  0
 15 16  2  0  0  0  0
 15 17  1  0  0  0  0
 17 18  1  0  0  0  0
 19 21  1  0  0  0  0
 19 23  1  0  0  0  0
 21 22  2  0  0  0  0
 23 24  2  0  0  0  0
 24 25  1  0  0  0  0
 24 26  1  0  0  0  0
 25 22  1  6  0  0  0
 25 27  1  0  0  0  0
 26 29  1  0  0  0  0
 26 34  2  0  0  0  0
 27 28  2  0  0  0  0
 28 30  1  0  0  0  0
 28 34  1  0  0  0  0
 30 31  1  0  0  0  0
 30 32  2  0  0  0  0
 31 33  2  0  0  0  0
 32 35  1  0  0  0  0
 32 36  1  0  0  0  0
 33 36  1  0  0  0  0
M  END
$$$$

 OpenBabel10082411353D

 36 39  0  0  0  0  0  0  0  0999 V2000
   11.6836    6.0105   -4.8831 F   0  0  0  0  0  0  0  0  0  0  0  0
   11.2562    7.2206   -5.0294 C   0  0  0  0  0  0  0  0  0  0  0  0
   12.0125    8.2418   -4.4408 C   0  0  0  0  0  0  0  0  0  0  0  0
   11.1918    7.2706   -6.5237 C   0  0  0  0  0  0  0  0  0  0  0  0
   11.6999    8.4488   -3.1704 F   0  0  0  0  0  0  0  0  0  0  0  0
    9.8648    7.0908   -4.5314 F   0  0  0  0  0  0  0  0  0  0  0  0
   11.6831    8.5291   -6.9682 C   0  0  0  0  0  0  0  0  0  0  0  0
   10.4785    6.5189   -7.4033 C   0  0  0  0  0  0  0  0  0  0  0  0
   11.6979    8.6661   -8.4760 C   0  0  0  0  0  0  0  0  0  0  0  0
   11.6248    9.5853   -5.0030 C   0  0  0  0  0  0  0  0  0  0  0  0
   11.8604    9.7907   -6.2903 O   0  0  0  0  0  0  0  0  0  0  0  0
   13.3557    8.1748   -4.5947 F   0  0  0  0  0  0  0  0  0  0  0  0
   10.5427    6.6061   -8.7190 C   0  0  0  0  0  0  0  0  0  0  0  0
   11.1158    7.7103   -9.2540 C   0  0  0  0  0  0  0  0  0  0  0  0
   11.3757    7.6656  -10.5293 N   0  0  0  0  0  0  0  0  0  0  0  0
   10.7153    7.7096  -11.5405 C   0  0  0  0  0  0  0  0  0  0  0  0
   11.2483    7.4711  -12.8542 C   0  0  0  0  0  0  0  0  0  0  0  0
    9.3980    7.7820  -11.5398 C   0  0  0  0  0  0  0  0  0  0  0  0
    8.6055    7.5889  -12.6525 C   0  0  0  0  0  0  0  0  0  0  0  0
   12.7508    7.3705  -13.0162 O   0  0  0  0  0  0  0  0  0  0  0  0
   10.5299    7.1831  -13.9856 C   0  0  0  0  0  0  0  0  0  0  0  0
    7.0533    7.7371  -12.5396 C   0  0  0  0  0  0  0  0  0  0  0  0
   11.2041    6.8490  -15.2304 C   0  0  0  0  0  0  0  0  0  0  0  0
   11.6393    5.5333  -15.3864 C   0  0  0  0  0  0  0  0  0  0  0  0
    9.1955    7.2935  -13.8301 C   0  0  0  0  0  0  0  0  0  0  0  0
   12.5294    5.1116  -16.1609 C   0  0  0  0  0  0  0  0  0  0  0  0
   11.2315    4.4703  -14.3200 C   0  0  0  0  0  0  0  0  0  0  0  0
   10.2844    4.5821  -13.3000 C   0  0  0  0  0  0  0  0  0  0  0  0
   11.6270    3.1866  -14.6052 C   0  0  0  0  0  0  0  0  0  0  0  0
    9.0868    3.8289  -13.3080 C   0  0  0  0  0  0  0  0  0  0  0  0
    8.1007    4.0948  -12.4103 C   0  0  0  0  0  0  0  0  0  0  0  0
    6.8410    3.6347  -12.6829 C   0  0  0  0  0  0  0  0  0  0  0  0
   12.9624    6.1826  -17.2150 C   0  0  0  0  0  0  0  0  0  0  0  0
   12.4374    2.8792  -15.6374 C   0  0  0  0  0  0  0  0  0  0  0  0
   12.8246    3.8444  -16.4758 C   0  0  0  0  0  0  0  0  0  0  0  0
    5.6988    4.0113  -11.8268 C   0  0  0  0  0  0  0  0  0  0  0  0
  1  2  1  0  0  0  0
  2  3  1  0  0  0  0
  2  4  1  0  0  0  0
  2  6  1  0  0  0  0
  3  5  1  0  0  0  0
  3 10  1  0  0  0  0
  3 12  1  0  0  0  0
  4  7  1  0  0  0  0
  4  8  2  0  0  0  0
  7  9  2  0  0  0  0
  7 11  1  0  0  0  0
  8 13  1  0  0  0  0
  9 14  1  0  0  0  0
 10 11  1  0  0  0  0
 13 14  2  0  0  0  0
 14 15  1  0  0  0  0
 15 16  1  0  0  0  0
 16 17  1  0  0  0  0
 16 18  2  0  0  0  0
 17 20  1  0  0  0  0
 17 21  2  0  0  0  0
 18 19  1  0  0  0  0
 19 22  1  0  0  0  0
 19 25  2  0  0  0  0
 21 23  1  0  0  0  0
 21 25  1  0  0  0  0
 23 24  1  0  0  0  0
 24 26  2  0  0  0  0
 24 27  1  0  0  0  0
 26 33  1  0  0  0  0
 26 35  1  0  0  0  0
 27 28  1  0  0  0  0
 27 29  2  0  0  0  0
 28 30  2  3  0  0  0
 29 34  1  0  0  0  0
 30 31  1  0  0  0  0
 31 32  2  3  0  0  0
 32 36  1  0  0  0  0
 34 35  2  0  0  0  0
M  END
$$$$

 OpenBabel10082411353D

 36 40  0  0  0  0  0  0  0  0999 V2000
   12.7863    7.8241  -14.2109 C   0  0  0  0  0  0  0  0  0  0  0  0
   12.4233    7.7158  -13.0289 C   0  0  0  0  0  0  0  0  0  0  0  0
   11.3194    6.8571  -12.8028 C   0  0  0  0  0  0  0  0  0  0  0  0
   12.3150    7.2021  -15.3582 C   0  0  0  0  0  0  0  0  0  0  0  0
   11.2733    6.2739  -15.1502 C   0  0  0  0  0  0  0  0  0  0  0  0
   10.8099    6.0126  -13.8600 C   0  0  0  0  0  0  0  0  0  0  0  0
    9.6782    5.1428  -13.6488 C   0  0  0  0  0  0  0  0  0  0  0  0
    8.5753    5.3880  -12.9589 N   0  0  0  0  0  0  0  0  0  0  0  0
    8.3226    6.7011  -12.3862 C   0  0  0  0  0  0  0  0  0  0  0  0
    9.8502    3.8578  -14.0728 C   0  0  0  0  0  0  0  0  0  0  0  0
    7.3864    7.4720  -13.0530 C   0  0  0  0  0  0  0  0  0  0  0  0
    6.2412    7.8486  -12.2599 C   0  0  0  0  0  0  0  0  0  0  0  0
    7.6425    4.4186  -12.7943 C   0  0  0  0  0  0  0  0  0  0  0  0
   11.0297    3.2482  -14.8053 C   0  0  0  0  0  0  0  0  0  0  0  0
    8.6802    2.8955  -13.7960 C   0  0  0  0  0  0  0  0  0  0  0  0
    8.8565    1.5917  -14.3582 O   0  0  0  0  0  0  0  0  0  0  0  0
    7.6903    3.2226  -13.1994 N   0  0  0  0  0  0  0  0  0  0  0  0
    6.5724    2.3444  -12.8378 C   0  0  0  0  0  0  0  0  0  0  0  0
    9.0225    7.0353  -11.3259 C   0  0  0  0  0  0  0  0  0  0  0  0
    6.4787    4.7532  -12.1787 O   0  0  0  0  0  0  0  0  0  0  0  0
   10.5868    7.0468  -11.5199 C   0  0  0  0  0  0  0  0  0  0  0  0
   11.2761    7.4007  -10.4131 C   0  0  0  0  0  0  0  0  0  0  0  0
    8.6862    7.4300   -9.9877 C   0  0  0  0  0  0  0  0  0  0  0  0
    9.4326    7.6744   -8.9657 C   0  0  0  0  0  0  0  0  0  0  0  0
   10.8581    7.6684   -9.2058 C   0  0  1  0  0  0  0  0  0  0  0  0
   11.6483    7.9198   -7.9603 C   0  0  0  0  0  0  0  0  0  0  0  0
    9.0674    8.0768   -7.5387 C   0  0  0  0  0  0  0  0  0  0  0  0
   11.3403    8.3430   -6.9328 C   0  0  0  0  0  0  0  0  0  0  0  0
    9.8811    8.3757   -6.6063 C   0  0  0  0  0  0  0  0  0  0  0  0
   12.3484    8.7628   -5.5143 S   0  0  0  0  0  0  0  0  0  0  0  0
   11.9329    8.0235   -4.3593 N   0  0  0  0  0  0  0  0  0  0  0  0
   12.0045    8.6437   -2.9775 C   0  0  0  0  0  0  0  0  0  0  0  0
   11.0303    6.8499   -4.2928 C   0  0  0  0  0  0  0  0  0  0  0  0
   13.5447    8.6027   -6.1277 O   0  0  0  0  0  0  0  0  0  0  0  0
   12.1106   10.1647   -4.8724 O   0  0  0  0  0  0  0  0  0  0  0  0
   12.1461    5.7436   -4.0924 C   0  0  0  0  0  0  0  0  0  0  0  0
  1  2  2  0  0  0  0
  1  4  1  0  0  0  0
  2  3  1  0  0  0  0
  3  6  2  0  0  0  0
  3 21  1  0  0  0  0
  4  5  2  0  0  0  0
  5  6  1  0  0  0  0
  6  7  1  0  0  0  0
  7  8  1  0  0  0  0
  7 10  2  0  0  0  0
  8  9  1  0  0  0  0
  8 13  1  0  0  0  0
  9 11  1  0  0  0  0
  9 19  2  0  0  0  0
 10 14  1  0  0  0  0
 10 15  1  0  0  0  0
 11 12  1  0  0  0  0
 13 17  1  0  0  0  0
 13 20  2  0  0  0  0
 15 16  2  0  0  0  0
 15 17  1  0  0  0  0
 17 18  1  0  0  0  0
 19 21  1  0  0  0  0
 19 23  1  0  0  0  0
 21 22  2  0  0  0  0
 23 24  2  0  0  0  0
 24 25  1  0  0  0  0
 24 27  1  0  0  0  0
 25 22  1  1  0  0  0
 25 26  1  0  0  0  0
 26 28  2  0  0  0  0
 27 29  2  0  0  0  0
 28 29  1  0  0  0  0
 28 30  1  0  0  0  0
 30 31  1  0  0  0  0
 30 34  2  0  0  0  0
 30 35  2  0  0  0  0
 31 32  1  0  0  0  0
 31 33  1  0  0  0  0
 33 36  1  0  0  0  0
M  END
$$$$

 OpenBabel10082411353D

 36 41  0  0  0  0  0  0  0  0999 V2000
   11.6836    6.0105   -4.8831 C   0  0  0  0  0  0  0  0  0  0  0  0
   11.1291    7.0732   -5.4395 C   0  0  0  0  0  0  0  0  0  0  0  0
   10.6954    7.0156   -6.8073 C   0  0  0  0  0  0  0  0  0  0  0  0
   10.2502    8.1187   -7.5536 C   0  0  2  0  0  0  0  0  0  0  0  0
   11.1205    8.4712   -4.9629 C   0  0  0  0  0  0  0  0  0  0  0  0
   10.8655    8.3511   -8.7960 C   0  0  0  0  0  0  0  0  0  0  0  0
   10.2922    7.8843   -9.9985 C   0  0  0  0  0  0  0  0  0  0  0  0
   10.4654    9.6993   -5.6120 C   0  0  0  0  0  0  0  0  0  0  0  0
   10.3510    9.5971   -7.0014 C   0  0  0  0  0  0  0  0  0  0  0  0
   12.2462    6.3351   -3.5020 C   0  0  0  0  0  0  0  0  0  0  0  0
   11.0471    7.5309  -11.1063 C   0  0  0  0  0  0  0  0  0  0  0  0
   11.7288    8.6923   -3.6518 C   0  0  0  0  0  0  0  0  0  0  0  0
   12.3991    7.7501  -11.1145 C   0  0  0  0  0  0  0  0  0  0  0  0
   12.3738    7.7580   -2.9599 C   0  0  0  0  0  0  0  0  0  0  0  0
   13.1285    8.5075  -10.1661 O   0  0  0  0  0  0  0  0  0  0  0  0
    9.0407    7.3775  -10.0973 N   0  0  0  0  0  0  0  0  0  0  0  0
    8.9787    6.9473  -11.4664 N   0  0  0  0  0  0  0  0  0  0  0  0
   13.1012    7.4459  -12.3707 C   0  0  0  0  0  0  0  0  0  0  0  0
   12.2395    6.9724  -13.2444 C   0  0  0  0  0  0  0  0  0  0  0  0
   10.2768    7.0170  -11.9799 C   0  0  0  0  0  0  0  0  0  0  0  0
   12.9237    6.5822  -14.5759 O   0  0  0  0  0  0  0  0  0  0  0  0
   10.8906    6.6526  -13.2252 C   0  0  0  0  0  0  0  0  0  0  0  0
   12.2396    6.1290  -15.6916 C   0  0  0  0  0  0  0  0  0  0  0  0
    7.7368    6.4514  -12.0707 C   0  0  0  0  0  0  0  0  0  0  0  0
    7.1353    7.2872  -12.8105 C   0  0  0  0  0  0  0  0  0  0  0  0
    7.6622    5.0135  -12.1225 C   0  0  0  0  0  0  0  0  0  0  0  0
   12.5092    4.6950  -15.8147 C   0  0  0  0  0  0  0  0  0  0  0  0
    5.9403    6.5840  -13.2897 C   0  0  0  0  0  0  0  0  0  0  0  0
   11.2738    3.8422  -15.5220 N   0  0  0  0  0  0  0  0  0  0  0  0
    8.7139    4.1736  -11.4601 C   0  0  0  0  0  0  0  0  0  0  0  0
    5.7546    5.3014  -13.2955 C   0  0  0  0  0  0  0  0  0  0  0  0
   10.5665    3.9988  -14.5162 C   0  0  0  0  0  0  0  0  0  0  0  0
    6.6518    4.4534  -12.6459 C   0  0  0  0  0  0  0  0  0  0  0  0
    9.4912    3.0700  -14.3497 C   0  0  0  0  0  0  0  0  0  0  0  0
   10.8576    2.7594  -16.2342 C   0  0  0  0  0  0  0  0  0  0  0  0
    9.7741    2.2966  -15.5549 N   0  0  0  0  0  0  0  0  0  0  0  0
  1  2  1  0  0  0  0
  1 10  2  0  0  0  0
  2  3  1  0  0  0  0
  2  5  2  0  0  0  0
  3  4  1  0  0  0  0
  4  6  1  6  0  0  0
  4  9  1  0  0  0  0
  5  8  1  0  0  0  0
  5 12  1  0  0  0  0
  6  7  1  0  0  0  0
  7 11  1  0  0  0  0
  7 16  2  0  0  0  0
  8  9  1  0  0  0  0
 10 14  1  0  0  0  0
 11 13  2  0  0  0  0
 11 20  1  0  0  0  0
 12 14  2  0  0  0  0
 13 15  1  0  0  0  0
 13 18  1  0  0  0  0
 16 17  1  0  0  0  0
 17 20  1  0  0  0  0
 17 24  1  0  0  0  0
 18 19  2  0  0  0  0
 19 21  1  0  0  0  0
 19 22  1  0  0  0  0
 20 22  2  0  0  0  0
 21 23  1  0  0  0  0
 23 27  1  0  0  0  0
 24 25  2  0  0  0  0
 24 26  1  0  0  0  0
 25 28  1  0  0  0  0
 26 30  1  0  0  0  0
 26 33  2  0  0  0  0
 27 29  1  0  0  0  0
 28 31  2  0  0  0  0
 29 32  1  0  0  0  0
 29 35  1  0  0  0  0
 31 33  1  0  0  0  0
 32 34  2  0  0  0  0
 34 36  1  0  0  0  0
 35 36  2  0  0  0  0
M  END
$$$$

 OpenBabel10082411353D

 36 41  0  0  0  0  0  0  0  0999 V2000
   12.7863    7.8241  -14.2109 C   0  0  0  0  0  0  0  0  0  0  0  0
   12.4233    7.7158  -13.0289 C   0  0  0  0  0  0  0  0  0  0  0  0
   11.3194    6.8571  -12.8028 C   0  0  0  0  0  0  0  0  0  0  0  0
   12.3150    7.2021  -15.3582 C   0  0  0  0  0  0  0  0  0  0  0  0
   11.2733    6.2739  -15.1502 C   0  0  0  0  0  0  0  0  0  0  0  0
   10.8099    6.0126  -13.8600 C   0  0  0  0  0  0  0  0  0  0  0  0
    9.6782    5.1428  -13.6488 C   0  0  0  0  0  0  0  0  0  0  0  0
    8.5753    5.3880  -12.9589 N   0  0  0  0  0  0  0  0  0  0  0  0
    8.3226    6.7011  -12.3862 C   0  0  0  0  0  0  0  0  0  0  0  0
    9.8502    3.8578  -14.0728 C   0  0  0  0  0  0  0  0  0  0  0  0
    7.3864    7.4720  -13.0530 C   0  0  0  0  0  0  0  0  0  0  0  0
    6.2412    7.8486  -12.2599 C   0  0  0  0  0  0  0  0  0  0  0  0
    7.6425    4.4186  -12.7943 C   0  0  0  0  0  0  0  0  0  0  0  0
   11.0297    3.2482  -14.8053 C   0  0  0  0  0  0  0  0  0  0  0  0
    8.6802    2.8955  -13.7960 C   0  0  0  0  0  0  0  0  0  0  0  0
    8.8565    1.5917  -14.3582 O   0  0  0  0  0  0  0  0  0  0  0  0
    7.6903    3.2226  -13.1994 N   0  0  0  0  0  0  0  0  0  0  0  0
    6.5724    2.3444  -12.8378 C   0  0  0  0  0  0  0  0  0  0  0  0
    9.0225    7.0353  -11.3259 C   0  0  0  0  0  0  0  0  0  0  0  0
    6.4787    4.7532  -12.1787 O   0  0  0  0  0  0  0  0  0  0  0  0
   10.5868    7.0468  -11.5199 C   0  0  0  0  0  0  0  0  0  0  0  0
   11.2761    7.4007  -10.4131 C   0  0  0  0  0  0  0  0  0  0  0  0
    8.6862    7.4300   -9.9877 C   0  0  0  0  0  0  0  0  0  0  0  0
    9.4326    7.6744   -8.9657 C   0  0  0  0  0  0  0  0  0  0  0  0
   10.6794    7.6568   -9.1312 C   0  0  2  0  0  0  0  0  0  0  0  0
    8.9269    7.9839   -7.6612 C   0  0  0  0  0  0  0  0  0  0  0  0
   11.4232    7.9744   -7.9321 C   0  0  0  0  0  0  0  0  0  0  0  0
   10.9573    8.3184   -6.8885 C   0  0  0  0  0  0  0  0  0  0  0  0
    7.5782    7.8797   -7.5710 F   0  0  0  0  0  0  0  0  0  0  0  0
   11.9524    8.6726   -5.5732 C   0  0  0  0  0  0  0  0  0  0  0  0
   12.5628    9.9251   -5.6215 C   0  0  0  0  0  0  0  0  0  0  0  0
   11.7409    8.0483   -4.4624 C   0  0  0  0  0  0  0  0  0  0  0  0
   13.2690   10.1339   -4.4918 C   0  0  0  0  0  0  0  0  0  0  0  0
    9.4630    8.1816   -6.7271 C   0  0  0  0  0  0  0  0  0  0  0  0
   12.9861    9.0553   -3.3537 S   0  0  0  0  0  0  0  0  0  0  0  0
   11.0555    6.7233   -3.9016 C   0  0  0  0  0  0  0  0  0  0  0  0
  1  2  2  0  0  0  0
  1  4  1  0  0  0  0
  2  3  1  0  0  0  0
  3  6  2  0  0  0  0
  3 21  1  0  0  0  0
  4  5  2  0  0  0  0
  5  6  1  0  0  0  0
  6  7  1  0  0  0  0
  7  8  1  0  0  0  0
  7 10  2  0  0  0  0
  8  9  1  0  0  0  0
  8 13  1  0  0  0  0
  9 11  1  0  0  0  0
  9 19  2  0  0  0  0
 10 14  1  0  0  0  0
 10 15  1  0  0  0  0
 11 12  1  0  0  0  0
 13 17  1  0  0  0  0
 13 20  2  0  0  0  0
 15 16  2  0  0  0  0
 15 17  1  0  0  0  0
 17 18  1  0  0  0  0
 19 21  1  0  0  0  0
 19 23  1  0  0  0  0
 21 22  2  0  0  0  0
 23 24  2  0  0  0  0
 24 25  1  0  0  0  0
 24 26  1  0  0  0  0
 25 22  1  6  0  0  0
 25 27  1  0  0  0  0
 26 29  1  0  0  0  0
 26 34  2  0  0  0  0
 27 28  2  0  0  0  0
 28 30  1  0  0  0  0
 28 34  1  0  0  0  0
 30 31  1  0  0  0  0
 30 32  2  0  0  0  0
 31 33  2  0  0  0  0
 32 35  1  0  0  0  0
 32 36  1  0  0  0  0
 33 35  1  0  0  0  0
M  END
$$$$

 OpenBabel10082411353D

 36 43  0  0  0  0  0  0  0  0999 V2000
    8.0806    9.0240  -12.7589 C   0  0  0  0  0  0  0  0  0  0  0  0
    8.6514    7.8645  -12.2948 C   0  0  0  0  0  0  0  0  0  0  0  0
    9.9575    7.9974  -11.8426 C   0  0  0  0  0  0  0  0  0  0  0  0
   10.7657    6.8667  -11.6050 C   0  0  1  0  0  0  0  0  0  0  0  0
   10.7682    5.9590  -12.8271 C   0  0  0  0  0  0  0  0  0  0  0  0
   12.1553    7.3846  -11.2315 C   0  0  0  0  0  0  0  0  0  0  0  0
    8.0676    6.6451  -12.2974 C   0  0  0  0  0  0  0  0  0  0  0  0
   10.1892    6.1240  -10.3860 C   0  0  0  0  0  0  0  0  0  0  0  0
   11.8375    5.4373  -13.3240 O   0  0  0  0  0  0  0  0  0  0  0  0
    8.6785    5.4761  -13.0273 C   0  0  1  0  0  0  0  0  0  0  0  0
    9.1969    5.2405  -10.4969 C   0  0  1  0  0  0  0  0  0  0  0  0
    7.2213    6.2210  -11.3074 C   0  0  0  0  0  0  0  0  0  0  0  0
   12.5590    7.6872   -9.9896 C   0  0  0  0  0  0  0  0  0  0  0  0
    9.7633    5.0333  -12.9720 C   0  0  1  0  0  0  0  0  0  0  0  0
   10.0661    4.0167  -14.0373 N   0  0  0  0  0  0  0  0  0  0  0  0
   13.6906    8.3004   -9.6233 O   0  0  0  0  0  0  0  0  0  0  0  0
    7.6357    4.5123  -12.6317 C   0  0  2  0  0  0  0  0  0  0  0  0
    6.8831    4.9171  -11.7031 C   0  0  0  0  0  0  0  0  0  0  0  0
   10.5937    6.6967   -9.1779 C   0  0  0  0  0  0  0  0  0  0  0  0
    9.5087    4.3263  -11.6925 C   0  0  2  0  0  0  0  0  0  0  0  0
   11.6359    7.4449   -8.9125 C   0  0  0  0  0  0  0  0  0  0  0  0
   11.9716    7.9159   -7.6200 C   0  0  0  0  0  0  0  0  0  0  0  0
    8.4648    3.6122  -12.2840 C   0  0  2  0  0  0  0  0  0  0  0  0
    9.3128    4.5571   -9.1689 C   0  0  0  0  0  0  0  0  0  0  0  0
   10.9557    7.6369   -6.5929 C   0  0  2  0  0  0  0  0  0  0  0  0
    9.6490    2.8108  -13.7776 C   0  0  1  0  0  0  0  0  0  0  0  0
    9.6716    6.1981   -8.0224 C   0  0  2  0  0  0  0  0  0  0  0  0
    8.5511    2.5400  -13.1402 C   0  0  0  0  0  0  0  0  0  0  0  0
    9.7877    2.0302  -15.0383 O   0  0  0  0  0  0  0  0  0  0  0  0
   10.2949    6.3957   -6.8142 C   0  0  0  0  0  0  0  0  0  0  0  0
    8.7552    3.1757   -9.1739 O   0  0  0  0  0  0  0  0  0  0  0  0
   10.0241    8.9015   -6.4644 C   0  0  0  0  0  0  0  0  0  0  0  0
   11.5641    7.7572   -5.1363 C   0  0  2  0  0  0  0  0  0  0  0  0
   11.9638    6.4982   -4.7315 C   0  0  0  0  0  0  0  0  0  0  0  0
   10.8709    8.5357   -4.2093 O   0  0  0  0  0  0  0  0  0  0  0  0
    9.1980    4.9945   -8.0739 C   0  0  0  0  0  0  0  0  0  0  0  0
  1  2  1  0  0  0  0
  2  3  1  0  0  0  0
  2  7  2  0  0  0  0
  4  3  1  6  0  0  0
  4  5  1  0  0  0  0
  4  6  1  0  0  0  0
  4  8  1  0  0  0  0
  5  9  2  0  0  0  0
  6 13  1  0  0  0  0
  7 12  1  0  0  0  0
  8 19  2  0  0  0  0
 10  7  1  1  0  0  0
 10 14  1  0  0  0  0
 10 17  1  0  0  0  0
 11  8  1  1  0  0  0
 11 20  1  0  0  0  0
 11 24  1  0  0  0  0
 12 18  1  0  0  0  0
 13 16  2  0  0  0  0
 13 21  1  0  0  0  0
 14  5  1  1  0  0  0
 14 15  1  0  0  0  0
 14 20  1  0  0  0  0
 15 26  1  0  0  0  0
 17 18  1  1  0  0  0
 17 23  1  0  0  0  0
 19 21  1  0  0  0  0
 19 27  1  0  0  0  0
 20 23  1  0  0  0  0
 21 22  2  0  0  0  0
 22 25  1  0  0  0  0
 23 28  1  0  0  0  0
 24 31  2  0  0  0  0
 24 36  1  0  0  0  0
 25 30  1  0  0  0  0
 25 32  1  0  0  0  0
 25 33  1  0  0  0  0
 26 28  1  0  0  0  0
 26 29  1  0  0  0  0
 27 30  1  0  0  0  0
 27 36  1  0  0  0  0
 33 34  1  0  0  0  0
 33 35  1  0  0  0  0
M  END
$$$$

 OpenBabel10082411353D

 24 25  0  0  0  0  0  0  0  0999 V2000
   12.7863    7.8241  -14.2109 C   0  0  0  0  0  0  0  0  0  0  0  0
   12.4233    7.7158  -13.0289 C   0  0  0  0  0  0  0  0  0  0  0  0
   12.9219    8.1949  -11.8668 C   0  0  0  0  0  0  0  0  0  0  0  0
   11.4275    6.6086  -12.7931 C   0  0  0  0  0  0  0  0  0  0  0  0
   10.3411    6.8404  -12.0679 C   0  0  0  0  0  0  0  0  0  0  0  0
   10.7226    7.4332  -10.7281 C   0  0  0  0  0  0  0  0  0  0  0  0
   11.9330    8.1749  -10.6718 C   0  0  0  0  0  0  0  0  0  0  0  0
    9.1847    5.7774  -11.9431 C   0  0  0  0  0  0  0  0  0  0  0  0
    9.7417    7.5228   -9.7082 N   0  0  0  0  0  0  0  0  0  0  0  0
   10.0226    8.3874   -8.6769 C   0  0  0  0  0  0  0  0  0  0  0  0
    9.1518    4.6533  -11.9487 O   0  0  0  0  0  0  0  0  0  0  0  0
   11.1604    8.1263   -7.7543 C   0  0  1  0  0  0  0  0  0  0  0  0
    7.9973    6.4472  -11.5978 N   0  0  0  0  0  0  0  0  0  0  0  0
   11.7310    9.2018   -7.0541 C   0  0  0  0  0  0  0  0  0  0  0  0
   12.3263    8.8952   -5.7965 C   0  0  1  0  0  0  0  0  0  0  0  0
   11.2835    6.8098   -7.2255 C   0  0  0  0  0  0  0  0  0  0  0  0
    7.7375    7.7938  -12.3858 C   0  0  0  0  0  0  0  0  0  0  0  0
    6.7840    5.5582  -11.5055 C   0  0  0  0  0  0  0  0  0  0  0  0
    6.4118    8.0427  -12.5469 C   0  0  0  0  0  0  0  0  0  0  0  0
   11.3375    6.6809   -5.8849 C   0  0  0  0  0  0  0  0  0  0  0  0
    6.7808    4.4203  -12.5286 C   0  0  0  0  0  0  0  0  0  0  0  0
   12.6415   10.1025   -4.9325 C   0  0  0  0  0  0  0  0  0  0  0  0
    6.2129    3.1798  -12.1625 C   0  0  0  0  0  0  0  0  0  0  0  0
   11.6644    7.7893   -4.9891 C   0  0  0  0  0  0  0  0  0  0  0  0
  1  2  1  0  0  0  0
  2  3  1  0  0  0  0
  2  4  2  0  0  0  0
  3  7  2  0  0  0  0
  4  5  1  0  0  0  0
  5  6  2  0  0  0  0
  5  8  1  0  0  0  0
  6  7  1  0  0  0  0
  6  9  1  0  0  0  0
  8 11  2  0  0  0  0
  8 13  1  0  0  0  0
  9 10  1  0  0  0  0
 12 10  1  1  0  0  0
 12 14  1  0  0  0  0
 12 16  1  0  0  0  0
 13 17  1  0  0  0  0
 13 18  1  0  0  0  0
 14 15  1  0  0  0  0
 15 22  1  1  0  0  0
 15 24  1  0  0  0  0
 16 20  1  0  0  0  0
 17 19  1  0  0  0  0
 18 21  1  0  0  0  0
 20 24  1  0  0  0  0
 21 23  1  0  0  0  0
M  END
$$$$

 OpenBabel10082411353D

 36 39  0  0  0  0  0  0  0  0999 V2000
   11.6836    6.0105   -4.8831 F   0  0  0  0  0  0  0  0  0  0  0  0
   11.2562    7.2206   -5.0294 C   0  0  0  0  0  0  0  0  0  0  0  0
   12.0125    8.2418   -4.4408 C   0  0  0  0  0  0  0  0  0  0  0  0
   11.1918    7.2706   -6.5237 C   0  0  0  0  0  0  0  0  0  0  0  0
   11.6999    8.4488   -3.1704 F   0  0  0  0  0  0  0  0  0  0  0  0
    9.8648    7.0908   -4.5314 F   0  0  0  0  0  0  0  0  0  0  0  0
   11.6831    8.5291   -6.9682 C   0  0  0  0  0  0  0  0  0  0  0  0
   10.4785    6.5189   -7.4033 C   0  0  0  0  0  0  0  0  0  0  0  0
   11.6979    8.6661   -8.4760 C   0  0  0  0  0  0  0  0  0  0  0  0
   11.6248    9.5853   -5.0030 C   0  0  0  0  0  0  0  0  0  0  0  0
   11.8604    9.7907   -6.2903 O   0  0  0  0  0  0  0  0  0  0  0  0
   13.3557    8.1748   -4.5947 F   0  0  0  0  0  0  0  0  0  0  0  0
   10.5427    6.6061   -8.7190 C   0  0  0  0  0  0  0  0  0  0  0  0
   11.1158    7.7103   -9.2540 C   0  0  0  0  0  0  0  0  0  0  0  0
   11.3757    7.6656  -10.5293 N   0  0  0  0  0  0  0  0  0  0  0  0
   10.7153    7.7096  -11.5405 C   0  0  0  0  0  0  0  0  0  0  0  0
   11.2483    7.4711  -12.8542 C   0  0  0  0  0  0  0  0  0  0  0  0
    9.3980    7.7820  -11.5398 C   0  0  0  0  0  0  0  0  0  0  0  0
    8.6055    7.5889  -12.6525 C   0  0  0  0  0  0  0  0  0  0  0  0
   12.7508    7.3705  -13.0162 O   0  0  0  0  0  0  0  0  0  0  0  0
   10.5299    7.1831  -13.9856 C   0  0  0  0  0  0  0  0  0  0  0  0
    7.0533    7.7371  -12.5396 C   0  0  0  0  0  0  0  0  0  0  0  0
   11.2041    6.8490  -15.2304 C   0  0  0  0  0  0  0  0  0  0  0  0
   11.6393    5.5333  -15.3864 C   0  0  0  0  0  0  0  0  0  0  0  0
    9.1955    7.2935  -13.8301 C   0  0  0  0  0  0  0  0  0  0  0  0
   12.5294    5.1116  -16.1609 C   0  0  0  0  0  0  0  0  0  0  0  0
   11.2315    4.4703  -14.3200 C   0  0  0  0  0  0  0  0  0  0  0  0
   13.0194    6.0876  -17.1697 C   0  0  0  0  0  0  0  0  0  0  0  0
   11.5246    3.1793  -14.7338 C   0  0  0  0  0  0  0  0  0  0  0  0
   12.2907    7.1277  -17.4891 C   0  0  0  0  0  0  0  0  0  0  0  0
   12.6622    8.0491  -18.3865 O   0  0  0  0  0  0  0  0  0  0  0  0
   10.7694    2.1370  -14.1163 C   0  0  0  0  0  0  0  0  0  0  0  0
   11.4571    7.7441  -16.2710 C   0  0  0  0  0  0  0  0  0  0  0  0
    6.7884    8.8688  -12.1098 F   0  0  0  0  0  0  0  0  0  0  0  0
    6.5690    6.8837  -11.5919 F   0  0  0  0  0  0  0  0  0  0  0  0
    6.5245    7.4544  -13.7045 F   0  0  0  0  0  0  0  0  0  0  0  0
  1  2  1  0  0  0  0
  2  3  1  0  0  0  0
  2  4  1  0  0  0  0
  2  6  1  0  0  0  0
  3  5  1  0  0  0  0
  3 10  1  0  0  0  0
  3 12  1  0  0  0  0
  4  7  1  0  0  0  0
  4  8  2  0  0  0  0
  7  9  2  0  0  0  0
  7 11  1  0  0  0  0
  8 13  1  0  0  0  0
  9 14  1  0  0  0  0
 10 11  1  0  0  0  0
 13 14  2  0  0  0  0
 14 15  1  0  0  0  0
 15 16  1  0  0  0  0
 16 17  1  0  0  0  0
 16 18  2  0  0  0  0
 17 20  1  0  0  0  0
 17 21  2  0  0  0  0
 18 19  1  0  0  0  0
 19 22  1  0  0  0  0
 19 25  2  0  0  0  0
 21 23  1  0  0  0  0
 21 25  1  0  0  0  0
 22 34  1  0  0  0  0
 22 35  1  0  0  0  0
 22 36  1  0  0  0  0
 23 24  1  0  0  0  0
 23 33  2  0  0  0  0
 24 26  2  0  0  0  0
 24 27  1  0  0  0  0
 26 28  1  0  0  0  0
 27 29  2  3  0  0  0
 28 30  2  0  0  0  0
 29 32  1  0  0  0  0
 30 31  1  0  0  0  0
 30 33  1  0  0  0  0
M  END
$$$$

 OpenBabel10082411353D

 36 43  0  0  0  0  0  0  0  0999 V2000
    8.0806    9.0240  -12.7589 C   0  0  0  0  0  0  0  0  0  0  0  0
    8.6514    7.8645  -12.2948 C   0  0  0  0  0  0  0  0  0  0  0  0
    9.9575    7.9974  -11.8426 C   0  0  0  0  0  0  0  0  0  0  0  0
   10.7657    6.8667  -11.6050 C   0  0  1  0  0  0  0  0  0  0  0  0
   10.7682    5.9590  -12.8271 C   0  0  0  0  0  0  0  0  0  0  0  0
   12.1553    7.3846  -11.2315 C   0  0  0  0  0  0  0  0  0  0  0  0
    8.0676    6.6451  -12.2974 C   0  0  0  0  0  0  0  0  0  0  0  0
   10.1892    6.1240  -10.3860 C   0  0  0  0  0  0  0  0  0  0  0  0
   11.8375    5.4373  -13.3240 O   0  0  0  0  0  0  0  0  0  0  0  0
    8.6785    5.4761  -13.0273 C   0  0  1  0  0  0  0  0  0  0  0  0
    9.1969    5.2405  -10.4969 C   0  0  1  0  0  0  0  0  0  0  0  0
    7.2213    6.2210  -11.3074 C   0  0  0  0  0  0  0  0  0  0  0  0
   12.5590    7.6872   -9.9896 C   0  0  0  0  0  0  0  0  0  0  0  0
    9.7633    5.0333  -12.9720 C   0  0  1  0  0  0  0  0  0  0  0  0
   10.0661    4.0167  -14.0373 N   0  0  0  0  0  0  0  0  0  0  0  0
   13.6906    8.3004   -9.6233 O   0  0  0  0  0  0  0  0  0  0  0  0
    7.6357    4.5123  -12.6317 C   0  0  2  0  0  0  0  0  0  0  0  0
    6.8831    4.9171  -11.7031 C   0  0  0  0  0  0  0  0  0  0  0  0
   10.5937    6.6967   -9.1779 C   0  0  0  0  0  0  0  0  0  0  0  0
    9.5087    4.3263  -11.6925 C   0  0  2  0  0  0  0  0  0  0  0  0
   11.6359    7.4449   -8.9125 C   0  0  0  0  0  0  0  0  0  0  0  0
   11.9716    7.9159   -7.6200 C   0  0  0  0  0  0  0  0  0  0  0  0
    8.4648    3.6122  -12.2840 C   0  0  2  0  0  0  0  0  0  0  0  0
    9.3128    4.5571   -9.1689 C   0  0  0  0  0  0  0  0  0  0  0  0
   10.9557    7.6369   -6.5929 C   0  0  0  0  0  0  0  0  0  0  0  0
    9.6490    2.8108  -13.7776 C   0  0  0  0  0  0  0  0  0  0  0  0
   10.2419    1.7839  -14.4904 O   0  0  0  0  0  0  0  0  0  0  0  0
    9.8235    6.3429   -8.0308 C   0  0  2  0  0  0  0  0  0  0  0  0
    8.5421    2.5419  -13.1600 C   0  0  0  0  0  0  0  0  0  0  0  0
   10.0139    6.8647   -6.7816 C   0  0  0  0  0  0  0  0  0  0  0  0
   11.3672    8.3499   -5.0541 S   0  0  0  0  0  0  0  0  0  0  0  0
    8.6597    3.2057   -9.1630 O   0  0  0  0  0  0  0  0  0  0  0  0
    9.1487    5.1021   -7.9990 N   0  0  0  0  0  0  0  0  0  0  0  0
   12.2751    7.5458   -4.4389 O   0  0  0  0  0  0  0  0  0  0  0  0
   10.3149    8.8618   -4.3297 O   0  0  0  0  0  0  0  0  0  0  0  0
   12.1930    9.8766   -5.5266 N   0  0  0  0  0  0  0  0  0  0  0  0
  1  2  1  0  0  0  0
  2  3  1  0  0  0  0
  2  7  2  0  0  0  0
  4  3  1  6  0  0  0
  4  5  1  0  0  0  0
  4  6  1  0  0  0  0
  4  8  1  0  0  0  0
  5  9  2  0  0  0  0
  6 13  1  0  0  0  0
  7 12  1  0  0  0  0
  8 19  2  0  0  0  0
 10  7  1  1  0  0  0
 10 14  1  0  0  0  0
 10 17  1  0  0  0  0
 11  8  1  1  0  0  0
 11 20  1  0  0  0  0
 11 24  1  0  0  0  0
 12 18  1  0  0  0  0
 13 16  2  0  0  0  0
 13 21  1  0  0  0  0
 14  5  1  1  0  0  0
 14 15  1  0  0  0  0
 14 20  1  0  0  0  0
 15 26  1  0  0  0  0
 17 18  1  1  0  0  0
 17 23  1  0  0  0  0
 19 21  1  0  0  0  0
 19 28  1  0  0  0  0
 20 23  1  0  0  0  0
 21 22  2  0  0  0  0
 22 25  1  0  0  0  0
 23 29  1  0  0  0  0
 24 32  2  0  0  0  0
 24 33  1  0  0  0  0
 25 30  2  0  0  0  0
 25 31  1  0  0  0  0
 26 27  2  0  0  0  0
 26 29  1  0  0  0  0
 28 30  1  0  0  0  0
 28 33  1  0  0  0  0
 31 34  2  0  0  0  0
 31 35  2  0  0  0  0
 31 36  1  0  0  0  0
M  END
$$$$

 OpenBabel10082411353D

 36 40  0  0  0  0  0  0  0  0999 V2000
   11.6836    6.0105   -4.8831 C   0  0  0  0  0  0  0  0  0  0  0  0
   11.1291    7.0732   -5.4395 C   0  0  0  0  0  0  0  0  0  0  0  0
   10.6954    7.0156   -6.8073 C   0  0  0  0  0  0  0  0  0  0  0  0
   10.2502    8.1187   -7.5536 C   0  0  2  0  0  0  0  0  0  0  0  0
   11.1205    8.4712   -4.9629 C   0  0  0  0  0  0  0  0  0  0  0  0
   10.8655    8.3511   -8.7960 C   0  0  0  0  0  0  0  0  0  0  0  0
   10.2922    7.8843   -9.9985 C   0  0  0  0  0  0  0  0  0  0  0  0
   10.4654    9.6993   -5.6120 C   0  0  0  0  0  0  0  0  0  0  0  0
   10.3510    9.5971   -7.0014 C   0  0  0  0  0  0  0  0  0  0  0  0
   12.2462    6.3351   -3.5020 C   0  0  0  0  0  0  0  0  0  0  0  0
   11.0471    7.5309  -11.1063 C   0  0  0  0  0  0  0  0  0  0  0  0
   11.7288    8.6923   -3.6518 C   0  0  0  0  0  0  0  0  0  0  0  0
   12.3991    7.7501  -11.1145 C   0  0  0  0  0  0  0  0  0  0  0  0
   12.3738    7.7580   -2.9599 C   0  0  0  0  0  0  0  0  0  0  0  0
   13.1285    8.5075  -10.1661 O   0  0  0  0  0  0  0  0  0  0  0  0
    9.0407    7.3775  -10.0973 N   0  0  0  0  0  0  0  0  0  0  0  0
    8.9787    6.9473  -11.4664 N   0  0  0  0  0  0  0  0  0  0  0  0
   13.1012    7.4459  -12.3707 C   0  0  0  0  0  0  0  0  0  0  0  0
   12.2395    6.9724  -13.2444 C   0  0  0  0  0  0  0  0  0  0  0  0
   10.2768    7.0170  -11.9799 C   0  0  0  0  0  0  0  0  0  0  0  0
   12.9237    6.5822  -14.5759 O   0  0  0  0  0  0  0  0  0  0  0  0
   10.8906    6.6526  -13.2252 C   0  0  0  0  0  0  0  0  0  0  0  0
   12.2396    6.1290  -15.6916 C   0  0  0  0  0  0  0  0  0  0  0  0
    7.7368    6.4514  -12.0707 C   0  0  0  0  0  0  0  0  0  0  0  0
    7.1353    7.2872  -12.8105 C   0  0  0  0  0  0  0  0  0  0  0  0
    7.6622    5.0135  -12.1225 C   0  0  0  0  0  0  0  0  0  0  0  0
   12.5092    4.6950  -15.8147 C   0  0  0  0  0  0  0  0  0  0  0  0
    5.9403    6.5840  -13.2897 C   0  0  0  0  0  0  0  0  0  0  0  0
   11.2738    3.8422  -15.5220 N   0  0  0  0  0  0  0  0  0  0  0  0
    8.7139    4.1736  -11.4601 C   0  0  0  0  0  0  0  0  0  0  0  0
    6.6269    4.4744  -12.6955 C   0  0  0  0  0  0  0  0  0  0  0  0
    9.4620    3.2890  -12.1895 O   0  0  0  0  0  0  0  0  0  0  0  0
    5.7480    5.3068  -13.3143 C   0  0  0  0  0  0  0  0  0  0  0  0
   11.4370    2.8261  -14.7145 C   0  0  0  0  0  0  0  0  0  0  0  0
   10.5883    1.7423  -14.8782 C   0  0  0  0  0  0  0  0  0  0  0  0
    9.5753    1.5003  -13.9108 O   0  0  0  0  0  0  0  0  0  0  0  0
  1  2  1  0  0  0  0
  1 10  2  0  0  0  0
  2  3  1  0  0  0  0
  2  5  2  0  0  0  0
  3  4  1  0  0  0  0
  4  6  1  6  0  0  0
  4  9  1  0  0  0  0
  5  8  1  0  0  0  0
  5 12  1  0  0  0  0
  6  7  1  0  0  0  0
  7 11  1  0  0  0  0
  7 16  2  0  0  0  0
  8  9  1  0  0  0  0
 10 14  1  0  0  0  0
 11 13  2  0  0  0  0
 11 20  1  0  0  0  0
 12 14  2  0  0  0  0
 13 15  1  0  0  0  0
 13 18  1  0  0  0  0
 16 17  1  0  0  0  0
 17 20  1  0  0  0  0
 17 24  1  0  0  0  0
 18 19  2  0  0  0  0
 19 21  1  0  0  0  0
 19 22  1  0  0  0  0
 20 22  2  0  0  0  0
 21 23  1  0  0  0  0
 23 27  1  0  0  0  0
 24 25  2  0  0  0  0
 24 26  1  0  0  0  0
 25 28  1  0  0  0  0
 26 30  1  0  0  0  0
 26 31  2  0  0  0  0
 27 29  1  0  0  0  0
 28 33  2  0  0  0  0
 29 34  1  0  0  0  0
 30 32  1  0  0  0  0
 31 33  1  0  0  0  0
 34 35  1  0  0  0  0
 35 36  1  0  0  0  0
M  END
$$$$

 OpenBabel10082411353D

 36 42  0  0  0  0  0  0  0  0999 V2000
   12.7863    7.8241  -14.2109 C   0  0  0  0  0  0  0  0  0  0  0  0
   12.4233    7.7158  -13.0289 C   0  0  0  0  0  0  0  0  0  0  0  0
   11.3194    6.8571  -12.8028 C   0  0  0  0  0  0  0  0  0  0  0  0
   12.3150    7.2021  -15.3582 C   0  0  0  0  0  0  0  0  0  0  0  0
   11.2733    6.2739  -15.1502 C   0  0  0  0  0  0  0  0  0  0  0  0
   10.8099    6.0126  -13.8600 C   0  0  0  0  0  0  0  0  0  0  0  0
    9.6782    5.1428  -13.6488 C   0  0  0  0  0  0  0  0  0  0  0  0
    8.5753    5.3880  -12.9589 N   0  0  0  0  0  0  0  0  0  0  0  0
    8.3226    6.7011  -12.3862 C   0  0  0  0  0  0  0  0  0  0  0  0
    9.8502    3.8578  -14.0728 C   0  0  0  0  0  0  0  0  0  0  0  0
    7.3864    7.4720  -13.0530 C   0  0  0  0  0  0  0  0  0  0  0  0
    6.2412    7.8486  -12.2599 C   0  0  0  0  0  0  0  0  0  0  0  0
    7.6425    4.4186  -12.7943 C   0  0  0  0  0  0  0  0  0  0  0  0
   11.0297    3.2482  -14.8053 C   0  0  0  0  0  0  0  0  0  0  0  0
    8.6802    2.8955  -13.7960 C   0  0  0  0  0  0  0  0  0  0  0  0
    8.8565    1.5917  -14.3582 O   0  0  0  0  0  0  0  0  0  0  0  0
    7.6903    3.2226  -13.1994 N   0  0  0  0  0  0  0  0  0  0  0  0
    6.5724    2.3444  -12.8378 C   0  0  0  0  0  0  0  0  0  0  0  0
    9.0225    7.0353  -11.3259 C   0  0  0  0  0  0  0  0  0  0  0  0
    6.2405    4.8489  -12.4515 C   0  0  0  0  0  0  0  0  0  0  0  0
   10.5875    7.0617  -11.5321 C   0  0  0  0  0  0  0  0  0  0  0  0
   11.0960    7.6093  -10.4100 C   0  0  0  0  0  0  0  0  0  0  0  0
    8.4039    7.3336  -10.1102 C   0  0  0  0  0  0  0  0  0  0  0  0
   10.6086    7.8156   -9.1888 C   0  0  0  0  0  0  0  0  0  0  0  0
    9.3113    7.5527   -9.2022 C   0  0  0  0  0  0  0  0  0  0  0  0
    5.5868    3.4174  -12.3561 C   0  0  0  0  0  0  0  0  0  0  0  0
    8.7252    7.9330   -7.6242 C   0  0  0  0  0  0  0  0  0  0  0  0
   11.1859    8.0862   -7.9601 C   0  0  0  0  0  0  0  0  0  0  0  0
   12.7495    8.2704   -8.0174 C   0  0  0  0  0  0  0  0  0  0  0  0
   10.4493    8.2542   -6.7750 C   0  0  2  0  0  0  0  0  0  0  0  0
    9.2142    8.3462   -6.7539 C   0  0  0  0  0  0  0  0  0  0  0  0
   11.4483    9.0676   -5.7294 C   0  0  2  0  0  0  0  0  0  0  0  0
   10.5479    6.9328   -5.7137 C   0  0  0  0  0  0  0  0  0  0  0  0
   11.5948    8.6095   -4.3991 C   0  0  0  0  0  0  0  0  0  0  0  0
   10.8878   10.5038   -5.5996 C   0  0  0  0  0  0  0  0  0  0  0  0
   11.3334    7.1885   -4.4384 C   0  0  0  0  0  0  0  0  0  0  0  0
  1  2  2  0  0  0  0
  1  4  1  0  0  0  0
  2  3  1  0  0  0  0
  3  6  2  0  0  0  0
  3 21  1  0  0  0  0
  4  5  2  0  0  0  0
  5  6  1  0  0  0  0
  6  7  1  0  0  0  0
  7  8  1  0  0  0  0
  7 10  2  0  0  0  0
  8  9  1  0  0  0  0
  8 13  1  0  0  0  0
  9 11  1  0  0  0  0
  9 19  2  0  0  0  0
 10 14  1  0  0  0  0
 10 15  1  0  0  0  0
 11 12  1  0  0  0  0
 13 17  1  0  0  0  0
 13 20  2  0  0  0  0
 15 16  2  0  0  0  0
 15 17  1  0  0  0  0
 17 18  1  0  0  0  0
 18 26  2  0  0  0  0
 19 21  1  0  0  0  0
 19 23  1  0  0  0  0
 20 26  1  0  0  0  0
 21 22  2  0  0  0  0
 22 24  1  0  0  0  0
 23 25  2  0  0  0  0
 24 25  1  0  0  0  0
 24 28  2  0  0  0  0
 25 27  1  0  0  0  0
 27 31  2  0  0  0  0
 28 29  1  0  0  0  0
 28 30  1  0  0  0  0
 30 31  1  6  0  0  0
 30 32  1  0  0  0  0
 30 33  1  0  0  0  0
 32 34  1  0  0  0  0
 32 35  1  1  0  0  0
 33 36  1  0  0  0  0
 34 36  1  0  0  0  0
M  END
$$$$

 OpenBabel10082411353D

 36 41  0  0  0  0  0  0  0  0999 V2000
   11.6836    6.0105   -4.8831 C   0  0  0  0  0  0  0  0  0  0  0  0
   11.1291    7.0732   -5.4395 C   0  0  0  0  0  0  0  0  0  0  0  0
   10.6954    7.0156   -6.8073 C   0  0  0  0  0  0  0  0  0  0  0  0
   10.2502    8.1187   -7.5536 C   0  0  2  0  0  0  0  0  0  0  0  0
   11.1205    8.4712   -4.9629 C   0  0  0  0  0  0  0  0  0  0  0  0
   10.8655    8.3511   -8.7960 C   0  0  0  0  0  0  0  0  0  0  0  0
   10.2922    7.8843   -9.9985 C   0  0  0  0  0  0  0  0  0  0  0  0
   10.4654    9.6993   -5.6120 C   0  0  0  0  0  0  0  0  0  0  0  0
   10.3510    9.5971   -7.0014 C   0  0  0  0  0  0  0  0  0  0  0  0
   12.2462    6.3351   -3.5020 C   0  0  0  0  0  0  0  0  0  0  0  0
   11.0471    7.5309  -11.1063 C   0  0  0  0  0  0  0  0  0  0  0  0
   11.7288    8.6923   -3.6518 C   0  0  0  0  0  0  0  0  0  0  0  0
   12.3991    7.7501  -11.1145 C   0  0  0  0  0  0  0  0  0  0  0  0
   12.3738    7.7580   -2.9599 C   0  0  0  0  0  0  0  0  0  0  0  0
   13.1285    8.5075  -10.1661 O   0  0  0  0  0  0  0  0  0  0  0  0
    9.0407    7.3775  -10.0973 N   0  0  0  0  0  0  0  0  0  0  0  0
    8.9787    6.9473  -11.4664 N   0  0  0  0  0  0  0  0  0  0  0  0
   13.1012    7.4459  -12.3707 C   0  0  0  0  0  0  0  0  0  0  0  0
   12.2395    6.9724  -13.2444 C   0  0  0  0  0  0  0  0  0  0  0  0
   10.2768    7.0170  -11.9799 C   0  0  0  0  0  0  0  0  0  0  0  0
   12.9237    6.5822  -14.5759 O   0  0  0  0  0  0  0  0  0  0  0  0
   10.8906    6.6526  -13.2252 C   0  0  0  0  0  0  0  0  0  0  0  0
   12.2396    6.1290  -15.6916 C   0  0  0  0  0  0  0  0  0  0  0  0
    7.7368    6.4514  -12.0707 C   0  0  0  0  0  0  0  0  0  0  0  0
    7.1353    7.2872  -12.8105 C   0  0  0  0  0  0  0  0  0  0  0  0
    7.6622    5.0135  -12.1225 C   0  0  0  0  0  0  0  0  0  0  0  0
   12.5092    4.6950  -15.8147 C   0  0  0  0  0  0  0  0  0  0  0  0
    5.9403    6.5840  -13.2897 C   0  0  0  0  0  0  0  0  0  0  0  0
   11.2738    3.8422  -15.5220 N   0  0  0  0  0  0  0  0  0  0  0  0
    8.7139    4.1736  -11.4601 F   0  0  0  0  0  0  0  0  0  0  0  0
    5.8691    5.2393  -13.1405 C   0  0  0  0  0  0  0  0  0  0  0  0
    6.7968    4.4683  -12.5533 C   0  0  0  0  0  0  0  0  0  0  0  0
   11.4457    2.6057  -15.2091 C   0  0  0  0  0  0  0  0  0  0  0  0
   10.2550    3.9907  -16.4873 C   0  0  0  0  0  0  0  0  0  0  0  0
   10.3872    1.7928  -15.6476 C   0  0  0  0  0  0  0  0  0  0  0  0
    9.3124    2.7253  -16.1399 C   0  0  0  0  0  0  0  0  0  0  0  0
  1  2  1  0  0  0  0
  1 10  2  0  0  0  0
  2  3  1  0  0  0  0
  2  5  2  0  0  0  0
  3  4  1  0  0  0  0
  4  6  1  6  0  0  0
  4  9  1  0  0  0  0
  5  8  1  0  0  0  0
  5 12  1  0  0  0  0
  6  7  1  0  0  0  0
  7 11  1  0  0  0  0
  7 16  2  0  0  0  0
  8  9  1  0  0  0  0
 10 14  1  0  0  0  0
 11 13  2  0  0  0  0
 11 20  1  0  0  0  0
 12 14  2  0  0  0  0
 13 15  1  0  0  0  0
 13 18  1  0  0  0  0
 16 17  1  0  0  0  0
 17 20  1  0  0  0  0
 17 24  1  0  0  0  0
 18 19  2  0  0  0  0
 19 21  1  0  0  0  0
 19 22  1  0  0  0  0
 20 22  2  0  0  0  0
 21 23  1  0  0  0  0
 23 27  1  0  0  0  0
 24 25  2  0  0  0  0
 24 26  1  0  0  0  0
 25 28  1  0  0  0  0
 26 30  1  0  0  0  0
 26 32  2  0  0  0  0
 27 29  1  0  0  0  0
 28 31  2  0  0  0  0
 29 33  1  0  0  0  0
 29 34  1  0  0  0  0
 31 32  1  0  0  0  0
 33 35  1  0  0  0  0
 34 36  1  0  0  0  0
 35 36  1  0  0  0  0
M  END
$$$$

 OpenBabel10082411353D

 36 46  0  0  0  0  0  0  0  0999 V2000
    8.0806    9.0240  -12.7589 C   0  0  0  0  0  0  0  0  0  0  0  0
    8.6514    7.8645  -12.2948 C   0  0  0  0  0  0  0  0  0  0  0  0
    9.9575    7.9974  -11.8426 C   0  0  0  0  0  0  0  0  0  0  0  0
   10.7657    6.8667  -11.6050 C   0  0  1  0  0  0  0  0  0  0  0  0
   10.7682    5.9590  -12.8271 C   0  0  0  0  0  0  0  0  0  0  0  0
   12.1553    7.3846  -11.2315 C   0  0  0  0  0  0  0  0  0  0  0  0
    8.0676    6.6451  -12.2974 C   0  0  0  0  0  0  0  0  0  0  0  0
   10.1892    6.1240  -10.3860 C   0  0  0  0  0  0  0  0  0  0  0  0
   11.8375    5.4373  -13.3240 O   0  0  0  0  0  0  0  0  0  0  0  0
    8.6785    5.4761  -13.0273 C   0  0  1  0  0  0  0  0  0  0  0  0
    9.1969    5.2405  -10.4969 C   0  0  1  0  0  0  0  0  0  0  0  0
    7.2213    6.2210  -11.3074 C   0  0  1  0  0  0  0  0  0  0  0  0
   12.5590    7.6872   -9.9896 C   0  0  0  0  0  0  0  0  0  0  0  0
    9.7633    5.0333  -12.9720 C   0  0  1  0  0  0  0  0  0  0  0  0
   10.0661    4.0167  -14.0373 N   0  0  0  0  0  0  0  0  0  0  0  0
   13.6906    8.3004   -9.6233 O   0  0  0  0  0  0  0  0  0  0  0  0
    7.6357    4.5123  -12.6317 C   0  0  2  0  0  0  0  0  0  0  0  0
    6.8831    4.9171  -11.7031 C   0  0  1  0  0  0  0  0  0  0  0  0
   10.5937    6.6967   -9.1779 C   0  0  0  0  0  0  0  0  0  0  0  0
    9.5087    4.3263  -11.6925 C   0  0  2  0  0  0  0  0  0  0  0  0
   11.6359    7.4449   -8.9125 C   0  0  0  0  0  0  0  0  0  0  0  0
   11.9716    7.9159   -7.6200 C   0  0  0  0  0  0  0  0  0  0  0  0
    8.4648    3.6122  -12.2840 C   0  0  2  0  0  0  0  0  0  0  0  0
    9.3128    4.5571   -9.1689 C   0  0  0  0  0  0  0  0  0  0  0  0
   10.9557    7.6369   -6.5929 C   0  0  0  0  0  0  0  0  0  0  0  0
    9.6490    2.8108  -13.7776 C   0  0  1  0  0  0  0  0  0  0  0  0
    9.6716    6.1981   -8.0224 C   0  0  2  0  0  0  0  0  0  0  0  0
    8.5511    2.5400  -13.1402 C   0  0  0  0  0  0  0  0  0  0  0  0
    9.7877    2.0302  -15.0383 O   0  0  0  0  0  0  0  0  0  0  0  0
   10.2949    6.3957   -6.8142 C   0  0  0  0  0  0  0  0  0  0  0  0
   11.5442    7.8028   -5.1770 C   0  0  0  0  0  0  0  0  0  0  0  0
    9.3662    4.9454   -8.1688 C   0  0  0  0  0  0  0  0  0  0  0  0
    9.9825    8.6746   -6.2053 C   0  0  0  0  0  0  0  0  0  0  0  0
   11.8670    9.1982   -4.7195 C   0  0  0  0  0  0  0  0  0  0  0  0
    7.9329    5.6389  -10.4980 C   0  0  1  0  0  0  0  0  0  0  0  0
   10.5056    9.8263   -5.3717 C   0  0  0  0  0  0  0  0  0  0  0  0
  1  2  1  0  0  0  0
  2  3  1  0  0  0  0
  2  7  2  0  0  0  0
  4  3  1  6  0  0  0
  4  5  1  0  0  0  0
  4  6  1  0  0  0  0
  4  8  1  0  0  0  0
  5  9  2  0  0  0  0
  6 13  1  0  0  0  0
  8 11  1  0  0  0  0
  8 19  2  0  0  0  0
 10  7  1  1  0  0  0
 10 14  1  0  0  0  0
 10 17  1  0  0  0  0
 11 20  1  0  0  0  0
 11 24  1  1  0  0  0
 11 35  1  0  0  0  0
 12  7  1  6  0  0  0
 12 18  1  0  0  0  0
 12 35  1  0  0  0  0
 13 16  2  0  0  0  0
 13 21  1  0  0  0  0
 14  5  1  1  0  0  0
 14 15  1  0  0  0  0
 14 20  1  0  0  0  0
 15 26  1  0  0  0  0
 17 18  1  0  0  0  0
 17 23  1  0  0  0  0
 18 35  1  0  0  0  0
 19 21  1  0  0  0  0
 19 27  1  0  0  0  0
 20 23  1  0  0  0  0
 21 22  2  0  0  0  0
 22 25  1  0  0  0  0
 23 28  1  0  0  0  0
 24 32  2  0  0  0  0
 25 30  1  0  0  0  0
 25 31  1  0  0  0  0
 25 33  1  0  0  0  0
 26 28  1  0  0  0  0
 26 29  1  0  0  0  0
 27 30  1  0  0  0  0
 27 32  1  0  0  0  0
 31 34  1  0  0  0  0
 33 36  1  0  0  0  0
 34 36  1  0  0  0  0
M  END
$$$$

 OpenBabel10082411353D

 36 43  0  0  0  0  0  0  0  0999 V2000
    8.0806    9.0240  -12.7589 C   0  0  0  0  0  0  0  0  0  0  0  0
    8.6514    7.8645  -12.2948 C   0  0  0  0  0  0  0  0  0  0  0  0
    9.9575    7.9974  -11.8426 C   0  0  0  0  0  0  0  0  0  0  0  0
   10.7657    6.8667  -11.6050 C   0  0  1  0  0  0  0  0  0  0  0  0
   10.7682    5.9590  -12.8271 C   0  0  0  0  0  0  0  0  0  0  0  0
   12.1553    7.3846  -11.2315 C   0  0  0  0  0  0  0  0  0  0  0  0
    8.0676    6.6451  -12.2974 C   0  0  0  0  0  0  0  0  0  0  0  0
   10.1892    6.1240  -10.3860 C   0  0  0  0  0  0  0  0  0  0  0  0
   11.8375    5.4373  -13.3240 O   0  0  0  0  0  0  0  0  0  0  0  0
    8.6785    5.4761  -13.0273 C   0  0  1  0  0  0  0  0  0  0  0  0
    9.1969    5.2405  -10.4969 C   0  0  1  0  0  0  0  0  0  0  0  0
    7.2213    6.2210  -11.3074 C   0  0  0  0  0  0  0  0  0  0  0  0
   12.5590    7.6872   -9.9896 C   0  0  0  0  0  0  0  0  0  0  0  0
    9.7633    5.0333  -12.9720 C   0  0  1  0  0  0  0  0  0  0  0  0
   10.0661    4.0167  -14.0373 N   0  0  0  0  0  0  0  0  0  0  0  0
   13.6906    8.3004   -9.6233 O   0  0  0  0  0  0  0  0  0  0  0  0
    7.6357    4.5123  -12.6317 C   0  0  2  0  0  0  0  0  0  0  0  0
    6.8831    4.9171  -11.7031 C   0  0  0  0  0  0  0  0  0  0  0  0
   10.5937    6.6967   -9.1779 C   0  0  0  0  0  0  0  0  0  0  0  0
    9.5087    4.3263  -11.6925 C   0  0  2  0  0  0  0  0  0  0  0  0
   11.6359    7.4449   -8.9125 C   0  0  0  0  0  0  0  0  0  0  0  0
   11.9716    7.9159   -7.6200 C   0  0  0  0  0  0  0  0  0  0  0  0
    8.4648    3.6122  -12.2840 C   0  0  2  0  0  0  0  0  0  0  0  0
    9.3128    4.5571   -9.1689 C   0  0  0  0  0  0  0  0  0  0  0  0
   10.9557    7.6369   -6.5929 C   0  0  1  0  0  0  0  0  0  0  0  0
    9.6490    2.8108  -13.7776 C   0  0  1  0  0  0  0  0  0  0  0  0
    9.6716    6.1981   -8.0224 C   0  0  2  0  0  0  0  0  0  0  0  0
    8.5511    2.5400  -13.1402 C   0  0  0  0  0  0  0  0  0  0  0  0
    9.7877    2.0302  -15.0383 O   0  0  0  0  0  0  0  0  0  0  0  0
   10.2949    6.3957   -6.8142 C   0  0  0  0  0  0  0  0  0  0  0  0
    8.7552    3.1757   -9.1739 O   0  0  0  0  0  0  0  0  0  0  0  0
   11.5250    7.6272   -5.2335 C   0  0  0  0  0  0  0  0  0  0  0  0
    9.3672    4.9467   -8.0907 C   0  0  0  0  0  0  0  0  0  0  0  0
   11.6174    6.6480   -4.5284 O   0  0  0  0  0  0  0  0  0  0  0  0
    9.9490    8.8867   -6.6561 C   0  0  0  0  0  0  0  0  0  0  0  0
   12.4807    8.6813   -4.9471 O   0  0  0  0  0  0  0  0  0  0  0  0
  1  2  1  0  0  0  0
  2  3  1  0  0  0  0
  2  7  2  0  0  0  0
  4  3  1  6  0  0  0
  4  5  1  0  0  0  0
  4  6  1  0  0  0  0
  4  8  1  0  0  0  0
  5  9  2  0  0  0  0
  6 13  1  0  0  0  0
  7 12  1  0  0  0  0
  8 19  2  0  0  0  0
 10  7  1  1  0  0  0
 10 14  1  0  0  0  0
 10 17  1  0  0  0  0
 11  8  1  1  0  0  0
 11 20  1  0  0  0  0
 11 24  1  0  0  0  0
 12 18  1  0  0  0  0
 13 16  2  0  0  0  0
 13 21  1  0  0  0  0
 14  5  1  1  0  0  0
 14 15  1  0  0  0  0
 14 20  1  0  0  0  0
 15 26  1  0  0  0  0
 17 18  1  1  0  0  0
 17 23  1  0  0  0  0
 19 21  1  0  0  0  0
 19 27  1  0  0  0  0
 20 23  1  0  0  0  0
 21 22  2  0  0  0  0
 22 25  1  0  0  0  0
 23 28  1  0  0  0  0
 24 31  2  0  0  0  0
 24 33  1  0  0  0  0
 25 30  1  0  0  0  0
 25 32  1  0  0  0  0
 25 35  1  0  0  0  0
 26 28  1  0  0  0  0
 26 29  1  0  0  0  0
 27 30  1  0  0  0  0
 27 33  1  0  0  0  0
 32 34  1  0  0  0  0
 32 36  2  0  0  0  0
M  END
$$$$

 OpenBabel10082411353D

 36 43  0  0  0  0  0  0  0  0999 V2000
   12.7863    7.8241  -14.2109 C   0  0  0  0  0  0  0  0  0  0  0  0
   12.4233    7.7158  -13.0289 C   0  0  0  0  0  0  0  0  0  0  0  0
   11.3194    6.8571  -12.8028 C   0  0  0  0  0  0  0  0  0  0  0  0
   12.3150    7.2021  -15.3582 C   0  0  0  0  0  0  0  0  0  0  0  0
   11.2733    6.2739  -15.1502 C   0  0  0  0  0  0  0  0  0  0  0  0
   10.8099    6.0126  -13.8600 C   0  0  0  0  0  0  0  0  0  0  0  0
    9.6782    5.1428  -13.6488 C   0  0  0  0  0  0  0  0  0  0  0  0
    8.5753    5.3880  -12.9589 N   0  0  0  0  0  0  0  0  0  0  0  0
    8.3226    6.7011  -12.3862 C   0  0  0  0  0  0  0  0  0  0  0  0
    9.8502    3.8578  -14.0728 C   0  0  0  0  0  0  0  0  0  0  0  0
    7.3864    7.4720  -13.0530 C   0  0  0  0  0  0  0  0  0  0  0  0
    6.2412    7.8486  -12.2599 C   0  0  0  0  0  0  0  0  0  0  0  0
    7.6425    4.4186  -12.7943 C   0  0  0  0  0  0  0  0  0  0  0  0
   11.0297    3.2482  -14.8053 C   0  0  0  0  0  0  0  0  0  0  0  0
    8.6802    2.8955  -13.7960 C   0  0  0  0  0  0  0  0  0  0  0  0
    8.8565    1.5917  -14.3582 O   0  0  0  0  0  0  0  0  0  0  0  0
    7.6903    3.2226  -13.1994 N   0  0  0  0  0  0  0  0  0  0  0  0
    6.5724    2.3444  -12.8378 C   0  0  0  0  0  0  0  0  0  0  0  0
    9.0225    7.0353  -11.3259 C   0  0  0  0  0  0  0  0  0  0  0  0
    6.2405    4.8489  -12.4515 C   0  0  0  0  0  0  0  0  0  0  0  0
   10.5875    7.0617  -11.5321 C   0  0  0  0  0  0  0  0  0  0  0  0
   11.0960    7.6093  -10.4100 C   0  0  0  0  0  0  0  0  0  0  0  0
    8.4039    7.3336  -10.1102 C   0  0  0  0  0  0  0  0  0  0  0  0
    5.5911    3.3517  -12.3508 C   0  0  0  0  0  0  0  0  0  0  0  0
   12.6259    7.6530  -10.3901 C   0  0  0  0  0  0  0  0  0  0  0  0
   10.4284    7.7784   -9.2128 C   0  0  1  0  0  0  0  0  0  0  0  0
    9.2236    7.5051   -9.0617 C   0  0  2  0  0  0  0  0  0  0  0  0
    8.7145    7.3063   -7.7135 N   0  0  0  0  0  0  0  0  0  0  0  0
   11.0621    7.5242   -7.8430 C   0  0  1  0  0  0  0  0  0  0  0  0
   12.0213    8.4787   -7.3268 C   0  0  0  0  0  0  0  0  0  0  0  0
   13.1241    8.0749  -11.7293 C   0  0  0  0  0  0  0  0  0  0  0  0
    9.9178    7.6308   -6.9884 C   0  0  2  0  0  0  0  0  0  0  0  0
   12.0768    8.3481   -5.8539 C   0  0  1  0  0  0  0  0  0  0  0  0
   12.4785    9.5691   -5.0998 C   0  0  0  0  0  0  0  0  0  0  0  0
   10.1982    7.0314   -5.6704 C   0  0  0  0  0  0  0  0  0  0  0  0
   11.0695    7.9071   -4.8917 C   0  0  0  0  0  0  0  0  0  0  0  0
  1  2  2  0  0  0  0
  1  4  1  0  0  0  0
  2  3  1  0  0  0  0
  2 31  1  0  0  0  0
  3  6  2  0  0  0  0
  3 21  1  0  0  0  0
  4  5  2  0  0  0  0
  5  6  1  0  0  0  0
  6  7  1  0  0  0  0
  7  8  1  0  0  0  0
  7 10  2  0  0  0  0
  8  9  1  0  0  0  0
  8 13  1  0  0  0  0
  9 11  1  0  0  0  0
  9 19  2  0  0  0  0
 10 14  1  0  0  0  0
 10 15  1  0  0  0  0
 11 12  1  0  0  0  0
 13 17  1  0  0  0  0
 13 20  2  0  0  0  0
 15 16  2  0  0  0  0
 15 17  1  0  0  0  0
 17 18  1  0  0  0  0
 18 24  1  0  0  0  0
 19 21  1  0  0  0  0
 19 23  1  0  0  0  0
 20 24  1  0  0  0  0
 21 22  2  0  0  0  0
 22 25  1  0  0  0  0
 25 31  2  0  0  0  0
 26 22  1  6  0  0  0
 26 27  1  0  0  0  0
 26 29  1  0  0  0  0
 27 23  1  6  0  0  0
 27 28  1  0  0  0  0
 28 32  1  0  0  0  0
 29 30  1  1  0  0  0
 29 32  1  0  0  0  0
 30 33  1  0  0  0  0
 32 35  1  1  0  0  0
 33 34  1  1  0  0  0
 33 36  1  0  0  0  0
 35 36  1  0  0  0  0
M  END
$$$$

 OpenBabel10082411353D

 36 40  0  0  0  0  0  0  0  0999 V2000
   11.6836    6.0105   -4.8831 C   0  0  0  0  0  0  0  0  0  0  0  0
   11.1291    7.0732   -5.4395 C   0  0  0  0  0  0  0  0  0  0  0  0
   10.6954    7.0156   -6.8073 C   0  0  0  0  0  0  0  0  0  0  0  0
   10.2502    8.1187   -7.5536 C   0  0  2  0  0  0  0  0  0  0  0  0
   11.1205    8.4712   -4.9629 C   0  0  0  0  0  0  0  0  0  0  0  0
   10.8655    8.3511   -8.7960 C   0  0  0  0  0  0  0  0  0  0  0  0
   10.2922    7.8843   -9.9985 C   0  0  0  0  0  0  0  0  0  0  0  0
   10.4654    9.6993   -5.6120 C   0  0  0  0  0  0  0  0  0  0  0  0
   10.3510    9.5971   -7.0014 C   0  0  0  0  0  0  0  0  0  0  0  0
   12.2462    6.3351   -3.5020 C   0  0  0  0  0  0  0  0  0  0  0  0
   11.0471    7.5309  -11.1063 C   0  0  0  0  0  0  0  0  0  0  0  0
   11.7288    8.6923   -3.6518 C   0  0  0  0  0  0  0  0  0  0  0  0
   12.3991    7.7501  -11.1145 C   0  0  0  0  0  0  0  0  0  0  0  0
   12.3738    7.7580   -2.9599 C   0  0  0  0  0  0  0  0  0  0  0  0
   13.1285    8.5075  -10.1661 O   0  0  0  0  0  0  0  0  0  0  0  0
    9.0407    7.3775  -10.0973 N   0  0  0  0  0  0  0  0  0  0  0  0
    8.9787    6.9473  -11.4664 N   0  0  0  0  0  0  0  0  0  0  0  0
   13.1012    7.4459  -12.3707 C   0  0  0  0  0  0  0  0  0  0  0  0
   12.2395    6.9724  -13.2444 C   0  0  0  0  0  0  0  0  0  0  0  0
   10.2768    7.0170  -11.9799 C   0  0  0  0  0  0  0  0  0  0  0  0
   12.9237    6.5822  -14.5759 O   0  0  0  0  0  0  0  0  0  0  0  0
   10.8906    6.6526  -13.2252 C   0  0  0  0  0  0  0  0  0  0  0  0
   12.2396    6.1290  -15.6916 C   0  0  0  0  0  0  0  0  0  0  0  0
    7.8036    6.1825  -11.9342 C   0  0  0  0  0  0  0  0  0  0  0  0
   12.5015    4.7115  -15.7686 C   0  0  0  0  0  0  0  0  0  0  0  0
    7.1685    6.9992  -12.8245 C   0  0  0  0  0  0  0  0  0  0  0  0
   11.2461    3.8540  -15.4851 C   0  0  0  0  0  0  0  0  0  0  0  0
    7.6237    4.9154  -11.6529 C   0  0  0  0  0  0  0  0  0  0  0  0
    6.6378    4.1960  -12.2267 C   0  0  0  0  0  0  0  0  0  0  0  0
    6.2717    2.7675  -11.9743 C   0  0  0  0  0  0  0  0  0  0  0  0
    6.6569    1.8873  -12.9460 C   0  0  0  0  0  0  0  0  0  0  0  0
    7.3895    8.4597  -13.1785 C   0  0  0  0  0  0  0  0  0  0  0  0
    7.5497    2.2740  -13.9920 C   0  0  0  0  0  0  0  0  0  0  0  0
   11.0042    3.4031  -14.3360 C   0  0  0  0  0  0  0  0  0  0  0  0
    9.8715    2.5744  -14.1105 C   0  0  0  0  0  0  0  0  0  0  0  0
    8.7057    3.0313  -14.3875 C   0  0  0  0  0  0  0  0  0  0  0  0
  1  2  1  0  0  0  0
  1 10  2  0  0  0  0
  2  3  1  0  0  0  0
  2  5  2  0  0  0  0
  3  4  1  0  0  0  0
  4  6  1  6  0  0  0
  4  9  1  0  0  0  0
  5  8  1  0  0  0  0
  5 12  1  0  0  0  0
  6  7  1  0  0  0  0
  7 11  1  0  0  0  0
  7 16  2  0  0  0  0
  8  9  1  0  0  0  0
 10 14  1  0  0  0  0
 11 13  2  0  0  0  0
 11 20  1  0  0  0  0
 12 14  2  0  0  0  0
 13 15  1  0  0  0  0
 13 18  1  0  0  0  0
 16 17  1  0  0  0  0
 17 20  1  0  0  0  0
 17 24  1  0  0  0  0
 18 19  2  0  0  0  0
 19 21  1  0  0  0  0
 19 22  1  0  0  0  0
 20 22  2  0  0  0  0
 21 23  1  0  0  0  0
 23 25  1  0  0  0  0
 24 26  2  3  0  0  0
 24 28  1  0  0  0  0
 25 27  1  0  0  0  0
 26 32  1  0  0  0  0
 27 34  2  0  0  0  0
 28 29  2  0  0  0  0
 29 30  1  0  0  0  0
 30 31  1  0  0  0  0
 31 33  2  0  0  0  0
 33 36  1  0  0  0  0
 34 35  1  0  0  0  0
 35 36  2  0  0  0  0
M  END
$$$$

 OpenBabel10082411353D

 36 41  0  0  0  0  0  0  0  0999 V2000
   11.6836    6.0105   -4.8831 C   0  0  0  0  0  0  0  0  0  0  0  0
   11.1291    7.0732   -5.4395 C   0  0  0  0  0  0  0  0  0  0  0  0
   10.6954    7.0156   -6.8073 C   0  0  0  0  0  0  0  0  0  0  0  0
   10.2502    8.1187   -7.5536 C   0  0  2  0  0  0  0  0  0  0  0  0
   11.1205    8.4712   -4.9629 C   0  0  0  0  0  0  0  0  0  0  0  0
   10.8655    8.3511   -8.7960 C   0  0  0  0  0  0  0  0  0  0  0  0
   10.2922    7.8843   -9.9985 C   0  0  0  0  0  0  0  0  0  0  0  0
   10.4654    9.6993   -5.6120 C   0  0  0  0  0  0  0  0  0  0  0  0
   10.3510    9.5971   -7.0014 C   0  0  0  0  0  0  0  0  0  0  0  0
   12.2462    6.3351   -3.5020 C   0  0  0  0  0  0  0  0  0  0  0  0
   11.0471    7.5309  -11.1063 C   0  0  0  0  0  0  0  0  0  0  0  0
   11.7288    8.6923   -3.6518 C   0  0  0  0  0  0  0  0  0  0  0  0
   12.3991    7.7501  -11.1145 C   0  0  0  0  0  0  0  0  0  0  0  0
   12.3738    7.7580   -2.9599 C   0  0  0  0  0  0  0  0  0  0  0  0
   13.1285    8.5075  -10.1661 O   0  0  0  0  0  0  0  0  0  0  0  0
    9.0407    7.3775  -10.0973 N   0  0  0  0  0  0  0  0  0  0  0  0
    8.9787    6.9473  -11.4664 N   0  0  0  0  0  0  0  0  0  0  0  0
   13.1012    7.4459  -12.3707 C   0  0  0  0  0  0  0  0  0  0  0  0
   12.2395    6.9724  -13.2444 C   0  0  0  0  0  0  0  0  0  0  0  0
   10.2768    7.0170  -11.9799 C   0  0  0  0  0  0  0  0  0  0  0  0
   12.9237    6.5822  -14.5759 O   0  0  0  0  0  0  0  0  0  0  0  0
   10.8906    6.6526  -13.2252 C   0  0  0  0  0  0  0  0  0  0  0  0
   12.2396    6.1290  -15.6916 C   0  0  0  0  0  0  0  0  0  0  0  0
    7.7368    6.4514  -12.0707 C   0  0  0  0  0  0  0  0  0  0  0  0
    7.1353    7.2872  -12.8105 C   0  0  0  0  0  0  0  0  0  0  0  0
    7.6622    5.0135  -12.1225 C   0  0  0  0  0  0  0  0  0  0  0  0
   12.5092    4.6950  -15.8147 C   0  0  0  0  0  0  0  0  0  0  0  0
    5.9403    6.5840  -13.2897 C   0  0  0  0  0  0  0  0  0  0  0  0
   11.2738    3.8422  -15.5220 N   0  0  0  0  0  0  0  0  0  0  0  0
    8.7139    4.1736  -11.4601 C   0  0  0  0  0  0  0  0  0  0  0  0
    5.7546    5.3014  -13.2955 C   0  0  0  0  0  0  0  0  0  0  0  0
   10.5665    3.9988  -14.5162 C   0  0  0  0  0  0  0  0  0  0  0  0
    6.6518    4.4534  -12.6459 C   0  0  0  0  0  0  0  0  0  0  0  0
    9.4912    3.0700  -14.3497 C   0  0  0  0  0  0  0  0  0  0  0  0
   11.2137    2.5060  -16.0520 C   0  0  0  0  0  0  0  0  0  0  0  0
   10.1292    1.8452  -15.4998 C   0  0  0  0  0  0  0  0  0  0  0  0
  1  2  1  0  0  0  0
  1 10  2  0  0  0  0
  2  3  1  0  0  0  0
  2  5  2  0  0  0  0
  3  4  1  0  0  0  0
  4  6  1  6  0  0  0
  4  9  1  0  0  0  0
  5  8  1  0  0  0  0
  5 12  1  0  0  0  0
  6  7  1  0  0  0  0
  7 11  1  0  0  0  0
  7 16  2  0  0  0  0
  8  9  1  0  0  0  0
 10 14  1  0  0  0  0
 11 13  2  0  0  0  0
 11 20  1  0  0  0  0
 12 14  2  0  0  0  0
 13 15  1  0  0  0  0
 13 18  1  0  0  0  0
 16 17  1  0  0  0  0
 17 20  1  0  0  0  0
 17 24  1  0  0  0  0
 18 19  2  0  0  0  0
 19 21  1  0  0  0  0
 19 22  1  0  0  0  0
 20 22  2  0  0  0  0
 21 23  1  0  0  0  0
 23 27  1  0  0  0  0
 24 25  2  0  0  0  0
 24 26  1  0  0  0  0
 25 28  1  0  0  0  0
 26 30  1  0  0  0  0
 26 33  2  0  0  0  0
 27 29  1  0  0  0  0
 28 31  2  0  0  0  0
 29 32  1  0  0  0  0
 29 35  1  0  0  0  0
 31 33  1  0  0  0  0
 32 34  2  0  0  0  0
 34 36  1  0  0  0  0
 35 36  1  0  0  0  0
M  END
$$$$

 OpenBabel10082411353D

 24 27  0  0  0  0  0  0  0  0999 V2000
   10.5338    9.5630   -5.0683 C   0  0  0  0  0  0  0  0  0  0  0  0
   11.6326    9.3232   -4.4343 C   0  0  0  0  0  0  0  0  0  0  0  0
   10.1175    8.4558   -5.9583 O   0  0  0  0  0  0  0  0  0  0  0  0
   11.2137    7.9307   -6.4519 C   0  0  1  0  0  0  0  0  0  0  0  0
   12.3805    8.4362   -5.4668 C   0  0  0  0  0  0  0  0  0  0  0  0
   11.1829    6.4410   -6.3835 C   0  0  0  0  0  0  0  0  0  0  0  0
   11.5307    8.4278   -7.8431 C   0  0  0  0  0  0  0  0  0  0  0  0
   10.9695    7.6928   -8.9182 C   0  0  0  0  0  0  0  0  0  0  0  0
   10.6724    8.2768  -10.0336 C   0  0  0  0  0  0  0  0  0  0  0  0
   10.0385    7.4564  -11.1366 C   0  0  0  0  0  0  0  0  0  0  0  0
   10.1397    6.1099  -11.1838 C   0  0  0  0  0  0  0  0  0  0  0  0
    9.3255    8.2273  -12.2243 C   0  0  0  0  0  0  0  0  0  0  0  0
    8.1145    8.9106  -11.7538 C   0  0  0  0  0  0  0  0  0  0  0  0
   10.4444    5.4278  -10.0118 C   0  0  0  0  0  0  0  0  0  0  0  0
   10.9789    6.1875   -8.8320 C   0  0  0  0  0  0  0  0  0  0  0  0
   11.2250    5.6168   -7.5866 C   0  0  0  0  0  0  0  0  0  0  0  0
    9.5926    5.1489  -12.1900 C   0  0  0  0  0  0  0  0  0  0  0  0
    8.3818    4.7973  -12.4219 C   0  0  0  0  0  0  0  0  0  0  0  0
   10.6536    4.7130  -13.0933 C   0  0  0  0  0  0  0  0  0  0  0  0
    8.0296    3.9055  -13.3975 C   0  0  0  0  0  0  0  0  0  0  0  0
    9.1812    3.4174  -14.2394 C   0  0  0  0  0  0  0  0  0  0  0  0
   10.2972    3.7157  -14.1238 C   0  0  0  0  0  0  0  0  0  0  0  0
    8.7531    2.4270  -15.2309 O   0  0  0  0  0  0  0  0  0  0  0  0
    9.8113    1.9140  -15.9329 C   0  0  0  0  0  0  0  0  0  0  0  0
  1  2  1  0  0  0  0
  1  3  1  0  0  0  0
  2  5  1  0  0  0  0
  3  4  1  0  0  0  0
  4  5  1  1  0  0  0
  4  6  1  0  0  0  0
  4  7  1  0  0  0  0
  6 16  1  0  0  0  0
  7  8  1  0  0  0  0
  8  9  2  0  0  0  0
  8 15  1  0  0  0  0
  9 10  1  0  0  0  0
 10 11  2  0  0  0  0
 10 12  1  0  0  0  0
 11 14  1  0  0  0  0
 11 17  1  0  0  0  0
 12 13  1  0  0  0  0
 14 15  2  0  0  0  0
 15 16  1  0  0  0  0
 17 18  1  0  0  0  0
 17 19  2  0  0  0  0
 18 20  2  0  0  0  0
 19 22  1  0  0  0  0
 20 21  1  0  0  0  0
 21 22  2  0  0  0  0
 21 23  1  0  0  0  0
 23 24  1  0  0  0  0
M  END
$$$$

 OpenBabel10082411353D

 11 11  0  0  0  0  0  0  0  0999 V2000
   11.6849    3.3051  -14.7886 C   0  0  0  0  0  0  0  0  0  0  0  0
   11.9222    4.4917  -14.7896 C   0  0  0  0  0  0  0  0  0  0  0  0
   10.3475    2.8975  -14.7327 C   0  0  0  0  0  0  0  0  0  0  0  0
    9.9836    1.5088  -14.6745 C   0  0  0  0  0  0  0  0  0  0  0  0
   10.4685    0.7445  -15.3652 O   0  0  0  0  0  0  0  0  0  0  0  0
    8.7710    1.3065  -14.1473 N   0  0  0  0  0  0  0  0  0  0  0  0
   11.1261    5.5698  -14.5296 C   0  0  0  0  0  0  0  0  0  0  0  0
    9.4164    3.9389  -14.4284 C   0  0  0  0  0  0  0  0  0  0  0  0
   11.5852    6.9489  -14.4527 C   0  0  0  0  0  0  0  0  0  0  0  0
   12.8260    7.2174  -14.8999 C   0  0  0  0  0  0  0  0  0  0  0  0
    9.7911    5.2734  -14.3305 C   0  0  0  0  0  0  0  0  0  0  0  0
  1  2  2  0  0  0  0
  1  3  1  0  0  0  0
  2  7  1  0  0  0  0
  3  4  1  0  0  0  0
  3  8  2  0  0  0  0
  4  5  2  0  0  0  0
  4  6  1  0  0  0  0
  7  9  1  0  0  0  0
  7 11  2  0  0  0  0
  8 11  1  0  0  0  0
  9 10  2  0  0  0  0
M  END
$$$$

 OpenBabel10082411353D

 36 39  0  0  0  0  0  0  0  0999 V2000
   10.9951    9.9694   -4.9946 C   0  0  0  0  0  0  0  0  0  0  0  0
   11.7938    9.3762   -4.2463 C   0  0  0  0  0  0  0  0  0  0  0  0
   10.8673    9.4548   -6.4276 C   0  0  0  0  0  0  0  0  0  0  0  0
   11.6576    7.9117   -4.2944 C   0  0  0  0  0  0  0  0  0  0  0  0
   10.5498    8.0257   -6.4521 C   0  0  0  0  0  0  0  0  0  0  0  0
   11.4715    7.2752   -5.6166 C   0  0  0  0  0  0  0  0  0  0  0  0
   10.5840    7.5390   -7.9254 C   0  0  0  0  0  0  0  0  0  0  0  0
   11.4612    8.1494   -8.8322 C   0  0  0  0  0  0  0  0  0  0  0  0
   12.6250    8.6294   -8.4338 O   0  0  0  0  0  0  0  0  0  0  0  0
   11.0835    8.4395  -10.0740 O   0  0  0  0  0  0  0  0  0  0  0  0
   11.2938    7.5612  -11.0769 C   0  0  0  0  0  0  0  0  0  0  0  0
   10.1547    7.2525  -11.9492 C   0  0  0  0  0  0  0  0  0  0  0  0
   10.4293    6.5622  -13.1348 C   0  0  0  0  0  0  0  0  0  0  0  0
   11.7295    6.4217  -13.6243 C   0  0  0  0  0  0  0  0  0  0  0  0
    8.8120    7.3918  -11.4649 C   0  0  0  0  0  0  0  0  0  0  0  0
   12.5351    7.8894  -11.6869 C   0  0  0  0  0  0  0  0  0  0  0  0
   13.5778    8.4243  -10.9673 O   0  0  0  0  0  0  0  0  0  0  0  0
    7.7211    7.1761  -12.4323 C   0  0  0  0  0  0  0  0  0  0  0  0
   12.8103    7.0723  -12.8897 C   0  0  0  0  0  0  0  0  0  0  0  0
    7.0543    5.9667  -12.3369 C   0  0  0  0  0  0  0  0  0  0  0  0
    7.2392    8.1844  -13.1320 C   0  0  0  0  0  0  0  0  0  0  0  0
    6.6882    5.3848  -13.5016 O   0  0  0  0  0  0  0  0  0  0  0  0
    6.5103    5.5543  -11.3870 O   0  0  0  0  0  0  0  0  0  0  0  0
    7.4031    4.0506  -13.7852 C   0  0  0  0  0  0  0  0  0  0  0  0
   11.9567    5.7137  -14.8744 C   0  0  0  0  0  0  0  0  0  0  0  0
    8.6219    3.9611  -14.1988 C   0  0  0  0  0  0  0  0  0  0  0  0
   12.1624    6.4252  -15.8904 C   0  0  0  0  0  0  0  0  0  0  0  0
    9.4613    3.0640  -13.5563 C   0  0  0  0  0  0  0  0  0  0  0  0
   12.1556    4.2801  -14.7975 C   0  0  0  0  0  0  0  0  0  0  0  0
   12.3902    5.6468  -17.1373 C   0  0  0  0  0  0  0  0  0  0  0  0
   12.6050    6.4725  -18.3183 C   0  0  0  0  0  0  0  0  0  0  0  0
   11.6103    7.1141  -18.6176 O   0  0  0  0  0  0  0  0  0  0  0  0
   12.4663    4.3131  -17.2640 C   0  0  0  0  0  0  0  0  0  0  0  0
   11.8092    3.4669  -13.6386 C   0  0  0  0  0  0  0  0  0  0  0  0
   12.2857    3.6363  -15.9615 C   0  0  0  0  0  0  0  0  0  0  0  0
   10.5544    2.9483  -13.6360 N   0  0  0  0  0  0  0  0  0  0  0  0
  1  2  1  0  0  0  0
  1  3  1  0  0  0  0
  2  4  1  0  0  0  0
  3  5  1  0  0  0  0
  4  6  1  0  0  0  0
  5  6  1  0  0  0  0
  5  7  1  0  0  0  0
  7  8  1  0  0  0  0
  8  9  2  0  0  0  0
  8 10  1  0  0  0  0
 10 11  1  0  0  0  0
 11 12  1  0  0  0  0
 11 16  2  0  0  0  0
 12 13  2  0  0  0  0
 12 15  1  0  0  0  0
 13 14  1  0  0  0  0
 14 19  2  0  0  0  0
 14 25  1  0  0  0  0
 15 18  1  0  0  0  0
 16 17  1  0  0  0  0
 16 19  1  0  0  0  0
 18 20  1  0  0  0  0
 18 21  2  0  0  0  0
 20 22  1  0  0  0  0
 20 23  2  0  0  0  0
 22 24  1  0  0  0  0
 24 26  1  0  0  0  0
 25 27  2  0  0  0  0
 25 29  1  0  0  0  0
 26 28  1  0  0  0  0
 27 30  1  0  0  0  0
 28 36  2  0  0  0  0
 29 34  1  0  0  0  0
 29 35  2  0  0  0  0
 30 31  1  0  0  0  0
 30 33  2  0  0  0  0
 31 32  1  0  0  0  0
 33 35  1  0  0  0  0
 34 36  1  0  0  0  0
M  END
$$$$

 OpenBabel10082411353D

 36 42  0  0  0  0  0  0  0  0999 V2000
   12.7863    7.8241  -14.2109 C   0  0  0  0  0  0  0  0  0  0  0  0
   12.4233    7.7158  -13.0289 C   0  0  0  0  0  0  0  0  0  0  0  0
   11.3194    6.8571  -12.8028 C   0  0  0  0  0  0  0  0  0  0  0  0
   12.3150    7.2021  -15.3582 C   0  0  0  0  0  0  0  0  0  0  0  0
   11.2733    6.2739  -15.1502 C   0  0  0  0  0  0  0  0  0  0  0  0
   10.8099    6.0126  -13.8600 C   0  0  0  0  0  0  0  0  0  0  0  0
    9.6782    5.1428  -13.6488 C   0  0  0  0  0  0  0  0  0  0  0  0
    8.5753    5.3880  -12.9589 N   0  0  0  0  0  0  0  0  0  0  0  0
    8.3226    6.7011  -12.3862 C   0  0  0  0  0  0  0  0  0  0  0  0
    9.8502    3.8578  -14.0728 C   0  0  0  0  0  0  0  0  0  0  0  0
    7.3864    7.4720  -13.0530 C   0  0  0  0  0  0  0  0  0  0  0  0
    6.2412    7.8486  -12.2599 C   0  0  0  0  0  0  0  0  0  0  0  0
    7.6425    4.4186  -12.7943 C   0  0  0  0  0  0  0  0  0  0  0  0
   11.0297    3.2482  -14.8053 C   0  0  0  0  0  0  0  0  0  0  0  0
    8.6802    2.8955  -13.7960 C   0  0  0  0  0  0  0  0  0  0  0  0
    8.8565    1.5917  -14.3582 O   0  0  0  0  0  0  0  0  0  0  0  0
    7.6903    3.2226  -13.1994 N   0  0  0  0  0  0  0  0  0  0  0  0
    6.5724    2.3444  -12.8378 C   0  0  0  0  0  0  0  0  0  0  0  0
    9.0225    7.0353  -11.3259 C   0  0  0  0  0  0  0  0  0  0  0  0
    6.2405    4.8489  -12.4515 C   0  0  0  0  0  0  0  0  0  0  0  0
   10.5875    7.0617  -11.5321 C   0  0  0  0  0  0  0  0  0  0  0  0
   11.0960    7.6093  -10.4100 C   0  0  0  0  0  0  0  0  0  0  0  0
    8.4039    7.3336  -10.1102 C   0  0  0  0  0  0  0  0  0  0  0  0
    5.5911    3.3517  -12.3508 C   0  0  0  0  0  0  0  0  0  0  0  0
   12.6259    7.6530  -10.3901 C   0  0  0  0  0  0  0  0  0  0  0  0
   10.4284    7.7784   -9.2128 C   0  0  1  0  0  0  0  0  0  0  0  0
    9.2236    7.5051   -9.0617 C   0  0  2  0  0  0  0  0  0  0  0  0
    8.7145    7.3063   -7.7135 N   0  0  0  0  0  0  0  0  0  0  0  0
   11.0621    7.5242   -7.8430 C   0  0  1  0  0  0  0  0  0  0  0  0
   12.0213    8.4787   -7.3268 C   0  0  0  0  0  0  0  0  0  0  0  0
   13.1241    8.0749  -11.7293 C   0  0  0  0  0  0  0  0  0  0  0  0
   12.0504    9.6950   -7.9009 O   0  0  0  0  0  0  0  0  0  0  0  0
    9.8858    7.2444   -6.9594 C   0  0  0  0  0  0  0  0  0  0  0  0
    9.9817    6.9378   -5.8143 O   0  0  0  0  0  0  0  0  0  0  0  0
   12.7596    8.4184   -6.1666 N   0  0  0  0  0  0  0  0  0  0  0  0
   13.4146    9.5444   -5.5926 C   0  0  0  0  0  0  0  0  0  0  0  0
  1  2  2  0  0  0  0
  1  4  1  0  0  0  0
  2  3  1  0  0  0  0
  2 31  1  0  0  0  0
  3  6  2  0  0  0  0
  3 21  1  0  0  0  0
  4  5  2  0  0  0  0
  5  6  1  0  0  0  0
  6  7  1  0  0  0  0
  7  8  1  0  0  0  0
  7 10  2  0  0  0  0
  8  9  1  0  0  0  0
  8 13  1  0  0  0  0
  9 11  1  0  0  0  0
  9 19  2  0  0  0  0
 10 14  1  0  0  0  0
 10 15  1  0  0  0  0
 11 12  1  0  0  0  0
 13 17  1  0  0  0  0
 13 20  2  0  0  0  0
 15 16  2  0  0  0  0
 15 17  1  0  0  0  0
 17 18  1  0  0  0  0
 18 24  1  0  0  0  0
 19 21  1  0  0  0  0
 19 23  1  0  0  0  0
 20 24  1  0  0  0  0
 21 22  2  0  0  0  0
 22 25  1  0  0  0  0
 25 31  2  0  0  0  0
 26 22  1  6  0  0  0
 26 27  1  0  0  0  0
 26 29  1  0  0  0  0
 27 23  1  6  0  0  0
 27 28  1  0  0  0  0
 28 33  1  0  0  0  0
 29 30  1  1  0  0  0
 29 33  1  0  0  0  0
 30 32  2  0  0  0  0
 30 35  1  0  0  0  0
 33 34  2  0  0  0  0
 35 36  1  0  0  0  0
M  END
$$$$

 OpenBabel10082411353D

 36 39  0  0  0  0  0  0  0  0999 V2000
   11.6836    6.0105   -4.8831 F   0  0  0  0  0  0  0  0  0  0  0  0
   11.2562    7.2206   -5.0294 C   0  0  0  0  0  0  0  0  0  0  0  0
   12.0125    8.2418   -4.4408 C   0  0  0  0  0  0  0  0  0  0  0  0
   11.1918    7.2706   -6.5237 C   0  0  0  0  0  0  0  0  0  0  0  0
   11.6999    8.4488   -3.1704 F   0  0  0  0  0  0  0  0  0  0  0  0
    9.8648    7.0908   -4.5314 F   0  0  0  0  0  0  0  0  0  0  0  0
   11.6831    8.5291   -6.9682 C   0  0  0  0  0  0  0  0  0  0  0  0
   10.4785    6.5189   -7.4033 C   0  0  0  0  0  0  0  0  0  0  0  0
   11.6979    8.6661   -8.4760 C   0  0  0  0  0  0  0  0  0  0  0  0
   11.6248    9.5853   -5.0030 C   0  0  0  0  0  0  0  0  0  0  0  0
   11.8604    9.7907   -6.2903 O   0  0  0  0  0  0  0  0  0  0  0  0
   13.3557    8.1748   -4.5947 F   0  0  0  0  0  0  0  0  0  0  0  0
   10.5427    6.6061   -8.7190 C   0  0  0  0  0  0  0  0  0  0  0  0
   11.1158    7.7103   -9.2540 C   0  0  0  0  0  0  0  0  0  0  0  0
   11.3757    7.6656  -10.5293 N   0  0  0  0  0  0  0  0  0  0  0  0
   10.7153    7.7096  -11.5405 C   0  0  0  0  0  0  0  0  0  0  0  0
   11.2483    7.4711  -12.8542 C   0  0  0  0  0  0  0  0  0  0  0  0
    9.3980    7.7820  -11.5398 C   0  0  0  0  0  0  0  0  0  0  0  0
    8.6055    7.5889  -12.6525 C   0  0  0  0  0  0  0  0  0  0  0  0
   12.7508    7.3705  -13.0162 O   0  0  0  0  0  0  0  0  0  0  0  0
   10.5299    7.1831  -13.9856 C   0  0  0  0  0  0  0  0  0  0  0  0
    7.0533    7.7371  -12.5396 C   0  0  0  0  0  0  0  0  0  0  0  0
   11.2041    6.8490  -15.2304 C   0  0  0  0  0  0  0  0  0  0  0  0
   11.6393    5.5333  -15.3864 C   0  0  0  0  0  0  0  0  0  0  0  0
    9.1955    7.2935  -13.8301 C   0  0  0  0  0  0  0  0  0  0  0  0
   12.5294    5.1116  -16.1609 C   0  0  0  0  0  0  0  0  0  0  0  0
   11.2315    4.4703  -14.3200 C   0  0  0  0  0  0  0  0  0  0  0  0
   13.0194    6.0876  -17.1697 C   0  0  0  0  0  0  0  0  0  0  0  0
   12.9874    3.8316  -16.1456 C   0  0  0  0  0  0  0  0  0  0  0  0
   12.3949    2.9126  -15.4671 C   0  0  0  0  0  0  0  0  0  0  0  0
   10.2274    4.8149  -13.2643 C   0  0  0  0  0  0  0  0  0  0  0  0
    8.9564    4.3798  -13.5553 C   0  0  0  0  0  0  0  0  0  0  0  0
    8.7042    3.2659  -14.2465 C   0  0  0  0  0  0  0  0  0  0  0  0
   11.4148    3.2767  -14.5206 C   0  0  0  0  0  0  0  0  0  0  0  0
    7.2714    2.9092  -14.2610 C   0  0  0  0  0  0  0  0  0  0  0  0
    6.8892    1.9113  -13.3936 O   0  0  0  0  0  0  0  0  0  0  0  0
  1  2  1  0  0  0  0
  2  3  1  0  0  0  0
  2  4  1  0  0  0  0
  2  6  1  0  0  0  0
  3  5  1  0  0  0  0
  3 10  1  0  0  0  0
  3 12  1  0  0  0  0
  4  7  1  0  0  0  0
  4  8  2  0  0  0  0
  7  9  2  0  0  0  0
  7 11  1  0  0  0  0
  8 13  1  0  0  0  0
  9 14  1  0  0  0  0
 10 11  1  0  0  0  0
 13 14  2  0  0  0  0
 14 15  1  0  0  0  0
 15 16  1  0  0  0  0
 16 17  1  0  0  0  0
 16 18  2  0  0  0  0
 17 20  1  0  0  0  0
 17 21  2  0  0  0  0
 18 19  1  0  0  0  0
 19 22  1  0  0  0  0
 19 25  2  0  0  0  0
 21 23  1  0  0  0  0
 21 25  1  0  0  0  0
 23 24  1  0  0  0  0
 24 26  2  0  0  0  0
 24 27  1  0  0  0  0
 26 28  1  0  0  0  0
 26 29  1  0  0  0  0
 27 31  1  0  0  0  0
 27 34  2  0  0  0  0
 29 30  2  0  0  0  0
 30 34  1  0  0  0  0
 31 32  2  3  0  0  0
 32 33  1  0  0  0  0
 33 35  1  0  0  0  0
 35 36  1  0  0  0  0
M  END
$$$$

 OpenBabel10082411353D

 36 41  0  0  0  0  0  0  0  0999 V2000
   11.6836    6.0105   -4.8831 C   0  0  0  0  0  0  0  0  0  0  0  0
   11.1291    7.0732   -5.4395 C   0  0  0  0  0  0  0  0  0  0  0  0
   10.6954    7.0156   -6.8073 C   0  0  0  0  0  0  0  0  0  0  0  0
   10.2502    8.1187   -7.5536 C   0  0  2  0  0  0  0  0  0  0  0  0
   11.1205    8.4712   -4.9629 C   0  0  0  0  0  0  0  0  0  0  0  0
   10.8655    8.3511   -8.7960 C   0  0  0  0  0  0  0  0  0  0  0  0
   10.2922    7.8843   -9.9985 C   0  0  0  0  0  0  0  0  0  0  0  0
   10.4654    9.6993   -5.6120 C   0  0  0  0  0  0  0  0  0  0  0  0
   10.3510    9.5971   -7.0014 C   0  0  0  0  0  0  0  0  0  0  0  0
   12.2462    6.3351   -3.5020 C   0  0  0  0  0  0  0  0  0  0  0  0
   11.0471    7.5309  -11.1063 C   0  0  0  0  0  0  0  0  0  0  0  0
   11.7288    8.6923   -3.6518 C   0  0  0  0  0  0  0  0  0  0  0  0
   12.3991    7.7501  -11.1145 C   0  0  0  0  0  0  0  0  0  0  0  0
   12.3738    7.7580   -2.9599 C   0  0  0  0  0  0  0  0  0  0  0  0
   13.1285    8.5075  -10.1661 O   0  0  0  0  0  0  0  0  0  0  0  0
    9.0407    7.3775  -10.0973 N   0  0  0  0  0  0  0  0  0  0  0  0
    8.9787    6.9473  -11.4664 N   0  0  0  0  0  0  0  0  0  0  0  0
   13.1012    7.4459  -12.3707 C   0  0  0  0  0  0  0  0  0  0  0  0
   12.2395    6.9724  -13.2444 C   0  0  0  0  0  0  0  0  0  0  0  0
   10.2768    7.0170  -11.9799 C   0  0  0  0  0  0  0  0  0  0  0  0
   12.9237    6.5822  -14.5759 O   0  0  0  0  0  0  0  0  0  0  0  0
   10.8906    6.6526  -13.2252 C   0  0  0  0  0  0  0  0  0  0  0  0
   12.2396    6.1290  -15.6916 C   0  0  0  0  0  0  0  0  0  0  0  0
    7.7368    6.4514  -12.0707 C   0  0  0  0  0  0  0  0  0  0  0  0
    7.1353    7.2872  -12.8105 C   0  0  0  0  0  0  0  0  0  0  0  0
    7.6622    5.0135  -12.1225 C   0  0  0  0  0  0  0  0  0  0  0  0
   12.5092    4.6950  -15.8147 C   0  0  0  0  0  0  0  0  0  0  0  0
    5.9403    6.5840  -13.2897 C   0  0  0  0  0  0  0  0  0  0  0  0
   11.2738    3.8422  -15.5220 N   0  0  0  0  0  0  0  0  0  0  0  0
    8.7139    4.1736  -11.4601 C   0  0  0  0  0  0  0  0  0  0  0  0
    6.6269    4.4744  -12.6955 C   0  0  0  0  0  0  0  0  0  0  0  0
    9.4620    3.2890  -12.1895 O   0  0  0  0  0  0  0  0  0  0  0  0
    5.7480    5.3068  -13.3143 C   0  0  0  0  0  0  0  0  0  0  0  0
    9.2569    3.2107  -13.4796 C   0  0  0  0  0  0  0  0  0  0  0  0
   11.2664    3.0418  -14.3307 C   0  0  0  0  0  0  0  0  0  0  0  0
   10.1029    2.3310  -14.1147 C   0  0  0  0  0  0  0  0  0  0  0  0
  1  2  1  0  0  0  0
  1 10  2  0  0  0  0
  2  3  1  0  0  0  0
  2  5  2  0  0  0  0
  3  4  1  0  0  0  0
  4  6  1  6  0  0  0
  4  9  1  0  0  0  0
  5  8  1  0  0  0  0
  5 12  1  0  0  0  0
  6  7  1  0  0  0  0
  7 11  1  0  0  0  0
  7 16  2  0  0  0  0
  8  9  1  0  0  0  0
 10 14  1  0  0  0  0
 11 13  2  0  0  0  0
 11 20  1  0  0  0  0
 12 14  2  0  0  0  0
 13 15  1  0  0  0  0
 13 18  1  0  0  0  0
 16 17  1  0  0  0  0
 17 20  1  0  0  0  0
 17 24  1  0  0  0  0
 18 19  2  0  0  0  0
 19 21  1  0  0  0  0
 19 22  1  0  0  0  0
 20 22  2  0  0  0  0
 21 23  1  0  0  0  0
 23 27  1  0  0  0  0
 24 25  2  0  0  0  0
 24 26  1  0  0  0  0
 25 28  1  0  0  0  0
 26 30  1  0  0  0  0
 26 31  2  0  0  0  0
 27 29  1  0  0  0  0
 28 33  2  0  0  0  0
 29 35  1  0  0  0  0
 30 32  1  0  0  0  0
 31 33  1  0  0  0  0
 32 34  1  0  0  0  0
 34 36  1  0  0  0  0
 35 36  1  0  0  0  0
M  END
$$$$

 OpenBabel10082411353D

 36 44  0  0  0  0  0  0  0  0999 V2000
    8.0806    9.0240  -12.7589 C   0  0  0  0  0  0  0  0  0  0  0  0
    8.6514    7.8645  -12.2948 C   0  0  0  0  0  0  0  0  0  0  0  0
    9.9575    7.9974  -11.8426 C   0  0  0  0  0  0  0  0  0  0  0  0
   10.7657    6.8667  -11.6050 C   0  0  1  0  0  0  0  0  0  0  0  0
   10.7682    5.9590  -12.8271 C   0  0  0  0  0  0  0  0  0  0  0  0
   12.1553    7.3846  -11.2315 C   0  0  0  0  0  0  0  0  0  0  0  0
    8.0676    6.6451  -12.2974 C   0  0  0  0  0  0  0  0  0  0  0  0
   10.1892    6.1240  -10.3860 C   0  0  0  0  0  0  0  0  0  0  0  0
   11.8375    5.4373  -13.3240 O   0  0  0  0  0  0  0  0  0  0  0  0
    8.6785    5.4761  -13.0273 C   0  0  1  0  0  0  0  0  0  0  0  0
    9.1969    5.2405  -10.4969 C   0  0  1  0  0  0  0  0  0  0  0  0
    7.2213    6.2210  -11.3074 C   0  0  1  0  0  0  0  0  0  0  0  0
   12.5590    7.6872   -9.9896 C   0  0  0  0  0  0  0  0  0  0  0  0
    9.7633    5.0333  -12.9720 C   0  0  1  0  0  0  0  0  0  0  0  0
   10.0661    4.0167  -14.0373 N   0  0  0  0  0  0  0  0  0  0  0  0
   13.6906    8.3004   -9.6233 O   0  0  0  0  0  0  0  0  0  0  0  0
    7.6357    4.5123  -12.6317 C   0  0  2  0  0  0  0  0  0  0  0  0
    6.8831    4.9171  -11.7031 C   0  0  0  0  0  0  0  0  0  0  0  0
   10.5937    6.6967   -9.1779 C   0  0  0  0  0  0  0  0  0  0  0  0
    9.5087    4.3263  -11.6925 C   0  0  2  0  0  0  0  0  0  0  0  0
   11.6359    7.4449   -8.9125 C   0  0  0  0  0  0  0  0  0  0  0  0
   11.9716    7.9159   -7.6200 C   0  0  0  0  0  0  0  0  0  0  0  0
    8.4648    3.6122  -12.2840 C   0  0  2  0  0  0  0  0  0  0  0  0
    9.3128    4.5571   -9.1689 C   0  0  0  0  0  0  0  0  0  0  0  0
   10.9557    7.6369   -6.5929 C   0  0  1  0  0  0  0  0  0  0  0  0
    9.6490    2.8108  -13.7776 C   0  0  1  0  0  0  0  0  0  0  0  0
    9.6716    6.1981   -8.0224 C   0  0  2  0  0  0  0  0  0  0  0  0
    8.5511    2.5400  -13.1402 C   0  0  0  0  0  0  0  0  0  0  0  0
    9.7877    2.0302  -15.0383 O   0  0  0  0  0  0  0  0  0  0  0  0
   10.2949    6.3957   -6.8142 C   0  0  0  0  0  0  0  0  0  0  0  0
   11.5672    7.6277   -5.2275 C   0  0  0  0  0  0  0  0  0  0  0  0
    9.0573    5.0713   -8.1077 N   0  0  0  0  0  0  0  0  0  0  0  0
    7.9299    5.6233  -10.5104 C   0  0  0  0  0  0  0  0  0  0  0  0
    9.9903    8.7848   -6.6105 C   0  0  0  0  0  0  0  0  0  0  0  0
   12.0300    8.8991   -4.6667 C   0  0  0  0  0  0  0  0  0  0  0  0
   12.4783    8.8826   -3.3398 C   0  0  0  0  0  0  0  0  0  0  0  0
  1  2  1  0  0  0  0
  2  3  1  0  0  0  0
  2  7  2  0  0  0  0
  4  3  1  6  0  0  0
  4  5  1  0  0  0  0
  4  6  1  0  0  0  0
  4  8  1  0  0  0  0
  5  9  2  0  0  0  0
  6 13  1  0  0  0  0
  7 12  1  0  0  0  0
  8 11  1  0  0  0  0
  8 19  2  0  0  0  0
 10  7  1  1  0  0  0
 10 14  1  0  0  0  0
 10 17  1  0  0  0  0
 11 20  1  0  0  0  0
 11 24  1  1  0  0  0
 11 33  1  0  0  0  0
 12 18  1  6  0  0  0
 12 33  1  0  0  0  0
 13 16  2  0  0  0  0
 13 21  1  0  0  0  0
 14  5  1  1  0  0  0
 14 15  1  0  0  0  0
 14 20  1  0  0  0  0
 15 26  1  0  0  0  0
 17 18  1  1  0  0  0
 17 23  1  0  0  0  0
 19 21  1  0  0  0  0
 19 27  1  0  0  0  0
 20 23  1  0  0  0  0
 21 22  2  0  0  0  0
 22 25  1  0  0  0  0
 23 28  1  0  0  0  0
 24 32  2  0  0  0  0
 25 30  1  0  0  0  0
 25 31  1  0  0  0  0
 25 34  1  0  0  0  0
 26 28  1  0  0  0  0
 26 29  1  0  0  0  0
 27 30  1  0  0  0  0
 27 32  1  0  0  0  0
 31 35  1  0  0  0  0
 35 36  1  0  0  0  0
M  END
$$$$

 OpenBabel10082411353D

 36 42  0  0  0  0  0  0  0  0999 V2000
    8.0806    9.0240  -12.7589 C   0  0  0  0  0  0  0  0  0  0  0  0
    8.6514    7.8645  -12.2948 C   0  0  0  0  0  0  0  0  0  0  0  0
    9.9575    7.9974  -11.8426 C   0  0  0  0  0  0  0  0  0  0  0  0
   10.7657    6.8667  -11.6050 C   0  0  1  0  0  0  0  0  0  0  0  0
   10.7682    5.9590  -12.8271 C   0  0  0  0  0  0  0  0  0  0  0  0
   12.1553    7.3846  -11.2315 C   0  0  0  0  0  0  0  0  0  0  0  0
    8.0676    6.6451  -12.2974 C   0  0  0  0  0  0  0  0  0  0  0  0
   10.1892    6.1240  -10.3860 C   0  0  0  0  0  0  0  0  0  0  0  0
   11.8375    5.4373  -13.3240 O   0  0  0  0  0  0  0  0  0  0  0  0
    8.6785    5.4761  -13.0273 C   0  0  1  0  0  0  0  0  0  0  0  0
    9.1969    5.2405  -10.4969 C   0  0  1  0  0  0  0  0  0  0  0  0
    7.2213    6.2210  -11.3074 C   0  0  1  0  0  0  0  0  0  0  0  0
   12.5590    7.6872   -9.9896 C   0  0  0  0  0  0  0  0  0  0  0  0
    9.7633    5.0333  -12.9720 C   0  0  1  0  0  0  0  0  0  0  0  0
   10.0661    4.0167  -14.0373 N   0  0  0  0  0  0  0  0  0  0  0  0
   13.6906    8.3004   -9.6233 O   0  0  0  0  0  0  0  0  0  0  0  0
    7.6357    4.5123  -12.6317 C   0  0  2  0  0  0  0  0  0  0  0  0
    6.8831    4.9171  -11.7031 C   0  0  0  0  0  0  0  0  0  0  0  0
   10.5937    6.6967   -9.1779 C   0  0  0  0  0  0  0  0  0  0  0  0
    7.9686    5.5339   -9.9769 C   0  0  0  0  0  0  0  0  0  0  0  0
    9.5234    4.3219  -11.7199 C   0  0  2  0  0  0  0  0  0  0  0  0
    8.2724    3.6583  -11.9086 C   0  0  0  0  0  0  0  0  0  0  0  0
    9.7021    6.2704   -7.9821 C   0  0  0  0  0  0  0  0  0  0  0  0
   11.7754    7.3739   -8.8757 C   0  0  0  0  0  0  0  0  0  0  0  0
   12.0905    7.8345   -7.6042 C   0  0  0  0  0  0  0  0  0  0  0  0
   11.2745    7.5972   -6.4253 C   0  0  0  0  0  0  0  0  0  0  0  0
   10.1385    6.7786   -6.6291 C   0  0  0  0  0  0  0  0  0  0  0  0
    9.6270    4.2741  -15.2208 C   0  0  0  0  0  0  0  0  0  0  0  0
   11.3270    3.3237  -14.0532 C   0  0  0  0  0  0  0  0  0  0  0  0
   11.5584    8.2022   -5.2016 C   0  0  0  0  0  0  0  0  0  0  0  0
    9.3724    6.5554   -5.5636 O   0  0  0  0  0  0  0  0  0  0  0  0
   11.4797    9.7369   -4.9004 C   0  0  0  0  0  0  0  0  0  0  0  0
   10.7886    9.9136   -3.8851 F   0  0  0  0  0  0  0  0  0  0  0  0
   10.9024   10.3687   -6.0077 F   0  0  0  0  0  0  0  0  0  0  0  0
   11.8260    7.4852   -4.0075 C   0  0  0  0  0  0  0  0  0  0  0  0
   12.7115   10.2272   -4.7389 F   0  0  0  0  0  0  0  0  0  0  0  0
  1  2  1  0  0  0  0
  2  3  1  0  0  0  0
  2  7  2  0  0  0  0
  4  3  1  6  0  0  0
  4  5  1  0  0  0  0
  4  6  1  0  0  0  0
  4  8  1  0  0  0  0
  5  9  2  0  0  0  0
  5 14  1  0  0  0  0
  6 13  1  0  0  0  0
  7 12  1  0  0  0  0
  8 11  1  0  0  0  0
  8 19  2  0  0  0  0
 10  7  1  1  0  0  0
 10 14  1  0  0  0  0
 10 17  1  0  0  0  0
 11 20  1  6  0  0  0
 11 21  1  0  0  0  0
 12 18  1  6  0  0  0
 12 20  1  0  0  0  0
 13 16  2  0  0  0  0
 13 24  1  0  0  0  0
 14 15  1  6  0  0  0
 14 21  1  0  0  0  0
 15 28  1  0  0  0  0
 15 29  1  0  0  0  0
 17 18  1  1  0  0  0
 17 22  1  0  0  0  0
 19 23  1  0  0  0  0
 19 24  1  0  0  0  0
 21 22  1  6  0  0  0
 23 27  1  0  0  0  0
 24 25  2  0  0  0  0
 25 26  1  0  0  0  0
 26 27  1  0  0  0  0
 26 30  2  3  0  0  0
 27 31  2  0  0  0  0
 30 32  1  0  0  0  0
 30 35  1  0  0  0  0
 32 33  1  0  0  0  0
 32 34  1  0  0  0  0
 32 36  1  0  0  0  0
M  END
$$$$

 OpenBabel10082411353D

 36 43  0  0  0  0  0  0  0  0999 V2000
    8.0806    9.0240  -12.7589 C   0  0  0  0  0  0  0  0  0  0  0  0
    8.6514    7.8645  -12.2948 C   0  0  0  0  0  0  0  0  0  0  0  0
    9.9575    7.9974  -11.8426 C   0  0  0  0  0  0  0  0  0  0  0  0
   10.7657    6.8667  -11.6050 C   0  0  1  0  0  0  0  0  0  0  0  0
   10.7682    5.9590  -12.8271 C   0  0  0  0  0  0  0  0  0  0  0  0
   12.1553    7.3846  -11.2315 C   0  0  0  0  0  0  0  0  0  0  0  0
    8.0676    6.6451  -12.2974 C   0  0  0  0  0  0  0  0  0  0  0  0
   10.1892    6.1240  -10.3860 C   0  0  0  0  0  0  0  0  0  0  0  0
   11.8375    5.4373  -13.3240 O   0  0  0  0  0  0  0  0  0  0  0  0
    8.6785    5.4761  -13.0273 C   0  0  1  0  0  0  0  0  0  0  0  0
    9.1969    5.2405  -10.4969 C   0  0  1  0  0  0  0  0  0  0  0  0
    7.2213    6.2210  -11.3074 C   0  0  0  0  0  0  0  0  0  0  0  0
   12.5590    7.6872   -9.9896 C   0  0  0  0  0  0  0  0  0  0  0  0
    9.7633    5.0333  -12.9720 C   0  0  1  0  0  0  0  0  0  0  0  0
   10.0661    4.0167  -14.0373 N   0  0  0  0  0  0  0  0  0  0  0  0
   13.6906    8.3004   -9.6233 O   0  0  0  0  0  0  0  0  0  0  0  0
    7.6357    4.5123  -12.6317 C   0  0  2  0  0  0  0  0  0  0  0  0
    6.8831    4.9171  -11.7031 C   0  0  0  0  0  0  0  0  0  0  0  0
   10.5937    6.6967   -9.1779 C   0  0  0  0  0  0  0  0  0  0  0  0
    9.5087    4.3263  -11.6925 C   0  0  2  0  0  0  0  0  0  0  0  0
   11.6359    7.4449   -8.9125 C   0  0  0  0  0  0  0  0  0  0  0  0
   11.9716    7.9159   -7.6200 C   0  0  0  0  0  0  0  0  0  0  0  0
    8.4648    3.6122  -12.2840 C   0  0  2  0  0  0  0  0  0  0  0  0
    9.3128    4.5571   -9.1689 C   0  0  0  0  0  0  0  0  0  0  0  0
   10.9557    7.6369   -6.5929 C   0  0  0  0  0  0  0  0  0  0  0  0
    9.6490    2.8108  -13.7776 C   0  0  0  0  0  0  0  0  0  0  0  0
   10.2419    1.7839  -14.4904 O   0  0  0  0  0  0  0  0  0  0  0  0
    9.8235    6.3429   -8.0308 C   0  0  0  0  0  0  0  0  0  0  0  0
    8.5421    2.5419  -13.1600 C   0  0  0  0  0  0  0  0  0  0  0  0
   10.0139    6.8647   -6.7816 C   0  0  0  0  0  0  0  0  0  0  0  0
   11.3672    8.3499   -5.0541 S   0  0  0  0  0  0  0  0  0  0  0  0
   11.5679    9.7418   -5.1315 O   0  0  0  0  0  0  0  0  0  0  0  0
    8.9499    5.5875   -8.2072 N   0  0  0  0  0  0  0  0  0  0  0  0
   10.1444    8.1128   -4.1798 O   0  0  0  0  0  0  0  0  0  0  0  0
   12.6265    7.7207   -4.3878 N   0  0  0  0  0  0  0  0  0  0  0  0
   12.2793    6.9171   -3.1945 C   0  0  0  0  0  0  0  0  0  0  0  0
  1  2  1  0  0  0  0
  2  3  1  0  0  0  0
  2  7  2  0  0  0  0
  4  3  1  6  0  0  0
  4  5  1  0  0  0  0
  4  6  1  0  0  0  0
  4  8  1  0  0  0  0
  5  9  2  0  0  0  0
  6 13  1  0  0  0  0
  7 12  1  0  0  0  0
  8 11  1  0  0  0  0
  8 19  2  0  0  0  0
 10  7  1  1  0  0  0
 10 14  1  0  0  0  0
 10 17  1  0  0  0  0
 11 20  1  0  0  0  0
 11 24  1  1  0  0  0
 12 18  1  0  0  0  0
 13 16  2  0  0  0  0
 13 21  1  0  0  0  0
 14  5  1  1  0  0  0
 14 15  1  0  0  0  0
 14 20  1  0  0  0  0
 15 26  1  0  0  0  0
 17 18  1  1  0  0  0
 17 23  1  0  0  0  0
 19 21  1  0  0  0  0
 19 28  1  0  0  0  0
 20 23  1  0  0  0  0
 21 22  2  0  0  0  0
 22 25  1  0  0  0  0
 23 29  1  0  0  0  0
 24 33  1  0  0  0  0
 25 30  2  0  0  0  0
 25 31  1  0  0  0  0
 26 27  2  0  0  0  0
 26 29  1  0  0  0  0
 28 30  1  0  0  0  0
 28 33  2  0  0  0  0
 31 32  2  0  0  0  0
 31 34  2  0  0  0  0
 31 35  1  0  0  0  0
 35 36  1  0  0  0  0
M  END
$$$$

 OpenBabel10082411353D

 36 44  0  0  0  0  0  0  0  0999 V2000
    8.0806    9.0240  -12.7589 C   0  0  0  0  0  0  0  0  0  0  0  0
    8.6514    7.8645  -12.2948 C   0  0  0  0  0  0  0  0  0  0  0  0
    9.9575    7.9974  -11.8426 C   0  0  0  0  0  0  0  0  0  0  0  0
   10.7657    6.8667  -11.6050 C   0  0  1  0  0  0  0  0  0  0  0  0
   10.7682    5.9590  -12.8271 C   0  0  0  0  0  0  0  0  0  0  0  0
   12.1553    7.3846  -11.2315 C   0  0  0  0  0  0  0  0  0  0  0  0
    8.0676    6.6451  -12.2974 C   0  0  0  0  0  0  0  0  0  0  0  0
   10.1892    6.1240  -10.3860 C   0  0  0  0  0  0  0  0  0  0  0  0
   11.8375    5.4373  -13.3240 O   0  0  0  0  0  0  0  0  0  0  0  0
    8.6785    5.4761  -13.0273 C   0  0  1  0  0  0  0  0  0  0  0  0
    9.1969    5.2405  -10.4969 C   0  0  1  0  0  0  0  0  0  0  0  0
    7.2213    6.2210  -11.3074 C   0  0  1  0  0  0  0  0  0  0  0  0
   12.5590    7.6872   -9.9896 C   0  0  0  0  0  0  0  0  0  0  0  0
    9.7633    5.0333  -12.9720 C   0  0  1  0  0  0  0  0  0  0  0  0
   10.0661    4.0167  -14.0373 N   0  0  0  0  0  0  0  0  0  0  0  0
   13.6906    8.3004   -9.6233 O   0  0  0  0  0  0  0  0  0  0  0  0
    7.6357    4.5123  -12.6317 C   0  0  2  0  0  0  0  0  0  0  0  0
    6.8831    4.9171  -11.7031 C   0  0  0  0  0  0  0  0  0  0  0  0
   10.5937    6.6967   -9.1779 C   0  0  0  0  0  0  0  0  0  0  0  0
    9.5087    4.3263  -11.6925 C   0  0  2  0  0  0  0  0  0  0  0  0
   11.6359    7.4449   -8.9125 C   0  0  0  0  0  0  0  0  0  0  0  0
   11.9716    7.9159   -7.6200 C   0  0  0  0  0  0  0  0  0  0  0  0
    8.4648    3.6122  -12.2840 C   0  0  2  0  0  0  0  0  0  0  0  0
    9.3128    4.5571   -9.1689 C   0  0  0  0  0  0  0  0  0  0  0  0
   10.9557    7.6369   -6.5929 C   0  0  2  0  0  0  0  0  0  0  0  0
    9.6490    2.8108  -13.7776 C   0  0  1  0  0  0  0  0  0  0  0  0
    9.6716    6.1981   -8.0224 C   0  0  2  0  0  0  0  0  0  0  0  0
    8.5511    2.5400  -13.1402 C   0  0  0  0  0  0  0  0  0  0  0  0
    9.7877    2.0302  -15.0383 O   0  0  0  0  0  0  0  0  0  0  0  0
   10.2949    6.3957   -6.8142 C   0  0  0  0  0  0  0  0  0  0  0  0
   10.0248    8.9234   -6.5076 C   0  0  0  0  0  0  0  0  0  0  0  0
    9.3611    4.9578   -8.0921 C   0  0  0  0  0  0  0  0  0  0  0  0
    7.9396    5.6593  -10.4947 C   0  0  0  0  0  0  0  0  0  0  0  0
   11.7023    7.8880   -5.4088 C   0  0  0  0  0  0  0  0  0  0  0  0
   12.2707    9.1298   -4.9881 C   0  0  0  0  0  0  0  0  0  0  0  0
   11.5102    9.8248   -4.0020 C   0  0  0  0  0  0  0  0  0  0  0  0
  1  2  1  0  0  0  0
  2  3  1  0  0  0  0
  2  7  2  0  0  0  0
  4  3  1  6  0  0  0
  4  5  1  0  0  0  0
  4  6  1  0  0  0  0
  4  8  1  0  0  0  0
  5  9  2  0  0  0  0
  6 13  1  0  0  0  0
  7 12  1  0  0  0  0
  8 11  1  0  0  0  0
  8 19  2  0  0  0  0
 10  7  1  1  0  0  0
 10 14  1  0  0  0  0
 10 17  1  0  0  0  0
 11 20  1  0  0  0  0
 11 24  1  1  0  0  0
 11 33  1  0  0  0  0
 12 18  1  6  0  0  0
 12 33  1  0  0  0  0
 13 16  2  0  0  0  0
 13 21  1  0  0  0  0
 14  5  1  1  0  0  0
 14 15  1  0  0  0  0
 14 20  1  0  0  0  0
 15 26  1  0  0  0  0
 17 18  1  1  0  0  0
 17 23  1  0  0  0  0
 19 21  1  0  0  0  0
 19 27  1  0  0  0  0
 20 23  1  0  0  0  0
 21 22  2  0  0  0  0
 22 25  1  0  0  0  0
 23 28  1  0  0  0  0
 24 32  2  0  0  0  0
 25 30  1  0  0  0  0
 25 31  1  0  0  0  0
 25 34  1  0  0  0  0
 26 28  1  0  0  0  0
 26 29  1  0  0  0  0
 27 30  1  0  0  0  0
 27 32  1  0  0  0  0
 34 35  1  0  0  0  0
 35 36  1  0  0  0  0
M  END
$$$$

 OpenBabel10082411353D

 36 42  0  0  0  0  0  0  0  0999 V2000
   12.8881    8.7759   -3.5681 C   0  0  0  0  0  0  0  0  0  0  0  0
   11.9416    9.4732   -4.1220 C   0  0  0  0  0  0  0  0  0  0  0  0
   12.1782    9.3707   -5.6407 C   0  0  0  0  0  0  0  0  0  0  0  0
   11.3825    8.3447   -6.3966 C   0  0  0  0  0  0  0  0  0  0  0  0
   11.8188    8.0044   -7.6822 C   0  0  0  0  0  0  0  0  0  0  0  0
   10.3120    7.6600   -5.7120 C   0  0  0  0  0  0  0  0  0  0  0  0
   10.8678    7.0723   -8.2897 C   0  0  0  0  0  0  0  0  0  0  0  0
    9.5717    6.7245   -6.3809 C   0  0  0  0  0  0  0  0  0  0  0  0
    9.8820    6.4468   -7.7081 C   0  0  0  0  0  0  0  0  0  0  0  0
   11.2611    6.6953   -9.7105 C   0  0  1  0  0  0  0  0  0  0  0  0
   10.0425    6.5460  -10.5971 C   0  0  0  0  0  0  0  0  0  0  0  0
   11.8062    7.8130  -10.4883 C   0  0  0  0  0  0  0  0  0  0  0  0
    8.8746    5.5265   -8.4149 C   0  0  0  0  0  0  0  0  0  0  0  0
   13.1546    8.1022  -10.4049 O   0  0  0  0  0  0  0  0  0  0  0  0
   10.3114    6.7627  -11.8786 C   0  0  0  0  0  0  0  0  0  0  0  0
   11.3906    7.6694  -11.8036 N   0  0  0  0  0  0  0  0  0  0  0  0
   11.9779    8.2398  -13.0316 C   0  0  0  0  0  0  0  0  0  0  0  0
    8.8154    6.0162   -9.9613 C   0  0  0  0  0  0  0  0  0  0  0  0
    9.6102    6.3636  -13.0859 C   0  0  0  0  0  0  0  0  0  0  0  0
   11.8804    7.4718  -14.1937 C   0  0  0  0  0  0  0  0  0  0  0  0
   10.7017    6.3981  -14.2482 C   0  0  0  0  0  0  0  0  0  0  0  0
   10.3813    5.8427  -15.4547 C   0  0  0  0  0  0  0  0  0  0  0  0
    9.2579    5.0507  -15.6184 C   0  0  0  0  0  0  0  0  0  0  0  0
   12.6748    7.4257  -15.2457 C   0  0  0  0  0  0  0  0  0  0  0  0
    9.3685    3.7401  -15.1559 C   0  0  0  0  0  0  0  0  0  0  0  0
   11.4448    5.9436  -16.3841 C   0  0  0  0  0  0  0  0  0  0  0  0
    8.3308    3.1061  -14.4825 C   0  0  0  0  0  0  0  0  0  0  0  0
   12.5097    6.7445  -16.2996 C   0  0  0  0  0  0  0  0  0  0  0  0
    8.5965    1.7263  -14.0307 C   0  0  0  0  0  0  0  0  0  0  0  0
   10.6046    2.9384  -15.3659 C   0  0  0  0  0  0  0  0  0  0  0  0
    7.3860    1.1151  -13.4295 C   0  0  0  0  0  0  0  0  0  0  0  0
   10.7717    1.8876  -14.7644 C   0  0  0  0  0  0  0  0  0  0  0  0
    6.3071    1.9077  -13.0064 C   0  0  0  0  0  0  0  0  0  0  0  0
    6.4866    3.3991  -12.7532 C   0  0  0  0  0  0  0  0  0  0  0  0
    7.4215    3.9912  -13.7590 C   0  0  0  0  0  0  0  0  0  0  0  0
    9.6590    1.1398  -14.1258 C   0  0  0  0  0  0  0  0  0  0  0  0
  1  2  1  0  0  0  0
  2  3  1  0  0  0  0
  3  4  1  0  0  0  0
  4  5  2  0  0  0  0
  4  6  1  0  0  0  0
  5  7  1  0  0  0  0
  6  8  2  0  0  0  0
  7  9  2  0  0  0  0
  8  9  1  0  0  0  0
  9 13  1  0  0  0  0
 10  7  1  1  0  0  0
 10 11  1  0  0  0  0
 10 12  1  0  0  0  0
 11 15  2  0  0  0  0
 11 18  1  0  0  0  0
 12 14  2  0  0  0  0
 12 16  1  0  0  0  0
 13 18  1  0  0  0  0
 15 16  1  0  0  0  0
 15 19  1  0  0  0  0
 16 17  1  0  0  0  0
 17 20  1  0  0  0  0
 19 21  1  0  0  0  0
 20 21  2  0  0  0  0
 20 24  1  0  0  0  0
 21 22  1  0  0  0  0
 22 23  1  0  0  0  0
 22 26  2  0  0  0  0
 23 25  1  0  0  0  0
 24 28  2  0  0  0  0
 25 27  2  0  0  0  0
 25 30  1  0  0  0  0
 26 28  1  0  0  0  0
 27 29  1  0  0  0  0
 27 35  1  0  0  0  0
 29 31  1  0  0  0  0
 29 36  2  0  0  0  0
 30 32  2  0  0  0  0
 31 33  2  0  0  0  0
 32 36  1  0  0  0  0
 33 34  1  0  0  0  0
 34 35  2  0  0  0  0
M  END
$$$$

 OpenBabel10082411353D

 36 39  0  0  0  0  0  0  0  0999 V2000
   11.6836    6.0105   -4.8831 F   0  0  0  0  0  0  0  0  0  0  0  0
   11.2562    7.2206   -5.0294 C   0  0  0  0  0  0  0  0  0  0  0  0
   12.0125    8.2418   -4.4408 C   0  0  0  0  0  0  0  0  0  0  0  0
   11.1918    7.2706   -6.5237 C   0  0  0  0  0  0  0  0  0  0  0  0
   11.6999    8.4488   -3.1704 F   0  0  0  0  0  0  0  0  0  0  0  0
    9.8648    7.0908   -4.5314 F   0  0  0  0  0  0  0  0  0  0  0  0
   11.6831    8.5291   -6.9682 C   0  0  0  0  0  0  0  0  0  0  0  0
   10.4785    6.5189   -7.4033 C   0  0  0  0  0  0  0  0  0  0  0  0
   11.6979    8.6661   -8.4760 C   0  0  0  0  0  0  0  0  0  0  0  0
   11.6248    9.5853   -5.0030 C   0  0  0  0  0  0  0  0  0  0  0  0
   11.8604    9.7907   -6.2903 O   0  0  0  0  0  0  0  0  0  0  0  0
   13.3557    8.1748   -4.5947 F   0  0  0  0  0  0  0  0  0  0  0  0
   10.5427    6.6061   -8.7190 C   0  0  0  0  0  0  0  0  0  0  0  0
   11.1158    7.7103   -9.2540 C   0  0  0  0  0  0  0  0  0  0  0  0
   11.3757    7.6656  -10.5293 N   0  0  0  0  0  0  0  0  0  0  0  0
   10.7153    7.7096  -11.5405 C   0  0  0  0  0  0  0  0  0  0  0  0
   11.2483    7.4711  -12.8542 C   0  0  0  0  0  0  0  0  0  0  0  0
    9.3980    7.7820  -11.5398 C   0  0  0  0  0  0  0  0  0  0  0  0
    8.6055    7.5889  -12.6525 C   0  0  0  0  0  0  0  0  0  0  0  0
   12.7508    7.3705  -13.0162 O   0  0  0  0  0  0  0  0  0  0  0  0
   10.5299    7.1831  -13.9856 C   0  0  0  0  0  0  0  0  0  0  0  0
    7.0533    7.7371  -12.5396 C   0  0  0  0  0  0  0  0  0  0  0  0
   11.2041    6.8490  -15.2304 C   0  0  0  0  0  0  0  0  0  0  0  0
   11.6393    5.5333  -15.3864 C   0  0  0  0  0  0  0  0  0  0  0  0
    9.1955    7.2935  -13.8301 C   0  0  0  0  0  0  0  0  0  0  0  0
   12.5294    5.1116  -16.1609 C   0  0  0  0  0  0  0  0  0  0  0  0
   11.2315    4.4703  -14.3200 C   0  0  0  0  0  0  0  0  0  0  0  0
   13.0194    6.0876  -17.1697 C   0  0  0  0  0  0  0  0  0  0  0  0
   12.9874    3.8316  -16.1456 C   0  0  0  0  0  0  0  0  0  0  0  0
   12.3949    2.9126  -15.4671 C   0  0  0  0  0  0  0  0  0  0  0  0
   10.2274    4.8149  -13.2643 C   0  0  0  0  0  0  0  0  0  0  0  0
    8.9564    4.3798  -13.5553 C   0  0  0  0  0  0  0  0  0  0  0  0
    8.7042    3.2659  -14.2465 C   0  0  0  0  0  0  0  0  0  0  0  0
   11.4148    3.2767  -14.5206 C   0  0  0  0  0  0  0  0  0  0  0  0
    7.2714    2.9092  -14.2610 C   0  0  0  0  0  0  0  0  0  0  0  0
    6.5130    3.3087  -13.2249 C   0  0  0  0  0  0  0  0  0  0  0  0
  1  2  1  0  0  0  0
  2  3  1  0  0  0  0
  2  4  1  0  0  0  0
  2  6  1  0  0  0  0
  3  5  1  0  0  0  0
  3 10  1  0  0  0  0
  3 12  1  0  0  0  0
  4  7  1  0  0  0  0
  4  8  2  0  0  0  0
  7  9  2  0  0  0  0
  7 11  1  0  0  0  0
  8 13  1  0  0  0  0
  9 14  1  0  0  0  0
 10 11  1  0  0  0  0
 13 14  2  0  0  0  0
 14 15  1  0  0  0  0
 15 16  1  0  0  0  0
 16 17  1  0  0  0  0
 16 18  2  0  0  0  0
 17 20  1  0  0  0  0
 17 21  2  0  0  0  0
 18 19  1  0  0  0  0
 19 22  1  0  0  0  0
 19 25  2  0  0  0  0
 21 23  1  0  0  0  0
 21 25  1  0  0  0  0
 23 24  1  0  0  0  0
 24 26  2  0  0  0  0
 24 27  1  0  0  0  0
 26 28  1  0  0  0  0
 26 29  1  0  0  0  0
 27 31  1  0  0  0  0
 27 34  2  0  0  0  0
 29 30  2  0  0  0  0
 30 34  1  0  0  0  0
 31 32  2  3  0  0  0
 32 33  1  0  0  0  0
 33 35  1  0  0  0  0
 35 36  1  0  0  0  0
M  END
$$$$

 OpenBabel10082411353D

 24 27  0  0  0  0  0  0  0  0999 V2000
   13.2485    9.2493   -6.3668 O   0  0  0  0  0  0  0  0  0  0  0  0
   11.8899    9.2134   -6.2448 C   0  0  2  0  0  0  0  0  0  0  0  0
   11.2917    8.4721   -7.1451 C   0  0  2  0  0  0  0  0  0  0  0  0
   11.1607   10.4722   -6.0470 C   0  0  0  0  0  0  0  0  0  0  0  0
   11.8942    8.2744   -4.8861 C   0  0  1  0  0  0  0  0  0  0  0  0
   12.6962    8.6810   -3.7632 C   0  0  0  0  0  0  0  0  0  0  0  0
   10.5733    7.9819   -4.4741 O   0  0  0  0  0  0  0  0  0  0  0  0
   12.2118    6.9274   -5.0046 C   0  0  0  0  0  0  0  0  0  0  0  0
   11.4062    7.0803   -7.3138 C   0  0  1  0  0  0  0  0  0  0  0  0
   11.6893    9.1493   -8.4831 O   0  0  0  0  0  0  0  0  0  0  0  0
   11.3707    6.2717   -6.1614 C   0  0  0  0  0  0  0  0  0  0  0  0
   10.2564    6.5939   -8.3321 C   0  0  0  0  0  0  0  0  0  0  0  0
   10.4218    6.4667   -9.6182 C   0  0  0  0  0  0  0  0  0  0  0  0
    9.0449    6.2933   -7.8128 C   0  0  0  0  0  0  0  0  0  0  0  0
   11.5623    6.9616  -10.3788 C   0  0  0  0  0  0  0  0  0  0  0  0
    9.1836    6.0871  -10.1212 C   0  0  0  0  0  0  0  0  0  0  0  0
    8.3594    5.8680   -8.9980 N   0  0  0  0  0  0  0  0  0  0  0  0
    8.9634    5.7685  -11.5222 C   0  0  0  0  0  0  0  0  0  0  0  0
    9.9387    6.2140  -12.4284 C   0  0  0  0  0  0  0  0  0  0  0  0
    7.7616    5.2882  -11.9754 C   0  0  0  0  0  0  0  0  0  0  0  0
   11.2284    6.7904  -11.9463 C   0  0  0  0  0  0  0  0  0  0  0  0
    9.7535    6.0223  -13.7527 C   0  0  0  0  0  0  0  0  0  0  0  0
    7.6703    5.0846  -13.3696 C   0  0  0  0  0  0  0  0  0  0  0  0
    8.6056    5.3684  -14.2011 C   0  0  0  0  0  0  0  0  0  0  0  0
  1  2  1  0  0  0  0
  2  3  1  0  0  0  0
  2  4  1  1  0  0  0
  2  5  1  0  0  0  0
  3  9  1  0  0  0  0
  3 10  1  6  0  0  0
  5  6  1  1  0  0  0
  5  7  1  0  0  0  0
  5  8  1  0  0  0  0
  8 11  1  0  0  0  0
  9 11  1  0  0  0  0
  9 12  1  6  0  0  0
 12 13  1  0  0  0  0
 12 14  2  0  0  0  0
 13 15  1  0  0  0  0
 13 16  2  0  0  0  0
 14 17  1  0  0  0  0
 15 21  2  0  0  0  0
 16 17  1  0  0  0  0
 16 18  1  0  0  0  0
 18 19  1  0  0  0  0
 18 20  2  0  0  0  0
 19 21  1  0  0  0  0
 19 22  2  0  0  0  0
 20 23  1  0  0  0  0
 22 24  1  0  0  0  0
 23 24  2  0  0  0  0
M  END
$$$$

 OpenBabel10082411353D

 36 41  0  0  0  0  0  0  0  0999 V2000
   12.7863    7.8241  -14.2109 C   0  0  0  0  0  0  0  0  0  0  0  0
   12.4233    7.7158  -13.0289 C   0  0  0  0  0  0  0  0  0  0  0  0
   11.3194    6.8571  -12.8028 C   0  0  0  0  0  0  0  0  0  0  0  0
   12.3150    7.2021  -15.3582 C   0  0  0  0  0  0  0  0  0  0  0  0
   11.2733    6.2739  -15.1502 C   0  0  0  0  0  0  0  0  0  0  0  0
   10.8099    6.0126  -13.8600 C   0  0  0  0  0  0  0  0  0  0  0  0
    9.6782    5.1428  -13.6488 C   0  0  0  0  0  0  0  0  0  0  0  0
    8.5753    5.3880  -12.9589 N   0  0  0  0  0  0  0  0  0  0  0  0
    8.3226    6.7011  -12.3862 C   0  0  0  0  0  0  0  0  0  0  0  0
    9.8502    3.8578  -14.0728 C   0  0  0  0  0  0  0  0  0  0  0  0
    7.3864    7.4720  -13.0530 C   0  0  0  0  0  0  0  0  0  0  0  0
    6.2412    7.8486  -12.2599 C   0  0  0  0  0  0  0  0  0  0  0  0
    7.6425    4.4186  -12.7943 C   0  0  0  0  0  0  0  0  0  0  0  0
   11.0297    3.2482  -14.8053 C   0  0  0  0  0  0  0  0  0  0  0  0
    8.6802    2.8955  -13.7960 C   0  0  0  0  0  0  0  0  0  0  0  0
    8.8565    1.5917  -14.3582 O   0  0  0  0  0  0  0  0  0  0  0  0
    7.6903    3.2226  -13.1994 N   0  0  0  0  0  0  0  0  0  0  0  0
    6.5724    2.3444  -12.8378 C   0  0  0  0  0  0  0  0  0  0  0  0
    9.0225    7.0353  -11.3259 C   0  0  0  0  0  0  0  0  0  0  0  0
    6.4787    4.7532  -12.1787 O   0  0  0  0  0  0  0  0  0  0  0  0
   10.5868    7.0468  -11.5199 C   0  0  0  0  0  0  0  0  0  0  0  0
   11.2761    7.4007  -10.4131 C   0  0  0  0  0  0  0  0  0  0  0  0
    8.6862    7.4300   -9.9877 C   0  0  0  0  0  0  0  0  0  0  0  0
    9.4326    7.6744   -8.9657 C   0  0  0  0  0  0  0  0  0  0  0  0
   10.6794    7.6568   -9.1312 C   0  0  2  0  0  0  0  0  0  0  0  0
    8.9269    7.9839   -7.6612 C   0  0  0  0  0  0  0  0  0  0  0  0
   11.4232    7.9744   -7.9321 C   0  0  0  0  0  0  0  0  0  0  0  0
   10.9573    8.3184   -6.8885 C   0  0  0  0  0  0  0  0  0  0  0  0
    7.5782    7.8797   -7.5710 F   0  0  0  0  0  0  0  0  0  0  0  0
   11.9524    8.6726   -5.5732 C   0  0  0  0  0  0  0  0  0  0  0  0
   12.5628    9.9251   -5.6215 C   0  0  0  0  0  0  0  0  0  0  0  0
   11.7409    8.0483   -4.4624 C   0  0  0  0  0  0  0  0  0  0  0  0
   13.2690   10.1339   -4.4918 C   0  0  0  0  0  0  0  0  0  0  0  0
    9.5761    8.3150   -6.6235 C   0  0  0  0  0  0  0  0  0  0  0  0
   13.2561    9.4095   -3.3854 C   0  0  0  0  0  0  0  0  0  0  0  0
   12.4620    8.3109   -3.3218 C   0  0  0  0  0  0  0  0  0  0  0  0
  1  2  2  0  0  0  0
  1  4  1  0  0  0  0
  2  3  1  0  0  0  0
  3  6  2  0  0  0  0
  3 21  1  0  0  0  0
  4  5  2  0  0  0  0
  5  6  1  0  0  0  0
  6  7  1  0  0  0  0
  7  8  1  0  0  0  0
  7 10  2  0  0  0  0
  8  9  1  0  0  0  0
  8 13  1  0  0  0  0
  9 11  1  0  0  0  0
  9 19  2  0  0  0  0
 10 14  1  0  0  0  0
 10 15  1  0  0  0  0
 11 12  1  0  0  0  0
 13 17  1  0  0  0  0
 13 20  2  0  0  0  0
 15 16  2  0  0  0  0
 15 17  1  0  0  0  0
 17 18  1  0  0  0  0
 19 21  1  0  0  0  0
 19 23  1  0  0  0  0
 21 22  2  0  0  0  0
 23 24  2  0  0  0  0
 24 25  1  0  0  0  0
 24 26  1  0  0  0  0
 25 22  1  6  0  0  0
 25 27  1  0  0  0  0
 26 29  1  0  0  0  0
 26 34  2  0  0  0  0
 27 28  2  0  0  0  0
 28 30  1  0  0  0  0
 28 34  1  0  0  0  0
 30 31  1  0  0  0  0
 30 32  2  0  0  0  0
 31 33  2  0  0  0  0
 32 36  1  0  0  0  0
 33 35  1  0  0  0  0
 35 36  2  0  0  0  0
M  END
$$$$

 OpenBabel10082411353D

 36 40  0  0  0  0  0  0  0  0999 V2000
   12.7863    7.8241  -14.2109 C   0  0  0  0  0  0  0  0  0  0  0  0
   12.4233    7.7158  -13.0289 C   0  0  0  0  0  0  0  0  0  0  0  0
   11.3194    6.8571  -12.8028 C   0  0  0  0  0  0  0  0  0  0  0  0
   12.3150    7.2021  -15.3582 C   0  0  0  0  0  0  0  0  0  0  0  0
   11.2733    6.2739  -15.1502 C   0  0  0  0  0  0  0  0  0  0  0  0
   10.8099    6.0126  -13.8600 C   0  0  0  0  0  0  0  0  0  0  0  0
    9.6782    5.1428  -13.6488 C   0  0  0  0  0  0  0  0  0  0  0  0
    8.5753    5.3880  -12.9589 N   0  0  0  0  0  0  0  0  0  0  0  0
    8.3226    6.7011  -12.3862 C   0  0  0  0  0  0  0  0  0  0  0  0
    9.8502    3.8578  -14.0728 C   0  0  0  0  0  0  0  0  0  0  0  0
    7.3864    7.4720  -13.0530 C   0  0  0  0  0  0  0  0  0  0  0  0
    6.2412    7.8486  -12.2599 C   0  0  0  0  0  0  0  0  0  0  0  0
    7.6425    4.4186  -12.7943 C   0  0  0  0  0  0  0  0  0  0  0  0
   11.0297    3.2482  -14.8053 C   0  0  0  0  0  0  0  0  0  0  0  0
    8.6802    2.8955  -13.7960 C   0  0  0  0  0  0  0  0  0  0  0  0
    8.8565    1.5917  -14.3582 O   0  0  0  0  0  0  0  0  0  0  0  0
    7.6903    3.2226  -13.1994 N   0  0  0  0  0  0  0  0  0  0  0  0
    6.5724    2.3444  -12.8378 C   0  0  0  0  0  0  0  0  0  0  0  0
    9.0225    7.0353  -11.3259 C   0  0  0  0  0  0  0  0  0  0  0  0
    6.4787    4.7532  -12.1787 O   0  0  0  0  0  0  0  0  0  0  0  0
   10.5868    7.0468  -11.5199 C   0  0  0  0  0  0  0  0  0  0  0  0
   11.2761    7.4007  -10.4131 C   0  0  0  0  0  0  0  0  0  0  0  0
    8.6862    7.4300   -9.9877 C   0  0  0  0  0  0  0  0  0  0  0  0
    9.4326    7.6744   -8.9657 C   0  0  0  0  0  0  0  0  0  0  0  0
   10.6794    7.6568   -9.1312 C   0  0  2  0  0  0  0  0  0  0  0  0
    8.9269    7.9839   -7.6612 C   0  0  0  0  0  0  0  0  0  0  0  0
   11.4232    7.9744   -7.9321 C   0  0  0  0  0  0  0  0  0  0  0  0
   10.9573    8.3184   -6.8885 C   0  0  0  0  0  0  0  0  0  0  0  0
    7.5782    7.8797   -7.5710 F   0  0  0  0  0  0  0  0  0  0  0  0
   11.9524    8.6726   -5.5732 C   0  0  0  0  0  0  0  0  0  0  0  0
   12.5628    9.9251   -5.6215 C   0  0  0  0  0  0  0  0  0  0  0  0
   11.7409    8.0483   -4.4624 C   0  0  0  0  0  0  0  0  0  0  0  0
    9.4664    8.1474   -6.7129 C   0  0  0  0  0  0  0  0  0  0  0  0
   12.4861   10.7842   -6.8663 C   0  0  0  0  0  0  0  0  0  0  0  0
   12.5975    8.3509   -3.3059 C   0  0  0  0  0  0  0  0  0  0  0  0
   11.1117    6.7265   -4.2823 C   0  0  0  0  0  0  0  0  0  0  0  0
  1  2  2  0  0  0  0
  1  4  1  0  0  0  0
  2  3  1  0  0  0  0
  3  6  2  0  0  0  0
  3 21  1  0  0  0  0
  4  5  2  0  0  0  0
  5  6  1  0  0  0  0
  6  7  1  0  0  0  0
  7  8  1  0  0  0  0
  7 10  2  0  0  0  0
  8  9  1  0  0  0  0
  8 13  1  0  0  0  0
  9 11  1  0  0  0  0
  9 19  2  0  0  0  0
 10 14  1  0  0  0  0
 10 15  1  0  0  0  0
 11 12  1  0  0  0  0
 13 17  1  0  0  0  0
 13 20  2  0  0  0  0
 15 16  2  0  0  0  0
 15 17  1  0  0  0  0
 17 18  1  0  0  0  0
 19 21  1  0  0  0  0
 19 23  1  0  0  0  0
 21 22  2  0  0  0  0
 23 24  2  0  0  0  0
 24 25  1  0  0  0  0
 24 26  1  0  0  0  0
 25 22  1  6  0  0  0
 25 27  1  0  0  0  0
 26 29  1  0  0  0  0
 26 33  2  0  0  0  0
 27 28  2  0  0  0  0
 28 30  1  0  0  0  0
 28 33  1  0  0  0  0
 30 31  1  0  0  0  0
 30 32  2  0  0  0  0
 31 34  1  0  0  0  0
 32 35  1  0  0  0  0
 32 36  1  0  0  0  0
M  END
$$$$

 OpenBabel10082411353D

 36 39  0  0  0  0  0  0  0  0999 V2000
   11.6836    6.0105   -4.8831 F   0  0  0  0  0  0  0  0  0  0  0  0
   11.2562    7.2206   -5.0294 C   0  0  0  0  0  0  0  0  0  0  0  0
   12.0125    8.2418   -4.4408 C   0  0  0  0  0  0  0  0  0  0  0  0
   11.1918    7.2706   -6.5237 C   0  0  0  0  0  0  0  0  0  0  0  0
   11.6999    8.4488   -3.1704 F   0  0  0  0  0  0  0  0  0  0  0  0
    9.8648    7.0908   -4.5314 F   0  0  0  0  0  0  0  0  0  0  0  0
   11.6831    8.5291   -6.9682 C   0  0  0  0  0  0  0  0  0  0  0  0
   10.4785    6.5189   -7.4033 C   0  0  0  0  0  0  0  0  0  0  0  0
   11.6979    8.6661   -8.4760 C   0  0  0  0  0  0  0  0  0  0  0  0
   11.6248    9.5853   -5.0030 C   0  0  0  0  0  0  0  0  0  0  0  0
   11.8604    9.7907   -6.2903 O   0  0  0  0  0  0  0  0  0  0  0  0
   13.3557    8.1748   -4.5947 F   0  0  0  0  0  0  0  0  0  0  0  0
   10.5427    6.6061   -8.7190 C   0  0  0  0  0  0  0  0  0  0  0  0
   11.1158    7.7103   -9.2540 C   0  0  0  0  0  0  0  0  0  0  0  0
   11.3757    7.6656  -10.5293 N   0  0  0  0  0  0  0  0  0  0  0  0
   10.7153    7.7096  -11.5405 C   0  0  0  0  0  0  0  0  0  0  0  0
   11.2483    7.4711  -12.8542 C   0  0  0  0  0  0  0  0  0  0  0  0
    9.3980    7.7820  -11.5398 C   0  0  0  0  0  0  0  0  0  0  0  0
    8.6055    7.5889  -12.6525 C   0  0  0  0  0  0  0  0  0  0  0  0
   12.7508    7.3705  -13.0162 O   0  0  0  0  0  0  0  0  0  0  0  0
   10.5299    7.1831  -13.9856 C   0  0  0  0  0  0  0  0  0  0  0  0
    7.0533    7.7371  -12.5396 C   0  0  0  0  0  0  0  0  0  0  0  0
   11.2041    6.8490  -15.2304 C   0  0  0  0  0  0  0  0  0  0  0  0
   11.6393    5.5333  -15.3864 C   0  0  0  0  0  0  0  0  0  0  0  0
    9.1955    7.2935  -13.8301 C   0  0  0  0  0  0  0  0  0  0  0  0
   12.5294    5.1116  -16.1609 C   0  0  0  0  0  0  0  0  0  0  0  0
   11.2315    4.4703  -14.3200 C   0  0  0  0  0  0  0  0  0  0  0  0
   13.0194    6.0876  -17.1697 C   0  0  0  0  0  0  0  0  0  0  0  0
   12.3991    7.3271  -17.2011 C   0  0  0  0  0  0  0  0  0  0  0  0
   11.6234    7.7212  -16.1065 C   0  0  0  0  0  0  0  0  0  0  0  0
    6.8111    8.8557  -12.1311 F   0  0  0  0  0  0  0  0  0  0  0  0
   10.8102    3.2283  -14.9058 C   0  0  0  0  0  0  0  0  0  0  0  0
    6.6972    6.7510  -12.0273 F   0  0  0  0  0  0  0  0  0  0  0  0
    6.5152    7.8544  -13.7971 F   0  0  0  0  0  0  0  0  0  0  0  0
    9.7232    2.6318  -14.1983 C   0  0  0  0  0  0  0  0  0  0  0  0
    8.8268    3.4367  -13.6505 C   0  0  0  0  0  0  0  0  0  0  0  0
  1  2  1  0  0  0  0
  2  3  1  0  0  0  0
  2  4  1  0  0  0  0
  2  6  1  0  0  0  0
  3  5  1  0  0  0  0
  3 10  1  0  0  0  0
  3 12  1  0  0  0  0
  4  7  1  0  0  0  0
  4  8  2  0  0  0  0
  7  9  2  0  0  0  0
  7 11  1  0  0  0  0
  8 13  1  0  0  0  0
  9 14  1  0  0  0  0
 10 11  1  0  0  0  0
 13 14  2  0  0  0  0
 14 15  1  0  0  0  0
 15 16  1  0  0  0  0
 16 17  1  0  0  0  0
 16 18  2  0  0  0  0
 17 20  1  0  0  0  0
 17 21  2  0  0  0  0
 18 19  1  0  0  0  0
 19 22  1  0  0  0  0
 19 25  2  0  0  0  0
 21 23  1  0  0  0  0
 21 25  1  0  0  0  0
 22 31  1  0  0  0  0
 22 33  1  0  0  0  0
 22 34  1  0  0  0  0
 23 24  1  0  0  0  0
 23 30  2  0  0  0  0
 24 26  2  0  0  0  0
 24 27  1  0  0  0  0
 26 28  1  0  0  0  0
 27 32  1  0  0  0  0
 28 29  2  0  0  0  0
 29 30  1  0  0  0  0
 32 35  1  0  0  0  0
 35 36  1  0  0  0  0
M  END
$$$$

 OpenBabel10082411353D

 36 42  0  0  0  0  0  0  0  0999 V2000
   12.8881    8.7759   -3.5681 C   0  0  0  0  0  0  0  0  0  0  0  0
   11.9416    9.4732   -4.1220 C   0  0  0  0  0  0  0  0  0  0  0  0
   12.3556    7.6012   -2.6527 C   0  0  0  0  0  0  0  0  0  0  0  0
   11.8805    9.3400   -5.6557 C   0  0  0  0  0  0  0  0  0  0  0  0
   11.7716    6.5414   -3.3821 C   0  0  0  0  0  0  0  0  0  0  0  0
   10.8523    8.6585   -6.3310 C   0  0  0  0  0  0  0  0  0  0  0  0
   11.1142    8.2520   -7.7289 C   0  0  0  0  0  0  0  0  0  0  0  0
   10.0478    7.6568   -8.4887 C   0  0  0  0  0  0  0  0  0  0  0  0
   12.3648    8.4339   -8.3703 C   0  0  0  0  0  0  0  0  0  0  0  0
   12.6142    8.1352   -9.7322 C   0  0  0  0  0  0  0  0  0  0  0  0
   10.2852    7.3833   -9.9138 C   0  0  0  0  0  0  0  0  0  0  0  0
   11.5161    7.5808  -10.4860 C   0  0  0  0  0  0  0  0  0  0  0  0
   11.6641    7.2285  -11.8174 O   0  0  0  0  0  0  0  0  0  0  0  0
   10.8624    6.4419  -12.4395 C   0  0  0  0  0  0  0  0  0  0  0  0
   11.2693    5.8267  -13.4966 C   0  0  0  0  0  0  0  0  0  0  0  0
    9.5259    6.2192  -11.9953 C   0  0  0  0  0  0  0  0  0  0  0  0
    9.2551    6.6732  -10.5921 C   0  0  2  0  0  0  0  0  0  0  0  0
    8.1388    7.5201  -10.6434 O   0  0  0  0  0  0  0  0  0  0  0  0
   12.6263    6.1828  -14.1606 C   0  0  0  0  0  0  0  0  0  0  0  0
    7.2614    7.1893  -11.7193 C   0  0  2  0  0  0  0  0  0  0  0  0
   12.6352    7.3184  -14.7782 C   0  0  0  0  0  0  0  0  0  0  0  0
    8.2277    6.2735  -12.5381 C   0  0  0  0  0  0  0  0  0  0  0  0
    7.7180    5.1928  -13.4230 C   0  0  0  0  0  0  0  0  0  0  0  0
    8.4439    4.2015  -13.9045 C   0  0  0  0  0  0  0  0  0  0  0  0
    6.9950    8.4483  -12.4502 C   0  0  0  0  0  0  0  0  0  0  0  0
    7.7472    3.2985  -14.8364 C   0  0  0  0  0  0  0  0  0  0  0  0
    9.0300    5.4319   -9.7786 C   0  0  0  0  0  0  0  0  0  0  0  0
    8.1705    1.9584  -14.6092 C   0  0  0  0  0  0  0  0  0  0  0  0
    9.3621    1.6865  -14.2893 C   0  0  0  0  0  0  0  0  0  0  0  0
    9.7363    3.9677  -13.5638 C   0  0  1  0  0  0  0  0  0  0  0  0
   10.3860    2.7957  -13.6197 C   0  0  0  0  0  0  0  0  0  0  0  0
   11.0084    4.6578  -13.9997 C   0  0  0  0  0  0  0  0  0  0  0  0
   11.8972    4.1674  -14.8848 C   0  0  0  0  0  0  0  0  0  0  0  0
   12.9727    5.1314  -15.3028 C   0  0  0  0  0  0  0  0  0  0  0  0
   13.7689    5.6844  -15.9490 N   0  0  0  0  0  0  0  0  0  0  0  0
   13.9420    7.0185  -16.0330 S   0  0  0  0  0  0  0  0  0  0  0  0
  1  2  1  0  0  0  0
  1  3  1  0  0  0  0
  2  4  1  0  0  0  0
  3  5  1  0  0  0  0
  4  6  1  0  0  0  0
  6  7  1  0  0  0  0
  7  8  1  0  0  0  0
  7  9  2  0  0  0  0
  8 11  2  0  0  0  0
  9 10  1  0  0  0  0
 10 12  2  0  0  0  0
 11 12  1  0  0  0  0
 11 17  1  0  0  0  0
 12 13  1  0  0  0  0
 13 14  1  0  0  0  0
 14 15  2  0  0  0  0
 14 16  1  0  0  0  0
 15 19  1  0  0  0  0
 15 32  1  0  0  0  0
 16 17  1  0  0  0  0
 16 22  2  0  0  0  0
 17 18  1  0  0  0  0
 17 27  1  1  0  0  0
 18 20  1  0  0  0  0
 19 21  2  0  0  0  0
 19 34  1  0  0  0  0
 20 22  1  0  0  0  0
 20 25  1  6  0  0  0
 21 36  1  0  0  0  0
 22 23  1  0  0  0  0
 23 24  2  0  0  0  0
 24 26  1  0  0  0  0
 24 30  1  0  0  0  0
 26 28  2  0  0  0  0
 28 29  1  0  0  0  0
 29 31  2  0  0  0  0
 30 31  1  6  0  0  0
 30 32  1  0  0  0  0
 32 33  2  0  0  0  0
 33 34  1  0  0  0  0
 34 35  2  0  0  0  0
 35 36  1  0  0  0  0
M  END
$$$$

 OpenBabel10082411353D

 36 45  0  0  0  0  0  0  0  0999 V2000
    8.0806    9.0240  -12.7589 C   0  0  0  0  0  0  0  0  0  0  0  0
    8.6514    7.8645  -12.2948 C   0  0  0  0  0  0  0  0  0  0  0  0
    9.9575    7.9974  -11.8426 C   0  0  0  0  0  0  0  0  0  0  0  0
   10.7657    6.8667  -11.6050 C   0  0  1  0  0  0  0  0  0  0  0  0
   10.7682    5.9590  -12.8271 C   0  0  0  0  0  0  0  0  0  0  0  0
   12.1553    7.3846  -11.2315 C   0  0  0  0  0  0  0  0  0  0  0  0
    8.0676    6.6451  -12.2974 C   0  0  0  0  0  0  0  0  0  0  0  0
   10.1892    6.1240  -10.3860 C   0  0  0  0  0  0  0  0  0  0  0  0
   11.8375    5.4373  -13.3240 O   0  0  0  0  0  0  0  0  0  0  0  0
    8.6785    5.4761  -13.0273 C   0  0  1  0  0  0  0  0  0  0  0  0
    9.1969    5.2405  -10.4969 C   0  0  1  0  0  0  0  0  0  0  0  0
    7.2213    6.2210  -11.3074 C   0  0  1  0  0  0  0  0  0  0  0  0
   12.5590    7.6872   -9.9896 C   0  0  0  0  0  0  0  0  0  0  0  0
    9.7633    5.0333  -12.9720 C   0  0  1  0  0  0  0  0  0  0  0  0
   10.0661    4.0167  -14.0373 N   0  0  0  0  0  0  0  0  0  0  0  0
   13.6906    8.3004   -9.6233 O   0  0  0  0  0  0  0  0  0  0  0  0
    7.6357    4.5123  -12.6317 C   0  0  2  0  0  0  0  0  0  0  0  0
    6.8831    4.9171  -11.7031 C   0  0  1  0  0  0  0  0  0  0  0  0
   10.5937    6.6967   -9.1779 C   0  0  0  0  0  0  0  0  0  0  0  0
    9.5087    4.3263  -11.6925 C   0  0  2  0  0  0  0  0  0  0  0  0
   11.6359    7.4449   -8.9125 C   0  0  0  0  0  0  0  0  0  0  0  0
   11.9716    7.9159   -7.6200 C   0  0  0  0  0  0  0  0  0  0  0  0
    8.4648    3.6122  -12.2840 C   0  0  2  0  0  0  0  0  0  0  0  0
    9.3128    4.5571   -9.1689 C   0  0  0  0  0  0  0  0  0  0  0  0
   10.9557    7.6369   -6.5929 C   0  0  0  0  0  0  0  0  0  0  0  0
    9.6490    2.8108  -13.7776 C   0  0  0  0  0  0  0  0  0  0  0  0
   10.2419    1.7839  -14.4904 O   0  0  0  0  0  0  0  0  0  0  0  0
    9.8235    6.3429   -8.0308 C   0  0  0  0  0  0  0  0  0  0  0  0
    8.5421    2.5419  -13.1600 C   0  0  0  0  0  0  0  0  0  0  0  0
   10.0139    6.8647   -6.7816 C   0  0  0  0  0  0  0  0  0  0  0  0
    8.9641    5.2626   -8.0936 N   0  0  0  0  0  0  0  0  0  0  0  0
    7.9178    5.6594  -10.4374 C   0  0  1  0  0  0  0  0  0  0  0  0
   11.2467    8.3685   -5.1947 C   0  0  0  0  0  0  0  0  0  0  0  0
   12.0651    7.7023   -4.3308 C   0  0  0  0  0  0  0  0  0  0  0  0
   11.5272    6.3003   -4.0754 C   0  0  0  0  0  0  0  0  0  0  0  0
   12.2310    8.7206   -3.1550 C   0  0  0  0  0  0  0  0  0  0  0  0
  1  2  1  0  0  0  0
  2  3  1  0  0  0  0
  2  7  2  0  0  0  0
  4  3  1  6  0  0  0
  4  5  1  0  0  0  0
  4  6  1  0  0  0  0
  4  8  1  0  0  0  0
  5  9  2  0  0  0  0
  6 13  1  0  0  0  0
  8 11  1  0  0  0  0
  8 19  2  0  0  0  0
 10  7  1  1  0  0  0
 10 14  1  0  0  0  0
 10 17  1  0  0  0  0
 11 20  1  0  0  0  0
 11 24  1  1  0  0  0
 11 32  1  0  0  0  0
 12  7  1  6  0  0  0
 12 18  1  0  0  0  0
 12 32  1  0  0  0  0
 13 16  2  0  0  0  0
 13 21  1  0  0  0  0
 14  5  1  1  0  0  0
 14 15  1  0  0  0  0
 14 20  1  0  0  0  0
 15 26  1  0  0  0  0
 17 18  1  0  0  0  0
 17 23  1  0  0  0  0
 18 32  1  0  0  0  0
 19 21  1  0  0  0  0
 19 28  1  0  0  0  0
 20 23  1  0  0  0  0
 21 22  2  0  0  0  0
 22 25  1  0  0  0  0
 23 29  1  0  0  0  0
 24 31  1  0  0  0  0
 25 30  2  0  0  0  0
 25 33  1  0  0  0  0
 26 27  2  0  0  0  0
 26 29  1  0  0  0  0
 28 30  1  0  0  0  0
 28 31  2  0  0  0  0
 33 34  1  0  0  0  0
 34 35  1  0  0  0  0
 34 36  1  0  0  0  0
M  END
$$$$

 OpenBabel10082411353D

 36 39  0  0  0  0  0  0  0  0999 V2000
   10.9951    9.9694   -4.9946 C   0  0  0  0  0  0  0  0  0  0  0  0
   11.7938    9.3762   -4.2463 C   0  0  0  0  0  0  0  0  0  0  0  0
   10.8673    9.4548   -6.4276 C   0  0  0  0  0  0  0  0  0  0  0  0
   11.6576    7.9117   -4.2944 C   0  0  0  0  0  0  0  0  0  0  0  0
   10.5498    8.0257   -6.4521 C   0  0  0  0  0  0  0  0  0  0  0  0
   11.4715    7.2752   -5.6166 C   0  0  0  0  0  0  0  0  0  0  0  0
   10.5840    7.5390   -7.9254 C   0  0  0  0  0  0  0  0  0  0  0  0
   11.4612    8.1494   -8.8322 C   0  0  0  0  0  0  0  0  0  0  0  0
   12.6250    8.6294   -8.4338 O   0  0  0  0  0  0  0  0  0  0  0  0
   11.0835    8.4395  -10.0740 O   0  0  0  0  0  0  0  0  0  0  0  0
   11.2938    7.5612  -11.0769 C   0  0  0  0  0  0  0  0  0  0  0  0
   10.1547    7.2525  -11.9492 C   0  0  0  0  0  0  0  0  0  0  0  0
   10.4293    6.5622  -13.1348 C   0  0  0  0  0  0  0  0  0  0  0  0
   11.7295    6.4217  -13.6243 C   0  0  0  0  0  0  0  0  0  0  0  0
    8.8120    7.3918  -11.4649 C   0  0  0  0  0  0  0  0  0  0  0  0
   12.5351    7.8894  -11.6869 C   0  0  0  0  0  0  0  0  0  0  0  0
   13.5778    8.4243  -10.9673 O   0  0  0  0  0  0  0  0  0  0  0  0
    7.7211    7.1761  -12.4323 C   0  0  0  0  0  0  0  0  0  0  0  0
   12.8103    7.0723  -12.8897 C   0  0  0  0  0  0  0  0  0  0  0  0
    7.0543    5.9667  -12.3369 C   0  0  0  0  0  0  0  0  0  0  0  0
    7.2392    8.1844  -13.1320 C   0  0  0  0  0  0  0  0  0  0  0  0
    6.6882    5.3848  -13.5016 O   0  0  0  0  0  0  0  0  0  0  0  0
    6.5103    5.5543  -11.3870 O   0  0  0  0  0  0  0  0  0  0  0  0
    7.4031    4.0506  -13.7852 C   0  0  0  0  0  0  0  0  0  0  0  0
   11.9567    5.7137  -14.8744 C   0  0  0  0  0  0  0  0  0  0  0  0
    8.6219    3.9611  -14.1988 C   0  0  0  0  0  0  0  0  0  0  0  0
   12.1624    6.4252  -15.8904 C   0  0  0  0  0  0  0  0  0  0  0  0
    9.4613    3.0640  -13.5563 C   0  0  0  0  0  0  0  0  0  0  0  0
   12.1556    4.2801  -14.7975 C   0  0  0  0  0  0  0  0  0  0  0  0
   12.3902    5.6468  -17.1373 C   0  0  0  0  0  0  0  0  0  0  0  0
   12.6050    6.4725  -18.3183 C   0  0  0  0  0  0  0  0  0  0  0  0
   11.6103    7.1141  -18.6176 O   0  0  0  0  0  0  0  0  0  0  0  0
   12.4663    4.3131  -17.2640 C   0  0  0  0  0  0  0  0  0  0  0  0
   11.8092    3.4669  -13.6386 C   0  0  0  0  0  0  0  0  0  0  0  0
   12.2857    3.6363  -15.9615 C   0  0  0  0  0  0  0  0  0  0  0  0
   10.6532    2.5516  -13.8156 N   0  0  0  0  0  0  0  0  0  0  0  0
  1  2  1  0  0  0  0
  1  3  1  0  0  0  0
  2  4  1  0  0  0  0
  3  5  1  0  0  0  0
  4  6  1  0  0  0  0
  5  6  1  0  0  0  0
  5  7  1  0  0  0  0
  7  8  1  0  0  0  0
  8  9  2  0  0  0  0
  8 10  1  0  0  0  0
 10 11  1  0  0  0  0
 11 12  1  0  0  0  0
 11 16  2  0  0  0  0
 12 13  2  0  0  0  0
 12 15  1  0  0  0  0
 13 14  1  0  0  0  0
 14 19  2  0  0  0  0
 14 25  1  0  0  0  0
 15 18  1  0  0  0  0
 16 17  1  0  0  0  0
 16 19  1  0  0  0  0
 18 20  1  0  0  0  0
 18 21  2  0  0  0  0
 20 22  1  0  0  0  0
 20 23  2  0  0  0  0
 22 24  1  0  0  0  0
 24 26  1  0  0  0  0
 25 27  2  0  0  0  0
 25 29  1  0  0  0  0
 26 28  1  0  0  0  0
 27 30  1  0  0  0  0
 28 36  1  0  0  0  0
 29 34  1  0  0  0  0
 29 35  2  0  0  0  0
 30 31  1  0  0  0  0
 30 33  2  0  0  0  0
 31 32  1  0  0  0  0
 33 35  1  0  0  0  0
 34 36  1  0  0  0  0
M  END
$$$$

 OpenBabel10082411353D

 37 44  0  0  0  0  0  0  0  0999 V2000
   12.7863    7.8241  -14.2109 C   0  0  0  0  0  0  0  0  0  0  0  0
   12.4233    7.7158  -13.0289 C   0  0  0  0  0  0  0  0  0  0  0  0
   11.3194    6.8571  -12.8028 C   0  0  0  0  0  0  0  0  0  0  0  0
   12.3150    7.2021  -15.3582 C   0  0  0  0  0  0  0  0  0  0  0  0
   11.2733    6.2739  -15.1502 C   0  0  0  0  0  0  0  0  0  0  0  0
   10.8099    6.0126  -13.8600 C   0  0  0  0  0  0  0  0  0  0  0  0
    9.6782    5.1428  -13.6488 C   0  0  0  0  0  0  0  0  0  0  0  0
    8.5753    5.3880  -12.9589 N   0  0  0  0  0  0  0  0  0  0  0  0
    8.3226    6.7011  -12.3862 C   0  0  0  0  0  0  0  0  0  0  0  0
    9.8502    3.8578  -14.0728 C   0  0  0  0  0  0  0  0  0  0  0  0
    7.3864    7.4720  -13.0530 C   0  0  0  0  0  0  0  0  0  0  0  0
    6.2412    7.8486  -12.2599 C   0  0  0  0  0  0  0  0  0  0  0  0
    7.6425    4.4186  -12.7943 C   0  0  0  0  0  0  0  0  0  0  0  0
   11.0297    3.2482  -14.8053 C   0  0  0  0  0  0  0  0  0  0  0  0
    8.6802    2.8955  -13.7960 C   0  0  0  0  0  0  0  0  0  0  0  0
    8.8565    1.5917  -14.3582 O   0  0  0  0  0  0  0  0  0  0  0  0
    7.6903    3.2226  -13.1994 N   0  0  0  0  0  0  0  0  0  0  0  0
    6.5724    2.3444  -12.8378 C   0  0  0  0  0  0  0  0  0  0  0  0
    9.0225    7.0353  -11.3259 C   0  0  0  0  0  0  0  0  0  0  0  0
    6.2405    4.8489  -12.4515 C   0  0  0  0  0  0  0  0  0  0  0  0
   10.5875    7.0617  -11.5321 C   0  0  0  0  0  0  0  0  0  0  0  0
   11.0960    7.6093  -10.4100 C   0  0  0  0  0  0  0  0  0  0  0  0
    8.4039    7.3336  -10.1102 C   0  0  0  0  0  0  0  0  0  0  0  0
   10.6086    7.8156   -9.1888 C   0  0  0  0  0  0  0  0  0  0  0  0
    9.3113    7.5527   -9.2022 C   0  0  0  0  0  0  0  0  0  0  0  0
    5.5868    3.4174  -12.3561 C   0  0  0  0  0  0  0  0  0  0  0  0
    8.7252    7.9330   -7.6242 C   0  0  0  0  0  0  0  0  0  0  0  0
   11.1859    8.0862   -7.9601 C   0  0  0  0  0  0  0  0  0  0  0  0
   12.7495    8.2704   -8.0174 C   0  0  0  0  0  0  0  0  0  0  0  0
   10.4493    8.2542   -6.7750 C   0  0  2  0  0  0  0  0  0  0  0  0
    9.2142    8.3462   -6.7539 C   0  0  0  0  0  0  0  0  0  0  0  0
   11.4483    9.0676   -5.7294 C   0  0  2  0  0  0  0  0  0  0  0  0
   10.5479    6.9328   -5.7137 C   0  0  0  0  0  0  0  0  0  0  0  0
   11.5948    8.6095   -4.3991 C   0  0  0  0  0  0  0  0  0  0  0  0
   10.8878   10.5038   -5.5996 C   0  0  0  0  0  0  0  0  0  0  0  0
   12.8895    9.2655   -6.3616 C   0  0  0  0  0  0  0  0  0  0  0  0
   11.3345    7.1943   -4.4300 C   0  0  0  0  0  0  0  0  0  0  0  0
  1  2  2  0  0  0  0
  1  4  1  0  0  0  0
  2  3  1  0  0  0  0
  3  6  2  0  0  0  0
  3 21  1  0  0  0  0
  4  5  2  0  0  0  0
  5  6  1  0  0  0  0
  6  7  1  0  0  0  0
  7  8  1  0  0  0  0
  7 10  2  0  0  0  0
  8  9  1  0  0  0  0
  8 13  1  0  0  0  0
  9 11  1  0  0  0  0
  9 19  2  0  0  0  0
 10 14  1  0  0  0  0
 10 15  1  0  0  0  0
 11 12  1  0  0  0  0
 13 17  1  0  0  0  0
 13 20  2  0  0  0  0
 15 16  2  0  0  0  0
 15 17  1  0  0  0  0
 17 18  1  0  0  0  0
 18 26  2  0  0  0  0
 19 21  1  0  0  0  0
 19 23  1  0  0  0  0
 20 26  1  0  0  0  0
 21 22  2  0  0  0  0
 22 24  1  0  0  0  0
 23 25  2  0  0  0  0
 24 25  1  0  0  0  0
 24 28  2  0  0  0  0
 25 27  1  0  0  0  0
 27 31  2  0  0  0  0
 28 29  1  0  0  0  0
 28 30  1  0  0  0  0
 29 36  2  0  0  0  0
 30 31  1  6  0  0  0
 30 32  1  0  0  0  0
 30 33  1  0  0  0  0
 32 34  1  0  0  0  0
 32 35  1  1  0  0  0
 32 36  1  0  0  0  0
 33 37  1  0  0  0  0
 34 37  1  0  0  0  0
M  END
$$$$

 OpenBabel10082411353D

 37 44  0  0  0  0  0  0  0  0999 V2000
    8.0806    9.0240  -12.7589 C   0  0  0  0  0  0  0  0  0  0  0  0
    8.6514    7.8645  -12.2948 C   0  0  0  0  0  0  0  0  0  0  0  0
    9.9575    7.9974  -11.8426 C   0  0  0  0  0  0  0  0  0  0  0  0
   10.7657    6.8667  -11.6050 C   0  0  1  0  0  0  0  0  0  0  0  0
   10.7682    5.9590  -12.8271 C   0  0  0  0  0  0  0  0  0  0  0  0
   12.1553    7.3846  -11.2315 C   0  0  0  0  0  0  0  0  0  0  0  0
    8.0676    6.6451  -12.2974 C   0  0  0  0  0  0  0  0  0  0  0  0
   10.1892    6.1240  -10.3860 C   0  0  0  0  0  0  0  0  0  0  0  0
   11.8375    5.4373  -13.3240 O   0  0  0  0  0  0  0  0  0  0  0  0
    8.6785    5.4761  -13.0273 C   0  0  1  0  0  0  0  0  0  0  0  0
    9.1969    5.2405  -10.4969 C   0  0  1  0  0  0  0  0  0  0  0  0
    7.2213    6.2210  -11.3074 C   0  0  0  0  0  0  0  0  0  0  0  0
   12.5590    7.6872   -9.9896 C   0  0  0  0  0  0  0  0  0  0  0  0
    9.7633    5.0333  -12.9720 C   0  0  1  0  0  0  0  0  0  0  0  0
   10.0661    4.0167  -14.0373 N   0  0  0  0  0  0  0  0  0  0  0  0
   13.6906    8.3004   -9.6233 O   0  0  0  0  0  0  0  0  0  0  0  0
    7.6357    4.5123  -12.6317 C   0  0  2  0  0  0  0  0  0  0  0  0
    6.8831    4.9171  -11.7031 C   0  0  0  0  0  0  0  0  0  0  0  0
   10.5937    6.6967   -9.1779 C   0  0  0  0  0  0  0  0  0  0  0  0
    9.5087    4.3263  -11.6925 C   0  0  2  0  0  0  0  0  0  0  0  0
   11.6359    7.4449   -8.9125 C   0  0  0  0  0  0  0  0  0  0  0  0
   11.9716    7.9159   -7.6200 C   0  0  0  0  0  0  0  0  0  0  0  0
    8.4648    3.6122  -12.2840 C   0  0  2  0  0  0  0  0  0  0  0  0
    9.3128    4.5571   -9.1689 C   0  0  0  0  0  0  0  0  0  0  0  0
   10.9557    7.6369   -6.5929 C   0  0  2  0  0  0  0  0  0  0  0  0
    9.6490    2.8108  -13.7776 C   0  0  1  0  0  0  0  0  0  0  0  0
    9.6716    6.1981   -8.0224 C   0  0  2  0  0  0  0  0  0  0  0  0
    8.5511    2.5400  -13.1402 C   0  0  0  0  0  0  0  0  0  0  0  0
    9.7877    2.0302  -15.0383 O   0  0  0  0  0  0  0  0  0  0  0  0
   10.2949    6.3957   -6.8142 C   0  0  0  0  0  0  0  0  0  0  0  0
   10.0248    8.9234   -6.5076 C   0  0  0  0  0  0  0  0  0  0  0  0
   11.5333    7.8194   -5.1272 C   0  0  0  0  0  0  0  0  0  0  0  0
    8.7519    3.1892   -9.1734 C   0  0  0  0  0  0  0  0  0  0  0  0
    9.3611    5.0979   -8.0224 C   0  0  0  0  0  0  0  0  0  0  0  0
   11.7263    6.8814   -4.4811 O   0  0  0  0  0  0  0  0  0  0  0  0
   12.0426    9.0610   -4.7330 O   0  0  0  0  0  0  0  0  0  0  0  0
   13.2698    9.3643   -4.1124 C   0  0  0  0  0  0  0  0  0  0  0  0
  1  2  1  0  0  0  0
  2  3  1  0  0  0  0
  2  7  2  0  0  0  0
  4  3  1  6  0  0  0
  4  5  1  0  0  0  0
  4  6  1  0  0  0  0
  4  8  1  0  0  0  0
  5  9  2  0  0  0  0
  6 13  1  0  0  0  0
  7 12  1  0  0  0  0
  8 19  2  0  0  0  0
 10  7  1  1  0  0  0
 10 14  1  0  0  0  0
 10 17  1  0  0  0  0
 11  8  1  1  0  0  0
 11 20  1  0  0  0  0
 11 24  1  0  0  0  0
 12 18  1  0  0  0  0
 13 16  2  0  0  0  0
 13 21  1  0  0  0  0
 14  5  1  1  0  0  0
 14 15  1  0  0  0  0
 14 20  1  0  0  0  0
 15 26  1  0  0  0  0
 17 18  1  1  0  0  0
 17 23  1  0  0  0  0
 19 21  1  0  0  0  0
 19 27  1  0  0  0  0
 20 23  1  0  0  0  0
 21 22  2  0  0  0  0
 22 25  1  0  0  0  0
 23 28  1  0  0  0  0
 24 33  2  0  0  0  0
 24 34  1  0  0  0  0
 25 30  1  0  0  0  0
 25 31  1  0  0  0  0
 25 32  1  0  0  0  0
 26 28  1  0  0  0  0
 26 29  1  0  0  0  0
 27 30  1  0  0  0  0
 27 34  1  0  0  0  0
 32 35  2  0  0  0  0
 32 36  1  0  0  0  0
 36 37  1  0  0  0  0
M  END
$$$$

 OpenBabel10082411353D

 37 40  0  0  0  0  0  0  0  0999 V2000
   10.9951    9.9694   -4.9946 C   0  0  0  0  0  0  0  0  0  0  0  0
   11.7938    9.3762   -4.2463 C   0  0  0  0  0  0  0  0  0  0  0  0
   10.8673    9.4548   -6.4276 C   0  0  0  0  0  0  0  0  0  0  0  0
   11.6576    7.9117   -4.2944 C   0  0  0  0  0  0  0  0  0  0  0  0
   10.5498    8.0257   -6.4521 C   0  0  0  0  0  0  0  0  0  0  0  0
   11.4715    7.2752   -5.6166 C   0  0  0  0  0  0  0  0  0  0  0  0
   10.5840    7.5390   -7.9254 C   0  0  0  0  0  0  0  0  0  0  0  0
   11.4612    8.1494   -8.8322 C   0  0  0  0  0  0  0  0  0  0  0  0
   12.6250    8.6294   -8.4338 O   0  0  0  0  0  0  0  0  0  0  0  0
   11.0835    8.4395  -10.0740 O   0  0  0  0  0  0  0  0  0  0  0  0
   11.2938    7.5612  -11.0769 C   0  0  0  0  0  0  0  0  0  0  0  0
   10.1547    7.2525  -11.9492 C   0  0  0  0  0  0  0  0  0  0  0  0
   10.4293    6.5622  -13.1348 C   0  0  0  0  0  0  0  0  0  0  0  0
   11.7295    6.4217  -13.6243 C   0  0  0  0  0  0  0  0  0  0  0  0
    8.8120    7.3918  -11.4649 C   0  0  0  0  0  0  0  0  0  0  0  0
   12.5351    7.8894  -11.6869 C   0  0  0  0  0  0  0  0  0  0  0  0
   13.5778    8.4243  -10.9673 O   0  0  0  0  0  0  0  0  0  0  0  0
    7.7211    7.1761  -12.4323 C   0  0  0  0  0  0  0  0  0  0  0  0
   12.8103    7.0723  -12.8897 C   0  0  0  0  0  0  0  0  0  0  0  0
    7.0543    5.9667  -12.3369 C   0  0  0  0  0  0  0  0  0  0  0  0
    7.2392    8.1844  -13.1320 C   0  0  0  0  0  0  0  0  0  0  0  0
    6.6882    5.3848  -13.5016 O   0  0  0  0  0  0  0  0  0  0  0  0
    6.5103    5.5543  -11.3870 O   0  0  0  0  0  0  0  0  0  0  0  0
    7.4031    4.0506  -13.7852 C   0  0  0  0  0  0  0  0  0  0  0  0
   11.9567    5.7137  -14.8744 C   0  0  0  0  0  0  0  0  0  0  0  0
    8.6219    3.9611  -14.1988 C   0  0  0  0  0  0  0  0  0  0  0  0
   12.1624    6.4252  -15.8904 C   0  0  0  0  0  0  0  0  0  0  0  0
    9.4613    3.0640  -13.5563 C   0  0  0  0  0  0  0  0  0  0  0  0
   12.1556    4.2801  -14.7975 C   0  0  0  0  0  0  0  0  0  0  0  0
   12.3902    5.6468  -17.1373 C   0  0  0  0  0  0  0  0  0  0  0  0
   12.6050    6.4725  -18.3183 C   0  0  0  0  0  0  0  0  0  0  0  0
   11.6103    7.1141  -18.6176 O   0  0  0  0  0  0  0  0  0  0  0  0
   13.5946    6.4767  -18.9680 O   0  0  0  0  0  0  0  0  0  0  0  0
   10.5926    2.5337  -14.4158 C   0  0  0  0  0  0  0  0  0  0  0  0
   11.7992    3.5511  -15.8958 C   0  0  0  0  0  0  0  0  0  0  0  0
   12.1385    4.3340  -17.2583 C   0  0  0  0  0  0  0  0  0  0  0  0
   10.9294    2.3225  -15.6593 C   0  0  0  0  0  0  0  0  0  0  0  0
  1  2  1  0  0  0  0
  1  3  1  0  0  0  0
  2  4  1  0  0  0  0
  3  5  1  0  0  0  0
  4  6  1  0  0  0  0
  5  6  1  0  0  0  0
  5  7  1  0  0  0  0
  7  8  1  0  0  0  0
  8  9  2  0  0  0  0
  8 10  1  0  0  0  0
 10 11  1  0  0  0  0
 11 12  1  0  0  0  0
 11 16  2  0  0  0  0
 12 13  2  0  0  0  0
 12 15  1  0  0  0  0
 13 14  1  0  0  0  0
 14 19  2  0  0  0  0
 14 25  1  0  0  0  0
 15 18  1  0  0  0  0
 16 17  1  0  0  0  0
 16 19  1  0  0  0  0
 18 20  1  0  0  0  0
 18 21  2  0  0  0  0
 20 22  1  0  0  0  0
 20 23  2  0  0  0  0
 22 24  1  0  0  0  0
 24 26  1  0  0  0  0
 25 27  2  0  0  0  0
 25 29  1  0  0  0  0
 26 28  1  0  0  0  0
 27 30  1  0  0  0  0
 28 34  1  0  0  0  0
 29 35  2  0  0  0  0
 30 31  1  0  0  0  0
 30 36  2  0  0  0  0
 31 32  1  0  0  0  0
 31 33  2  0  0  0  0
 34 37  1  0  0  0  0
 35 36  1  0  0  0  0
 35 37  1  0  0  0  0
M  END
$$$$

 OpenBabel10082411353D

 37 40  0  0  0  0  0  0  0  0999 V2000
   11.6836    6.0105   -4.8831 F   0  0  0  0  0  0  0  0  0  0  0  0
   11.2562    7.2206   -5.0294 C   0  0  0  0  0  0  0  0  0  0  0  0
   12.0125    8.2418   -4.4408 C   0  0  0  0  0  0  0  0  0  0  0  0
   11.1918    7.2706   -6.5237 C   0  0  0  0  0  0  0  0  0  0  0  0
   11.6999    8.4488   -3.1704 F   0  0  0  0  0  0  0  0  0  0  0  0
    9.8648    7.0908   -4.5314 F   0  0  0  0  0  0  0  0  0  0  0  0
   11.6831    8.5291   -6.9682 C   0  0  0  0  0  0  0  0  0  0  0  0
   10.4785    6.5189   -7.4033 C   0  0  0  0  0  0  0  0  0  0  0  0
   11.6979    8.6661   -8.4760 C   0  0  0  0  0  0  0  0  0  0  0  0
   11.6248    9.5853   -5.0030 C   0  0  0  0  0  0  0  0  0  0  0  0
   11.8604    9.7907   -6.2903 O   0  0  0  0  0  0  0  0  0  0  0  0
   13.3557    8.1748   -4.5947 F   0  0  0  0  0  0  0  0  0  0  0  0
   10.5427    6.6061   -8.7190 C   0  0  0  0  0  0  0  0  0  0  0  0
   11.1158    7.7103   -9.2540 C   0  0  0  0  0  0  0  0  0  0  0  0
   11.3757    7.6656  -10.5293 N   0  0  0  0  0  0  0  0  0  0  0  0
   10.7153    7.7096  -11.5405 C   0  0  0  0  0  0  0  0  0  0  0  0
   11.2483    7.4711  -12.8542 C   0  0  0  0  0  0  0  0  0  0  0  0
    9.3980    7.7820  -11.5398 C   0  0  0  0  0  0  0  0  0  0  0  0
    8.6055    7.5889  -12.6525 C   0  0  0  0  0  0  0  0  0  0  0  0
   12.7508    7.3705  -13.0162 O   0  0  0  0  0  0  0  0  0  0  0  0
   10.5299    7.1831  -13.9856 C   0  0  0  0  0  0  0  0  0  0  0  0
    7.0533    7.7371  -12.5396 C   0  0  0  0  0  0  0  0  0  0  0  0
   11.2041    6.8490  -15.2304 C   0  0  0  0  0  0  0  0  0  0  0  0
   11.6393    5.5333  -15.3864 C   0  0  0  0  0  0  0  0  0  0  0  0
    9.1955    7.2935  -13.8301 C   0  0  0  0  0  0  0  0  0  0  0  0
   12.5294    5.1116  -16.1609 C   0  0  0  0  0  0  0  0  0  0  0  0
   11.2315    4.4703  -14.3200 C   0  0  0  0  0  0  0  0  0  0  0  0
   13.0194    6.0876  -17.1697 C   0  0  0  0  0  0  0  0  0  0  0  0
   11.5246    3.1793  -14.7338 C   0  0  0  0  0  0  0  0  0  0  0  0
   11.0190    2.1425  -13.8182 F   0  0  0  0  0  0  0  0  0  0  0  0
   12.9231    3.9436  -16.4408 C   0  0  0  0  0  0  0  0  0  0  0  0
   14.0738    6.7479  -16.8441 O   0  0  0  0  0  0  0  0  0  0  0  0
   12.4991    6.4238  -18.2607 O   0  0  0  0  0  0  0  0  0  0  0  0
   12.3084    2.8168  -15.6553 C   0  0  0  0  0  0  0  0  0  0  0  0
    6.8059    8.8772  -12.2355 F   0  0  0  0  0  0  0  0  0  0  0  0
    6.5198    7.3003  -13.6316 F   0  0  0  0  0  0  0  0  0  0  0  0
    6.6602    6.8007  -11.5958 F   0  0  0  0  0  0  0  0  0  0  0  0
  1  2  1  0  0  0  0
  2  3  1  0  0  0  0
  2  4  1  0  0  0  0
  2  6  1  0  0  0  0
  3  5  1  0  0  0  0
  3 10  1  0  0  0  0
  3 12  1  0  0  0  0
  4  7  1  0  0  0  0
  4  8  2  0  0  0  0
  7  9  2  0  0  0  0
  7 11  1  0  0  0  0
  8 13  1  0  0  0  0
  9 14  1  0  0  0  0
 10 11  1  0  0  0  0
 13 14  2  0  0  0  0
 14 15  1  0  0  0  0
 15 16  1  0  0  0  0
 16 17  1  0  0  0  0
 16 18  2  0  0  0  0
 17 20  1  0  0  0  0
 17 21  2  0  0  0  0
 18 19  1  0  0  0  0
 19 22  1  0  0  0  0
 19 25  2  0  0  0  0
 21 23  1  0  0  0  0
 21 25  1  0  0  0  0
 22 35  1  0  0  0  0
 22 36  1  0  0  0  0
 22 37  1  0  0  0  0
 23 24  1  0  0  0  0
 24 26  2  0  0  0  0
 24 27  1  0  0  0  0
 26 28  1  0  0  0  0
 26 31  1  0  0  0  0
 27 29  2  0  0  0  0
 28 32  1  0  0  0  0
 28 33  2  0  0  0  0
 29 30  1  0  0  0  0
 29 34  1  0  0  0  0
 31 34  2  0  0  0  0
M  END
$$$$

 OpenBabel10082411353D

 25 27  0  0  0  0  0  0  0  0999 V2000
   11.9925    6.6083   -4.7728 C   0  0  0  0  0  0  0  0  0  0  0  0
   11.4477    7.7141   -5.2577 C   0  0  0  0  0  0  0  0  0  0  0  0
   12.2896    6.5964   -3.2881 C   0  0  0  0  0  0  0  0  0  0  0  0
   11.4087    8.9270   -4.5689 C   0  0  0  0  0  0  0  0  0  0  0  0
   12.2969    7.8839   -2.6254 C   0  0  0  0  0  0  0  0  0  0  0  0
   11.0621    7.5900   -6.8322 C   0  0  0  0  0  0  0  0  0  0  0  0
   11.8177    9.0160   -3.2691 C   0  0  0  0  0  0  0  0  0  0  0  0
    9.9102    8.1517   -7.1200 C   0  0  0  0  0  0  0  0  0  0  0  0
    9.6797    8.0249   -8.5601 C   0  0  0  0  0  0  0  0  0  0  0  0
   10.6774    8.4879   -9.3430 C   0  0  0  0  0  0  0  0  0  0  0  0
   10.7443    8.0718  -10.6768 C   0  0  0  0  0  0  0  0  0  0  0  0
    9.5229    7.6343  -11.2834 C   0  0  2  0  0  0  0  0  0  0  0  0
    9.6110    7.1928  -12.6640 C   0  0  2  0  0  0  0  0  0  0  0  0
    8.4667    6.4682  -13.0705 C   0  0  2  0  0  0  0  0  0  0  0  0
   10.9230    6.4426  -12.9123 C   0  0  0  0  0  0  0  0  0  0  0  0
    7.3033    6.6273  -12.3120 C   0  0  2  0  0  0  0  0  0  0  0  0
    8.4743    5.0795  -13.6054 C   0  0  0  0  0  0  0  0  0  0  0  0
    7.1149    8.0520  -12.1379 C   0  0  0  0  0  0  0  0  0  0  0  0
    8.4396    8.6556  -11.4071 C   0  0  0  0  0  0  0  0  0  0  0  0
   11.8509    7.0352  -13.7092 C   0  0  0  0  0  0  0  0  0  0  0  0
    9.2533    4.7401  -14.5617 O   0  0  0  0  0  0  0  0  0  0  0  0
    7.8760    4.1070  -12.8752 N   0  0  0  0  0  0  0  0  0  0  0  0
    6.9470    4.3856  -11.8167 C   0  0  0  0  0  0  0  0  0  0  0  0
    7.6004    2.7773  -13.4432 C   0  0  0  0  0  0  0  0  0  0  0  0
    6.6982    5.8073  -11.4907 C   0  0  0  0  0  0  0  0  0  0  0  0
  1  2  1  0  0  0  0
  1  3  2  0  0  0  0
  2  4  2  0  0  0  0
  2  6  1  0  0  0  0
  3  5  1  0  0  0  0
  4  7  1  0  0  0  0
  5  7  2  0  0  0  0
  6  8  1  0  0  0  0
  8  9  1  0  0  0  0
  9 10  1  0  0  0  0
 10 11  1  0  0  0  0
 12 11  1  6  0  0  0
 12 13  1  0  0  0  0
 12 19  1  0  0  0  0
 13 14  1  0  0  0  0
 13 15  1  1  0  0  0
 14 16  1  0  0  0  0
 14 17  1  1  0  0  0
 15 20  1  0  0  0  0
 16 18  1  1  0  0  0
 16 25  1  0  0  0  0
 17 21  2  0  0  0  0
 17 22  1  0  0  0  0
 18 19  1  0  0  0  0
 22 23  1  0  0  0  0
 22 24  1  0  0  0  0
 23 25  1  0  0  0  0
M  END
$$$$

 OpenBabel10082411353D

 37 40  0  0  0  0  0  0  0  0999 V2000
   10.9951    9.9694   -4.9946 C   0  0  0  0  0  0  0  0  0  0  0  0
   11.7938    9.3762   -4.2463 C   0  0  0  0  0  0  0  0  0  0  0  0
   10.8673    9.4548   -6.4276 C   0  0  0  0  0  0  0  0  0  0  0  0
   11.6576    7.9117   -4.2944 C   0  0  0  0  0  0  0  0  0  0  0  0
   10.5498    8.0257   -6.4521 C   0  0  0  0  0  0  0  0  0  0  0  0
   11.4715    7.2752   -5.6166 C   0  0  0  0  0  0  0  0  0  0  0  0
   10.5840    7.5390   -7.9254 C   0  0  0  0  0  0  0  0  0  0  0  0
   11.4612    8.1494   -8.8322 C   0  0  0  0  0  0  0  0  0  0  0  0
   12.6250    8.6294   -8.4338 O   0  0  0  0  0  0  0  0  0  0  0  0
   11.0835    8.4395  -10.0740 O   0  0  0  0  0  0  0  0  0  0  0  0
   11.2938    7.5612  -11.0769 C   0  0  0  0  0  0  0  0  0  0  0  0
   10.1547    7.2525  -11.9492 C   0  0  0  0  0  0  0  0  0  0  0  0
   10.4293    6.5622  -13.1348 C   0  0  0  0  0  0  0  0  0  0  0  0
   11.7295    6.4217  -13.6243 C   0  0  0  0  0  0  0  0  0  0  0  0
    8.8120    7.3918  -11.4649 C   0  0  0  0  0  0  0  0  0  0  0  0
   12.5351    7.8894  -11.6869 C   0  0  0  0  0  0  0  0  0  0  0  0
   13.5778    8.4243  -10.9673 O   0  0  0  0  0  0  0  0  0  0  0  0
    7.7211    7.1761  -12.4323 C   0  0  0  0  0  0  0  0  0  0  0  0
   12.8103    7.0723  -12.8897 C   0  0  0  0  0  0  0  0  0  0  0  0
    7.0543    5.9667  -12.3369 C   0  0  0  0  0  0  0  0  0  0  0  0
    7.2392    8.1844  -13.1320 C   0  0  0  0  0  0  0  0  0  0  0  0
    6.6882    5.3848  -13.5016 O   0  0  0  0  0  0  0  0  0  0  0  0
    6.5103    5.5543  -11.3870 O   0  0  0  0  0  0  0  0  0  0  0  0
    7.4031    4.0506  -13.7852 C   0  0  0  0  0  0  0  0  0  0  0  0
    8.6811    3.9966  -14.1333 C   0  0  0  0  0  0  0  0  0  0  0  0
   12.0732    5.6649  -14.9357 C   0  0  0  0  0  0  0  0  0  0  0  0
    6.5842    3.0104  -13.4449 C   0  0  0  0  0  0  0  0  0  0  0  0
   12.1810    6.3505  -15.9550 C   0  0  0  0  0  0  0  0  0  0  0  0
   12.4422    5.6328  -17.1718 C   0  0  0  0  0  0  0  0  0  0  0  0
    5.1615    3.1639  -12.9487 C   0  0  0  0  0  0  0  0  0  0  0  0
   12.4897    4.2439  -17.0738 C   0  0  0  0  0  0  0  0  0  0  0  0
    7.2322    1.7149  -13.5830 C   0  0  0  0  0  0  0  0  0  0  0  0
   12.1774    3.5293  -15.9456 C   0  0  0  0  0  0  0  0  0  0  0  0
    6.3950    0.6096  -13.2209 C   0  0  0  0  0  0  0  0  0  0  0  0
    8.4431    1.6963  -14.0012 C   0  0  0  0  0  0  0  0  0  0  0  0
   11.9377    4.4091  -14.6565 C   0  0  0  0  0  0  0  0  0  0  0  0
    9.2246    2.8497  -14.2453 C   0  0  0  0  0  0  0  0  0  0  0  0
  1  2  1  0  0  0  0
  1  3  1  0  0  0  0
  2  4  1  0  0  0  0
  3  5  1  0  0  0  0
  4  6  1  0  0  0  0
  5  6  1  0  0  0  0
  5  7  1  0  0  0  0
  7  8  1  0  0  0  0
  8  9  2  0  0  0  0
  8 10  1  0  0  0  0
 10 11  1  0  0  0  0
 11 12  1  0  0  0  0
 11 16  2  0  0  0  0
 12 13  2  0  0  0  0
 12 15  1  0  0  0  0
 13 14  1  0  0  0  0
 14 19  2  0  0  0  0
 14 26  1  0  0  0  0
 15 18  1  0  0  0  0
 16 17  1  0  0  0  0
 16 19  1  0  0  0  0
 18 20  1  0  0  0  0
 18 21  2  0  0  0  0
 20 22  1  0  0  0  0
 20 23  2  0  0  0  0
 22 24  1  0  0  0  0
 24 25  1  0  0  0  0
 24 27  2  0  0  0  0
 25 37  2  0  0  0  0
 26 28  2  0  0  0  0
 26 36  1  0  0  0  0
 27 30  1  0  0  0  0
 27 32  1  0  0  0  0
 28 29  1  0  0  0  0
 29 31  2  0  0  0  0
 31 33  1  0  0  0  0
 32 34  1  0  0  0  0
 32 35  2  0  0  0  0
 33 36  2  0  0  0  0
 35 37  1  0  0  0  0
M  END
$$$$

 OpenBabel10082411353D

 37 45  0  0  0  0  0  0  0  0999 V2000
    8.0806    9.0240  -12.7589 C   0  0  0  0  0  0  0  0  0  0  0  0
    8.6514    7.8645  -12.2948 C   0  0  0  0  0  0  0  0  0  0  0  0
    9.9575    7.9974  -11.8426 C   0  0  0  0  0  0  0  0  0  0  0  0
   10.7657    6.8667  -11.6050 C   0  0  1  0  0  0  0  0  0  0  0  0
   10.7682    5.9590  -12.8271 C   0  0  0  0  0  0  0  0  0  0  0  0
   12.1553    7.3846  -11.2315 C   0  0  0  0  0  0  0  0  0  0  0  0
    8.0676    6.6451  -12.2974 C   0  0  0  0  0  0  0  0  0  0  0  0
   10.1892    6.1240  -10.3860 C   0  0  0  0  0  0  0  0  0  0  0  0
   11.8375    5.4373  -13.3240 O   0  0  0  0  0  0  0  0  0  0  0  0
    8.6785    5.4761  -13.0273 C   0  0  1  0  0  0  0  0  0  0  0  0
    9.1969    5.2405  -10.4969 C   0  0  1  0  0  0  0  0  0  0  0  0
    7.2213    6.2210  -11.3074 C   0  0  1  0  0  0  0  0  0  0  0  0
   12.5590    7.6872   -9.9896 C   0  0  0  0  0  0  0  0  0  0  0  0
    9.7633    5.0333  -12.9720 C   0  0  1  0  0  0  0  0  0  0  0  0
   10.0661    4.0167  -14.0373 N   0  0  0  0  0  0  0  0  0  0  0  0
   13.6906    8.3004   -9.6233 O   0  0  0  0  0  0  0  0  0  0  0  0
    7.6357    4.5123  -12.6317 C   0  0  2  0  0  0  0  0  0  0  0  0
    6.8831    4.9171  -11.7031 C   0  0  0  0  0  0  0  0  0  0  0  0
   10.5937    6.6967   -9.1779 C   0  0  0  0  0  0  0  0  0  0  0  0
    9.5087    4.3263  -11.6925 C   0  0  2  0  0  0  0  0  0  0  0  0
   11.6359    7.4449   -8.9125 C   0  0  0  0  0  0  0  0  0  0  0  0
   11.9716    7.9159   -7.6200 C   0  0  0  0  0  0  0  0  0  0  0  0
    8.4648    3.6122  -12.2840 C   0  0  2  0  0  0  0  0  0  0  0  0
    9.3128    4.5571   -9.1689 C   0  0  0  0  0  0  0  0  0  0  0  0
   10.9557    7.6369   -6.5929 C   0  0  2  0  0  0  0  0  0  0  0  0
    9.6490    2.8108  -13.7776 C   0  0  1  0  0  0  0  0  0  0  0  0
    9.6716    6.1981   -8.0224 C   0  0  2  0  0  0  0  0  0  0  0  0
    8.5511    2.5400  -13.1402 C   0  0  0  0  0  0  0  0  0  0  0  0
    9.7877    2.0302  -15.0383 O   0  0  0  0  0  0  0  0  0  0  0  0
   10.2949    6.3957   -6.8142 C   0  0  0  0  0  0  0  0  0  0  0  0
    8.7552    3.1757   -9.1739 O   0  0  0  0  0  0  0  0  0  0  0  0
   10.0241    8.9015   -6.4644 C   0  0  0  0  0  0  0  0  0  0  0  0
   11.5641    7.7572   -5.1363 C   0  0  0  0  0  0  0  0  0  0  0  0
    9.3278    5.0059   -8.0166 N   0  0  0  0  0  0  0  0  0  0  0  0
   12.0394    9.0178   -4.6959 C   0  0  0  0  0  0  0  0  0  0  0  0
    7.9322    5.6559  -10.2312 C   0  0  0  0  0  0  0  0  0  0  0  0
   12.7861    9.1553   -3.5745 C   0  0  0  0  0  0  0  0  0  0  0  0
  1  2  1  0  0  0  0
  2  3  1  0  0  0  0
  2  7  2  0  0  0  0
  4  3  1  6  0  0  0
  4  5  1  0  0  0  0
  4  6  1  0  0  0  0
  4  8  1  0  0  0  0
  5  9  2  0  0  0  0
  6 13  1  0  0  0  0
  7 12  1  0  0  0  0
  8 11  1  0  0  0  0
  8 19  2  0  0  0  0
 10  7  1  1  0  0  0
 10 14  1  0  0  0  0
 10 17  1  0  0  0  0
 11 20  1  0  0  0  0
 11 24  1  0  0  0  0
 11 36  1  6  0  0  0
 12 18  1  6  0  0  0
 12 36  1  0  0  0  0
 13 16  2  0  0  0  0
 13 21  1  0  0  0  0
 14  5  1  1  0  0  0
 14 15  1  0  0  0  0
 14 20  1  0  0  0  0
 15 26  1  0  0  0  0
 17 18  1  1  0  0  0
 17 23  1  0  0  0  0
 19 21  1  0  0  0  0
 19 27  1  0  0  0  0
 20 23  1  0  0  0  0
 21 22  2  0  0  0  0
 22 25  1  0  0  0  0
 23 28  1  0  0  0  0
 24 31  2  0  0  0  0
 24 34  1  0  0  0  0
 25 30  1  0  0  0  0
 25 32  1  0  0  0  0
 25 33  1  0  0  0  0
 26 28  1  0  0  0  0
 26 29  1  0  0  0  0
 27 30  1  0  0  0  0
 27 34  1  0  0  0  0
 33 35  1  0  0  0  0
 35 37  1  0  0  0  0
M  END
$$$$

 OpenBabel10082411353D

 37 41  0  0  0  0  0  0  0  0999 V2000
   11.6836    6.0105   -4.8831 F   0  0  0  0  0  0  0  0  0  0  0  0
   11.2562    7.2206   -5.0294 C   0  0  0  0  0  0  0  0  0  0  0  0
   12.0125    8.2418   -4.4408 C   0  0  0  0  0  0  0  0  0  0  0  0
   11.1918    7.2706   -6.5237 C   0  0  0  0  0  0  0  0  0  0  0  0
   11.6999    8.4488   -3.1704 F   0  0  0  0  0  0  0  0  0  0  0  0
    9.8648    7.0908   -4.5314 F   0  0  0  0  0  0  0  0  0  0  0  0
   11.6831    8.5291   -6.9682 C   0  0  0  0  0  0  0  0  0  0  0  0
   10.4785    6.5189   -7.4033 C   0  0  0  0  0  0  0  0  0  0  0  0
   11.6979    8.6661   -8.4760 C   0  0  0  0  0  0  0  0  0  0  0  0
   11.6248    9.5853   -5.0030 C   0  0  0  0  0  0  0  0  0  0  0  0
   11.8604    9.7907   -6.2903 O   0  0  0  0  0  0  0  0  0  0  0  0
   13.3557    8.1748   -4.5947 F   0  0  0  0  0  0  0  0  0  0  0  0
   10.5427    6.6061   -8.7190 C   0  0  0  0  0  0  0  0  0  0  0  0
   11.1158    7.7103   -9.2540 C   0  0  0  0  0  0  0  0  0  0  0  0
   11.3757    7.6656  -10.5293 N   0  0  0  0  0  0  0  0  0  0  0  0
   10.7153    7.7096  -11.5405 C   0  0  0  0  0  0  0  0  0  0  0  0
   11.2483    7.4711  -12.8542 C   0  0  0  0  0  0  0  0  0  0  0  0
    9.3980    7.7820  -11.5398 C   0  0  0  0  0  0  0  0  0  0  0  0
    8.6055    7.5889  -12.6525 C   0  0  0  0  0  0  0  0  0  0  0  0
   12.7508    7.3705  -13.0162 O   0  0  0  0  0  0  0  0  0  0  0  0
   10.5299    7.1831  -13.9856 C   0  0  0  0  0  0  0  0  0  0  0  0
    7.0533    7.7371  -12.5396 C   0  0  0  0  0  0  0  0  0  0  0  0
   11.2041    6.8490  -15.2304 C   0  0  0  0  0  0  0  0  0  0  0  0
   11.6393    5.5333  -15.3864 C   0  0  0  0  0  0  0  0  0  0  0  0
    9.1955    7.2935  -13.8301 C   0  0  0  0  0  0  0  0  0  0  0  0
   12.5294    5.1116  -16.1609 C   0  0  0  0  0  0  0  0  0  0  0  0
   11.2315    4.4703  -14.3200 C   0  0  0  0  0  0  0  0  0  0  0  0
   13.0194    6.0876  -17.1697 C   0  0  0  0  0  0  0  0  0  0  0  0
   11.5246    3.1793  -14.7338 C   0  0  0  0  0  0  0  0  0  0  0  0
   12.2907    7.1277  -17.4891 C   0  0  0  0  0  0  0  0  0  0  0  0
   12.7931    3.6728  -16.1995 O   0  0  0  0  0  0  0  0  0  0  0  0
   11.9829    2.9644  -15.6858 C   0  0  0  0  0  0  0  0  0  0  0  0
   11.5658    7.6476  -16.2329 C   0  0  0  0  0  0  0  0  0  0  0  0
   11.9291    1.8747  -16.3751 O   0  0  0  0  0  0  0  0  0  0  0  0
    6.8003    8.8592  -12.1062 F   0  0  0  0  0  0  0  0  0  0  0  0
    6.5784    6.8710  -11.5999 F   0  0  0  0  0  0  0  0  0  0  0  0
    6.4597    7.5209  -13.7022 F   0  0  0  0  0  0  0  0  0  0  0  0
  1  2  1  0  0  0  0
  2  3  1  0  0  0  0
  2  4  1  0  0  0  0
  2  6  1  0  0  0  0
  3  5  1  0  0  0  0
  3 10  1  0  0  0  0
  3 12  1  0  0  0  0
  4  7  1  0  0  0  0
  4  8  2  0  0  0  0
  7  9  2  0  0  0  0
  7 11  1  0  0  0  0
  8 13  1  0  0  0  0
  9 14  1  0  0  0  0
 10 11  1  0  0  0  0
 13 14  2  0  0  0  0
 14 15  1  0  0  0  0
 15 16  1  0  0  0  0
 16 17  1  0  0  0  0
 16 18  2  0  0  0  0
 17 20  1  0  0  0  0
 17 21  2  0  0  0  0
 18 19  1  0  0  0  0
 19 22  1  0  0  0  0
 19 25  2  0  0  0  0
 21 23  1  0  0  0  0
 21 25  1  0  0  0  0
 22 35  1  0  0  0  0
 22 36  1  0  0  0  0
 22 37  1  0  0  0  0
 23 24  1  0  0  0  0
 23 33  2  0  0  0  0
 24 26  2  0  0  0  0
 24 27  1  0  0  0  0
 26 28  1  0  0  0  0
 26 31  1  0  0  0  0
 27 29  2  0  0  0  0
 28 30  2  0  0  0  0
 29 32  1  0  0  0  0
 30 33  1  0  0  0  0
 31 32  1  0  0  0  0
 32 34  2  0  0  0  0
M  END
$$$$

 OpenBabel10082411353D

 37 46  0  0  0  0  0  0  0  0999 V2000
    8.0806    9.0240  -12.7589 C   0  0  0  0  0  0  0  0  0  0  0  0
    8.6514    7.8645  -12.2948 C   0  0  0  0  0  0  0  0  0  0  0  0
    9.9575    7.9974  -11.8426 C   0  0  0  0  0  0  0  0  0  0  0  0
   10.7657    6.8667  -11.6050 C   0  0  1  0  0  0  0  0  0  0  0  0
   10.7682    5.9590  -12.8271 C   0  0  0  0  0  0  0  0  0  0  0  0
   12.1553    7.3846  -11.2315 C   0  0  0  0  0  0  0  0  0  0  0  0
    8.0676    6.6451  -12.2974 C   0  0  0  0  0  0  0  0  0  0  0  0
   10.1892    6.1240  -10.3860 C   0  0  0  0  0  0  0  0  0  0  0  0
   11.8375    5.4373  -13.3240 O   0  0  0  0  0  0  0  0  0  0  0  0
    8.6785    5.4761  -13.0273 C   0  0  1  0  0  0  0  0  0  0  0  0
    9.1969    5.2405  -10.4969 C   0  0  1  0  0  0  0  0  0  0  0  0
    7.2213    6.2210  -11.3074 C   0  0  1  0  0  0  0  0  0  0  0  0
   12.5590    7.6872   -9.9896 C   0  0  0  0  0  0  0  0  0  0  0  0
    9.7633    5.0333  -12.9720 C   0  0  1  0  0  0  0  0  0  0  0  0
   10.0661    4.0167  -14.0373 N   0  0  0  0  0  0  0  0  0  0  0  0
   13.6906    8.3004   -9.6233 O   0  0  0  0  0  0  0  0  0  0  0  0
    7.6357    4.5123  -12.6317 C   0  0  2  0  0  0  0  0  0  0  0  0
    6.8831    4.9171  -11.7031 C   0  0  1  0  0  0  0  0  0  0  0  0
   10.5937    6.6967   -9.1779 C   0  0  0  0  0  0  0  0  0  0  0  0
    9.5087    4.3263  -11.6925 C   0  0  2  0  0  0  0  0  0  0  0  0
   11.6359    7.4449   -8.9125 C   0  0  0  0  0  0  0  0  0  0  0  0
   11.9716    7.9159   -7.6200 C   0  0  0  0  0  0  0  0  0  0  0  0
    8.4648    3.6122  -12.2840 C   0  0  2  0  0  0  0  0  0  0  0  0
    9.3128    4.5571   -9.1689 C   0  0  0  0  0  0  0  0  0  0  0  0
   10.9557    7.6369   -6.5929 C   0  0  2  0  0  0  0  0  0  0  0  0
    9.6490    2.8108  -13.7776 C   0  0  1  0  0  0  0  0  0  0  0  0
    9.6716    6.1981   -8.0224 C   0  0  2  0  0  0  0  0  0  0  0  0
    8.5511    2.5400  -13.1402 C   0  0  0  0  0  0  0  0  0  0  0  0
    9.7877    2.0302  -15.0383 O   0  0  0  0  0  0  0  0  0  0  0  0
   10.2949    6.3957   -6.8142 C   0  0  0  0  0  0  0  0  0  0  0  0
   10.0248    8.9234   -6.5076 C   0  0  0  0  0  0  0  0  0  0  0  0
   11.5333    7.8194   -5.1272 C   0  0  0  0  0  0  0  0  0  0  0  0
    8.7519    3.1892   -9.1734 C   0  0  0  0  0  0  0  0  0  0  0  0
    9.3611    5.0979   -8.0224 C   0  0  0  0  0  0  0  0  0  0  0  0
    7.9004    5.5804  -10.3260 C   0  0  1  0  0  0  0  0  0  0  0  0
   11.7442    6.9789   -4.4692 O   0  0  0  0  0  0  0  0  0  0  0  0
   12.0360    9.1397   -4.7830 N   0  0  0  0  0  0  0  0  0  0  0  0
  1  2  1  0  0  0  0
  2  3  1  0  0  0  0
  2  7  2  0  0  0  0
  4  3  1  6  0  0  0
  4  5  1  0  0  0  0
  4  6  1  0  0  0  0
  4  8  1  0  0  0  0
  5  9  2  0  0  0  0
  6 13  1  0  0  0  0
  8 19  2  0  0  0  0
 10  7  1  1  0  0  0
 10 14  1  0  0  0  0
 10 17  1  0  0  0  0
 11  8  1  6  0  0  0
 11 20  1  0  0  0  0
 11 24  1  0  0  0  0
 11 35  1  0  0  0  0
 12  7  1  6  0  0  0
 12 18  1  0  0  0  0
 12 35  1  0  0  0  0
 13 16  2  0  0  0  0
 13 21  1  0  0  0  0
 14  5  1  1  0  0  0
 14 15  1  0  0  0  0
 14 20  1  0  0  0  0
 15 26  1  0  0  0  0
 17 18  1  0  0  0  0
 17 23  1  0  0  0  0
 18 35  1  0  0  0  0
 19 21  1  0  0  0  0
 19 27  1  0  0  0  0
 20 23  1  0  0  0  0
 21 22  2  0  0  0  0
 22 25  1  0  0  0  0
 23 28  1  0  0  0  0
 24 33  2  0  0  0  0
 24 34  1  0  0  0  0
 25 30  1  0  0  0  0
 25 31  1  0  0  0  0
 25 32  1  0  0  0  0
 26 28  1  0  0  0  0
 26 29  1  0  0  0  0
 27 30  1  0  0  0  0
 27 34  1  0  0  0  0
 32 36  2  0  0  0  0
 32 37  1  0  0  0  0
M  END
$$$$

 OpenBabel10082411353D

 37 41  0  0  0  0  0  0  0  0999 V2000
   11.6836    6.0105   -4.8831 F   0  0  0  0  0  0  0  0  0  0  0  0
   11.2562    7.2206   -5.0294 C   0  0  0  0  0  0  0  0  0  0  0  0
   12.0125    8.2418   -4.4408 C   0  0  0  0  0  0  0  0  0  0  0  0
   11.1918    7.2706   -6.5237 C   0  0  2  0  0  0  0  0  0  0  0  0
   11.6999    8.4488   -3.1704 F   0  0  0  0  0  0  0  0  0  0  0  0
    9.8648    7.0908   -4.5314 F   0  0  0  0  0  0  0  0  0  0  0  0
   11.6831    8.5291   -6.9682 C   0  0  1  0  0  0  0  0  0  0  0  0
   13.3042    8.0958   -4.5769 F   0  0  0  0  0  0  0  0  0  0  0  0
   10.0051    6.7877   -7.1387 C   0  0  2  0  0  0  0  0  0  0  0  0
   12.1549    9.4036   -6.0698 C   0  0  0  0  0  0  0  0  0  0  0  0
   11.7460    9.5074   -4.8672 O   0  0  0  0  0  0  0  0  0  0  0  0
   12.5684    8.5172   -7.8652 C   0  0  0  0  0  0  0  0  0  0  0  0
   10.4250    8.9412   -7.4869 C   0  0  0  0  0  0  0  0  0  0  0  0
    9.8902    5.4070   -7.8206 C   0  0  1  0  0  0  0  0  0  0  0  0
    8.7348    4.6919   -7.6168 C   0  0  0  0  0  0  0  0  0  0  0  0
    9.5887    7.8633   -8.0188 C   0  0  1  0  0  0  0  0  0  0  0  0
   10.0149    7.4671   -9.3945 C   0  0  0  0  0  0  0  0  0  0  0  0
    8.7013    3.5197   -8.2148 C   0  0  0  0  0  0  0  0  0  0  0  0
    9.3794    3.4628   -9.4166 C   0  0  0  0  0  0  0  0  0  0  0  0
    9.7670    8.0902  -10.5147 C   0  0  0  0  0  0  0  0  0  0  0  0
   10.1630    7.7248  -11.8028 C   0  0  0  0  0  0  0  0  0  0  0  0
   10.1363    4.5235   -9.8811 C   0  0  0  0  0  0  0  0  0  0  0  0
   10.2836    5.8862   -9.1314 C   0  0  2  0  0  0  0  0  0  0  0  0
    9.2642    7.6154  -12.7688 C   0  0  0  0  0  0  0  0  0  0  0  0
   11.5358    7.8029  -12.2540 C   0  0  0  0  0  0  0  0  0  0  0  0
    7.7746    7.5598  -12.4325 C   0  0  0  0  0  0  0  0  0  0  0  0
   11.9538    7.3346  -13.4521 C   0  0  0  0  0  0  0  0  0  0  0  0
   11.1653    6.8126  -14.3816 C   0  0  0  0  0  0  0  0  0  0  0  0
   11.5859    6.2821  -15.5527 C   0  0  2  0  0  0  0  0  0  0  0  0
    7.2622    8.9083  -12.2808 C   0  0  0  0  0  0  0  0  0  0  0  0
   11.7051    4.8886  -15.6933 C   0  0  0  0  0  0  0  0  0  0  0  0
    6.9924    6.7631  -13.2367 C   0  0  0  0  0  0  0  0  0  0  0  0
    9.6766    6.8198  -14.0455 C   0  0  0  0  0  0  0  0  0  0  0  0
   12.8922    6.7800  -15.9398 C   0  0  0  0  0  0  0  0  0  0  0  0
   10.4898    4.0766  -15.4778 C   0  0  0  0  0  0  0  0  0  0  0  0
   10.6650    2.7496  -14.8912 C   0  0  0  0  0  0  0  0  0  0  0  0
   10.3318    2.5554  -13.6548 O   0  0  0  0  0  0  0  0  0  0  0  0
  1  2  1  0  0  0  0
  2  3  1  0  0  0  0
  2  6  1  0  0  0  0
  3  5  1  0  0  0  0
  3  8  1  0  0  0  0
  3 11  1  0  0  0  0
  4  2  1  1  0  0  0
  4  7  1  0  0  0  0
  4  9  1  0  0  0  0
  7 10  1  0  0  0  0
  7 12  1  6  0  0  0
  7 13  1  0  0  0  0
  9 14  1  0  0  0  0
  9 16  1  0  0  0  0
 10 11  1  0  0  0  0
 13 16  1  0  0  0  0
 14 15  1  0  0  0  0
 14 23  1  0  0  0  0
 15 18  2  0  0  0  0
 16 17  1  0  0  0  0
 17 20  2  3  0  0  0
 17 23  1  0  0  0  0
 18 19  1  0  0  0  0
 19 22  2  0  0  0  0
 20 21  1  0  0  0  0
 21 24  2  0  0  0  0
 21 25  1  0  0  0  0
 22 23  1  0  0  0  0
 24 26  1  0  0  0  0
 24 33  1  0  0  0  0
 25 27  2  0  0  0  0
 26 30  1  0  0  0  0
 26 32  1  0  0  0  0
 27 28  1  0  0  0  0
 28 29  1  0  0  0  0
 28 33  2  0  0  0  0
 29 31  1  0  0  0  0
 29 34  1  0  0  0  0
 31 35  1  0  0  0  0
 35 36  1  0  0  0  0
 36 37  1  0  0  0  0
M  END
$$$$

 OpenBabel10082411353D

 37 41  0  0  0  0  0  0  0  0999 V2000
   13.2485    9.2493   -6.3668 O   0  0  0  0  0  0  0  0  0  0  0  0
   11.8899    9.2134   -6.2448 C   0  0  2  0  0  0  0  0  0  0  0  0
   11.2917    8.4721   -7.1451 C   0  0  2  0  0  0  0  0  0  0  0  0
   11.1607   10.4722   -6.0470 C   0  0  0  0  0  0  0  0  0  0  0  0
   11.8942    8.2744   -4.8861 C   0  0  1  0  0  0  0  0  0  0  0  0
   12.6962    8.6810   -3.7632 C   0  0  0  0  0  0  0  0  0  0  0  0
   10.5733    7.9819   -4.4741 O   0  0  0  0  0  0  0  0  0  0  0  0
   12.2118    6.9274   -5.0046 C   0  0  0  0  0  0  0  0  0  0  0  0
   11.4062    7.0803   -7.3138 C   0  0  1  0  0  0  0  0  0  0  0  0
   11.6893    9.1493   -8.4831 O   0  0  0  0  0  0  0  0  0  0  0  0
   11.3707    6.2717   -6.1614 C   0  0  0  0  0  0  0  0  0  0  0  0
   10.2564    6.5939   -8.3321 C   0  0  0  0  0  0  0  0  0  0  0  0
   10.4218    6.4667   -9.6182 C   0  0  0  0  0  0  0  0  0  0  0  0
    9.0449    6.2933   -7.8128 C   0  0  0  0  0  0  0  0  0  0  0  0
   11.5623    6.9616  -10.3788 C   0  0  0  0  0  0  0  0  0  0  0  0
    9.1836    6.0871  -10.1212 C   0  0  0  0  0  0  0  0  0  0  0  0
    8.3594    5.8680   -8.9980 N   0  0  0  0  0  0  0  0  0  0  0  0
    8.9634    5.7685  -11.5222 C   0  0  0  0  0  0  0  0  0  0  0  0
    9.9387    6.2140  -12.4284 C   0  0  0  0  0  0  0  0  0  0  0  0
   11.2531    6.8246  -11.9916 C   0  0  0  0  0  0  0  0  0  0  0  0
   12.2137    7.2131  -12.9706 C   0  0  0  0  0  0  0  0  0  0  0  0
    7.6691    5.2092  -11.9140 C   0  0  0  0  0  0  0  0  0  0  0  0
   12.7560    8.3596  -12.8513 O   0  0  0  0  0  0  0  0  0  0  0  0
   12.2037    6.6982  -14.2178 C   0  0  0  0  0  0  0  0  0  0  0  0
    7.8301    4.1930  -12.9417 C   0  0  0  0  0  0  0  0  0  0  0  0
    6.5578    5.6404  -11.4845 C   0  0  0  0  0  0  0  0  0  0  0  0
    5.3897    5.0761  -11.9453 C   0  0  0  0  0  0  0  0  0  0  0  0
    6.6734    3.5642  -13.3902 C   0  0  0  0  0  0  0  0  0  0  0  0
    6.7669    2.4765  -14.3662 C   0  0  0  0  0  0  0  0  0  0  0  0
    5.4703    3.9750  -12.9019 C   0  0  0  0  0  0  0  0  0  0  0  0
   12.3780    7.2991  -15.3925 C   0  0  0  0  0  0  0  0  0  0  0  0
   12.4370    5.1844  -14.3644 C   0  0  0  0  0  0  0  0  0  0  0  0
   12.2309    4.2701  -13.2777 F   0  0  0  0  0  0  0  0  0  0  0  0
   12.4944    4.5454  -15.5777 C   0  0  0  0  0  0  0  0  0  0  0  0
   12.3250    8.7237  -15.3932 F   0  0  0  0  0  0  0  0  0  0  0  0
   12.4396    5.5446  -16.7426 C   0  0  0  0  0  0  0  0  0  0  0  0
   12.4181    6.8085  -16.6752 C   0  0  0  0  0  0  0  0  0  0  0  0
  1  2  1  0  0  0  0
  2  3  1  0  0  0  0
  2  4  1  1  0  0  0
  2  5  1  0  0  0  0
  3  9  1  0  0  0  0
  3 10  1  6  0  0  0
  5  6  1  1  0  0  0
  5  7  1  0  0  0  0
  5  8  1  0  0  0  0
  8 11  1  0  0  0  0
  9 11  1  0  0  0  0
  9 12  1  6  0  0  0
 12 13  1  0  0  0  0
 12 14  2  0  0  0  0
 13 15  1  0  0  0  0
 13 16  2  0  0  0  0
 14 17  1  0  0  0  0
 15 20  2  0  0  0  0
 16 17  1  0  0  0  0
 16 18  1  0  0  0  0
 18 19  2  0  0  0  0
 18 22  1  0  0  0  0
 19 20  1  0  0  0  0
 20 21  1  0  0  0  0
 21 23  2  0  0  0  0
 21 24  1  0  0  0  0
 22 25  1  0  0  0  0
 22 26  2  0  0  0  0
 24 31  2  0  0  0  0
 24 32  1  0  0  0  0
 25 28  2  0  0  0  0
 26 27  1  0  0  0  0
 27 30  2  0  0  0  0
 28 29  1  0  0  0  0
 28 30  1  0  0  0  0
 31 35  1  0  0  0  0
 31 37  1  0  0  0  0
 32 33  1  0  0  0  0
 32 34  2  0  0  0  0
 34 36  1  0  0  0  0
 36 37  2  0  0  0  0
M  END
$$$$

 OpenBabel10082411353D

 37 42  0  0  0  0  0  0  0  0999 V2000
   11.6836    6.0105   -4.8831 C   0  0  0  0  0  0  0  0  0  0  0  0
   11.1291    7.0732   -5.4395 C   0  0  0  0  0  0  0  0  0  0  0  0
   10.6954    7.0156   -6.8073 C   0  0  0  0  0  0  0  0  0  0  0  0
   10.2502    8.1187   -7.5536 C   0  0  2  0  0  0  0  0  0  0  0  0
   11.1205    8.4712   -4.9629 C   0  0  0  0  0  0  0  0  0  0  0  0
   10.8655    8.3511   -8.7960 C   0  0  0  0  0  0  0  0  0  0  0  0
   10.2922    7.8843   -9.9985 C   0  0  0  0  0  0  0  0  0  0  0  0
   10.4654    9.6993   -5.6120 C   0  0  0  0  0  0  0  0  0  0  0  0
   10.3510    9.5971   -7.0014 C   0  0  0  0  0  0  0  0  0  0  0  0
   12.2462    6.3351   -3.5020 C   0  0  0  0  0  0  0  0  0  0  0  0
   11.0471    7.5309  -11.1063 C   0  0  0  0  0  0  0  0  0  0  0  0
   11.7288    8.6923   -3.6518 C   0  0  0  0  0  0  0  0  0  0  0  0
   12.3991    7.7501  -11.1145 C   0  0  0  0  0  0  0  0  0  0  0  0
   12.3738    7.7580   -2.9599 C   0  0  0  0  0  0  0  0  0  0  0  0
   13.1285    8.5075  -10.1661 O   0  0  0  0  0  0  0  0  0  0  0  0
    9.0407    7.3775  -10.0973 N   0  0  0  0  0  0  0  0  0  0  0  0
    8.9787    6.9473  -11.4664 N   0  0  0  0  0  0  0  0  0  0  0  0
   13.1012    7.4459  -12.3707 C   0  0  0  0  0  0  0  0  0  0  0  0
   12.2395    6.9724  -13.2444 C   0  0  0  0  0  0  0  0  0  0  0  0
   10.2768    7.0170  -11.9799 C   0  0  0  0  0  0  0  0  0  0  0  0
   12.9237    6.5822  -14.5759 O   0  0  0  0  0  0  0  0  0  0  0  0
   10.8906    6.6526  -13.2252 C   0  0  0  0  0  0  0  0  0  0  0  0
   12.2396    6.1290  -15.6916 C   0  0  0  0  0  0  0  0  0  0  0  0
    7.7368    6.4514  -12.0707 C   0  0  0  0  0  0  0  0  0  0  0  0
    7.1353    7.2872  -12.8105 C   0  0  0  0  0  0  0  0  0  0  0  0
    7.6622    5.0135  -12.1225 C   0  0  0  0  0  0  0  0  0  0  0  0
   12.5092    4.6950  -15.8147 C   0  0  0  0  0  0  0  0  0  0  0  0
    5.9403    6.5840  -13.2897 C   0  0  0  0  0  0  0  0  0  0  0  0
   11.2738    3.8422  -15.5220 N   0  0  0  0  0  0  0  0  0  0  0  0
    8.7139    4.1736  -11.4601 C   0  0  0  0  0  0  0  0  0  0  0  0
    6.6269    4.4744  -12.6955 C   0  0  0  0  0  0  0  0  0  0  0  0
    9.4620    3.2890  -12.1895 O   0  0  0  0  0  0  0  0  0  0  0  0
    5.7480    5.3068  -13.3143 C   0  0  0  0  0  0  0  0  0  0  0  0
   11.4370    2.8261  -14.7145 C   0  0  0  0  0  0  0  0  0  0  0  0
   10.5883    1.7423  -14.8782 C   0  0  0  0  0  0  0  0  0  0  0  0
    9.0406    1.9977  -14.6839 C   0  0  0  0  0  0  0  0  0  0  0  0
    8.8000    2.4955  -13.2796 C   0  0  0  0  0  0  0  0  0  0  0  0
  1  2  1  0  0  0  0
  1 10  2  0  0  0  0
  2  3  1  0  0  0  0
  2  5  2  0  0  0  0
  3  4  1  0  0  0  0
  4  6  1  6  0  0  0
  4  9  1  0  0  0  0
  5  8  1  0  0  0  0
  5 12  1  0  0  0  0
  6  7  1  0  0  0  0
  7 11  1  0  0  0  0
  7 16  2  0  0  0  0
  8  9  1  0  0  0  0
 10 14  1  0  0  0  0
 11 13  2  0  0  0  0
 11 20  1  0  0  0  0
 12 14  2  0  0  0  0
 13 15  1  0  0  0  0
 13 18  1  0  0  0  0
 16 17  1  0  0  0  0
 17 20  1  0  0  0  0
 17 24  1  0  0  0  0
 18 19  2  0  0  0  0
 19 21  1  0  0  0  0
 19 22  1  0  0  0  0
 20 22  2  0  0  0  0
 21 23  1  0  0  0  0
 23 27  1  0  0  0  0
 24 25  2  0  0  0  0
 24 26  1  0  0  0  0
 25 28  1  0  0  0  0
 26 30  1  0  0  0  0
 26 31  2  0  0  0  0
 27 29  1  0  0  0  0
 28 33  2  0  0  0  0
 29 34  1  0  0  0  0
 30 32  1  0  0  0  0
 31 33  1  0  0  0  0
 32 37  1  0  0  0  0
 34 35  1  0  0  0  0
 35 36  1  0  0  0  0
 36 37  1  0  0  0  0
M  END
$$$$

 OpenBabel10082411353D

 37 40  0  0  0  0  0  0  0  0999 V2000
   10.9951    9.9694   -4.9946 C   0  0  0  0  0  0  0  0  0  0  0  0
   11.7938    9.3762   -4.2463 C   0  0  0  0  0  0  0  0  0  0  0  0
   10.8673    9.4548   -6.4276 C   0  0  0  0  0  0  0  0  0  0  0  0
   11.6576    7.9117   -4.2944 C   0  0  0  0  0  0  0  0  0  0  0  0
   10.5498    8.0257   -6.4521 C   0  0  0  0  0  0  0  0  0  0  0  0
   11.4715    7.2752   -5.6166 C   0  0  0  0  0  0  0  0  0  0  0  0
   10.5840    7.5390   -7.9254 C   0  0  0  0  0  0  0  0  0  0  0  0
   11.4612    8.1494   -8.8322 C   0  0  0  0  0  0  0  0  0  0  0  0
   12.6250    8.6294   -8.4338 O   0  0  0  0  0  0  0  0  0  0  0  0
   11.0835    8.4395  -10.0740 O   0  0  0  0  0  0  0  0  0  0  0  0
   11.2938    7.5612  -11.0769 C   0  0  0  0  0  0  0  0  0  0  0  0
   10.1547    7.2525  -11.9492 C   0  0  0  0  0  0  0  0  0  0  0  0
   10.4293    6.5622  -13.1348 C   0  0  0  0  0  0  0  0  0  0  0  0
   11.7295    6.4217  -13.6243 C   0  0  0  0  0  0  0  0  0  0  0  0
    8.8120    7.3918  -11.4649 C   0  0  0  0  0  0  0  0  0  0  0  0
   12.5351    7.8894  -11.6869 C   0  0  0  0  0  0  0  0  0  0  0  0
   13.5778    8.4243  -10.9673 O   0  0  0  0  0  0  0  0  0  0  0  0
    7.7211    7.1761  -12.4323 C   0  0  0  0  0  0  0  0  0  0  0  0
   12.8103    7.0723  -12.8897 C   0  0  0  0  0  0  0  0  0  0  0  0
    7.0543    5.9667  -12.3369 C   0  0  0  0  0  0  0  0  0  0  0  0
    7.2392    8.1844  -13.1320 C   0  0  0  0  0  0  0  0  0  0  0  0
    6.6882    5.3848  -13.5016 O   0  0  0  0  0  0  0  0  0  0  0  0
    6.5103    5.5543  -11.3870 O   0  0  0  0  0  0  0  0  0  0  0  0
    7.4031    4.0506  -13.7852 C   0  0  0  0  0  0  0  0  0  0  0  0
    8.6811    3.9966  -14.1333 C   0  0  0  0  0  0  0  0  0  0  0  0
   12.0732    5.6649  -14.9357 C   0  0  0  0  0  0  0  0  0  0  0  0
    6.5842    3.0104  -13.4449 C   0  0  0  0  0  0  0  0  0  0  0  0
   12.1810    6.3505  -15.9550 C   0  0  0  0  0  0  0  0  0  0  0  0
   12.4265    5.3943  -17.1098 C   0  0  0  0  0  0  0  0  0  0  0  0
   11.9184    4.2576  -14.8844 C   0  0  0  0  0  0  0  0  0  0  0  0
   12.0158    3.4782  -15.9106 C   0  0  0  0  0  0  0  0  0  0  0  0
    5.1672    3.1967  -12.9871 C   0  0  0  0  0  0  0  0  0  0  0  0
    7.1727    1.7696  -13.6406 C   0  0  0  0  0  0  0  0  0  0  0  0
    8.2697    1.5744  -14.0239 C   0  0  0  0  0  0  0  0  0  0  0  0
    9.1955    2.8539  -14.2385 C   0  0  0  0  0  0  0  0  0  0  0  0
   12.7010    6.1941  -18.3556 O   0  0  0  0  0  0  0  0  0  0  0  0
   12.3118    4.1623  -17.1604 C   0  0  0  0  0  0  0  0  0  0  0  0
  1  2  1  0  0  0  0
  1  3  1  0  0  0  0
  2  4  1  0  0  0  0
  3  5  1  0  0  0  0
  4  6  1  0  0  0  0
  5  6  1  0  0  0  0
  5  7  1  0  0  0  0
  7  8  1  0  0  0  0
  8  9  2  0  0  0  0
  8 10  1  0  0  0  0
 10 11  1  0  0  0  0
 11 12  1  0  0  0  0
 11 16  2  0  0  0  0
 12 13  2  0  0  0  0
 12 15  1  0  0  0  0
 13 14  1  0  0  0  0
 14 19  2  0  0  0  0
 14 26  1  0  0  0  0
 15 18  1  0  0  0  0
 16 17  1  0  0  0  0
 16 19  1  0  0  0  0
 18 20  1  0  0  0  0
 18 21  2  0  0  0  0
 20 22  1  0  0  0  0
 20 23  2  0  0  0  0
 22 24  1  0  0  0  0
 24 25  1  0  0  0  0
 24 27  2  0  0  0  0
 25 35  2  0  0  0  0
 26 28  2  0  0  0  0
 26 30  1  0  0  0  0
 27 32  1  0  0  0  0
 27 33  1  0  0  0  0
 28 29  1  0  0  0  0
 29 36  1  0  0  0  0
 29 37  2  0  0  0  0
 30 31  2  0  0  0  0
 31 37  1  0  0  0  0
 33 34  2  0  0  0  0
 34 35  1  0  0  0  0
M  END
$$$$

 OpenBabel10082411353D

 37 44  0  0  0  0  0  0  0  0999 V2000
   12.7863    7.8241  -14.2109 C   0  0  0  0  0  0  0  0  0  0  0  0
   12.4233    7.7158  -13.0289 C   0  0  0  0  0  0  0  0  0  0  0  0
   11.3194    6.8571  -12.8028 C   0  0  0  0  0  0  0  0  0  0  0  0
   12.3150    7.2021  -15.3582 C   0  0  0  0  0  0  0  0  0  0  0  0
   11.2733    6.2739  -15.1502 C   0  0  0  0  0  0  0  0  0  0  0  0
   10.8099    6.0126  -13.8600 C   0  0  0  0  0  0  0  0  0  0  0  0
    9.6782    5.1428  -13.6488 C   0  0  0  0  0  0  0  0  0  0  0  0
    8.5753    5.3880  -12.9589 N   0  0  0  0  0  0  0  0  0  0  0  0
    8.3226    6.7011  -12.3862 C   0  0  0  0  0  0  0  0  0  0  0  0
    9.8502    3.8578  -14.0728 C   0  0  0  0  0  0  0  0  0  0  0  0
    7.3864    7.4720  -13.0530 C   0  0  0  0  0  0  0  0  0  0  0  0
    6.2412    7.8486  -12.2599 C   0  0  0  0  0  0  0  0  0  0  0  0
    7.6425    4.4186  -12.7943 C   0  0  0  0  0  0  0  0  0  0  0  0
   11.0297    3.2482  -14.8053 C   0  0  0  0  0  0  0  0  0  0  0  0
    8.6802    2.8955  -13.7960 C   0  0  0  0  0  0  0  0  0  0  0  0
    8.8565    1.5917  -14.3582 O   0  0  0  0  0  0  0  0  0  0  0  0
    7.6903    3.2226  -13.1994 N   0  0  0  0  0  0  0  0  0  0  0  0
    6.5724    2.3444  -12.8378 C   0  0  0  0  0  0  0  0  0  0  0  0
    9.0225    7.0353  -11.3259 C   0  0  0  0  0  0  0  0  0  0  0  0
    6.2405    4.8489  -12.4515 C   0  0  0  0  0  0  0  0  0  0  0  0
   10.5875    7.0617  -11.5321 C   0  0  0  0  0  0  0  0  0  0  0  0
   11.0960    7.6093  -10.4100 C   0  0  0  0  0  0  0  0  0  0  0  0
    8.4039    7.3336  -10.1102 C   0  0  0  0  0  0  0  0  0  0  0  0
   10.6086    7.8156   -9.1888 C   0  0  0  0  0  0  0  0  0  0  0  0
    9.3113    7.5527   -9.2022 C   0  0  0  0  0  0  0  0  0  0  0  0
    5.5868    3.4174  -12.3561 C   0  0  0  0  0  0  0  0  0  0  0  0
    8.7252    7.9330   -7.6242 C   0  0  0  0  0  0  0  0  0  0  0  0
   11.1859    8.0862   -7.9601 C   0  0  0  0  0  0  0  0  0  0  0  0
   12.7495    8.2704   -8.0174 C   0  0  0  0  0  0  0  0  0  0  0  0
   10.4493    8.2542   -6.7750 C   0  0  2  0  0  0  0  0  0  0  0  0
    9.2142    8.3462   -6.7539 C   0  0  0  0  0  0  0  0  0  0  0  0
   11.4483    9.0676   -5.7294 C   0  0  2  0  0  0  0  0  0  0  0  0
   10.5479    6.9328   -5.7137 C   0  0  0  0  0  0  0  0  0  0  0  0
   13.0940    9.3998   -7.2782 C   0  0  0  0  0  0  0  0  0  0  0  0
   12.8182    9.2697   -5.8803 C   0  0  0  0  0  0  0  0  0  0  0  0
   11.0150    9.0047   -4.2837 C   0  0  0  0  0  0  0  0  0  0  0  0
   10.9689    7.5663   -4.0492 C   0  0  0  0  0  0  0  0  0  0  0  0
  1  2  2  0  0  0  0
  1  4  1  0  0  0  0
  2  3  1  0  0  0  0
  3  6  2  0  0  0  0
  3 21  1  0  0  0  0
  4  5  2  0  0  0  0
  5  6  1  0  0  0  0
  6  7  1  0  0  0  0
  7  8  1  0  0  0  0
  7 10  2  0  0  0  0
  8  9  1  0  0  0  0
  8 13  1  0  0  0  0
  9 11  1  0  0  0  0
  9 19  2  0  0  0  0
 10 14  1  0  0  0  0
 10 15  1  0  0  0  0
 11 12  1  0  0  0  0
 13 17  1  0  0  0  0
 13 20  2  0  0  0  0
 15 16  2  0  0  0  0
 15 17  1  0  0  0  0
 17 18  1  0  0  0  0
 18 26  2  0  0  0  0
 19 21  1  0  0  0  0
 19 23  1  0  0  0  0
 20 26  1  0  0  0  0
 21 22  2  0  0  0  0
 22 24  1  0  0  0  0
 23 25  2  0  0  0  0
 24 25  1  0  0  0  0
 24 28  2  0  0  0  0
 25 27  1  0  0  0  0
 27 31  2  0  0  0  0
 28 29  1  0  0  0  0
 28 30  1  0  0  0  0
 29 34  1  0  0  0  0
 30 31  1  6  0  0  0
 30 32  1  0  0  0  0
 30 33  1  0  0  0  0
 32 35  1  1  0  0  0
 32 36  1  0  0  0  0
 33 37  1  0  0  0  0
 34 35  1  0  0  0  0
 36 37  1  0  0  0  0
M  END
$$$$

 OpenBabel10082411353D

 37 42  0  0  0  0  0  0  0  0999 V2000
   11.6836    6.0105   -4.8831 C   0  0  0  0  0  0  0  0  0  0  0  0
   11.1291    7.0732   -5.4395 C   0  0  0  0  0  0  0  0  0  0  0  0
   10.6954    7.0156   -6.8073 C   0  0  0  0  0  0  0  0  0  0  0  0
   10.2502    8.1187   -7.5536 C   0  0  2  0  0  0  0  0  0  0  0  0
   11.1205    8.4712   -4.9629 C   0  0  0  0  0  0  0  0  0  0  0  0
   10.8655    8.3511   -8.7960 C   0  0  0  0  0  0  0  0  0  0  0  0
   10.2922    7.8843   -9.9985 C   0  0  0  0  0  0  0  0  0  0  0  0
   10.4654    9.6993   -5.6120 C   0  0  0  0  0  0  0  0  0  0  0  0
   10.3510    9.5971   -7.0014 C   0  0  0  0  0  0  0  0  0  0  0  0
   12.2462    6.3351   -3.5020 C   0  0  0  0  0  0  0  0  0  0  0  0
   11.0471    7.5309  -11.1063 C   0  0  0  0  0  0  0  0  0  0  0  0
   11.7288    8.6923   -3.6518 C   0  0  0  0  0  0  0  0  0  0  0  0
   12.3991    7.7501  -11.1145 C   0  0  0  0  0  0  0  0  0  0  0  0
   12.3738    7.7580   -2.9599 C   0  0  0  0  0  0  0  0  0  0  0  0
   13.1285    8.5075  -10.1661 O   0  0  0  0  0  0  0  0  0  0  0  0
    9.0407    7.3775  -10.0973 N   0  0  0  0  0  0  0  0  0  0  0  0
    8.9787    6.9473  -11.4664 N   0  0  0  0  0  0  0  0  0  0  0  0
   13.1012    7.4459  -12.3707 C   0  0  0  0  0  0  0  0  0  0  0  0
   12.2395    6.9724  -13.2444 C   0  0  0  0  0  0  0  0  0  0  0  0
   10.2768    7.0170  -11.9799 C   0  0  0  0  0  0  0  0  0  0  0  0
   12.9237    6.5822  -14.5759 O   0  0  0  0  0  0  0  0  0  0  0  0
   10.8906    6.6526  -13.2252 C   0  0  0  0  0  0  0  0  0  0  0  0
   12.2396    6.1290  -15.6916 C   0  0  0  0  0  0  0  0  0  0  0  0
    7.7368    6.4514  -12.0707 C   0  0  0  0  0  0  0  0  0  0  0  0
    7.1353    7.2872  -12.8105 C   0  0  0  0  0  0  0  0  0  0  0  0
    7.6622    5.0135  -12.1225 C   0  0  0  0  0  0  0  0  0  0  0  0
   12.5092    4.6950  -15.8147 C   0  0  0  0  0  0  0  0  0  0  0  0
    5.9403    6.5840  -13.2897 C   0  0  0  0  0  0  0  0  0  0  0  0
   11.2738    3.8422  -15.5220 N   0  0  0  0  0  0  0  0  0  0  0  0
    8.7139    4.1736  -11.4601 C   0  0  0  0  0  0  0  0  0  0  0  0
    5.7546    5.3014  -13.2955 C   0  0  0  0  0  0  0  0  0  0  0  0
   10.5665    3.9988  -14.5162 C   0  0  0  0  0  0  0  0  0  0  0  0
    6.6518    4.4534  -12.6459 C   0  0  0  0  0  0  0  0  0  0  0  0
   11.1930    2.6728  -16.3047 C   0  0  0  0  0  0  0  0  0  0  0  0
    9.2470    3.7086  -14.6888 C   0  0  0  0  0  0  0  0  0  0  0  0
   10.0389    2.1274  -16.2175 N   0  0  0  0  0  0  0  0  0  0  0  0
    9.0954    2.6381  -15.2565 C   0  0  0  0  0  0  0  0  0  0  0  0
  1  2  1  0  0  0  0
  1 10  2  0  0  0  0
  2  3  1  0  0  0  0
  2  5  2  0  0  0  0
  3  4  1  0  0  0  0
  4  6  1  6  0  0  0
  4  9  1  0  0  0  0
  5  8  1  0  0  0  0
  5 12  1  0  0  0  0
  6  7  1  0  0  0  0
  7 11  1  0  0  0  0
  7 16  2  0  0  0  0
  8  9  1  0  0  0  0
 10 14  1  0  0  0  0
 11 13  2  0  0  0  0
 11 20  1  0  0  0  0
 12 14  2  0  0  0  0
 13 15  1  0  0  0  0
 13 18  1  0  0  0  0
 16 17  1  0  0  0  0
 17 20  1  0  0  0  0
 17 24  1  0  0  0  0
 18 19  2  0  0  0  0
 19 21  1  0  0  0  0
 19 22  1  0  0  0  0
 20 22  2  0  0  0  0
 21 23  1  0  0  0  0
 23 27  1  0  0  0  0
 24 25  2  0  0  0  0
 24 26  1  0  0  0  0
 25 28  1  0  0  0  0
 26 30  1  0  0  0  0
 26 33  2  0  0  0  0
 27 29  1  0  0  0  0
 28 31  2  0  0  0  0
 29 32  1  0  0  0  0
 29 34  1  0  0  0  0
 31 33  1  0  0  0  0
 32 35  2  0  0  0  0
 34 36  2  0  0  0  0
 35 37  1  0  0  0  0
 36 37  1  0  0  0  0
M  END
$$$$

 OpenBabel10082411353D

 25 28  0  0  0  0  0  0  0  0999 V2000
   10.5338    9.5630   -5.0683 C   0  0  0  0  0  0  0  0  0  0  0  0
   11.6326    9.3232   -4.4343 C   0  0  0  0  0  0  0  0  0  0  0  0
   10.1175    8.4558   -5.9583 O   0  0  0  0  0  0  0  0  0  0  0  0
   11.2137    7.9307   -6.4519 C   0  0  1  0  0  0  0  0  0  0  0  0
   12.3805    8.4362   -5.4668 C   0  0  0  0  0  0  0  0  0  0  0  0
   11.1829    6.4410   -6.3835 C   0  0  0  0  0  0  0  0  0  0  0  0
   11.5307    8.4278   -7.8431 C   0  0  0  0  0  0  0  0  0  0  0  0
   10.9695    7.6928   -8.9182 C   0  0  0  0  0  0  0  0  0  0  0  0
   10.6724    8.2768  -10.0336 C   0  0  0  0  0  0  0  0  0  0  0  0
   10.0385    7.4564  -11.1366 C   0  0  0  0  0  0  0  0  0  0  0  0
   10.1397    6.1099  -11.1838 C   0  0  0  0  0  0  0  0  0  0  0  0
    9.3255    8.2273  -12.2243 C   0  0  0  0  0  0  0  0  0  0  0  0
    8.1145    8.9106  -11.7538 C   0  0  0  0  0  0  0  0  0  0  0  0
   10.4444    5.4278  -10.0118 C   0  0  0  0  0  0  0  0  0  0  0  0
   10.9789    6.1875   -8.8320 C   0  0  0  0  0  0  0  0  0  0  0  0
   11.2250    5.6168   -7.5866 C   0  0  0  0  0  0  0  0  0  0  0  0
    9.5926    5.1489  -12.1900 C   0  0  0  0  0  0  0  0  0  0  0  0
    8.3818    4.7973  -12.4219 C   0  0  0  0  0  0  0  0  0  0  0  0
   10.6536    4.7130  -13.0933 C   0  0  0  0  0  0  0  0  0  0  0  0
    8.0296    3.9055  -13.3975 C   0  0  0  0  0  0  0  0  0  0  0  0
    9.1812    3.4174  -14.2394 C   0  0  0  0  0  0  0  0  0  0  0  0
   10.2972    3.7157  -14.1238 C   0  0  0  0  0  0  0  0  0  0  0  0
    8.7531    2.4270  -15.2309 O   0  0  0  0  0  0  0  0  0  0  0  0
   11.4823    3.2753  -15.0224 C   0  0  0  0  0  0  0  0  0  0  0  0
    8.6131    1.1204  -14.9226 C   0  0  0  0  0  0  0  0  0  0  0  0
  1  2  1  0  0  0  0
  1  3  1  0  0  0  0
  2  5  1  0  0  0  0
  3  4  1  0  0  0  0
  4  5  1  1  0  0  0
  4  6  1  0  0  0  0
  4  7  1  0  0  0  0
  6 16  1  0  0  0  0
  7  8  1  0  0  0  0
  8  9  2  0  0  0  0
  8 15  1  0  0  0  0
  9 10  1  0  0  0  0
 10 11  2  0  0  0  0
 10 12  1  0  0  0  0
 11 14  1  0  0  0  0
 11 17  1  0  0  0  0
 12 13  1  0  0  0  0
 14 15  2  0  0  0  0
 15 16  1  0  0  0  0
 17 18  1  0  0  0  0
 17 19  2  0  0  0  0
 18 20  2  0  0  0  0
 19 22  1  0  0  0  0
 20 21  1  0  0  0  0
 21 22  2  0  0  0  0
 21 23  1  0  0  0  0
 22 24  1  0  0  0  0
 23 25  1  0  0  0  0
M  END
$$$$

 OpenBabel10082411353D

 37 42  0  0  0  0  0  0  0  0999 V2000
   11.6836    6.0105   -4.8831 C   0  0  0  0  0  0  0  0  0  0  0  0
   11.1291    7.0732   -5.4395 C   0  0  0  0  0  0  0  0  0  0  0  0
   10.6954    7.0156   -6.8073 C   0  0  0  0  0  0  0  0  0  0  0  0
   10.2502    8.1187   -7.5536 C   0  0  2  0  0  0  0  0  0  0  0  0
   11.1205    8.4712   -4.9629 C   0  0  0  0  0  0  0  0  0  0  0  0
   10.8655    8.3511   -8.7960 C   0  0  0  0  0  0  0  0  0  0  0  0
   10.2922    7.8843   -9.9985 C   0  0  0  0  0  0  0  0  0  0  0  0
   10.4654    9.6993   -5.6120 C   0  0  0  0  0  0  0  0  0  0  0  0
   10.3510    9.5971   -7.0014 C   0  0  0  0  0  0  0  0  0  0  0  0
   12.2462    6.3351   -3.5020 C   0  0  0  0  0  0  0  0  0  0  0  0
   11.0471    7.5309  -11.1063 C   0  0  0  0  0  0  0  0  0  0  0  0
   11.7288    8.6923   -3.6518 C   0  0  0  0  0  0  0  0  0  0  0  0
   12.3991    7.7501  -11.1145 C   0  0  0  0  0  0  0  0  0  0  0  0
   12.3738    7.7580   -2.9599 C   0  0  0  0  0  0  0  0  0  0  0  0
   13.1285    8.5075  -10.1661 O   0  0  0  0  0  0  0  0  0  0  0  0
    9.0407    7.3775  -10.0973 N   0  0  0  0  0  0  0  0  0  0  0  0
    8.9787    6.9473  -11.4664 N   0  0  0  0  0  0  0  0  0  0  0  0
   13.1012    7.4459  -12.3707 C   0  0  0  0  0  0  0  0  0  0  0  0
   12.2395    6.9724  -13.2444 C   0  0  0  0  0  0  0  0  0  0  0  0
   10.2768    7.0170  -11.9799 C   0  0  0  0  0  0  0  0  0  0  0  0
   12.9237    6.5822  -14.5759 O   0  0  0  0  0  0  0  0  0  0  0  0
   10.8906    6.6526  -13.2252 C   0  0  0  0  0  0  0  0  0  0  0  0
   12.2396    6.1290  -15.6916 C   0  0  0  0  0  0  0  0  0  0  0  0
    7.8036    6.1825  -11.9342 C   0  0  0  0  0  0  0  0  0  0  0  0
   12.5015    4.7115  -15.7686 C   0  0  0  0  0  0  0  0  0  0  0  0
    7.1685    6.9992  -12.8245 C   0  0  0  0  0  0  0  0  0  0  0  0
   11.2461    3.8540  -15.4851 C   0  0  0  0  0  0  0  0  0  0  0  0
    7.6237    4.9154  -11.6529 C   0  0  0  0  0  0  0  0  0  0  0  0
    6.0177    6.2707  -13.3932 C   0  0  0  0  0  0  0  0  0  0  0  0
   10.6165    3.9039  -14.4137 C   0  0  0  0  0  0  0  0  0  0  0  0
    9.5305    2.8756  -14.1992 C   0  0  0  0  0  0  0  0  0  0  0  0
    8.7172    4.2136  -10.7843 C   0  0  0  0  0  0  0  0  0  0  0  0
    9.5147    1.8398  -14.9874 C   0  0  0  0  0  0  0  0  0  0  0  0
   10.4331    1.8042  -16.0289 C   0  0  0  0  0  0  0  0  0  0  0  0
   11.4016    2.6745  -16.2481 C   0  0  0  0  0  0  0  0  0  0  0  0
    6.0139    4.9054  -13.0127 C   0  0  0  0  0  0  0  0  0  0  0  0
    6.7140    4.2329  -12.1998 C   0  0  0  0  0  0  0  0  0  0  0  0
  1  2  1  0  0  0  0
  1 10  2  0  0  0  0
  2  3  1  0  0  0  0
  2  5  2  0  0  0  0
  3  4  1  0  0  0  0
  4  6  1  6  0  0  0
  4  9  1  0  0  0  0
  5  8  1  0  0  0  0
  5 12  1  0  0  0  0
  6  7  1  0  0  0  0
  7 11  1  0  0  0  0
  7 16  2  0  0  0  0
  8  9  1  0  0  0  0
 10 14  1  0  0  0  0
 11 13  2  0  0  0  0
 11 20  1  0  0  0  0
 12 14  2  0  0  0  0
 13 15  1  0  0  0  0
 13 18  1  0  0  0  0
 16 17  1  0  0  0  0
 17 20  1  0  0  0  0
 17 24  1  0  0  0  0
 18 19  2  0  0  0  0
 19 21  1  0  0  0  0
 19 22  1  0  0  0  0
 20 22  2  0  0  0  0
 21 23  1  0  0  0  0
 23 25  1  0  0  0  0
 24 26  2  0  0  0  0
 24 28  1  0  0  0  0
 25 27  1  0  0  0  0
 26 29  1  0  0  0  0
 27 30  1  0  0  0  0
 27 35  2  0  0  0  0
 28 32  1  0  0  0  0
 28 37  2  0  0  0  0
 29 36  2  0  0  0  0
 30 31  2  0  0  0  0
 31 33  1  0  0  0  0
 33 34  2  0  0  0  0
 34 35  1  0  0  0  0
 36 37  1  0  0  0  0
M  END
$$$$

 OpenBabel10082411353D

 37 44  0  0  0  0  0  0  0  0999 V2000
    8.0806    9.0240  -12.7589 C   0  0  0  0  0  0  0  0  0  0  0  0
    8.6514    7.8645  -12.2948 C   0  0  0  0  0  0  0  0  0  0  0  0
    9.9575    7.9974  -11.8426 C   0  0  0  0  0  0  0  0  0  0  0  0
   10.7657    6.8667  -11.6050 C   0  0  1  0  0  0  0  0  0  0  0  0
   10.7682    5.9590  -12.8271 C   0  0  0  0  0  0  0  0  0  0  0  0
   12.1553    7.3846  -11.2315 C   0  0  0  0  0  0  0  0  0  0  0  0
    8.0676    6.6451  -12.2974 C   0  0  0  0  0  0  0  0  0  0  0  0
   10.1892    6.1240  -10.3860 C   0  0  0  0  0  0  0  0  0  0  0  0
   11.8375    5.4373  -13.3240 O   0  0  0  0  0  0  0  0  0  0  0  0
    8.6785    5.4761  -13.0273 C   0  0  1  0  0  0  0  0  0  0  0  0
    9.1969    5.2405  -10.4969 C   0  0  1  0  0  0  0  0  0  0  0  0
    7.2213    6.2210  -11.3074 C   0  0  0  0  0  0  0  0  0  0  0  0
   12.5590    7.6872   -9.9896 C   0  0  0  0  0  0  0  0  0  0  0  0
    9.7633    5.0333  -12.9720 C   0  0  1  0  0  0  0  0  0  0  0  0
   10.0661    4.0167  -14.0373 N   0  0  0  0  0  0  0  0  0  0  0  0
   13.6906    8.3004   -9.6233 O   0  0  0  0  0  0  0  0  0  0  0  0
    7.6357    4.5123  -12.6317 C   0  0  2  0  0  0  0  0  0  0  0  0
    6.8831    4.9171  -11.7031 C   0  0  0  0  0  0  0  0  0  0  0  0
   10.5937    6.6967   -9.1779 C   0  0  0  0  0  0  0  0  0  0  0  0
    9.5087    4.3263  -11.6925 C   0  0  2  0  0  0  0  0  0  0  0  0
   11.6359    7.4449   -8.9125 C   0  0  0  0  0  0  0  0  0  0  0  0
   11.9716    7.9159   -7.6200 C   0  0  0  0  0  0  0  0  0  0  0  0
    8.4648    3.6122  -12.2840 C   0  0  2  0  0  0  0  0  0  0  0  0
    9.3128    4.5571   -9.1689 C   0  0  0  0  0  0  0  0  0  0  0  0
   10.9557    7.6369   -6.5929 C   0  0  1  0  0  0  0  0  0  0  0  0
    9.6490    2.8108  -13.7776 C   0  0  1  0  0  0  0  0  0  0  0  0
    9.6716    6.1981   -8.0224 C   0  0  2  0  0  0  0  0  0  0  0  0
    8.5511    2.5400  -13.1402 C   0  0  0  0  0  0  0  0  0  0  0  0
    9.7877    2.0302  -15.0383 O   0  0  0  0  0  0  0  0  0  0  0  0
   10.2949    6.3957   -6.8142 C   0  0  0  0  0  0  0  0  0  0  0  0
   11.5672    7.6277   -5.2275 C   0  0  2  0  0  0  0  0  0  0  0  0
    9.9257    8.9082   -6.5228 C   0  0  0  0  0  0  0  0  0  0  0  0
    8.7436    3.1868   -9.1768 O   0  0  0  0  0  0  0  0  0  0  0  0
    9.2453    4.8876   -8.0562 C   0  0  0  0  0  0  0  0  0  0  0  0
   11.6951    6.3147   -4.7202 C   0  0  0  0  0  0  0  0  0  0  0  0
   11.0125    8.4785   -4.1961 O   0  0  0  0  0  0  0  0  0  0  0  0
   11.7228    9.2623   -3.3860 C   0  0  0  0  0  0  0  0  0  0  0  0
  1  2  1  0  0  0  0
  2  3  1  0  0  0  0
  2  7  2  0  0  0  0
  4  3  1  6  0  0  0
  4  5  1  0  0  0  0
  4  6  1  0  0  0  0
  4  8  1  0  0  0  0
  5  9  2  0  0  0  0
  6 13  1  0  0  0  0
  7 12  1  0  0  0  0
  8 19  2  0  0  0  0
 10  7  1  1  0  0  0
 10 14  1  0  0  0  0
 10 17  1  0  0  0  0
 11  8  1  1  0  0  0
 11 20  1  0  0  0  0
 11 24  1  0  0  0  0
 12 18  1  0  0  0  0
 13 16  2  0  0  0  0
 13 21  1  0  0  0  0
 14  5  1  1  0  0  0
 14 15  1  0  0  0  0
 14 20  1  0  0  0  0
 15 26  1  0  0  0  0
 17 18  1  1  0  0  0
 17 23  1  0  0  0  0
 19 21  1  0  0  0  0
 19 27  1  0  0  0  0
 20 23  1  0  0  0  0
 21 22  2  0  0  0  0
 22 25  1  0  0  0  0
 23 28  1  0  0  0  0
 24 33  2  0  0  0  0
 24 34  1  0  0  0  0
 25 30  1  0  0  0  0
 25 31  1  0  0  0  0
 25 32  1  0  0  0  0
 26 28  1  0  0  0  0
 26 29  1  0  0  0  0
 27 30  1  0  0  0  0
 27 34  1  0  0  0  0
 31 35  1  0  0  0  0
 31 36  1  0  0  0  0
 36 37  1  0  0  0  0
M  END
$$$$

 OpenBabel10082411353D

 37 45  0  0  0  0  0  0  0  0999 V2000
    8.0806    9.0240  -12.7589 C   0  0  0  0  0  0  0  0  0  0  0  0
    8.6514    7.8645  -12.2948 C   0  0  0  0  0  0  0  0  0  0  0  0
    9.9575    7.9974  -11.8426 C   0  0  0  0  0  0  0  0  0  0  0  0
   10.7657    6.8667  -11.6050 C   0  0  1  0  0  0  0  0  0  0  0  0
   10.7682    5.9590  -12.8271 C   0  0  0  0  0  0  0  0  0  0  0  0
   12.1553    7.3846  -11.2315 C   0  0  0  0  0  0  0  0  0  0  0  0
    8.0676    6.6451  -12.2974 C   0  0  0  0  0  0  0  0  0  0  0  0
   10.1892    6.1240  -10.3860 C   0  0  0  0  0  0  0  0  0  0  0  0
   11.8375    5.4373  -13.3240 O   0  0  0  0  0  0  0  0  0  0  0  0
    8.6785    5.4761  -13.0273 C   0  0  1  0  0  0  0  0  0  0  0  0
    9.1969    5.2405  -10.4969 C   0  0  1  0  0  0  0  0  0  0  0  0
    7.2213    6.2210  -11.3074 C   0  0  1  0  0  0  0  0  0  0  0  0
   12.5590    7.6872   -9.9896 C   0  0  0  0  0  0  0  0  0  0  0  0
    9.7633    5.0333  -12.9720 C   0  0  1  0  0  0  0  0  0  0  0  0
   10.0661    4.0167  -14.0373 N   0  0  0  0  0  0  0  0  0  0  0  0
   13.6906    8.3004   -9.6233 O   0  0  0  0  0  0  0  0  0  0  0  0
    7.6357    4.5123  -12.6317 C   0  0  2  0  0  0  0  0  0  0  0  0
    6.8831    4.9171  -11.7031 C   0  0  0  0  0  0  0  0  0  0  0  0
   10.5937    6.6967   -9.1779 C   0  0  0  0  0  0  0  0  0  0  0  0
    9.5087    4.3263  -11.6925 C   0  0  2  0  0  0  0  0  0  0  0  0
   11.6359    7.4449   -8.9125 C   0  0  0  0  0  0  0  0  0  0  0  0
   11.9716    7.9159   -7.6200 C   0  0  0  0  0  0  0  0  0  0  0  0
    8.4648    3.6122  -12.2840 C   0  0  2  0  0  0  0  0  0  0  0  0
    9.3128    4.5571   -9.1689 C   0  0  0  0  0  0  0  0  0  0  0  0
   10.9557    7.6369   -6.5929 C   0  0  2  0  0  0  0  0  0  0  0  0
    9.6490    2.8108  -13.7776 C   0  0  1  0  0  0  0  0  0  0  0  0
    9.6716    6.1981   -8.0224 C   0  0  2  0  0  0  0  0  0  0  0  0
    8.5511    2.5400  -13.1402 C   0  0  0  0  0  0  0  0  0  0  0  0
    9.7877    2.0302  -15.0383 O   0  0  0  0  0  0  0  0  0  0  0  0
   10.2949    6.3957   -6.8142 C   0  0  0  0  0  0  0  0  0  0  0  0
   10.0248    8.9234   -6.5076 C   0  0  0  0  0  0  0  0  0  0  0  0
   11.5333    7.8194   -5.1272 C   0  0  0  0  0  0  0  0  0  0  0  0
    8.7519    3.1892   -9.1734 C   0  0  0  0  0  0  0  0  0  0  0  0
    9.3611    5.0979   -8.0224 C   0  0  0  0  0  0  0  0  0  0  0  0
    7.9004    5.5804  -10.3260 C   0  0  0  0  0  0  0  0  0  0  0  0
   11.7223    6.9484   -4.4635 O   0  0  0  0  0  0  0  0  0  0  0  0
   12.0396    9.1320   -4.7858 N   0  0  0  0  0  0  0  0  0  0  0  0
  1  2  1  0  0  0  0
  2  3  1  0  0  0  0
  2  7  2  0  0  0  0
  4  3  1  6  0  0  0
  4  5  1  0  0  0  0
  4  6  1  0  0  0  0
  4  8  1  0  0  0  0
  5  9  2  0  0  0  0
  6 13  1  0  0  0  0
  7 12  1  0  0  0  0
  8 11  1  0  0  0  0
  8 19  2  0  0  0  0
 10  7  1  1  0  0  0
 10 14  1  0  0  0  0
 10 17  1  0  0  0  0
 11 20  1  0  0  0  0
 11 24  1  0  0  0  0
 11 35  1  6  0  0  0
 12 18  1  6  0  0  0
 12 35  1  0  0  0  0
 13 16  2  0  0  0  0
 13 21  1  0  0  0  0
 14  5  1  1  0  0  0
 14 15  1  0  0  0  0
 14 20  1  0  0  0  0
 15 26  1  0  0  0  0
 17 18  1  1  0  0  0
 17 23  1  0  0  0  0
 19 21  1  0  0  0  0
 19 27  1  0  0  0  0
 20 23  1  0  0  0  0
 21 22  2  0  0  0  0
 22 25  1  0  0  0  0
 23 28  1  0  0  0  0
 24 33  2  0  0  0  0
 24 34  1  0  0  0  0
 25 30  1  0  0  0  0
 25 31  1  0  0  0  0
 25 32  1  0  0  0  0
 26 28  1  0  0  0  0
 26 29  1  0  0  0  0
 27 30  1  0  0  0  0
 27 34  1  0  0  0  0
 32 36  2  0  0  0  0
 32 37  1  0  0  0  0
M  END
$$$$

 OpenBabel10082411353D

 37 42  0  0  0  0  0  0  0  0999 V2000
   12.7863    7.8241  -14.2109 C   0  0  0  0  0  0  0  0  0  0  0  0
   12.4233    7.7158  -13.0289 C   0  0  0  0  0  0  0  0  0  0  0  0
   11.3194    6.8571  -12.8028 C   0  0  0  0  0  0  0  0  0  0  0  0
   12.3150    7.2021  -15.3582 C   0  0  0  0  0  0  0  0  0  0  0  0
   11.2733    6.2739  -15.1502 C   0  0  0  0  0  0  0  0  0  0  0  0
   10.8099    6.0126  -13.8600 C   0  0  0  0  0  0  0  0  0  0  0  0
    9.6782    5.1428  -13.6488 C   0  0  0  0  0  0  0  0  0  0  0  0
    8.5753    5.3880  -12.9589 N   0  0  0  0  0  0  0  0  0  0  0  0
    8.3226    6.7011  -12.3862 C   0  0  0  0  0  0  0  0  0  0  0  0
    9.8502    3.8578  -14.0728 C   0  0  0  0  0  0  0  0  0  0  0  0
    7.3864    7.4720  -13.0530 C   0  0  0  0  0  0  0  0  0  0  0  0
    6.2412    7.8486  -12.2599 C   0  0  0  0  0  0  0  0  0  0  0  0
    7.6425    4.4186  -12.7943 C   0  0  0  0  0  0  0  0  0  0  0  0
   11.0297    3.2482  -14.8053 C   0  0  0  0  0  0  0  0  0  0  0  0
    8.6802    2.8955  -13.7960 C   0  0  0  0  0  0  0  0  0  0  0  0
    8.8565    1.5917  -14.3582 O   0  0  0  0  0  0  0  0  0  0  0  0
    7.6903    3.2226  -13.1994 N   0  0  0  0  0  0  0  0  0  0  0  0
    6.5724    2.3444  -12.8378 C   0  0  0  0  0  0  0  0  0  0  0  0
    9.0225    7.0353  -11.3259 C   0  0  0  0  0  0  0  0  0  0  0  0
    6.4787    4.7532  -12.1787 O   0  0  0  0  0  0  0  0  0  0  0  0
   10.5868    7.0468  -11.5199 C   0  0  0  0  0  0  0  0  0  0  0  0
   11.2761    7.4007  -10.4131 C   0  0  0  0  0  0  0  0  0  0  0  0
    8.6862    7.4300   -9.9877 C   0  0  0  0  0  0  0  0  0  0  0  0
    9.4326    7.6744   -8.9657 C   0  0  0  0  0  0  0  0  0  0  0  0
   10.6794    7.6568   -9.1312 C   0  0  2  0  0  0  0  0  0  0  0  0
    8.9269    7.9839   -7.6612 C   0  0  0  0  0  0  0  0  0  0  0  0
   11.4232    7.9744   -7.9321 C   0  0  0  0  0  0  0  0  0  0  0  0
   10.9573    8.3184   -6.8885 C   0  0  0  0  0  0  0  0  0  0  0  0
    7.5782    7.8797   -7.5710 F   0  0  0  0  0  0  0  0  0  0  0  0
   11.9524    8.6726   -5.5732 C   0  0  0  0  0  0  0  0  0  0  0  0
   12.5628    9.9251   -5.6215 C   0  0  0  0  0  0  0  0  0  0  0  0
   11.7409    8.0483   -4.4624 C   0  0  0  0  0  0  0  0  0  0  0  0
   13.2690   10.1339   -4.4918 C   0  0  0  0  0  0  0  0  0  0  0  0
    9.4630    8.1816   -6.7271 C   0  0  0  0  0  0  0  0  0  0  0  0
   10.9271    6.5813   -4.2694 Cl  0  0  0  0  0  0  0  0  0  0  0  0
   13.2280    9.4172   -3.3916 C   0  0  0  0  0  0  0  0  0  0  0  0
   12.5690    8.3880   -3.1889 C   0  0  0  0  0  0  0  0  0  0  0  0
  1  2  2  0  0  0  0
  1  4  1  0  0  0  0
  2  3  1  0  0  0  0
  3  6  2  0  0  0  0
  3 21  1  0  0  0  0
  4  5  2  0  0  0  0
  5  6  1  0  0  0  0
  6  7  1  0  0  0  0
  7  8  1  0  0  0  0
  7 10  2  0  0  0  0
  8  9  1  0  0  0  0
  8 13  1  0  0  0  0
  9 11  1  0  0  0  0
  9 19  2  0  0  0  0
 10 14  1  0  0  0  0
 10 15  1  0  0  0  0
 11 12  1  0  0  0  0
 13 17  1  0  0  0  0
 13 20  2  0  0  0  0
 15 16  2  0  0  0  0
 15 17  1  0  0  0  0
 17 18  1  0  0  0  0
 19 21  1  0  0  0  0
 19 23  1  0  0  0  0
 21 22  2  0  0  0  0
 23 24  2  0  0  0  0
 24 25  1  0  0  0  0
 24 26  1  0  0  0  0
 25 22  1  6  0  0  0
 25 27  1  0  0  0  0
 26 29  1  0  0  0  0
 26 34  2  0  0  0  0
 27 28  2  0  0  0  0
 28 30  1  0  0  0  0
 28 34  1  0  0  0  0
 30 31  1  0  0  0  0
 30 32  2  0  0  0  0
 31 33  2  0  0  0  0
 32 35  1  0  0  0  0
 32 37  1  0  0  0  0
 33 36  1  0  0  0  0
 36 37  2  0  0  0  0
M  END
$$$$

 OpenBabel10082411353D

 37 46  0  0  0  0  0  0  0  0999 V2000
    8.0806    9.0240  -12.7589 C   0  0  0  0  0  0  0  0  0  0  0  0
    8.6514    7.8645  -12.2948 C   0  0  0  0  0  0  0  0  0  0  0  0
    9.9575    7.9974  -11.8426 C   0  0  0  0  0  0  0  0  0  0  0  0
   10.7657    6.8667  -11.6050 C   0  0  1  0  0  0  0  0  0  0  0  0
   10.7682    5.9590  -12.8271 C   0  0  0  0  0  0  0  0  0  0  0  0
   12.1553    7.3846  -11.2315 C   0  0  0  0  0  0  0  0  0  0  0  0
    8.0676    6.6451  -12.2974 C   0  0  0  0  0  0  0  0  0  0  0  0
   10.1892    6.1240  -10.3860 C   0  0  0  0  0  0  0  0  0  0  0  0
   11.8375    5.4373  -13.3240 O   0  0  0  0  0  0  0  0  0  0  0  0
    8.6785    5.4761  -13.0273 C   0  0  1  0  0  0  0  0  0  0  0  0
    9.1969    5.2405  -10.4969 C   0  0  1  0  0  0  0  0  0  0  0  0
    7.2213    6.2210  -11.3074 C   0  0  1  0  0  0  0  0  0  0  0  0
   12.5590    7.6872   -9.9896 C   0  0  0  0  0  0  0  0  0  0  0  0
    9.7633    5.0333  -12.9720 C   0  0  1  0  0  0  0  0  0  0  0  0
   10.0661    4.0167  -14.0373 N   0  0  0  0  0  0  0  0  0  0  0  0
   13.6906    8.3004   -9.6233 O   0  0  0  0  0  0  0  0  0  0  0  0
    7.6357    4.5123  -12.6317 C   0  0  2  0  0  0  0  0  0  0  0  0
    6.8831    4.9171  -11.7031 C   0  0  1  0  0  0  0  0  0  0  0  0
   10.5937    6.6967   -9.1779 C   0  0  0  0  0  0  0  0  0  0  0  0
    9.5087    4.3263  -11.6925 C   0  0  2  0  0  0  0  0  0  0  0  0
   11.6359    7.4449   -8.9125 C   0  0  0  0  0  0  0  0  0  0  0  0
   11.9716    7.9159   -7.6200 C   0  0  0  0  0  0  0  0  0  0  0  0
    8.4648    3.6122  -12.2840 C   0  0  2  0  0  0  0  0  0  0  0  0
    9.3128    4.5571   -9.1689 C   0  0  0  0  0  0  0  0  0  0  0  0
   10.9557    7.6369   -6.5929 C   0  0  0  0  0  0  0  0  0  0  0  0
    9.6490    2.8108  -13.7776 C   0  0  0  0  0  0  0  0  0  0  0  0
   10.2419    1.7839  -14.4904 O   0  0  0  0  0  0  0  0  0  0  0  0
    9.8235    6.3429   -8.0308 C   0  0  0  0  0  0  0  0  0  0  0  0
    8.5421    2.5419  -13.1600 C   0  0  0  0  0  0  0  0  0  0  0  0
   10.0139    6.8647   -6.7816 C   0  0  0  0  0  0  0  0  0  0  0  0
    8.9641    5.2626   -8.0936 N   0  0  0  0  0  0  0  0  0  0  0  0
    7.9178    5.6594  -10.4374 C   0  0  1  0  0  0  0  0  0  0  0  0
   11.2467    8.3685   -5.1947 C   0  0  0  0  0  0  0  0  0  0  0  0
   12.0651    7.7023   -4.3308 C   0  0  0  0  0  0  0  0  0  0  0  0
   10.0012    8.7707   -4.5728 C   0  0  0  0  0  0  0  0  0  0  0  0
   11.3112    6.4924   -3.8247 C   0  0  0  0  0  0  0  0  0  0  0  0
   11.9279    9.5583   -5.2286 C   0  0  0  0  0  0  0  0  0  0  0  0
  1  2  1  0  0  0  0
  2  3  1  0  0  0  0
  2  7  2  0  0  0  0
  4  3  1  6  0  0  0
  4  5  1  0  0  0  0
  4  6  1  0  0  0  0
  4  8  1  0  0  0  0
  5  9  2  0  0  0  0
  6 13  1  0  0  0  0
  8 11  1  0  0  0  0
  8 19  2  0  0  0  0
 10  7  1  1  0  0  0
 10 14  1  0  0  0  0
 10 17  1  0  0  0  0
 11 20  1  0  0  0  0
 11 24  1  1  0  0  0
 11 32  1  0  0  0  0
 12  7  1  6  0  0  0
 12 18  1  0  0  0  0
 12 32  1  0  0  0  0
 13 16  2  0  0  0  0
 13 21  1  0  0  0  0
 14  5  1  1  0  0  0
 14 15  1  0  0  0  0
 14 20  1  0  0  0  0
 15 26  1  0  0  0  0
 17 18  1  0  0  0  0
 17 23  1  0  0  0  0
 18 32  1  0  0  0  0
 19 21  1  0  0  0  0
 19 28  1  0  0  0  0
 20 23  1  0  0  0  0
 21 22  2  0  0  0  0
 22 25  1  0  0  0  0
 23 29  1  0  0  0  0
 24 31  1  0  0  0  0
 25 30  2  0  0  0  0
 25 33  1  0  0  0  0
 26 27  2  0  0  0  0
 26 29  1  0  0  0  0
 28 30  1  0  0  0  0
 28 31  2  0  0  0  0
 33 34  1  0  0  0  0
 33 35  1  0  0  0  0
 33 37  1  0  0  0  0
 34 36  1  0  0  0  0
M  END
$$$$

 OpenBabel10082411353D

 37 40  0  0  0  0  0  0  0  0999 V2000
   10.9951    9.9694   -4.9946 C   0  0  0  0  0  0  0  0  0  0  0  0
   11.7938    9.3762   -4.2463 C   0  0  0  0  0  0  0  0  0  0  0  0
   10.8673    9.4548   -6.4276 C   0  0  0  0  0  0  0  0  0  0  0  0
   11.6576    7.9117   -4.2944 C   0  0  0  0  0  0  0  0  0  0  0  0
   10.5498    8.0257   -6.4521 C   0  0  0  0  0  0  0  0  0  0  0  0
   11.4715    7.2752   -5.6166 C   0  0  0  0  0  0  0  0  0  0  0  0
   10.5840    7.5390   -7.9254 C   0  0  0  0  0  0  0  0  0  0  0  0
   11.4612    8.1494   -8.8322 C   0  0  0  0  0  0  0  0  0  0  0  0
   12.6250    8.6294   -8.4338 O   0  0  0  0  0  0  0  0  0  0  0  0
   11.0835    8.4395  -10.0740 O   0  0  0  0  0  0  0  0  0  0  0  0
   11.2938    7.5612  -11.0769 C   0  0  0  0  0  0  0  0  0  0  0  0
   10.1547    7.2525  -11.9492 C   0  0  0  0  0  0  0  0  0  0  0  0
   10.4293    6.5622  -13.1348 C   0  0  0  0  0  0  0  0  0  0  0  0
   11.7295    6.4217  -13.6243 C   0  0  0  0  0  0  0  0  0  0  0  0
    8.8120    7.3918  -11.4649 C   0  0  0  0  0  0  0  0  0  0  0  0
   12.5351    7.8894  -11.6869 C   0  0  0  0  0  0  0  0  0  0  0  0
   13.5778    8.4243  -10.9673 O   0  0  0  0  0  0  0  0  0  0  0  0
    7.7211    7.1761  -12.4323 C   0  0  0  0  0  0  0  0  0  0  0  0
   12.8103    7.0723  -12.8897 C   0  0  0  0  0  0  0  0  0  0  0  0
    7.0543    5.9667  -12.3369 C   0  0  0  0  0  0  0  0  0  0  0  0
    7.2392    8.1844  -13.1320 C   0  0  0  0  0  0  0  0  0  0  0  0
    6.6882    5.3848  -13.5016 O   0  0  0  0  0  0  0  0  0  0  0  0
    6.5103    5.5543  -11.3870 O   0  0  0  0  0  0  0  0  0  0  0  0
    7.4031    4.0506  -13.7852 C   0  0  0  0  0  0  0  0  0  0  0  0
   11.9567    5.7137  -14.8744 C   0  0  0  0  0  0  0  0  0  0  0  0
    8.6219    3.9611  -14.1988 C   0  0  0  0  0  0  0  0  0  0  0  0
   12.1624    6.4252  -15.8904 C   0  0  0  0  0  0  0  0  0  0  0  0
    9.4613    3.0640  -13.5563 C   0  0  0  0  0  0  0  0  0  0  0  0
   12.1556    4.2801  -14.7975 C   0  0  0  0  0  0  0  0  0  0  0  0
   12.3902    5.6468  -17.1373 C   0  0  0  0  0  0  0  0  0  0  0  0
   12.6050    6.4725  -18.3183 C   0  0  0  0  0  0  0  0  0  0  0  0
   11.6103    7.1141  -18.6176 O   0  0  0  0  0  0  0  0  0  0  0  0
   13.6613    7.1242  -18.4366 O   0  0  0  0  0  0  0  0  0  0  0  0
   11.7812    3.4886  -13.6109 C   0  0  0  0  0  0  0  0  0  0  0  0
   10.7605    2.4750  -13.9200 C   0  0  0  0  0  0  0  0  0  0  0  0
   12.2591    3.6086  -15.9732 C   0  0  0  0  0  0  0  0  0  0  0  0
   12.4293    4.4354  -17.1702 C   0  0  0  0  0  0  0  0  0  0  0  0
  1  2  1  0  0  0  0
  1  3  1  0  0  0  0
  2  4  1  0  0  0  0
  3  5  1  0  0  0  0
  4  6  1  0  0  0  0
  5  6  1  0  0  0  0
  5  7  1  0  0  0  0
  7  8  1  0  0  0  0
  8  9  2  0  0  0  0
  8 10  1  0  0  0  0
 10 11  1  0  0  0  0
 11 12  1  0  0  0  0
 11 16  2  0  0  0  0
 12 13  2  0  0  0  0
 12 15  1  0  0  0  0
 13 14  1  0  0  0  0
 14 19  2  0  0  0  0
 14 25  1  0  0  0  0
 15 18  1  0  0  0  0
 16 17  1  0  0  0  0
 16 19  1  0  0  0  0
 18 20  1  0  0  0  0
 18 21  2  0  0  0  0
 20 22  1  0  0  0  0
 20 23  2  0  0  0  0
 22 24  1  0  0  0  0
 24 26  1  0  0  0  0
 25 27  2  0  0  0  0
 25 29  1  0  0  0  0
 26 28  1  0  0  0  0
 27 30  1  0  0  0  0
 28 35  1  0  0  0  0
 29 34  1  0  0  0  0
 29 36  2  0  0  0  0
 30 31  1  0  0  0  0
 30 37  2  0  0  0  0
 31 32  1  0  0  0  0
 31 33  2  0  0  0  0
 34 35  1  0  0  0  0
 36 37  1  0  0  0  0
M  END
$$$$

 OpenBabel10082411353D

 37 40  0  0  0  0  0  0  0  0999 V2000
   10.9951    9.9694   -4.9946 C   0  0  0  0  0  0  0  0  0  0  0  0
   11.7938    9.3762   -4.2463 C   0  0  0  0  0  0  0  0  0  0  0  0
   10.8673    9.4548   -6.4276 C   0  0  0  0  0  0  0  0  0  0  0  0
   11.6576    7.9117   -4.2944 C   0  0  0  0  0  0  0  0  0  0  0  0
   10.5498    8.0257   -6.4521 C   0  0  0  0  0  0  0  0  0  0  0  0
   11.4715    7.2752   -5.6166 C   0  0  0  0  0  0  0  0  0  0  0  0
   10.5840    7.5390   -7.9254 C   0  0  0  0  0  0  0  0  0  0  0  0
   11.4612    8.1494   -8.8322 C   0  0  0  0  0  0  0  0  0  0  0  0
   12.6250    8.6294   -8.4338 O   0  0  0  0  0  0  0  0  0  0  0  0
   11.0835    8.4395  -10.0740 O   0  0  0  0  0  0  0  0  0  0  0  0
   11.2938    7.5612  -11.0769 C   0  0  0  0  0  0  0  0  0  0  0  0
   10.1547    7.2525  -11.9492 C   0  0  0  0  0  0  0  0  0  0  0  0
   10.4293    6.5622  -13.1348 C   0  0  0  0  0  0  0  0  0  0  0  0
   11.7295    6.4217  -13.6243 C   0  0  0  0  0  0  0  0  0  0  0  0
    8.8120    7.3918  -11.4649 C   0  0  0  0  0  0  0  0  0  0  0  0
   12.5351    7.8894  -11.6869 C   0  0  0  0  0  0  0  0  0  0  0  0
   13.5778    8.4243  -10.9673 O   0  0  0  0  0  0  0  0  0  0  0  0
    7.7211    7.1761  -12.4323 C   0  0  0  0  0  0  0  0  0  0  0  0
   12.8103    7.0723  -12.8897 C   0  0  0  0  0  0  0  0  0  0  0  0
    7.0543    5.9667  -12.3369 C   0  0  0  0  0  0  0  0  0  0  0  0
    7.2392    8.1844  -13.1320 C   0  0  0  0  0  0  0  0  0  0  0  0
    6.6882    5.3848  -13.5016 O   0  0  0  0  0  0  0  0  0  0  0  0
    6.5103    5.5543  -11.3870 O   0  0  0  0  0  0  0  0  0  0  0  0
    7.4031    4.0506  -13.7852 C   0  0  0  0  0  0  0  0  0  0  0  0
    8.6811    3.9966  -14.1333 C   0  0  0  0  0  0  0  0  0  0  0  0
   12.0732    5.6649  -14.9357 C   0  0  0  0  0  0  0  0  0  0  0  0
    6.5842    3.0104  -13.4449 C   0  0  0  0  0  0  0  0  0  0  0  0
   12.1810    6.3505  -15.9550 C   0  0  0  0  0  0  0  0  0  0  0  0
   12.4265    5.3943  -17.1098 C   0  0  0  0  0  0  0  0  0  0  0  0
   11.9184    4.2576  -14.8844 C   0  0  0  0  0  0  0  0  0  0  0  0
   12.0158    3.4782  -15.9106 C   0  0  0  0  0  0  0  0  0  0  0  0
    5.1672    3.1967  -12.9871 C   0  0  0  0  0  0  0  0  0  0  0  0
    7.1727    1.7696  -13.6406 C   0  0  0  0  0  0  0  0  0  0  0  0
   11.9456    2.0651  -15.8693 F   0  0  0  0  0  0  0  0  0  0  0  0
    8.3241    1.5935  -14.0315 C   0  0  0  0  0  0  0  0  0  0  0  0
   12.3249    4.1553  -17.0664 C   0  0  0  0  0  0  0  0  0  0  0  0
    9.1866    2.6969  -14.2542 C   0  0  0  0  0  0  0  0  0  0  0  0
  1  2  1  0  0  0  0
  1  3  1  0  0  0  0
  2  4  1  0  0  0  0
  3  5  1  0  0  0  0
  4  6  1  0  0  0  0
  5  6  1  0  0  0  0
  5  7  1  0  0  0  0
  7  8  1  0  0  0  0
  8  9  2  0  0  0  0
  8 10  1  0  0  0  0
 10 11  1  0  0  0  0
 11 12  1  0  0  0  0
 11 16  2  0  0  0  0
 12 13  2  0  0  0  0
 12 15  1  0  0  0  0
 13 14  1  0  0  0  0
 14 19  2  0  0  0  0
 14 26  1  0  0  0  0
 15 18  1  0  0  0  0
 16 17  1  0  0  0  0
 16 19  1  0  0  0  0
 18 20  1  0  0  0  0
 18 21  2  0  0  0  0
 20 22  1  0  0  0  0
 20 23  2  0  0  0  0
 22 24  1  0  0  0  0
 24 25  1  0  0  0  0
 24 27  2  0  0  0  0
 25 37  2  0  0  0  0
 26 28  2  0  0  0  0
 26 30  1  0  0  0  0
 27 32  1  0  0  0  0
 27 33  1  0  0  0  0
 28 29  1  0  0  0  0
 29 36  2  0  0  0  0
 30 31  2  0  0  0  0
 31 34  1  0  0  0  0
 31 36  1  0  0  0  0
 33 35  2  0  0  0  0
 35 37  1  0  0  0  0
M  END
$$$$

 OpenBabel10082411353D

 37 40  0  0  0  0  0  0  0  0999 V2000
   11.6836    6.0105   -4.8831 F   0  0  0  0  0  0  0  0  0  0  0  0
   11.2562    7.2206   -5.0294 C   0  0  0  0  0  0  0  0  0  0  0  0
   12.0125    8.2418   -4.4408 C   0  0  0  0  0  0  0  0  0  0  0  0
   11.1918    7.2706   -6.5237 C   0  0  0  0  0  0  0  0  0  0  0  0
   11.6999    8.4488   -3.1704 F   0  0  0  0  0  0  0  0  0  0  0  0
    9.8648    7.0908   -4.5314 F   0  0  0  0  0  0  0  0  0  0  0  0
   11.6831    8.5291   -6.9682 C   0  0  0  0  0  0  0  0  0  0  0  0
   10.4785    6.5189   -7.4033 C   0  0  0  0  0  0  0  0  0  0  0  0
   11.6979    8.6661   -8.4760 C   0  0  0  0  0  0  0  0  0  0  0  0
   11.6248    9.5853   -5.0030 C   0  0  0  0  0  0  0  0  0  0  0  0
   11.8604    9.7907   -6.2903 O   0  0  0  0  0  0  0  0  0  0  0  0
   13.3557    8.1748   -4.5947 F   0  0  0  0  0  0  0  0  0  0  0  0
   10.5427    6.6061   -8.7190 C   0  0  0  0  0  0  0  0  0  0  0  0
   11.1158    7.7103   -9.2540 C   0  0  0  0  0  0  0  0  0  0  0  0
   11.3757    7.6656  -10.5293 N   0  0  0  0  0  0  0  0  0  0  0  0
   10.7153    7.7096  -11.5405 C   0  0  0  0  0  0  0  0  0  0  0  0
   11.2483    7.4711  -12.8542 C   0  0  0  0  0  0  0  0  0  0  0  0
    9.3980    7.7820  -11.5398 C   0  0  0  0  0  0  0  0  0  0  0  0
    8.6055    7.5889  -12.6525 C   0  0  0  0  0  0  0  0  0  0  0  0
   12.7508    7.3705  -13.0162 O   0  0  0  0  0  0  0  0  0  0  0  0
   10.5299    7.1831  -13.9856 C   0  0  0  0  0  0  0  0  0  0  0  0
    7.0533    7.7371  -12.5396 C   0  0  0  0  0  0  0  0  0  0  0  0
   11.2041    6.8490  -15.2304 C   0  0  0  0  0  0  0  0  0  0  0  0
   11.6393    5.5333  -15.3864 C   0  0  0  0  0  0  0  0  0  0  0  0
    9.1955    7.2935  -13.8301 C   0  0  0  0  0  0  0  0  0  0  0  0
   12.5294    5.1116  -16.1609 C   0  0  0  0  0  0  0  0  0  0  0  0
   11.2315    4.4703  -14.3200 C   0  0  0  0  0  0  0  0  0  0  0  0
   10.2844    4.5821  -13.3000 C   0  0  0  0  0  0  0  0  0  0  0  0
   11.6270    3.1866  -14.6052 C   0  0  0  0  0  0  0  0  0  0  0  0
    9.0868    3.8289  -13.3080 C   0  0  0  0  0  0  0  0  0  0  0  0
    8.1007    4.0948  -12.4103 C   0  0  0  0  0  0  0  0  0  0  0  0
    6.8410    3.6347  -12.6829 C   0  0  0  0  0  0  0  0  0  0  0  0
   12.9624    6.1826  -17.2150 C   0  0  0  0  0  0  0  0  0  0  0  0
   11.1536    2.1160  -13.7692 F   0  0  0  0  0  0  0  0  0  0  0  0
   12.3467    2.9855  -15.4534 C   0  0  0  0  0  0  0  0  0  0  0  0
    5.6530    4.0353  -11.8876 C   0  0  0  0  0  0  0  0  0  0  0  0
   12.8382    3.8634  -16.3663 C   0  0  0  0  0  0  0  0  0  0  0  0
  1  2  1  0  0  0  0
  2  3  1  0  0  0  0
  2  4  1  0  0  0  0
  2  6  1  0  0  0  0
  3  5  1  0  0  0  0
  3 10  1  0  0  0  0
  3 12  1  0  0  0  0
  4  7  1  0  0  0  0
  4  8  2  0  0  0  0
  7  9  2  0  0  0  0
  7 11  1  0  0  0  0
  8 13  1  0  0  0  0
  9 14  1  0  0  0  0
 10 11  1  0  0  0  0
 13 14  2  0  0  0  0
 14 15  1  0  0  0  0
 15 16  1  0  0  0  0
 16 17  1  0  0  0  0
 16 18  2  0  0  0  0
 17 20  1  0  0  0  0
 17 21  2  0  0  0  0
 18 19  1  0  0  0  0
 19 22  1  0  0  0  0
 19 25  2  0  0  0  0
 21 23  1  0  0  0  0
 21 25  1  0  0  0  0
 23 24  1  0  0  0  0
 24 26  2  0  0  0  0
 24 27  1  0  0  0  0
 26 33  1  0  0  0  0
 26 37  1  0  0  0  0
 27 28  1  0  0  0  0
 27 29  2  0  0  0  0
 28 30  2  3  0  0  0
 29 34  1  0  0  0  0
 29 35  1  0  0  0  0
 30 31  1  0  0  0  0
 31 32  2  3  0  0  0
 32 36  1  0  0  0  0
 35 37  2  0  0  0  0
M  END
$$$$

 OpenBabel10082411353D

 37 45  0  0  0  0  0  0  0  0999 V2000
    8.0806    9.0240  -12.7589 C   0  0  0  0  0  0  0  0  0  0  0  0
    8.6514    7.8645  -12.2948 C   0  0  0  0  0  0  0  0  0  0  0  0
    9.9575    7.9974  -11.8426 C   0  0  0  0  0  0  0  0  0  0  0  0
   10.7657    6.8667  -11.6050 C   0  0  1  0  0  0  0  0  0  0  0  0
   10.7682    5.9590  -12.8271 C   0  0  0  0  0  0  0  0  0  0  0  0
   12.1553    7.3846  -11.2315 C   0  0  0  0  0  0  0  0  0  0  0  0
    8.0676    6.6451  -12.2974 C   0  0  0  0  0  0  0  0  0  0  0  0
   10.1892    6.1240  -10.3860 C   0  0  0  0  0  0  0  0  0  0  0  0
   11.8375    5.4373  -13.3240 O   0  0  0  0  0  0  0  0  0  0  0  0
    8.6785    5.4761  -13.0273 C   0  0  1  0  0  0  0  0  0  0  0  0
    9.1969    5.2405  -10.4969 C   0  0  1  0  0  0  0  0  0  0  0  0
    7.2213    6.2210  -11.3074 C   0  0  0  0  0  0  0  0  0  0  0  0
   12.5590    7.6872   -9.9896 C   0  0  0  0  0  0  0  0  0  0  0  0
    9.7633    5.0333  -12.9720 C   0  0  1  0  0  0  0  0  0  0  0  0
   10.0661    4.0167  -14.0373 N   0  0  0  0  0  0  0  0  0  0  0  0
   13.6906    8.3004   -9.6233 O   0  0  0  0  0  0  0  0  0  0  0  0
    7.6357    4.5123  -12.6317 C   0  0  2  0  0  0  0  0  0  0  0  0
    6.8831    4.9171  -11.7031 C   0  0  0  0  0  0  0  0  0  0  0  0
   10.5937    6.6967   -9.1779 C   0  0  0  0  0  0  0  0  0  0  0  0
    9.5087    4.3263  -11.6925 C   0  0  2  0  0  0  0  0  0  0  0  0
   11.6359    7.4449   -8.9125 C   0  0  0  0  0  0  0  0  0  0  0  0
   11.9716    7.9159   -7.6200 C   0  0  0  0  0  0  0  0  0  0  0  0
    8.4648    3.6122  -12.2840 C   0  0  2  0  0  0  0  0  0  0  0  0
    9.3128    4.5571   -9.1689 C   0  0  0  0  0  0  0  0  0  0  0  0
   10.9557    7.6369   -6.5929 C   0  0  1  0  0  0  0  0  0  0  0  0
    9.6490    2.8108  -13.7776 C   0  0  1  0  0  0  0  0  0  0  0  0
    9.6716    6.1981   -8.0224 C   0  0  2  0  0  0  0  0  0  0  0  0
    8.5511    2.5400  -13.1402 C   0  0  0  0  0  0  0  0  0  0  0  0
    9.7877    2.0302  -15.0383 O   0  0  0  0  0  0  0  0  0  0  0  0
   10.2949    6.3957   -6.8142 C   0  0  0  0  0  0  0  0  0  0  0  0
    9.0872    5.0431   -8.0754 C   0  0  0  0  0  0  0  0  0  0  0  0
   11.6109    7.7802   -5.1646 C   0  0  0  0  0  0  0  0  0  0  0  0
   11.6041    6.8019   -4.4350 C   0  0  0  0  0  0  0  0  0  0  0  0
   12.0846    9.0802   -4.7745 C   0  0  0  0  0  0  0  0  0  0  0  0
   12.2514    6.9163   -3.1192 C   0  0  0  0  0  0  0  0  0  0  0  0
   12.7375    9.2323   -3.4088 C   0  0  0  0  0  0  0  0  0  0  0  0
   12.6915    8.1647   -2.6022 C   0  0  0  0  0  0  0  0  0  0  0  0
  1  2  1  0  0  0  0
  2  3  1  0  0  0  0
  2  7  2  0  0  0  0
  4  3  1  6  0  0  0
  4  5  1  0  0  0  0
  4  6  1  0  0  0  0
  4  8  1  0  0  0  0
  5  9  2  0  0  0  0
  6 13  1  0  0  0  0
  7 12  1  0  0  0  0
  8 11  1  0  0  0  0
  8 19  2  0  0  0  0
 10  7  1  1  0  0  0
 10 14  1  0  0  0  0
 10 17  1  0  0  0  0
 11 20  1  0  0  0  0
 11 24  1  1  0  0  0
 12 18  1  0  0  0  0
 13 16  2  0  0  0  0
 13 21  1  0  0  0  0
 14  5  1  1  0  0  0
 14 15  1  0  0  0  0
 14 20  1  0  0  0  0
 15 26  1  0  0  0  0
 17 18  1  1  0  0  0
 17 23  1  0  0  0  0
 19 21  1  0  0  0  0
 19 27  1  0  0  0  0
 20 23  1  0  0  0  0
 21 22  2  0  0  0  0
 22 25  1  0  0  0  0
 23 28  1  0  0  0  0
 24 31  1  0  0  0  0
 25 30  1  0  0  0  0
 25 32  1  0  0  0  0
 26 28  1  0  0  0  0
 26 29  1  0  0  0  0
 27 30  1  0  0  0  0
 27 31  1  0  0  0  0
 32 33  1  0  0  0  0
 32 34  2  0  0  0  0
 33 35  2  0  0  0  0
 34 36  1  0  0  0  0
 35 37  1  0  0  0  0
 36 37  2  0  0  0  0
M  END
$$$$

 OpenBabel10082411353D

 37 42  0  0  0  0  0  0  0  0999 V2000
   11.6836    6.0105   -4.8831 C   0  0  0  0  0  0  0  0  0  0  0  0
   11.1291    7.0732   -5.4395 C   0  0  0  0  0  0  0  0  0  0  0  0
   10.6954    7.0156   -6.8073 C   0  0  0  0  0  0  0  0  0  0  0  0
   10.2502    8.1187   -7.5536 C   0  0  2  0  0  0  0  0  0  0  0  0
   11.1205    8.4712   -4.9629 C   0  0  0  0  0  0  0  0  0  0  0  0
   10.8655    8.3511   -8.7960 C   0  0  0  0  0  0  0  0  0  0  0  0
   10.2922    7.8843   -9.9985 C   0  0  0  0  0  0  0  0  0  0  0  0
   10.4654    9.6993   -5.6120 C   0  0  0  0  0  0  0  0  0  0  0  0
   10.3510    9.5971   -7.0014 C   0  0  0  0  0  0  0  0  0  0  0  0
   12.2462    6.3351   -3.5020 C   0  0  0  0  0  0  0  0  0  0  0  0
   11.0471    7.5309  -11.1063 C   0  0  0  0  0  0  0  0  0  0  0  0
   11.7288    8.6923   -3.6518 C   0  0  0  0  0  0  0  0  0  0  0  0
   12.3991    7.7501  -11.1145 C   0  0  0  0  0  0  0  0  0  0  0  0
   12.3738    7.7580   -2.9599 C   0  0  0  0  0  0  0  0  0  0  0  0
   13.1285    8.5075  -10.1661 O   0  0  0  0  0  0  0  0  0  0  0  0
    9.0407    7.3775  -10.0973 N   0  0  0  0  0  0  0  0  0  0  0  0
    8.9787    6.9473  -11.4664 N   0  0  0  0  0  0  0  0  0  0  0  0
   13.1012    7.4459  -12.3707 C   0  0  0  0  0  0  0  0  0  0  0  0
   12.2395    6.9724  -13.2444 C   0  0  0  0  0  0  0  0  0  0  0  0
   10.2768    7.0170  -11.9799 C   0  0  0  0  0  0  0  0  0  0  0  0
   12.9237    6.5822  -14.5759 O   0  0  0  0  0  0  0  0  0  0  0  0
   10.8906    6.6526  -13.2252 C   0  0  0  0  0  0  0  0  0  0  0  0
   12.2396    6.1290  -15.6916 C   0  0  0  0  0  0  0  0  0  0  0  0
    7.7368    6.4514  -12.0707 C   0  0  0  0  0  0  0  0  0  0  0  0
    7.1353    7.2872  -12.8105 C   0  0  0  0  0  0  0  0  0  0  0  0
    7.6622    5.0135  -12.1225 C   0  0  0  0  0  0  0  0  0  0  0  0
   12.5092    4.6950  -15.8147 C   0  0  0  0  0  0  0  0  0  0  0  0
    5.9403    6.5840  -13.2897 C   0  0  0  0  0  0  0  0  0  0  0  0
   11.2738    3.8422  -15.5220 N   0  0  0  0  0  0  0  0  0  0  0  0
    8.7139    4.1736  -11.4601 C   0  0  0  0  0  0  0  0  0  0  0  0
    5.7546    5.3014  -13.2955 C   0  0  0  0  0  0  0  0  0  0  0  0
    6.7066    4.4368  -12.5910 C   0  0  0  0  0  0  0  0  0  0  0  0
   11.4629    2.6467  -15.2377 C   0  0  0  0  0  0  0  0  0  0  0  0
   10.2645    3.9965  -16.4940 C   0  0  0  0  0  0  0  0  0  0  0  0
   10.1233    2.0245  -14.6995 C   0  0  0  0  0  0  0  0  0  0  0  0
    8.9879    3.3849  -15.8684 C   0  0  0  0  0  0  0  0  0  0  0  0
    9.1748    2.1330  -15.6588 O   0  0  0  0  0  0  0  0  0  0  0  0
  1  2  1  0  0  0  0
  1 10  2  0  0  0  0
  2  3  1  0  0  0  0
  2  5  2  0  0  0  0
  3  4  1  0  0  0  0
  4  6  1  6  0  0  0
  4  9  1  0  0  0  0
  5  8  1  0  0  0  0
  5 12  1  0  0  0  0
  6  7  1  0  0  0  0
  7 11  1  0  0  0  0
  7 16  2  0  0  0  0
  8  9  1  0  0  0  0
 10 14  1  0  0  0  0
 11 13  2  0  0  0  0
 11 20  1  0  0  0  0
 12 14  2  0  0  0  0
 13 15  1  0  0  0  0
 13 18  1  0  0  0  0
 16 17  1  0  0  0  0
 17 20  1  0  0  0  0
 17 24  1  0  0  0  0
 18 19  2  0  0  0  0
 19 21  1  0  0  0  0
 19 22  1  0  0  0  0
 20 22  2  0  0  0  0
 21 23  1  0  0  0  0
 23 27  1  0  0  0  0
 24 25  2  0  0  0  0
 24 26  1  0  0  0  0
 25 28  1  0  0  0  0
 26 30  1  0  0  0  0
 26 32  2  0  0  0  0
 27 29  1  0  0  0  0
 28 31  2  0  0  0  0
 29 33  1  0  0  0  0
 29 34  1  0  0  0  0
 31 32  1  0  0  0  0
 33 35  1  0  0  0  0
 34 36  1  0  0  0  0
 35 37  1  0  0  0  0
 36 37  1  0  0  0  0
M  END
$$$$

 OpenBabel10082411353D

 25 28  0  0  0  0  0  0  0  0999 V2000
   12.7863    7.8241  -14.2109 C   0  0  0  0  0  0  0  0  0  0  0  0
   11.9525    6.9332  -13.8387 C   0  0  0  0  0  0  0  0  0  0  0  0
   11.7267    5.7328  -14.5132 C   0  0  0  0  0  0  0  0  0  0  0  0
   10.8046    4.7643  -14.0327 C   0  0  0  0  0  0  0  0  0  0  0  0
   11.0272    7.2755  -12.6804 C   0  0  0  0  0  0  0  0  0  0  0  0
   10.1335    6.2811  -12.2788 C   0  0  0  0  0  0  0  0  0  0  0  0
    9.8916    5.1213  -12.9670 C   0  0  0  0  0  0  0  0  0  0  0  0
    8.9904    4.1216  -12.5529 O   0  0  0  0  0  0  0  0  0  0  0  0
   10.5763    3.5139  -14.7726 C   0  0  2  0  0  0  0  0  0  0  0  0
    9.2216    6.6517  -11.1444 C   0  0  2  0  0  0  0  0  0  0  0  0
   11.6828    2.9906  -15.2550 O   0  0  0  0  0  0  0  0  0  0  0  0
    9.6802    3.3848  -15.8211 C   0  0  0  0  0  0  0  0  0  0  0  0
    7.9692    4.5534  -11.7319 C   0  0  0  0  0  0  0  0  0  0  0  0
    9.8504    7.1270  -10.0334 N   0  0  2  0  0  0  0  0  0  0  0  0
   10.0575    6.4133   -8.8721 C   0  0  0  0  0  0  0  0  0  0  0  0
    8.0108    5.8754  -11.0419 C   0  0  0  0  0  0  0  0  0  0  0  0
    6.9254    3.6523  -11.7023 C   0  0  0  0  0  0  0  0  0  0  0  0
    5.6876    3.8814  -11.3684 O   0  0  0  0  0  0  0  0  0  0  0  0
   10.6360    7.2450   -7.7901 C   0  0  2  0  0  0  0  0  0  0  0  0
   10.3607    6.9248   -6.5350 C   0  0  0  0  0  0  0  0  0  0  0  0
   10.4027    8.6143   -8.1189 C   0  0  1  0  0  0  0  0  0  0  0  0
   11.2493    9.6309   -7.4430 C   0  0  0  0  0  0  0  0  0  0  0  0
   11.1413    7.8238   -5.5195 C   0  0  0  0  0  0  0  0  0  0  0  0
   10.4351    8.6622   -9.7063 C   0  0  0  0  0  0  0  0  0  0  0  0
   11.0295    9.3223   -5.8640 C   0  0  0  0  0  0  0  0  0  0  0  0
  1  2  1  0  0  0  0
  2  3  2  0  0  0  0
  2  5  1  0  0  0  0
  3  4  1  0  0  0  0
  4  7  2  0  0  0  0
  4  9  1  0  0  0  0
  5  6  2  0  0  0  0
  6  7  1  0  0  0  0
  6 10  1  0  0  0  0
  7  8  1  0  0  0  0
  8 13  1  0  0  0  0
  9 11  1  0  0  0  0
  9 12  1  6  0  0  0
 10 14  1  0  0  0  0
 10 16  1  1  0  0  0
 13 16  1  0  0  0  0
 13 17  2  3  0  0  0
 14 15  1  1  0  0  0
 14 24  1  0  0  0  0
 17 18  1  0  0  0  0
 19 15  1  6  0  0  0
 19 20  1  0  0  0  0
 19 21  1  0  0  0  0
 20 23  1  0  0  0  0
 21 22  1  1  0  0  0
 21 24  1  0  0  0  0
 22 25  1  0  0  0  0
 23 25  1  0  0  0  0
M  END
$$$$

 OpenBabel10082411353D

 37 45  0  0  0  0  0  0  0  0999 V2000
    8.0806    9.0240  -12.7589 C   0  0  0  0  0  0  0  0  0  0  0  0
    8.6514    7.8645  -12.2948 C   0  0  0  0  0  0  0  0  0  0  0  0
    9.9575    7.9974  -11.8426 C   0  0  0  0  0  0  0  0  0  0  0  0
   10.7657    6.8667  -11.6050 C   0  0  1  0  0  0  0  0  0  0  0  0
   10.7682    5.9590  -12.8271 C   0  0  0  0  0  0  0  0  0  0  0  0
   12.1553    7.3846  -11.2315 C   0  0  0  0  0  0  0  0  0  0  0  0
    8.0676    6.6451  -12.2974 C   0  0  0  0  0  0  0  0  0  0  0  0
   10.1892    6.1240  -10.3860 C   0  0  0  0  0  0  0  0  0  0  0  0
   11.8375    5.4373  -13.3240 O   0  0  0  0  0  0  0  0  0  0  0  0
    8.6785    5.4761  -13.0273 C   0  0  1  0  0  0  0  0  0  0  0  0
    9.1969    5.2405  -10.4969 C   0  0  1  0  0  0  0  0  0  0  0  0
    7.2213    6.2210  -11.3074 C   0  0  1  0  0  0  0  0  0  0  0  0
   12.5590    7.6872   -9.9896 C   0  0  0  0  0  0  0  0  0  0  0  0
    9.7633    5.0333  -12.9720 C   0  0  1  0  0  0  0  0  0  0  0  0
   10.0661    4.0167  -14.0373 N   0  0  0  0  0  0  0  0  0  0  0  0
   13.6906    8.3004   -9.6233 O   0  0  0  0  0  0  0  0  0  0  0  0
    7.6357    4.5123  -12.6317 C   0  0  2  0  0  0  0  0  0  0  0  0
    6.8831    4.9171  -11.7031 C   0  0  0  0  0  0  0  0  0  0  0  0
   10.5937    6.6967   -9.1779 C   0  0  0  0  0  0  0  0  0  0  0  0
    9.5087    4.3263  -11.6925 C   0  0  2  0  0  0  0  0  0  0  0  0
   11.6359    7.4449   -8.9125 C   0  0  0  0  0  0  0  0  0  0  0  0
   11.9716    7.9159   -7.6200 C   0  0  0  0  0  0  0  0  0  0  0  0
    8.4648    3.6122  -12.2840 C   0  0  2  0  0  0  0  0  0  0  0  0
    9.3128    4.5571   -9.1689 C   0  0  0  0  0  0  0  0  0  0  0  0
   10.9557    7.6369   -6.5929 C   0  0  2  0  0  0  0  0  0  0  0  0
    9.6490    2.8108  -13.7776 C   0  0  1  0  0  0  0  0  0  0  0  0
    9.6716    6.1981   -8.0224 C   0  0  0  0  0  0  0  0  0  0  0  0
    8.5511    2.5400  -13.1402 C   0  0  0  0  0  0  0  0  0  0  0  0
    9.7877    2.0302  -15.0383 O   0  0  0  0  0  0  0  0  0  0  0  0
   10.2949    6.3957   -6.8142 C   0  0  0  0  0  0  0  0  0  0  0  0
   10.0248    8.9234   -6.5076 C   0  0  0  0  0  0  0  0  0  0  0  0
   11.5333    7.8194   -5.1272 C   0  0  0  0  0  0  0  0  0  0  0  0
    8.7519    3.1892   -9.1734 C   0  0  0  0  0  0  0  0  0  0  0  0
    7.8877    5.4478  -10.4542 C   0  0  0  0  0  0  0  0  0  0  0  0
    9.0736    5.3053   -8.1891 N   0  0  0  0  0  0  0  0  0  0  0  0
   12.0205    9.1132   -4.7817 C   0  0  0  0  0  0  0  0  0  0  0  0
   12.6596    9.3341   -3.6018 C   0  0  0  0  0  0  0  0  0  0  0  0
  1  2  1  0  0  0  0
  2  3  1  0  0  0  0
  2  7  2  0  0  0  0
  4  3  1  6  0  0  0
  4  5  1  0  0  0  0
  4  6  1  0  0  0  0
  4  8  1  0  0  0  0
  5  9  2  0  0  0  0
  6 13  1  0  0  0  0
  7 12  1  0  0  0  0
  8 11  1  0  0  0  0
  8 19  2  0  0  0  0
 10  7  1  1  0  0  0
 10 14  1  0  0  0  0
 10 17  1  0  0  0  0
 11 20  1  0  0  0  0
 11 24  1  0  0  0  0
 11 34  1  6  0  0  0
 12 18  1  6  0  0  0
 12 34  1  0  0  0  0
 13 16  2  0  0  0  0
 13 21  1  0  0  0  0
 14  5  1  1  0  0  0
 14 15  1  0  0  0  0
 14 20  1  0  0  0  0
 15 26  1  0  0  0  0
 17 18  1  1  0  0  0
 17 23  1  0  0  0  0
 19 21  1  0  0  0  0
 19 27  1  0  0  0  0
 20 23  1  0  0  0  0
 21 22  2  0  0  0  0
 22 25  1  0  0  0  0
 23 28  1  0  0  0  0
 24 33  2  0  0  0  0
 24 35  1  0  0  0  0
 25 30  1  0  0  0  0
 25 31  1  0  0  0  0
 25 32  1  0  0  0  0
 26 28  1  0  0  0  0
 26 29  1  0  0  0  0
 27 30  1  0  0  0  0
 27 35  2  0  0  0  0
 32 36  1  0  0  0  0
 36 37  1  0  0  0  0
M  END
$$$$

 OpenBabel10082411353D

 37 47  0  0  0  0  0  0  0  0999 V2000
    8.0806    9.0240  -12.7589 C   0  0  0  0  0  0  0  0  0  0  0  0
    8.6514    7.8645  -12.2948 C   0  0  0  0  0  0  0  0  0  0  0  0
    9.9575    7.9974  -11.8426 C   0  0  0  0  0  0  0  0  0  0  0  0
   10.7657    6.8667  -11.6050 C   0  0  1  0  0  0  0  0  0  0  0  0
   10.7682    5.9590  -12.8271 C   0  0  0  0  0  0  0  0  0  0  0  0
   12.1553    7.3846  -11.2315 C   0  0  0  0  0  0  0  0  0  0  0  0
    8.0676    6.6451  -12.2974 C   0  0  0  0  0  0  0  0  0  0  0  0
   10.1892    6.1240  -10.3860 C   0  0  0  0  0  0  0  0  0  0  0  0
   11.8375    5.4373  -13.3240 O   0  0  0  0  0  0  0  0  0  0  0  0
    8.6785    5.4761  -13.0273 C   0  0  1  0  0  0  0  0  0  0  0  0
    9.1969    5.2405  -10.4969 C   0  0  1  0  0  0  0  0  0  0  0  0
    7.2213    6.2210  -11.3074 C   0  0  1  0  0  0  0  0  0  0  0  0
   12.5590    7.6872   -9.9896 C   0  0  0  0  0  0  0  0  0  0  0  0
    9.7633    5.0333  -12.9720 C   0  0  1  0  0  0  0  0  0  0  0  0
   10.0661    4.0167  -14.0373 N   0  0  0  0  0  0  0  0  0  0  0  0
   13.6906    8.3004   -9.6233 O   0  0  0  0  0  0  0  0  0  0  0  0
    7.6357    4.5123  -12.6317 C   0  0  2  0  0  0  0  0  0  0  0  0
    6.8831    4.9171  -11.7031 C   0  0  1  0  0  0  0  0  0  0  0  0
   10.5937    6.6967   -9.1779 C   0  0  0  0  0  0  0  0  0  0  0  0
    9.5087    4.3263  -11.6925 C   0  0  2  0  0  0  0  0  0  0  0  0
   11.6359    7.4449   -8.9125 C   0  0  0  0  0  0  0  0  0  0  0  0
   11.9716    7.9159   -7.6200 C   0  0  0  0  0  0  0  0  0  0  0  0
    8.4648    3.6122  -12.2840 C   0  0  2  0  0  0  0  0  0  0  0  0
    9.3128    4.5571   -9.1689 C   0  0  0  0  0  0  0  0  0  0  0  0
   10.9557    7.6369   -6.5929 C   0  0  1  0  0  0  0  0  0  0  0  0
    9.6490    2.8108  -13.7776 C   0  0  1  0  0  0  0  0  0  0  0  0
    9.6716    6.1981   -8.0224 C   0  0  2  0  0  0  0  0  0  0  0  0
    8.5511    2.5400  -13.1402 C   0  0  0  0  0  0  0  0  0  0  0  0
    9.7877    2.0302  -15.0383 O   0  0  0  0  0  0  0  0  0  0  0  0
   10.2949    6.3957   -6.8142 C   0  0  0  0  0  0  0  0  0  0  0  0
   11.5442    7.8028   -5.1770 C   0  0  0  0  0  0  0  0  0  0  0  0
    9.3662    4.9454   -8.1688 C   0  0  0  0  0  0  0  0  0  0  0  0
    9.9825    8.6746   -6.2053 C   0  0  0  0  0  0  0  0  0  0  0  0
   11.8670    9.1982   -4.7195 C   0  0  1  0  0  0  0  0  0  0  0  0
   12.7706    9.9232   -5.2633 O   0  0  0  0  0  0  0  0  0  0  0  0
   10.4558    9.7536   -5.2742 C   0  0  0  0  0  0  0  0  0  0  0  0
    7.9394    5.6503  -10.4924 C   0  0  1  0  0  0  0  0  0  0  0  0
  1  2  1  0  0  0  0
  2  3  1  0  0  0  0
  2  7  2  0  0  0  0
  4  3  1  6  0  0  0
  4  5  1  0  0  0  0
  4  6  1  0  0  0  0
  4  8  1  0  0  0  0
  5  9  2  0  0  0  0
  6 13  1  0  0  0  0
  8 11  1  0  0  0  0
  8 19  2  0  0  0  0
 10  7  1  1  0  0  0
 10 14  1  0  0  0  0
 10 17  1  0  0  0  0
 11 20  1  0  0  0  0
 11 24  1  1  0  0  0
 11 37  1  0  0  0  0
 12  7  1  6  0  0  0
 12 18  1  0  0  0  0
 12 37  1  0  0  0  0
 13 16  2  0  0  0  0
 13 21  1  0  0  0  0
 14  5  1  1  0  0  0
 14 15  1  0  0  0  0
 14 20  1  0  0  0  0
 15 26  1  0  0  0  0
 17 18  1  0  0  0  0
 17 23  1  0  0  0  0
 18 37  1  0  0  0  0
 19 21  1  0  0  0  0
 19 27  1  0  0  0  0
 20 23  1  0  0  0  0
 21 22  2  0  0  0  0
 22 25  1  0  0  0  0
 23 28  1  0  0  0  0
 24 32  2  0  0  0  0
 25 30  1  0  0  0  0
 25 31  1  0  0  0  0
 25 33  1  0  0  0  0
 26 28  1  0  0  0  0
 26 29  1  0  0  0  0
 27 30  1  0  0  0  0
 27 32  1  0  0  0  0
 31 34  1  0  0  0  0
 33 36  1  0  0  0  0
 34 35  1  0  0  0  0
 34 36  1  0  0  0  0
M  END
$$$$

 OpenBabel10082411353D

 37 44  0  0  0  0  0  0  0  0999 V2000
    8.0806    9.0240  -12.7589 C   0  0  0  0  0  0  0  0  0  0  0  0
    8.6514    7.8645  -12.2948 C   0  0  0  0  0  0  0  0  0  0  0  0
    9.9575    7.9974  -11.8426 C   0  0  0  0  0  0  0  0  0  0  0  0
   10.7657    6.8667  -11.6050 C   0  0  1  0  0  0  0  0  0  0  0  0
   10.7682    5.9590  -12.8271 C   0  0  0  0  0  0  0  0  0  0  0  0
   12.1553    7.3846  -11.2315 C   0  0  0  0  0  0  0  0  0  0  0  0
    8.0676    6.6451  -12.2974 C   0  0  0  0  0  0  0  0  0  0  0  0
   10.1892    6.1240  -10.3860 C   0  0  0  0  0  0  0  0  0  0  0  0
   11.8375    5.4373  -13.3240 O   0  0  0  0  0  0  0  0  0  0  0  0
    8.6785    5.4761  -13.0273 C   0  0  1  0  0  0  0  0  0  0  0  0
    9.1969    5.2405  -10.4969 C   0  0  1  0  0  0  0  0  0  0  0  0
    7.2213    6.2210  -11.3074 C   0  0  0  0  0  0  0  0  0  0  0  0
   12.5590    7.6872   -9.9896 C   0  0  0  0  0  0  0  0  0  0  0  0
    9.7633    5.0333  -12.9720 C   0  0  1  0  0  0  0  0  0  0  0  0
   10.0661    4.0167  -14.0373 N   0  0  0  0  0  0  0  0  0  0  0  0
   13.6906    8.3004   -9.6233 O   0  0  0  0  0  0  0  0  0  0  0  0
    7.6357    4.5123  -12.6317 C   0  0  2  0  0  0  0  0  0  0  0  0
    6.8831    4.9171  -11.7031 C   0  0  0  0  0  0  0  0  0  0  0  0
   10.5937    6.6967   -9.1779 C   0  0  0  0  0  0  0  0  0  0  0  0
    9.5087    4.3263  -11.6925 C   0  0  2  0  0  0  0  0  0  0  0  0
   11.6359    7.4449   -8.9125 C   0  0  0  0  0  0  0  0  0  0  0  0
   11.9716    7.9159   -7.6200 C   0  0  0  0  0  0  0  0  0  0  0  0
    8.4648    3.6122  -12.2840 C   0  0  2  0  0  0  0  0  0  0  0  0
    9.3128    4.5571   -9.1689 C   0  0  0  0  0  0  0  0  0  0  0  0
   10.9557    7.6369   -6.5929 C   0  0  0  0  0  0  0  0  0  0  0  0
    9.6490    2.8108  -13.7776 C   0  0  0  0  0  0  0  0  0  0  0  0
   10.2419    1.7839  -14.4904 O   0  0  0  0  0  0  0  0  0  0  0  0
    9.8235    6.3429   -8.0308 C   0  0  0  0  0  0  0  0  0  0  0  0
    8.5421    2.5419  -13.1600 C   0  0  0  0  0  0  0  0  0  0  0  0
   10.0139    6.8647   -6.7816 C   0  0  0  0  0  0  0  0  0  0  0  0
   11.3672    8.3499   -5.0541 S   0  0  0  0  0  0  0  0  0  0  0  0
   11.5679    9.7418   -5.1315 O   0  0  0  0  0  0  0  0  0  0  0  0
    9.0389    5.3019   -8.0369 C   0  0  0  0  0  0  0  0  0  0  0  0
   10.1640    8.1083   -4.1692 O   0  0  0  0  0  0  0  0  0  0  0  0
   12.6304    7.7315   -4.3827 N   0  0  0  0  0  0  0  0  0  0  0  0
   13.1635    8.2733   -3.2534 C   0  0  0  0  0  0  0  0  0  0  0  0
   12.2632    6.2155   -4.4173 C   0  0  0  0  0  0  0  0  0  0  0  0
  1  2  1  0  0  0  0
  2  3  1  0  0  0  0
  2  7  2  0  0  0  0
  4  3  1  6  0  0  0
  4  5  1  0  0  0  0
  4  6  1  0  0  0  0
  4  8  1  0  0  0  0
  5  9  2  0  0  0  0
  6 13  1  0  0  0  0
  7 12  1  0  0  0  0
  8 11  1  0  0  0  0
  8 19  2  0  0  0  0
 10  7  1  1  0  0  0
 10 14  1  0  0  0  0
 10 17  1  0  0  0  0
 11 20  1  0  0  0  0
 11 24  1  1  0  0  0
 12 18  1  0  0  0  0
 13 16  2  0  0  0  0
 13 21  1  0  0  0  0
 14  5  1  1  0  0  0
 14 15  1  0  0  0  0
 14 20  1  0  0  0  0
 15 26  1  0  0  0  0
 17 18  1  1  0  0  0
 17 23  1  0  0  0  0
 19 21  1  0  0  0  0
 19 28  1  0  0  0  0
 20 23  1  0  0  0  0
 21 22  2  0  0  0  0
 22 25  1  0  0  0  0
 23 29  1  0  0  0  0
 24 33  1  0  0  0  0
 25 30  2  0  0  0  0
 25 31  1  0  0  0  0
 26 27  2  0  0  0  0
 26 29  1  0  0  0  0
 28 30  1  0  0  0  0
 28 33  2  0  0  0  0
 31 32  2  0  0  0  0
 31 34  2  0  0  0  0
 31 35  1  0  0  0  0
 35 36  1  0  0  0  0
 35 37  1  0  0  0  0
M  END
$$$$

 OpenBabel10082411353D

 37 46  0  0  0  0  0  0  0  0999 V2000
    8.0806    9.0240  -12.7589 C   0  0  0  0  0  0  0  0  0  0  0  0
    8.6514    7.8645  -12.2948 C   0  0  0  0  0  0  0  0  0  0  0  0
    9.9575    7.9974  -11.8426 C   0  0  0  0  0  0  0  0  0  0  0  0
   10.7657    6.8667  -11.6050 C   0  0  1  0  0  0  0  0  0  0  0  0
   10.7682    5.9590  -12.8271 C   0  0  0  0  0  0  0  0  0  0  0  0
   12.1553    7.3846  -11.2315 C   0  0  0  0  0  0  0  0  0  0  0  0
    8.0676    6.6451  -12.2974 C   0  0  0  0  0  0  0  0  0  0  0  0
   10.1892    6.1240  -10.3860 C   0  0  0  0  0  0  0  0  0  0  0  0
   11.8375    5.4373  -13.3240 O   0  0  0  0  0  0  0  0  0  0  0  0
    8.6785    5.4761  -13.0273 C   0  0  1  0  0  0  0  0  0  0  0  0
    9.1969    5.2405  -10.4969 C   0  0  1  0  0  0  0  0  0  0  0  0
    7.2213    6.2210  -11.3074 C   0  0  1  0  0  0  0  0  0  0  0  0
   12.5590    7.6872   -9.9896 C   0  0  0  0  0  0  0  0  0  0  0  0
    9.7633    5.0333  -12.9720 C   0  0  1  0  0  0  0  0  0  0  0  0
   10.0661    4.0167  -14.0373 N   0  0  0  0  0  0  0  0  0  0  0  0
   13.6906    8.3004   -9.6233 O   0  0  0  0  0  0  0  0  0  0  0  0
    7.6357    4.5123  -12.6317 C   0  0  2  0  0  0  0  0  0  0  0  0
    6.8831    4.9171  -11.7031 C   0  0  0  0  0  0  0  0  0  0  0  0
   10.5937    6.6967   -9.1779 C   0  0  0  0  0  0  0  0  0  0  0  0
    9.5087    4.3263  -11.6925 C   0  0  2  0  0  0  0  0  0  0  0  0
   11.6359    7.4449   -8.9125 C   0  0  0  0  0  0  0  0  0  0  0  0
   11.9716    7.9159   -7.6200 C   0  0  0  0  0  0  0  0  0  0  0  0
    8.4648    3.6122  -12.2840 C   0  0  2  0  0  0  0  0  0  0  0  0
    9.3128    4.5571   -9.1689 C   0  0  0  0  0  0  0  0  0  0  0  0
   10.9557    7.6369   -6.5929 C   0  0  2  0  0  0  0  0  0  0  0  0
    9.6490    2.8108  -13.7776 C   0  0  1  0  0  0  0  0  0  0  0  0
    9.6716    6.1981   -8.0224 C   0  0  2  0  0  0  0  0  0  0  0  0
    8.5511    2.5400  -13.1402 C   0  0  0  0  0  0  0  0  0  0  0  0
    9.7877    2.0302  -15.0383 O   0  0  0  0  0  0  0  0  0  0  0  0
   10.2949    6.3957   -6.8142 C   0  0  0  0  0  0  0  0  0  0  0  0
   10.0248    8.9234   -6.5076 C   0  0  0  0  0  0  0  0  0  0  0  0
    9.3611    4.9578   -8.0921 C   0  0  0  0  0  0  0  0  0  0  0  0
    7.9396    5.6593  -10.4947 C   0  0  0  0  0  0  0  0  0  0  0  0
   11.7023    7.8880   -5.4088 C   0  0  0  0  0  0  0  0  0  0  0  0
   11.7351    9.2389   -4.6857 C   0  0  2  0  0  0  0  0  0  0  0  0
   11.9598    9.4325   -3.3653 C   0  0  0  0  0  0  0  0  0  0  0  0
   10.7413   10.0944   -5.4410 C   0  0  0  0  0  0  0  0  0  0  0  0
  1  2  1  0  0  0  0
  2  3  1  0  0  0  0
  2  7  2  0  0  0  0
  4  3  1  6  0  0  0
  4  5  1  0  0  0  0
  4  6  1  0  0  0  0
  4  8  1  0  0  0  0
  5  9  2  0  0  0  0
  6 13  1  0  0  0  0
  7 12  1  0  0  0  0
  8 11  1  0  0  0  0
  8 19  2  0  0  0  0
 10  7  1  1  0  0  0
 10 14  1  0  0  0  0
 10 17  1  0  0  0  0
 11 20  1  0  0  0  0
 11 24  1  1  0  0  0
 11 33  1  0  0  0  0
 12 18  1  6  0  0  0
 12 33  1  0  0  0  0
 13 16  2  0  0  0  0
 13 21  1  0  0  0  0
 14  5  1  1  0  0  0
 14 15  1  0  0  0  0
 14 20  1  0  0  0  0
 15 26  1  0  0  0  0
 17 18  1  1  0  0  0
 17 23  1  0  0  0  0
 19 21  1  0  0  0  0
 19 27  1  0  0  0  0
 20 23  1  0  0  0  0
 21 22  2  0  0  0  0
 22 25  1  0  0  0  0
 23 28  1  0  0  0  0
 24 32  2  0  0  0  0
 25 30  1  0  0  0  0
 25 31  1  0  0  0  0
 25 34  1  0  0  0  0
 26 28  1  0  0  0  0
 26 29  1  0  0  0  0
 27 30  1  0  0  0  0
 27 32  1  0  0  0  0
 31 37  1  0  0  0  0
 34 35  1  0  0  0  0
 35 36  1  0  0  0  0
 35 37  1  0  0  0  0
M  END
$$$$

 OpenBabel10082411353D

 37 42  0  0  0  0  0  0  0  0999 V2000
   11.6836    6.0105   -4.8831 C   0  0  0  0  0  0  0  0  0  0  0  0
   11.1291    7.0732   -5.4395 C   0  0  0  0  0  0  0  0  0  0  0  0
   10.6954    7.0156   -6.8073 C   0  0  0  0  0  0  0  0  0  0  0  0
   10.2502    8.1187   -7.5536 C   0  0  2  0  0  0  0  0  0  0  0  0
   11.1205    8.4712   -4.9629 C   0  0  0  0  0  0  0  0  0  0  0  0
   10.8655    8.3511   -8.7960 C   0  0  0  0  0  0  0  0  0  0  0  0
   10.2922    7.8843   -9.9985 C   0  0  0  0  0  0  0  0  0  0  0  0
   10.4654    9.6993   -5.6120 C   0  0  0  0  0  0  0  0  0  0  0  0
   10.3510    9.5971   -7.0014 C   0  0  0  0  0  0  0  0  0  0  0  0
   12.2462    6.3351   -3.5020 C   0  0  0  0  0  0  0  0  0  0  0  0
   11.0471    7.5309  -11.1063 C   0  0  0  0  0  0  0  0  0  0  0  0
   11.7288    8.6923   -3.6518 C   0  0  0  0  0  0  0  0  0  0  0  0
   12.3991    7.7501  -11.1145 C   0  0  0  0  0  0  0  0  0  0  0  0
   12.3738    7.7580   -2.9599 C   0  0  0  0  0  0  0  0  0  0  0  0
   13.1285    8.5075  -10.1661 O   0  0  0  0  0  0  0  0  0  0  0  0
    9.0407    7.3775  -10.0973 N   0  0  0  0  0  0  0  0  0  0  0  0
    8.9787    6.9473  -11.4664 N   0  0  0  0  0  0  0  0  0  0  0  0
   13.1012    7.4459  -12.3707 C   0  0  0  0  0  0  0  0  0  0  0  0
   12.2395    6.9724  -13.2444 C   0  0  0  0  0  0  0  0  0  0  0  0
   10.2768    7.0170  -11.9799 C   0  0  0  0  0  0  0  0  0  0  0  0
   12.9237    6.5822  -14.5759 O   0  0  0  0  0  0  0  0  0  0  0  0
   10.8906    6.6526  -13.2252 C   0  0  0  0  0  0  0  0  0  0  0  0
   12.2396    6.1290  -15.6916 C   0  0  0  0  0  0  0  0  0  0  0  0
    7.8036    6.1825  -11.9342 C   0  0  0  0  0  0  0  0  0  0  0  0
   12.5015    4.7115  -15.7686 C   0  0  0  0  0  0  0  0  0  0  0  0
    7.1685    6.9992  -12.8245 C   0  0  0  0  0  0  0  0  0  0  0  0
   11.2461    3.8540  -15.4851 C   0  0  0  0  0  0  0  0  0  0  0  0
    7.6237    4.9154  -11.6529 C   0  0  0  0  0  0  0  0  0  0  0  0
    6.0177    6.2707  -13.3932 C   0  0  0  0  0  0  0  0  0  0  0  0
   10.6165    3.9039  -14.4137 C   0  0  0  0  0  0  0  0  0  0  0  0
    6.6584    4.2061  -12.2277 C   0  0  0  0  0  0  0  0  0  0  0  0
    7.3655    8.3459  -13.1625 C   0  0  0  0  0  0  0  0  0  0  0  0
    5.8138    4.9115  -13.0915 C   0  0  0  0  0  0  0  0  0  0  0  0
    9.2719    3.7013  -14.4149 C   0  0  0  0  0  0  0  0  0  0  0  0
    8.6657    3.2996  -15.4887 C   0  0  0  0  0  0  0  0  0  0  0  0
    9.5252    3.1723  -16.6072 C   0  0  0  0  0  0  0  0  0  0  0  0
   10.7144    3.5178  -16.6850 N   0  0  0  0  0  0  0  0  0  0  0  0
  1  2  1  0  0  0  0
  1 10  2  0  0  0  0
  2  3  1  0  0  0  0
  2  5  2  0  0  0  0
  3  4  1  0  0  0  0
  4  6  1  6  0  0  0
  4  9  1  0  0  0  0
  5  8  1  0  0  0  0
  5 12  1  0  0  0  0
  6  7  1  0  0  0  0
  7 11  1  0  0  0  0
  7 16  2  0  0  0  0
  8  9  1  0  0  0  0
 10 14  1  0  0  0  0
 11 13  2  0  0  0  0
 11 20  1  0  0  0  0
 12 14  2  0  0  0  0
 13 15  1  0  0  0  0
 13 18  1  0  0  0  0
 16 17  1  0  0  0  0
 17 20  1  0  0  0  0
 17 24  1  0  0  0  0
 18 19  2  0  0  0  0
 19 21  1  0  0  0  0
 19 22  1  0  0  0  0
 20 22  2  0  0  0  0
 21 23  1  0  0  0  0
 23 25  1  0  0  0  0
 24 26  2  0  0  0  0
 24 28  1  0  0  0  0
 25 27  1  0  0  0  0
 26 29  1  0  0  0  0
 26 32  1  0  0  0  0
 27 30  1  0  0  0  0
 27 37  2  0  0  0  0
 28 31  2  0  0  0  0
 29 33  2  0  0  0  0
 30 34  2  0  0  0  0
 31 33  1  0  0  0  0
 34 35  1  0  0  0  0
 35 36  2  0  0  0  0
 36 37  1  0  0  0  0
M  END
$$$$

 OpenBabel10082411353D

 37 41  0  0  0  0  0  0  0  0999 V2000
   11.6836    6.0105   -4.8831 F   0  0  0  0  0  0  0  0  0  0  0  0
   11.2562    7.2206   -5.0294 C   0  0  0  0  0  0  0  0  0  0  0  0
   12.0125    8.2418   -4.4408 C   0  0  0  0  0  0  0  0  0  0  0  0
   11.1918    7.2706   -6.5237 C   0  0  0  0  0  0  0  0  0  0  0  0
   11.6999    8.4488   -3.1704 F   0  0  0  0  0  0  0  0  0  0  0  0
    9.8648    7.0908   -4.5314 F   0  0  0  0  0  0  0  0  0  0  0  0
   11.6831    8.5291   -6.9682 C   0  0  0  0  0  0  0  0  0  0  0  0
   10.4785    6.5189   -7.4033 C   0  0  0  0  0  0  0  0  0  0  0  0
   11.6979    8.6661   -8.4760 C   0  0  0  0  0  0  0  0  0  0  0  0
   11.6248    9.5853   -5.0030 C   0  0  0  0  0  0  0  0  0  0  0  0
   11.8604    9.7907   -6.2903 O   0  0  0  0  0  0  0  0  0  0  0  0
   13.3557    8.1748   -4.5947 F   0  0  0  0  0  0  0  0  0  0  0  0
   10.5427    6.6061   -8.7190 C   0  0  0  0  0  0  0  0  0  0  0  0
   11.1158    7.7103   -9.2540 C   0  0  0  0  0  0  0  0  0  0  0  0
   11.3757    7.6656  -10.5293 N   0  0  0  0  0  0  0  0  0  0  0  0
   10.7153    7.7096  -11.5405 C   0  0  0  0  0  0  0  0  0  0  0  0
   11.2483    7.4711  -12.8542 C   0  0  0  0  0  0  0  0  0  0  0  0
    9.3980    7.7820  -11.5398 C   0  0  0  0  0  0  0  0  0  0  0  0
    8.6055    7.5889  -12.6525 C   0  0  0  0  0  0  0  0  0  0  0  0
   12.7508    7.3705  -13.0162 O   0  0  0  0  0  0  0  0  0  0  0  0
   10.5299    7.1831  -13.9856 C   0  0  0  0  0  0  0  0  0  0  0  0
    7.0533    7.7371  -12.5396 C   0  0  0  0  0  0  0  0  0  0  0  0
   11.2041    6.8490  -15.2304 C   0  0  0  0  0  0  0  0  0  0  0  0
   11.6393    5.5333  -15.3864 C   0  0  0  0  0  0  0  0  0  0  0  0
    9.1955    7.2935  -13.8301 C   0  0  0  0  0  0  0  0  0  0  0  0
   12.5294    5.1116  -16.1609 C   0  0  0  0  0  0  0  0  0  0  0  0
   11.2315    4.4703  -14.3200 C   0  0  0  0  0  0  0  0  0  0  0  0
   13.0194    6.0876  -17.1697 C   0  0  0  0  0  0  0  0  0  0  0  0
   12.9874    3.8316  -16.1456 C   0  0  0  0  0  0  0  0  0  0  0  0
   12.3949    2.9126  -15.4671 C   0  0  0  0  0  0  0  0  0  0  0  0
   10.2274    4.8149  -13.2643 C   0  0  0  0  0  0  0  0  0  0  0  0
    8.9564    4.3798  -13.5553 C   0  0  0  0  0  0  0  0  0  0  0  0
    8.7042    3.2659  -14.2465 C   0  0  0  0  0  0  0  0  0  0  0  0
   11.4148    3.2767  -14.5206 C   0  0  0  0  0  0  0  0  0  0  0  0
    7.8848    4.8636  -12.8485 O   0  0  0  0  0  0  0  0  0  0  0  0
    7.3391    2.7841  -14.0294 C   0  0  0  0  0  0  0  0  0  0  0  0
    6.8245    3.9475  -13.1718 C   0  0  0  0  0  0  0  0  0  0  0  0
  1  2  1  0  0  0  0
  2  3  1  0  0  0  0
  2  4  1  0  0  0  0
  2  6  1  0  0  0  0
  3  5  1  0  0  0  0
  3 10  1  0  0  0  0
  3 12  1  0  0  0  0
  4  7  1  0  0  0  0
  4  8  2  0  0  0  0
  7  9  2  0  0  0  0
  7 11  1  0  0  0  0
  8 13  1  0  0  0  0
  9 14  1  0  0  0  0
 10 11  1  0  0  0  0
 13 14  2  0  0  0  0
 14 15  1  0  0  0  0
 15 16  1  0  0  0  0
 16 17  1  0  0  0  0
 16 18  2  0  0  0  0
 17 20  1  0  0  0  0
 17 21  2  0  0  0  0
 18 19  1  0  0  0  0
 19 22  1  0  0  0  0
 19 25  2  0  0  0  0
 21 23  1  0  0  0  0
 21 25  1  0  0  0  0
 23 24  1  0  0  0  0
 24 26  2  0  0  0  0
 24 27  1  0  0  0  0
 26 28  1  0  0  0  0
 26 29  1  0  0  0  0
 27 31  1  0  0  0  0
 27 34  2  0  0  0  0
 29 30  2  0  0  0  0
 30 34  1  0  0  0  0
 31 32  2  3  0  0  0
 32 33  1  0  0  0  0
 32 35  1  0  0  0  0
 33 36  1  0  0  0  0
 35 37  1  0  0  0  0
 36 37  2  0  0  0  0
M  END
$$$$

 OpenBabel10082411353D

 37 43  0  0  0  0  0  0  0  0999 V2000
   12.7863    7.8241  -14.2109 C   0  0  0  0  0  0  0  0  0  0  0  0
   12.4233    7.7158  -13.0289 C   0  0  0  0  0  0  0  0  0  0  0  0
   11.3194    6.8571  -12.8028 C   0  0  0  0  0  0  0  0  0  0  0  0
   12.3150    7.2021  -15.3582 C   0  0  0  0  0  0  0  0  0  0  0  0
   11.2733    6.2739  -15.1502 C   0  0  0  0  0  0  0  0  0  0  0  0
   10.8099    6.0126  -13.8600 C   0  0  0  0  0  0  0  0  0  0  0  0
    9.6782    5.1428  -13.6488 C   0  0  0  0  0  0  0  0  0  0  0  0
    8.5753    5.3880  -12.9589 N   0  0  0  0  0  0  0  0  0  0  0  0
    8.3226    6.7011  -12.3862 C   0  0  0  0  0  0  0  0  0  0  0  0
    9.8502    3.8578  -14.0728 C   0  0  0  0  0  0  0  0  0  0  0  0
    7.3864    7.4720  -13.0530 C   0  0  0  0  0  0  0  0  0  0  0  0
    6.2412    7.8486  -12.2599 C   0  0  0  0  0  0  0  0  0  0  0  0
    7.6425    4.4186  -12.7943 C   0  0  0  0  0  0  0  0  0  0  0  0
   11.0297    3.2482  -14.8053 C   0  0  0  0  0  0  0  0  0  0  0  0
    8.6802    2.8955  -13.7960 C   0  0  0  0  0  0  0  0  0  0  0  0
    8.8565    1.5917  -14.3582 O   0  0  0  0  0  0  0  0  0  0  0  0
    7.6903    3.2226  -13.1994 N   0  0  0  0  0  0  0  0  0  0  0  0
    6.5724    2.3444  -12.8378 C   0  0  0  0  0  0  0  0  0  0  0  0
    9.0225    7.0353  -11.3259 C   0  0  0  0  0  0  0  0  0  0  0  0
    6.2405    4.8489  -12.4515 C   0  0  0  0  0  0  0  0  0  0  0  0
   10.5875    7.0617  -11.5321 C   0  0  0  0  0  0  0  0  0  0  0  0
   11.0960    7.6093  -10.4100 C   0  0  0  0  0  0  0  0  0  0  0  0
    8.4039    7.3336  -10.1102 C   0  0  0  0  0  0  0  0  0  0  0  0
    5.5911    3.3517  -12.3508 C   0  0  0  0  0  0  0  0  0  0  0  0
   12.6259    7.6530  -10.3901 C   0  0  0  0  0  0  0  0  0  0  0  0
   10.4284    7.7784   -9.2128 C   0  0  1  0  0  0  0  0  0  0  0  0
    9.2236    7.5051   -9.0617 C   0  0  2  0  0  0  0  0  0  0  0  0
    8.7145    7.3063   -7.7135 N   0  0  0  0  0  0  0  0  0  0  0  0
   11.0621    7.5242   -7.8430 C   0  0  2  0  0  0  0  0  0  0  0  0
   12.0213    8.4787   -7.3268 C   0  0  0  0  0  0  0  0  0  0  0  0
   13.1241    8.0749  -11.7293 C   0  0  0  0  0  0  0  0  0  0  0  0
   12.0504    9.6950   -7.9009 O   0  0  0  0  0  0  0  0  0  0  0  0
   11.5774    6.1709   -7.7149 C   0  0  0  0  0  0  0  0  0  0  0  0
   12.4092    8.5793   -6.0108 N   0  0  0  0  0  0  0  0  0  0  0  0
    9.7740    7.4525   -7.0369 C   0  0  0  0  0  0  0  0  0  0  0  0
   13.1999    9.6456   -5.4855 C   0  0  0  0  0  0  0  0  0  0  0  0
   12.1650    7.4390   -5.1282 C   0  0  0  0  0  0  0  0  0  0  0  0
  1  2  2  0  0  0  0
  1  4  1  0  0  0  0
  2  3  1  0  0  0  0
  2 31  1  0  0  0  0
  3  6  2  0  0  0  0
  3 21  1  0  0  0  0
  4  5  2  0  0  0  0
  5  6  1  0  0  0  0
  6  7  1  0  0  0  0
  7  8  1  0  0  0  0
  7 10  2  0  0  0  0
  8  9  1  0  0  0  0
  8 13  1  0  0  0  0
  9 11  1  0  0  0  0
  9 19  2  0  0  0  0
 10 14  1  0  0  0  0
 10 15  1  0  0  0  0
 11 12  1  0  0  0  0
 13 17  1  0  0  0  0
 13 20  2  0  0  0  0
 15 16  2  0  0  0  0
 15 17  1  0  0  0  0
 17 18  1  0  0  0  0
 18 24  1  0  0  0  0
 19 21  1  0  0  0  0
 19 23  1  0  0  0  0
 20 24  1  0  0  0  0
 21 22  2  0  0  0  0
 22 25  1  0  0  0  0
 25 31  2  0  0  0  0
 26 22  1  6  0  0  0
 26 27  1  0  0  0  0
 26 29  1  0  0  0  0
 27 23  1  6  0  0  0
 27 28  1  0  0  0  0
 28 35  1  0  0  0  0
 29 30  1  0  0  0  0
 29 33  1  6  0  0  0
 29 35  1  0  0  0  0
 30 32  2  0  0  0  0
 30 34  1  0  0  0  0
 34 36  1  0  0  0  0
 34 37  1  0  0  0  0
M  END
$$$$

 OpenBabel10082411353D

 37 45  0  0  0  0  0  0  0  0999 V2000
    8.0806    9.0240  -12.7589 C   0  0  0  0  0  0  0  0  0  0  0  0
    8.6514    7.8645  -12.2948 C   0  0  0  0  0  0  0  0  0  0  0  0
    9.9575    7.9974  -11.8426 C   0  0  0  0  0  0  0  0  0  0  0  0
   10.7657    6.8667  -11.6050 C   0  0  1  0  0  0  0  0  0  0  0  0
   10.7682    5.9590  -12.8271 C   0  0  0  0  0  0  0  0  0  0  0  0
   12.1553    7.3846  -11.2315 C   0  0  0  0  0  0  0  0  0  0  0  0
    8.0676    6.6451  -12.2974 C   0  0  0  0  0  0  0  0  0  0  0  0
   10.1892    6.1240  -10.3860 C   0  0  0  0  0  0  0  0  0  0  0  0
   11.8375    5.4373  -13.3240 O   0  0  0  0  0  0  0  0  0  0  0  0
    8.6785    5.4761  -13.0273 C   0  0  1  0  0  0  0  0  0  0  0  0
    9.1969    5.2405  -10.4969 C   0  0  1  0  0  0  0  0  0  0  0  0
    7.2213    6.2210  -11.3074 C   0  0  1  0  0  0  0  0  0  0  0  0
   12.5590    7.6872   -9.9896 C   0  0  0  0  0  0  0  0  0  0  0  0
    9.7633    5.0333  -12.9720 C   0  0  1  0  0  0  0  0  0  0  0  0
   10.0661    4.0167  -14.0373 N   0  0  0  0  0  0  0  0  0  0  0  0
   13.6906    8.3004   -9.6233 O   0  0  0  0  0  0  0  0  0  0  0  0
    7.6357    4.5123  -12.6317 C   0  0  2  0  0  0  0  0  0  0  0  0
    6.8831    4.9171  -11.7031 C   0  0  0  0  0  0  0  0  0  0  0  0
   10.5937    6.6967   -9.1779 C   0  0  0  0  0  0  0  0  0  0  0  0
    9.5087    4.3263  -11.6925 C   0  0  2  0  0  0  0  0  0  0  0  0
   11.6359    7.4449   -8.9125 C   0  0  0  0  0  0  0  0  0  0  0  0
   11.9716    7.9159   -7.6200 C   0  0  0  0  0  0  0  0  0  0  0  0
    8.4648    3.6122  -12.2840 C   0  0  2  0  0  0  0  0  0  0  0  0
    9.3128    4.5571   -9.1689 C   0  0  0  0  0  0  0  0  0  0  0  0
   10.9557    7.6369   -6.5929 C   0  0  2  0  0  0  0  0  0  0  0  0
    9.6490    2.8108  -13.7776 C   0  0  1  0  0  0  0  0  0  0  0  0
    9.6716    6.1981   -8.0224 C   0  0  2  0  0  0  0  0  0  0  0  0
    8.5511    2.5400  -13.1402 C   0  0  0  0  0  0  0  0  0  0  0  0
    9.7877    2.0302  -15.0383 O   0  0  0  0  0  0  0  0  0  0  0  0
   10.2949    6.3957   -6.8142 C   0  0  0  0  0  0  0  0  0  0  0  0
   10.0248    8.9234   -6.5076 C   0  0  0  0  0  0  0  0  0  0  0  0
   11.5333    7.8194   -5.1272 C   0  0  0  0  0  0  0  0  0  0  0  0
    8.7519    3.1892   -9.1734 C   0  0  0  0  0  0  0  0  0  0  0  0
   12.0335    9.0803   -4.6663 C   0  0  0  0  0  0  0  0  0  0  0  0
   11.5836    9.5795   -3.5735 C   0  0  0  0  0  0  0  0  0  0  0  0
    7.8495    5.5585  -10.3068 C   0  0  0  0  0  0  0  0  0  0  0  0
    9.2655    5.1682   -8.0368 C   0  0  0  0  0  0  0  0  0  0  0  0
  1  2  1  0  0  0  0
  2  3  1  0  0  0  0
  2  7  2  0  0  0  0
  4  3  1  6  0  0  0
  4  5  1  0  0  0  0
  4  6  1  0  0  0  0
  4  8  1  0  0  0  0
  5  9  2  0  0  0  0
  6 13  1  0  0  0  0
  7 12  1  0  0  0  0
  8 11  1  0  0  0  0
  8 19  2  0  0  0  0
 10  7  1  1  0  0  0
 10 14  1  0  0  0  0
 10 17  1  0  0  0  0
 11 20  1  0  0  0  0
 11 24  1  0  0  0  0
 11 36  1  6  0  0  0
 12 18  1  6  0  0  0
 12 36  1  0  0  0  0
 13 16  2  0  0  0  0
 13 21  1  0  0  0  0
 14  5  1  1  0  0  0
 14 15  1  0  0  0  0
 14 20  1  0  0  0  0
 15 26  1  0  0  0  0
 17 18  1  1  0  0  0
 17 23  1  0  0  0  0
 19 21  1  0  0  0  0
 19 27  1  0  0  0  0
 20 23  1  0  0  0  0
 21 22  2  0  0  0  0
 22 25  1  0  0  0  0
 23 28  1  0  0  0  0
 24 33  2  0  0  0  0
 24 37  1  0  0  0  0
 25 30  1  0  0  0  0
 25 31  1  0  0  0  0
 25 32  1  0  0  0  0
 26 28  1  0  0  0  0
 26 29  1  0  0  0  0
 27 30  1  0  0  0  0
 27 37  1  0  0  0  0
 32 34  1  0  0  0  0
 34 35  1  0  0  0  0
M  END
$$$$

 OpenBabel10082411353D

 37 41  0  0  0  0  0  0  0  0999 V2000
   11.6836    6.0105   -4.8831 F   0  0  0  0  0  0  0  0  0  0  0  0
   11.2562    7.2206   -5.0294 C   0  0  0  0  0  0  0  0  0  0  0  0
   12.0125    8.2418   -4.4408 C   0  0  0  0  0  0  0  0  0  0  0  0
   11.1918    7.2706   -6.5237 C   0  0  2  0  0  0  0  0  0  0  0  0
   11.6999    8.4488   -3.1704 F   0  0  0  0  0  0  0  0  0  0  0  0
    9.8648    7.0908   -4.5314 F   0  0  0  0  0  0  0  0  0  0  0  0
   11.6831    8.5291   -6.9682 C   0  0  1  0  0  0  0  0  0  0  0  0
   13.3042    8.0958   -4.5769 F   0  0  0  0  0  0  0  0  0  0  0  0
   10.0051    6.7877   -7.1387 C   0  0  2  0  0  0  0  0  0  0  0  0
   12.1549    9.4036   -6.0698 C   0  0  0  0  0  0  0  0  0  0  0  0
   11.7460    9.5074   -4.8672 O   0  0  0  0  0  0  0  0  0  0  0  0
   12.5684    8.5172   -7.8652 C   0  0  0  0  0  0  0  0  0  0  0  0
   10.4250    8.9412   -7.4869 C   0  0  0  0  0  0  0  0  0  0  0  0
    9.8902    5.4070   -7.8206 C   0  0  1  0  0  0  0  0  0  0  0  0
    8.7348    4.6919   -7.6168 C   0  0  0  0  0  0  0  0  0  0  0  0
    9.5887    7.8633   -8.0188 C   0  0  1  0  0  0  0  0  0  0  0  0
   10.0149    7.4671   -9.3945 C   0  0  0  0  0  0  0  0  0  0  0  0
    8.7013    3.5197   -8.2148 C   0  0  0  0  0  0  0  0  0  0  0  0
    9.3794    3.4628   -9.4166 C   0  0  0  0  0  0  0  0  0  0  0  0
    9.7670    8.0902  -10.5147 C   0  0  0  0  0  0  0  0  0  0  0  0
   10.1630    7.7248  -11.8028 C   0  0  0  0  0  0  0  0  0  0  0  0
   10.1363    4.5235   -9.8811 C   0  0  0  0  0  0  0  0  0  0  0  0
   10.2836    5.8862   -9.1314 C   0  0  2  0  0  0  0  0  0  0  0  0
    9.2642    7.6154  -12.7688 C   0  0  0  0  0  0  0  0  0  0  0  0
    9.7352    7.0429  -13.9890 C   0  0  0  0  0  0  0  0  0  0  0  0
    8.9431    5.9978  -14.4048 C   0  0  0  0  0  0  0  0  0  0  0  0
    8.0476    5.1914  -13.6918 C   0  0  0  0  0  0  0  0  0  0  0  0
    8.1490    3.7734  -13.7660 C   0  0  0  0  0  0  0  0  0  0  0  0
    7.0453    3.1418  -12.9717 C   0  0  0  0  0  0  0  0  0  0  0  0
    6.2338    3.8839  -12.1754 C   0  0  0  0  0  0  0  0  0  0  0  0
   10.8369    7.3431  -14.6932 C   0  0  0  0  0  0  0  0  0  0  0  0
    7.2107    5.8505  -12.7998 C   0  0  0  0  0  0  0  0  0  0  0  0
    5.3001    3.0920  -11.3306 F   0  0  0  0  0  0  0  0  0  0  0  0
    6.3249    5.1885  -12.0630 C   0  0  0  0  0  0  0  0  0  0  0  0
   11.6830    6.2954  -15.0434 C   0  0  0  0  0  0  0  0  0  0  0  0
   11.4403    5.0579  -14.5833 C   0  0  0  0  0  0  0  0  0  0  0  0
   12.0370    3.9576  -15.4242 C   0  0  0  0  0  0  0  0  0  0  0  0
  1  2  1  0  0  0  0
  2  3  1  0  0  0  0
  2  6  1  0  0  0  0
  3  5  1  0  0  0  0
  3  8  1  0  0  0  0
  3 11  1  0  0  0  0
  4  2  1  1  0  0  0
  4  7  1  0  0  0  0
  4  9  1  0  0  0  0
  7 10  1  0  0  0  0
  7 12  1  6  0  0  0
  7 13  1  0  0  0  0
  9 14  1  0  0  0  0
  9 16  1  0  0  0  0
 10 11  1  0  0  0  0
 13 16  1  0  0  0  0
 14 15  1  0  0  0  0
 14 23  1  0  0  0  0
 15 18  2  0  0  0  0
 16 17  1  0  0  0  0
 17 20  2  3  0  0  0
 17 23  1  0  0  0  0
 18 19  1  0  0  0  0
 19 22  2  0  0  0  0
 20 21  1  0  0  0  0
 21 24  2  3  0  0  0
 22 23  1  0  0  0  0
 24 25  1  0  0  0  0
 25 26  2  3  0  0  0
 25 31  1  0  0  0  0
 26 27  1  0  0  0  0
 27 28  2  0  0  0  0
 27 32  1  0  0  0  0
 28 29  1  0  0  0  0
 29 30  2  0  0  0  0
 30 33  1  0  0  0  0
 30 34  1  0  0  0  0
 31 35  1  0  0  0  0
 32 34  2  0  0  0  0
 35 36  1  0  0  0  0
 36 37  1  0  0  0  0
M  END
$$$$

 OpenBabel10082411353D

 37 42  0  0  0  0  0  0  0  0999 V2000
   11.6836    6.0105   -4.8831 C   0  0  0  0  0  0  0  0  0  0  0  0
   11.1291    7.0732   -5.4395 C   0  0  0  0  0  0  0  0  0  0  0  0
   10.6954    7.0156   -6.8073 C   0  0  0  0  0  0  0  0  0  0  0  0
   10.2502    8.1187   -7.5536 C   0  0  2  0  0  0  0  0  0  0  0  0
   11.1205    8.4712   -4.9629 C   0  0  0  0  0  0  0  0  0  0  0  0
   10.8655    8.3511   -8.7960 C   0  0  0  0  0  0  0  0  0  0  0  0
   10.2922    7.8843   -9.9985 C   0  0  0  0  0  0  0  0  0  0  0  0
   10.4654    9.6993   -5.6120 C   0  0  0  0  0  0  0  0  0  0  0  0
   10.3510    9.5971   -7.0014 C   0  0  0  0  0  0  0  0  0  0  0  0
   12.2462    6.3351   -3.5020 C   0  0  0  0  0  0  0  0  0  0  0  0
   11.0471    7.5309  -11.1063 C   0  0  0  0  0  0  0  0  0  0  0  0
   11.7288    8.6923   -3.6518 C   0  0  0  0  0  0  0  0  0  0  0  0
   12.3991    7.7501  -11.1145 C   0  0  0  0  0  0  0  0  0  0  0  0
   12.3738    7.7580   -2.9599 C   0  0  0  0  0  0  0  0  0  0  0  0
   13.1285    8.5075  -10.1661 O   0  0  0  0  0  0  0  0  0  0  0  0
    9.0407    7.3775  -10.0973 N   0  0  0  0  0  0  0  0  0  0  0  0
    8.9787    6.9473  -11.4664 N   0  0  0  0  0  0  0  0  0  0  0  0
   13.1012    7.4459  -12.3707 C   0  0  0  0  0  0  0  0  0  0  0  0
   12.2395    6.9724  -13.2444 C   0  0  0  0  0  0  0  0  0  0  0  0
   10.2768    7.0170  -11.9799 C   0  0  0  0  0  0  0  0  0  0  0  0
   12.9237    6.5822  -14.5759 O   0  0  0  0  0  0  0  0  0  0  0  0
   10.8906    6.6526  -13.2252 C   0  0  0  0  0  0  0  0  0  0  0  0
   12.2396    6.1290  -15.6916 C   0  0  0  0  0  0  0  0  0  0  0  0
    7.7368    6.4514  -12.0707 C   0  0  0  0  0  0  0  0  0  0  0  0
    7.1353    7.2872  -12.8105 C   0  0  0  0  0  0  0  0  0  0  0  0
    7.6622    5.0135  -12.1225 C   0  0  0  0  0  0  0  0  0  0  0  0
   12.5092    4.6950  -15.8147 C   0  0  0  0  0  0  0  0  0  0  0  0
    5.9403    6.5840  -13.2897 C   0  0  0  0  0  0  0  0  0  0  0  0
   11.2738    3.8422  -15.5220 N   0  0  0  0  0  0  0  0  0  0  0  0
    8.7139    4.1736  -11.4601 C   0  0  0  0  0  0  0  0  0  0  0  0
    6.6269    4.4744  -12.6955 C   0  0  0  0  0  0  0  0  0  0  0  0
    9.4620    3.2890  -12.1895 O   0  0  0  0  0  0  0  0  0  0  0  0
    6.3668    2.9182  -12.6544 C   0  0  0  0  0  0  0  0  0  0  0  0
   10.9211    3.6624  -14.2329 C   0  0  0  0  0  0  0  0  0  0  0  0
    5.6628    5.2987  -13.3119 C   0  0  0  0  0  0  0  0  0  0  0  0
    9.8099    3.7452  -13.4925 C   0  0  0  0  0  0  0  0  0  0  0  0
   11.8008    3.2795  -13.3469 O   0  0  0  0  0  0  0  0  0  0  0  0
  1  2  1  0  0  0  0
  1 10  2  0  0  0  0
  2  3  1  0  0  0  0
  2  5  2  0  0  0  0
  3  4  1  0  0  0  0
  4  6  1  6  0  0  0
  4  9  1  0  0  0  0
  5  8  1  0  0  0  0
  5 12  1  0  0  0  0
  6  7  1  0  0  0  0
  7 11  1  0  0  0  0
  7 16  2  0  0  0  0
  8  9  1  0  0  0  0
 10 14  1  0  0  0  0
 11 13  2  0  0  0  0
 11 20  1  0  0  0  0
 12 14  2  0  0  0  0
 13 15  1  0  0  0  0
 13 18  1  0  0  0  0
 16 17  1  0  0  0  0
 17 20  1  0  0  0  0
 17 24  1  0  0  0  0
 18 19  2  0  0  0  0
 19 21  1  0  0  0  0
 19 22  1  0  0  0  0
 20 22  2  0  0  0  0
 21 23  1  0  0  0  0
 23 27  1  0  0  0  0
 24 25  2  0  0  0  0
 24 26  1  0  0  0  0
 25 28  1  0  0  0  0
 26 30  1  0  0  0  0
 26 31  2  0  0  0  0
 27 29  1  0  0  0  0
 28 35  2  0  0  0  0
 29 34  1  0  0  0  0
 30 32  1  0  0  0  0
 31 33  1  0  0  0  0
 31 35  1  0  0  0  0
 32 36  1  0  0  0  0
 34 36  1  0  0  0  0
 34 37  2  0  0  0  0
M  END
$$$$

 OpenBabel10082411353D

 25 27  0  0  0  0  0  0  0  0999 V2000
   11.9925    6.6083   -4.7728 C   0  0  0  0  0  0  0  0  0  0  0  0
   11.4477    7.7141   -5.2577 C   0  0  0  0  0  0  0  0  0  0  0  0
   12.2896    6.5964   -3.2881 C   0  0  0  0  0  0  0  0  0  0  0  0
   11.4087    8.9270   -4.5689 C   0  0  0  0  0  0  0  0  0  0  0  0
   11.0700    7.6482   -6.7180 C   0  0  0  0  0  0  0  0  0  0  0  0
   11.9031    8.9562   -3.1377 C   0  0  0  0  0  0  0  0  0  0  0  0
   12.3774    7.8477   -2.5217 C   0  0  0  0  0  0  0  0  0  0  0  0
   10.4761    6.5776   -7.2169 C   0  0  0  0  0  0  0  0  0  0  0  0
   10.6681    8.9492   -7.1472 C   0  0  0  0  0  0  0  0  0  0  0  0
   10.1085    6.6234   -8.6282 C   0  0  0  0  0  0  0  0  0  0  0  0
   10.4500    9.0125   -8.6924 C   0  0  0  0  0  0  0  0  0  0  0  0
    9.6601    7.9334   -9.1481 N   0  0  0  0  0  0  0  0  0  0  0  0
    9.4452    7.9310  -10.5569 C   0  0  0  0  0  0  0  0  0  0  0  0
    9.6484    6.9783  -11.2444 C   0  0  0  0  0  0  0  0  0  0  0  0
    9.2204    9.1620  -11.1118 O   0  0  0  0  0  0  0  0  0  0  0  0
    8.7362    5.9509  -11.2837 C   0  0  0  0  0  0  0  0  0  0  0  0
    8.8536    4.7666  -12.1368 C   0  0  0  0  0  0  0  0  0  0  0  0
   10.6809    6.9310  -12.3353 C   0  0  0  0  0  0  0  0  0  0  0  0
    9.8671    4.6993  -13.0577 C   0  0  0  0  0  0  0  0  0  0  0  0
   11.5765    7.9772  -12.5141 O   0  0  0  0  0  0  0  0  0  0  0  0
   10.8020    5.8254  -13.2017 C   0  0  0  0  0  0  0  0  0  0  0  0
   10.0433    3.8155  -13.8024 N   0  0  0  0  0  0  0  0  0  0  0  0
   11.1618    3.3621  -14.5212 C   0  0  0  0  0  0  0  0  0  0  0  0
    8.8531    2.8272  -14.0212 C   0  0  0  0  0  0  0  0  0  0  0  0
   12.9014    7.8237  -12.0712 C   0  0  0  0  0  0  0  0  0  0  0  0
  1  2  1  0  0  0  0
  1  3  2  0  0  0  0
  2  4  2  0  0  0  0
  2  5  1  0  0  0  0
  3  7  1  0  0  0  0
  4  6  1  0  0  0  0
  5  8  1  0  0  0  0
  5  9  1  0  0  0  0
  6  7  2  0  0  0  0
  8 10  1  0  0  0  0
  9 11  1  0  0  0  0
 10 12  1  0  0  0  0
 11 12  1  0  0  0  0
 12 13  1  0  0  0  0
 13 14  1  0  0  0  0
 13 15  2  0  0  0  0
 14 16  2  0  0  0  0
 14 18  1  0  0  0  0
 16 17  1  0  0  0  0
 17 19  2  0  0  0  0
 18 20  1  0  0  0  0
 18 21  2  0  0  0  0
 19 21  1  0  0  0  0
 19 22  1  0  0  0  0
 20 25  1  0  0  0  0
 22 23  1  0  0  0  0
 22 24  1  0  0  0  0
M  END
$$$$

 OpenBabel10082411353D

 37 46  0  0  0  0  0  0  0  0999 V2000
    8.0806    9.0240  -12.7589 C   0  0  0  0  0  0  0  0  0  0  0  0
    8.6514    7.8645  -12.2948 C   0  0  0  0  0  0  0  0  0  0  0  0
    9.9575    7.9974  -11.8426 C   0  0  0  0  0  0  0  0  0  0  0  0
   10.7657    6.8667  -11.6050 C   0  0  1  0  0  0  0  0  0  0  0  0
   10.7682    5.9590  -12.8271 C   0  0  0  0  0  0  0  0  0  0  0  0
   12.1553    7.3846  -11.2315 C   0  0  0  0  0  0  0  0  0  0  0  0
    8.0676    6.6451  -12.2974 C   0  0  0  0  0  0  0  0  0  0  0  0
   10.1892    6.1240  -10.3860 C   0  0  0  0  0  0  0  0  0  0  0  0
   11.8375    5.4373  -13.3240 O   0  0  0  0  0  0  0  0  0  0  0  0
    8.6785    5.4761  -13.0273 C   0  0  1  0  0  0  0  0  0  0  0  0
    9.1969    5.2405  -10.4969 C   0  0  1  0  0  0  0  0  0  0  0  0
    7.2213    6.2210  -11.3074 C   0  0  1  0  0  0  0  0  0  0  0  0
   12.5590    7.6872   -9.9896 C   0  0  0  0  0  0  0  0  0  0  0  0
    9.7633    5.0333  -12.9720 C   0  0  1  0  0  0  0  0  0  0  0  0
   10.0661    4.0167  -14.0373 N   0  0  0  0  0  0  0  0  0  0  0  0
   13.6906    8.3004   -9.6233 O   0  0  0  0  0  0  0  0  0  0  0  0
    7.6357    4.5123  -12.6317 C   0  0  2  0  0  0  0  0  0  0  0  0
    6.8831    4.9171  -11.7031 C   0  0  0  0  0  0  0  0  0  0  0  0
   10.5937    6.6967   -9.1779 C   0  0  0  0  0  0  0  0  0  0  0  0
    9.5087    4.3263  -11.6925 C   0  0  2  0  0  0  0  0  0  0  0  0
   11.6359    7.4449   -8.9125 C   0  0  0  0  0  0  0  0  0  0  0  0
   11.9716    7.9159   -7.6200 C   0  0  0  0  0  0  0  0  0  0  0  0
    8.4648    3.6122  -12.2840 C   0  0  2  0  0  0  0  0  0  0  0  0
    9.3128    4.5571   -9.1689 C   0  0  0  0  0  0  0  0  0  0  0  0
   10.9557    7.6369   -6.5929 C   0  0  1  0  0  0  0  0  0  0  0  0
    9.6490    2.8108  -13.7776 C   0  0  1  0  0  0  0  0  0  0  0  0
    9.6716    6.1981   -8.0224 C   0  0  2  0  0  0  0  0  0  0  0  0
    8.5511    2.5400  -13.1402 C   0  0  0  0  0  0  0  0  0  0  0  0
    9.7877    2.0302  -15.0383 O   0  0  0  0  0  0  0  0  0  0  0  0
   10.2949    6.3957   -6.8142 C   0  0  0  0  0  0  0  0  0  0  0  0
   11.5442    7.8028   -5.1770 C   0  0  0  0  0  0  0  0  0  0  0  0
    9.3662    4.9454   -8.1688 C   0  0  0  0  0  0  0  0  0  0  0  0
    9.9825    8.6746   -6.2053 C   0  0  0  0  0  0  0  0  0  0  0  0
   11.8670    9.1982   -4.7195 C   0  0  1  0  0  0  0  0  0  0  0  0
   12.7706    9.9232   -5.2633 O   0  0  0  0  0  0  0  0  0  0  0  0
   10.4558    9.7536   -5.2742 C   0  0  0  0  0  0  0  0  0  0  0  0
    7.9394    5.6503  -10.4924 C   0  0  0  0  0  0  0  0  0  0  0  0
  1  2  1  0  0  0  0
  2  3  1  0  0  0  0
  2  7  2  0  0  0  0
  4  3  1  6  0  0  0
  4  5  1  0  0  0  0
  4  6  1  0  0  0  0
  4  8  1  0  0  0  0
  5  9  2  0  0  0  0
  6 13  1  0  0  0  0
  7 12  1  0  0  0  0
  8 11  1  0  0  0  0
  8 19  2  0  0  0  0
 10  7  1  1  0  0  0
 10 14  1  0  0  0  0
 10 17  1  0  0  0  0
 11 20  1  0  0  0  0
 11 24  1  1  0  0  0
 11 37  1  0  0  0  0
 12 18  1  6  0  0  0
 12 37  1  0  0  0  0
 13 16  2  0  0  0  0
 13 21  1  0  0  0  0
 14  5  1  1  0  0  0
 14 15  1  0  0  0  0
 14 20  1  0  0  0  0
 15 26  1  0  0  0  0
 17 18  1  1  0  0  0
 17 23  1  0  0  0  0
 19 21  1  0  0  0  0
 19 27  1  0  0  0  0
 20 23  1  0  0  0  0
 21 22  2  0  0  0  0
 22 25  1  0  0  0  0
 23 28  1  0  0  0  0
 24 32  2  0  0  0  0
 25 30  1  0  0  0  0
 25 31  1  0  0  0  0
 25 33  1  0  0  0  0
 26 28  1  0  0  0  0
 26 29  1  0  0  0  0
 27 30  1  0  0  0  0
 27 32  1  0  0  0  0
 31 34  1  0  0  0  0
 33 36  1  0  0  0  0
 34 35  1  0  0  0  0
 34 36  1  0  0  0  0
M  END
$$$$

 OpenBabel10082411353D

 37 44  0  0  0  0  0  0  0  0999 V2000
    8.0806    9.0240  -12.7589 C   0  0  0  0  0  0  0  0  0  0  0  0
    8.6514    7.8645  -12.2948 C   0  0  0  0  0  0  0  0  0  0  0  0
    9.9575    7.9974  -11.8426 C   0  0  0  0  0  0  0  0  0  0  0  0
   10.7657    6.8667  -11.6050 C   0  0  1  0  0  0  0  0  0  0  0  0
   10.7682    5.9590  -12.8271 C   0  0  0  0  0  0  0  0  0  0  0  0
   12.1553    7.3846  -11.2315 C   0  0  0  0  0  0  0  0  0  0  0  0
    8.0676    6.6451  -12.2974 C   0  0  0  0  0  0  0  0  0  0  0  0
   10.1892    6.1240  -10.3860 C   0  0  0  0  0  0  0  0  0  0  0  0
   11.8375    5.4373  -13.3240 O   0  0  0  0  0  0  0  0  0  0  0  0
    8.6785    5.4761  -13.0273 C   0  0  1  0  0  0  0  0  0  0  0  0
    9.1969    5.2405  -10.4969 C   0  0  1  0  0  0  0  0  0  0  0  0
    7.2213    6.2210  -11.3074 C   0  0  0  0  0  0  0  0  0  0  0  0
   12.5590    7.6872   -9.9896 C   0  0  0  0  0  0  0  0  0  0  0  0
    9.7633    5.0333  -12.9720 C   0  0  1  0  0  0  0  0  0  0  0  0
   10.0661    4.0167  -14.0373 N   0  0  0  0  0  0  0  0  0  0  0  0
   13.6906    8.3004   -9.6233 O   0  0  0  0  0  0  0  0  0  0  0  0
    7.6357    4.5123  -12.6317 C   0  0  2  0  0  0  0  0  0  0  0  0
    6.8831    4.9171  -11.7031 C   0  0  0  0  0  0  0  0  0  0  0  0
   10.5937    6.6967   -9.1779 C   0  0  0  0  0  0  0  0  0  0  0  0
    9.5087    4.3263  -11.6925 C   0  0  2  0  0  0  0  0  0  0  0  0
   11.6359    7.4449   -8.9125 C   0  0  0  0  0  0  0  0  0  0  0  0
   11.9716    7.9159   -7.6200 C   0  0  0  0  0  0  0  0  0  0  0  0
    8.4648    3.6122  -12.2840 C   0  0  2  0  0  0  0  0  0  0  0  0
    9.3128    4.5571   -9.1689 C   0  0  0  0  0  0  0  0  0  0  0  0
   10.9557    7.6369   -6.5929 C   0  0  0  0  0  0  0  0  0  0  0  0
    9.6490    2.8108  -13.7776 C   0  0  0  0  0  0  0  0  0  0  0  0
   10.2419    1.7839  -14.4904 O   0  0  0  0  0  0  0  0  0  0  0  0
    9.8235    6.3429   -8.0308 C   0  0  0  0  0  0  0  0  0  0  0  0
    8.5421    2.5419  -13.1600 C   0  0  0  0  0  0  0  0  0  0  0  0
   10.0139    6.8647   -6.7816 C   0  0  0  0  0  0  0  0  0  0  0  0
   11.3672    8.3499   -5.0541 S   0  0  0  0  0  0  0  0  0  0  0  0
   11.5679    9.7418   -5.1315 O   0  0  0  0  0  0  0  0  0  0  0  0
    8.9499    5.5875   -8.2072 N   0  0  0  0  0  0  0  0  0  0  0  0
   10.1444    8.1128   -4.1798 O   0  0  0  0  0  0  0  0  0  0  0  0
   12.6827    7.8201   -4.2763 N   0  0  0  0  0  0  0  0  0  0  0  0
   13.1675    8.5163   -3.2287 C   0  0  0  0  0  0  0  0  0  0  0  0
   12.2810    6.3283   -4.1265 C   0  0  0  0  0  0  0  0  0  0  0  0
  1  2  1  0  0  0  0
  2  3  1  0  0  0  0
  2  7  2  0  0  0  0
  4  3  1  6  0  0  0
  4  5  1  0  0  0  0
  4  6  1  0  0  0  0
  4  8  1  0  0  0  0
  5  9  2  0  0  0  0
  6 13  1  0  0  0  0
  7 12  1  0  0  0  0
  8 11  1  0  0  0  0
  8 19  2  0  0  0  0
 10  7  1  1  0  0  0
 10 14  1  0  0  0  0
 10 17  1  0  0  0  0
 11 20  1  0  0  0  0
 11 24  1  1  0  0  0
 12 18  1  0  0  0  0
 13 16  2  0  0  0  0
 13 21  1  0  0  0  0
 14  5  1  1  0  0  0
 14 15  1  0  0  0  0
 14 20  1  0  0  0  0
 15 26  1  0  0  0  0
 17 18  1  1  0  0  0
 17 23  1  0  0  0  0
 19 21  1  0  0  0  0
 19 28  1  0  0  0  0
 20 23  1  0  0  0  0
 21 22  2  0  0  0  0
 22 25  1  0  0  0  0
 23 29  1  0  0  0  0
 24 33  1  0  0  0  0
 25 30  2  0  0  0  0
 25 31  1  0  0  0  0
 26 27  2  0  0  0  0
 26 29  1  0  0  0  0
 28 30  1  0  0  0  0
 28 33  2  0  0  0  0
 31 32  2  0  0  0  0
 31 34  2  0  0  0  0
 31 35  1  0  0  0  0
 35 36  1  0  0  0  0
 35 37  1  0  0  0  0
M  END
$$$$

 OpenBabel10082411353D

 37 42  0  0  0  0  0  0  0  0999 V2000
   11.6836    6.0105   -4.8831 C   0  0  0  0  0  0  0  0  0  0  0  0
   11.1291    7.0732   -5.4395 C   0  0  0  0  0  0  0  0  0  0  0  0
   10.6954    7.0156   -6.8073 C   0  0  0  0  0  0  0  0  0  0  0  0
   10.2502    8.1187   -7.5536 C   0  0  2  0  0  0  0  0  0  0  0  0
   11.1205    8.4712   -4.9629 C   0  0  0  0  0  0  0  0  0  0  0  0
   10.8655    8.3511   -8.7960 C   0  0  0  0  0  0  0  0  0  0  0  0
   10.2922    7.8843   -9.9985 C   0  0  0  0  0  0  0  0  0  0  0  0
   10.4654    9.6993   -5.6120 C   0  0  0  0  0  0  0  0  0  0  0  0
   10.3510    9.5971   -7.0014 C   0  0  0  0  0  0  0  0  0  0  0  0
   12.2462    6.3351   -3.5020 C   0  0  0  0  0  0  0  0  0  0  0  0
   11.0471    7.5309  -11.1063 C   0  0  0  0  0  0  0  0  0  0  0  0
   11.7288    8.6923   -3.6518 C   0  0  0  0  0  0  0  0  0  0  0  0
   12.3991    7.7501  -11.1145 C   0  0  0  0  0  0  0  0  0  0  0  0
   12.3738    7.7580   -2.9599 C   0  0  0  0  0  0  0  0  0  0  0  0
   13.1285    8.5075  -10.1661 O   0  0  0  0  0  0  0  0  0  0  0  0
    9.0407    7.3775  -10.0973 N   0  0  0  0  0  0  0  0  0  0  0  0
    8.9787    6.9473  -11.4664 N   0  0  0  0  0  0  0  0  0  0  0  0
   13.1012    7.4459  -12.3707 C   0  0  0  0  0  0  0  0  0  0  0  0
   12.2395    6.9724  -13.2444 C   0  0  0  0  0  0  0  0  0  0  0  0
   10.2768    7.0170  -11.9799 C   0  0  0  0  0  0  0  0  0  0  0  0
   12.9237    6.5822  -14.5759 O   0  0  0  0  0  0  0  0  0  0  0  0
   10.8906    6.6526  -13.2252 C   0  0  0  0  0  0  0  0  0  0  0  0
   12.2396    6.1290  -15.6916 C   0  0  0  0  0  0  0  0  0  0  0  0
    7.7368    6.4514  -12.0707 C   0  0  0  0  0  0  0  0  0  0  0  0
    7.1353    7.2872  -12.8105 C   0  0  0  0  0  0  0  0  0  0  0  0
    7.6622    5.0135  -12.1225 C   0  0  0  0  0  0  0  0  0  0  0  0
   12.5092    4.6950  -15.8147 C   0  0  0  0  0  0  0  0  0  0  0  0
    5.9403    6.5840  -13.2897 C   0  0  0  0  0  0  0  0  0  0  0  0
   11.2738    3.8422  -15.5220 N   0  0  0  0  0  0  0  0  0  0  0  0
    8.7139    4.1736  -11.4601 C   0  0  0  0  0  0  0  0  0  0  0  0
    5.7546    5.3014  -13.2955 C   0  0  0  0  0  0  0  0  0  0  0  0
   10.5665    3.9988  -14.5162 C   0  0  0  0  0  0  0  0  0  0  0  0
    6.6518    4.4534  -12.6459 C   0  0  0  0  0  0  0  0  0  0  0  0
   11.1930    2.6728  -16.3047 C   0  0  0  0  0  0  0  0  0  0  0  0
    9.2470    3.7086  -14.6888 C   0  0  0  0  0  0  0  0  0  0  0  0
    8.9496    2.5550  -15.4215 C   0  0  0  0  0  0  0  0  0  0  0  0
    9.9789    2.1053  -16.3315 C   0  0  0  0  0  0  0  0  0  0  0  0
  1  2  1  0  0  0  0
  1 10  2  0  0  0  0
  2  3  1  0  0  0  0
  2  5  2  0  0  0  0
  3  4  1  0  0  0  0
  4  6  1  6  0  0  0
  4  9  1  0  0  0  0
  5  8  1  0  0  0  0
  5 12  1  0  0  0  0
  6  7  1  0  0  0  0
  7 11  1  0  0  0  0
  7 16  2  0  0  0  0
  8  9  1  0  0  0  0
 10 14  1  0  0  0  0
 11 13  2  0  0  0  0
 11 20  1  0  0  0  0
 12 14  2  0  0  0  0
 13 15  1  0  0  0  0
 13 18  1  0  0  0  0
 16 17  1  0  0  0  0
 17 20  1  0  0  0  0
 17 24  1  0  0  0  0
 18 19  2  0  0  0  0
 19 21  1  0  0  0  0
 19 22  1  0  0  0  0
 20 22  2  0  0  0  0
 21 23  1  0  0  0  0
 23 27  1  0  0  0  0
 24 25  2  0  0  0  0
 24 26  1  0  0  0  0
 25 28  1  0  0  0  0
 26 30  1  0  0  0  0
 26 33  2  0  0  0  0
 27 29  1  0  0  0  0
 28 31  2  0  0  0  0
 29 32  1  0  0  0  0
 29 34  1  0  0  0  0
 31 33  1  0  0  0  0
 32 35  2  0  0  0  0
 34 37  1  0  0  0  0
 35 36  1  0  0  0  0
 36 37  1  0  0  0  0
M  END
$$$$

 OpenBabel10082411353D

 37 40  0  0  0  0  0  0  0  0999 V2000
   10.9951    9.9694   -4.9946 C   0  0  0  0  0  0  0  0  0  0  0  0
   11.7938    9.3762   -4.2463 C   0  0  0  0  0  0  0  0  0  0  0  0
   10.8673    9.4548   -6.4276 C   0  0  0  0  0  0  0  0  0  0  0  0
   11.6576    7.9117   -4.2944 C   0  0  0  0  0  0  0  0  0  0  0  0
   10.5498    8.0257   -6.4521 C   0  0  0  0  0  0  0  0  0  0  0  0
   11.4715    7.2752   -5.6166 C   0  0  0  0  0  0  0  0  0  0  0  0
   10.5840    7.5390   -7.9254 C   0  0  0  0  0  0  0  0  0  0  0  0
   11.4612    8.1494   -8.8322 C   0  0  0  0  0  0  0  0  0  0  0  0
   12.6250    8.6294   -8.4338 O   0  0  0  0  0  0  0  0  0  0  0  0
   11.0835    8.4395  -10.0740 O   0  0  0  0  0  0  0  0  0  0  0  0
   11.2938    7.5612  -11.0769 C   0  0  0  0  0  0  0  0  0  0  0  0
   10.1547    7.2525  -11.9492 C   0  0  0  0  0  0  0  0  0  0  0  0
   10.4293    6.5622  -13.1348 C   0  0  0  0  0  0  0  0  0  0  0  0
   11.7295    6.4217  -13.6243 C   0  0  0  0  0  0  0  0  0  0  0  0
    8.8120    7.3918  -11.4649 C   0  0  0  0  0  0  0  0  0  0  0  0
   12.5351    7.8894  -11.6869 C   0  0  0  0  0  0  0  0  0  0  0  0
   13.5778    8.4243  -10.9673 O   0  0  0  0  0  0  0  0  0  0  0  0
    7.7211    7.1761  -12.4323 C   0  0  0  0  0  0  0  0  0  0  0  0
   12.8103    7.0723  -12.8897 C   0  0  0  0  0  0  0  0  0  0  0  0
    7.0543    5.9667  -12.3369 C   0  0  0  0  0  0  0  0  0  0  0  0
    7.2392    8.1844  -13.1320 C   0  0  0  0  0  0  0  0  0  0  0  0
    6.6882    5.3848  -13.5016 O   0  0  0  0  0  0  0  0  0  0  0  0
    6.5103    5.5543  -11.3870 O   0  0  0  0  0  0  0  0  0  0  0  0
    7.4031    4.0506  -13.7852 C   0  0  0  0  0  0  0  0  0  0  0  0
    8.6811    3.9966  -14.1333 C   0  0  0  0  0  0  0  0  0  0  0  0
   12.0732    5.6649  -14.9357 C   0  0  0  0  0  0  0  0  0  0  0  0
    6.5842    3.0104  -13.4449 C   0  0  0  0  0  0  0  0  0  0  0  0
   12.1810    6.3505  -15.9550 C   0  0  0  0  0  0  0  0  0  0  0  0
   12.4422    5.6328  -17.1718 C   0  0  0  0  0  0  0  0  0  0  0  0
    5.1615    3.1639  -12.9487 C   0  0  0  0  0  0  0  0  0  0  0  0
   12.4897    4.2439  -17.0738 C   0  0  0  0  0  0  0  0  0  0  0  0
    7.2322    1.7149  -13.5830 C   0  0  0  0  0  0  0  0  0  0  0  0
   11.8860    4.2886  -14.6807 C   0  0  0  0  0  0  0  0  0  0  0  0
    8.2337    1.5246  -14.0207 C   0  0  0  0  0  0  0  0  0  0  0  0
    9.0193    0.3162  -14.1809 F   0  0  0  0  0  0  0  0  0  0  0  0
    9.2953    2.6997  -14.2657 C   0  0  0  0  0  0  0  0  0  0  0  0
   12.1891    3.6091  -15.9052 C   0  0  0  0  0  0  0  0  0  0  0  0
  1  2  1  0  0  0  0
  1  3  1  0  0  0  0
  2  4  1  0  0  0  0
  3  5  1  0  0  0  0
  4  6  1  0  0  0  0
  5  6  1  0  0  0  0
  5  7  1  0  0  0  0
  7  8  1  0  0  0  0
  8  9  2  0  0  0  0
  8 10  1  0  0  0  0
 10 11  1  0  0  0  0
 11 12  1  0  0  0  0
 11 16  2  0  0  0  0
 12 13  2  0  0  0  0
 12 15  1  0  0  0  0
 13 14  1  0  0  0  0
 14 19  2  0  0  0  0
 14 26  1  0  0  0  0
 15 18  1  0  0  0  0
 16 17  1  0  0  0  0
 16 19  1  0  0  0  0
 18 20  1  0  0  0  0
 18 21  2  0  0  0  0
 20 22  1  0  0  0  0
 20 23  2  0  0  0  0
 22 24  1  0  0  0  0
 24 25  1  0  0  0  0
 24 27  2  0  0  0  0
 25 36  2  0  0  0  0
 26 28  2  0  0  0  0
 26 33  1  0  0  0  0
 27 30  1  0  0  0  0
 27 32  1  0  0  0  0
 28 29  1  0  0  0  0
 29 31  2  0  0  0  0
 31 37  1  0  0  0  0
 32 34  2  0  0  0  0
 33 37  2  0  0  0  0
 34 35  1  0  0  0  0
 34 36  1  0  0  0  0
M  END
$$$$

 OpenBabel10082411353D

 37 42  0  0  0  0  0  0  0  0999 V2000
   11.6836    6.0105   -4.8831 C   0  0  0  0  0  0  0  0  0  0  0  0
   11.1291    7.0732   -5.4395 C   0  0  0  0  0  0  0  0  0  0  0  0
   10.6954    7.0156   -6.8073 C   0  0  0  0  0  0  0  0  0  0  0  0
   10.2502    8.1187   -7.5536 C   0  0  2  0  0  0  0  0  0  0  0  0
   11.1205    8.4712   -4.9629 C   0  0  0  0  0  0  0  0  0  0  0  0
   10.8655    8.3511   -8.7960 C   0  0  0  0  0  0  0  0  0  0  0  0
   10.2922    7.8843   -9.9985 C   0  0  0  0  0  0  0  0  0  0  0  0
   10.4654    9.6993   -5.6120 C   0  0  0  0  0  0  0  0  0  0  0  0
   10.3510    9.5971   -7.0014 C   0  0  0  0  0  0  0  0  0  0  0  0
   12.2462    6.3351   -3.5020 C   0  0  0  0  0  0  0  0  0  0  0  0
   11.0471    7.5309  -11.1063 C   0  0  0  0  0  0  0  0  0  0  0  0
   11.7288    8.6923   -3.6518 C   0  0  0  0  0  0  0  0  0  0  0  0
   12.3991    7.7501  -11.1145 C   0  0  0  0  0  0  0  0  0  0  0  0
   12.3738    7.7580   -2.9599 C   0  0  0  0  0  0  0  0  0  0  0  0
   13.1285    8.5075  -10.1661 O   0  0  0  0  0  0  0  0  0  0  0  0
    9.0407    7.3775  -10.0973 N   0  0  0  0  0  0  0  0  0  0  0  0
    8.9787    6.9473  -11.4664 N   0  0  0  0  0  0  0  0  0  0  0  0
   13.1012    7.4459  -12.3707 C   0  0  0  0  0  0  0  0  0  0  0  0
   12.2395    6.9724  -13.2444 C   0  0  0  0  0  0  0  0  0  0  0  0
   10.2768    7.0170  -11.9799 C   0  0  0  0  0  0  0  0  0  0  0  0
   12.9237    6.5822  -14.5759 O   0  0  0  0  0  0  0  0  0  0  0  0
   10.8906    6.6526  -13.2252 C   0  0  0  0  0  0  0  0  0  0  0  0
   12.2396    6.1290  -15.6916 C   0  0  0  0  0  0  0  0  0  0  0  0
    7.7368    6.4514  -12.0707 C   0  0  0  0  0  0  0  0  0  0  0  0
    7.1353    7.2872  -12.8105 C   0  0  0  0  0  0  0  0  0  0  0  0
    7.6622    5.0135  -12.1225 C   0  0  0  0  0  0  0  0  0  0  0  0
   12.5092    4.6950  -15.8147 C   0  0  0  0  0  0  0  0  0  0  0  0
    5.9403    6.5840  -13.2897 C   0  0  0  0  0  0  0  0  0  0  0  0
   11.2738    3.8422  -15.5220 N   0  0  0  0  0  0  0  0  0  0  0  0
    8.7139    4.1736  -11.4601 C   0  0  0  0  0  0  0  0  0  0  0  0
    6.6269    4.4744  -12.6955 C   0  0  0  0  0  0  0  0  0  0  0  0
    9.4620    3.2890  -12.1895 O   0  0  0  0  0  0  0  0  0  0  0  0
    5.7480    5.3068  -13.3143 C   0  0  0  0  0  0  0  0  0  0  0  0
    9.2569    3.2107  -13.4796 C   0  0  0  0  0  0  0  0  0  0  0  0
   11.2664    3.0418  -14.3307 C   0  0  0  0  0  0  0  0  0  0  0  0
   11.0014    2.9058  -16.6093 C   0  0  0  0  0  0  0  0  0  0  0  0
   10.2182    2.3271  -14.0905 C   0  0  0  0  0  0  0  0  0  0  0  0
  1  2  1  0  0  0  0
  1 10  2  0  0  0  0
  2  3  1  0  0  0  0
  2  5  2  0  0  0  0
  3  4  1  0  0  0  0
  4  6  1  6  0  0  0
  4  9  1  0  0  0  0
  5  8  1  0  0  0  0
  5 12  1  0  0  0  0
  6  7  1  0  0  0  0
  7 11  1  0  0  0  0
  7 16  2  0  0  0  0
  8  9  1  0  0  0  0
 10 14  1  0  0  0  0
 11 13  2  0  0  0  0
 11 20  1  0  0  0  0
 12 14  2  0  0  0  0
 13 15  1  0  0  0  0
 13 18  1  0  0  0  0
 16 17  1  0  0  0  0
 17 20  1  0  0  0  0
 17 24  1  0  0  0  0
 18 19  2  0  0  0  0
 19 21  1  0  0  0  0
 19 22  1  0  0  0  0
 20 22  2  0  0  0  0
 21 23  1  0  0  0  0
 23 27  1  0  0  0  0
 24 25  2  0  0  0  0
 24 26  1  0  0  0  0
 25 28  1  0  0  0  0
 26 30  1  0  0  0  0
 26 31  2  0  0  0  0
 27 29  1  0  0  0  0
 28 33  2  0  0  0  0
 29 35  1  0  0  0  0
 29 36  1  0  0  0  0
 30 32  1  0  0  0  0
 31 33  1  0  0  0  0
 32 34  1  0  0  0  0
 34 37  1  0  0  0  0
 35 37  1  0  0  0  0
M  END
$$$$

 OpenBabel10082411353D

 37 41  0  0  0  0  0  0  0  0999 V2000
   11.6836    6.0105   -4.8831 F   0  0  0  0  0  0  0  0  0  0  0  0
   11.2562    7.2206   -5.0294 C   0  0  0  0  0  0  0  0  0  0  0  0
   12.0125    8.2418   -4.4408 C   0  0  0  0  0  0  0  0  0  0  0  0
   11.1918    7.2706   -6.5237 C   0  0  2  0  0  0  0  0  0  0  0  0
   11.6999    8.4488   -3.1704 F   0  0  0  0  0  0  0  0  0  0  0  0
    9.8648    7.0908   -4.5314 F   0  0  0  0  0  0  0  0  0  0  0  0
   11.6831    8.5291   -6.9682 C   0  0  1  0  0  0  0  0  0  0  0  0
   13.3042    8.0958   -4.5769 F   0  0  0  0  0  0  0  0  0  0  0  0
   10.0051    6.7877   -7.1387 C   0  0  2  0  0  0  0  0  0  0  0  0
   12.1549    9.4036   -6.0698 C   0  0  0  0  0  0  0  0  0  0  0  0
   11.7460    9.5074   -4.8672 O   0  0  0  0  0  0  0  0  0  0  0  0
   12.5684    8.5172   -7.8652 C   0  0  0  0  0  0  0  0  0  0  0  0
   10.4250    8.9412   -7.4869 C   0  0  0  0  0  0  0  0  0  0  0  0
    9.8902    5.4070   -7.8206 C   0  0  1  0  0  0  0  0  0  0  0  0
    8.7348    4.6919   -7.6168 C   0  0  0  0  0  0  0  0  0  0  0  0
    9.5887    7.8633   -8.0188 C   0  0  1  0  0  0  0  0  0  0  0  0
   10.0149    7.4671   -9.3945 C   0  0  0  0  0  0  0  0  0  0  0  0
    8.7013    3.5197   -8.2148 C   0  0  0  0  0  0  0  0  0  0  0  0
    9.3794    3.4628   -9.4166 C   0  0  0  0  0  0  0  0  0  0  0  0
    9.7670    8.0902  -10.5147 C   0  0  0  0  0  0  0  0  0  0  0  0
   10.1630    7.7248  -11.8028 C   0  0  0  0  0  0  0  0  0  0  0  0
   10.1363    4.5235   -9.8811 C   0  0  0  0  0  0  0  0  0  0  0  0
   10.2836    5.8862   -9.1314 C   0  0  2  0  0  0  0  0  0  0  0  0
    9.2642    7.6154  -12.7688 C   0  0  0  0  0  0  0  0  0  0  0  0
    9.7352    7.0429  -13.9890 C   0  0  0  0  0  0  0  0  0  0  0  0
   10.9626    6.9971  -14.3797 C   0  0  0  0  0  0  0  0  0  0  0  0
    7.9471    8.2113  -12.6716 C   0  0  0  0  0  0  0  0  0  0  0  0
   11.7504    8.1011  -14.4119 C   0  0  0  0  0  0  0  0  0  0  0  0
   11.3635    5.9143  -15.3612 C   0  0  0  0  0  0  0  0  0  0  0  0
    8.7444    6.2230  -14.4632 O   0  0  0  0  0  0  0  0  0  0  0  0
   13.0611    7.9641  -15.0584 C   0  0  0  0  0  0  0  0  0  0  0  0
   13.2566    6.9411  -15.8980 C   0  0  0  0  0  0  0  0  0  0  0  0
   10.3251    4.7758  -15.3806 N   0  0  0  0  0  0  0  0  0  0  0  0
   12.4399    5.8480  -15.9616 C   0  0  0  0  0  0  0  0  0  0  0  0
   10.4832    3.7450  -14.4353 C   0  0  0  0  0  0  0  0  0  0  0  0
   11.5994    3.2941  -14.0951 O   0  0  0  0  0  0  0  0  0  0  0  0
    9.2652    3.1033  -14.0771 C   0  0  0  0  0  0  0  0  0  0  0  0
  1  2  1  0  0  0  0
  2  3  1  0  0  0  0
  2  6  1  0  0  0  0
  3  5  1  0  0  0  0
  3  8  1  0  0  0  0
  3 11  1  0  0  0  0
  4  2  1  1  0  0  0
  4  7  1  0  0  0  0
  4  9  1  0  0  0  0
  7 10  1  0  0  0  0
  7 12  1  6  0  0  0
  7 13  1  0  0  0  0
  9 14  1  0  0  0  0
  9 16  1  0  0  0  0
 10 11  1  0  0  0  0
 13 16  1  0  0  0  0
 14 15  1  0  0  0  0
 14 23  1  0  0  0  0
 15 18  2  0  0  0  0
 16 17  1  0  0  0  0
 17 20  2  3  0  0  0
 17 23  1  0  0  0  0
 18 19  1  0  0  0  0
 19 22  2  0  0  0  0
 20 21  1  0  0  0  0
 21 24  2  3  0  0  0
 22 23  1  0  0  0  0
 24 25  1  0  0  0  0
 24 27  1  0  0  0  0
 25 26  1  0  0  0  0
 25 30  2  0  0  0  0
 26 28  2  0  0  0  0
 26 29  1  0  0  0  0
 28 31  1  0  0  0  0
 29 33  1  0  0  0  0
 29 34  2  0  0  0  0
 31 32  2  0  0  0  0
 32 34  1  0  0  0  0
 33 35  1  0  0  0  0
 35 36  2  0  0  0  0
 35 37  1  0  0  0  0
M  END
$$$$

 OpenBabel10082411353D

 37 44  0  0  0  0  0  0  0  0999 V2000
   12.7863    7.8241  -14.2109 C   0  0  0  0  0  0  0  0  0  0  0  0
   12.4233    7.7158  -13.0289 C   0  0  0  0  0  0  0  0  0  0  0  0
   11.3194    6.8571  -12.8028 C   0  0  0  0  0  0  0  0  0  0  0  0
   12.3150    7.2021  -15.3582 C   0  0  0  0  0  0  0  0  0  0  0  0
   11.2733    6.2739  -15.1502 C   0  0  0  0  0  0  0  0  0  0  0  0
   10.8099    6.0126  -13.8600 C   0  0  0  0  0  0  0  0  0  0  0  0
    9.6782    5.1428  -13.6488 C   0  0  0  0  0  0  0  0  0  0  0  0
    8.5753    5.3880  -12.9589 N   0  0  0  0  0  0  0  0  0  0  0  0
    8.3226    6.7011  -12.3862 C   0  0  0  0  0  0  0  0  0  0  0  0
    9.8502    3.8578  -14.0728 C   0  0  0  0  0  0  0  0  0  0  0  0
    7.3864    7.4720  -13.0530 C   0  0  0  0  0  0  0  0  0  0  0  0
    6.2412    7.8486  -12.2599 C   0  0  0  0  0  0  0  0  0  0  0  0
    7.6425    4.4186  -12.7943 C   0  0  0  0  0  0  0  0  0  0  0  0
   11.0297    3.2482  -14.8053 C   0  0  0  0  0  0  0  0  0  0  0  0
    8.6802    2.8955  -13.7960 C   0  0  0  0  0  0  0  0  0  0  0  0
    8.8565    1.5917  -14.3582 O   0  0  0  0  0  0  0  0  0  0  0  0
    7.6903    3.2226  -13.1994 N   0  0  0  0  0  0  0  0  0  0  0  0
    6.5724    2.3444  -12.8378 C   0  0  0  0  0  0  0  0  0  0  0  0
    9.0225    7.0353  -11.3259 C   0  0  0  0  0  0  0  0  0  0  0  0
    6.2405    4.8489  -12.4515 C   0  0  0  0  0  0  0  0  0  0  0  0
   10.5875    7.0617  -11.5321 C   0  0  0  0  0  0  0  0  0  0  0  0
   11.0960    7.6093  -10.4100 C   0  0  0  0  0  0  0  0  0  0  0  0
    8.4039    7.3336  -10.1102 C   0  0  0  0  0  0  0  0  0  0  0  0
    5.5911    3.3517  -12.3508 C   0  0  0  0  0  0  0  0  0  0  0  0
   12.6259    7.6530  -10.3901 C   0  0  0  0  0  0  0  0  0  0  0  0
   10.4284    7.7784   -9.2128 C   0  0  1  0  0  0  0  0  0  0  0  0
    9.2236    7.5051   -9.0617 C   0  0  2  0  0  0  0  0  0  0  0  0
    8.7145    7.3063   -7.7135 N   0  0  0  0  0  0  0  0  0  0  0  0
   11.0621    7.5242   -7.8430 C   0  0  1  0  0  0  0  0  0  0  0  0
   12.0213    8.4787   -7.3268 C   0  0  0  0  0  0  0  0  0  0  0  0
   13.1241    8.0749  -11.7293 C   0  0  0  0  0  0  0  0  0  0  0  0
    9.9178    7.6308   -6.9884 C   0  0  2  0  0  0  0  0  0  0  0  0
   12.0768    8.3481   -5.8539 C   0  0  1  0  0  0  0  0  0  0  0  0
   12.4785    9.5691   -5.0998 C   0  0  0  0  0  0  0  0  0  0  0  0
   10.1982    7.0314   -5.6704 C   0  0  0  0  0  0  0  0  0  0  0  0
   10.8520    8.0340   -5.1052 O   0  0  0  0  0  0  0  0  0  0  0  0
   13.3391    9.3153   -4.1392 F   0  0  0  0  0  0  0  0  0  0  0  0
  1  2  2  0  0  0  0
  1  4  1  0  0  0  0
  2  3  1  0  0  0  0
  2 31  1  0  0  0  0
  3  6  2  0  0  0  0
  3 21  1  0  0  0  0
  4  5  2  0  0  0  0
  5  6  1  0  0  0  0
  6  7  1  0  0  0  0
  7  8  1  0  0  0  0
  7 10  2  0  0  0  0
  8  9  1  0  0  0  0
  8 13  1  0  0  0  0
  9 11  1  0  0  0  0
  9 19  2  0  0  0  0
 10 14  1  0  0  0  0
 10 15  1  0  0  0  0
 11 12  1  0  0  0  0
 13 17  1  0  0  0  0
 13 20  2  0  0  0  0
 15 16  2  0  0  0  0
 15 17  1  0  0  0  0
 17 18  1  0  0  0  0
 18 24  1  0  0  0  0
 19 21  1  0  0  0  0
 19 23  1  0  0  0  0
 20 24  1  0  0  0  0
 21 22  2  0  0  0  0
 22 25  1  0  0  0  0
 25 31  2  0  0  0  0
 26 22  1  6  0  0  0
 26 27  1  0  0  0  0
 26 29  1  0  0  0  0
 27 23  1  6  0  0  0
 27 28  1  0  0  0  0
 28 32  1  0  0  0  0
 29 30  1  1  0  0  0
 29 32  1  0  0  0  0
 30 33  1  0  0  0  0
 32 35  1  1  0  0  0
 33 34  1  1  0  0  0
 33 36  1  0  0  0  0
 34 37  1  0  0  0  0
 35 36  1  0  0  0  0
M  END
$$$$

 OpenBabel10082411353D

 37 41  0  0  0  0  0  0  0  0999 V2000
   11.6836    6.0105   -4.8831 F   0  0  0  0  0  0  0  0  0  0  0  0
   11.2562    7.2206   -5.0294 C   0  0  0  0  0  0  0  0  0  0  0  0
   12.0125    8.2418   -4.4408 C   0  0  0  0  0  0  0  0  0  0  0  0
   11.1918    7.2706   -6.5237 C   0  0  0  0  0  0  0  0  0  0  0  0
   11.6999    8.4488   -3.1704 F   0  0  0  0  0  0  0  0  0  0  0  0
    9.8648    7.0908   -4.5314 F   0  0  0  0  0  0  0  0  0  0  0  0
   11.6831    8.5291   -6.9682 C   0  0  0  0  0  0  0  0  0  0  0  0
   10.4785    6.5189   -7.4033 C   0  0  0  0  0  0  0  0  0  0  0  0
   11.6979    8.6661   -8.4760 C   0  0  0  0  0  0  0  0  0  0  0  0
   11.6248    9.5853   -5.0030 C   0  0  0  0  0  0  0  0  0  0  0  0
   11.8604    9.7907   -6.2903 O   0  0  0  0  0  0  0  0  0  0  0  0
   13.3557    8.1748   -4.5947 F   0  0  0  0  0  0  0  0  0  0  0  0
   10.5427    6.6061   -8.7190 C   0  0  0  0  0  0  0  0  0  0  0  0
   11.1158    7.7103   -9.2540 C   0  0  0  0  0  0  0  0  0  0  0  0
   11.3757    7.6656  -10.5293 N   0  0  0  0  0  0  0  0  0  0  0  0
   10.7153    7.7096  -11.5405 C   0  0  0  0  0  0  0  0  0  0  0  0
   11.2483    7.4711  -12.8542 C   0  0  0  0  0  0  0  0  0  0  0  0
    9.3980    7.7820  -11.5398 C   0  0  0  0  0  0  0  0  0  0  0  0
    8.6055    7.5889  -12.6525 C   0  0  0  0  0  0  0  0  0  0  0  0
   12.7508    7.3705  -13.0162 O   0  0  0  0  0  0  0  0  0  0  0  0
   10.5299    7.1831  -13.9856 C   0  0  0  0  0  0  0  0  0  0  0  0
    7.0533    7.7371  -12.5396 C   0  0  0  0  0  0  0  0  0  0  0  0
   11.2041    6.8490  -15.2304 C   0  0  0  0  0  0  0  0  0  0  0  0
   11.6393    5.5333  -15.3864 C   0  0  0  0  0  0  0  0  0  0  0  0
    9.1955    7.2935  -13.8301 C   0  0  0  0  0  0  0  0  0  0  0  0
   12.5294    5.1116  -16.1609 C   0  0  0  0  0  0  0  0  0  0  0  0
   11.2315    4.4703  -14.3200 C   0  0  0  0  0  0  0  0  0  0  0  0
   10.2844    4.5821  -13.3000 C   0  0  0  0  0  0  0  0  0  0  0  0
   11.6270    3.1866  -14.6052 C   0  0  0  0  0  0  0  0  0  0  0  0
    9.0868    3.8289  -13.3080 C   0  0  0  0  0  0  0  0  0  0  0  0
   11.3420    2.7039  -15.8535 C   0  0  0  0  0  0  0  0  0  0  0  0
   12.3848    3.5242  -16.4737 C   0  0  0  0  0  0  0  0  0  0  0  0
    8.2189    3.9688  -12.1830 C   0  0  0  0  0  0  0  0  0  0  0  0
    6.9182    3.4966  -12.4114 C   0  0  0  0  0  0  0  0  0  0  0  0
    6.7544    2.5986  -13.5636 C   0  0  0  0  0  0  0  0  0  0  0  0
    8.9077    3.0684  -14.3486 C   0  0  0  0  0  0  0  0  0  0  0  0
    7.6727    2.4179  -14.4689 C   0  0  0  0  0  0  0  0  0  0  0  0
  1  2  1  0  0  0  0
  2  3  1  0  0  0  0
  2  4  1  0  0  0  0
  2  6  1  0  0  0  0
  3  5  1  0  0  0  0
  3 10  1  0  0  0  0
  3 12  1  0  0  0  0
  4  7  1  0  0  0  0
  4  8  2  0  0  0  0
  7  9  2  0  0  0  0
  7 11  1  0  0  0  0
  8 13  1  0  0  0  0
  9 14  1  0  0  0  0
 10 11  1  0  0  0  0
 13 14  2  0  0  0  0
 14 15  1  0  0  0  0
 15 16  1  0  0  0  0
 16 17  1  0  0  0  0
 16 18  2  0  0  0  0
 17 20  1  0  0  0  0
 17 21  2  0  0  0  0
 18 19  1  0  0  0  0
 19 22  1  0  0  0  0
 19 25  2  0  0  0  0
 21 23  1  0  0  0  0
 21 25  1  0  0  0  0
 23 24  1  0  0  0  0
 24 26  2  0  0  0  0
 24 27  1  0  0  0  0
 26 32  1  0  0  0  0
 27 28  1  0  0  0  0
 27 29  2  0  0  0  0
 28 30  2  3  0  0  0
 29 31  1  0  0  0  0
 30 33  1  0  0  0  0
 30 36  1  0  0  0  0
 31 32  1  0  0  0  0
 33 34  2  0  0  0  0
 34 35  1  0  0  0  0
 35 37  2  0  0  0  0
 36 37  1  0  0  0  0
M  END
$$$$

 OpenBabel10082411353D

 37 42  0  0  0  0  0  0  0  0999 V2000
   12.7863    7.8241  -14.2109 C   0  0  0  0  0  0  0  0  0  0  0  0
   12.4233    7.7158  -13.0289 C   0  0  0  0  0  0  0  0  0  0  0  0
   11.3194    6.8571  -12.8028 C   0  0  0  0  0  0  0  0  0  0  0  0
   12.3150    7.2021  -15.3582 C   0  0  0  0  0  0  0  0  0  0  0  0
   11.2733    6.2739  -15.1502 C   0  0  0  0  0  0  0  0  0  0  0  0
   10.8099    6.0126  -13.8600 C   0  0  0  0  0  0  0  0  0  0  0  0
    9.6782    5.1428  -13.6488 C   0  0  0  0  0  0  0  0  0  0  0  0
    8.5753    5.3880  -12.9589 N   0  0  0  0  0  0  0  0  0  0  0  0
    8.3226    6.7011  -12.3862 C   0  0  0  0  0  0  0  0  0  0  0  0
    9.8502    3.8578  -14.0728 C   0  0  0  0  0  0  0  0  0  0  0  0
    7.3864    7.4720  -13.0530 C   0  0  0  0  0  0  0  0  0  0  0  0
    6.2412    7.8486  -12.2599 C   0  0  0  0  0  0  0  0  0  0  0  0
    7.6425    4.4186  -12.7943 C   0  0  0  0  0  0  0  0  0  0  0  0
   11.0297    3.2482  -14.8053 C   0  0  0  0  0  0  0  0  0  0  0  0
    8.6802    2.8955  -13.7960 C   0  0  0  0  0  0  0  0  0  0  0  0
    8.8565    1.5917  -14.3582 O   0  0  0  0  0  0  0  0  0  0  0  0
    7.6903    3.2226  -13.1994 N   0  0  0  0  0  0  0  0  0  0  0  0
    6.5724    2.3444  -12.8378 C   0  0  0  0  0  0  0  0  0  0  0  0
    9.0225    7.0353  -11.3259 C   0  0  0  0  0  0  0  0  0  0  0  0
    6.4787    4.7532  -12.1787 O   0  0  0  0  0  0  0  0  0  0  0  0
   10.5868    7.0468  -11.5199 C   0  0  0  0  0  0  0  0  0  0  0  0
   11.2761    7.4007  -10.4131 C   0  0  0  0  0  0  0  0  0  0  0  0
    8.6862    7.4300   -9.9877 C   0  0  0  0  0  0  0  0  0  0  0  0
    9.4326    7.6744   -8.9657 C   0  0  0  0  0  0  0  0  0  0  0  0
   10.6794    7.6568   -9.1312 C   0  0  2  0  0  0  0  0  0  0  0  0
    8.9269    7.9839   -7.6612 C   0  0  0  0  0  0  0  0  0  0  0  0
   11.4232    7.9744   -7.9321 C   0  0  0  0  0  0  0  0  0  0  0  0
   10.9573    8.3184   -6.8885 C   0  0  0  0  0  0  0  0  0  0  0  0
    7.5782    7.8797   -7.5710 F   0  0  0  0  0  0  0  0  0  0  0  0
   11.9524    8.6726   -5.5732 C   0  0  0  0  0  0  0  0  0  0  0  0
   12.5628    9.9251   -5.6215 C   0  0  0  0  0  0  0  0  0  0  0  0
   11.7409    8.0483   -4.4624 C   0  0  0  0  0  0  0  0  0  0  0  0
   12.5004    8.4224   -3.2820 C   0  0  0  0  0  0  0  0  0  0  0  0
    9.5813    8.2566   -6.6568 C   0  0  0  0  0  0  0  0  0  0  0  0
   12.4058    7.4585   -1.9883 C   0  0  0  0  0  0  0  0  0  0  0  0
   13.3041    9.5370   -3.3129 C   0  0  0  0  0  0  0  0  0  0  0  0
   13.1749   10.2637   -4.5588 C   0  0  0  0  0  0  0  0  0  0  0  0
  1  2  2  0  0  0  0
  1  4  1  0  0  0  0
  2  3  1  0  0  0  0
  3  6  2  0  0  0  0
  3 21  1  0  0  0  0
  4  5  2  0  0  0  0
  5  6  1  0  0  0  0
  6  7  1  0  0  0  0
  7  8  1  0  0  0  0
  7 10  2  0  0  0  0
  8  9  1  0  0  0  0
  8 13  1  0  0  0  0
  9 11  1  0  0  0  0
  9 19  2  0  0  0  0
 10 14  1  0  0  0  0
 10 15  1  0  0  0  0
 11 12  1  0  0  0  0
 13 17  1  0  0  0  0
 13 20  2  0  0  0  0
 15 16  2  0  0  0  0
 15 17  1  0  0  0  0
 17 18  1  0  0  0  0
 19 21  1  0  0  0  0
 19 23  1  0  0  0  0
 21 22  2  0  0  0  0
 23 24  2  0  0  0  0
 24 25  1  0  0  0  0
 24 26  1  0  0  0  0
 25 22  1  6  0  0  0
 25 27  1  0  0  0  0
 26 29  1  0  0  0  0
 26 34  2  0  0  0  0
 27 28  2  0  0  0  0
 28 30  1  0  0  0  0
 28 34  1  0  0  0  0
 30 31  1  0  0  0  0
 30 32  2  0  0  0  0
 31 37  2  0  0  0  0
 32 33  1  0  0  0  0
 33 35  1  0  0  0  0
 33 36  2  0  0  0  0
 36 37  1  0  0  0  0
M  END
$$$$

 OpenBabel10082411353D

 37 44  0  0  0  0  0  0  0  0999 V2000
    8.0806    9.0240  -12.7589 C   0  0  0  0  0  0  0  0  0  0  0  0
    8.6514    7.8645  -12.2948 C   0  0  0  0  0  0  0  0  0  0  0  0
    9.9575    7.9974  -11.8426 C   0  0  0  0  0  0  0  0  0  0  0  0
   10.7657    6.8667  -11.6050 C   0  0  1  0  0  0  0  0  0  0  0  0
   10.7682    5.9590  -12.8271 C   0  0  0  0  0  0  0  0  0  0  0  0
   12.1553    7.3846  -11.2315 C   0  0  0  0  0  0  0  0  0  0  0  0
    8.0676    6.6451  -12.2974 C   0  0  0  0  0  0  0  0  0  0  0  0
   10.1892    6.1240  -10.3860 C   0  0  0  0  0  0  0  0  0  0  0  0
   11.8375    5.4373  -13.3240 O   0  0  0  0  0  0  0  0  0  0  0  0
    8.6785    5.4761  -13.0273 C   0  0  1  0  0  0  0  0  0  0  0  0
    9.1969    5.2405  -10.4969 C   0  0  2  0  0  0  0  0  0  0  0  0
    7.2213    6.2210  -11.3074 C   0  0  2  0  0  0  0  0  0  0  0  0
   12.5590    7.6872   -9.9896 C   0  0  0  0  0  0  0  0  0  0  0  0
    9.7633    5.0333  -12.9720 C   0  0  1  0  0  0  0  0  0  0  0  0
   10.0661    4.0167  -14.0373 N   0  0  0  0  0  0  0  0  0  0  0  0
   13.6906    8.3004   -9.6233 O   0  0  0  0  0  0  0  0  0  0  0  0
    7.6357    4.5123  -12.6317 C   0  0  2  0  0  0  0  0  0  0  0  0
    6.8831    4.9171  -11.7031 C   0  0  2  0  0  0  0  0  0  0  0  0
   10.5937    6.6967   -9.1779 C   0  0  0  0  0  0  0  0  0  0  0  0
    9.5087    4.3263  -11.6925 C   0  0  2  0  0  0  0  0  0  0  0  0
   11.6359    7.4449   -8.9125 C   0  0  0  0  0  0  0  0  0  0  0  0
   11.9716    7.9159   -7.6200 C   0  0  0  0  0  0  0  0  0  0  0  0
    8.4648    3.6122  -12.2840 C   0  0  1  0  0  0  0  0  0  0  0  0
    7.9253    2.8004  -11.3926 C   0  0  0  0  0  0  0  0  0  0  0  0
    5.6047    4.5059  -11.7589 C   0  0  0  0  0  0  0  0  0  0  0  0
    7.6606    4.1297  -10.5699 C   0  0  0  0  0  0  0  0  0  0  0  0
   10.9559    7.6849   -6.6057 C   0  0  0  0  0  0  0  0  0  0  0  0
    8.0094    4.5092   -9.5664 C   0  0  0  0  0  0  0  0  0  0  0  0
    8.3033    4.0627   -8.4980 C   0  0  0  0  0  0  0  0  0  0  0  0
    6.3587    7.1012  -11.0392 O   0  0  0  0  0  0  0  0  0  0  0  0
   11.1885    8.2709   -5.2029 C   0  0  0  0  0  0  0  0  0  0  0  0
    8.1551    5.8688  -10.2415 C   0  0  0  0  0  0  0  0  0  0  0  0
    9.3562    2.8931  -13.4173 C   0  0  0  0  0  0  0  0  0  0  0  0
    9.4006    1.8057  -13.6789 O   0  0  0  0  0  0  0  0  0  0  0  0
   12.1476    7.5445   -4.5422 C   0  0  0  0  0  0  0  0  0  0  0  0
   11.6336    9.7856   -5.2534 C   0  0  0  0  0  0  0  0  0  0  0  0
   11.3906    3.6553  -14.4645 C   0  0  0  0  0  0  0  0  0  0  0  0
  1  2  1  0  0  0  0
  2  3  1  0  0  0  0
  2  7  2  0  0  0  0
  4  3  1  6  0  0  0
  4  5  1  0  0  0  0
  4  6  1  0  0  0  0
  4  8  1  0  0  0  0
  5  9  2  0  0  0  0
  6 13  1  0  0  0  0
  7 12  1  0  0  0  0
  8 11  1  0  0  0  0
  8 19  2  0  0  0  0
 10  7  1  1  0  0  0
 10 14  1  0  0  0  0
 10 17  1  0  0  0  0
 11 20  1  0  0  0  0
 11 32  1  6  0  0  0
 12 18  1  0  0  0  0
 12 30  1  6  0  0  0
 13 16  2  0  0  0  0
 13 21  1  0  0  0  0
 14  5  1  1  0  0  0
 14 15  1  0  0  0  0
 14 20  1  0  0  0  0
 15 33  1  0  0  0  0
 15 37  1  0  0  0  0
 17 18  1  0  0  0  0
 17 23  1  0  0  0  0
 18 25  1  0  0  0  0
 18 26  1  0  0  0  0
 19 21  1  0  0  0  0
 20 23  1  0  0  0  0
 21 22  2  3  0  0  0
 22 27  1  0  0  0  0
 23 24  1  0  0  0  0
 23 33  1  0  0  0  0
 24 26  1  0  0  0  0
 26 28  2  0  0  0  0
 27 31  1  0  0  0  0
 28 29  1  0  0  0  0
 28 32  1  0  0  0  0
 31 35  1  0  0  0  0
 31 36  1  0  0  0  0
 33 34  2  0  0  0  0
M  END
$$$$

 OpenBabel10082411353D

 25 27  0  0  0  0  0  0  0  0999 V2000
    8.0839    8.8860  -12.2561 C   0  0  0  0  0  0  0  0  0  0  0  0
    8.8273    7.7579  -12.2078 C   0  0  1  0  0  0  0  0  0  0  0  0
   10.1224    7.6608  -11.7635 C   0  0  0  0  0  0  0  0  0  0  0  0
    8.0207    6.6286  -11.5139 C   0  0  0  0  0  0  0  0  0  0  0  0
   10.3983    7.6617  -10.4085 C   0  0  0  0  0  0  0  0  0  0  0  0
   11.1796    7.3921  -12.6684 C   0  0  0  0  0  0  0  0  0  0  0  0
   11.7852    7.6560   -9.9808 C   0  0  0  0  0  0  0  0  0  0  0  0
    7.6417    5.4729  -12.5527 C   0  0  0  0  0  0  0  0  0  0  0  0
    6.4084    5.1570  -12.4330 C   0  0  0  0  0  0  0  0  0  0  0  0
   12.5068    7.3608  -12.2820 C   0  0  0  0  0  0  0  0  0  0  0  0
   12.0871    7.7355   -8.5565 C   0  0  0  0  0  0  0  0  0  0  0  0
    6.2013    3.7420  -13.0865 C   0  0  0  0  0  0  0  0  0  0  0  0
   12.7831    7.4995  -10.9693 C   0  0  0  0  0  0  0  0  0  0  0  0
   10.9919    8.0814   -7.6989 C   0  0  2  0  0  0  0  0  0  0  0  0
   10.7921    7.0977   -6.6776 C   0  0  0  0  0  0  0  0  0  0  0  0
    9.5590    6.7400   -6.3045 C   0  0  0  0  0  0  0  0  0  0  0  0
   11.9106    6.4416   -6.0571 C   0  0  0  0  0  0  0  0  0  0  0  0
   11.7545    6.0437   -4.7151 C   0  0  0  0  0  0  0  0  0  0  0  0
    9.7205    8.0968   -8.5941 C   0  0  0  0  0  0  0  0  0  0  0  0
    9.5920    7.2458   -9.5271 N   0  0  0  0  0  0  0  0  0  0  0  0
   11.2993    9.6054   -7.5933 C   0  0  0  0  0  0  0  0  0  0  0  0
   10.9369   10.0782   -6.2210 C   0  0  0  0  0  0  0  0  0  0  0  0
   10.4674    5.8174   -4.2570 C   0  0  0  0  0  0  0  0  0  0  0  0
    9.4213    6.1559   -5.0089 C   0  0  0  0  0  0  0  0  0  0  0  0
    6.4456    2.7790  -11.9036 C   0  0  0  0  0  0  0  0  0  0  0  0
  2  1  1  1  0  0  0
  2  3  1  0  0  0  0
  2  4  1  0  0  0  0
  3  5  1  0  0  0  0
  3  6  2  0  0  0  0
  4  8  1  0  0  0  0
  5  7  2  0  0  0  0
  5 20  1  0  0  0  0
  6 10  1  0  0  0  0
  7 11  1  0  0  0  0
  7 13  1  0  0  0  0
  8  9  1  0  0  0  0
  9 12  1  0  0  0  0
 10 13  2  0  0  0  0
 11 14  1  0  0  0  0
 12 25  1  0  0  0  0
 14 15  1  0  0  0  0
 14 19  1  0  0  0  0
 14 21  1  1  0  0  0
 15 16  1  0  0  0  0
 15 17  2  0  0  0  0
 16 24  2  0  0  0  0
 17 18  1  0  0  0  0
 18 23  2  0  0  0  0
 19 20  1  0  0  0  0
 21 22  1  0  0  0  0
 23 24  1  0  0  0  0
M  END
$$$$

 OpenBabel10082411353D

 37 42  0  0  0  0  0  0  0  0999 V2000
   11.6836    6.0105   -4.8831 C   0  0  0  0  0  0  0  0  0  0  0  0
   11.1291    7.0732   -5.4395 C   0  0  0  0  0  0  0  0  0  0  0  0
   10.6954    7.0156   -6.8073 C   0  0  0  0  0  0  0  0  0  0  0  0
   10.2502    8.1187   -7.5536 C   0  0  2  0  0  0  0  0  0  0  0  0
   11.1205    8.4712   -4.9629 C   0  0  0  0  0  0  0  0  0  0  0  0
   10.8655    8.3511   -8.7960 C   0  0  0  0  0  0  0  0  0  0  0  0
   10.2922    7.8843   -9.9985 C   0  0  0  0  0  0  0  0  0  0  0  0
   10.4654    9.6993   -5.6120 C   0  0  0  0  0  0  0  0  0  0  0  0
   10.3510    9.5971   -7.0014 C   0  0  0  0  0  0  0  0  0  0  0  0
   12.2462    6.3351   -3.5020 C   0  0  0  0  0  0  0  0  0  0  0  0
   11.0471    7.5309  -11.1063 C   0  0  0  0  0  0  0  0  0  0  0  0
   11.7288    8.6923   -3.6518 C   0  0  0  0  0  0  0  0  0  0  0  0
   12.3991    7.7501  -11.1145 C   0  0  0  0  0  0  0  0  0  0  0  0
   12.3738    7.7580   -2.9599 C   0  0  0  0  0  0  0  0  0  0  0  0
   13.1285    8.5075  -10.1661 O   0  0  0  0  0  0  0  0  0  0  0  0
    9.0407    7.3775  -10.0973 N   0  0  0  0  0  0  0  0  0  0  0  0
    8.9787    6.9473  -11.4664 N   0  0  0  0  0  0  0  0  0  0  0  0
   13.1012    7.4459  -12.3707 C   0  0  0  0  0  0  0  0  0  0  0  0
   12.2395    6.9724  -13.2444 C   0  0  0  0  0  0  0  0  0  0  0  0
   10.2768    7.0170  -11.9799 C   0  0  0  0  0  0  0  0  0  0  0  0
   12.9237    6.5822  -14.5759 O   0  0  0  0  0  0  0  0  0  0  0  0
   10.8906    6.6526  -13.2252 C   0  0  0  0  0  0  0  0  0  0  0  0
   12.2396    6.1290  -15.6916 C   0  0  0  0  0  0  0  0  0  0  0  0
    7.7368    6.4514  -12.0707 C   0  0  0  0  0  0  0  0  0  0  0  0
    7.1353    7.2872  -12.8105 C   0  0  0  0  0  0  0  0  0  0  0  0
    7.6622    5.0135  -12.1225 C   0  0  0  0  0  0  0  0  0  0  0  0
   12.5092    4.6950  -15.8147 C   0  0  0  0  0  0  0  0  0  0  0  0
    5.9403    6.5840  -13.2897 C   0  0  0  0  0  0  0  0  0  0  0  0
   11.2738    3.8422  -15.5220 N   0  0  0  0  0  0  0  0  0  0  0  0
    8.7139    4.1736  -11.4601 C   0  0  0  0  0  0  0  0  0  0  0  0
    5.7546    5.3014  -13.2955 C   0  0  0  0  0  0  0  0  0  0  0  0
   10.5665    3.9988  -14.5162 C   0  0  0  0  0  0  0  0  0  0  0  0
    6.6518    4.4534  -12.6459 C   0  0  0  0  0  0  0  0  0  0  0  0
   11.1930    2.6728  -16.3047 C   0  0  0  0  0  0  0  0  0  0  0  0
    9.2470    3.7086  -14.6888 C   0  0  0  0  0  0  0  0  0  0  0  0
    9.0846    2.6385  -15.7804 C   0  0  0  0  0  0  0  0  0  0  0  0
   10.0488    2.2513  -16.5043 C   0  0  0  0  0  0  0  0  0  0  0  0
  1  2  1  0  0  0  0
  1 10  2  0  0  0  0
  2  3  1  0  0  0  0
  2  5  2  0  0  0  0
  3  4  1  0  0  0  0
  4  6  1  6  0  0  0
  4  9  1  0  0  0  0
  5  8  1  0  0  0  0
  5 12  1  0  0  0  0
  6  7  1  0  0  0  0
  7 11  1  0  0  0  0
  7 16  2  0  0  0  0
  8  9  1  0  0  0  0
 10 14  1  0  0  0  0
 11 13  2  0  0  0  0
 11 20  1  0  0  0  0
 12 14  2  0  0  0  0
 13 15  1  0  0  0  0
 13 18  1  0  0  0  0
 16 17  1  0  0  0  0
 17 20  1  0  0  0  0
 17 24  1  0  0  0  0
 18 19  2  0  0  0  0
 19 21  1  0  0  0  0
 19 22  1  0  0  0  0
 20 22  2  0  0  0  0
 21 23  1  0  0  0  0
 23 27  1  0  0  0  0
 24 25  2  0  0  0  0
 24 26  1  0  0  0  0
 25 28  1  0  0  0  0
 26 30  1  0  0  0  0
 26 33  2  0  0  0  0
 27 29  1  0  0  0  0
 28 31  2  0  0  0  0
 29 32  1  0  0  0  0
 29 34  1  0  0  0  0
 31 33  1  0  0  0  0
 32 35  2  0  0  0  0
 34 37  1  0  0  0  0
 35 36  1  0  0  0  0
 36 37  2  0  0  0  0
M  END
$$$$

 OpenBabel10082411353D

 37 43  0  0  0  0  0  0  0  0999 V2000
   12.8881    8.7759   -3.5681 C   0  0  0  0  0  0  0  0  0  0  0  0
   11.9416    9.4732   -4.1220 C   0  0  0  0  0  0  0  0  0  0  0  0
   12.3556    7.6012   -2.6527 C   0  0  0  0  0  0  0  0  0  0  0  0
   11.8805    9.3400   -5.6557 C   0  0  0  0  0  0  0  0  0  0  0  0
   11.7716    6.5414   -3.3821 C   0  0  0  0  0  0  0  0  0  0  0  0
   10.8523    8.6585   -6.3310 C   0  0  0  0  0  0  0  0  0  0  0  0
   11.1142    8.2520   -7.7289 C   0  0  0  0  0  0  0  0  0  0  0  0
   10.0478    7.6568   -8.4887 C   0  0  0  0  0  0  0  0  0  0  0  0
   12.3648    8.4339   -8.3703 C   0  0  0  0  0  0  0  0  0  0  0  0
   12.6142    8.1352   -9.7322 C   0  0  0  0  0  0  0  0  0  0  0  0
   10.2852    7.3833   -9.9138 C   0  0  0  0  0  0  0  0  0  0  0  0
   11.5161    7.5808  -10.4860 C   0  0  0  0  0  0  0  0  0  0  0  0
   11.6641    7.2285  -11.8174 O   0  0  0  0  0  0  0  0  0  0  0  0
   10.8624    6.4419  -12.4395 C   0  0  0  0  0  0  0  0  0  0  0  0
   11.2693    5.8267  -13.4966 C   0  0  0  0  0  0  0  0  0  0  0  0
    9.5259    6.2192  -11.9953 C   0  0  0  0  0  0  0  0  0  0  0  0
    9.2551    6.6732  -10.5921 C   0  0  2  0  0  0  0  0  0  0  0  0
    8.1388    7.5201  -10.6434 O   0  0  0  0  0  0  0  0  0  0  0  0
   12.6263    6.1828  -14.1606 C   0  0  0  0  0  0  0  0  0  0  0  0
    7.2614    7.1893  -11.7193 C   0  0  2  0  0  0  0  0  0  0  0  0
   12.6352    7.3184  -14.7782 C   0  0  0  0  0  0  0  0  0  0  0  0
    8.2277    6.2735  -12.5381 C   0  0  0  0  0  0  0  0  0  0  0  0
    7.7180    5.1928  -13.4230 C   0  0  0  0  0  0  0  0  0  0  0  0
    8.4439    4.2015  -13.9045 C   0  0  0  0  0  0  0  0  0  0  0  0
    6.9950    8.4483  -12.4502 C   0  0  0  0  0  0  0  0  0  0  0  0
    7.7472    3.2985  -14.8364 C   0  0  0  0  0  0  0  0  0  0  0  0
    9.0300    5.4319   -9.7786 C   0  0  0  0  0  0  0  0  0  0  0  0
    8.1705    1.9584  -14.6092 C   0  0  0  0  0  0  0  0  0  0  0  0
    9.3621    1.6865  -14.2893 C   0  0  0  0  0  0  0  0  0  0  0  0
    9.7363    3.9677  -13.5638 C   0  0  1  0  0  0  0  0  0  0  0  0
   10.3860    2.7957  -13.6197 C   0  0  0  0  0  0  0  0  0  0  0  0
   11.0084    4.6578  -13.9997 C   0  0  0  0  0  0  0  0  0  0  0  0
   11.8972    4.1674  -14.8848 C   0  0  0  0  0  0  0  0  0  0  0  0
   12.9727    5.1314  -15.3028 C   0  0  0  0  0  0  0  0  0  0  0  0
   13.8667    5.2335  -16.0652 C   0  0  0  0  0  0  0  0  0  0  0  0
   13.6726    7.5730  -15.8458 C   0  0  0  0  0  0  0  0  0  0  0  0
   14.1829    6.5264  -16.4101 C   0  0  0  0  0  0  0  0  0  0  0  0
  1  2  1  0  0  0  0
  1  3  1  0  0  0  0
  2  4  1  0  0  0  0
  3  5  1  0  0  0  0
  4  6  1  0  0  0  0
  6  7  1  0  0  0  0
  7  8  1  0  0  0  0
  7  9  2  0  0  0  0
  8 11  2  0  0  0  0
  9 10  1  0  0  0  0
 10 12  2  0  0  0  0
 11 12  1  0  0  0  0
 11 17  1  0  0  0  0
 12 13  1  0  0  0  0
 13 14  1  0  0  0  0
 14 15  2  0  0  0  0
 14 16  1  0  0  0  0
 15 19  1  0  0  0  0
 15 32  1  0  0  0  0
 16 17  1  0  0  0  0
 16 22  2  0  0  0  0
 17 18  1  0  0  0  0
 17 27  1  1  0  0  0
 18 20  1  0  0  0  0
 19 21  2  0  0  0  0
 19 34  1  0  0  0  0
 20 22  1  0  0  0  0
 20 25  1  6  0  0  0
 21 36  1  0  0  0  0
 22 23  1  0  0  0  0
 23 24  2  0  0  0  0
 24 26  1  0  0  0  0
 24 30  1  0  0  0  0
 26 28  2  0  0  0  0
 28 29  1  0  0  0  0
 29 31  2  0  0  0  0
 30 31  1  6  0  0  0
 30 32  1  0  0  0  0
 32 33  2  0  0  0  0
 33 34  1  0  0  0  0
 34 35  2  0  0  0  0
 35 37  1  0  0  0  0
 36 37  2  0  0  0  0
M  END
$$$$

 OpenBabel10082411353D

 37 42  0  0  0  0  0  0  0  0999 V2000
   11.6836    6.0105   -4.8831 C   0  0  0  0  0  0  0  0  0  0  0  0
   11.1291    7.0732   -5.4395 C   0  0  0  0  0  0  0  0  0  0  0  0
   10.6954    7.0156   -6.8073 C   0  0  0  0  0  0  0  0  0  0  0  0
   10.2502    8.1187   -7.5536 C   0  0  2  0  0  0  0  0  0  0  0  0
   11.1205    8.4712   -4.9629 C   0  0  0  0  0  0  0  0  0  0  0  0
   10.8655    8.3511   -8.7960 C   0  0  0  0  0  0  0  0  0  0  0  0
   10.2922    7.8843   -9.9985 C   0  0  0  0  0  0  0  0  0  0  0  0
   10.4654    9.6993   -5.6120 C   0  0  0  0  0  0  0  0  0  0  0  0
   10.3510    9.5971   -7.0014 C   0  0  0  0  0  0  0  0  0  0  0  0
   12.2462    6.3351   -3.5020 C   0  0  0  0  0  0  0  0  0  0  0  0
   11.0471    7.5309  -11.1063 C   0  0  0  0  0  0  0  0  0  0  0  0
   11.7288    8.6923   -3.6518 C   0  0  0  0  0  0  0  0  0  0  0  0
   12.3991    7.7501  -11.1145 C   0  0  0  0  0  0  0  0  0  0  0  0
   12.3738    7.7580   -2.9599 C   0  0  0  0  0  0  0  0  0  0  0  0
   13.1285    8.5075  -10.1661 O   0  0  0  0  0  0  0  0  0  0  0  0
    9.0407    7.3775  -10.0973 N   0  0  0  0  0  0  0  0  0  0  0  0
    8.9787    6.9473  -11.4664 N   0  0  0  0  0  0  0  0  0  0  0  0
   13.1012    7.4459  -12.3707 C   0  0  0  0  0  0  0  0  0  0  0  0
   12.2395    6.9724  -13.2444 C   0  0  0  0  0  0  0  0  0  0  0  0
   10.2768    7.0170  -11.9799 C   0  0  0  0  0  0  0  0  0  0  0  0
   12.9237    6.5822  -14.5759 O   0  0  0  0  0  0  0  0  0  0  0  0
   10.8906    6.6526  -13.2252 C   0  0  0  0  0  0  0  0  0  0  0  0
   12.2396    6.1290  -15.6916 C   0  0  0  0  0  0  0  0  0  0  0  0
    7.7368    6.4514  -12.0707 C   0  0  0  0  0  0  0  0  0  0  0  0
    7.1353    7.2872  -12.8105 C   0  0  0  0  0  0  0  0  0  0  0  0
    7.6622    5.0135  -12.1225 C   0  0  0  0  0  0  0  0  0  0  0  0
   12.5092    4.6950  -15.8147 C   0  0  0  0  0  0  0  0  0  0  0  0
    5.9403    6.5840  -13.2897 C   0  0  0  0  0  0  0  0  0  0  0  0
   11.2738    3.8422  -15.5220 N   0  0  0  0  0  0  0  0  0  0  0  0
    8.7139    4.1736  -11.4601 C   0  0  0  0  0  0  0  0  0  0  0  0
    5.7546    5.3014  -13.2955 C   0  0  0  0  0  0  0  0  0  0  0  0
   10.5665    3.9988  -14.5162 C   0  0  0  0  0  0  0  0  0  0  0  0
    6.6518    4.4534  -12.6459 C   0  0  0  0  0  0  0  0  0  0  0  0
    9.4912    3.0700  -14.3497 C   0  0  0  0  0  0  0  0  0  0  0  0
   10.8576    2.7594  -16.2342 C   0  0  0  0  0  0  0  0  0  0  0  0
   11.4118    2.3845  -17.3446 O   0  0  0  0  0  0  0  0  0  0  0  0
    9.7319    2.1513  -15.6006 C   0  0  0  0  0  0  0  0  0  0  0  0
  1  2  1  0  0  0  0
  1 10  2  0  0  0  0
  2  3  1  0  0  0  0
  2  5  2  0  0  0  0
  3  4  1  0  0  0  0
  4  6  1  6  0  0  0
  4  9  1  0  0  0  0
  5  8  1  0  0  0  0
  5 12  1  0  0  0  0
  6  7  1  0  0  0  0
  7 11  1  0  0  0  0
  7 16  2  0  0  0  0
  8  9  1  0  0  0  0
 10 14  1  0  0  0  0
 11 13  2  0  0  0  0
 11 20  1  0  0  0  0
 12 14  2  0  0  0  0
 13 15  1  0  0  0  0
 13 18  1  0  0  0  0
 16 17  1  0  0  0  0
 17 20  1  0  0  0  0
 17 24  1  0  0  0  0
 18 19  2  0  0  0  0
 19 21  1  0  0  0  0
 19 22  1  0  0  0  0
 20 22  2  0  0  0  0
 21 23  1  0  0  0  0
 23 27  1  0  0  0  0
 24 25  2  0  0  0  0
 24 26  1  0  0  0  0
 25 28  1  0  0  0  0
 26 30  1  0  0  0  0
 26 33  2  0  0  0  0
 27 29  1  0  0  0  0
 28 31  2  0  0  0  0
 29 32  1  0  0  0  0
 29 35  1  0  0  0  0
 31 33  1  0  0  0  0
 32 34  2  0  0  0  0
 34 37  1  0  0  0  0
 35 36  2  0  0  0  0
 35 37  1  0  0  0  0
M  END
$$$$

 OpenBabel10082411353D

 37 47  0  0  0  0  0  0  0  0999 V2000
    8.0806    9.0240  -12.7589 C   0  0  0  0  0  0  0  0  0  0  0  0
    8.6514    7.8645  -12.2948 C   0  0  0  0  0  0  0  0  0  0  0  0
    9.9575    7.9974  -11.8426 C   0  0  0  0  0  0  0  0  0  0  0  0
   10.7657    6.8667  -11.6050 C   0  0  1  0  0  0  0  0  0  0  0  0
   10.7682    5.9590  -12.8271 C   0  0  0  0  0  0  0  0  0  0  0  0
   12.1553    7.3846  -11.2315 C   0  0  0  0  0  0  0  0  0  0  0  0
    8.0676    6.6451  -12.2974 C   0  0  0  0  0  0  0  0  0  0  0  0
   10.1892    6.1240  -10.3860 C   0  0  0  0  0  0  0  0  0  0  0  0
   11.8375    5.4373  -13.3240 O   0  0  0  0  0  0  0  0  0  0  0  0
    8.6785    5.4761  -13.0273 C   0  0  1  0  0  0  0  0  0  0  0  0
    9.1969    5.2405  -10.4969 C   0  0  1  0  0  0  0  0  0  0  0  0
    7.2213    6.2210  -11.3074 C   0  0  1  0  0  0  0  0  0  0  0  0
   12.5590    7.6872   -9.9896 C   0  0  0  0  0  0  0  0  0  0  0  0
    9.7633    5.0333  -12.9720 C   0  0  1  0  0  0  0  0  0  0  0  0
   10.0661    4.0167  -14.0373 N   0  0  0  0  0  0  0  0  0  0  0  0
   13.6906    8.3004   -9.6233 O   0  0  0  0  0  0  0  0  0  0  0  0
    7.6357    4.5123  -12.6317 C   0  0  2  0  0  0  0  0  0  0  0  0
    6.8831    4.9171  -11.7031 C   0  0  1  0  0  0  0  0  0  0  0  0
   10.5937    6.6967   -9.1779 C   0  0  0  0  0  0  0  0  0  0  0  0
    9.5087    4.3263  -11.6925 C   0  0  2  0  0  0  0  0  0  0  0  0
   11.6359    7.4449   -8.9125 C   0  0  0  0  0  0  0  0  0  0  0  0
   11.9716    7.9159   -7.6200 C   0  0  0  0  0  0  0  0  0  0  0  0
    8.4648    3.6122  -12.2840 C   0  0  2  0  0  0  0  0  0  0  0  0
    9.3128    4.5571   -9.1689 C   0  0  0  0  0  0  0  0  0  0  0  0
   10.9557    7.6369   -6.5929 C   0  0  0  0  0  0  0  0  0  0  0  0
    9.6490    2.8108  -13.7776 C   0  0  0  0  0  0  0  0  0  0  0  0
   10.2419    1.7839  -14.4904 O   0  0  0  0  0  0  0  0  0  0  0  0
    9.8235    6.3429   -8.0308 C   0  0  0  0  0  0  0  0  0  0  0  0
    8.5421    2.5419  -13.1600 C   0  0  0  0  0  0  0  0  0  0  0  0
   10.0139    6.8647   -6.7816 C   0  0  0  0  0  0  0  0  0  0  0  0
    8.9641    5.2626   -8.0936 N   0  0  0  0  0  0  0  0  0  0  0  0
    7.9178    5.6594  -10.4374 C   0  0  1  0  0  0  0  0  0  0  0  0
   11.2467    8.3685   -5.1947 C   0  0  0  0  0  0  0  0  0  0  0  0
   12.0651    7.7023   -4.3308 C   0  0  0  0  0  0  0  0  0  0  0  0
   10.7646    9.6393   -4.8611 C   0  0  0  0  0  0  0  0  0  0  0  0
   12.1934    8.5805   -3.0300 C   0  0  0  0  0  0  0  0  0  0  0  0
   11.4545    9.9163   -3.2121 S   0  0  0  0  0  0  0  0  0  0  0  0
  1  2  1  0  0  0  0
  2  3  1  0  0  0  0
  2  7  2  0  0  0  0
  4  3  1  6  0  0  0
  4  5  1  0  0  0  0
  4  6  1  0  0  0  0
  4  8  1  0  0  0  0
  5  9  2  0  0  0  0
  6 13  1  0  0  0  0
  8 11  1  0  0  0  0
  8 19  2  0  0  0  0
 10  7  1  1  0  0  0
 10 14  1  0  0  0  0
 10 17  1  0  0  0  0
 11 20  1  0  0  0  0
 11 24  1  1  0  0  0
 11 32  1  0  0  0  0
 12  7  1  6  0  0  0
 12 18  1  0  0  0  0
 12 32  1  0  0  0  0
 13 16  2  0  0  0  0
 13 21  1  0  0  0  0
 14  5  1  1  0  0  0
 14 15  1  0  0  0  0
 14 20  1  0  0  0  0
 15 26  1  0  0  0  0
 17 18  1  0  0  0  0
 17 23  1  0  0  0  0
 18 32  1  0  0  0  0
 19 21  1  0  0  0  0
 19 28  1  0  0  0  0
 20 23  1  0  0  0  0
 21 22  2  0  0  0  0
 22 25  1  0  0  0  0
 23 29  1  0  0  0  0
 24 31  1  0  0  0  0
 25 30  2  0  0  0  0
 25 33  1  0  0  0  0
 26 27  2  0  0  0  0
 26 29  1  0  0  0  0
 28 30  1  0  0  0  0
 28 31  2  0  0  0  0
 33 34  1  0  0  0  0
 33 35  2  0  0  0  0
 34 36  2  0  0  0  0
 35 37  1  0  0  0  0
 36 37  1  0  0  0  0
M  END
$$$$

 OpenBabel10082411353D

 37 44  0  0  0  0  0  0  0  0999 V2000
    8.0806    9.0240  -12.7589 C   0  0  0  0  0  0  0  0  0  0  0  0
    8.6514    7.8645  -12.2948 C   0  0  0  0  0  0  0  0  0  0  0  0
    9.9575    7.9974  -11.8426 C   0  0  0  0  0  0  0  0  0  0  0  0
   10.7657    6.8667  -11.6050 C   0  0  1  0  0  0  0  0  0  0  0  0
   10.7682    5.9590  -12.8271 C   0  0  0  0  0  0  0  0  0  0  0  0
   12.1553    7.3846  -11.2315 C   0  0  0  0  0  0  0  0  0  0  0  0
    8.0676    6.6451  -12.2974 C   0  0  0  0  0  0  0  0  0  0  0  0
   10.1892    6.1240  -10.3860 C   0  0  0  0  0  0  0  0  0  0  0  0
   11.8375    5.4373  -13.3240 O   0  0  0  0  0  0  0  0  0  0  0  0
    8.6785    5.4761  -13.0273 C   0  0  1  0  0  0  0  0  0  0  0  0
    9.1969    5.2405  -10.4969 C   0  0  1  0  0  0  0  0  0  0  0  0
    7.2213    6.2210  -11.3074 C   0  0  0  0  0  0  0  0  0  0  0  0
   12.5590    7.6872   -9.9896 C   0  0  0  0  0  0  0  0  0  0  0  0
    9.7633    5.0333  -12.9720 C   0  0  1  0  0  0  0  0  0  0  0  0
   10.0661    4.0167  -14.0373 N   0  0  0  0  0  0  0  0  0  0  0  0
   13.6906    8.3004   -9.6233 O   0  0  0  0  0  0  0  0  0  0  0  0
    7.6357    4.5123  -12.6317 C   0  0  2  0  0  0  0  0  0  0  0  0
    6.8831    4.9171  -11.7031 C   0  0  0  0  0  0  0  0  0  0  0  0
   10.5937    6.6967   -9.1779 C   0  0  0  0  0  0  0  0  0  0  0  0
    9.5087    4.3263  -11.6925 C   0  0  2  0  0  0  0  0  0  0  0  0
   11.6359    7.4449   -8.9125 C   0  0  0  0  0  0  0  0  0  0  0  0
   11.9716    7.9159   -7.6200 C   0  0  0  0  0  0  0  0  0  0  0  0
    8.4648    3.6122  -12.2840 C   0  0  2  0  0  0  0  0  0  0  0  0
    9.3128    4.5571   -9.1689 C   0  0  0  0  0  0  0  0  0  0  0  0
   10.9557    7.6369   -6.5929 C   0  0  0  0  0  0  0  0  0  0  0  0
    9.6490    2.8108  -13.7776 C   0  0  0  0  0  0  0  0  0  0  0  0
   10.2419    1.7839  -14.4904 O   0  0  0  0  0  0  0  0  0  0  0  0
    9.8235    6.3429   -8.0308 C   0  0  2  0  0  0  0  0  0  0  0  0
    8.5421    2.5419  -13.1600 C   0  0  0  0  0  0  0  0  0  0  0  0
   10.0139    6.8647   -6.7816 C   0  0  0  0  0  0  0  0  0  0  0  0
   11.3672    8.3499   -5.0541 S   0  0  0  0  0  0  0  0  0  0  0  0
   11.5679    9.7418   -5.1315 O   0  0  0  0  0  0  0  0  0  0  0  0
    9.0389    5.3019   -8.0369 C   0  0  0  0  0  0  0  0  0  0  0  0
   10.1830    8.1385   -4.1365 O   0  0  0  0  0  0  0  0  0  0  0  0
   12.6081    7.5847   -4.4084 N   0  0  0  0  0  0  0  0  0  0  0  0
   12.1894    6.2587   -3.9183 C   0  0  0  0  0  0  0  0  0  0  0  0
   13.2269    8.4387   -3.4289 C   0  0  0  0  0  0  0  0  0  0  0  0
  1  2  1  0  0  0  0
  2  3  1  0  0  0  0
  2  7  2  0  0  0  0
  4  3  1  6  0  0  0
  4  5  1  0  0  0  0
  4  6  1  0  0  0  0
  4  8  1  0  0  0  0
  5  9  2  0  0  0  0
  6 13  1  0  0  0  0
  7 12  1  0  0  0  0
  8 11  1  0  0  0  0
  8 19  2  0  0  0  0
 10  7  1  1  0  0  0
 10 14  1  0  0  0  0
 10 17  1  0  0  0  0
 11 20  1  0  0  0  0
 11 24  1  1  0  0  0
 12 18  1  0  0  0  0
 13 16  2  0  0  0  0
 13 21  1  0  0  0  0
 14  5  1  1  0  0  0
 14 15  1  0  0  0  0
 14 20  1  0  0  0  0
 15 26  1  0  0  0  0
 17 18  1  1  0  0  0
 17 23  1  0  0  0  0
 19 21  1  0  0  0  0
 19 28  1  0  0  0  0
 20 23  1  0  0  0  0
 21 22  2  0  0  0  0
 22 25  1  0  0  0  0
 23 29  1  0  0  0  0
 24 33  1  0  0  0  0
 25 30  2  0  0  0  0
 25 31  1  0  0  0  0
 26 27  2  0  0  0  0
 26 29  1  0  0  0  0
 28 30  1  0  0  0  0
 28 33  1  0  0  0  0
 31 32  2  0  0  0  0
 31 34  2  0  0  0  0
 31 35  1  0  0  0  0
 35 36  1  0  0  0  0
 35 37  1  0  0  0  0
M  END
$$$$

 OpenBabel10082411353D

 37 41  0  0  0  0  0  0  0  0999 V2000
   11.6836    6.0105   -4.8831 F   0  0  0  0  0  0  0  0  0  0  0  0
   11.2562    7.2206   -5.0294 C   0  0  0  0  0  0  0  0  0  0  0  0
   12.0125    8.2418   -4.4408 C   0  0  0  0  0  0  0  0  0  0  0  0
   11.1918    7.2706   -6.5237 C   0  0  2  0  0  0  0  0  0  0  0  0
   11.6999    8.4488   -3.1704 F   0  0  0  0  0  0  0  0  0  0  0  0
    9.8648    7.0908   -4.5314 F   0  0  0  0  0  0  0  0  0  0  0  0
   11.6831    8.5291   -6.9682 C   0  0  1  0  0  0  0  0  0  0  0  0
   13.3042    8.0958   -4.5769 F   0  0  0  0  0  0  0  0  0  0  0  0
   10.0051    6.7877   -7.1387 C   0  0  2  0  0  0  0  0  0  0  0  0
   12.1549    9.4036   -6.0698 C   0  0  0  0  0  0  0  0  0  0  0  0
   11.7460    9.5074   -4.8672 O   0  0  0  0  0  0  0  0  0  0  0  0
   12.5684    8.5172   -7.8652 C   0  0  0  0  0  0  0  0  0  0  0  0
   10.4250    8.9412   -7.4869 C   0  0  0  0  0  0  0  0  0  0  0  0
    9.8902    5.4070   -7.8206 C   0  0  0  0  0  0  0  0  0  0  0  0
    8.7348    4.6919   -7.6168 C   0  0  0  0  0  0  0  0  0  0  0  0
    9.5887    7.8633   -8.0188 C   0  0  1  0  0  0  0  0  0  0  0  0
   10.0149    7.4671   -9.3945 C   0  0  0  0  0  0  0  0  0  0  0  0
    8.7013    3.5197   -8.2148 C   0  0  0  0  0  0  0  0  0  0  0  0
    9.3794    3.4628   -9.4166 C   0  0  0  0  0  0  0  0  0  0  0  0
    9.7670    8.0902  -10.5147 C   0  0  0  0  0  0  0  0  0  0  0  0
   10.1630    7.7248  -11.8028 C   0  0  0  0  0  0  0  0  0  0  0  0
   10.1363    4.5235   -9.8811 C   0  0  0  0  0  0  0  0  0  0  0  0
   10.2621    5.6959   -9.0592 C   0  0  0  0  0  0  0  0  0  0  0  0
    9.2744    7.6307  -12.8098 C   0  0  0  0  0  0  0  0  0  0  0  0
    8.0505    6.9805  -12.3760 C   0  0  2  0  0  0  0  0  0  0  0  0
    7.9585    5.5926  -12.8852 C   0  0  0  0  0  0  0  0  0  0  0  0
    8.8884    5.0272  -13.6486 C   0  0  0  0  0  0  0  0  0  0  0  0
   11.4450    7.1885  -12.0014 C   0  0  0  0  0  0  0  0  0  0  0  0
    6.8004    4.7948  -12.5649 C   0  0  0  0  0  0  0  0  0  0  0  0
    8.6362    3.5881  -13.8181 C   0  0  1  0  0  0  0  0  0  0  0  0
    7.1008    3.4354  -13.1127 C   0  0  0  0  0  0  0  0  0  0  0  0
    6.8698    7.8461  -12.6505 C   0  0  0  0  0  0  0  0  0  0  0  0
    8.8103    2.9319  -14.9741 C   0  0  0  0  0  0  0  0  0  0  0  0
   12.5935    7.5217  -11.1759 C   0  0  0  0  0  0  0  0  0  0  0  0
   11.7572    6.3570  -13.1563 C   0  0  0  0  0  0  0  0  0  0  0  0
    9.3126    1.7281  -14.9178 O   0  0  0  0  0  0  0  0  0  0  0  0
    8.1443    3.1301  -15.9612 O   0  0  0  0  0  0  0  0  0  0  0  0
  1  2  1  0  0  0  0
  2  3  1  0  0  0  0
  2  6  1  0  0  0  0
  3  5  1  0  0  0  0
  3  8  1  0  0  0  0
  3 11  1  0  0  0  0
  4  2  1  1  0  0  0
  4  7  1  0  0  0  0
  4  9  1  0  0  0  0
  7 10  1  0  0  0  0
  7 12  1  6  0  0  0
  7 13  1  0  0  0  0
  9 14  1  6  0  0  0
  9 16  1  0  0  0  0
 10 11  1  0  0  0  0
 14 15  1  0  0  0  0
 14 23  2  0  0  0  0
 15 18  2  0  0  0  0
 16 13  1  1  0  0  0
 16 17  1  0  0  0  0
 17 20  2  3  0  0  0
 17 23  1  0  0  0  0
 18 19  1  0  0  0  0
 19 22  2  0  0  0  0
 20 21  1  0  0  0  0
 21 24  1  0  0  0  0
 21 28  2  0  0  0  0
 22 23  1  0  0  0  0
 24 25  1  0  0  0  0
 25 26  1  0  0  0  0
 25 32  1  6  0  0  0
 26 27  2  0  0  0  0
 26 29  1  0  0  0  0
 27 30  1  0  0  0  0
 28 34  1  0  0  0  0
 28 35  1  0  0  0  0
 29 31  1  0  0  0  0
 30 31  1  0  0  0  0
 30 33  1  6  0  0  0
 33 36  1  0  0  0  0
 33 37  2  0  0  0  0
M  END
$$$$

 OpenBabel10082411353D

 37 41  0  0  0  0  0  0  0  0999 V2000
   11.6836    6.0105   -4.8831 F   0  0  0  0  0  0  0  0  0  0  0  0
   11.2562    7.2206   -5.0294 C   0  0  0  0  0  0  0  0  0  0  0  0
   12.0125    8.2418   -4.4408 C   0  0  0  0  0  0  0  0  0  0  0  0
   11.1918    7.2706   -6.5237 C   0  0  0  0  0  0  0  0  0  0  0  0
   11.6999    8.4488   -3.1704 F   0  0  0  0  0  0  0  0  0  0  0  0
    9.8648    7.0908   -4.5314 F   0  0  0  0  0  0  0  0  0  0  0  0
   11.6831    8.5291   -6.9682 C   0  0  0  0  0  0  0  0  0  0  0  0
   10.4785    6.5189   -7.4033 C   0  0  0  0  0  0  0  0  0  0  0  0
   11.6979    8.6661   -8.4760 C   0  0  0  0  0  0  0  0  0  0  0  0
   11.6248    9.5853   -5.0030 C   0  0  0  0  0  0  0  0  0  0  0  0
   11.8604    9.7907   -6.2903 O   0  0  0  0  0  0  0  0  0  0  0  0
   13.3557    8.1748   -4.5947 F   0  0  0  0  0  0  0  0  0  0  0  0
   10.5427    6.6061   -8.7190 C   0  0  0  0  0  0  0  0  0  0  0  0
   11.1158    7.7103   -9.2540 C   0  0  0  0  0  0  0  0  0  0  0  0
   11.3757    7.6656  -10.5293 N   0  0  0  0  0  0  0  0  0  0  0  0
   10.7153    7.7096  -11.5405 C   0  0  0  0  0  0  0  0  0  0  0  0
   11.2483    7.4711  -12.8542 C   0  0  0  0  0  0  0  0  0  0  0  0
    9.3980    7.7820  -11.5398 C   0  0  0  0  0  0  0  0  0  0  0  0
    8.6055    7.5889  -12.6525 C   0  0  0  0  0  0  0  0  0  0  0  0
   12.7508    7.3705  -13.0162 O   0  0  0  0  0  0  0  0  0  0  0  0
   10.5299    7.1831  -13.9856 C   0  0  0  0  0  0  0  0  0  0  0  0
    7.0533    7.7371  -12.5396 C   0  0  0  0  0  0  0  0  0  0  0  0
   11.2041    6.8490  -15.2304 C   0  0  0  0  0  0  0  0  0  0  0  0
   11.6393    5.5333  -15.3864 C   0  0  0  0  0  0  0  0  0  0  0  0
    9.1955    7.2935  -13.8301 C   0  0  0  0  0  0  0  0  0  0  0  0
   12.5294    5.1116  -16.1609 C   0  0  0  0  0  0  0  0  0  0  0  0
   11.2315    4.4703  -14.3200 C   0  0  0  0  0  0  0  0  0  0  0  0
   13.0194    6.0876  -17.1697 C   0  0  0  0  0  0  0  0  0  0  0  0
   12.9874    3.8316  -16.1456 C   0  0  0  0  0  0  0  0  0  0  0  0
   12.3949    2.9126  -15.4671 C   0  0  0  0  0  0  0  0  0  0  0  0
   10.2274    4.8149  -13.2643 C   0  0  0  0  0  0  0  0  0  0  0  0
    8.9564    4.3798  -13.5553 C   0  0  0  0  0  0  0  0  0  0  0  0
    8.7042    3.2659  -14.2465 C   0  0  0  0  0  0  0  0  0  0  0  0
   11.4034    3.2626  -14.6433 C   0  0  0  0  0  0  0  0  0  0  0  0
    9.5206    2.2873  -14.6434 C   0  0  0  0  0  0  0  0  0  0  0  0
   10.7134    2.1371  -14.5396 C   0  0  0  0  0  0  0  0  0  0  0  0
    6.4661    6.5744  -12.7408 C   0  0  0  0  0  0  0  0  0  0  0  0
  1  2  1  0  0  0  0
  2  3  1  0  0  0  0
  2  4  1  0  0  0  0
  2  6  1  0  0  0  0
  3  5  1  0  0  0  0
  3 10  1  0  0  0  0
  3 12  1  0  0  0  0
  4  7  1  0  0  0  0
  4  8  2  0  0  0  0
  7  9  2  0  0  0  0
  7 11  1  0  0  0  0
  8 13  1  0  0  0  0
  9 14  1  0  0  0  0
 10 11  1  0  0  0  0
 13 14  2  0  0  0  0
 14 15  1  0  0  0  0
 15 16  1  0  0  0  0
 16 17  1  0  0  0  0
 16 18  2  0  0  0  0
 17 20  1  0  0  0  0
 17 21  2  0  0  0  0
 18 19  1  0  0  0  0
 19 22  1  0  0  0  0
 19 25  2  0  0  0  0
 21 23  1  0  0  0  0
 21 25  1  0  0  0  0
 22 37  1  0  0  0  0
 23 24  1  0  0  0  0
 24 26  2  0  0  0  0
 24 27  1  0  0  0  0
 26 28  1  0  0  0  0
 26 29  1  0  0  0  0
 27 31  1  0  0  0  0
 27 34  2  0  0  0  0
 29 30  2  0  0  0  0
 30 34  1  0  0  0  0
 31 32  2  0  0  0  0
 32 33  1  0  0  0  0
 33 35  2  0  0  0  0
 34 36  1  0  0  0  0
 35 36  1  0  0  0  0
M  END
$$$$

 OpenBabel10082411353D

 37 43  0  0  0  0  0  0  0  0999 V2000
   12.7863    7.8241  -14.2109 C   0  0  0  0  0  0  0  0  0  0  0  0
   12.4233    7.7158  -13.0289 C   0  0  0  0  0  0  0  0  0  0  0  0
   11.3194    6.8571  -12.8028 C   0  0  0  0  0  0  0  0  0  0  0  0
   12.3150    7.2021  -15.3582 C   0  0  0  0  0  0  0  0  0  0  0  0
   11.2733    6.2739  -15.1502 C   0  0  0  0  0  0  0  0  0  0  0  0
   10.8099    6.0126  -13.8600 C   0  0  0  0  0  0  0  0  0  0  0  0
    9.6782    5.1428  -13.6488 C   0  0  0  0  0  0  0  0  0  0  0  0
    8.5753    5.3880  -12.9589 N   0  0  0  0  0  0  0  0  0  0  0  0
    8.3226    6.7011  -12.3862 C   0  0  0  0  0  0  0  0  0  0  0  0
    9.8502    3.8578  -14.0728 C   0  0  0  0  0  0  0  0  0  0  0  0
    7.3864    7.4720  -13.0530 C   0  0  0  0  0  0  0  0  0  0  0  0
    6.2412    7.8486  -12.2599 C   0  0  0  0  0  0  0  0  0  0  0  0
    7.6425    4.4186  -12.7943 C   0  0  0  0  0  0  0  0  0  0  0  0
   11.0297    3.2482  -14.8053 C   0  0  0  0  0  0  0  0  0  0  0  0
    8.6802    2.8955  -13.7960 C   0  0  0  0  0  0  0  0  0  0  0  0
    8.8565    1.5917  -14.3582 O   0  0  0  0  0  0  0  0  0  0  0  0
    7.6903    3.2226  -13.1994 N   0  0  0  0  0  0  0  0  0  0  0  0
    6.5724    2.3444  -12.8378 C   0  0  0  0  0  0  0  0  0  0  0  0
    9.0225    7.0353  -11.3259 C   0  0  0  0  0  0  0  0  0  0  0  0
    6.2405    4.8489  -12.4515 C   0  0  0  0  0  0  0  0  0  0  0  0
   10.5875    7.0617  -11.5321 C   0  0  0  0  0  0  0  0  0  0  0  0
   11.0960    7.6093  -10.4100 C   0  0  0  0  0  0  0  0  0  0  0  0
    8.4039    7.3336  -10.1102 C   0  0  0  0  0  0  0  0  0  0  0  0
    5.5911    3.3517  -12.3508 C   0  0  0  0  0  0  0  0  0  0  0  0
   12.6259    7.6530  -10.3901 C   0  0  0  0  0  0  0  0  0  0  0  0
   10.4284    7.7784   -9.2128 C   0  0  0  0  0  0  0  0  0  0  0  0
    9.2236    7.5051   -9.0617 C   0  0  2  0  0  0  0  0  0  0  0  0
    8.7145    7.3063   -7.7135 N   0  0  0  0  0  0  0  0  0  0  0  0
    9.3548    8.2125   -6.8305 C   0  0  0  0  0  0  0  0  0  0  0  0
   13.2400    8.3532   -9.3250 C   0  0  0  0  0  0  0  0  0  0  0  0
    8.8718    5.9168   -7.2228 C   0  0  0  0  0  0  0  0  0  0  0  0
   12.5074    8.3587   -8.0386 C   0  0  0  0  0  0  0  0  0  0  0  0
   11.1924    8.1932   -7.9474 C   0  0  0  0  0  0  0  0  0  0  0  0
   10.5178    8.6952   -6.8252 C   0  0  0  0  0  0  0  0  0  0  0  0
   11.2414    9.5732   -5.7893 C   0  0  0  0  0  0  0  0  0  0  0  0
   12.4652    9.1984   -5.1969 C   0  0  0  0  0  0  0  0  0  0  0  0
   10.2917   10.0249   -4.7793 C   0  0  0  0  0  0  0  0  0  0  0  0
  1  2  2  0  0  0  0
  1  4  1  0  0  0  0
  2  3  1  0  0  0  0
  3  6  2  0  0  0  0
  3 21  1  0  0  0  0
  4  5  2  0  0  0  0
  5  6  1  0  0  0  0
  6  7  1  0  0  0  0
  7  8  1  0  0  0  0
  7 10  2  0  0  0  0
  8  9  1  0  0  0  0
  8 13  1  0  0  0  0
  9 11  1  0  0  0  0
  9 19  2  0  0  0  0
 10 14  1  0  0  0  0
 10 15  1  0  0  0  0
 11 12  1  0  0  0  0
 13 17  1  0  0  0  0
 13 20  2  0  0  0  0
 15 16  2  0  0  0  0
 15 17  1  0  0  0  0
 17 18  1  0  0  0  0
 18 24  1  0  0  0  0
 19 21  1  0  0  0  0
 19 23  1  0  0  0  0
 20 24  1  0  0  0  0
 21 22  2  0  0  0  0
 22 25  1  0  0  0  0
 22 26  1  0  0  0  0
 25 30  1  0  0  0  0
 26 27  1  0  0  0  0
 26 33  2  0  0  0  0
 27 23  1  6  0  0  0
 27 28  1  0  0  0  0
 28 29  1  0  0  0  0
 28 31  1  0  0  0  0
 29 34  2  0  0  0  0
 30 32  1  0  0  0  0
 32 33  1  0  0  0  0
 33 34  1  0  0  0  0
 34 35  1  0  0  0  0
 35 36  1  0  0  0  0
 35 37  1  0  0  0  0
M  END
$$$$

 OpenBabel10082411353D

 38 43  0  0  0  0  0  0  0  0999 V2000
   11.6836    6.0105   -4.8831 C   0  0  0  0  0  0  0  0  0  0  0  0
   11.1291    7.0732   -5.4395 C   0  0  0  0  0  0  0  0  0  0  0  0
   10.6954    7.0156   -6.8073 C   0  0  0  0  0  0  0  0  0  0  0  0
   10.2502    8.1187   -7.5536 C   0  0  2  0  0  0  0  0  0  0  0  0
   11.1205    8.4712   -4.9629 C   0  0  0  0  0  0  0  0  0  0  0  0
   10.8655    8.3511   -8.7960 C   0  0  0  0  0  0  0  0  0  0  0  0
   10.2922    7.8843   -9.9985 C   0  0  0  0  0  0  0  0  0  0  0  0
   10.4654    9.6993   -5.6120 C   0  0  0  0  0  0  0  0  0  0  0  0
   10.3510    9.5971   -7.0014 C   0  0  0  0  0  0  0  0  0  0  0  0
   12.2462    6.3351   -3.5020 C   0  0  0  0  0  0  0  0  0  0  0  0
   11.0471    7.5309  -11.1063 C   0  0  0  0  0  0  0  0  0  0  0  0
   11.7288    8.6923   -3.6518 C   0  0  0  0  0  0  0  0  0  0  0  0
   12.3991    7.7501  -11.1145 C   0  0  0  0  0  0  0  0  0  0  0  0
   12.3738    7.7580   -2.9599 C   0  0  0  0  0  0  0  0  0  0  0  0
   13.1285    8.5075  -10.1661 O   0  0  0  0  0  0  0  0  0  0  0  0
    9.0407    7.3775  -10.0973 N   0  0  0  0  0  0  0  0  0  0  0  0
    8.9787    6.9473  -11.4664 N   0  0  0  0  0  0  0  0  0  0  0  0
   13.1012    7.4459  -12.3707 C   0  0  0  0  0  0  0  0  0  0  0  0
   12.2395    6.9724  -13.2444 C   0  0  0  0  0  0  0  0  0  0  0  0
   10.2768    7.0170  -11.9799 C   0  0  0  0  0  0  0  0  0  0  0  0
   12.9237    6.5822  -14.5759 O   0  0  0  0  0  0  0  0  0  0  0  0
   10.8906    6.6526  -13.2252 C   0  0  0  0  0  0  0  0  0  0  0  0
   12.2396    6.1290  -15.6916 C   0  0  0  0  0  0  0  0  0  0  0  0
    7.7368    6.4514  -12.0707 C   0  0  0  0  0  0  0  0  0  0  0  0
    7.1353    7.2872  -12.8105 C   0  0  0  0  0  0  0  0  0  0  0  0
    7.6622    5.0135  -12.1225 C   0  0  0  0  0  0  0  0  0  0  0  0
   12.5092    4.6950  -15.8147 C   0  0  0  0  0  0  0  0  0  0  0  0
    5.9403    6.5840  -13.2897 C   0  0  0  0  0  0  0  0  0  0  0  0
   11.2738    3.8422  -15.5220 N   0  0  0  0  0  0  0  0  0  0  0  0
    8.7139    4.1736  -11.4601 C   0  0  0  0  0  0  0  0  0  0  0  0
    5.7546    5.3014  -13.2955 C   0  0  0  0  0  0  0  0  0  0  0  0
   10.5665    3.9988  -14.5162 C   0  0  0  0  0  0  0  0  0  0  0  0
    6.6518    4.4534  -12.6459 C   0  0  0  0  0  0  0  0  0  0  0  0
   11.1930    2.6728  -16.3047 C   0  0  0  0  0  0  0  0  0  0  0  0
    9.3666    3.2067  -14.4637 C   0  0  0  0  0  0  0  0  0  0  0  0
   10.1774    1.9143  -16.2256 C   0  0  0  0  0  0  0  0  0  0  0  0
    9.2122    2.2167  -15.1007 C   0  0  0  0  0  0  0  0  0  0  0  0
    8.1614    1.3413  -14.9970 O   0  0  0  0  0  0  0  0  0  0  0  0
  1  2  1  0  0  0  0
  1 10  2  0  0  0  0
  2  3  1  0  0  0  0
  2  5  2  0  0  0  0
  3  4  1  0  0  0  0
  4  6  1  6  0  0  0
  4  9  1  0  0  0  0
  5  8  1  0  0  0  0
  5 12  1  0  0  0  0
  6  7  1  0  0  0  0
  7 11  1  0  0  0  0
  7 16  2  0  0  0  0
  8  9  1  0  0  0  0
 10 14  1  0  0  0  0
 11 13  2  0  0  0  0
 11 20  1  0  0  0  0
 12 14  2  0  0  0  0
 13 15  1  0  0  0  0
 13 18  1  0  0  0  0
 16 17  1  0  0  0  0
 17 20  1  0  0  0  0
 17 24  1  0  0  0  0
 18 19  2  0  0  0  0
 19 21  1  0  0  0  0
 19 22  1  0  0  0  0
 20 22  2  0  0  0  0
 21 23  1  0  0  0  0
 23 27  1  0  0  0  0
 24 25  2  0  0  0  0
 24 26  1  0  0  0  0
 25 28  1  0  0  0  0
 26 30  1  0  0  0  0
 26 33  2  0  0  0  0
 27 29  1  0  0  0  0
 28 31  2  0  0  0  0
 29 32  1  0  0  0  0
 29 34  1  0  0  0  0
 31 33  1  0  0  0  0
 32 35  2  0  0  0  0
 34 36  2  0  0  0  0
 35 37  1  0  0  0  0
 36 37  1  0  0  0  0
 37 38  2  0  0  0  0
M  END
$$$$

 OpenBabel10082411353D

 38 46  0  0  0  0  0  0  0  0999 V2000
    8.0806    9.0240  -12.7589 C   0  0  0  0  0  0  0  0  0  0  0  0
    8.6514    7.8645  -12.2948 C   0  0  0  0  0  0  0  0  0  0  0  0
    9.9575    7.9974  -11.8426 C   0  0  0  0  0  0  0  0  0  0  0  0
   10.7657    6.8667  -11.6050 C   0  0  1  0  0  0  0  0  0  0  0  0
   10.7682    5.9590  -12.8271 C   0  0  0  0  0  0  0  0  0  0  0  0
   12.1553    7.3846  -11.2315 C   0  0  0  0  0  0  0  0  0  0  0  0
    8.0676    6.6451  -12.2974 C   0  0  0  0  0  0  0  0  0  0  0  0
   10.1892    6.1240  -10.3860 C   0  0  0  0  0  0  0  0  0  0  0  0
   11.8375    5.4373  -13.3240 O   0  0  0  0  0  0  0  0  0  0  0  0
    8.6785    5.4761  -13.0273 C   0  0  1  0  0  0  0  0  0  0  0  0
    9.1969    5.2405  -10.4969 C   0  0  1  0  0  0  0  0  0  0  0  0
    7.2213    6.2210  -11.3074 C   0  0  0  0  0  0  0  0  0  0  0  0
   12.5590    7.6872   -9.9896 C   0  0  0  0  0  0  0  0  0  0  0  0
    9.7633    5.0333  -12.9720 C   0  0  1  0  0  0  0  0  0  0  0  0
   10.0661    4.0167  -14.0373 N   0  0  0  0  0  0  0  0  0  0  0  0
   13.6906    8.3004   -9.6233 O   0  0  0  0  0  0  0  0  0  0  0  0
    7.6357    4.5123  -12.6317 C   0  0  2  0  0  0  0  0  0  0  0  0
    6.8831    4.9171  -11.7031 C   0  0  0  0  0  0  0  0  0  0  0  0
   10.5937    6.6967   -9.1779 C   0  0  0  0  0  0  0  0  0  0  0  0
    9.5087    4.3263  -11.6925 C   0  0  2  0  0  0  0  0  0  0  0  0
   11.6359    7.4449   -8.9125 C   0  0  0  0  0  0  0  0  0  0  0  0
   11.9716    7.9159   -7.6200 C   0  0  0  0  0  0  0  0  0  0  0  0
    8.4648    3.6122  -12.2840 C   0  0  2  0  0  0  0  0  0  0  0  0
    9.3128    4.5571   -9.1689 C   0  0  0  0  0  0  0  0  0  0  0  0
   10.9557    7.6369   -6.5929 C   0  0  1  0  0  0  0  0  0  0  0  0
    9.6490    2.8108  -13.7776 C   0  0  1  0  0  0  0  0  0  0  0  0
    9.6716    6.1981   -8.0224 C   0  0  2  0  0  0  0  0  0  0  0  0
    8.5511    2.5400  -13.1402 C   0  0  0  0  0  0  0  0  0  0  0  0
    9.7877    2.0302  -15.0383 O   0  0  0  0  0  0  0  0  0  0  0  0
   10.2949    6.3957   -6.8142 C   0  0  0  0  0  0  0  0  0  0  0  0
    9.0872    5.0431   -8.0754 C   0  0  0  0  0  0  0  0  0  0  0  0
   11.6109    7.7802   -5.1646 C   0  0  0  0  0  0  0  0  0  0  0  0
   11.6041    6.8019   -4.4350 C   0  0  0  0  0  0  0  0  0  0  0  0
   12.0846    9.0802   -4.7745 C   0  0  0  0  0  0  0  0  0  0  0  0
   12.2514    6.9163   -3.1192 C   0  0  0  0  0  0  0  0  0  0  0  0
   12.0300   10.3143   -5.8158 C   0  0  0  0  0  0  0  0  0  0  0  0
   12.7388    8.3616   -2.7385 C   0  0  0  0  0  0  0  0  0  0  0  0
   12.5864    9.3642   -3.5396 C   0  0  0  0  0  0  0  0  0  0  0  0
  1  2  1  0  0  0  0
  2  3  1  0  0  0  0
  2  7  2  0  0  0  0
  4  3  1  6  0  0  0
  4  5  1  0  0  0  0
  4  6  1  0  0  0  0
  4  8  1  0  0  0  0
  5  9  2  0  0  0  0
  6 13  1  0  0  0  0
  7 12  1  0  0  0  0
  8 11  1  0  0  0  0
  8 19  2  0  0  0  0
 10  7  1  1  0  0  0
 10 14  1  0  0  0  0
 10 17  1  0  0  0  0
 11 20  1  0  0  0  0
 11 24  1  1  0  0  0
 12 18  1  0  0  0  0
 13 16  2  0  0  0  0
 13 21  1  0  0  0  0
 14  5  1  1  0  0  0
 14 15  1  0  0  0  0
 14 20  1  0  0  0  0
 15 26  1  0  0  0  0
 17 18  1  1  0  0  0
 17 23  1  0  0  0  0
 19 21  1  0  0  0  0
 19 27  1  0  0  0  0
 20 23  1  0  0  0  0
 21 22  2  0  0  0  0
 22 25  1  0  0  0  0
 23 28  1  0  0  0  0
 24 31  1  0  0  0  0
 25 30  1  0  0  0  0
 25 32  1  0  0  0  0
 26 28  1  0  0  0  0
 26 29  1  0  0  0  0
 27 30  1  0  0  0  0
 27 31  1  0  0  0  0
 32 33  1  0  0  0  0
 32 34  2  0  0  0  0
 33 35  2  0  0  0  0
 34 36  1  0  0  0  0
 34 38  1  0  0  0  0
 35 37  1  0  0  0  0
 37 38  2  0  0  0  0
M  END
$$$$

 OpenBabel10082411353D

 25 29  0  0  0  0  0  0  0  0999 V2000
   13.2485    9.2493   -6.3668 O   0  0  0  0  0  0  0  0  0  0  0  0
   12.3055    9.1779   -7.4488 C   0  0  0  0  0  0  0  0  0  0  0  0
   11.3830    8.1797   -7.0652 C   0  0  1  0  0  0  0  0  0  0  0  0
   10.7709    8.3176   -5.8621 O   0  0  0  0  0  0  0  0  0  0  0  0
   10.3061    7.2510   -5.2285 C   0  0  0  0  0  0  0  0  0  0  0  0
   10.3303    8.0826   -8.1962 C   0  0  2  0  0  0  0  0  0  0  0  0
   11.3674    6.2215   -5.4116 C   0  0  1  0  0  0  0  0  0  0  0  0
   12.0647    6.7899   -6.6886 C   0  0  0  0  0  0  0  0  0  0  0  0
   10.0567    6.8694   -8.7194 C   0  0  0  0  0  0  0  0  0  0  0  0
   10.7404    8.9785   -9.4036 C   0  0  0  0  0  0  0  0  0  0  0  0
   12.4250    6.3587   -4.4276 C   0  0  0  0  0  0  0  0  0  0  0  0
    9.1150    6.8205   -9.7964 N   0  0  2  0  0  0  0  0  0  0  0  0
    8.7137    5.4459  -10.1877 C   0  0  0  0  0  0  0  0  0  0  0  0
    9.7064    7.3810  -11.0641 C   0  0  2  0  0  0  0  0  0  0  0  0
   11.7591    8.3271  -10.0852 O   0  0  0  0  0  0  0  0  0  0  0  0
    8.5180    5.0826  -11.5531 C   0  0  0  0  0  0  0  0  0  0  0  0
    9.2201    6.2776  -12.2157 C   0  0  2  0  0  0  0  0  0  0  0  0
   10.3754    5.9141  -13.0815 C   0  0  0  0  0  0  0  0  0  0  0  0
   11.4435    6.8194  -13.1224 C   0  0  0  0  0  0  0  0  0  0  0  0
   12.3972    6.5093  -14.1513 C   0  0  0  0  0  0  0  0  0  0  0  0
   11.1722    7.5726  -10.9950 C   0  0  2  0  0  0  0  0  0  0  0  0
   11.9478    7.3813  -12.0790 C   0  0  0  0  0  0  0  0  0  0  0  0
   11.9783    5.5970  -15.2716 C   0  0  0  0  0  0  0  0  0  0  0  0
   10.7165    5.0002  -15.2226 C   0  0  0  0  0  0  0  0  0  0  0  0
    9.8938    5.1994  -14.0947 C   0  0  0  0  0  0  0  0  0  0  0  0
  1  2  1  0  0  0  0
  3  2  1  6  0  0  0
  3  4  1  0  0  0  0
  3  6  1  0  0  0  0
  3  8  1  0  0  0  0
  4  5  1  0  0  0  0
  5  7  1  0  0  0  0
  6  9  1  6  0  0  0
  6 10  1  0  0  0  0
  7  8  1  0  0  0  0
  7 11  1  1  0  0  0
 10 15  1  0  0  0  0
 12  9  1  1  0  0  0
 12 13  1  0  0  0  0
 12 14  1  0  0  0  0
 13 16  1  0  0  0  0
 14 17  1  0  0  0  0
 14 21  1  0  0  0  0
 15 21  1  0  0  0  0
 16 17  1  0  0  0  0
 17 18  1  0  0  0  0
 18 19  1  0  0  0  0
 18 25  2  0  0  0  0
 19 20  2  0  0  0  0
 19 22  1  0  0  0  0
 20 23  1  0  0  0  0
 21 22  1  0  0  0  0
 23 24  2  0  0  0  0
 24 25  1  0  0  0  0
M  END
$$$$

 OpenBabel10082411353D

 38 42  0  0  0  0  0  0  0  0999 V2000
   11.6836    6.0105   -4.8831 F   0  0  0  0  0  0  0  0  0  0  0  0
   11.2562    7.2206   -5.0294 C   0  0  0  0  0  0  0  0  0  0  0  0
   12.0125    8.2418   -4.4408 C   0  0  0  0  0  0  0  0  0  0  0  0
   11.1918    7.2706   -6.5237 C   0  0  0  0  0  0  0  0  0  0  0  0
   11.6999    8.4488   -3.1704 F   0  0  0  0  0  0  0  0  0  0  0  0
    9.8648    7.0908   -4.5314 F   0  0  0  0  0  0  0  0  0  0  0  0
   11.6831    8.5291   -6.9682 C   0  0  0  0  0  0  0  0  0  0  0  0
   10.4785    6.5189   -7.4033 C   0  0  0  0  0  0  0  0  0  0  0  0
   11.6979    8.6661   -8.4760 C   0  0  0  0  0  0  0  0  0  0  0  0
   11.6248    9.5853   -5.0030 C   0  0  0  0  0  0  0  0  0  0  0  0
   11.8604    9.7907   -6.2903 O   0  0  0  0  0  0  0  0  0  0  0  0
   13.3557    8.1748   -4.5947 F   0  0  0  0  0  0  0  0  0  0  0  0
   10.5427    6.6061   -8.7190 C   0  0  0  0  0  0  0  0  0  0  0  0
   11.1158    7.7103   -9.2540 C   0  0  0  0  0  0  0  0  0  0  0  0
   11.3757    7.6656  -10.5293 N   0  0  0  0  0  0  0  0  0  0  0  0
   10.7153    7.7096  -11.5405 C   0  0  0  0  0  0  0  0  0  0  0  0
   11.2483    7.4711  -12.8542 C   0  0  0  0  0  0  0  0  0  0  0  0
    9.3980    7.7820  -11.5398 C   0  0  0  0  0  0  0  0  0  0  0  0
    8.6055    7.5889  -12.6525 C   0  0  0  0  0  0  0  0  0  0  0  0
   12.7508    7.3705  -13.0162 O   0  0  0  0  0  0  0  0  0  0  0  0
   10.5299    7.1831  -13.9856 C   0  0  0  0  0  0  0  0  0  0  0  0
    7.0533    7.7371  -12.5396 C   0  0  0  0  0  0  0  0  0  0  0  0
   11.2041    6.8490  -15.2304 C   0  0  0  0  0  0  0  0  0  0  0  0
   11.6393    5.5333  -15.3864 C   0  0  0  0  0  0  0  0  0  0  0  0
    9.1955    7.2935  -13.8301 C   0  0  0  0  0  0  0  0  0  0  0  0
   12.5294    5.1116  -16.1609 C   0  0  0  0  0  0  0  0  0  0  0  0
   11.2315    4.4703  -14.3200 C   0  0  0  0  0  0  0  0  0  0  0  0
   10.2844    4.5821  -13.3000 C   0  0  0  0  0  0  0  0  0  0  0  0
   11.6270    3.1866  -14.6052 C   0  0  0  0  0  0  0  0  0  0  0  0
    9.0868    3.8289  -13.3080 C   0  0  0  0  0  0  0  0  0  0  0  0
    8.1007    4.0948  -12.4103 C   0  0  0  0  0  0  0  0  0  0  0  0
    6.8410    3.6347  -12.6829 C   0  0  0  0  0  0  0  0  0  0  0  0
   12.9624    6.1826  -17.2150 C   0  0  0  0  0  0  0  0  0  0  0  0
   11.1536    2.1160  -13.7692 F   0  0  0  0  0  0  0  0  0  0  0  0
    6.7914    2.6851  -13.7841 C   0  0  0  0  0  0  0  0  0  0  0  0
    8.5634    2.8613  -14.3599 S   0  0  0  0  0  0  0  0  0  0  0  0
   12.2907    2.9416  -15.4917 C   0  0  0  0  0  0  0  0  0  0  0  0
   12.8256    3.8385  -16.3847 C   0  0  0  0  0  0  0  0  0  0  0  0
  1  2  1  0  0  0  0
  2  3  1  0  0  0  0
  2  4  1  0  0  0  0
  2  6  1  0  0  0  0
  3  5  1  0  0  0  0
  3 10  1  0  0  0  0
  3 12  1  0  0  0  0
  4  7  1  0  0  0  0
  4  8  2  0  0  0  0
  7  9  2  0  0  0  0
  7 11  1  0  0  0  0
  8 13  1  0  0  0  0
  9 14  1  0  0  0  0
 10 11  1  0  0  0  0
 13 14  2  0  0  0  0
 14 15  1  0  0  0  0
 15 16  1  0  0  0  0
 16 17  1  0  0  0  0
 16 18  2  0  0  0  0
 17 20  1  0  0  0  0
 17 21  2  0  0  0  0
 18 19  1  0  0  0  0
 19 22  1  0  0  0  0
 19 25  2  0  0  0  0
 21 23  1  0  0  0  0
 21 25  1  0  0  0  0
 23 24  1  0  0  0  0
 24 26  2  0  0  0  0
 24 27  1  0  0  0  0
 26 33  1  0  0  0  0
 26 38  1  0  0  0  0
 27 28  1  0  0  0  0
 27 29  2  0  0  0  0
 28 30  2  3  0  0  0
 29 34  1  0  0  0  0
 29 37  1  0  0  0  0
 30 31  1  0  0  0  0
 30 36  1  0  0  0  0
 31 32  2  0  0  0  0
 32 35  1  0  0  0  0
 35 36  2  0  0  0  0
 37 38  2  0  0  0  0
M  END
$$$$

 OpenBabel10082411353D

 38 41  0  0  0  0  0  0  0  0999 V2000
   10.9951    9.9694   -4.9946 C   0  0  0  0  0  0  0  0  0  0  0  0
   11.7938    9.3762   -4.2463 C   0  0  0  0  0  0  0  0  0  0  0  0
   10.8673    9.4548   -6.4276 C   0  0  0  0  0  0  0  0  0  0  0  0
   11.6576    7.9117   -4.2944 C   0  0  0  0  0  0  0  0  0  0  0  0
   10.5498    8.0257   -6.4521 C   0  0  0  0  0  0  0  0  0  0  0  0
   11.4715    7.2752   -5.6166 C   0  0  0  0  0  0  0  0  0  0  0  0
   10.5840    7.5390   -7.9254 C   0  0  0  0  0  0  0  0  0  0  0  0
   11.4612    8.1494   -8.8322 C   0  0  0  0  0  0  0  0  0  0  0  0
   12.6250    8.6294   -8.4338 O   0  0  0  0  0  0  0  0  0  0  0  0
   11.0835    8.4395  -10.0740 O   0  0  0  0  0  0  0  0  0  0  0  0
   11.2938    7.5612  -11.0769 C   0  0  0  0  0  0  0  0  0  0  0  0
   10.1547    7.2525  -11.9492 C   0  0  0  0  0  0  0  0  0  0  0  0
   10.4293    6.5622  -13.1348 C   0  0  0  0  0  0  0  0  0  0  0  0
   11.7295    6.4217  -13.6243 C   0  0  0  0  0  0  0  0  0  0  0  0
    8.8120    7.3918  -11.4649 C   0  0  0  0  0  0  0  0  0  0  0  0
   12.5351    7.8894  -11.6869 C   0  0  0  0  0  0  0  0  0  0  0  0
   13.5778    8.4243  -10.9673 O   0  0  0  0  0  0  0  0  0  0  0  0
    7.7211    7.1761  -12.4323 C   0  0  0  0  0  0  0  0  0  0  0  0
   12.8103    7.0723  -12.8897 C   0  0  0  0  0  0  0  0  0  0  0  0
    7.0543    5.9667  -12.3369 C   0  0  0  0  0  0  0  0  0  0  0  0
    7.2392    8.1844  -13.1320 C   0  0  0  0  0  0  0  0  0  0  0  0
    6.6882    5.3848  -13.5016 O   0  0  0  0  0  0  0  0  0  0  0  0
    6.5103    5.5543  -11.3870 O   0  0  0  0  0  0  0  0  0  0  0  0
    7.4031    4.0506  -13.7852 C   0  0  0  0  0  0  0  0  0  0  0  0
    8.6811    3.9966  -14.1333 C   0  0  0  0  0  0  0  0  0  0  0  0
   12.0732    5.6649  -14.9357 C   0  0  0  0  0  0  0  0  0  0  0  0
    6.5842    3.0104  -13.4449 C   0  0  0  0  0  0  0  0  0  0  0  0
   12.1810    6.3505  -15.9550 C   0  0  0  0  0  0  0  0  0  0  0  0
   12.4265    5.3943  -17.1098 C   0  0  0  0  0  0  0  0  0  0  0  0
   11.9184    4.2576  -14.8844 C   0  0  0  0  0  0  0  0  0  0  0  0
   12.0158    3.4782  -15.9106 C   0  0  0  0  0  0  0  0  0  0  0  0
    5.1672    3.1967  -12.9871 C   0  0  0  0  0  0  0  0  0  0  0  0
    7.1727    1.7696  -13.6406 C   0  0  0  0  0  0  0  0  0  0  0  0
   11.9456    2.0651  -15.8693 F   0  0  0  0  0  0  0  0  0  0  0  0
    6.3091    0.6113  -13.2804 C   0  0  0  0  0  0  0  0  0  0  0  0
   12.3220    4.1641  -17.0834 C   0  0  0  0  0  0  0  0  0  0  0  0
    8.4480    1.6437  -14.0126 C   0  0  0  0  0  0  0  0  0  0  0  0
    9.1932    2.7617  -14.2644 C   0  0  0  0  0  0  0  0  0  0  0  0
  1  2  1  0  0  0  0
  1  3  1  0  0  0  0
  2  4  1  0  0  0  0
  3  5  1  0  0  0  0
  4  6  1  0  0  0  0
  5  6  1  0  0  0  0
  5  7  1  0  0  0  0
  7  8  1  0  0  0  0
  8  9  2  0  0  0  0
  8 10  1  0  0  0  0
 10 11  1  0  0  0  0
 11 12  1  0  0  0  0
 11 16  2  0  0  0  0
 12 13  2  0  0  0  0
 12 15  1  0  0  0  0
 13 14  1  0  0  0  0
 14 19  2  0  0  0  0
 14 26  1  0  0  0  0
 15 18  1  0  0  0  0
 16 17  1  0  0  0  0
 16 19  1  0  0  0  0
 18 20  1  0  0  0  0
 18 21  2  0  0  0  0
 20 22  1  0  0  0  0
 20 23  2  0  0  0  0
 22 24  1  0  0  0  0
 24 25  1  0  0  0  0
 24 27  2  0  0  0  0
 25 38  2  0  0  0  0
 26 28  2  0  0  0  0
 26 30  1  0  0  0  0
 27 32  1  0  0  0  0
 27 33  1  0  0  0  0
 28 29  1  0  0  0  0
 29 36  2  0  0  0  0
 30 31  2  0  0  0  0
 31 34  1  0  0  0  0
 31 36  1  0  0  0  0
 33 35  1  0  0  0  0
 33 37  2  0  0  0  0
 37 38  1  0  0  0  0
M  END
$$$$

 OpenBabel10082411353D

 38 43  0  0  0  0  0  0  0  0999 V2000
   11.6849    3.3051  -14.7886 C   0  0  0  0  0  0  0  0  0  0  0  0
   11.9222    4.4917  -14.7896 C   0  0  0  0  0  0  0  0  0  0  0  0
   10.4105    3.0506  -15.0123 C   0  0  0  0  0  0  0  0  0  0  0  0
   11.4495    5.4335  -14.4813 C   0  0  0  0  0  0  0  0  0  0  0  0
    9.5038    4.0445  -14.6973 C   0  0  0  0  0  0  0  0  0  0  0  0
    8.0744    3.8032  -14.7673 O   0  0  0  0  0  0  0  0  0  0  0  0
    7.4019    4.2664  -13.6471 C   0  0  0  0  0  0  0  0  0  0  0  0
   11.8713    6.8371  -14.3117 C   0  0  0  0  0  0  0  0  0  0  0  0
   12.8441    7.2889  -15.0274 O   0  0  0  0  0  0  0  0  0  0  0  0
    9.9408    5.3883  -14.5322 C   0  0  0  0  0  0  0  0  0  0  0  0
   11.9372    7.2052  -12.9834 O   0  0  0  0  0  0  0  0  0  0  0  0
    7.6871    5.3657  -12.9437 C   0  0  0  0  0  0  0  0  0  0  0  0
    6.6825    5.6376  -11.8704 C   0  0  0  0  0  0  0  0  0  0  0  0
   12.9330    7.4672  -12.1262 C   0  0  0  0  0  0  0  0  0  0  0  0
    5.6490    4.8336  -11.7379 C   0  0  0  0  0  0  0  0  0  0  0  0
    6.2655    3.3248  -13.2380 C   0  0  0  0  0  0  0  0  0  0  0  0
   12.5459    7.5503  -10.6847 C   0  0  0  0  0  0  0  0  0  0  0  0
    5.5326    3.6923  -12.2221 C   0  0  0  0  0  0  0  0  0  0  0  0
   13.2808    8.2749   -9.7966 C   0  0  0  0  0  0  0  0  0  0  0  0
   12.7625    8.4244   -8.5830 C   0  0  0  0  0  0  0  0  0  0  0  0
   11.1393    7.2655  -10.3421 C   0  0  0  0  0  0  0  0  0  0  0  0
   10.7436    7.4242   -9.1139 C   0  0  0  0  0  0  0  0  0  0  0  0
   11.5582    7.9816   -8.1804 C   0  0  0  0  0  0  0  0  0  0  0  0
   11.0885    8.1382   -6.7137 C   0  0  1  0  0  0  0  0  0  0  0  0
    9.8528    8.8294   -6.6452 C   0  0  0  0  0  0  0  0  0  0  0  0
    8.8998    8.0398   -6.0308 C   0  0  0  0  0  0  0  0  0  0  0  0
    9.3715    6.6666   -6.1288 C   0  0  2  0  0  0  0  0  0  0  0  0
   10.7980    6.8271   -6.2455 C   0  0  2  0  0  0  0  0  0  0  0  0
   12.1160    8.8620   -5.8401 C   0  0  0  0  0  0  0  0  0  0  0  0
   12.1789    8.3531   -4.5239 C   0  0  0  0  0  0  0  0  0  0  0  0
    8.5385    6.0926   -7.2579 C   0  0  0  0  0  0  0  0  0  0  0  0
   12.6867    9.0631   -3.4365 C   0  0  0  0  0  0  0  0  0  0  0  0
   11.6589    7.0440   -4.2923 C   0  0  0  0  0  0  0  0  0  0  0  0
   11.8895    6.5152   -2.9668 C   0  0  0  0  0  0  0  0  0  0  0  0
   12.4165    7.2430   -1.9006 C   0  0  0  0  0  0  0  0  0  0  0  0
   12.7290    8.5255   -2.1453 C   0  0  0  0  0  0  0  0  0  0  0  0
   11.3686    6.1472   -5.1730 C   0  0  0  0  0  0  0  0  0  0  0  0
    8.9010    4.8105   -7.4223 C   0  0  0  0  0  0  0  0  0  0  0  0
  1  2  1  0  0  0  0
  1  3  2  0  0  0  0
  2  4  2  0  0  0  0
  3  5  1  0  0  0  0
  4  8  1  0  0  0  0
  4 10  1  0  0  0  0
  5  6  1  0  0  0  0
  5 10  2  0  0  0  0
  6  7  1  0  0  0  0
  7 12  2  0  0  0  0
  7 16  1  0  0  0  0
  8  9  2  0  0  0  0
  8 11  1  0  0  0  0
 11 14  1  0  0  0  0
 12 13  1  0  0  0  0
 13 15  2  0  0  0  0
 14 17  1  0  0  0  0
 15 18  1  0  0  0  0
 16 18  2  0  0  0  0
 17 19  1  0  0  0  0
 17 21  2  0  0  0  0
 19 20  2  0  0  0  0
 20 23  1  0  0  0  0
 21 22  1  0  0  0  0
 22 23  2  0  0  0  0
 24 23  1  6  0  0  0
 24 25  1  0  0  0  0
 24 28  1  0  0  0  0
 24 29  1  0  0  0  0
 25 26  1  0  0  0  0
 26 27  1  0  0  0  0
 27 28  1  0  0  0  0
 27 31  1  6  0  0  0
 28 37  1  1  0  0  0
 29 30  1  0  0  0  0
 30 32  1  0  0  0  0
 30 33  2  0  0  0  0
 31 38  1  0  0  0  0
 32 36  2  0  0  0  0
 33 34  1  0  0  0  0
 33 37  1  0  0  0  0
 34 35  2  0  0  0  0
 35 36  1  0  0  0  0
M  END
$$$$

 OpenBabel10082411353D

 38 43  0  0  0  0  0  0  0  0999 V2000
   11.6836    6.0105   -4.8831 F   0  0  0  0  0  0  0  0  0  0  0  0
   11.2562    7.2206   -5.0294 C   0  0  0  0  0  0  0  0  0  0  0  0
   12.0125    8.2418   -4.4408 C   0  0  0  0  0  0  0  0  0  0  0  0
   11.1918    7.2706   -6.5237 C   0  0  0  0  0  0  0  0  0  0  0  0
   11.6999    8.4488   -3.1704 F   0  0  0  0  0  0  0  0  0  0  0  0
    9.8648    7.0908   -4.5314 F   0  0  0  0  0  0  0  0  0  0  0  0
   11.6831    8.5291   -6.9682 C   0  0  0  0  0  0  0  0  0  0  0  0
   10.4785    6.5189   -7.4033 C   0  0  0  0  0  0  0  0  0  0  0  0
   11.6979    8.6661   -8.4760 C   0  0  0  0  0  0  0  0  0  0  0  0
   11.6248    9.5853   -5.0030 C   0  0  0  0  0  0  0  0  0  0  0  0
   11.8604    9.7907   -6.2903 O   0  0  0  0  0  0  0  0  0  0  0  0
   13.3557    8.1748   -4.5947 F   0  0  0  0  0  0  0  0  0  0  0  0
   10.5427    6.6061   -8.7190 C   0  0  0  0  0  0  0  0  0  0  0  0
   11.1158    7.7103   -9.2540 C   0  0  0  0  0  0  0  0  0  0  0  0
   11.3757    7.6656  -10.5293 N   0  0  0  0  0  0  0  0  0  0  0  0
   10.7153    7.7096  -11.5405 C   0  0  0  0  0  0  0  0  0  0  0  0
   11.2483    7.4711  -12.8542 C   0  0  0  0  0  0  0  0  0  0  0  0
    9.3980    7.7820  -11.5398 C   0  0  0  0  0  0  0  0  0  0  0  0
    8.6055    7.5889  -12.6525 C   0  0  0  0  0  0  0  0  0  0  0  0
   12.7508    7.3705  -13.0162 O   0  0  0  0  0  0  0  0  0  0  0  0
   10.5299    7.1831  -13.9856 C   0  0  0  0  0  0  0  0  0  0  0  0
    7.0533    7.7371  -12.5396 C   0  0  0  0  0  0  0  0  0  0  0  0
   11.2041    6.8490  -15.2304 C   0  0  0  0  0  0  0  0  0  0  0  0
   11.6393    5.5333  -15.3864 C   0  0  0  0  0  0  0  0  0  0  0  0
    9.1955    7.2935  -13.8301 C   0  0  0  0  0  0  0  0  0  0  0  0
   12.5294    5.1116  -16.1609 C   0  0  0  0  0  0  0  0  0  0  0  0
   11.2315    4.4703  -14.3200 C   0  0  0  0  0  0  0  0  0  0  0  0
   10.2844    4.5821  -13.3000 C   0  0  0  0  0  0  0  0  0  0  0  0
   11.6270    3.1866  -14.6052 C   0  0  0  0  0  0  0  0  0  0  0  0
    9.0868    3.8289  -13.3080 C   0  0  0  0  0  0  0  0  0  0  0  0
    8.1007    4.0948  -12.4103 C   0  0  0  0  0  0  0  0  0  0  0  0
    6.8410    3.6347  -12.6829 C   0  0  0  0  0  0  0  0  0  0  0  0
    6.7154    2.6437  -13.7684 C   0  0  0  0  0  0  0  0  0  0  0  0
   11.0823    2.0862  -13.7648 C   0  0  0  0  0  0  0  0  0  0  0  0
    9.3191    2.3459  -13.6315 C   0  0  0  0  0  0  0  0  0  0  0  0
    7.9943    1.9227  -14.0381 C   0  0  0  0  0  0  0  0  0  0  0  0
   12.5132    3.0483  -15.6749 C   0  0  0  0  0  0  0  0  0  0  0  0
   12.9089    3.9224  -16.4054 C   0  0  0  0  0  0  0  0  0  0  0  0
  1  2  1  0  0  0  0
  2  3  1  0  0  0  0
  2  4  1  0  0  0  0
  2  6  1  0  0  0  0
  3  5  1  0  0  0  0
  3 10  1  0  0  0  0
  3 12  1  0  0  0  0
  4  7  1  0  0  0  0
  4  8  2  0  0  0  0
  7  9  2  0  0  0  0
  7 11  1  0  0  0  0
  8 13  1  0  0  0  0
  9 14  1  0  0  0  0
 10 11  1  0  0  0  0
 13 14  2  0  0  0  0
 14 15  1  0  0  0  0
 15 16  1  0  0  0  0
 16 17  1  0  0  0  0
 16 18  2  0  0  0  0
 17 20  1  0  0  0  0
 17 21  2  0  0  0  0
 18 19  1  0  0  0  0
 19 22  1  0  0  0  0
 19 25  2  0  0  0  0
 21 23  1  0  0  0  0
 21 25  1  0  0  0  0
 23 24  1  0  0  0  0
 24 26  2  0  0  0  0
 24 27  1  0  0  0  0
 26 38  1  0  0  0  0
 27 28  1  0  0  0  0
 27 29  2  0  0  0  0
 28 30  2  0  0  0  0
 29 34  1  0  0  0  0
 29 37  1  0  0  0  0
 30 31  1  0  0  0  0
 30 35  1  0  0  0  0
 31 32  2  0  0  0  0
 32 33  1  0  0  0  0
 33 36  1  0  0  0  0
 34 35  1  0  0  0  0
 35 36  2  0  0  0  0
 37 38  2  0  0  0  0
M  END
$$$$

 OpenBabel10082411353D

 38 42  0  0  0  0  0  0  0  0999 V2000
   11.6836    6.0105   -4.8831 F   0  0  0  0  0  0  0  0  0  0  0  0
   11.2562    7.2206   -5.0294 C   0  0  0  0  0  0  0  0  0  0  0  0
   12.0125    8.2418   -4.4408 C   0  0  0  0  0  0  0  0  0  0  0  0
   11.1918    7.2706   -6.5237 C   0  0  0  0  0  0  0  0  0  0  0  0
   11.6999    8.4488   -3.1704 F   0  0  0  0  0  0  0  0  0  0  0  0
    9.8648    7.0908   -4.5314 F   0  0  0  0  0  0  0  0  0  0  0  0
   11.6831    8.5291   -6.9682 C   0  0  0  0  0  0  0  0  0  0  0  0
   10.4785    6.5189   -7.4033 C   0  0  0  0  0  0  0  0  0  0  0  0
   11.6979    8.6661   -8.4760 C   0  0  0  0  0  0  0  0  0  0  0  0
   11.6248    9.5853   -5.0030 C   0  0  0  0  0  0  0  0  0  0  0  0
   11.8604    9.7907   -6.2903 O   0  0  0  0  0  0  0  0  0  0  0  0
   13.3557    8.1748   -4.5947 F   0  0  0  0  0  0  0  0  0  0  0  0
   10.5427    6.6061   -8.7190 C   0  0  0  0  0  0  0  0  0  0  0  0
   11.1158    7.7103   -9.2540 C   0  0  0  0  0  0  0  0  0  0  0  0
   11.3757    7.6656  -10.5293 N   0  0  0  0  0  0  0  0  0  0  0  0
   10.7153    7.7096  -11.5405 C   0  0  0  0  0  0  0  0  0  0  0  0
   11.2483    7.4711  -12.8542 C   0  0  0  0  0  0  0  0  0  0  0  0
    9.3980    7.7820  -11.5398 C   0  0  0  0  0  0  0  0  0  0  0  0
    8.6055    7.5889  -12.6525 C   0  0  0  0  0  0  0  0  0  0  0  0
   12.7508    7.3705  -13.0162 O   0  0  0  0  0  0  0  0  0  0  0  0
   10.5299    7.1831  -13.9856 C   0  0  0  0  0  0  0  0  0  0  0  0
    7.0533    7.7371  -12.5396 C   0  0  0  0  0  0  0  0  0  0  0  0
   11.2041    6.8490  -15.2304 C   0  0  0  0  0  0  0  0  0  0  0  0
   11.6393    5.5333  -15.3864 C   0  0  0  0  0  0  0  0  0  0  0  0
    9.1955    7.2935  -13.8301 C   0  0  0  0  0  0  0  0  0  0  0  0
   12.5294    5.1116  -16.1609 C   0  0  0  0  0  0  0  0  0  0  0  0
   11.2315    4.4703  -14.3200 C   0  0  0  0  0  0  0  0  0  0  0  0
   10.2844    4.5821  -13.3000 C   0  0  0  0  0  0  0  0  0  0  0  0
   11.6270    3.1866  -14.6052 C   0  0  0  0  0  0  0  0  0  0  0  0
    9.0868    3.8289  -13.3080 C   0  0  0  0  0  0  0  0  0  0  0  0
    8.1007    4.0948  -12.4103 C   0  0  0  0  0  0  0  0  0  0  0  0
    6.8410    3.6347  -12.6829 C   0  0  0  0  0  0  0  0  0  0  0  0
   12.9624    6.1826  -17.2150 C   0  0  0  0  0  0  0  0  0  0  0  0
   12.4374    2.8792  -15.6374 C   0  0  0  0  0  0  0  0  0  0  0  0
    6.6753    2.6500  -13.6934 C   0  0  0  0  0  0  0  0  0  0  0  0
   12.6688    3.8099  -16.4887 C   0  0  0  0  0  0  0  0  0  0  0  0
    7.7244    2.3894  -14.5128 C   0  0  0  0  0  0  0  0  0  0  0  0
    8.9491    2.9350  -14.3635 C   0  0  0  0  0  0  0  0  0  0  0  0
  1  2  1  0  0  0  0
  2  3  1  0  0  0  0
  2  4  1  0  0  0  0
  2  6  1  0  0  0  0
  3  5  1  0  0  0  0
  3 10  1  0  0  0  0
  3 12  1  0  0  0  0
  4  7  1  0  0  0  0
  4  8  2  0  0  0  0
  7  9  2  0  0  0  0
  7 11  1  0  0  0  0
  8 13  1  0  0  0  0
  9 14  1  0  0  0  0
 10 11  1  0  0  0  0
 13 14  2  0  0  0  0
 14 15  1  0  0  0  0
 15 16  1  0  0  0  0
 16 17  1  0  0  0  0
 16 18  2  0  0  0  0
 17 20  1  0  0  0  0
 17 21  2  0  0  0  0
 18 19  1  0  0  0  0
 19 22  1  0  0  0  0
 19 25  2  0  0  0  0
 21 23  1  0  0  0  0
 21 25  1  0  0  0  0
 23 24  1  0  0  0  0
 24 26  2  0  0  0  0
 24 27  1  0  0  0  0
 26 33  1  0  0  0  0
 26 36  1  0  0  0  0
 27 28  1  0  0  0  0
 27 29  2  0  0  0  0
 28 30  2  3  0  0  0
 29 34  1  0  0  0  0
 30 31  1  0  0  0  0
 30 38  1  0  0  0  0
 31 32  2  0  0  0  0
 32 35  1  0  0  0  0
 34 36  2  0  0  0  0
 35 37  2  0  0  0  0
 37 38  1  0  0  0  0
M  END
$$$$

 OpenBabel10082411353D

 38 44  0  0  0  0  0  0  0  0999 V2000
   12.7863    7.8241  -14.2109 C   0  0  0  0  0  0  0  0  0  0  0  0
   12.4233    7.7158  -13.0289 C   0  0  0  0  0  0  0  0  0  0  0  0
   11.3194    6.8571  -12.8028 C   0  0  0  0  0  0  0  0  0  0  0  0
   12.3150    7.2021  -15.3582 C   0  0  0  0  0  0  0  0  0  0  0  0
   11.2733    6.2739  -15.1502 C   0  0  0  0  0  0  0  0  0  0  0  0
   10.8099    6.0126  -13.8600 C   0  0  0  0  0  0  0  0  0  0  0  0
    9.6782    5.1428  -13.6488 C   0  0  0  0  0  0  0  0  0  0  0  0
    8.5753    5.3880  -12.9589 N   0  0  0  0  0  0  0  0  0  0  0  0
    8.3226    6.7011  -12.3862 C   0  0  0  0  0  0  0  0  0  0  0  0
    9.8502    3.8578  -14.0728 C   0  0  0  0  0  0  0  0  0  0  0  0
    7.3864    7.4720  -13.0530 C   0  0  0  0  0  0  0  0  0  0  0  0
    6.2412    7.8486  -12.2599 C   0  0  0  0  0  0  0  0  0  0  0  0
    7.6425    4.4186  -12.7943 C   0  0  0  0  0  0  0  0  0  0  0  0
   11.0297    3.2482  -14.8053 C   0  0  0  0  0  0  0  0  0  0  0  0
    8.6802    2.8955  -13.7960 C   0  0  0  0  0  0  0  0  0  0  0  0
    8.8565    1.5917  -14.3582 O   0  0  0  0  0  0  0  0  0  0  0  0
    7.6903    3.2226  -13.1994 N   0  0  0  0  0  0  0  0  0  0  0  0
    6.5724    2.3444  -12.8378 C   0  0  0  0  0  0  0  0  0  0  0  0
    9.0225    7.0353  -11.3259 C   0  0  0  0  0  0  0  0  0  0  0  0
    6.2405    4.8489  -12.4515 C   0  0  0  0  0  0  0  0  0  0  0  0
   10.5875    7.0617  -11.5321 C   0  0  0  0  0  0  0  0  0  0  0  0
   11.0960    7.6093  -10.4100 C   0  0  0  0  0  0  0  0  0  0  0  0
    8.4039    7.3336  -10.1102 C   0  0  0  0  0  0  0  0  0  0  0  0
    5.5911    3.3517  -12.3508 C   0  0  0  0  0  0  0  0  0  0  0  0
   12.6259    7.6530  -10.3901 C   0  0  0  0  0  0  0  0  0  0  0  0
   10.4284    7.7784   -9.2128 C   0  0  0  0  0  0  0  0  0  0  0  0
    9.2236    7.5051   -9.0617 C   0  0  2  0  0  0  0  0  0  0  0  0
    8.7145    7.3063   -7.7135 N   0  0  0  0  0  0  0  0  0  0  0  0
    9.3548    8.2125   -6.8305 C   0  0  0  0  0  0  0  0  0  0  0  0
   13.2400    8.3532   -9.3250 C   0  0  0  0  0  0  0  0  0  0  0  0
    8.8718    5.9168   -7.2228 C   0  0  0  0  0  0  0  0  0  0  0  0
   12.5074    8.3587   -8.0386 C   0  0  0  0  0  0  0  0  0  0  0  0
   11.1924    8.1932   -7.9474 C   0  0  0  0  0  0  0  0  0  0  0  0
   10.5178    8.6952   -6.8252 C   0  0  0  0  0  0  0  0  0  0  0  0
   11.2414    9.5732   -5.7893 C   0  0  0  0  0  0  0  0  0  0  0  0
   11.4427    9.0388   -4.4690 C   0  0  0  0  0  0  0  0  0  0  0  0
   12.6246    8.1486   -4.4234 C   0  0  0  0  0  0  0  0  0  0  0  0
   12.0819    6.8118   -3.7033 C   0  0  0  0  0  0  0  0  0  0  0  0
  1  2  2  0  0  0  0
  1  4  1  0  0  0  0
  2  3  1  0  0  0  0
  3  6  2  0  0  0  0
  3 21  1  0  0  0  0
  4  5  2  0  0  0  0
  5  6  1  0  0  0  0
  6  7  1  0  0  0  0
  7  8  1  0  0  0  0
  7 10  2  0  0  0  0
  8  9  1  0  0  0  0
  8 13  1  0  0  0  0
  9 11  1  0  0  0  0
  9 19  2  0  0  0  0
 10 14  1  0  0  0  0
 10 15  1  0  0  0  0
 11 12  1  0  0  0  0
 13 17  1  0  0  0  0
 13 20  2  0  0  0  0
 15 16  2  0  0  0  0
 15 17  1  0  0  0  0
 17 18  1  0  0  0  0
 18 24  1  0  0  0  0
 19 21  1  0  0  0  0
 19 23  1  0  0  0  0
 20 24  1  0  0  0  0
 21 22  2  0  0  0  0
 22 25  1  0  0  0  0
 22 26  1  0  0  0  0
 25 30  1  0  0  0  0
 26 27  1  0  0  0  0
 26 33  2  0  0  0  0
 27 23  1  6  0  0  0
 27 28  1  0  0  0  0
 28 29  1  0  0  0  0
 28 31  1  0  0  0  0
 29 34  2  0  0  0  0
 30 32  1  0  0  0  0
 32 33  1  0  0  0  0
 33 34  1  0  0  0  0
 34 35  1  0  0  0  0
 35 36  1  0  0  0  0
 36 37  1  0  0  0  0
 37 38  1  0  0  0  0
M  END
$$$$

 OpenBabel10082411353D

 38 42  0  0  0  0  0  0  0  0999 V2000
   11.6836    6.0105   -4.8831 F   0  0  0  0  0  0  0  0  0  0  0  0
   11.2562    7.2206   -5.0294 C   0  0  0  0  0  0  0  0  0  0  0  0
   12.0125    8.2418   -4.4408 C   0  0  0  0  0  0  0  0  0  0  0  0
   11.1918    7.2706   -6.5237 C   0  0  0  0  0  0  0  0  0  0  0  0
   11.6999    8.4488   -3.1704 F   0  0  0  0  0  0  0  0  0  0  0  0
    9.8648    7.0908   -4.5314 F   0  0  0  0  0  0  0  0  0  0  0  0
   11.6831    8.5291   -6.9682 C   0  0  0  0  0  0  0  0  0  0  0  0
   10.4785    6.5189   -7.4033 C   0  0  0  0  0  0  0  0  0  0  0  0
   11.6979    8.6661   -8.4760 C   0  0  0  0  0  0  0  0  0  0  0  0
   11.6248    9.5853   -5.0030 C   0  0  0  0  0  0  0  0  0  0  0  0
   11.8604    9.7907   -6.2903 O   0  0  0  0  0  0  0  0  0  0  0  0
   13.3557    8.1748   -4.5947 F   0  0  0  0  0  0  0  0  0  0  0  0
   10.5427    6.6061   -8.7190 C   0  0  0  0  0  0  0  0  0  0  0  0
   11.1158    7.7103   -9.2540 C   0  0  0  0  0  0  0  0  0  0  0  0
   11.3757    7.6656  -10.5293 N   0  0  0  0  0  0  0  0  0  0  0  0
   10.7153    7.7096  -11.5405 C   0  0  0  0  0  0  0  0  0  0  0  0
   11.2483    7.4711  -12.8542 C   0  0  0  0  0  0  0  0  0  0  0  0
    9.3980    7.7820  -11.5398 C   0  0  0  0  0  0  0  0  0  0  0  0
    8.6055    7.5889  -12.6525 C   0  0  0  0  0  0  0  0  0  0  0  0
   12.7508    7.3705  -13.0162 O   0  0  0  0  0  0  0  0  0  0  0  0
   10.5299    7.1831  -13.9856 C   0  0  0  0  0  0  0  0  0  0  0  0
    7.0533    7.7371  -12.5396 C   0  0  0  0  0  0  0  0  0  0  0  0
   11.2041    6.8490  -15.2304 C   0  0  0  0  0  0  0  0  0  0  0  0
   11.6393    5.5333  -15.3864 C   0  0  0  0  0  0  0  0  0  0  0  0
    9.1955    7.2935  -13.8301 C   0  0  0  0  0  0  0  0  0  0  0  0
   12.5294    5.1116  -16.1609 C   0  0  0  0  0  0  0  0  0  0  0  0
   11.2315    4.4703  -14.3200 C   0  0  0  0  0  0  0  0  0  0  0  0
   13.0194    6.0876  -17.1697 C   0  0  0  0  0  0  0  0  0  0  0  0
   12.3991    7.3271  -17.2011 C   0  0  0  0  0  0  0  0  0  0  0  0
   11.6234    7.7212  -16.1065 C   0  0  0  0  0  0  0  0  0  0  0  0
   10.0052    4.0409  -14.1961 C   0  0  0  0  0  0  0  0  0  0  0  0
    8.8880    4.4026  -14.8791 O   0  0  0  0  0  0  0  0  0  0  0  0
    7.7617    4.2307  -14.0513 N   0  0  0  0  0  0  0  0  0  0  0  0
    9.5613    2.9365  -13.2646 C   0  0  0  0  0  0  0  0  0  0  0  0
    8.1384    3.2518  -13.1561 C   0  0  0  0  0  0  0  0  0  0  0  0
    7.1322    2.8923  -12.1377 C   0  0  0  0  0  0  0  0  0  0  0  0
    6.6783    3.7865  -11.3774 O   0  0  0  0  0  0  0  0  0  0  0  0
    6.3303    1.9180  -12.3701 O   0  0  0  0  0  0  0  0  0  0  0  0
  1  2  1  0  0  0  0
  2  3  1  0  0  0  0
  2  4  1  0  0  0  0
  2  6  1  0  0  0  0
  3  5  1  0  0  0  0
  3 10  1  0  0  0  0
  3 12  1  0  0  0  0
  4  7  1  0  0  0  0
  4  8  2  0  0  0  0
  7  9  2  0  0  0  0
  7 11  1  0  0  0  0
  8 13  1  0  0  0  0
  9 14  1  0  0  0  0
 10 11  1  0  0  0  0
 13 14  2  0  0  0  0
 14 15  1  0  0  0  0
 15 16  1  0  0  0  0
 16 17  1  0  0  0  0
 16 18  2  0  0  0  0
 17 20  1  0  0  0  0
 17 21  2  0  0  0  0
 18 19  1  0  0  0  0
 19 22  1  0  0  0  0
 19 25  2  0  0  0  0
 21 23  1  0  0  0  0
 21 25  1  0  0  0  0
 23 24  1  0  0  0  0
 23 30  2  0  0  0  0
 24 26  2  0  0  0  0
 24 27  1  0  0  0  0
 26 28  1  0  0  0  0
 27 31  2  3  0  0  0
 28 29  2  0  0  0  0
 29 30  1  0  0  0  0
 31 32  1  0  0  0  0
 31 34  1  0  0  0  0
 32 33  1  0  0  0  0
 33 35  2  0  0  0  0
 34 35  1  0  0  0  0
 35 36  1  0  0  0  0
 36 37  1  0  0  0  0
 36 38  2  0  0  0  0
M  END
$$$$

 OpenBabel10082411353D

 38 45  0  0  0  0  0  0  0  0999 V2000
    8.0806    9.0240  -12.7589 C   0  0  0  0  0  0  0  0  0  0  0  0
    8.6514    7.8645  -12.2948 C   0  0  0  0  0  0  0  0  0  0  0  0
    9.9575    7.9974  -11.8426 C   0  0  0  0  0  0  0  0  0  0  0  0
   10.7657    6.8667  -11.6050 C   0  0  1  0  0  0  0  0  0  0  0  0
   10.7682    5.9590  -12.8271 C   0  0  0  0  0  0  0  0  0  0  0  0
   12.1553    7.3846  -11.2315 C   0  0  0  0  0  0  0  0  0  0  0  0
    8.0676    6.6451  -12.2974 C   0  0  0  0  0  0  0  0  0  0  0  0
   10.1892    6.1240  -10.3860 C   0  0  2  0  0  0  0  0  0  0  0  0
    9.0094    5.2137  -10.7848 C   0  0  0  0  0  0  0  0  0  0  0  0
    9.4945    7.2316   -9.4459 C   0  0  0  0  0  0  0  0  0  0  0  0
   12.8071    7.9409  -11.9572 O   0  0  0  0  0  0  0  0  0  0  0  0
   11.5140    5.2959  -13.3657 O   0  0  0  0  0  0  0  0  0  0  0  0
   12.4114    7.5535   -9.8463 O   0  0  0  0  0  0  0  0  0  0  0  0
    9.0993    5.4880  -12.4854 C   0  0  2  0  0  0  0  0  0  0  0  0
   11.7743    8.2869   -9.0744 C   0  0  1  0  0  0  0  0  0  0  0  0
   10.5725    7.6536   -8.3472 C   0  0  1  0  0  0  0  0  0  0  0  0
   10.1349    8.4847   -7.3373 C   0  0  2  0  0  0  0  0  0  0  0  0
   11.0794    9.1348   -6.5916 C   0  0  1  0  0  0  0  0  0  0  0  0
    8.5584    4.2300  -13.0912 C   0  0  0  0  0  0  0  0  0  0  0  0
    9.3804    7.5119   -6.2993 C   0  0  0  0  0  0  0  0  0  0  0  0
   10.6200    9.5632   -5.3550 C   0  0  1  0  0  0  0  0  0  0  0  0
   10.0007    8.2872   -4.8151 C   0  0  2  0  0  0  0  0  0  0  0  0
   11.8302    9.8957   -4.5213 C   0  0  0  0  0  0  0  0  0  0  0  0
   10.9475    7.3170   -4.1944 C   0  0  0  0  0  0  0  0  0  0  0  0
    7.2358    4.2931  -13.2897 O   0  0  0  0  0  0  0  0  0  0  0  0
   12.4005    7.4474   -4.8874 C   0  0  1  0  0  0  0  0  0  0  0  0
   12.9359    8.9253   -4.6550 C   0  0  0  0  0  0  0  0  0  0  0  0
   13.2630    6.5053   -4.5063 C   0  0  0  0  0  0  0  0  0  0  0  0
   12.2663    8.1368   -6.4314 C   0  0  2  0  0  0  0  0  0  0  0  0
    9.2803    3.3154  -13.5569 N   0  0  0  0  0  0  0  0  0  0  0  0
    8.7995    2.1907  -14.2911 C   0  0  0  0  0  0  0  0  0  0  0  0
   10.0332    1.5033  -14.9389 C   0  0  0  0  0  0  0  0  0  0  0  0
    9.7807    0.5207  -15.6110 F   0  0  0  0  0  0  0  0  0  0  0  0
   10.9223    1.1460  -14.1023 F   0  0  0  0  0  0  0  0  0  0  0  0
   10.6247    2.4560  -15.8233 F   0  0  0  0  0  0  0  0  0  0  0  0
   13.3485    8.8637   -7.0561 C   0  0  0  0  0  0  0  0  0  0  0  0
   12.3999    9.3335   -8.1691 C   0  0  2  0  0  0  0  0  0  0  0  0
   11.5692    9.9471   -7.3223 C   0  0  0  0  0  0  0  0  0  0  0  0
  1  2  1  0  0  0  0
  2  3  1  0  0  0  0
  2  7  2  0  0  0  0
  4  3  1  6  0  0  0
  4  5  1  0  0  0  0
  4  6  1  0  0  0  0
  4  8  1  0  0  0  0
  5 12  2  0  0  0  0
  5 14  1  0  0  0  0
  6 11  2  0  0  0  0
  6 13  1  0  0  0  0
  7 14  1  0  0  0  0
  8  9  1  6  0  0  0
  8 10  1  0  0  0  0
  9 14  1  0  0  0  0
 14 19  1  6  0  0  0
 15 13  1  1  0  0  0
 15 16  1  0  0  0  0
 15 37  1  0  0  0  0
 16 10  1  6  0  0  0
 16 17  1  0  0  0  0
 17 18  1  0  0  0  0
 17 20  1  1  0  0  0
 18 21  1  0  0  0  0
 18 29  1  0  0  0  0
 18 38  1  6  0  0  0
 19 25  2  0  0  0  0
 19 30  1  0  0  0  0
 21 22  1  0  0  0  0
 21 23  1  1  0  0  0
 22 20  1  6  0  0  0
 22 24  1  0  0  0  0
 23 27  1  0  0  0  0
 24 26  1  0  0  0  0
 26 27  1  0  0  0  0
 26 28  1  1  0  0  0
 26 29  1  0  0  0  0
 29 36  1  1  0  0  0
 30 31  1  0  0  0  0
 31 32  1  0  0  0  0
 32 33  1  0  0  0  0
 32 34  1  0  0  0  0
 32 35  1  0  0  0  0
 37 36  1  1  0  0  0
 37 38  1  0  0  0  0
M  END
$$$$

 OpenBabel10082411353D

 38 43  0  0  0  0  0  0  0  0999 V2000
   11.6836    6.0105   -4.8831 F   0  0  0  0  0  0  0  0  0  0  0  0
   11.2562    7.2206   -5.0294 C   0  0  0  0  0  0  0  0  0  0  0  0
   12.0125    8.2418   -4.4408 C   0  0  0  0  0  0  0  0  0  0  0  0
   11.1918    7.2706   -6.5237 C   0  0  0  0  0  0  0  0  0  0  0  0
   11.6999    8.4488   -3.1704 F   0  0  0  0  0  0  0  0  0  0  0  0
    9.8648    7.0908   -4.5314 F   0  0  0  0  0  0  0  0  0  0  0  0
   11.6831    8.5291   -6.9682 C   0  0  0  0  0  0  0  0  0  0  0  0
   10.4785    6.5189   -7.4033 C   0  0  0  0  0  0  0  0  0  0  0  0
   11.6979    8.6661   -8.4760 C   0  0  0  0  0  0  0  0  0  0  0  0
   11.6248    9.5853   -5.0030 C   0  0  0  0  0  0  0  0  0  0  0  0
   11.8604    9.7907   -6.2903 O   0  0  0  0  0  0  0  0  0  0  0  0
   13.3557    8.1748   -4.5947 F   0  0  0  0  0  0  0  0  0  0  0  0
   10.5427    6.6061   -8.7190 C   0  0  0  0  0  0  0  0  0  0  0  0
   11.1158    7.7103   -9.2540 C   0  0  0  0  0  0  0  0  0  0  0  0
   11.3757    7.6656  -10.5293 N   0  0  0  0  0  0  0  0  0  0  0  0
   10.7153    7.7096  -11.5405 C   0  0  0  0  0  0  0  0  0  0  0  0
   11.2483    7.4711  -12.8542 C   0  0  0  0  0  0  0  0  0  0  0  0
    9.3980    7.7820  -11.5398 C   0  0  0  0  0  0  0  0  0  0  0  0
    8.6055    7.5889  -12.6525 C   0  0  0  0  0  0  0  0  0  0  0  0
   12.7508    7.3705  -13.0162 O   0  0  0  0  0  0  0  0  0  0  0  0
   10.5299    7.1831  -13.9856 C   0  0  0  0  0  0  0  0  0  0  0  0
    7.0533    7.7371  -12.5396 C   0  0  0  0  0  0  0  0  0  0  0  0
   11.2041    6.8490  -15.2304 C   0  0  0  0  0  0  0  0  0  0  0  0
   11.6393    5.5333  -15.3864 C   0  0  0  0  0  0  0  0  0  0  0  0
    9.1955    7.2935  -13.8301 C   0  0  0  0  0  0  0  0  0  0  0  0
   12.5294    5.1116  -16.1609 C   0  0  0  0  0  0  0  0  0  0  0  0
   11.2315    4.4703  -14.3200 C   0  0  0  0  0  0  0  0  0  0  0  0
   10.2844    4.5821  -13.3000 C   0  0  0  0  0  0  0  0  0  0  0  0
   11.6270    3.1866  -14.6052 C   0  0  0  0  0  0  0  0  0  0  0  0
    9.0868    3.8289  -13.3080 C   0  0  0  0  0  0  0  0  0  0  0  0
    8.1007    4.0948  -12.4103 C   0  0  0  0  0  0  0  0  0  0  0  0
    6.8410    3.6347  -12.6829 C   0  0  0  0  0  0  0  0  0  0  0  0
    6.7154    2.6437  -13.7684 C   0  0  0  0  0  0  0  0  0  0  0  0
   11.0823    2.0862  -13.7648 C   0  0  0  0  0  0  0  0  0  0  0  0
    9.3191    2.3459  -13.6315 C   0  0  2  0  0  0  0  0  0  0  0  0
    7.9943    1.9227  -14.0381 C   0  0  0  0  0  0  0  0  0  0  0  0
   12.4479    2.9946  -15.6890 C   0  0  0  0  0  0  0  0  0  0  0  0
   12.8252    3.8608  -16.3259 N   0  0  0  0  0  0  0  0  0  0  0  0
  1  2  1  0  0  0  0
  2  3  1  0  0  0  0
  2  4  1  0  0  0  0
  2  6  1  0  0  0  0
  3  5  1  0  0  0  0
  3 10  1  0  0  0  0
  3 12  1  0  0  0  0
  4  7  1  0  0  0  0
  4  8  2  0  0  0  0
  7  9  2  0  0  0  0
  7 11  1  0  0  0  0
  8 13  1  0  0  0  0
  9 14  1  0  0  0  0
 10 11  1  0  0  0  0
 13 14  2  0  0  0  0
 14 15  1  0  0  0  0
 15 16  1  0  0  0  0
 16 17  1  0  0  0  0
 16 18  2  0  0  0  0
 17 20  1  0  0  0  0
 17 21  2  0  0  0  0
 18 19  1  0  0  0  0
 19 22  1  0  0  0  0
 19 25  2  0  0  0  0
 21 23  1  0  0  0  0
 21 25  1  0  0  0  0
 23 24  1  0  0  0  0
 24 26  2  0  0  0  0
 24 27  1  0  0  0  0
 26 38  1  0  0  0  0
 27 28  1  0  0  0  0
 27 29  2  0  0  0  0
 28 30  2  0  0  0  0
 29 34  1  0  0  0  0
 29 37  1  0  0  0  0
 30 31  1  0  0  0  0
 30 35  1  0  0  0  0
 31 32  2  0  0  0  0
 32 33  1  0  0  0  0
 33 36  1  0  0  0  0
 35 34  1  6  0  0  0
 35 36  1  0  0  0  0
 37 38  2  0  0  0  0
M  END
$$$$

 OpenBabel10082411353D

 38 47  0  0  0  0  0  0  0  0999 V2000
    8.0806    9.0240  -12.7589 C   0  0  0  0  0  0  0  0  0  0  0  0
    8.6514    7.8645  -12.2948 C   0  0  0  0  0  0  0  0  0  0  0  0
    9.9575    7.9974  -11.8426 C   0  0  0  0  0  0  0  0  0  0  0  0
   10.7657    6.8667  -11.6050 C   0  0  1  0  0  0  0  0  0  0  0  0
   10.7682    5.9590  -12.8271 C   0  0  0  0  0  0  0  0  0  0  0  0
   12.1553    7.3846  -11.2315 C   0  0  0  0  0  0  0  0  0  0  0  0
    8.0676    6.6451  -12.2974 C   0  0  0  0  0  0  0  0  0  0  0  0
   10.1892    6.1240  -10.3860 C   0  0  0  0  0  0  0  0  0  0  0  0
   11.8375    5.4373  -13.3240 O   0  0  0  0  0  0  0  0  0  0  0  0
    8.6785    5.4761  -13.0273 C   0  0  1  0  0  0  0  0  0  0  0  0
    9.1969    5.2405  -10.4969 C   0  0  1  0  0  0  0  0  0  0  0  0
    7.2213    6.2210  -11.3074 C   0  0  1  0  0  0  0  0  0  0  0  0
   12.5590    7.6872   -9.9896 C   0  0  0  0  0  0  0  0  0  0  0  0
    9.7633    5.0333  -12.9720 C   0  0  1  0  0  0  0  0  0  0  0  0
   10.0661    4.0167  -14.0373 N   0  0  0  0  0  0  0  0  0  0  0  0
   13.6906    8.3004   -9.6233 O   0  0  0  0  0  0  0  0  0  0  0  0
    7.6357    4.5123  -12.6317 C   0  0  2  0  0  0  0  0  0  0  0  0
    6.8831    4.9171  -11.7031 C   0  0  0  0  0  0  0  0  0  0  0  0
   10.5937    6.6967   -9.1779 C   0  0  0  0  0  0  0  0  0  0  0  0
    9.5087    4.3263  -11.6925 C   0  0  2  0  0  0  0  0  0  0  0  0
   11.6359    7.4449   -8.9125 C   0  0  0  0  0  0  0  0  0  0  0  0
   11.9716    7.9159   -7.6200 C   0  0  0  0  0  0  0  0  0  0  0  0
    8.4648    3.6122  -12.2840 C   0  0  2  0  0  0  0  0  0  0  0  0
    9.3128    4.5571   -9.1689 C   0  0  0  0  0  0  0  0  0  0  0  0
   10.9557    7.6369   -6.5929 C   0  0  1  0  0  0  0  0  0  0  0  0
    9.6490    2.8108  -13.7776 C   0  0  1  0  0  0  0  0  0  0  0  0
    9.6716    6.1981   -8.0224 C   0  0  2  0  0  0  0  0  0  0  0  0
    8.5511    2.5400  -13.1402 C   0  0  0  0  0  0  0  0  0  0  0  0
    9.7877    2.0302  -15.0383 O   0  0  0  0  0  0  0  0  0  0  0  0
   10.2949    6.3957   -6.8142 C   0  0  0  0  0  0  0  0  0  0  0  0
   11.5442    7.8028   -5.1770 C   0  0  0  0  0  0  0  0  0  0  0  0
    9.3662    4.9454   -8.1688 C   0  0  0  0  0  0  0  0  0  0  0  0
    9.9825    8.6746   -6.2053 C   0  0  0  0  0  0  0  0  0  0  0  0
   11.8670    9.1982   -4.7195 C   0  0  2  0  0  0  0  0  0  0  0  0
   12.7706    9.9232   -5.2633 O   0  0  0  0  0  0  0  0  0  0  0  0
   11.7236    9.5566   -3.3664 C   0  0  0  0  0  0  0  0  0  0  0  0
   10.4079    9.5502   -5.4571 C   0  0  0  0  0  0  0  0  0  0  0  0
    7.9385    5.6611  -10.3091 C   0  0  0  0  0  0  0  0  0  0  0  0
  1  2  1  0  0  0  0
  2  3  1  0  0  0  0
  2  7  2  0  0  0  0
  4  3  1  6  0  0  0
  4  5  1  0  0  0  0
  4  6  1  0  0  0  0
  4  8  1  0  0  0  0
  5  9  2  0  0  0  0
  6 13  1  0  0  0  0
  7 12  1  0  0  0  0
  8 11  1  0  0  0  0
  8 19  2  0  0  0  0
 10  7  1  1  0  0  0
 10 14  1  0  0  0  0
 10 17  1  0  0  0  0
 11 20  1  0  0  0  0
 11 24  1  1  0  0  0
 11 38  1  0  0  0  0
 12 18  1  6  0  0  0
 12 38  1  0  0  0  0
 13 16  2  0  0  0  0
 13 21  1  0  0  0  0
 14  5  1  1  0  0  0
 14 15  1  0  0  0  0
 14 20  1  0  0  0  0
 15 26  1  0  0  0  0
 17 18  1  1  0  0  0
 17 23  1  0  0  0  0
 19 21  1  0  0  0  0
 19 27  1  0  0  0  0
 20 23  1  0  0  0  0
 21 22  2  0  0  0  0
 22 25  1  0  0  0  0
 23 28  1  0  0  0  0
 24 32  2  0  0  0  0
 25 30  1  0  0  0  0
 25 31  1  0  0  0  0
 25 33  1  0  0  0  0
 26 28  1  0  0  0  0
 26 29  1  0  0  0  0
 27 30  1  0  0  0  0
 27 32  1  0  0  0  0
 31 34  1  0  0  0  0
 33 37  2  0  0  0  0
 34 35  1  0  0  0  0
 34 36  1  0  0  0  0
 34 37  1  0  0  0  0
M  END
$$$$

 OpenBabel10082411353D

 25 27  0  0  0  0  0  0  0  0999 V2000
   13.1862    9.4584   -4.4987 C   0  0  0  0  0  0  0  0  0  0  0  0
   12.1466    8.8379   -3.9099 C   0  0  0  0  0  0  0  0  0  0  0  0
   12.9882    9.7409   -5.8618 C   0  0  0  0  0  0  0  0  0  0  0  0
   11.9761    9.3177   -6.5889 C   0  0  0  0  0  0  0  0  0  0  0  0
   10.9346    8.5066   -5.9096 C   0  0  0  0  0  0  0  0  0  0  0  0
   12.2569    8.5495   -2.4516 C   0  0  0  0  0  0  0  0  0  0  0  0
   11.0697    8.2577   -4.5299 C   0  0  0  0  0  0  0  0  0  0  0  0
   11.7350    9.5912   -7.9371 O   0  0  0  0  0  0  0  0  0  0  0  0
    9.7397    8.0780   -6.6393 C   0  0  0  0  0  0  0  0  0  0  0  0
   10.8649    8.8162   -8.5483 C   0  0  2  0  0  0  0  0  0  0  0  0
    9.2400    6.9866   -6.2549 O   0  0  0  0  0  0  0  0  0  0  0  0
   10.8576    9.1019   -9.9991 C   0  0  0  0  0  0  0  0  0  0  0  0
   11.8034    8.3801  -10.7004 C   0  0  0  0  0  0  0  0  0  0  0  0
    9.8033    8.2783   -8.0085 N   0  0  0  0  0  0  0  0  0  0  0  0
   11.4502    7.6515  -11.8595 C   0  0  0  0  0  0  0  0  0  0  0  0
   10.3061    7.2417  -12.2192 C   0  0  0  0  0  0  0  0  0  0  0  0
   12.5619    7.1376  -12.7423 C   0  0  0  0  0  0  0  0  0  0  0  0
   12.0598    6.5881  -13.8520 C   0  0  0  0  0  0  0  0  0  0  0  0
   10.2619    6.3932  -13.5506 S   0  0  0  0  0  0  0  0  0  0  0  0
    8.9583    7.3138  -11.4010 C   0  0  0  0  0  0  0  0  0  0  0  0
   12.8005    5.8867  -15.0638 C   0  0  0  0  0  0  0  0  0  0  0  0
   12.9474    6.7345  -15.9788 O   0  0  0  0  0  0  0  0  0  0  0  0
    7.7419    7.4013  -12.2180 C   0  0  0  0  0  0  0  0  0  0  0  0
   12.6719    4.6259  -15.1233 O   0  0  0  0  0  0  0  0  0  0  0  0
    7.2730    8.7321  -12.4851 C   0  0  0  0  0  0  0  0  0  0  0  0
  1  2  1  0  0  0  0
  1  3  2  0  0  0  0
  2  6  1  0  0  0  0
  2  7  2  0  0  0  0
  3  4  1  0  0  0  0
  4  5  2  0  0  0  0
  4  8  1  0  0  0  0
  5  7  1  0  0  0  0
  5  9  1  0  0  0  0
  8 10  1  0  0  0  0
  9 11  2  0  0  0  0
  9 14  1  0  0  0  0
 10 12  1  6  0  0  0
 10 14  1  0  0  0  0
 12 13  1  0  0  0  0
 13 15  1  0  0  0  0
 15 16  2  0  0  0  0
 15 17  1  0  0  0  0
 16 19  1  0  0  0  0
 16 20  1  0  0  0  0
 17 18  2  0  0  0  0
 18 19  1  0  0  0  0
 18 21  1  0  0  0  0
 20 23  1  0  0  0  0
 21 22  2  0  0  0  0
 21 24  1  0  0  0  0
 23 25  1  0  0  0  0
M  END
$$$$

 OpenBabel10082411353D

 38 43  0  0  0  0  0  0  0  0999 V2000
   11.6836    6.0105   -4.8831 C   0  0  0  0  0  0  0  0  0  0  0  0
   11.1291    7.0732   -5.4395 C   0  0  0  0  0  0  0  0  0  0  0  0
   10.6954    7.0156   -6.8073 C   0  0  0  0  0  0  0  0  0  0  0  0
   10.2502    8.1187   -7.5536 C   0  0  2  0  0  0  0  0  0  0  0  0
   11.1205    8.4712   -4.9629 C   0  0  0  0  0  0  0  0  0  0  0  0
   10.8655    8.3511   -8.7960 C   0  0  0  0  0  0  0  0  0  0  0  0
   10.2922    7.8843   -9.9985 C   0  0  0  0  0  0  0  0  0  0  0  0
   10.4654    9.6993   -5.6120 C   0  0  0  0  0  0  0  0  0  0  0  0
   10.3510    9.5971   -7.0014 C   0  0  0  0  0  0  0  0  0  0  0  0
   12.2462    6.3351   -3.5020 C   0  0  0  0  0  0  0  0  0  0  0  0
   11.0471    7.5309  -11.1063 C   0  0  0  0  0  0  0  0  0  0  0  0
   11.7288    8.6923   -3.6518 C   0  0  0  0  0  0  0  0  0  0  0  0
   12.3991    7.7501  -11.1145 C   0  0  0  0  0  0  0  0  0  0  0  0
   12.3738    7.7580   -2.9599 C   0  0  0  0  0  0  0  0  0  0  0  0
   13.1285    8.5075  -10.1661 O   0  0  0  0  0  0  0  0  0  0  0  0
    9.0407    7.3775  -10.0973 N   0  0  0  0  0  0  0  0  0  0  0  0
    8.9787    6.9473  -11.4664 N   0  0  0  0  0  0  0  0  0  0  0  0
   13.1012    7.4459  -12.3707 C   0  0  0  0  0  0  0  0  0  0  0  0
   12.2395    6.9724  -13.2444 C   0  0  0  0  0  0  0  0  0  0  0  0
   10.2768    7.0170  -11.9799 C   0  0  0  0  0  0  0  0  0  0  0  0
   12.9237    6.5822  -14.5759 O   0  0  0  0  0  0  0  0  0  0  0  0
   10.8906    6.6526  -13.2252 C   0  0  0  0  0  0  0  0  0  0  0  0
   12.2396    6.1290  -15.6916 C   0  0  0  0  0  0  0  0  0  0  0  0
    7.7368    6.4514  -12.0707 C   0  0  0  0  0  0  0  0  0  0  0  0
    7.1353    7.2872  -12.8105 C   0  0  0  0  0  0  0  0  0  0  0  0
    7.6622    5.0135  -12.1225 C   0  0  0  0  0  0  0  0  0  0  0  0
   12.5092    4.6950  -15.8147 C   0  0  0  0  0  0  0  0  0  0  0  0
    5.9403    6.5840  -13.2897 C   0  0  0  0  0  0  0  0  0  0  0  0
   11.2738    3.8422  -15.5220 N   0  0  0  0  0  0  0  0  0  0  0  0
    8.7139    4.1736  -11.4601 C   0  0  0  0  0  0  0  0  0  0  0  0
    5.7546    5.3014  -13.2955 C   0  0  0  0  0  0  0  0  0  0  0  0
   10.5665    3.9988  -14.5162 C   0  0  0  0  0  0  0  0  0  0  0  0
    6.6518    4.4534  -12.6459 C   0  0  0  0  0  0  0  0  0  0  0  0
    9.4912    3.0700  -14.3497 C   0  0  0  0  0  0  0  0  0  0  0  0
   10.8576    2.7594  -16.2342 C   0  0  0  0  0  0  0  0  0  0  0  0
   11.4118    2.3845  -17.3446 O   0  0  0  0  0  0  0  0  0  0  0  0
    9.8012    2.2849  -15.5869 N   0  0  0  0  0  0  0  0  0  0  0  0
    9.2589    1.0277  -15.7315 C   0  0  0  0  0  0  0  0  0  0  0  0
  1  2  1  0  0  0  0
  1 10  2  0  0  0  0
  2  3  1  0  0  0  0
  2  5  2  0  0  0  0
  3  4  1  0  0  0  0
  4  6  1  6  0  0  0
  4  9  1  0  0  0  0
  5  8  1  0  0  0  0
  5 12  1  0  0  0  0
  6  7  1  0  0  0  0
  7 11  1  0  0  0  0
  7 16  2  0  0  0  0
  8  9  1  0  0  0  0
 10 14  1  0  0  0  0
 11 13  2  0  0  0  0
 11 20  1  0  0  0  0
 12 14  2  0  0  0  0
 13 15  1  0  0  0  0
 13 18  1  0  0  0  0
 16 17  1  0  0  0  0
 17 20  1  0  0  0  0
 17 24  1  0  0  0  0
 18 19  2  0  0  0  0
 19 21  1  0  0  0  0
 19 22  1  0  0  0  0
 20 22  2  0  0  0  0
 21 23  1  0  0  0  0
 23 27  1  0  0  0  0
 24 25  2  0  0  0  0
 24 26  1  0  0  0  0
 25 28  1  0  0  0  0
 26 30  1  0  0  0  0
 26 33  2  0  0  0  0
 27 29  1  0  0  0  0
 28 31  2  0  0  0  0
 29 32  1  0  0  0  0
 29 35  1  0  0  0  0
 31 33  1  0  0  0  0
 32 34  2  0  0  0  0
 34 37  1  0  0  0  0
 35 36  2  0  0  0  0
 35 37  1  0  0  0  0
 37 38  1  0  0  0  0
M  END
$$$$

 OpenBabel10082411353D

 38 42  0  0  0  0  0  0  0  0999 V2000
   13.2485    9.2493   -6.3668 O   0  0  0  0  0  0  0  0  0  0  0  0
   11.8899    9.2134   -6.2448 C   0  0  2  0  0  0  0  0  0  0  0  0
   11.2917    8.4721   -7.1451 C   0  0  2  0  0  0  0  0  0  0  0  0
   11.1607   10.4722   -6.0470 C   0  0  0  0  0  0  0  0  0  0  0  0
   11.8942    8.2744   -4.8861 C   0  0  1  0  0  0  0  0  0  0  0  0
   12.6962    8.6810   -3.7632 C   0  0  0  0  0  0  0  0  0  0  0  0
   10.5733    7.9819   -4.4741 O   0  0  0  0  0  0  0  0  0  0  0  0
   12.2118    6.9274   -5.0046 C   0  0  0  0  0  0  0  0  0  0  0  0
   11.4062    7.0803   -7.3138 C   0  0  1  0  0  0  0  0  0  0  0  0
   11.6893    9.1493   -8.4831 O   0  0  0  0  0  0  0  0  0  0  0  0
   11.3707    6.2717   -6.1614 C   0  0  0  0  0  0  0  0  0  0  0  0
   10.2564    6.5939   -8.3321 C   0  0  0  0  0  0  0  0  0  0  0  0
   10.4218    6.4667   -9.6182 C   0  0  0  0  0  0  0  0  0  0  0  0
    9.0449    6.2933   -7.8128 C   0  0  0  0  0  0  0  0  0  0  0  0
   11.5623    6.9616  -10.3788 C   0  0  0  0  0  0  0  0  0  0  0  0
    9.1836    6.0871  -10.1212 C   0  0  0  0  0  0  0  0  0  0  0  0
    8.3594    5.8680   -8.9980 N   0  0  0  0  0  0  0  0  0  0  0  0
    8.9634    5.7685  -11.5222 C   0  0  0  0  0  0  0  0  0  0  0  0
    9.9387    6.2140  -12.4284 C   0  0  0  0  0  0  0  0  0  0  0  0
   11.2531    6.8246  -11.9916 C   0  0  0  0  0  0  0  0  0  0  0  0
   12.2137    7.2131  -12.9706 C   0  0  0  0  0  0  0  0  0  0  0  0
    7.6691    5.2092  -11.9140 C   0  0  0  0  0  0  0  0  0  0  0  0
   12.7560    8.3596  -12.8513 O   0  0  0  0  0  0  0  0  0  0  0  0
   12.2037    6.6982  -14.2178 C   0  0  0  0  0  0  0  0  0  0  0  0
    7.8301    4.1930  -12.9417 C   0  0  0  0  0  0  0  0  0  0  0  0
    6.5578    5.6404  -11.4845 C   0  0  0  0  0  0  0  0  0  0  0  0
    5.3897    5.0761  -11.9453 C   0  0  0  0  0  0  0  0  0  0  0  0
    6.6734    3.5642  -13.3902 C   0  0  0  0  0  0  0  0  0  0  0  0
    6.7669    2.4765  -14.3662 C   0  0  0  0  0  0  0  0  0  0  0  0
    5.4703    3.9750  -12.9019 C   0  0  0  0  0  0  0  0  0  0  0  0
   12.3780    7.2991  -15.3925 C   0  0  0  0  0  0  0  0  0  0  0  0
   12.4370    5.1844  -14.3644 C   0  0  0  0  0  0  0  0  0  0  0  0
   12.2309    4.2701  -13.2777 F   0  0  0  0  0  0  0  0  0  0  0  0
   12.4944    4.5454  -15.5777 C   0  0  0  0  0  0  0  0  0  0  0  0
   12.3250    8.7237  -15.3932 F   0  0  0  0  0  0  0  0  0  0  0  0
   12.4396    5.5446  -16.7426 C   0  0  0  0  0  0  0  0  0  0  0  0
   12.5261    4.7922  -17.9975 F   0  0  0  0  0  0  0  0  0  0  0  0
   12.4169    6.7660  -16.6407 C   0  0  0  0  0  0  0  0  0  0  0  0
  1  2  1  0  0  0  0
  2  3  1  0  0  0  0
  2  4  1  1  0  0  0
  2  5  1  0  0  0  0
  3  9  1  0  0  0  0
  3 10  1  6  0  0  0
  5  6  1  1  0  0  0
  5  7  1  0  0  0  0
  5  8  1  0  0  0  0
  8 11  1  0  0  0  0
  9 11  1  0  0  0  0
  9 12  1  6  0  0  0
 12 13  1  0  0  0  0
 12 14  2  0  0  0  0
 13 15  1  0  0  0  0
 13 16  2  0  0  0  0
 14 17  1  0  0  0  0
 15 20  2  0  0  0  0
 16 17  1  0  0  0  0
 16 18  1  0  0  0  0
 18 19  2  0  0  0  0
 18 22  1  0  0  0  0
 19 20  1  0  0  0  0
 20 21  1  0  0  0  0
 21 23  2  0  0  0  0
 21 24  1  0  0  0  0
 22 25  1  0  0  0  0
 22 26  2  0  0  0  0
 24 31  2  0  0  0  0
 24 32  1  0  0  0  0
 25 28  2  0  0  0  0
 26 27  1  0  0  0  0
 27 30  2  0  0  0  0
 28 29  1  0  0  0  0
 28 30  1  0  0  0  0
 31 35  1  0  0  0  0
 31 38  1  0  0  0  0
 32 33  1  0  0  0  0
 32 34  2  0  0  0  0
 34 36  1  0  0  0  0
 36 37  1  0  0  0  0
 36 38  2  0  0  0  0
M  END
$$$$

 OpenBabel10082411353D

 38 45  0  0  0  0  0  0  0  0999 V2000
   12.7863    7.8241  -14.2109 C   0  0  0  0  0  0  0  0  0  0  0  0
   12.4233    7.7158  -13.0289 C   0  0  0  0  0  0  0  0  0  0  0  0
   11.3194    6.8571  -12.8028 C   0  0  0  0  0  0  0  0  0  0  0  0
   12.3150    7.2021  -15.3582 C   0  0  0  0  0  0  0  0  0  0  0  0
   11.2733    6.2739  -15.1502 C   0  0  0  0  0  0  0  0  0  0  0  0
   10.8099    6.0126  -13.8600 C   0  0  0  0  0  0  0  0  0  0  0  0
    9.6782    5.1428  -13.6488 C   0  0  0  0  0  0  0  0  0  0  0  0
    8.5753    5.3880  -12.9589 N   0  0  0  0  0  0  0  0  0  0  0  0
    8.3226    6.7011  -12.3862 C   0  0  0  0  0  0  0  0  0  0  0  0
    9.8502    3.8578  -14.0728 C   0  0  0  0  0  0  0  0  0  0  0  0
    7.3864    7.4720  -13.0530 C   0  0  0  0  0  0  0  0  0  0  0  0
    6.2412    7.8486  -12.2599 C   0  0  0  0  0  0  0  0  0  0  0  0
    7.6425    4.4186  -12.7943 C   0  0  0  0  0  0  0  0  0  0  0  0
   11.0297    3.2482  -14.8053 C   0  0  0  0  0  0  0  0  0  0  0  0
    8.6802    2.8955  -13.7960 C   0  0  0  0  0  0  0  0  0  0  0  0
    8.8565    1.5917  -14.3582 O   0  0  0  0  0  0  0  0  0  0  0  0
    7.6903    3.2226  -13.1994 N   0  0  0  0  0  0  0  0  0  0  0  0
    6.5724    2.3444  -12.8378 C   0  0  0  0  0  0  0  0  0  0  0  0
    9.0225    7.0353  -11.3259 C   0  0  0  0  0  0  0  0  0  0  0  0
    6.2405    4.8489  -12.4515 C   0  0  0  0  0  0  0  0  0  0  0  0
   10.5875    7.0617  -11.5321 C   0  0  0  0  0  0  0  0  0  0  0  0
   11.0960    7.6093  -10.4100 C   0  0  0  0  0  0  0  0  0  0  0  0
    8.4039    7.3336  -10.1102 C   0  0  0  0  0  0  0  0  0  0  0  0
   10.6086    7.8156   -9.1888 C   0  0  0  0  0  0  0  0  0  0  0  0
    9.3113    7.5527   -9.2022 C   0  0  0  0  0  0  0  0  0  0  0  0
    5.5868    3.4174  -12.3561 C   0  0  0  0  0  0  0  0  0  0  0  0
    8.7252    7.9330   -7.6242 C   0  0  0  0  0  0  0  0  0  0  0  0
   11.1859    8.0862   -7.9601 C   0  0  0  0  0  0  0  0  0  0  0  0
   12.7495    8.2704   -8.0174 C   0  0  0  0  0  0  0  0  0  0  0  0
   10.4493    8.2542   -6.7750 C   0  0  2  0  0  0  0  0  0  0  0  0
    9.2142    8.3462   -6.7539 C   0  0  0  0  0  0  0  0  0  0  0  0
   11.4483    9.0676   -5.7294 C   0  0  1  0  0  0  0  0  0  0  0  0
   10.5479    6.9328   -5.7137 C   0  0  0  0  0  0  0  0  0  0  0  0
   13.0940    9.3998   -7.2782 C   0  0  0  0  0  0  0  0  0  0  0  0
   12.8182    9.2697   -5.8803 C   0  0  0  0  0  0  0  0  0  0  0  0
   10.7663   10.5076   -5.8947 C   0  0  0  0  0  0  0  0  0  0  0  0
   11.0732    8.9365   -4.3488 O   0  0  0  0  0  0  0  0  0  0  0  0
   11.3562    7.2273   -4.4026 C   0  0  0  0  0  0  0  0  0  0  0  0
  1  2  2  0  0  0  0
  1  4  1  0  0  0  0
  2  3  1  0  0  0  0
  3  6  2  0  0  0  0
  3 21  1  0  0  0  0
  4  5  2  0  0  0  0
  5  6  1  0  0  0  0
  6  7  1  0  0  0  0
  7  8  1  0  0  0  0
  7 10  2  0  0  0  0
  8  9  1  0  0  0  0
  8 13  1  0  0  0  0
  9 11  1  0  0  0  0
  9 19  2  0  0  0  0
 10 14  1  0  0  0  0
 10 15  1  0  0  0  0
 11 12  1  0  0  0  0
 13 17  1  0  0  0  0
 13 20  2  0  0  0  0
 15 16  2  0  0  0  0
 15 17  1  0  0  0  0
 17 18  1  0  0  0  0
 18 26  2  0  0  0  0
 19 21  1  0  0  0  0
 19 23  1  0  0  0  0
 20 26  1  0  0  0  0
 21 22  2  0  0  0  0
 22 24  1  0  0  0  0
 23 25  2  0  0  0  0
 24 25  1  0  0  0  0
 24 28  2  0  0  0  0
 25 27  1  0  0  0  0
 27 31  2  0  0  0  0
 28 29  1  0  0  0  0
 28 30  1  0  0  0  0
 29 34  1  0  0  0  0
 30 31  1  6  0  0  0
 30 32  1  0  0  0  0
 30 33  1  0  0  0  0
 32 35  1  0  0  0  0
 32 36  1  6  0  0  0
 32 37  1  0  0  0  0
 33 38  1  0  0  0  0
 34 35  1  0  0  0  0
 37 38  1  0  0  0  0
M  END
$$$$

 OpenBabel10082411353D

 38 42  0  0  0  0  0  0  0  0999 V2000
   11.6836    6.0105   -4.8831 F   0  0  0  0  0  0  0  0  0  0  0  0
   11.2562    7.2206   -5.0294 C   0  0  0  0  0  0  0  0  0  0  0  0
   12.0125    8.2418   -4.4408 C   0  0  0  0  0  0  0  0  0  0  0  0
   11.1918    7.2706   -6.5237 C   0  0  0  0  0  0  0  0  0  0  0  0
   11.6999    8.4488   -3.1704 F   0  0  0  0  0  0  0  0  0  0  0  0
    9.8648    7.0908   -4.5314 F   0  0  0  0  0  0  0  0  0  0  0  0
   11.6831    8.5291   -6.9682 C   0  0  0  0  0  0  0  0  0  0  0  0
   10.4785    6.5189   -7.4033 C   0  0  0  0  0  0  0  0  0  0  0  0
   11.6979    8.6661   -8.4760 C   0  0  0  0  0  0  0  0  0  0  0  0
   11.6248    9.5853   -5.0030 C   0  0  0  0  0  0  0  0  0  0  0  0
   11.8604    9.7907   -6.2903 O   0  0  0  0  0  0  0  0  0  0  0  0
   13.3557    8.1748   -4.5947 F   0  0  0  0  0  0  0  0  0  0  0  0
   10.5427    6.6061   -8.7190 C   0  0  0  0  0  0  0  0  0  0  0  0
   11.1158    7.7103   -9.2540 C   0  0  0  0  0  0  0  0  0  0  0  0
   11.3757    7.6656  -10.5293 N   0  0  0  0  0  0  0  0  0  0  0  0
   10.7153    7.7096  -11.5405 C   0  0  0  0  0  0  0  0  0  0  0  0
   11.2483    7.4711  -12.8542 C   0  0  0  0  0  0  0  0  0  0  0  0
    9.3980    7.7820  -11.5398 C   0  0  0  0  0  0  0  0  0  0  0  0
    8.6055    7.5889  -12.6525 C   0  0  0  0  0  0  0  0  0  0  0  0
   12.7508    7.3705  -13.0162 O   0  0  0  0  0  0  0  0  0  0  0  0
   10.5299    7.1831  -13.9856 C   0  0  0  0  0  0  0  0  0  0  0  0
    7.0533    7.7371  -12.5396 C   0  0  0  0  0  0  0  0  0  0  0  0
   11.2041    6.8490  -15.2304 C   0  0  0  0  0  0  0  0  0  0  0  0
   11.6393    5.5333  -15.3864 C   0  0  0  0  0  0  0  0  0  0  0  0
    9.1955    7.2935  -13.8301 C   0  0  0  0  0  0  0  0  0  0  0  0
   12.5294    5.1116  -16.1609 C   0  0  0  0  0  0  0  0  0  0  0  0
   11.2315    4.4703  -14.3200 C   0  0  0  0  0  0  0  0  0  0  0  0
   10.2844    4.5821  -13.3000 C   0  0  0  0  0  0  0  0  0  0  0  0
   11.6270    3.1866  -14.6052 C   0  0  0  0  0  0  0  0  0  0  0  0
    9.0868    3.8289  -13.3080 C   0  0  0  0  0  0  0  0  0  0  0  0
   11.3420    2.7039  -15.8535 C   0  0  0  0  0  0  0  0  0  0  0  0
   12.3848    3.5242  -16.4737 C   0  0  0  0  0  0  0  0  0  0  0  0
    8.2189    3.9688  -12.1830 C   0  0  0  0  0  0  0  0  0  0  0  0
    8.4341    4.6700  -11.1010 C   0  0  0  0  0  0  0  0  0  0  0  0
    9.7276    5.5381   -9.3640 C   0  0  0  0  0  0  0  0  0  0  0  0
    9.6377    4.9464  -10.6789 C   0  0  0  0  0  0  0  0  0  0  0  0
    8.6771    4.9645   -8.6340 N   0  0  0  0  0  0  0  0  0  0  0  0
    8.6356    3.6737   -8.7420 O   0  0  0  0  0  0  0  0  0  0  0  0
  1  2  1  0  0  0  0
  2  3  1  0  0  0  0
  2  4  1  0  0  0  0
  2  6  1  0  0  0  0
  3  5  1  0  0  0  0
  3 10  1  0  0  0  0
  3 12  1  0  0  0  0
  4  7  1  0  0  0  0
  4  8  2  0  0  0  0
  7  9  2  0  0  0  0
  7 11  1  0  0  0  0
  8 13  1  0  0  0  0
  9 14  1  0  0  0  0
 10 11  1  0  0  0  0
 13 14  2  0  0  0  0
 13 35  1  0  0  0  0
 14 15  1  0  0  0  0
 15 16  1  0  0  0  0
 16 17  1  0  0  0  0
 16 18  2  0  0  0  0
 17 20  1  0  0  0  0
 17 21  2  0  0  0  0
 18 19  1  0  0  0  0
 19 22  1  0  0  0  0
 19 25  2  0  0  0  0
 21 23  1  0  0  0  0
 21 25  1  0  0  0  0
 23 24  1  0  0  0  0
 24 26  2  0  0  0  0
 24 27  1  0  0  0  0
 26 32  1  0  0  0  0
 27 28  1  0  0  0  0
 27 29  2  0  0  0  0
 28 30  2  0  0  0  0
 29 31  1  0  0  0  0
 30 33  1  0  0  0  0
 31 32  1  0  0  0  0
 33 34  2  0  0  0  0
 34 36  1  0  0  0  0
 35 36  1  0  0  0  0
 35 37  2  3  0  0  0
 37 38  1  0  0  0  0
M  END
$$$$

 OpenBabel10082411353D

 38 47  0  0  0  0  0  0  0  0999 V2000
    8.0806    9.0240  -12.7589 C   0  0  0  0  0  0  0  0  0  0  0  0
    8.6514    7.8645  -12.2948 C   0  0  0  0  0  0  0  0  0  0  0  0
    9.9575    7.9974  -11.8426 C   0  0  0  0  0  0  0  0  0  0  0  0
   10.7657    6.8667  -11.6050 C   0  0  1  0  0  0  0  0  0  0  0  0
   10.7682    5.9590  -12.8271 C   0  0  0  0  0  0  0  0  0  0  0  0
   12.1553    7.3846  -11.2315 C   0  0  0  0  0  0  0  0  0  0  0  0
    8.0676    6.6451  -12.2974 C   0  0  0  0  0  0  0  0  0  0  0  0
   10.1892    6.1240  -10.3860 C   0  0  0  0  0  0  0  0  0  0  0  0
   11.8375    5.4373  -13.3240 O   0  0  0  0  0  0  0  0  0  0  0  0
    8.6785    5.4761  -13.0273 C   0  0  1  0  0  0  0  0  0  0  0  0
    9.1969    5.2405  -10.4969 C   0  0  1  0  0  0  0  0  0  0  0  0
    7.2213    6.2210  -11.3074 C   0  0  1  0  0  0  0  0  0  0  0  0
   12.5590    7.6872   -9.9896 C   0  0  0  0  0  0  0  0  0  0  0  0
    9.7633    5.0333  -12.9720 C   0  0  1  0  0  0  0  0  0  0  0  0
   10.0661    4.0167  -14.0373 N   0  0  0  0  0  0  0  0  0  0  0  0
   13.6906    8.3004   -9.6233 O   0  0  0  0  0  0  0  0  0  0  0  0
    7.6357    4.5123  -12.6317 C   0  0  2  0  0  0  0  0  0  0  0  0
    6.8831    4.9171  -11.7031 C   0  0  0  0  0  0  0  0  0  0  0  0
   10.5937    6.6967   -9.1779 C   0  0  0  0  0  0  0  0  0  0  0  0
    9.5087    4.3263  -11.6925 C   0  0  2  0  0  0  0  0  0  0  0  0
   11.6359    7.4449   -8.9125 C   0  0  0  0  0  0  0  0  0  0  0  0
   11.9716    7.9159   -7.6200 C   0  0  0  0  0  0  0  0  0  0  0  0
    8.4648    3.6122  -12.2840 C   0  0  2  0  0  0  0  0  0  0  0  0
    9.3128    4.5571   -9.1689 C   0  0  0  0  0  0  0  0  0  0  0  0
   10.9557    7.6369   -6.5929 C   0  0  1  0  0  0  0  0  0  0  0  0
    9.6490    2.8108  -13.7776 C   0  0  1  0  0  0  0  0  0  0  0  0
    9.6716    6.1981   -8.0224 C   0  0  2  0  0  0  0  0  0  0  0  0
    8.5511    2.5400  -13.1402 C   0  0  0  0  0  0  0  0  0  0  0  0
    9.7877    2.0302  -15.0383 O   0  0  0  0  0  0  0  0  0  0  0  0
   10.2949    6.3957   -6.8142 C   0  0  0  0  0  0  0  0  0  0  0  0
   11.5442    7.8028   -5.1770 C   0  0  0  0  0  0  0  0  0  0  0  0
    9.3662    4.9454   -8.1688 C   0  0  0  0  0  0  0  0  0  0  0  0
    9.9825    8.6746   -6.2053 C   0  0  0  0  0  0  0  0  0  0  0  0
   11.8670    9.1982   -4.7195 C   0  0  2  0  0  0  0  0  0  0  0  0
   12.7706    9.9232   -5.2633 O   0  0  0  0  0  0  0  0  0  0  0  0
   11.7236    9.5566   -3.3664 C   0  0  0  0  0  0  0  0  0  0  0  0
    7.9349    5.6388  -10.4912 C   0  0  0  0  0  0  0  0  0  0  0  0
   10.5738    9.8654   -5.4218 C   0  0  0  0  0  0  0  0  0  0  0  0
  1  2  1  0  0  0  0
  2  3  1  0  0  0  0
  2  7  2  0  0  0  0
  4  3  1  6  0  0  0
  4  5  1  0  0  0  0
  4  6  1  0  0  0  0
  4  8  1  0  0  0  0
  5  9  2  0  0  0  0
  6 13  1  0  0  0  0
  7 12  1  0  0  0  0
  8 11  1  0  0  0  0
  8 19  2  0  0  0  0
 10  7  1  1  0  0  0
 10 14  1  0  0  0  0
 10 17  1  0  0  0  0
 11 20  1  0  0  0  0
 11 24  1  1  0  0  0
 11 37  1  0  0  0  0
 12 18  1  6  0  0  0
 12 37  1  0  0  0  0
 13 16  2  0  0  0  0
 13 21  1  0  0  0  0
 14  5  1  1  0  0  0
 14 15  1  0  0  0  0
 14 20  1  0  0  0  0
 15 26  1  0  0  0  0
 17 18  1  1  0  0  0
 17 23  1  0  0  0  0
 19 21  1  0  0  0  0
 19 27  1  0  0  0  0
 20 23  1  0  0  0  0
 21 22  2  0  0  0  0
 22 25  1  0  0  0  0
 23 28  1  0  0  0  0
 24 32  2  0  0  0  0
 25 30  1  0  0  0  0
 25 31  1  0  0  0  0
 25 33  1  0  0  0  0
 26 28  1  0  0  0  0
 26 29  1  0  0  0  0
 27 30  1  0  0  0  0
 27 32  1  0  0  0  0
 31 34  1  0  0  0  0
 33 38  1  0  0  0  0
 34 35  1  0  0  0  0
 34 36  1  0  0  0  0
 34 38  1  0  0  0  0
M  END
$$$$

 OpenBabel10082411353D

 38 43  0  0  0  0  0  0  0  0999 V2000
   11.6836    6.0105   -4.8831 F   0  0  0  0  0  0  0  0  0  0  0  0
   11.2562    7.2206   -5.0294 C   0  0  0  0  0  0  0  0  0  0  0  0
   12.0125    8.2418   -4.4408 C   0  0  0  0  0  0  0  0  0  0  0  0
   11.1918    7.2706   -6.5237 C   0  0  0  0  0  0  0  0  0  0  0  0
   11.6999    8.4488   -3.1704 F   0  0  0  0  0  0  0  0  0  0  0  0
    9.8648    7.0908   -4.5314 F   0  0  0  0  0  0  0  0  0  0  0  0
   11.6831    8.5291   -6.9682 C   0  0  0  0  0  0  0  0  0  0  0  0
   10.4785    6.5189   -7.4033 C   0  0  0  0  0  0  0  0  0  0  0  0
   11.6979    8.6661   -8.4760 C   0  0  0  0  0  0  0  0  0  0  0  0
   11.6248    9.5853   -5.0030 C   0  0  0  0  0  0  0  0  0  0  0  0
   11.8604    9.7907   -6.2903 O   0  0  0  0  0  0  0  0  0  0  0  0
   13.3557    8.1748   -4.5947 F   0  0  0  0  0  0  0  0  0  0  0  0
   10.5427    6.6061   -8.7190 C   0  0  0  0  0  0  0  0  0  0  0  0
   11.1158    7.7103   -9.2540 C   0  0  0  0  0  0  0  0  0  0  0  0
   11.3757    7.6656  -10.5293 N   0  0  0  0  0  0  0  0  0  0  0  0
   10.7153    7.7096  -11.5405 C   0  0  0  0  0  0  0  0  0  0  0  0
   11.2483    7.4711  -12.8542 C   0  0  0  0  0  0  0  0  0  0  0  0
    9.3980    7.7820  -11.5398 C   0  0  0  0  0  0  0  0  0  0  0  0
    8.6055    7.5889  -12.6525 C   0  0  0  0  0  0  0  0  0  0  0  0
   12.7508    7.3705  -13.0162 O   0  0  0  0  0  0  0  0  0  0  0  0
   10.5299    7.1831  -13.9856 C   0  0  0  0  0  0  0  0  0  0  0  0
    7.0533    7.7371  -12.5396 C   0  0  0  0  0  0  0  0  0  0  0  0
   11.2041    6.8490  -15.2304 C   0  0  0  0  0  0  0  0  0  0  0  0
   11.6393    5.5333  -15.3864 C   0  0  0  0  0  0  0  0  0  0  0  0
    9.1955    7.2935  -13.8301 C   0  0  0  0  0  0  0  0  0  0  0  0
   12.5294    5.1116  -16.1609 C   0  0  0  0  0  0  0  0  0  0  0  0
   11.2315    4.4703  -14.3200 C   0  0  0  0  0  0  0  0  0  0  0  0
   10.2844    4.5821  -13.3000 C   0  0  0  0  0  0  0  0  0  0  0  0
   11.6270    3.1866  -14.6052 C   0  0  0  0  0  0  0  0  0  0  0  0
    9.0868    3.8289  -13.3080 C   0  0  0  0  0  0  0  0  0  0  0  0
    8.1007    4.0948  -12.4103 C   0  0  0  0  0  0  0  0  0  0  0  0
    6.8410    3.6347  -12.6829 C   0  0  0  0  0  0  0  0  0  0  0  0
    6.7154    2.6437  -13.7684 C   0  0  0  0  0  0  0  0  0  0  0  0
   11.0823    2.0862  -13.7648 C   0  0  0  0  0  0  0  0  0  0  0  0
    9.3191    2.3459  -13.6315 C   0  0  2  0  0  0  0  0  0  0  0  0
   12.7411    3.5776  -16.0808 S   0  0  0  0  0  0  0  0  0  0  0  0
   12.1369    2.6677  -15.3553 C   0  0  0  0  0  0  0  0  0  0  0  0
    7.7070    1.8560  -14.2374 C   0  0  0  0  0  0  0  0  0  0  0  0
  1  2  1  0  0  0  0
  2  3  1  0  0  0  0
  2  4  1  0  0  0  0
  2  6  1  0  0  0  0
  3  5  1  0  0  0  0
  3 10  1  0  0  0  0
  3 12  1  0  0  0  0
  4  7  1  0  0  0  0
  4  8  2  0  0  0  0
  7  9  2  0  0  0  0
  7 11  1  0  0  0  0
  8 13  1  0  0  0  0
  9 14  1  0  0  0  0
 10 11  1  0  0  0  0
 13 14  2  0  0  0  0
 14 15  1  0  0  0  0
 15 16  1  0  0  0  0
 16 17  1  0  0  0  0
 16 18  2  0  0  0  0
 17 20  1  0  0  0  0
 17 21  2  0  0  0  0
 18 19  1  0  0  0  0
 19 22  1  0  0  0  0
 19 25  2  0  0  0  0
 21 23  1  0  0  0  0
 21 25  1  0  0  0  0
 23 24  1  0  0  0  0
 24 26  2  0  0  0  0
 24 27  1  0  0  0  0
 26 36  1  0  0  0  0
 27 28  1  0  0  0  0
 27 29  2  0  0  0  0
 28 30  2  0  0  0  0
 29 34  1  0  0  0  0
 29 37  1  0  0  0  0
 30 31  1  0  0  0  0
 30 35  1  0  0  0  0
 31 32  2  0  0  0  0
 32 33  1  0  0  0  0
 33 38  1  0  0  0  0
 35 34  1  6  0  0  0
 35 38  1  0  0  0  0
 36 37  1  0  0  0  0
M  END
$$$$

 OpenBabel10082411353D

 38 47  0  0  0  0  0  0  0  0999 V2000
    8.0806    9.0240  -12.7589 C   0  0  0  0  0  0  0  0  0  0  0  0
    8.6514    7.8645  -12.2948 C   0  0  0  0  0  0  0  0  0  0  0  0
    9.9575    7.9974  -11.8426 C   0  0  0  0  0  0  0  0  0  0  0  0
   10.7657    6.8667  -11.6050 C   0  0  1  0  0  0  0  0  0  0  0  0
   10.7682    5.9590  -12.8271 C   0  0  0  0  0  0  0  0  0  0  0  0
   12.1553    7.3846  -11.2315 C   0  0  0  0  0  0  0  0  0  0  0  0
    8.0676    6.6451  -12.2974 C   0  0  0  0  0  0  0  0  0  0  0  0
   10.1892    6.1240  -10.3860 C   0  0  0  0  0  0  0  0  0  0  0  0
   11.8375    5.4373  -13.3240 O   0  0  0  0  0  0  0  0  0  0  0  0
    8.6785    5.4761  -13.0273 C   0  0  1  0  0  0  0  0  0  0  0  0
    9.1969    5.2405  -10.4969 C   0  0  1  0  0  0  0  0  0  0  0  0
    7.2213    6.2210  -11.3074 C   0  0  1  0  0  0  0  0  0  0  0  0
   12.5590    7.6872   -9.9896 C   0  0  0  0  0  0  0  0  0  0  0  0
    9.7633    5.0333  -12.9720 C   0  0  1  0  0  0  0  0  0  0  0  0
   10.0661    4.0167  -14.0373 N   0  0  0  0  0  0  0  0  0  0  0  0
   13.6906    8.3004   -9.6233 O   0  0  0  0  0  0  0  0  0  0  0  0
    7.6357    4.5123  -12.6317 C   0  0  2  0  0  0  0  0  0  0  0  0
    6.8831    4.9171  -11.7031 C   0  0  0  0  0  0  0  0  0  0  0  0
   10.5937    6.6967   -9.1779 C   0  0  0  0  0  0  0  0  0  0  0  0
    9.5087    4.3263  -11.6925 C   0  0  2  0  0  0  0  0  0  0  0  0
   11.6359    7.4449   -8.9125 C   0  0  0  0  0  0  0  0  0  0  0  0
   11.9716    7.9159   -7.6200 C   0  0  0  0  0  0  0  0  0  0  0  0
    8.4648    3.6122  -12.2840 C   0  0  2  0  0  0  0  0  0  0  0  0
    9.3128    4.5571   -9.1689 C   0  0  0  0  0  0  0  0  0  0  0  0
   10.9557    7.6369   -6.5929 C   0  0  0  0  0  0  0  0  0  0  0  0
    9.6490    2.8108  -13.7776 C   0  0  1  0  0  0  0  0  0  0  0  0
    9.6716    6.1981   -8.0224 C   0  0  2  0  0  0  0  0  0  0  0  0
    8.5511    2.5400  -13.1402 C   0  0  0  0  0  0  0  0  0  0  0  0
    9.7877    2.0302  -15.0383 O   0  0  0  0  0  0  0  0  0  0  0  0
   10.2949    6.3957   -6.8142 C   0  0  0  0  0  0  0  0  0  0  0  0
    8.7552    3.1757   -9.1739 O   0  0  0  0  0  0  0  0  0  0  0  0
   10.0241    8.9015   -6.4644 C   0  0  0  0  0  0  0  0  0  0  0  0
   11.5641    7.7572   -5.1363 C   0  0  0  0  0  0  0  0  0  0  0  0
    9.3278    5.0059   -8.0166 N   0  0  0  0  0  0  0  0  0  0  0  0
   12.0394    9.0178   -4.6959 C   0  0  0  0  0  0  0  0  0  0  0  0
    7.9322    5.6559  -10.2312 C   0  0  0  0  0  0  0  0  0  0  0  0
   10.8866    9.9093   -4.5626 C   0  0  0  0  0  0  0  0  0  0  0  0
   10.5260   10.1768   -6.0142 C   0  0  0  0  0  0  0  0  0  0  0  0
  1  2  1  0  0  0  0
  2  3  1  0  0  0  0
  2  7  2  0  0  0  0
  4  3  1  6  0  0  0
  4  5  1  0  0  0  0
  4  6  1  0  0  0  0
  4  8  1  0  0  0  0
  5  9  2  0  0  0  0
  6 13  1  0  0  0  0
  7 12  1  0  0  0  0
  8 11  1  0  0  0  0
  8 19  2  0  0  0  0
 10  7  1  1  0  0  0
 10 14  1  0  0  0  0
 10 17  1  0  0  0  0
 11 20  1  0  0  0  0
 11 24  1  0  0  0  0
 11 36  1  6  0  0  0
 12 18  1  6  0  0  0
 12 36  1  0  0  0  0
 13 16  2  0  0  0  0
 13 21  1  0  0  0  0
 14  5  1  1  0  0  0
 14 15  1  0  0  0  0
 14 20  1  0  0  0  0
 15 26  1  0  0  0  0
 17 18  1  1  0  0  0
 17 23  1  0  0  0  0
 19 21  1  0  0  0  0
 19 27  1  0  0  0  0
 20 23  1  0  0  0  0
 21 22  2  0  0  0  0
 22 25  1  0  0  0  0
 23 28  1  0  0  0  0
 24 31  2  0  0  0  0
 24 34  1  0  0  0  0
 25 30  1  0  0  0  0
 25 32  1  0  0  0  0
 25 33  1  0  0  0  0
 26 28  1  0  0  0  0
 26 29  1  0  0  0  0
 27 30  1  0  0  0  0
 27 34  1  0  0  0  0
 32 38  1  0  0  0  0
 33 35  1  0  0  0  0
 35 37  1  0  0  0  0
 37 38  1  0  0  0  0
M  END
$$$$

 OpenBabel10082411353D

 38 48  0  0  0  0  0  0  0  0999 V2000
    8.0806    9.0240  -12.7589 C   0  0  0  0  0  0  0  0  0  0  0  0
    8.6514    7.8645  -12.2948 C   0  0  0  0  0  0  0  0  0  0  0  0
    9.9575    7.9974  -11.8426 C   0  0  0  0  0  0  0  0  0  0  0  0
   10.7657    6.8667  -11.6050 C   0  0  1  0  0  0  0  0  0  0  0  0
   10.7682    5.9590  -12.8271 C   0  0  0  0  0  0  0  0  0  0  0  0
   12.1553    7.3846  -11.2315 C   0  0  0  0  0  0  0  0  0  0  0  0
    8.0676    6.6451  -12.2974 C   0  0  0  0  0  0  0  0  0  0  0  0
   10.1892    6.1240  -10.3860 C   0  0  0  0  0  0  0  0  0  0  0  0
   11.8375    5.4373  -13.3240 O   0  0  0  0  0  0  0  0  0  0  0  0
    8.6785    5.4761  -13.0273 C   0  0  1  0  0  0  0  0  0  0  0  0
    9.1969    5.2405  -10.4969 C   0  0  1  0  0  0  0  0  0  0  0  0
    7.2213    6.2210  -11.3074 C   0  0  1  0  0  0  0  0  0  0  0  0
   12.5590    7.6872   -9.9896 C   0  0  0  0  0  0  0  0  0  0  0  0
    9.7633    5.0333  -12.9720 C   0  0  1  0  0  0  0  0  0  0  0  0
   10.0661    4.0167  -14.0373 N   0  0  0  0  0  0  0  0  0  0  0  0
   13.6906    8.3004   -9.6233 O   0  0  0  0  0  0  0  0  0  0  0  0
    7.6357    4.5123  -12.6317 C   0  0  2  0  0  0  0  0  0  0  0  0
    6.8831    4.9171  -11.7031 C   0  0  1  0  0  0  0  0  0  0  0  0
   10.5937    6.6967   -9.1779 C   0  0  0  0  0  0  0  0  0  0  0  0
    9.5087    4.3263  -11.6925 C   0  0  2  0  0  0  0  0  0  0  0  0
   11.6359    7.4449   -8.9125 C   0  0  0  0  0  0  0  0  0  0  0  0
   11.9716    7.9159   -7.6200 C   0  0  0  0  0  0  0  0  0  0  0  0
    8.4648    3.6122  -12.2840 C   0  0  2  0  0  0  0  0  0  0  0  0
    9.3128    4.5571   -9.1689 C   0  0  0  0  0  0  0  0  0  0  0  0
   10.9557    7.6369   -6.5929 C   0  0  0  0  0  0  0  0  0  0  0  0
    9.6490    2.8108  -13.7776 C   0  0  0  0  0  0  0  0  0  0  0  0
   10.2419    1.7839  -14.4904 O   0  0  0  0  0  0  0  0  0  0  0  0
    9.8235    6.3429   -8.0308 C   0  0  0  0  0  0  0  0  0  0  0  0
    8.5421    2.5419  -13.1600 C   0  0  0  0  0  0  0  0  0  0  0  0
   10.0139    6.8647   -6.7816 C   0  0  0  0  0  0  0  0  0  0  0  0
    8.9641    5.2626   -8.0936 N   0  0  0  0  0  0  0  0  0  0  0  0
    7.9178    5.6594  -10.4374 C   0  0  1  0  0  0  0  0  0  0  0  0
   11.2467    8.3685   -5.1947 C   0  0  0  0  0  0  0  0  0  0  0  0
   12.0651    7.7023   -4.3308 C   0  0  0  0  0  0  0  0  0  0  0  0
   10.7646    9.6393   -4.8611 C   0  0  0  0  0  0  0  0  0  0  0  0
   12.1934    8.5805   -3.0300 C   0  0  0  0  0  0  0  0  0  0  0  0
   11.7774    9.6684   -2.7821 C   0  0  0  0  0  0  0  0  0  0  0  0
   11.0994   10.3372   -3.7429 N   0  0  0  0  0  0  0  0  0  0  0  0
  1  2  1  0  0  0  0
  2  3  1  0  0  0  0
  2  7  2  0  0  0  0
  4  3  1  6  0  0  0
  4  5  1  0  0  0  0
  4  6  1  0  0  0  0
  4  8  1  0  0  0  0
  5  9  2  0  0  0  0
  6 13  1  0  0  0  0
  8 11  1  0  0  0  0
  8 19  2  0  0  0  0
 10  7  1  1  0  0  0
 10 14  1  0  0  0  0
 10 17  1  0  0  0  0
 11 20  1  0  0  0  0
 11 24  1  1  0  0  0
 11 32  1  0  0  0  0
 12  7  1  6  0  0  0
 12 18  1  0  0  0  0
 12 32  1  0  0  0  0
 13 16  2  0  0  0  0
 13 21  1  0  0  0  0
 14  5  1  1  0  0  0
 14 15  1  0  0  0  0
 14 20  1  0  0  0  0
 15 26  1  0  0  0  0
 17 18  1  0  0  0  0
 17 23  1  0  0  0  0
 18 32  1  0  0  0  0
 19 21  1  0  0  0  0
 19 28  1  0  0  0  0
 20 23  1  0  0  0  0
 21 22  2  0  0  0  0
 22 25  1  0  0  0  0
 23 29  1  0  0  0  0
 24 31  1  0  0  0  0
 25 30  2  0  0  0  0
 25 33  1  0  0  0  0
 26 27  2  0  0  0  0
 26 29  1  0  0  0  0
 28 30  1  0  0  0  0
 28 31  2  0  0  0  0
 33 34  1  0  0  0  0
 33 35  2  0  0  0  0
 34 36  2  0  0  0  0
 35 38  1  0  0  0  0
 36 37  1  0  0  0  0
 37 38  2  0  0  0  0
M  END
$$$$

 OpenBabel10082411353D

 38 43  0  0  0  0  0  0  0  0999 V2000
   11.6836    6.0105   -4.8831 F   0  0  0  0  0  0  0  0  0  0  0  0
   11.2562    7.2206   -5.0294 C   0  0  0  0  0  0  0  0  0  0  0  0
   12.0125    8.2418   -4.4408 C   0  0  0  0  0  0  0  0  0  0  0  0
   11.1918    7.2706   -6.5237 C   0  0  2  0  0  0  0  0  0  0  0  0
   11.6999    8.4488   -3.1704 F   0  0  0  0  0  0  0  0  0  0  0  0
    9.8648    7.0908   -4.5314 F   0  0  0  0  0  0  0  0  0  0  0  0
   11.6831    8.5291   -6.9682 C   0  0  1  0  0  0  0  0  0  0  0  0
   13.3042    8.0958   -4.5769 F   0  0  0  0  0  0  0  0  0  0  0  0
   10.0051    6.7877   -7.1387 C   0  0  2  0  0  0  0  0  0  0  0  0
   12.1549    9.4036   -6.0698 C   0  0  0  0  0  0  0  0  0  0  0  0
   11.7460    9.5074   -4.8672 O   0  0  0  0  0  0  0  0  0  0  0  0
   12.5684    8.5172   -7.8652 C   0  0  0  0  0  0  0  0  0  0  0  0
   10.4250    8.9412   -7.4869 C   0  0  0  0  0  0  0  0  0  0  0  0
    9.8902    5.4070   -7.8206 C   0  0  1  0  0  0  0  0  0  0  0  0
    8.7348    4.6919   -7.6168 C   0  0  0  0  0  0  0  0  0  0  0  0
    9.5887    7.8633   -8.0188 C   0  0  1  0  0  0  0  0  0  0  0  0
   10.0149    7.4671   -9.3945 C   0  0  0  0  0  0  0  0  0  0  0  0
    8.7013    3.5197   -8.2148 C   0  0  0  0  0  0  0  0  0  0  0  0
    9.3794    3.4628   -9.4166 C   0  0  0  0  0  0  0  0  0  0  0  0
    9.7670    8.0902  -10.5147 C   0  0  0  0  0  0  0  0  0  0  0  0
   10.1630    7.7248  -11.8028 C   0  0  0  0  0  0  0  0  0  0  0  0
   10.1363    4.5235   -9.8811 C   0  0  0  0  0  0  0  0  0  0  0  0
   10.2836    5.8862   -9.1314 C   0  0  2  0  0  0  0  0  0  0  0  0
    9.2642    7.6154  -12.7688 C   0  0  0  0  0  0  0  0  0  0  0  0
   11.5358    7.8029  -12.2540 C   0  0  0  0  0  0  0  0  0  0  0  0
    7.7746    7.5598  -12.4325 C   0  0  0  0  0  0  0  0  0  0  0  0
   11.9538    7.3346  -13.4521 C   0  0  0  0  0  0  0  0  0  0  0  0
   11.1653    6.8126  -14.3816 C   0  0  0  0  0  0  0  0  0  0  0  0
   11.5859    6.2821  -15.5527 C   0  0  0  0  0  0  0  0  0  0  0  0
    7.2622    8.9083  -12.2808 C   0  0  0  0  0  0  0  0  0  0  0  0
   11.7051    4.8886  -15.6933 C   0  0  0  0  0  0  0  0  0  0  0  0
    6.9924    6.7631  -13.2367 C   0  0  0  0  0  0  0  0  0  0  0  0
    9.6766    6.8198  -14.0455 C   0  0  0  0  0  0  0  0  0  0  0  0
   10.6606    4.0819  -15.6259 C   0  0  0  0  0  0  0  0  0  0  0  0
   10.7371    2.6287  -15.8778 C   0  0  0  0  0  0  0  0  0  0  0  0
   10.0133    1.7995  -15.0004 C   0  0  0  0  0  0  0  0  0  0  0  0
    9.4067    2.4928  -14.0064 C   0  0  0  0  0  0  0  0  0  0  0  0
    9.3336    3.9452  -14.6770 C   0  0  0  0  0  0  0  0  0  0  0  0
  1  2  1  0  0  0  0
  2  3  1  0  0  0  0
  2  6  1  0  0  0  0
  3  5  1  0  0  0  0
  3  8  1  0  0  0  0
  3 11  1  0  0  0  0
  4  2  1  1  0  0  0
  4  7  1  0  0  0  0
  4  9  1  0  0  0  0
  7 10  1  0  0  0  0
  7 12  1  6  0  0  0
  7 13  1  0  0  0  0
  9 14  1  0  0  0  0
  9 16  1  0  0  0  0
 10 11  1  0  0  0  0
 13 16  1  0  0  0  0
 14 15  1  0  0  0  0
 14 23  1  0  0  0  0
 15 18  2  0  0  0  0
 16 17  1  0  0  0  0
 17 20  2  3  0  0  0
 17 23  1  0  0  0  0
 18 19  1  0  0  0  0
 19 22  2  0  0  0  0
 20 21  1  0  0  0  0
 21 24  2  0  0  0  0
 21 25  1  0  0  0  0
 22 23  1  0  0  0  0
 24 26  1  0  0  0  0
 24 33  1  0  0  0  0
 25 27  2  0  0  0  0
 26 30  1  0  0  0  0
 26 32  1  0  0  0  0
 27 28  1  0  0  0  0
 28 29  1  0  0  0  0
 28 33  2  0  0  0  0
 29 31  1  0  0  0  0
 31 34  2  0  0  0  0
 34 35  1  0  0  0  0
 34 38  1  0  0  0  0
 35 36  1  0  0  0  0
 36 37  1  0  0  0  0
 37 38  1  0  0  0  0
M  END
$$$$

 OpenBabel10082411353D

 38 43  0  0  0  0  0  0  0  0999 V2000
   11.6836    6.0105   -4.8831 C   0  0  0  0  0  0  0  0  0  0  0  0
   11.1291    7.0732   -5.4395 C   0  0  0  0  0  0  0  0  0  0  0  0
   10.6954    7.0156   -6.8073 C   0  0  0  0  0  0  0  0  0  0  0  0
   10.2502    8.1187   -7.5536 C   0  0  2  0  0  0  0  0  0  0  0  0
   11.1205    8.4712   -4.9629 C   0  0  0  0  0  0  0  0  0  0  0  0
   10.8655    8.3511   -8.7960 C   0  0  0  0  0  0  0  0  0  0  0  0
   10.2922    7.8843   -9.9985 C   0  0  0  0  0  0  0  0  0  0  0  0
   10.4654    9.6993   -5.6120 C   0  0  0  0  0  0  0  0  0  0  0  0
   10.3510    9.5971   -7.0014 C   0  0  0  0  0  0  0  0  0  0  0  0
   12.2462    6.3351   -3.5020 C   0  0  0  0  0  0  0  0  0  0  0  0
   11.0471    7.5309  -11.1063 C   0  0  0  0  0  0  0  0  0  0  0  0
   11.7288    8.6923   -3.6518 C   0  0  0  0  0  0  0  0  0  0  0  0
   12.3991    7.7501  -11.1145 C   0  0  0  0  0  0  0  0  0  0  0  0
   12.3738    7.7580   -2.9599 C   0  0  0  0  0  0  0  0  0  0  0  0
   13.1285    8.5075  -10.1661 O   0  0  0  0  0  0  0  0  0  0  0  0
    9.0407    7.3775  -10.0973 N   0  0  0  0  0  0  0  0  0  0  0  0
    8.9787    6.9473  -11.4664 N   0  0  0  0  0  0  0  0  0  0  0  0
   13.1012    7.4459  -12.3707 C   0  0  0  0  0  0  0  0  0  0  0  0
   12.2395    6.9724  -13.2444 C   0  0  0  0  0  0  0  0  0  0  0  0
   10.2768    7.0170  -11.9799 C   0  0  0  0  0  0  0  0  0  0  0  0
   12.9237    6.5822  -14.5759 O   0  0  0  0  0  0  0  0  0  0  0  0
   10.8906    6.6526  -13.2252 C   0  0  0  0  0  0  0  0  0  0  0  0
   12.2396    6.1290  -15.6916 C   0  0  0  0  0  0  0  0  0  0  0  0
    7.7368    6.4514  -12.0707 C   0  0  0  0  0  0  0  0  0  0  0  0
    7.1353    7.2872  -12.8105 C   0  0  0  0  0  0  0  0  0  0  0  0
    7.6622    5.0135  -12.1225 C   0  0  0  0  0  0  0  0  0  0  0  0
   12.5092    4.6950  -15.8147 C   0  0  0  0  0  0  0  0  0  0  0  0
    5.9403    6.5840  -13.2897 C   0  0  0  0  0  0  0  0  0  0  0  0
   11.2738    3.8422  -15.5220 N   0  0  0  0  0  0  0  0  0  0  0  0
    8.7139    4.1736  -11.4601 C   0  0  0  0  0  0  0  0  0  0  0  0
    5.7546    5.3014  -13.2955 C   0  0  0  0  0  0  0  0  0  0  0  0
   10.5665    3.9988  -14.5162 C   0  0  0  0  0  0  0  0  0  0  0  0
    6.6518    4.4534  -12.6459 C   0  0  0  0  0  0  0  0  0  0  0  0
   11.1930    2.6728  -16.3047 C   0  0  0  0  0  0  0  0  0  0  0  0
    9.3666    3.2067  -14.4637 C   0  0  0  0  0  0  0  0  0  0  0  0
   10.1774    1.9143  -16.2256 C   0  0  0  0  0  0  0  0  0  0  0  0
    9.2122    2.2167  -15.1007 C   0  0  2  0  0  0  0  0  0  0  0  0
    8.0290    1.4244  -14.9859 C   0  0  0  0  0  0  0  0  0  0  0  0
  1  2  1  0  0  0  0
  1 10  2  0  0  0  0
  2  3  1  0  0  0  0
  2  5  2  0  0  0  0
  3  4  1  0  0  0  0
  4  6  1  6  0  0  0
  4  9  1  0  0  0  0
  5  8  1  0  0  0  0
  5 12  1  0  0  0  0
  6  7  1  0  0  0  0
  7 11  1  0  0  0  0
  7 16  2  0  0  0  0
  8  9  1  0  0  0  0
 10 14  1  0  0  0  0
 11 13  2  0  0  0  0
 11 20  1  0  0  0  0
 12 14  2  0  0  0  0
 13 15  1  0  0  0  0
 13 18  1  0  0  0  0
 16 17  1  0  0  0  0
 17 20  1  0  0  0  0
 17 24  1  0  0  0  0
 18 19  2  0  0  0  0
 19 21  1  0  0  0  0
 19 22  1  0  0  0  0
 20 22  2  0  0  0  0
 21 23  1  0  0  0  0
 23 27  1  0  0  0  0
 24 25  2  0  0  0  0
 24 26  1  0  0  0  0
 25 28  1  0  0  0  0
 26 30  1  0  0  0  0
 26 33  2  0  0  0  0
 27 29  1  0  0  0  0
 28 31  2  0  0  0  0
 29 32  1  0  0  0  0
 29 34  1  0  0  0  0
 31 33  1  0  0  0  0
 32 35  2  0  0  0  0
 34 36  2  0  0  0  0
 35 37  1  0  0  0  0
 36 37  1  0  0  0  0
 37 38  1  6  0  0  0
M  END
$$$$

 OpenBabel10082411353D

 26 29  0  0  0  0  0  0  0  0999 V2000
   10.9951    9.9694   -4.9946 C   0  0  0  0  0  0  0  0  0  0  0  0
   11.7938    9.3762   -4.2463 C   0  0  0  0  0  0  0  0  0  0  0  0
   10.8673    9.4548   -6.4276 C   0  0  0  0  0  0  0  0  0  0  0  0
   11.6576    7.9117   -4.2944 C   0  0  0  0  0  0  0  0  0  0  0  0
   10.5498    8.0257   -6.4521 C   0  0  0  0  0  0  0  0  0  0  0  0
   11.4715    7.2752   -5.6166 C   0  0  0  0  0  0  0  0  0  0  0  0
   10.5840    7.5390   -7.9254 C   0  0  0  0  0  0  0  0  0  0  0  0
   11.4612    8.1494   -8.8322 C   0  0  0  0  0  0  0  0  0  0  0  0
   12.6250    8.6294   -8.4338 O   0  0  0  0  0  0  0  0  0  0  0  0
   11.0835    8.4395  -10.0740 O   0  0  0  0  0  0  0  0  0  0  0  0
   11.2938    7.5612  -11.0769 C   0  0  1  0  0  0  0  0  0  0  0  0
   10.1547    7.2525  -11.9492 C   0  0  0  0  0  0  0  0  0  0  0  0
   10.4293    6.5622  -13.1348 C   0  0  0  0  0  0  0  0  0  0  0  0
   11.7295    6.4217  -13.6243 C   0  0  0  0  0  0  0  0  0  0  0  0
    8.7944    7.5590  -11.6123 C   0  0  1  0  0  0  0  0  0  0  0  0
   12.5537    7.8766  -11.6623 C   0  0  0  0  0  0  0  0  0  0  0  0
    8.3227    8.8234  -11.9576 C   0  0  0  0  0  0  0  0  0  0  0  0
    7.8789    6.3689  -11.9729 C   0  0  0  0  0  0  0  0  0  0  0  0
   12.7850    7.2972  -12.9839 C   0  0  0  0  0  0  0  0  0  0  0  0
   12.0731    5.5969  -14.4476 C   0  0  0  0  0  0  0  0  0  0  0  0
    8.3335    5.6916  -12.9896 C   0  0  0  0  0  0  0  0  0  0  0  0
    9.5105    5.6776  -13.5546 C   0  0  0  0  0  0  0  0  0  0  0  0
   11.0914    4.7187  -15.0981 C   0  0  0  0  0  0  0  0  0  0  0  0
    9.7989    4.7829  -14.6146 C   0  0  0  0  0  0  0  0  0  0  0  0
   11.4744    3.8601  -16.1878 O   0  0  0  0  0  0  0  0  0  0  0  0
   12.1488    2.8360  -15.9248 C   0  0  0  0  0  0  0  0  0  0  0  0
  1  2  1  0  0  0  0
  1  3  1  0  0  0  0
  2  4  1  0  0  0  0
  3  5  1  0  0  0  0
  4  6  1  0  0  0  0
  5  6  1  0  0  0  0
  5  7  1  0  0  0  0
  7  8  1  0  0  0  0
  8  9  2  0  0  0  0
  8 10  1  0  0  0  0
 11 10  1  6  0  0  0
 11 12  1  0  0  0  0
 11 16  1  0  0  0  0
 12 13  2  0  0  0  0
 12 15  1  0  0  0  0
 13 14  1  0  0  0  0
 13 22  1  0  0  0  0
 14 19  1  0  0  0  0
 14 20  2  0  0  0  0
 15 17  1  6  0  0  0
 15 18  1  0  0  0  0
 16 19  1  0  0  0  0
 18 21  1  0  0  0  0
 20 23  1  0  0  0  0
 21 22  2  0  0  0  0
 22 24  1  0  0  0  0
 23 24  2  0  0  0  0
 23 25  1  0  0  0  0
 25 26  1  0  0  0  0
M  END
$$$$

 OpenBabel10082411353D

 38 46  0  0  0  0  0  0  0  0999 V2000
    8.0806    9.0240  -12.7589 C   0  0  0  0  0  0  0  0  0  0  0  0
    8.6514    7.8645  -12.2948 C   0  0  0  0  0  0  0  0  0  0  0  0
    9.9575    7.9974  -11.8426 C   0  0  0  0  0  0  0  0  0  0  0  0
   10.7657    6.8667  -11.6050 C   0  0  1  0  0  0  0  0  0  0  0  0
   10.7682    5.9590  -12.8271 C   0  0  0  0  0  0  0  0  0  0  0  0
   12.1553    7.3846  -11.2315 C   0  0  0  0  0  0  0  0  0  0  0  0
    8.0676    6.6451  -12.2974 C   0  0  0  0  0  0  0  0  0  0  0  0
   10.1892    6.1240  -10.3860 C   0  0  0  0  0  0  0  0  0  0  0  0
   11.8375    5.4373  -13.3240 O   0  0  0  0  0  0  0  0  0  0  0  0
    8.6785    5.4761  -13.0273 C   0  0  1  0  0  0  0  0  0  0  0  0
    9.1969    5.2405  -10.4969 C   0  0  1  0  0  0  0  0  0  0  0  0
    7.2213    6.2210  -11.3074 C   0  0  1  0  0  0  0  0  0  0  0  0
   12.5590    7.6872   -9.9896 C   0  0  0  0  0  0  0  0  0  0  0  0
    9.7633    5.0333  -12.9720 C   0  0  1  0  0  0  0  0  0  0  0  0
   10.0661    4.0167  -14.0373 N   0  0  0  0  0  0  0  0  0  0  0  0
   13.6906    8.3004   -9.6233 O   0  0  0  0  0  0  0  0  0  0  0  0
    7.6357    4.5123  -12.6317 C   0  0  2  0  0  0  0  0  0  0  0  0
    6.8831    4.9171  -11.7031 C   0  0  0  0  0  0  0  0  0  0  0  0
   10.5937    6.6967   -9.1779 C   0  0  0  0  0  0  0  0  0  0  0  0
    9.5087    4.3263  -11.6925 C   0  0  2  0  0  0  0  0  0  0  0  0
   11.6359    7.4449   -8.9125 C   0  0  0  0  0  0  0  0  0  0  0  0
   11.9716    7.9159   -7.6200 C   0  0  0  0  0  0  0  0  0  0  0  0
    8.4648    3.6122  -12.2840 C   0  0  2  0  0  0  0  0  0  0  0  0
    9.3128    4.5571   -9.1689 C   0  0  0  0  0  0  0  0  0  0  0  0
   10.9557    7.6369   -6.5929 C   0  0  2  0  0  0  0  0  0  0  0  0
    9.6490    2.8108  -13.7776 C   0  0  1  0  0  0  0  0  0  0  0  0
    9.6716    6.1981   -8.0224 C   0  0  2  0  0  0  0  0  0  0  0  0
    8.5511    2.5400  -13.1402 C   0  0  0  0  0  0  0  0  0  0  0  0
    9.7877    2.0302  -15.0383 O   0  0  0  0  0  0  0  0  0  0  0  0
   10.2949    6.3957   -6.8142 C   0  0  0  0  0  0  0  0  0  0  0  0
    8.7552    3.1757   -9.1739 O   0  0  0  0  0  0  0  0  0  0  0  0
   10.0241    8.9015   -6.4644 C   0  0  0  0  0  0  0  0  0  0  0  0
   11.5641    7.7572   -5.1363 C   0  0  0  0  0  0  0  0  0  0  0  0
   11.9638    6.4982   -4.7315 C   0  0  0  0  0  0  0  0  0  0  0  0
   12.8048    8.7125   -5.1346 C   0  0  0  0  0  0  0  0  0  0  0  0
    9.1957    5.0141   -8.0781 N   0  0  0  0  0  0  0  0  0  0  0  0
    7.9453    5.6437  -10.4835 C   0  0  0  0  0  0  0  0  0  0  0  0
   10.9014    8.4103   -4.1039 O   0  0  0  0  0  0  0  0  0  0  0  0
  1  2  1  0  0  0  0
  2  3  1  0  0  0  0
  2  7  2  0  0  0  0
  4  3  1  6  0  0  0
  4  5  1  0  0  0  0
  4  6  1  0  0  0  0
  4  8  1  0  0  0  0
  5  9  2  0  0  0  0
  6 13  1  0  0  0  0
  7 12  1  0  0  0  0
  8 11  1  0  0  0  0
  8 19  2  0  0  0  0
 10  7  1  1  0  0  0
 10 14  1  0  0  0  0
 10 17  1  0  0  0  0
 11 20  1  0  0  0  0
 11 24  1  0  0  0  0
 11 37  1  6  0  0  0
 12 18  1  6  0  0  0
 12 37  1  0  0  0  0
 13 16  2  0  0  0  0
 13 21  1  0  0  0  0
 14  5  1  1  0  0  0
 14 15  1  0  0  0  0
 14 20  1  0  0  0  0
 15 26  1  0  0  0  0
 17 18  1  1  0  0  0
 17 23  1  0  0  0  0
 19 21  1  0  0  0  0
 19 27  1  0  0  0  0
 20 23  1  0  0  0  0
 21 22  2  0  0  0  0
 22 25  1  0  0  0  0
 23 28  1  0  0  0  0
 24 31  2  0  0  0  0
 24 36  1  0  0  0  0
 25 30  1  0  0  0  0
 25 32  1  0  0  0  0
 25 33  1  0  0  0  0
 26 28  1  0  0  0  0
 26 29  1  0  0  0  0
 27 30  1  0  0  0  0
 27 36  1  0  0  0  0
 33 34  1  0  0  0  0
 33 35  1  0  0  0  0
 33 38  1  0  0  0  0
M  END
$$$$

 OpenBabel10082411353D

 38 43  0  0  0  0  0  0  0  0999 V2000
   11.6836    6.0105   -4.8831 C   0  0  0  0  0  0  0  0  0  0  0  0
   11.1291    7.0732   -5.4395 C   0  0  0  0  0  0  0  0  0  0  0  0
   10.6954    7.0156   -6.8073 C   0  0  0  0  0  0  0  0  0  0  0  0
   10.2502    8.1187   -7.5536 C   0  0  2  0  0  0  0  0  0  0  0  0
   11.1205    8.4712   -4.9629 C   0  0  0  0  0  0  0  0  0  0  0  0
   10.8655    8.3511   -8.7960 C   0  0  0  0  0  0  0  0  0  0  0  0
   10.2922    7.8843   -9.9985 C   0  0  0  0  0  0  0  0  0  0  0  0
   10.4654    9.6993   -5.6120 C   0  0  0  0  0  0  0  0  0  0  0  0
   10.3510    9.5971   -7.0014 C   0  0  0  0  0  0  0  0  0  0  0  0
   12.2462    6.3351   -3.5020 C   0  0  0  0  0  0  0  0  0  0  0  0
   11.0471    7.5309  -11.1063 C   0  0  0  0  0  0  0  0  0  0  0  0
   11.7288    8.6923   -3.6518 C   0  0  0  0  0  0  0  0  0  0  0  0
   12.3991    7.7501  -11.1145 C   0  0  0  0  0  0  0  0  0  0  0  0
   12.3738    7.7580   -2.9599 C   0  0  0  0  0  0  0  0  0  0  0  0
   13.1285    8.5075  -10.1661 O   0  0  0  0  0  0  0  0  0  0  0  0
    9.0407    7.3775  -10.0973 N   0  0  0  0  0  0  0  0  0  0  0  0
    8.9787    6.9473  -11.4664 N   0  0  0  0  0  0  0  0  0  0  0  0
   13.1012    7.4459  -12.3707 C   0  0  0  0  0  0  0  0  0  0  0  0
   12.2395    6.9724  -13.2444 C   0  0  0  0  0  0  0  0  0  0  0  0
   10.2768    7.0170  -11.9799 C   0  0  0  0  0  0  0  0  0  0  0  0
   12.9237    6.5822  -14.5759 O   0  0  0  0  0  0  0  0  0  0  0  0
   10.8906    6.6526  -13.2252 C   0  0  0  0  0  0  0  0  0  0  0  0
   12.2396    6.1290  -15.6916 C   0  0  0  0  0  0  0  0  0  0  0  0
    7.8036    6.1825  -11.9342 C   0  0  0  0  0  0  0  0  0  0  0  0
   12.5015    4.7115  -15.7686 C   0  0  0  0  0  0  0  0  0  0  0  0
    7.1685    6.9992  -12.8245 C   0  0  0  0  0  0  0  0  0  0  0  0
   11.2461    3.8540  -15.4851 C   0  0  0  0  0  0  0  0  0  0  0  0
    7.6237    4.9154  -11.6529 C   0  0  0  0  0  0  0  0  0  0  0  0
    6.6378    4.1960  -12.2267 C   0  0  0  0  0  0  0  0  0  0  0  0
    6.2717    2.7675  -11.9743 C   0  0  0  0  0  0  0  0  0  0  0  0
    6.6569    1.8873  -12.9460 C   0  0  0  0  0  0  0  0  0  0  0  0
    7.3895    8.4597  -13.1785 C   0  0  0  0  0  0  0  0  0  0  0  0
    6.3114    0.5653  -12.7247 C   0  0  0  0  0  0  0  0  0  0  0  0
    7.7684    2.0327  -13.9055 C   0  0  0  0  0  0  0  0  0  0  0  0
    6.9387   -0.3720  -13.7691 C   0  0  0  0  0  0  0  0  0  0  0  0
    8.4223    3.3339  -14.0264 C   0  0  0  0  0  0  0  0  0  0  0  0
    8.1521    0.8303  -14.5801 C   0  0  0  0  0  0  0  0  0  0  0  0
    9.7011    3.4367  -14.9805 C   0  0  0  0  0  0  0  0  0  0  0  0
  1  2  1  0  0  0  0
  1 10  2  0  0  0  0
  2  3  1  0  0  0  0
  2  5  2  0  0  0  0
  3  4  1  0  0  0  0
  4  6  1  6  0  0  0
  4  9  1  0  0  0  0
  5  8  1  0  0  0  0
  5 12  1  0  0  0  0
  6  7  1  0  0  0  0
  7 11  1  0  0  0  0
  7 16  2  0  0  0  0
  8  9  1  0  0  0  0
 10 14  1  0  0  0  0
 11 13  2  0  0  0  0
 11 20  1  0  0  0  0
 12 14  2  0  0  0  0
 13 15  1  0  0  0  0
 13 18  1  0  0  0  0
 16 17  1  0  0  0  0
 17 20  1  0  0  0  0
 17 24  1  0  0  0  0
 18 19  2  0  0  0  0
 19 21  1  0  0  0  0
 19 22  1  0  0  0  0
 20 22  2  0  0  0  0
 21 23  1  0  0  0  0
 23 25  1  0  0  0  0
 24 26  2  3  0  0  0
 24 28  1  0  0  0  0
 25 27  1  0  0  0  0
 26 32  1  0  0  0  0
 27 38  3  0  0  0  0
 28 29  2  0  0  0  0
 29 30  1  0  0  0  0
 30 31  1  0  0  0  0
 31 33  2  0  0  0  0
 31 34  1  0  0  0  0
 33 35  1  0  0  0  0
 34 36  2  0  0  0  0
 34 37  1  0  0  0  0
 35 37  2  0  0  0  0
 36 38  1  0  0  0  0
M  END
$$$$

 OpenBabel10082411353D

 38 43  0  0  0  0  0  0  0  0999 V2000
   12.7863    7.8241  -14.2109 C   0  0  0  0  0  0  0  0  0  0  0  0
   12.4233    7.7158  -13.0289 C   0  0  0  0  0  0  0  0  0  0  0  0
   11.3194    6.8571  -12.8028 C   0  0  0  0  0  0  0  0  0  0  0  0
   12.3150    7.2021  -15.3582 C   0  0  0  0  0  0  0  0  0  0  0  0
   11.2733    6.2739  -15.1502 C   0  0  0  0  0  0  0  0  0  0  0  0
   10.8099    6.0126  -13.8600 C   0  0  0  0  0  0  0  0  0  0  0  0
    9.6782    5.1428  -13.6488 C   0  0  0  0  0  0  0  0  0  0  0  0
    8.5753    5.3880  -12.9589 N   0  0  0  0  0  0  0  0  0  0  0  0
    8.3226    6.7011  -12.3862 C   0  0  0  0  0  0  0  0  0  0  0  0
    9.8502    3.8578  -14.0728 C   0  0  0  0  0  0  0  0  0  0  0  0
    7.3864    7.4720  -13.0530 C   0  0  0  0  0  0  0  0  0  0  0  0
    6.2412    7.8486  -12.2599 C   0  0  0  0  0  0  0  0  0  0  0  0
    7.6425    4.4186  -12.7943 C   0  0  0  0  0  0  0  0  0  0  0  0
   11.0297    3.2482  -14.8053 C   0  0  0  0  0  0  0  0  0  0  0  0
    8.6802    2.8955  -13.7960 C   0  0  0  0  0  0  0  0  0  0  0  0
    8.8565    1.5917  -14.3582 O   0  0  0  0  0  0  0  0  0  0  0  0
    7.6903    3.2226  -13.1994 N   0  0  0  0  0  0  0  0  0  0  0  0
    6.5724    2.3444  -12.8378 C   0  0  0  0  0  0  0  0  0  0  0  0
    9.0225    7.0353  -11.3259 C   0  0  0  0  0  0  0  0  0  0  0  0
    6.4787    4.7532  -12.1787 O   0  0  0  0  0  0  0  0  0  0  0  0
   10.5868    7.0468  -11.5199 C   0  0  0  0  0  0  0  0  0  0  0  0
   11.2761    7.4007  -10.4131 C   0  0  0  0  0  0  0  0  0  0  0  0
    8.6862    7.4300   -9.9877 C   0  0  0  0  0  0  0  0  0  0  0  0
    9.4326    7.6744   -8.9657 C   0  0  0  0  0  0  0  0  0  0  0  0
   10.6794    7.6568   -9.1312 C   0  0  2  0  0  0  0  0  0  0  0  0
    8.9269    7.9839   -7.6612 C   0  0  0  0  0  0  0  0  0  0  0  0
   11.4232    7.9744   -7.9321 C   0  0  0  0  0  0  0  0  0  0  0  0
   10.9573    8.3184   -6.8885 C   0  0  0  0  0  0  0  0  0  0  0  0
    7.5782    7.8797   -7.5710 F   0  0  0  0  0  0  0  0  0  0  0  0
   11.9524    8.6726   -5.5732 C   0  0  0  0  0  0  0  0  0  0  0  0
   12.5628    9.9251   -5.6215 C   0  0  0  0  0  0  0  0  0  0  0  0
   11.7409    8.0483   -4.4624 C   0  0  0  0  0  0  0  0  0  0  0  0
   12.5004    8.4224   -3.2820 C   0  0  0  0  0  0  0  0  0  0  0  0
    9.5813    8.2566   -6.6568 C   0  0  0  0  0  0  0  0  0  0  0  0
   12.4058    7.4585   -1.9883 C   0  0  0  0  0  0  0  0  0  0  0  0
   13.3041    9.5370   -3.3129 C   0  0  0  0  0  0  0  0  0  0  0  0
   12.5958   10.7247   -6.8298 O   0  0  0  0  0  0  0  0  0  0  0  0
   13.2535   10.2695   -4.4951 C   0  0  0  0  0  0  0  0  0  0  0  0
  1  2  2  0  0  0  0
  1  4  1  0  0  0  0
  2  3  1  0  0  0  0
  3  6  2  0  0  0  0
  3 21  1  0  0  0  0
  4  5  2  0  0  0  0
  5  6  1  0  0  0  0
  6  7  1  0  0  0  0
  7  8  1  0  0  0  0
  7 10  2  0  0  0  0
  8  9  1  0  0  0  0
  8 13  1  0  0  0  0
  9 11  1  0  0  0  0
  9 19  2  0  0  0  0
 10 14  1  0  0  0  0
 10 15  1  0  0  0  0
 11 12  1  0  0  0  0
 13 17  1  0  0  0  0
 13 20  2  0  0  0  0
 15 16  2  0  0  0  0
 15 17  1  0  0  0  0
 17 18  1  0  0  0  0
 19 21  1  0  0  0  0
 19 23  1  0  0  0  0
 21 22  2  0  0  0  0
 23 24  2  0  0  0  0
 24 25  1  0  0  0  0
 24 26  1  0  0  0  0
 25 22  1  6  0  0  0
 25 27  1  0  0  0  0
 26 29  1  0  0  0  0
 26 34  2  0  0  0  0
 27 28  2  0  0  0  0
 28 30  1  0  0  0  0
 28 34  1  0  0  0  0
 30 31  1  0  0  0  0
 30 32  2  0  0  0  0
 31 37  1  0  0  0  0
 31 38  2  0  0  0  0
 32 33  1  0  0  0  0
 33 35  1  0  0  0  0
 33 36  2  0  0  0  0
 36 38  1  0  0  0  0
M  END
$$$$

 OpenBabel10082411353D

 38 44  0  0  0  0  0  0  0  0999 V2000
   12.7863    7.8241  -14.2109 C   0  0  0  0  0  0  0  0  0  0  0  0
   12.4233    7.7158  -13.0289 C   0  0  0  0  0  0  0  0  0  0  0  0
   11.3194    6.8571  -12.8028 C   0  0  0  0  0  0  0  0  0  0  0  0
   12.3150    7.2021  -15.3582 C   0  0  0  0  0  0  0  0  0  0  0  0
   11.2733    6.2739  -15.1502 C   0  0  0  0  0  0  0  0  0  0  0  0
   10.8099    6.0126  -13.8600 C   0  0  0  0  0  0  0  0  0  0  0  0
    9.6782    5.1428  -13.6488 C   0  0  0  0  0  0  0  0  0  0  0  0
    8.5753    5.3880  -12.9589 N   0  0  0  0  0  0  0  0  0  0  0  0
    8.3226    6.7011  -12.3862 C   0  0  0  0  0  0  0  0  0  0  0  0
    9.8502    3.8578  -14.0728 C   0  0  0  0  0  0  0  0  0  0  0  0
    7.3864    7.4720  -13.0530 C   0  0  0  0  0  0  0  0  0  0  0  0
    6.2412    7.8486  -12.2599 C   0  0  0  0  0  0  0  0  0  0  0  0
    7.6425    4.4186  -12.7943 C   0  0  0  0  0  0  0  0  0  0  0  0
   11.0297    3.2482  -14.8053 C   0  0  0  0  0  0  0  0  0  0  0  0
    8.6802    2.8955  -13.7960 C   0  0  0  0  0  0  0  0  0  0  0  0
    8.8565    1.5917  -14.3582 O   0  0  0  0  0  0  0  0  0  0  0  0
    7.6903    3.2226  -13.1994 N   0  0  0  0  0  0  0  0  0  0  0  0
    6.5724    2.3444  -12.8378 C   0  0  0  0  0  0  0  0  0  0  0  0
    9.0225    7.0353  -11.3259 C   0  0  0  0  0  0  0  0  0  0  0  0
    6.2405    4.8489  -12.4515 C   0  0  0  0  0  0  0  0  0  0  0  0
   10.5875    7.0617  -11.5321 C   0  0  0  0  0  0  0  0  0  0  0  0
   11.0960    7.6093  -10.4100 C   0  0  0  0  0  0  0  0  0  0  0  0
    8.4039    7.3336  -10.1102 C   0  0  0  0  0  0  0  0  0  0  0  0
    5.5911    3.3517  -12.3508 C   0  0  0  0  0  0  0  0  0  0  0  0
   12.6259    7.6530  -10.3901 C   0  0  0  0  0  0  0  0  0  0  0  0
   10.4284    7.7784   -9.2128 C   0  0  0  0  0  0  0  0  0  0  0  0
    9.2236    7.5051   -9.0617 C   0  0  2  0  0  0  0  0  0  0  0  0
    8.7145    7.3063   -7.7135 N   0  0  0  0  0  0  0  0  0  0  0  0
    9.3548    8.2125   -6.8305 C   0  0  0  0  0  0  0  0  0  0  0  0
   13.2400    8.3532   -9.3250 C   0  0  0  0  0  0  0  0  0  0  0  0
    8.8718    5.9168   -7.2228 C   0  0  0  0  0  0  0  0  0  0  0  0
   12.5074    8.3587   -8.0386 C   0  0  0  0  0  0  0  0  0  0  0  0
   11.1924    8.1932   -7.9474 C   0  0  0  0  0  0  0  0  0  0  0  0
   10.5178    8.6952   -6.8252 C   0  0  0  0  0  0  0  0  0  0  0  0
   11.2414    9.5732   -5.7893 C   0  0  0  0  0  0  0  0  0  0  0  0
   12.4652    9.1984   -5.1969 C   0  0  0  0  0  0  0  0  0  0  0  0
   11.2406   10.7951   -6.5258 C   0  0  0  0  0  0  0  0  0  0  0  0
   10.2835    9.6043   -4.5615 C   0  0  0  0  0  0  0  0  0  0  0  0
  1  2  2  0  0  0  0
  1  4  1  0  0  0  0
  2  3  1  0  0  0  0
  3  6  2  0  0  0  0
  3 21  1  0  0  0  0
  4  5  2  0  0  0  0
  5  6  1  0  0  0  0
  6  7  1  0  0  0  0
  7  8  1  0  0  0  0
  7 10  2  0  0  0  0
  8  9  1  0  0  0  0
  8 13  1  0  0  0  0
  9 11  1  0  0  0  0
  9 19  2  0  0  0  0
 10 14  1  0  0  0  0
 10 15  1  0  0  0  0
 11 12  1  0  0  0  0
 13 17  1  0  0  0  0
 13 20  2  0  0  0  0
 15 16  2  0  0  0  0
 15 17  1  0  0  0  0
 17 18  1  0  0  0  0
 18 24  1  0  0  0  0
 19 21  1  0  0  0  0
 19 23  1  0  0  0  0
 20 24  1  0  0  0  0
 21 22  2  0  0  0  0
 22 25  1  0  0  0  0
 22 26  1  0  0  0  0
 25 30  1  0  0  0  0
 26 27  1  0  0  0  0
 26 33  2  0  0  0  0
 27 23  1  6  0  0  0
 27 28  1  0  0  0  0
 28 29  1  0  0  0  0
 28 31  1  0  0  0  0
 29 34  2  0  0  0  0
 30 32  1  0  0  0  0
 32 33  1  0  0  0  0
 33 34  1  0  0  0  0
 34 35  1  0  0  0  0
 35 36  1  0  0  0  0
 35 37  1  0  0  0  0
 35 38  1  0  0  0  0
M  END
$$$$

 OpenBabel10082411353D

 38 44  0  0  0  0  0  0  0  0999 V2000
   12.8881    8.7759   -3.5681 C   0  0  0  0  0  0  0  0  0  0  0  0
   11.9416    9.4732   -4.1220 C   0  0  0  0  0  0  0  0  0  0  0  0
   12.3556    7.6012   -2.6527 C   0  0  0  0  0  0  0  0  0  0  0  0
   11.8805    9.3400   -5.6557 C   0  0  0  0  0  0  0  0  0  0  0  0
   11.7716    6.5414   -3.3821 C   0  0  0  0  0  0  0  0  0  0  0  0
   10.8523    8.6585   -6.3310 C   0  0  0  0  0  0  0  0  0  0  0  0
   11.1142    8.2520   -7.7289 C   0  0  0  0  0  0  0  0  0  0  0  0
   10.0478    7.6568   -8.4887 C   0  0  0  0  0  0  0  0  0  0  0  0
   12.3648    8.4339   -8.3703 C   0  0  0  0  0  0  0  0  0  0  0  0
   12.6142    8.1352   -9.7322 C   0  0  0  0  0  0  0  0  0  0  0  0
   10.2852    7.3833   -9.9138 C   0  0  0  0  0  0  0  0  0  0  0  0
   11.5161    7.5808  -10.4860 C   0  0  0  0  0  0  0  0  0  0  0  0
   11.6641    7.2285  -11.8174 O   0  0  0  0  0  0  0  0  0  0  0  0
   10.8624    6.4419  -12.4395 C   0  0  0  0  0  0  0  0  0  0  0  0
   11.2693    5.8267  -13.4966 C   0  0  0  0  0  0  0  0  0  0  0  0
    9.5259    6.2192  -11.9953 C   0  0  0  0  0  0  0  0  0  0  0  0
    9.2551    6.6732  -10.5921 C   0  0  2  0  0  0  0  0  0  0  0  0
    8.1388    7.5201  -10.6434 O   0  0  0  0  0  0  0  0  0  0  0  0
   12.6263    6.1828  -14.1606 C   0  0  0  0  0  0  0  0  0  0  0  0
    7.2614    7.1893  -11.7193 C   0  0  2  0  0  0  0  0  0  0  0  0
   12.6352    7.3184  -14.7782 C   0  0  0  0  0  0  0  0  0  0  0  0
    8.2277    6.2735  -12.5381 C   0  0  0  0  0  0  0  0  0  0  0  0
    7.7180    5.1928  -13.4230 C   0  0  0  0  0  0  0  0  0  0  0  0
    8.4439    4.2015  -13.9045 C   0  0  0  0  0  0  0  0  0  0  0  0
    6.9950    8.4483  -12.4502 C   0  0  0  0  0  0  0  0  0  0  0  0
    7.7472    3.2985  -14.8364 C   0  0  0  0  0  0  0  0  0  0  0  0
    9.0300    5.4319   -9.7786 C   0  0  0  0  0  0  0  0  0  0  0  0
    8.1705    1.9584  -14.6092 C   0  0  0  0  0  0  0  0  0  0  0  0
    9.3621    1.6865  -14.2893 C   0  0  0  0  0  0  0  0  0  0  0  0
    9.9085    4.0088  -13.8348 C   0  0  1  0  0  0  0  0  0  0  0  0
    9.8911    0.4282  -14.4990 O   0  0  0  0  0  0  0  0  0  0  0  0
   10.3495    2.6692  -14.0340 C   0  0  0  0  0  0  0  0  0  0  0  0
   11.0142    4.6491  -14.2939 C   0  0  0  0  0  0  0  0  0  0  0  0
   11.7178    4.3768  -15.3164 C   0  0  0  0  0  0  0  0  0  0  0  0
   12.9473    5.2126  -15.4114 C   0  0  0  0  0  0  0  0  0  0  0  0
   13.8803    5.2487  -16.1699 C   0  0  0  0  0  0  0  0  0  0  0  0
   14.3609    6.6048  -16.3549 C   0  0  0  0  0  0  0  0  0  0  0  0
   13.8149    7.6605  -15.5784 C   0  0  0  0  0  0  0  0  0  0  0  0
  1  2  1  0  0  0  0
  1  3  1  0  0  0  0
  2  4  1  0  0  0  0
  3  5  1  0  0  0  0
  4  6  1  0  0  0  0
  6  7  1  0  0  0  0
  7  8  1  0  0  0  0
  7  9  2  0  0  0  0
  8 11  2  0  0  0  0
  9 10  1  0  0  0  0
 10 12  2  0  0  0  0
 11 12  1  0  0  0  0
 11 17  1  0  0  0  0
 12 13  1  0  0  0  0
 13 14  1  0  0  0  0
 14 15  2  0  0  0  0
 14 16  1  0  0  0  0
 15 19  1  0  0  0  0
 15 33  1  0  0  0  0
 16 17  1  0  0  0  0
 16 22  2  0  0  0  0
 17 18  1  0  0  0  0
 17 27  1  1  0  0  0
 18 20  1  0  0  0  0
 19 21  2  0  0  0  0
 19 35  1  0  0  0  0
 20 22  1  0  0  0  0
 20 25  1  6  0  0  0
 21 38  1  0  0  0  0
 22 23  1  0  0  0  0
 23 24  2  0  0  0  0
 24 26  1  0  0  0  0
 24 30  1  0  0  0  0
 26 28  2  0  0  0  0
 28 29  1  0  0  0  0
 29 31  1  0  0  0  0
 29 32  2  0  0  0  0
 30 32  1  6  0  0  0
 30 33  1  0  0  0  0
 33 34  2  0  0  0  0
 34 35  1  0  0  0  0
 35 36  2  0  0  0  0
 36 37  1  0  0  0  0
 37 38  2  0  0  0  0
M  END
$$$$

 OpenBabel10082411353D

 38 48  0  0  0  0  0  0  0  0999 V2000
    8.0806    9.0240  -12.7589 C   0  0  0  0  0  0  0  0  0  0  0  0
    8.6514    7.8645  -12.2948 C   0  0  0  0  0  0  0  0  0  0  0  0
    9.9575    7.9974  -11.8426 C   0  0  0  0  0  0  0  0  0  0  0  0
   10.7657    6.8667  -11.6050 C   0  0  1  0  0  0  0  0  0  0  0  0
   10.7682    5.9590  -12.8271 C   0  0  0  0  0  0  0  0  0  0  0  0
   12.1553    7.3846  -11.2315 C   0  0  0  0  0  0  0  0  0  0  0  0
    8.0676    6.6451  -12.2974 C   0  0  0  0  0  0  0  0  0  0  0  0
   10.1892    6.1240  -10.3860 C   0  0  0  0  0  0  0  0  0  0  0  0
   11.8375    5.4373  -13.3240 O   0  0  0  0  0  0  0  0  0  0  0  0
    8.6785    5.4761  -13.0273 C   0  0  1  0  0  0  0  0  0  0  0  0
    9.1969    5.2405  -10.4969 C   0  0  1  0  0  0  0  0  0  0  0  0
    7.2213    6.2210  -11.3074 C   0  0  1  0  0  0  0  0  0  0  0  0
   12.5590    7.6872   -9.9896 C   0  0  0  0  0  0  0  0  0  0  0  0
    9.7633    5.0333  -12.9720 C   0  0  1  0  0  0  0  0  0  0  0  0
   10.0661    4.0167  -14.0373 N   0  0  0  0  0  0  0  0  0  0  0  0
   13.6906    8.3004   -9.6233 O   0  0  0  0  0  0  0  0  0  0  0  0
    7.6357    4.5123  -12.6317 C   0  0  2  0  0  0  0  0  0  0  0  0
    6.8831    4.9171  -11.7031 C   0  0  1  0  0  0  0  0  0  0  0  0
   10.5937    6.6967   -9.1779 C   0  0  0  0  0  0  0  0  0  0  0  0
    9.5087    4.3263  -11.6925 C   0  0  2  0  0  0  0  0  0  0  0  0
   11.6359    7.4449   -8.9125 C   0  0  0  0  0  0  0  0  0  0  0  0
   11.9716    7.9159   -7.6200 C   0  0  0  0  0  0  0  0  0  0  0  0
    8.4648    3.6122  -12.2840 C   0  0  2  0  0  0  0  0  0  0  0  0
    9.3128    4.5571   -9.1689 C   0  0  0  0  0  0  0  0  0  0  0  0
   10.9557    7.6369   -6.5929 C   0  0  1  0  0  0  0  0  0  0  0  0
    9.6490    2.8108  -13.7776 C   0  0  1  0  0  0  0  0  0  0  0  0
    9.6716    6.1981   -8.0224 C   0  0  2  0  0  0  0  0  0  0  0  0
    8.5511    2.5400  -13.1402 C   0  0  0  0  0  0  0  0  0  0  0  0
    9.7877    2.0302  -15.0383 O   0  0  0  0  0  0  0  0  0  0  0  0
   10.2949    6.3957   -6.8142 C   0  0  0  0  0  0  0  0  0  0  0  0
   11.5442    7.8028   -5.1770 C   0  0  0  0  0  0  0  0  0  0  0  0
    9.3662    4.9454   -8.1688 C   0  0  0  0  0  0  0  0  0  0  0  0
    9.9825    8.6746   -6.2053 C   0  0  0  0  0  0  0  0  0  0  0  0
   11.8670    9.1982   -4.7195 C   0  0  2  0  0  0  0  0  0  0  0  0
   12.7706    9.9232   -5.2633 O   0  0  0  0  0  0  0  0  0  0  0  0
   11.7236    9.5566   -3.3664 C   0  0  0  0  0  0  0  0  0  0  0  0
   10.5639    9.8660   -5.4314 C   0  0  0  0  0  0  0  0  0  0  0  0
    7.9407    5.6517  -10.4884 C   0  0  1  0  0  0  0  0  0  0  0  0
  1  2  1  0  0  0  0
  2  3  1  0  0  0  0
  2  7  2  0  0  0  0
  4  3  1  6  0  0  0
  4  5  1  0  0  0  0
  4  6  1  0  0  0  0
  4  8  1  0  0  0  0
  5  9  2  0  0  0  0
  6 13  1  0  0  0  0
  8 11  1  0  0  0  0
  8 19  2  0  0  0  0
 10  7  1  1  0  0  0
 10 14  1  0  0  0  0
 10 17  1  0  0  0  0
 11 20  1  0  0  0  0
 11 24  1  1  0  0  0
 11 38  1  0  0  0  0
 12  7  1  6  0  0  0
 12 18  1  0  0  0  0
 12 38  1  0  0  0  0
 13 16  2  0  0  0  0
 13 21  1  0  0  0  0
 14  5  1  1  0  0  0
 14 15  1  0  0  0  0
 14 20  1  0  0  0  0
 15 26  1  0  0  0  0
 17 18  1  0  0  0  0
 17 23  1  0  0  0  0
 18 38  1  0  0  0  0
 19 21  1  0  0  0  0
 19 27  1  0  0  0  0
 20 23  1  0  0  0  0
 21 22  2  0  0  0  0
 22 25  1  0  0  0  0
 23 28  1  0  0  0  0
 24 32  2  0  0  0  0
 25 30  1  0  0  0  0
 25 31  1  0  0  0  0
 25 33  1  0  0  0  0
 26 28  1  0  0  0  0
 26 29  1  0  0  0  0
 27 30  1  0  0  0  0
 27 32  1  0  0  0  0
 31 34  1  0  0  0  0
 33 37  1  0  0  0  0
 34 35  1  0  0  0  0
 34 36  1  0  0  0  0
 34 37  1  0  0  0  0
M  END
$$$$

 OpenBabel10082411353D

 38 46  0  0  0  0  0  0  0  0999 V2000
    8.0806    9.0240  -12.7589 C   0  0  0  0  0  0  0  0  0  0  0  0
    8.6514    7.8645  -12.2948 C   0  0  0  0  0  0  0  0  0  0  0  0
    9.9575    7.9974  -11.8426 C   0  0  0  0  0  0  0  0  0  0  0  0
   10.7657    6.8667  -11.6050 C   0  0  1  0  0  0  0  0  0  0  0  0
   10.7682    5.9590  -12.8271 C   0  0  0  0  0  0  0  0  0  0  0  0
   12.1553    7.3846  -11.2315 C   0  0  0  0  0  0  0  0  0  0  0  0
    8.0676    6.6451  -12.2974 C   0  0  0  0  0  0  0  0  0  0  0  0
   10.1892    6.1240  -10.3860 C   0  0  0  0  0  0  0  0  0  0  0  0
   11.8375    5.4373  -13.3240 O   0  0  0  0  0  0  0  0  0  0  0  0
    8.6785    5.4761  -13.0273 C   0  0  1  0  0  0  0  0  0  0  0  0
    9.1969    5.2405  -10.4969 C   0  0  1  0  0  0  0  0  0  0  0  0
    7.2213    6.2210  -11.3074 C   0  0  0  0  0  0  0  0  0  0  0  0
   12.5590    7.6872   -9.9896 C   0  0  0  0  0  0  0  0  0  0  0  0
    9.7633    5.0333  -12.9720 C   0  0  1  0  0  0  0  0  0  0  0  0
   10.0661    4.0167  -14.0373 N   0  0  0  0  0  0  0  0  0  0  0  0
   13.6906    8.3004   -9.6233 O   0  0  0  0  0  0  0  0  0  0  0  0
    7.6357    4.5123  -12.6317 C   0  0  2  0  0  0  0  0  0  0  0  0
    6.8831    4.9171  -11.7031 C   0  0  0  0  0  0  0  0  0  0  0  0
   10.5937    6.6967   -9.1779 C   0  0  0  0  0  0  0  0  0  0  0  0
    9.5087    4.3263  -11.6925 C   0  0  2  0  0  0  0  0  0  0  0  0
   11.6359    7.4449   -8.9125 C   0  0  0  0  0  0  0  0  0  0  0  0
   11.9716    7.9159   -7.6200 C   0  0  0  0  0  0  0  0  0  0  0  0
    8.4648    3.6122  -12.2840 C   0  0  2  0  0  0  0  0  0  0  0  0
    9.3128    4.5571   -9.1689 C   0  0  0  0  0  0  0  0  0  0  0  0
   10.9557    7.6369   -6.5929 C   0  0  1  0  0  0  0  0  0  0  0  0
    9.6490    2.8108  -13.7776 C   0  0  1  0  0  0  0  0  0  0  0  0
    9.6716    6.1981   -8.0224 C   0  0  2  0  0  0  0  0  0  0  0  0
    8.5511    2.5400  -13.1402 C   0  0  0  0  0  0  0  0  0  0  0  0
    9.7877    2.0302  -15.0383 O   0  0  0  0  0  0  0  0  0  0  0  0
   10.2949    6.3957   -6.8142 C   0  0  0  0  0  0  0  0  0  0  0  0
   11.5672    7.6277   -5.2275 C   0  0  0  0  0  0  0  0  0  0  0  0
    9.9257    8.9082   -6.5228 C   0  0  0  0  0  0  0  0  0  0  0  0
    8.7436    3.1868   -9.1768 O   0  0  0  0  0  0  0  0  0  0  0  0
    9.2453    4.8876   -8.0562 C   0  0  0  0  0  0  0  0  0  0  0  0
   11.6951    6.3147   -4.7202 C   0  0  0  0  0  0  0  0  0  0  0  0
   12.0146    8.7257   -4.5097 C   0  0  0  0  0  0  0  0  0  0  0  0
   11.8117   10.2491   -5.0886 C   0  0  0  0  0  0  0  0  0  0  0  0
   10.4991   10.2694   -5.8713 C   0  0  0  0  0  0  0  0  0  0  0  0
  1  2  1  0  0  0  0
  2  3  1  0  0  0  0
  2  7  2  0  0  0  0
  4  3  1  6  0  0  0
  4  5  1  0  0  0  0
  4  6  1  0  0  0  0
  4  8  1  0  0  0  0
  5  9  2  0  0  0  0
  6 13  1  0  0  0  0
  7 12  1  0  0  0  0
  8 19  2  0  0  0  0
 10  7  1  1  0  0  0
 10 14  1  0  0  0  0
 10 17  1  0  0  0  0
 11  8  1  1  0  0  0
 11 20  1  0  0  0  0
 11 24  1  0  0  0  0
 12 18  1  0  0  0  0
 13 16  2  0  0  0  0
 13 21  1  0  0  0  0
 14  5  1  1  0  0  0
 14 15  1  0  0  0  0
 14 20  1  0  0  0  0
 15 26  1  0  0  0  0
 17 18  1  1  0  0  0
 17 23  1  0  0  0  0
 19 21  1  0  0  0  0
 19 27  1  0  0  0  0
 20 23  1  0  0  0  0
 21 22  2  0  0  0  0
 22 25  1  0  0  0  0
 23 28  1  0  0  0  0
 24 33  2  0  0  0  0
 24 34  1  0  0  0  0
 25 30  1  0  0  0  0
 25 31  1  0  0  0  0
 25 32  1  0  0  0  0
 26 28  1  0  0  0  0
 26 29  1  0  0  0  0
 27 30  1  0  0  0  0
 27 34  1  0  0  0  0
 31 35  1  0  0  0  0
 31 36  2  0  0  0  0
 32 38  1  0  0  0  0
 36 37  1  0  0  0  0
 37 38  1  0  0  0  0
M  END
$$$$

 OpenBabel10082411353D

 38 46  0  0  0  0  0  0  0  0999 V2000
    8.0806    9.0240  -12.7589 C   0  0  0  0  0  0  0  0  0  0  0  0
    8.6514    7.8645  -12.2948 C   0  0  0  0  0  0  0  0  0  0  0  0
    9.9575    7.9974  -11.8426 C   0  0  0  0  0  0  0  0  0  0  0  0
   10.7657    6.8667  -11.6050 C   0  0  1  0  0  0  0  0  0  0  0  0
   10.7682    5.9590  -12.8271 C   0  0  0  0  0  0  0  0  0  0  0  0
   12.1553    7.3846  -11.2315 C   0  0  0  0  0  0  0  0  0  0  0  0
    8.0676    6.6451  -12.2974 C   0  0  0  0  0  0  0  0  0  0  0  0
   10.1892    6.1240  -10.3860 C   0  0  0  0  0  0  0  0  0  0  0  0
   11.8375    5.4373  -13.3240 O   0  0  0  0  0  0  0  0  0  0  0  0
    8.6785    5.4761  -13.0273 C   0  0  1  0  0  0  0  0  0  0  0  0
    9.1969    5.2405  -10.4969 C   0  0  1  0  0  0  0  0  0  0  0  0
    7.2213    6.2210  -11.3074 C   0  0  1  0  0  0  0  0  0  0  0  0
   12.5590    7.6872   -9.9896 C   0  0  0  0  0  0  0  0  0  0  0  0
    9.7633    5.0333  -12.9720 C   0  0  1  0  0  0  0  0  0  0  0  0
   10.0661    4.0167  -14.0373 N   0  0  0  0  0  0  0  0  0  0  0  0
   13.6906    8.3004   -9.6233 O   0  0  0  0  0  0  0  0  0  0  0  0
    7.6357    4.5123  -12.6317 C   0  0  2  0  0  0  0  0  0  0  0  0
    6.8831    4.9171  -11.7031 C   0  0  0  0  0  0  0  0  0  0  0  0
   10.5937    6.6967   -9.1779 C   0  0  0  0  0  0  0  0  0  0  0  0
    9.5087    4.3263  -11.6925 C   0  0  2  0  0  0  0  0  0  0  0  0
   11.6359    7.4449   -8.9125 C   0  0  0  0  0  0  0  0  0  0  0  0
   11.9716    7.9159   -7.6200 C   0  0  0  0  0  0  0  0  0  0  0  0
    8.4648    3.6122  -12.2840 C   0  0  2  0  0  0  0  0  0  0  0  0
    9.3128    4.5571   -9.1689 C   0  0  0  0  0  0  0  0  0  0  0  0
   10.9557    7.6369   -6.5929 C   0  0  2  0  0  0  0  0  0  0  0  0
    9.6490    2.8108  -13.7776 C   0  0  1  0  0  0  0  0  0  0  0  0
    9.6716    6.1981   -8.0224 C   0  0  2  0  0  0  0  0  0  0  0  0
    8.5511    2.5400  -13.1402 C   0  0  0  0  0  0  0  0  0  0  0  0
    9.7877    2.0302  -15.0383 O   0  0  0  0  0  0  0  0  0  0  0  0
   10.2949    6.3957   -6.8142 C   0  0  0  0  0  0  0  0  0  0  0  0
    8.7552    3.1757   -9.1739 O   0  0  0  0  0  0  0  0  0  0  0  0
   10.0241    8.9015   -6.4644 C   0  0  0  0  0  0  0  0  0  0  0  0
   11.5641    7.7572   -5.1363 C   0  0  0  0  0  0  0  0  0  0  0  0
   11.9638    6.4982   -4.7315 C   0  0  0  0  0  0  0  0  0  0  0  0
   12.8048    8.7125   -5.1346 C   0  0  0  0  0  0  0  0  0  0  0  0
    9.1957    5.0141   -8.0781 N   0  0  0  0  0  0  0  0  0  0  0  0
    7.9453    5.6437  -10.4835 C   0  0  0  0  0  0  0  0  0  0  0  0
   10.6790    8.3451   -4.1274 C   0  0  0  0  0  0  0  0  0  0  0  0
  1  2  1  0  0  0  0
  2  3  1  0  0  0  0
  2  7  2  0  0  0  0
  4  3  1  6  0  0  0
  4  5  1  0  0  0  0
  4  6  1  0  0  0  0
  4  8  1  0  0  0  0
  5  9  2  0  0  0  0
  6 13  1  0  0  0  0
  7 12  1  0  0  0  0
  8 11  1  0  0  0  0
  8 19  2  0  0  0  0
 10  7  1  1  0  0  0
 10 14  1  0  0  0  0
 10 17  1  0  0  0  0
 11 20  1  0  0  0  0
 11 24  1  0  0  0  0
 11 37  1  6  0  0  0
 12 18  1  6  0  0  0
 12 37  1  0  0  0  0
 13 16  2  0  0  0  0
 13 21  1  0  0  0  0
 14  5  1  1  0  0  0
 14 15  1  0  0  0  0
 14 20  1  0  0  0  0
 15 26  1  0  0  0  0
 17 18  1  1  0  0  0
 17 23  1  0  0  0  0
 19 21  1  0  0  0  0
 19 27  1  0  0  0  0
 20 23  1  0  0  0  0
 21 22  2  0  0  0  0
 22 25  1  0  0  0  0
 23 28  1  0  0  0  0
 24 31  2  0  0  0  0
 24 36  1  0  0  0  0
 25 30  1  0  0  0  0
 25 32  1  0  0  0  0
 25 33  1  0  0  0  0
 26 28  1  0  0  0  0
 26 29  1  0  0  0  0
 27 30  1  0  0  0  0
 27 36  1  0  0  0  0
 33 34  1  0  0  0  0
 33 35  1  0  0  0  0
 33 38  1  0  0  0  0
M  END
$$$$

 OpenBabel10082411353D

 38 42  0  0  0  0  0  0  0  0999 V2000
   11.6836    6.0105   -4.8831 F   0  0  0  0  0  0  0  0  0  0  0  0
   11.2562    7.2206   -5.0294 C   0  0  0  0  0  0  0  0  0  0  0  0
   12.0125    8.2418   -4.4408 C   0  0  0  0  0  0  0  0  0  0  0  0
   11.1918    7.2706   -6.5237 C   0  0  2  0  0  0  0  0  0  0  0  0
   11.6999    8.4488   -3.1704 F   0  0  0  0  0  0  0  0  0  0  0  0
    9.8648    7.0908   -4.5314 F   0  0  0  0  0  0  0  0  0  0  0  0
   11.6831    8.5291   -6.9682 C   0  0  1  0  0  0  0  0  0  0  0  0
   13.3042    8.0958   -4.5769 F   0  0  0  0  0  0  0  0  0  0  0  0
   10.0051    6.7877   -7.1387 C   0  0  2  0  0  0  0  0  0  0  0  0
   12.1549    9.4036   -6.0698 C   0  0  0  0  0  0  0  0  0  0  0  0
   11.7460    9.5074   -4.8672 O   0  0  0  0  0  0  0  0  0  0  0  0
   12.5684    8.5172   -7.8652 C   0  0  0  0  0  0  0  0  0  0  0  0
   10.4250    8.9412   -7.4869 C   0  0  0  0  0  0  0  0  0  0  0  0
    9.8902    5.4070   -7.8206 C   0  0  1  0  0  0  0  0  0  0  0  0
    8.7348    4.6919   -7.6168 C   0  0  0  0  0  0  0  0  0  0  0  0
    9.5887    7.8633   -8.0188 C   0  0  1  0  0  0  0  0  0  0  0  0
   10.0149    7.4671   -9.3945 C   0  0  0  0  0  0  0  0  0  0  0  0
    8.7013    3.5197   -8.2148 C   0  0  0  0  0  0  0  0  0  0  0  0
    9.3794    3.4628   -9.4166 C   0  0  0  0  0  0  0  0  0  0  0  0
    9.7670    8.0902  -10.5147 C   0  0  0  0  0  0  0  0  0  0  0  0
   10.1630    7.7248  -11.8028 C   0  0  0  0  0  0  0  0  0  0  0  0
   10.1363    4.5235   -9.8811 C   0  0  0  0  0  0  0  0  0  0  0  0
   10.2836    5.8862   -9.1314 C   0  0  2  0  0  0  0  0  0  0  0  0
    9.2642    7.6154  -12.7688 C   0  0  0  0  0  0  0  0  0  0  0  0
    9.7352    7.0429  -13.9890 C   0  0  0  0  0  0  0  0  0  0  0  0
    8.9431    5.9978  -14.4048 C   0  0  0  0  0  0  0  0  0  0  0  0
    8.0476    5.1914  -13.6918 C   0  0  0  0  0  0  0  0  0  0  0  0
    8.1490    3.7734  -13.7660 C   0  0  0  0  0  0  0  0  0  0  0  0
    7.0453    3.1418  -12.9717 C   0  0  0  0  0  0  0  0  0  0  0  0
    6.2338    3.8839  -12.1754 C   0  0  0  0  0  0  0  0  0  0  0  0
   10.8369    7.3431  -14.6932 C   0  0  0  0  0  0  0  0  0  0  0  0
    7.2107    5.8505  -12.7998 C   0  0  0  0  0  0  0  0  0  0  0  0
    5.3001    3.0920  -11.3306 F   0  0  0  0  0  0  0  0  0  0  0  0
    6.3249    5.1885  -12.0630 C   0  0  0  0  0  0  0  0  0  0  0  0
   11.6830    6.2954  -15.0434 C   0  0  0  0  0  0  0  0  0  0  0  0
   12.7152    6.5764  -15.7320 O   0  0  0  0  0  0  0  0  0  0  0  0
   11.2368    5.0269  -14.9279 O   0  0  0  0  0  0  0  0  0  0  0  0
   12.1558    3.9980  -15.1823 C   0  0  0  0  0  0  0  0  0  0  0  0
  1  2  1  0  0  0  0
  2  3  1  0  0  0  0
  2  6  1  0  0  0  0
  3  5  1  0  0  0  0
  3  8  1  0  0  0  0
  3 11  1  0  0  0  0
  4  2  1  1  0  0  0
  4  7  1  0  0  0  0
  4  9  1  0  0  0  0
  7 10  1  0  0  0  0
  7 12  1  6  0  0  0
  7 13  1  0  0  0  0
  9 14  1  0  0  0  0
  9 16  1  0  0  0  0
 10 11  1  0  0  0  0
 13 16  1  0  0  0  0
 14 15  1  0  0  0  0
 14 23  1  0  0  0  0
 15 18  2  0  0  0  0
 16 17  1  0  0  0  0
 17 20  2  3  0  0  0
 17 23  1  0  0  0  0
 18 19  1  0  0  0  0
 19 22  2  0  0  0  0
 20 21  1  0  0  0  0
 21 24  2  3  0  0  0
 22 23  1  0  0  0  0
 24 25  1  0  0  0  0
 25 26  2  3  0  0  0
 25 31  1  0  0  0  0
 26 27  1  0  0  0  0
 27 28  2  0  0  0  0
 27 32  1  0  0  0  0
 28 29  1  0  0  0  0
 29 30  2  0  0  0  0
 30 33  1  0  0  0  0
 30 34  1  0  0  0  0
 31 35  1  0  0  0  0
 32 34  2  0  0  0  0
 35 36  2  0  0  0  0
 35 37  1  0  0  0  0
 37 38  1  0  0  0  0
M  END
$$$$

 OpenBabel10082411353D

 38 47  0  0  0  0  0  0  0  0999 V2000
    8.0806    9.0240  -12.7589 C   0  0  0  0  0  0  0  0  0  0  0  0
    8.6514    7.8645  -12.2948 C   0  0  0  0  0  0  0  0  0  0  0  0
    9.9575    7.9974  -11.8426 C   0  0  0  0  0  0  0  0  0  0  0  0
   10.7657    6.8667  -11.6050 C   0  0  1  0  0  0  0  0  0  0  0  0
   10.7682    5.9590  -12.8271 C   0  0  0  0  0  0  0  0  0  0  0  0
   12.1553    7.3846  -11.2315 C   0  0  0  0  0  0  0  0  0  0  0  0
    8.0676    6.6451  -12.2974 C   0  0  0  0  0  0  0  0  0  0  0  0
   10.1892    6.1240  -10.3860 C   0  0  0  0  0  0  0  0  0  0  0  0
   11.8375    5.4373  -13.3240 O   0  0  0  0  0  0  0  0  0  0  0  0
    8.6785    5.4761  -13.0273 C   0  0  1  0  0  0  0  0  0  0  0  0
    9.1969    5.2405  -10.4969 C   0  0  1  0  0  0  0  0  0  0  0  0
    7.2213    6.2210  -11.3074 C   0  0  1  0  0  0  0  0  0  0  0  0
   12.5590    7.6872   -9.9896 C   0  0  0  0  0  0  0  0  0  0  0  0
    9.7633    5.0333  -12.9720 C   0  0  1  0  0  0  0  0  0  0  0  0
   10.0661    4.0167  -14.0373 N   0  0  0  0  0  0  0  0  0  0  0  0
   13.6906    8.3004   -9.6233 O   0  0  0  0  0  0  0  0  0  0  0  0
    7.6357    4.5123  -12.6317 C   0  0  2  0  0  0  0  0  0  0  0  0
    6.8831    4.9171  -11.7031 C   0  0  1  0  0  0  0  0  0  0  0  0
   10.5937    6.6967   -9.1779 C   0  0  0  0  0  0  0  0  0  0  0  0
    9.5087    4.3263  -11.6925 C   0  0  2  0  0  0  0  0  0  0  0  0
   11.6359    7.4449   -8.9125 C   0  0  0  0  0  0  0  0  0  0  0  0
   11.9716    7.9159   -7.6200 C   0  0  0  0  0  0  0  0  0  0  0  0
    8.4648    3.6122  -12.2840 C   0  0  2  0  0  0  0  0  0  0  0  0
    9.3128    4.5571   -9.1689 C   0  0  0  0  0  0  0  0  0  0  0  0
   10.9557    7.6369   -6.5929 C   0  0  2  0  0  0  0  0  0  0  0  0
    9.6490    2.8108  -13.7776 C   0  0  1  0  0  0  0  0  0  0  0  0
    9.6716    6.1981   -8.0224 C   0  0  2  0  0  0  0  0  0  0  0  0
    8.5511    2.5400  -13.1402 C   0  0  0  0  0  0  0  0  0  0  0  0
    9.7877    2.0302  -15.0383 O   0  0  0  0  0  0  0  0  0  0  0  0
   10.2949    6.3957   -6.8142 C   0  0  0  0  0  0  0  0  0  0  0  0
    8.7552    3.1757   -9.1739 O   0  0  0  0  0  0  0  0  0  0  0  0
   10.0241    8.9015   -6.4644 C   0  0  0  0  0  0  0  0  0  0  0  0
   11.5641    7.7572   -5.1363 C   0  0  0  0  0  0  0  0  0  0  0  0
   11.9638    6.4982   -4.7315 C   0  0  0  0  0  0  0  0  0  0  0  0
   12.8048    8.7125   -5.1346 C   0  0  0  0  0  0  0  0  0  0  0  0
    9.1957    5.0141   -8.0781 N   0  0  0  0  0  0  0  0  0  0  0  0
   10.8767    8.4096   -4.1102 C   0  0  0  0  0  0  0  0  0  0  0  0
    7.9472    5.6519  -10.4811 C   0  0  1  0  0  0  0  0  0  0  0  0
  1  2  1  0  0  0  0
  2  3  1  0  0  0  0
  2  7  2  0  0  0  0
  4  3  1  6  0  0  0
  4  5  1  0  0  0  0
  4  6  1  0  0  0  0
  4  8  1  0  0  0  0
  5  9  2  0  0  0  0
  6 13  1  0  0  0  0
  8 19  2  0  0  0  0
 10  7  1  1  0  0  0
 10 14  1  0  0  0  0
 10 17  1  0  0  0  0
 11  8  1  6  0  0  0
 11 20  1  0  0  0  0
 11 24  1  0  0  0  0
 11 38  1  0  0  0  0
 12  7  1  6  0  0  0
 12 18  1  0  0  0  0
 12 38  1  0  0  0  0
 13 16  2  0  0  0  0
 13 21  1  0  0  0  0
 14  5  1  1  0  0  0
 14 15  1  0  0  0  0
 14 20  1  0  0  0  0
 15 26  1  0  0  0  0
 17 18  1  0  0  0  0
 17 23  1  0  0  0  0
 18 38  1  0  0  0  0
 19 21  1  0  0  0  0
 19 27  1  0  0  0  0
 20 23  1  0  0  0  0
 21 22  2  0  0  0  0
 22 25  1  0  0  0  0
 23 28  1  0  0  0  0
 24 31  2  0  0  0  0
 24 36  1  0  0  0  0
 25 30  1  0  0  0  0
 25 32  1  0  0  0  0
 25 33  1  0  0  0  0
 26 28  1  0  0  0  0
 26 29  1  0  0  0  0
 27 30  1  0  0  0  0
 27 36  1  0  0  0  0
 33 34  1  0  0  0  0
 33 35  1  0  0  0  0
 33 37  1  0  0  0  0
M  END
$$$$

 OpenBabel10082411353D

 26 28  0  0  0  0  0  0  0  0999 V2000
   12.8881    8.7759   -3.5681 C   0  0  0  0  0  0  0  0  0  0  0  0
   11.9416    9.4732   -4.1220 C   0  0  0  0  0  0  0  0  0  0  0  0
   12.3556    7.6012   -2.6527 C   0  0  0  0  0  0  0  0  0  0  0  0
   11.8805    9.3400   -5.6557 C   0  0  0  0  0  0  0  0  0  0  0  0
   11.7716    6.5414   -3.3821 C   0  0  0  0  0  0  0  0  0  0  0  0
   10.8523    8.6585   -6.3310 C   0  0  0  0  0  0  0  0  0  0  0  0
   11.1142    8.2520   -7.7289 C   0  0  0  0  0  0  0  0  0  0  0  0
   10.0478    7.6568   -8.4887 C   0  0  0  0  0  0  0  0  0  0  0  0
   12.3648    8.4339   -8.3703 C   0  0  0  0  0  0  0  0  0  0  0  0
   12.6142    8.1352   -9.7322 C   0  0  0  0  0  0  0  0  0  0  0  0
   10.2852    7.3833   -9.9138 C   0  0  0  0  0  0  0  0  0  0  0  0
   11.5161    7.5808  -10.4860 C   0  0  0  0  0  0  0  0  0  0  0  0
   11.6641    7.2285  -11.8174 O   0  0  0  0  0  0  0  0  0  0  0  0
   10.8624    6.4419  -12.4395 C   0  0  0  0  0  0  0  0  0  0  0  0
   11.2693    5.8267  -13.4966 C   0  0  0  0  0  0  0  0  0  0  0  0
   10.3973    4.9870  -14.3057 C   0  0  0  0  0  0  0  0  0  0  0  0
    9.1338    4.5860  -13.7335 C   0  0  0  0  0  0  0  0  0  0  0  0
    8.3197    3.6632  -14.4500 O   0  0  0  0  0  0  0  0  0  0  0  0
    9.4187    5.9856  -12.0936 C   0  0  0  0  0  0  0  0  0  0  0  0
    8.7194    5.1663  -12.6549 C   0  0  0  0  0  0  0  0  0  0  0  0
   10.9612    4.2185  -15.3643 O   0  0  0  0  0  0  0  0  0  0  0  0
    7.3624    5.0232  -12.1931 C   0  0  0  0  0  0  0  0  0  0  0  0
    6.7419    6.0368  -11.7390 O   0  0  0  0  0  0  0  0  0  0  0  0
    8.0025    2.5139  -13.8081 C   0  0  0  0  0  0  0  0  0  0  0  0
   12.2880    4.2113  -15.5485 C   0  0  0  0  0  0  0  0  0  0  0  0
    9.0793    6.7650  -10.5667 C   0  0  0  0  0  0  0  0  0  0  0  0
  1  2  1  0  0  0  0
  1  3  1  0  0  0  0
  2  4  1  0  0  0  0
  3  5  1  0  0  0  0
  4  6  1  0  0  0  0
  6  7  1  0  0  0  0
  7  8  1  0  0  0  0
  7  9  2  0  0  0  0
  8 11  2  0  0  0  0
  9 10  1  0  0  0  0
 10 12  2  0  0  0  0
 11 12  1  0  0  0  0
 11 26  1  0  0  0  0
 12 13  1  0  0  0  0
 13 14  1  0  0  0  0
 14 15  2  0  0  0  0
 14 19  1  0  0  0  0
 15 16  1  0  0  0  0
 16 17  2  0  0  0  0
 16 21  1  0  0  0  0
 17 18  1  0  0  0  0
 17 20  1  0  0  0  0
 18 24  1  0  0  0  0
 19 20  2  0  0  0  0
 19 26  1  0  0  0  0
 20 22  1  0  0  0  0
 21 25  1  0  0  0  0
 22 23  1  0  0  0  0
M  END
$$$$

 OpenBabel10082411353D

 11 11  0  0  0  0  0  0  0  0999 V2000
   10.7609    9.6228   -4.2714 C   0  0  0  0  0  0  0  0  0  0  0  0
   10.4930    9.4831   -5.5343 C   0  0  0  0  0  0  0  0  0  0  0  0
   10.9731    8.4198   -6.2580 C   0  0  0  0  0  0  0  0  0  0  0  0
   11.7110    8.7664   -3.6515 C   0  0  0  0  0  0  0  0  0  0  0  0
   12.0749    8.9543   -2.1781 C   0  0  0  0  0  0  0  0  0  0  0  0
   10.5830    8.2729   -7.7233 C   0  0  0  0  0  0  0  0  0  0  0  0
   10.6971    7.0575   -8.1912 O   0  0  0  0  0  0  0  0  0  0  0  0
    9.8026    9.1573   -8.2708 O   0  0  0  0  0  0  0  0  0  0  0  0
   12.0041    7.4618   -4.3496 C   0  0  0  0  0  0  0  0  0  0  0  0
   12.7112    6.4971   -3.5147 C   0  0  0  0  0  0  0  0  0  0  0  0
   11.6405    7.3392   -5.5982 C   0  0  0  0  0  0  0  0  0  0  0  0
  1  2  1  0  0  0  0
  1  4  2  0  0  0  0
  2  3  2  0  0  0  0
  3  6  1  0  0  0  0
  3 11  1  0  0  0  0
  4  5  1  0  0  0  0
  4  9  1  0  0  0  0
  6  7  2  0  0  0  0
  6  8  1  0  0  0  0
  9 10  1  0  0  0  0
  9 11  2  0  0  0  0
M  END
$$$$

 OpenBabel10082411353D

 38 43  0  0  0  0  0  0  0  0999 V2000
   11.6836    6.0105   -4.8831 C   0  0  0  0  0  0  0  0  0  0  0  0
   11.1291    7.0732   -5.4395 C   0  0  0  0  0  0  0  0  0  0  0  0
   10.6954    7.0156   -6.8073 C   0  0  0  0  0  0  0  0  0  0  0  0
   10.2502    8.1187   -7.5536 C   0  0  2  0  0  0  0  0  0  0  0  0
   11.1205    8.4712   -4.9629 C   0  0  0  0  0  0  0  0  0  0  0  0
   10.8655    8.3511   -8.7960 C   0  0  0  0  0  0  0  0  0  0  0  0
   10.2922    7.8843   -9.9985 C   0  0  0  0  0  0  0  0  0  0  0  0
   10.4654    9.6993   -5.6120 C   0  0  0  0  0  0  0  0  0  0  0  0
   10.3510    9.5971   -7.0014 C   0  0  0  0  0  0  0  0  0  0  0  0
   12.2462    6.3351   -3.5020 C   0  0  0  0  0  0  0  0  0  0  0  0
   11.0471    7.5309  -11.1063 C   0  0  0  0  0  0  0  0  0  0  0  0
   11.7288    8.6923   -3.6518 C   0  0  0  0  0  0  0  0  0  0  0  0
   12.3991    7.7501  -11.1145 C   0  0  0  0  0  0  0  0  0  0  0  0
   12.3738    7.7580   -2.9599 C   0  0  0  0  0  0  0  0  0  0  0  0
   13.1285    8.5075  -10.1661 O   0  0  0  0  0  0  0  0  0  0  0  0
    9.0407    7.3775  -10.0973 N   0  0  0  0  0  0  0  0  0  0  0  0
    8.9787    6.9473  -11.4664 N   0  0  0  0  0  0  0  0  0  0  0  0
   13.1012    7.4459  -12.3707 C   0  0  0  0  0  0  0  0  0  0  0  0
   12.2395    6.9724  -13.2444 C   0  0  0  0  0  0  0  0  0  0  0  0
   10.2768    7.0170  -11.9799 C   0  0  0  0  0  0  0  0  0  0  0  0
   12.9237    6.5822  -14.5759 O   0  0  0  0  0  0  0  0  0  0  0  0
   10.8906    6.6526  -13.2252 C   0  0  0  0  0  0  0  0  0  0  0  0
   12.2396    6.1290  -15.6916 C   0  0  0  0  0  0  0  0  0  0  0  0
    7.8036    6.1825  -11.9342 C   0  0  0  0  0  0  0  0  0  0  0  0
   12.5015    4.7115  -15.7686 C   0  0  0  0  0  0  0  0  0  0  0  0
    7.1685    6.9992  -12.8245 C   0  0  0  0  0  0  0  0  0  0  0  0
   11.2461    3.8540  -15.4851 C   0  0  0  0  0  0  0  0  0  0  0  0
    7.6237    4.9154  -11.6529 C   0  0  0  0  0  0  0  0  0  0  0  0
    6.6378    4.1960  -12.2267 C   0  0  0  0  0  0  0  0  0  0  0  0
    6.2717    2.7675  -11.9743 C   0  0  0  0  0  0  0  0  0  0  0  0
    6.6569    1.8873  -12.9460 C   0  0  2  0  0  0  0  0  0  0  0  0
    6.2393    0.5737  -12.7991 C   0  0  0  0  0  0  0  0  0  0  0  0
    5.8868    6.2205  -13.3605 C   0  0  0  0  0  0  0  0  0  0  0  0
    5.6870    4.9300  -13.0899 C   0  0  0  0  0  0  0  0  0  0  0  0
   10.9648    3.4588  -14.2736 C   0  0  0  0  0  0  0  0  0  0  0  0
    8.1204    1.7675  -13.1699 O   0  0  0  0  0  0  0  0  0  0  0  0
    9.9219    2.4101  -14.0366 C   0  0  0  0  0  0  0  0  0  0  0  0
    8.6364    2.7191  -13.9095 C   0  0  0  0  0  0  0  0  0  0  0  0
  1  2  1  0  0  0  0
  1 10  2  0  0  0  0
  2  3  1  0  0  0  0
  2  5  2  0  0  0  0
  3  4  1  0  0  0  0
  4  6  1  6  0  0  0
  4  9  1  0  0  0  0
  5  8  1  0  0  0  0
  5 12  1  0  0  0  0
  6  7  1  0  0  0  0
  7 11  1  0  0  0  0
  7 16  2  0  0  0  0
  8  9  1  0  0  0  0
 10 14  1  0  0  0  0
 11 13  2  0  0  0  0
 11 20  1  0  0  0  0
 12 14  2  0  0  0  0
 13 15  1  0  0  0  0
 13 18  1  0  0  0  0
 16 17  1  0  0  0  0
 17 20  1  0  0  0  0
 17 24  1  0  0  0  0
 18 19  2  0  0  0  0
 19 21  1  0  0  0  0
 19 22  1  0  0  0  0
 20 22  2  0  0  0  0
 21 23  1  0  0  0  0
 23 25  1  0  0  0  0
 24 26  2  0  0  0  0
 24 28  1  0  0  0  0
 25 27  1  0  0  0  0
 26 33  1  0  0  0  0
 27 35  1  0  0  0  0
 28 29  2  0  0  0  0
 29 30  1  0  0  0  0
 29 34  1  0  0  0  0
 30 31  1  0  0  0  0
 31 32  1  1  0  0  0
 31 36  1  0  0  0  0
 33 34  2  0  0  0  0
 35 37  1  0  0  0  0
 36 38  1  0  0  0  0
 37 38  2  0  0  0  0
M  END
$$$$

 OpenBabel10082411353D

 38 43  0  0  0  0  0  0  0  0999 V2000
   11.6836    6.0105   -4.8831 F   0  0  0  0  0  0  0  0  0  0  0  0
   11.2562    7.2206   -5.0294 C   0  0  0  0  0  0  0  0  0  0  0  0
   12.0125    8.2418   -4.4408 C   0  0  0  0  0  0  0  0  0  0  0  0
   11.1918    7.2706   -6.5237 C   0  0  0  0  0  0  0  0  0  0  0  0
   11.6999    8.4488   -3.1704 F   0  0  0  0  0  0  0  0  0  0  0  0
    9.8648    7.0908   -4.5314 F   0  0  0  0  0  0  0  0  0  0  0  0
   11.6831    8.5291   -6.9682 C   0  0  0  0  0  0  0  0  0  0  0  0
   10.4785    6.5189   -7.4033 C   0  0  0  0  0  0  0  0  0  0  0  0
   11.6979    8.6661   -8.4760 C   0  0  0  0  0  0  0  0  0  0  0  0
   11.6248    9.5853   -5.0030 C   0  0  0  0  0  0  0  0  0  0  0  0
   11.8604    9.7907   -6.2903 O   0  0  0  0  0  0  0  0  0  0  0  0
   13.3557    8.1748   -4.5947 F   0  0  0  0  0  0  0  0  0  0  0  0
   10.5427    6.6061   -8.7190 C   0  0  0  0  0  0  0  0  0  0  0  0
   11.1158    7.7103   -9.2540 C   0  0  0  0  0  0  0  0  0  0  0  0
   11.3757    7.6656  -10.5293 N   0  0  0  0  0  0  0  0  0  0  0  0
   10.7153    7.7096  -11.5405 C   0  0  0  0  0  0  0  0  0  0  0  0
   11.2483    7.4711  -12.8542 C   0  0  0  0  0  0  0  0  0  0  0  0
    9.3980    7.7820  -11.5398 C   0  0  0  0  0  0  0  0  0  0  0  0
    8.6055    7.5889  -12.6525 C   0  0  0  0  0  0  0  0  0  0  0  0
   12.7508    7.3705  -13.0162 O   0  0  0  0  0  0  0  0  0  0  0  0
   10.5299    7.1831  -13.9856 C   0  0  0  0  0  0  0  0  0  0  0  0
    7.0533    7.7371  -12.5396 C   0  0  0  0  0  0  0  0  0  0  0  0
   11.2041    6.8490  -15.2304 C   0  0  0  0  0  0  0  0  0  0  0  0
   11.6393    5.5333  -15.3864 C   0  0  0  0  0  0  0  0  0  0  0  0
    9.1955    7.2935  -13.8301 C   0  0  0  0  0  0  0  0  0  0  0  0
   12.5294    5.1116  -16.1609 C   0  0  0  0  0  0  0  0  0  0  0  0
   11.2315    4.4703  -14.3200 C   0  0  0  0  0  0  0  0  0  0  0  0
   10.2844    4.5821  -13.3000 C   0  0  0  0  0  0  0  0  0  0  0  0
   11.6270    3.1866  -14.6052 C   0  0  0  0  0  0  0  0  0  0  0  0
    9.0868    3.8289  -13.3080 C   0  0  0  0  0  0  0  0  0  0  0  0
    8.1007    4.0948  -12.4103 C   0  0  0  0  0  0  0  0  0  0  0  0
    6.8410    3.6347  -12.6829 C   0  0  0  0  0  0  0  0  0  0  0  0
    6.7154    2.6437  -13.7684 C   0  0  0  0  0  0  0  0  0  0  0  0
   11.0823    2.0862  -13.7648 C   0  0  0  0  0  0  0  0  0  0  0  0
    9.3191    2.3459  -13.6315 C   0  0  2  0  0  0  0  0  0  0  0  0
   12.7411    3.5776  -16.0808 S   0  0  0  0  0  0  0  0  0  0  0  0
   12.1369    2.6677  -15.3553 C   0  0  0  0  0  0  0  0  0  0  0  0
    7.7931    2.1225  -14.2574 C   0  0  0  0  0  0  0  0  0  0  0  0
  1  2  1  0  0  0  0
  2  3  1  0  0  0  0
  2  4  1  0  0  0  0
  2  6  1  0  0  0  0
  3  5  1  0  0  0  0
  3 10  1  0  0  0  0
  3 12  1  0  0  0  0
  4  7  1  0  0  0  0
  4  8  2  0  0  0  0
  7  9  2  0  0  0  0
  7 11  1  0  0  0  0
  8 13  1  0  0  0  0
  9 14  1  0  0  0  0
 10 11  1  0  0  0  0
 13 14  2  0  0  0  0
 14 15  1  0  0  0  0
 15 16  1  0  0  0  0
 16 17  1  0  0  0  0
 16 18  2  0  0  0  0
 17 20  1  0  0  0  0
 17 21  2  0  0  0  0
 18 19  1  0  0  0  0
 19 22  1  0  0  0  0
 19 25  2  0  0  0  0
 21 23  1  0  0  0  0
 21 25  1  0  0  0  0
 23 24  1  0  0  0  0
 24 26  2  0  0  0  0
 24 27  1  0  0  0  0
 26 36  1  0  0  0  0
 27 28  1  0  0  0  0
 27 29  2  0  0  0  0
 28 30  2  0  0  0  0
 29 34  1  0  0  0  0
 29 37  1  0  0  0  0
 30 31  1  0  0  0  0
 30 35  1  0  0  0  0
 31 32  2  0  0  0  0
 32 33  1  0  0  0  0
 33 38  2  0  0  0  0
 35 34  1  6  0  0  0
 35 38  1  0  0  0  0
 36 37  1  0  0  0  0
M  END
$$$$

 OpenBabel10082411353D

 38 43  0  0  0  0  0  0  0  0999 V2000
   11.6836    6.0105   -4.8831 C   0  0  0  0  0  0  0  0  0  0  0  0
   11.1291    7.0732   -5.4395 C   0  0  0  0  0  0  0  0  0  0  0  0
   10.6954    7.0156   -6.8073 C   0  0  0  0  0  0  0  0  0  0  0  0
   10.2502    8.1187   -7.5536 C   0  0  2  0  0  0  0  0  0  0  0  0
   11.1205    8.4712   -4.9629 C   0  0  0  0  0  0  0  0  0  0  0  0
   10.8655    8.3511   -8.7960 C   0  0  0  0  0  0  0  0  0  0  0  0
   10.2922    7.8843   -9.9985 C   0  0  0  0  0  0  0  0  0  0  0  0
   10.4654    9.6993   -5.6120 C   0  0  0  0  0  0  0  0  0  0  0  0
   10.3510    9.5971   -7.0014 C   0  0  0  0  0  0  0  0  0  0  0  0
   12.2462    6.3351   -3.5020 C   0  0  0  0  0  0  0  0  0  0  0  0
   11.0471    7.5309  -11.1063 C   0  0  0  0  0  0  0  0  0  0  0  0
   11.7288    8.6923   -3.6518 C   0  0  0  0  0  0  0  0  0  0  0  0
   12.3991    7.7501  -11.1145 C   0  0  0  0  0  0  0  0  0  0  0  0
   12.3738    7.7580   -2.9599 C   0  0  0  0  0  0  0  0  0  0  0  0
   13.1285    8.5075  -10.1661 O   0  0  0  0  0  0  0  0  0  0  0  0
    9.0407    7.3775  -10.0973 N   0  0  0  0  0  0  0  0  0  0  0  0
    8.9787    6.9473  -11.4664 N   0  0  0  0  0  0  0  0  0  0  0  0
   13.1012    7.4459  -12.3707 C   0  0  0  0  0  0  0  0  0  0  0  0
   12.2395    6.9724  -13.2444 C   0  0  0  0  0  0  0  0  0  0  0  0
   10.2768    7.0170  -11.9799 C   0  0  0  0  0  0  0  0  0  0  0  0
   12.9237    6.5822  -14.5759 O   0  0  0  0  0  0  0  0  0  0  0  0
   10.8906    6.6526  -13.2252 C   0  0  0  0  0  0  0  0  0  0  0  0
   12.2396    6.1290  -15.6916 C   0  0  0  0  0  0  0  0  0  0  0  0
    7.7368    6.4514  -12.0707 C   0  0  0  0  0  0  0  0  0  0  0  0
    7.1353    7.2872  -12.8105 C   0  0  0  0  0  0  0  0  0  0  0  0
    7.6622    5.0135  -12.1225 C   0  0  0  0  0  0  0  0  0  0  0  0
   12.5092    4.6950  -15.8147 C   0  0  0  0  0  0  0  0  0  0  0  0
    5.9403    6.5840  -13.2897 C   0  0  0  0  0  0  0  0  0  0  0  0
   11.2738    3.8422  -15.5220 N   0  0  0  0  0  0  0  0  0  0  0  0
    8.7139    4.1736  -11.4601 C   0  0  0  0  0  0  0  0  0  0  0  0
    5.7546    5.3014  -13.2955 C   0  0  0  0  0  0  0  0  0  0  0  0
   10.5665    3.9988  -14.5162 C   0  0  0  0  0  0  0  0  0  0  0  0
    6.6518    4.4534  -12.6459 C   0  0  0  0  0  0  0  0  0  0  0  0
   11.1930    2.6728  -16.3047 C   0  0  0  0  0  0  0  0  0  0  0  0
    9.2470    3.7086  -14.6888 C   0  0  0  0  0  0  0  0  0  0  0  0
   10.0389    2.1274  -16.2175 N   0  0  0  0  0  0  0  0  0  0  0  0
    9.0069    2.5135  -15.3535 C   0  0  2  0  0  0  0  0  0  0  0  0
    7.7229    2.0262  -15.4253 N   0  0  0  0  0  0  0  0  0  0  0  0
  1  2  1  0  0  0  0
  1 10  2  0  0  0  0
  2  3  1  0  0  0  0
  2  5  2  0  0  0  0
  3  4  1  0  0  0  0
  4  6  1  6  0  0  0
  4  9  1  0  0  0  0
  5  8  1  0  0  0  0
  5 12  1  0  0  0  0
  6  7  1  0  0  0  0
  7 11  1  0  0  0  0
  7 16  2  0  0  0  0
  8  9  1  0  0  0  0
 10 14  1  0  0  0  0
 11 13  2  0  0  0  0
 11 20  1  0  0  0  0
 12 14  2  0  0  0  0
 13 15  1  0  0  0  0
 13 18  1  0  0  0  0
 16 17  1  0  0  0  0
 17 20  1  0  0  0  0
 17 24  1  0  0  0  0
 18 19  2  0  0  0  0
 19 21  1  0  0  0  0
 19 22  1  0  0  0  0
 20 22  2  0  0  0  0
 21 23  1  0  0  0  0
 23 27  1  0  0  0  0
 24 25  2  0  0  0  0
 24 26  1  0  0  0  0
 25 28  1  0  0  0  0
 26 30  1  0  0  0  0
 26 33  2  0  0  0  0
 27 29  1  0  0  0  0
 28 31  2  0  0  0  0
 29 32  1  0  0  0  0
 29 34  1  0  0  0  0
 31 33  1  0  0  0  0
 32 35  2  0  0  0  0
 34 36  2  0  0  0  0
 35 37  1  0  0  0  0
 36 37  1  0  0  0  0
 37 38  1  6  0  0  0
M  END
$$$$

 OpenBabel10082411353D

 38 42  0  0  0  0  0  0  0  0999 V2000
   11.6836    6.0105   -4.8831 F   0  0  0  0  0  0  0  0  0  0  0  0
   11.2562    7.2206   -5.0294 C   0  0  0  0  0  0  0  0  0  0  0  0
   12.0125    8.2418   -4.4408 C   0  0  0  0  0  0  0  0  0  0  0  0
   11.1918    7.2706   -6.5237 C   0  0  0  0  0  0  0  0  0  0  0  0
   11.6999    8.4488   -3.1704 F   0  0  0  0  0  0  0  0  0  0  0  0
    9.8648    7.0908   -4.5314 F   0  0  0  0  0  0  0  0  0  0  0  0
   11.6831    8.5291   -6.9682 C   0  0  0  0  0  0  0  0  0  0  0  0
   10.4785    6.5189   -7.4033 C   0  0  0  0  0  0  0  0  0  0  0  0
   11.6979    8.6661   -8.4760 C   0  0  0  0  0  0  0  0  0  0  0  0
   11.6248    9.5853   -5.0030 C   0  0  0  0  0  0  0  0  0  0  0  0
   11.8604    9.7907   -6.2903 O   0  0  0  0  0  0  0  0  0  0  0  0
   13.3557    8.1748   -4.5947 F   0  0  0  0  0  0  0  0  0  0  0  0
   10.5427    6.6061   -8.7190 C   0  0  0  0  0  0  0  0  0  0  0  0
   11.1158    7.7103   -9.2540 C   0  0  0  0  0  0  0  0  0  0  0  0
   11.3757    7.6656  -10.5293 N   0  0  0  0  0  0  0  0  0  0  0  0
   10.7153    7.7096  -11.5405 C   0  0  0  0  0  0  0  0  0  0  0  0
   11.2483    7.4711  -12.8542 C   0  0  0  0  0  0  0  0  0  0  0  0
    9.3980    7.7820  -11.5398 C   0  0  0  0  0  0  0  0  0  0  0  0
    8.6055    7.5889  -12.6525 C   0  0  0  0  0  0  0  0  0  0  0  0
   12.7508    7.3705  -13.0162 O   0  0  0  0  0  0  0  0  0  0  0  0
   10.5299    7.1831  -13.9856 C   0  0  0  0  0  0  0  0  0  0  0  0
    7.0533    7.7371  -12.5396 C   0  0  0  0  0  0  0  0  0  0  0  0
   11.2041    6.8490  -15.2304 C   0  0  0  0  0  0  0  0  0  0  0  0
   11.6393    5.5333  -15.3864 C   0  0  0  0  0  0  0  0  0  0  0  0
    9.1955    7.2935  -13.8301 C   0  0  0  0  0  0  0  0  0  0  0  0
   12.5294    5.1116  -16.1609 C   0  0  0  0  0  0  0  0  0  0  0  0
   11.2315    4.4703  -14.3200 C   0  0  0  0  0  0  0  0  0  0  0  0
   10.2844    4.5821  -13.3000 C   0  0  0  0  0  0  0  0  0  0  0  0
   11.6270    3.1866  -14.6052 C   0  0  0  0  0  0  0  0  0  0  0  0
    9.0868    3.8289  -13.3080 C   0  0  0  0  0  0  0  0  0  0  0  0
   11.3420    2.7039  -15.8535 C   0  0  0  0  0  0  0  0  0  0  0  0
   12.3848    3.5242  -16.4737 C   0  0  0  0  0  0  0  0  0  0  0  0
    8.2189    3.9688  -12.1830 C   0  0  0  0  0  0  0  0  0  0  0  0
    8.4341    4.6700  -11.1010 C   0  0  0  0  0  0  0  0  0  0  0  0
    9.7276    5.5381   -9.3640 C   0  0  0  0  0  0  0  0  0  0  0  0
    9.5735    5.1732  -10.6898 C   0  0  0  0  0  0  0  0  0  0  0  0
    8.8319    4.8270   -8.6185 N   0  0  0  0  0  0  0  0  0  0  0  0
    8.8248    3.5717   -8.6937 C   0  0  0  0  0  0  0  0  0  0  0  0
  1  2  1  0  0  0  0
  2  3  1  0  0  0  0
  2  4  1  0  0  0  0
  2  6  1  0  0  0  0
  3  5  1  0  0  0  0
  3 10  1  0  0  0  0
  3 12  1  0  0  0  0
  4  7  1  0  0  0  0
  4  8  2  0  0  0  0
  7  9  2  0  0  0  0
  7 11  1  0  0  0  0
  8 13  1  0  0  0  0
  9 14  1  0  0  0  0
 10 11  1  0  0  0  0
 13 14  2  0  0  0  0
 13 35  1  0  0  0  0
 14 15  1  0  0  0  0
 15 16  1  0  0  0  0
 16 17  1  0  0  0  0
 16 18  2  0  0  0  0
 17 20  1  0  0  0  0
 17 21  2  0  0  0  0
 18 19  1  0  0  0  0
 19 22  1  0  0  0  0
 19 25  2  0  0  0  0
 21 23  1  0  0  0  0
 21 25  1  0  0  0  0
 23 24  1  0  0  0  0
 24 26  2  0  0  0  0
 24 27  1  0  0  0  0
 26 32  1  0  0  0  0
 27 28  1  0  0  0  0
 27 29  2  0  0  0  0
 28 30  2  0  0  0  0
 29 31  1  0  0  0  0
 30 33  1  0  0  0  0
 31 32  1  0  0  0  0
 33 34  2  0  0  0  0
 34 36  1  0  0  0  0
 35 36  1  0  0  0  0
 35 37  2  3  0  0  0
 37 38  1  0  0  0  0
M  END
$$$$

 OpenBabel10082411353D

 38 44  0  0  0  0  0  0  0  0999 V2000
   12.7863    7.8241  -14.2109 C   0  0  0  0  0  0  0  0  0  0  0  0
   12.4233    7.7158  -13.0289 C   0  0  0  0  0  0  0  0  0  0  0  0
   11.3194    6.8571  -12.8028 C   0  0  0  0  0  0  0  0  0  0  0  0
   12.3150    7.2021  -15.3582 C   0  0  0  0  0  0  0  0  0  0  0  0
   11.2733    6.2739  -15.1502 C   0  0  0  0  0  0  0  0  0  0  0  0
   10.8099    6.0126  -13.8600 C   0  0  0  0  0  0  0  0  0  0  0  0
    9.6782    5.1428  -13.6488 C   0  0  0  0  0  0  0  0  0  0  0  0
    8.5753    5.3880  -12.9589 N   0  0  0  0  0  0  0  0  0  0  0  0
    8.3226    6.7011  -12.3862 C   0  0  0  0  0  0  0  0  0  0  0  0
    9.8502    3.8578  -14.0728 C   0  0  0  0  0  0  0  0  0  0  0  0
    7.3864    7.4720  -13.0530 C   0  0  0  0  0  0  0  0  0  0  0  0
    6.2412    7.8486  -12.2599 C   0  0  0  0  0  0  0  0  0  0  0  0
    7.6425    4.4186  -12.7943 C   0  0  0  0  0  0  0  0  0  0  0  0
   11.0297    3.2482  -14.8053 C   0  0  0  0  0  0  0  0  0  0  0  0
    8.6802    2.8955  -13.7960 C   0  0  0  0  0  0  0  0  0  0  0  0
    8.8565    1.5917  -14.3582 O   0  0  0  0  0  0  0  0  0  0  0  0
    7.6903    3.2226  -13.1994 N   0  0  0  0  0  0  0  0  0  0  0  0
    6.5724    2.3444  -12.8378 C   0  0  0  0  0  0  0  0  0  0  0  0
    9.0225    7.0353  -11.3259 C   0  0  0  0  0  0  0  0  0  0  0  0
    6.2405    4.8489  -12.4515 C   0  0  0  0  0  0  0  0  0  0  0  0
   10.5875    7.0617  -11.5321 C   0  0  0  0  0  0  0  0  0  0  0  0
   11.0960    7.6093  -10.4100 C   0  0  0  0  0  0  0  0  0  0  0  0
    8.4039    7.3336  -10.1102 C   0  0  0  0  0  0  0  0  0  0  0  0
   10.6086    7.8156   -9.1888 C   0  0  0  0  0  0  0  0  0  0  0  0
    9.3113    7.5527   -9.2022 C   0  0  0  0  0  0  0  0  0  0  0  0
    5.5868    3.4174  -12.3561 C   0  0  0  0  0  0  0  0  0  0  0  0
    8.7252    7.9330   -7.6242 C   0  0  0  0  0  0  0  0  0  0  0  0
   11.1859    8.0862   -7.9601 C   0  0  0  0  0  0  0  0  0  0  0  0
   12.7495    8.2704   -8.0174 C   0  0  0  0  0  0  0  0  0  0  0  0
   10.4493    8.2542   -6.7750 C   0  0  2  0  0  0  0  0  0  0  0  0
    9.2142    8.3462   -6.7539 C   0  0  0  0  0  0  0  0  0  0  0  0
   11.4483    9.0676   -5.7294 C   0  0  1  0  0  0  0  0  0  0  0  0
   10.5479    6.9328   -5.7137 C   0  0  0  0  0  0  0  0  0  0  0  0
   13.0940    9.3998   -7.2782 C   0  0  0  0  0  0  0  0  0  0  0  0
   12.8182    9.2697   -5.8803 C   0  0  0  0  0  0  0  0  0  0  0  0
   10.7663   10.5076   -5.8947 C   0  0  0  0  0  0  0  0  0  0  0  0
   11.0732    8.9365   -4.3488 O   0  0  0  0  0  0  0  0  0  0  0  0
   11.8169    6.2548   -5.3738 O   0  0  0  0  0  0  0  0  0  0  0  0
  1  2  2  0  0  0  0
  1  4  1  0  0  0  0
  2  3  1  0  0  0  0
  3  6  2  0  0  0  0
  3 21  1  0  0  0  0
  4  5  2  0  0  0  0
  5  6  1  0  0  0  0
  6  7  1  0  0  0  0
  7  8  1  0  0  0  0
  7 10  2  0  0  0  0
  8  9  1  0  0  0  0
  8 13  1  0  0  0  0
  9 11  1  0  0  0  0
  9 19  2  0  0  0  0
 10 14  1  0  0  0  0
 10 15  1  0  0  0  0
 11 12  1  0  0  0  0
 13 17  1  0  0  0  0
 13 20  2  0  0  0  0
 15 16  2  0  0  0  0
 15 17  1  0  0  0  0
 17 18  1  0  0  0  0
 18 26  2  0  0  0  0
 19 21  1  0  0  0  0
 19 23  1  0  0  0  0
 20 26  1  0  0  0  0
 21 22  2  0  0  0  0
 22 24  1  0  0  0  0
 23 25  2  0  0  0  0
 24 25  1  0  0  0  0
 24 28  2  0  0  0  0
 25 27  1  0  0  0  0
 27 31  2  0  0  0  0
 28 29  1  0  0  0  0
 28 30  1  0  0  0  0
 29 34  1  0  0  0  0
 30 31  1  0  0  0  0
 30 32  1  0  0  0  0
 30 33  1  1  0  0  0
 32 35  1  0  0  0  0
 32 36  1  6  0  0  0
 32 37  1  0  0  0  0
 33 38  1  0  0  0  0
 34 35  1  0  0  0  0
M  END
$$$$

 OpenBabel10082411353D

 38 45  0  0  0  0  0  0  0  0999 V2000
   11.6836    6.0105   -4.8831 C   0  0  0  0  0  0  0  0  0  0  0  0
   11.1291    7.0732   -5.4395 C   0  0  0  0  0  0  0  0  0  0  0  0
   10.6954    7.0156   -6.8073 C   0  0  0  0  0  0  0  0  0  0  0  0
   10.2502    8.1187   -7.5536 C   0  0  2  0  0  0  0  0  0  0  0  0
   11.1205    8.4712   -4.9629 C   0  0  0  0  0  0  0  0  0  0  0  0
   10.8655    8.3511   -8.7960 C   0  0  0  0  0  0  0  0  0  0  0  0
   10.2922    7.8843   -9.9985 C   0  0  0  0  0  0  0  0  0  0  0  0
   10.4654    9.6993   -5.6120 C   0  0  0  0  0  0  0  0  0  0  0  0
   10.3510    9.5971   -7.0014 C   0  0  0  0  0  0  0  0  0  0  0  0
   12.2462    6.3351   -3.5020 C   0  0  0  0  0  0  0  0  0  0  0  0
   11.0471    7.5309  -11.1063 C   0  0  0  0  0  0  0  0  0  0  0  0
   11.7288    8.6923   -3.6518 C   0  0  0  0  0  0  0  0  0  0  0  0
   12.3991    7.7501  -11.1145 C   0  0  0  0  0  0  0  0  0  0  0  0
   12.3738    7.7580   -2.9599 C   0  0  0  0  0  0  0  0  0  0  0  0
   13.1285    8.5075  -10.1661 O   0  0  0  0  0  0  0  0  0  0  0  0
    9.0407    7.3775  -10.0973 N   0  0  0  0  0  0  0  0  0  0  0  0
    8.9787    6.9473  -11.4664 N   0  0  0  0  0  0  0  0  0  0  0  0
   13.1012    7.4459  -12.3707 C   0  0  0  0  0  0  0  0  0  0  0  0
   12.2395    6.9724  -13.2444 C   0  0  0  0  0  0  0  0  0  0  0  0
   10.2768    7.0170  -11.9799 C   0  0  0  0  0  0  0  0  0  0  0  0
   12.9237    6.5822  -14.5759 O   0  0  0  0  0  0  0  0  0  0  0  0
   10.8906    6.6526  -13.2252 C   0  0  0  0  0  0  0  0  0  0  0  0
   12.2396    6.1290  -15.6916 C   0  0  0  0  0  0  0  0  0  0  0  0
    7.7368    6.4514  -12.0707 C   0  0  0  0  0  0  0  0  0  0  0  0
    7.1353    7.2872  -12.8105 C   0  0  0  0  0  0  0  0  0  0  0  0
    7.6622    5.0135  -12.1225 C   0  0  2  0  0  0  0  0  0  0  0  0
   12.5092    4.6950  -15.8147 C   0  0  0  0  0  0  0  0  0  0  0  0
    5.9403    6.5840  -13.2897 C   0  0  0  0  0  0  0  0  0  0  0  0
   11.2738    3.8422  -15.5220 N   0  0  0  0  0  0  0  0  0  0  0  0
    8.7139    4.1736  -11.4601 C   0  0  0  0  0  0  0  0  0  0  0  0
    5.7546    5.3014  -13.2955 C   0  0  0  0  0  0  0  0  0  0  0  0
   10.5665    3.9988  -14.5162 C   0  0  0  0  0  0  0  0  0  0  0  0
   11.2403    2.6657  -16.2927 C   0  0  0  0  0  0  0  0  0  0  0  0
    9.3488    3.2304  -14.4620 C   0  0  0  0  0  0  0  0  0  0  0  0
    9.6031    2.1282  -15.6022 S   0  0  0  0  0  0  0  0  0  0  0  0
    8.2511    3.3142  -13.6213 C   0  0  1  0  0  0  0  0  0  0  0  0
    9.1172    3.3371  -12.4710 O   0  0  0  0  0  0  0  0  0  0  0  0
    7.4392    4.5289  -13.3106 C   0  0  2  0  0  0  0  0  0  0  0  0
  1  2  1  0  0  0  0
  1 10  2  0  0  0  0
  2  3  1  0  0  0  0
  2  5  2  0  0  0  0
  3  4  1  0  0  0  0
  4  6  1  6  0  0  0
  4  9  1  0  0  0  0
  5  8  1  0  0  0  0
  5 12  1  0  0  0  0
  6  7  1  0  0  0  0
  7 11  1  0  0  0  0
  7 16  2  0  0  0  0
  8  9  1  0  0  0  0
 10 14  1  0  0  0  0
 11 13  2  0  0  0  0
 11 20  1  0  0  0  0
 12 14  2  0  0  0  0
 13 15  1  0  0  0  0
 13 18  1  0  0  0  0
 16 17  1  0  0  0  0
 17 20  1  0  0  0  0
 17 24  1  0  0  0  0
 18 19  2  0  0  0  0
 19 21  1  0  0  0  0
 19 22  1  0  0  0  0
 20 22  2  0  0  0  0
 21 23  1  0  0  0  0
 23 27  1  0  0  0  0
 24 25  2  0  0  0  0
 24 26  1  0  0  0  0
 25 28  1  0  0  0  0
 26 30  1  6  0  0  0
 26 38  1  0  0  0  0
 27 29  1  0  0  0  0
 28 31  2  0  0  0  0
 29 32  1  0  0  0  0
 29 33  1  0  0  0  0
 30 37  1  0  0  0  0
 32 34  2  0  0  0  0
 33 35  1  0  0  0  0
 34 35  1  0  0  0  0
 36 34  1  6  0  0  0
 36 37  1  0  0  0  0
 36 38  1  0  0  0  0
 38 31  1  1  0  0  0
M  END
$$$$

 OpenBabel10082411353D

 38 43  0  0  0  0  0  0  0  0999 V2000
   11.6836    6.0105   -4.8831 F   0  0  0  0  0  0  0  0  0  0  0  0
   11.2562    7.2206   -5.0294 C   0  0  0  0  0  0  0  0  0  0  0  0
   12.0125    8.2418   -4.4408 C   0  0  0  0  0  0  0  0  0  0  0  0
   11.1918    7.2706   -6.5237 C   0  0  0  0  0  0  0  0  0  0  0  0
   11.6999    8.4488   -3.1704 F   0  0  0  0  0  0  0  0  0  0  0  0
    9.8648    7.0908   -4.5314 F   0  0  0  0  0  0  0  0  0  0  0  0
   11.6831    8.5291   -6.9682 C   0  0  0  0  0  0  0  0  0  0  0  0
   10.4785    6.5189   -7.4033 C   0  0  0  0  0  0  0  0  0  0  0  0
   11.6979    8.6661   -8.4760 C   0  0  0  0  0  0  0  0  0  0  0  0
   11.6248    9.5853   -5.0030 C   0  0  0  0  0  0  0  0  0  0  0  0
   11.8604    9.7907   -6.2903 O   0  0  0  0  0  0  0  0  0  0  0  0
   13.3557    8.1748   -4.5947 F   0  0  0  0  0  0  0  0  0  0  0  0
   10.5427    6.6061   -8.7190 C   0  0  0  0  0  0  0  0  0  0  0  0
   11.1158    7.7103   -9.2540 C   0  0  0  0  0  0  0  0  0  0  0  0
   11.3757    7.6656  -10.5293 N   0  0  0  0  0  0  0  0  0  0  0  0
   10.7153    7.7096  -11.5405 C   0  0  0  0  0  0  0  0  0  0  0  0
   11.2483    7.4711  -12.8542 C   0  0  0  0  0  0  0  0  0  0  0  0
    9.3980    7.7820  -11.5398 C   0  0  0  0  0  0  0  0  0  0  0  0
    8.6055    7.5889  -12.6525 C   0  0  0  0  0  0  0  0  0  0  0  0
   12.7508    7.3705  -13.0162 O   0  0  0  0  0  0  0  0  0  0  0  0
   10.5299    7.1831  -13.9856 C   0  0  0  0  0  0  0  0  0  0  0  0
    7.0533    7.7371  -12.5396 C   0  0  0  0  0  0  0  0  0  0  0  0
   11.2041    6.8490  -15.2304 C   0  0  0  0  0  0  0  0  0  0  0  0
   11.6393    5.5333  -15.3864 C   0  0  0  0  0  0  0  0  0  0  0  0
    9.1955    7.2935  -13.8301 C   0  0  0  0  0  0  0  0  0  0  0  0
   12.5294    5.1116  -16.1609 C   0  0  0  0  0  0  0  0  0  0  0  0
   11.2315    4.4703  -14.3200 C   0  0  0  0  0  0  0  0  0  0  0  0
   10.2844    4.5821  -13.3000 C   0  0  0  0  0  0  0  0  0  0  0  0
   11.6270    3.1866  -14.6052 C   0  0  0  0  0  0  0  0  0  0  0  0
    9.0868    3.8289  -13.3080 C   0  0  0  0  0  0  0  0  0  0  0  0
    8.1007    4.0948  -12.4103 C   0  0  0  0  0  0  0  0  0  0  0  0
    6.8410    3.6347  -12.6829 C   0  0  0  0  0  0  0  0  0  0  0  0
    6.7154    2.6437  -13.7684 C   0  0  0  0  0  0  0  0  0  0  0  0
   11.0823    2.0862  -13.7648 C   0  0  0  0  0  0  0  0  0  0  0  0
    9.3191    2.3459  -13.6315 C   0  0  2  0  0  0  0  0  0  0  0  0
    7.9943    1.9227  -14.0381 C   0  0  0  0  0  0  0  0  0  0  0  0
   12.4479    2.9946  -15.6890 C   0  0  0  0  0  0  0  0  0  0  0  0
   12.8846    3.9075  -16.4225 C   0  0  0  0  0  0  0  0  0  0  0  0
  1  2  1  0  0  0  0
  2  3  1  0  0  0  0
  2  4  1  0  0  0  0
  2  6  1  0  0  0  0
  3  5  1  0  0  0  0
  3 10  1  0  0  0  0
  3 12  1  0  0  0  0
  4  7  1  0  0  0  0
  4  8  2  0  0  0  0
  7  9  2  0  0  0  0
  7 11  1  0  0  0  0
  8 13  1  0  0  0  0
  9 14  1  0  0  0  0
 10 11  1  0  0  0  0
 13 14  2  0  0  0  0
 14 15  1  0  0  0  0
 15 16  1  0  0  0  0
 16 17  1  0  0  0  0
 16 18  2  0  0  0  0
 17 20  1  0  0  0  0
 17 21  2  0  0  0  0
 18 19  1  0  0  0  0
 19 22  1  0  0  0  0
 19 25  2  0  0  0  0
 21 23  1  0  0  0  0
 21 25  1  0  0  0  0
 23 24  1  0  0  0  0
 24 26  2  0  0  0  0
 24 27  1  0  0  0  0
 26 38  1  0  0  0  0
 27 28  1  0  0  0  0
 27 29  2  0  0  0  0
 28 30  2  0  0  0  0
 29 34  1  0  0  0  0
 29 37  1  0  0  0  0
 30 31  1  0  0  0  0
 30 35  1  0  0  0  0
 31 32  2  0  0  0  0
 32 33  1  0  0  0  0
 33 36  1  0  0  0  0
 35 34  1  6  0  0  0
 35 36  1  0  0  0  0
 37 38  2  0  0  0  0
M  END
$$$$

 OpenBabel10082411353D

 38 43  0  0  0  0  0  0  0  0999 V2000
   11.6836    6.0105   -4.8831 C   0  0  0  0  0  0  0  0  0  0  0  0
   11.1291    7.0732   -5.4395 C   0  0  0  0  0  0  0  0  0  0  0  0
   10.6954    7.0156   -6.8073 C   0  0  0  0  0  0  0  0  0  0  0  0
   10.2502    8.1187   -7.5536 C   0  0  2  0  0  0  0  0  0  0  0  0
   11.1205    8.4712   -4.9629 C   0  0  0  0  0  0  0  0  0  0  0  0
   10.8655    8.3511   -8.7960 C   0  0  0  0  0  0  0  0  0  0  0  0
   10.2922    7.8843   -9.9985 C   0  0  0  0  0  0  0  0  0  0  0  0
   10.4654    9.6993   -5.6120 C   0  0  0  0  0  0  0  0  0  0  0  0
   10.3510    9.5971   -7.0014 C   0  0  0  0  0  0  0  0  0  0  0  0
   12.2462    6.3351   -3.5020 C   0  0  0  0  0  0  0  0  0  0  0  0
   11.0471    7.5309  -11.1063 C   0  0  0  0  0  0  0  0  0  0  0  0
   11.7288    8.6923   -3.6518 C   0  0  0  0  0  0  0  0  0  0  0  0
   12.3991    7.7501  -11.1145 C   0  0  0  0  0  0  0  0  0  0  0  0
   12.3738    7.7580   -2.9599 C   0  0  0  0  0  0  0  0  0  0  0  0
   13.1285    8.5075  -10.1661 O   0  0  0  0  0  0  0  0  0  0  0  0
    9.0407    7.3775  -10.0973 N   0  0  0  0  0  0  0  0  0  0  0  0
    8.9787    6.9473  -11.4664 N   0  0  0  0  0  0  0  0  0  0  0  0
   13.1012    7.4459  -12.3707 C   0  0  0  0  0  0  0  0  0  0  0  0
   12.2395    6.9724  -13.2444 C   0  0  0  0  0  0  0  0  0  0  0  0
   10.2768    7.0170  -11.9799 C   0  0  0  0  0  0  0  0  0  0  0  0
   12.9237    6.5822  -14.5759 O   0  0  0  0  0  0  0  0  0  0  0  0
   10.8906    6.6526  -13.2252 C   0  0  0  0  0  0  0  0  0  0  0  0
   12.2396    6.1290  -15.6916 C   0  0  0  0  0  0  0  0  0  0  0  0
    7.7368    6.4514  -12.0707 C   0  0  0  0  0  0  0  0  0  0  0  0
    7.1353    7.2872  -12.8105 C   0  0  0  0  0  0  0  0  0  0  0  0
    7.6622    5.0135  -12.1225 C   0  0  0  0  0  0  0  0  0  0  0  0
   12.5092    4.6950  -15.8147 C   0  0  0  0  0  0  0  0  0  0  0  0
    5.9403    6.5840  -13.2897 C   0  0  0  0  0  0  0  0  0  0  0  0
   11.2738    3.8422  -15.5220 N   0  0  0  0  0  0  0  0  0  0  0  0
    8.7139    4.1736  -11.4601 C   0  0  0  0  0  0  0  0  0  0  0  0
    5.7546    5.3014  -13.2955 C   0  0  0  0  0  0  0  0  0  0  0  0
   10.5665    3.9988  -14.5162 C   0  0  0  0  0  0  0  0  0  0  0  0
    6.6518    4.4534  -12.6459 C   0  0  0  0  0  0  0  0  0  0  0  0
   11.1930    2.6728  -16.3047 C   0  0  0  0  0  0  0  0  0  0  0  0
    9.3666    3.2067  -14.4637 C   0  0  0  0  0  0  0  0  0  0  0  0
   10.1774    1.9143  -16.2256 C   0  0  0  0  0  0  0  0  0  0  0  0
    9.2103    2.1178  -15.1869 C   0  0  2  0  0  0  0  0  0  0  0  0
    8.1694    1.2985  -15.0420 O   0  0  0  0  0  0  0  0  0  0  0  0
  1  2  1  0  0  0  0
  1 10  2  0  0  0  0
  2  3  1  0  0  0  0
  2  5  2  0  0  0  0
  3  4  1  0  0  0  0
  4  6  1  6  0  0  0
  4  9  1  0  0  0  0
  5  8  1  0  0  0  0
  5 12  1  0  0  0  0
  6  7  1  0  0  0  0
  7 11  1  0  0  0  0
  7 16  2  0  0  0  0
  8  9  1  0  0  0  0
 10 14  1  0  0  0  0
 11 13  2  0  0  0  0
 11 20  1  0  0  0  0
 12 14  2  0  0  0  0
 13 15  1  0  0  0  0
 13 18  1  0  0  0  0
 16 17  1  0  0  0  0
 17 20  1  0  0  0  0
 17 24  1  0  0  0  0
 18 19  2  0  0  0  0
 19 21  1  0  0  0  0
 19 22  1  0  0  0  0
 20 22  2  0  0  0  0
 21 23  1  0  0  0  0
 23 27  1  0  0  0  0
 24 25  2  0  0  0  0
 24 26  1  0  0  0  0
 25 28  1  0  0  0  0
 26 30  1  0  0  0  0
 26 33  2  0  0  0  0
 27 29  1  0  0  0  0
 28 31  2  0  0  0  0
 29 32  1  0  0  0  0
 29 34  1  0  0  0  0
 31 33  1  0  0  0  0
 32 35  2  0  0  0  0
 34 36  2  0  0  0  0
 35 37  1  0  0  0  0
 36 37  1  0  0  0  0
 37 38  1  6  0  0  0
M  END
$$$$

 OpenBabel10082411353D

 38 44  0  0  0  0  0  0  0  0999 V2000
   12.7863    7.8241  -14.2109 C   0  0  0  0  0  0  0  0  0  0  0  0
   12.4233    7.7158  -13.0289 C   0  0  0  0  0  0  0  0  0  0  0  0
   11.3194    6.8571  -12.8028 C   0  0  0  0  0  0  0  0  0  0  0  0
   12.3150    7.2021  -15.3582 C   0  0  0  0  0  0  0  0  0  0  0  0
   11.2733    6.2739  -15.1502 C   0  0  0  0  0  0  0  0  0  0  0  0
   10.8099    6.0126  -13.8600 C   0  0  0  0  0  0  0  0  0  0  0  0
    9.6782    5.1428  -13.6488 C   0  0  0  0  0  0  0  0  0  0  0  0
    8.5753    5.3880  -12.9589 N   0  0  0  0  0  0  0  0  0  0  0  0
    8.3226    6.7011  -12.3862 C   0  0  0  0  0  0  0  0  0  0  0  0
    9.8502    3.8578  -14.0728 C   0  0  0  0  0  0  0  0  0  0  0  0
    7.3864    7.4720  -13.0530 C   0  0  0  0  0  0  0  0  0  0  0  0
    6.2412    7.8486  -12.2599 C   0  0  0  0  0  0  0  0  0  0  0  0
    7.6425    4.4186  -12.7943 C   0  0  0  0  0  0  0  0  0  0  0  0
   11.0297    3.2482  -14.8053 C   0  0  0  0  0  0  0  0  0  0  0  0
    8.6802    2.8955  -13.7960 C   0  0  0  0  0  0  0  0  0  0  0  0
    8.8565    1.5917  -14.3582 O   0  0  0  0  0  0  0  0  0  0  0  0
    7.6903    3.2226  -13.1994 N   0  0  0  0  0  0  0  0  0  0  0  0
    6.5724    2.3444  -12.8378 C   0  0  0  0  0  0  0  0  0  0  0  0
    9.0225    7.0353  -11.3259 C   0  0  0  0  0  0  0  0  0  0  0  0
    6.2405    4.8489  -12.4515 C   0  0  0  0  0  0  0  0  0  0  0  0
   10.5875    7.0617  -11.5321 C   0  0  0  0  0  0  0  0  0  0  0  0
   11.0960    7.6093  -10.4100 C   0  0  0  0  0  0  0  0  0  0  0  0
    8.4039    7.3336  -10.1102 C   0  0  0  0  0  0  0  0  0  0  0  0
    5.5911    3.3517  -12.3508 C   0  0  0  0  0  0  0  0  0  0  0  0
   12.6259    7.6530  -10.3901 C   0  0  0  0  0  0  0  0  0  0  0  0
   10.4284    7.7784   -9.2128 C   0  0  0  0  0  0  0  0  0  0  0  0
    9.2236    7.5051   -9.0617 C   0  0  2  0  0  0  0  0  0  0  0  0
    8.7145    7.3063   -7.7135 N   0  0  0  0  0  0  0  0  0  0  0  0
    9.3548    8.2125   -6.8305 C   0  0  0  0  0  0  0  0  0  0  0  0
   13.2400    8.3532   -9.3250 C   0  0  0  0  0  0  0  0  0  0  0  0
    8.8718    5.9168   -7.2228 C   0  0  0  0  0  0  0  0  0  0  0  0
   12.5074    8.3587   -8.0386 C   0  0  0  0  0  0  0  0  0  0  0  0
   11.1924    8.1932   -7.9474 C   0  0  0  0  0  0  0  0  0  0  0  0
   10.5178    8.6952   -6.8252 C   0  0  0  0  0  0  0  0  0  0  0  0
   11.1798    9.5655   -5.8540 C   0  0  0  0  0  0  0  0  0  0  0  0
   11.3737    9.0876   -4.5083 C   0  0  0  0  0  0  0  0  0  0  0  0
   12.4169    9.6515   -3.7307 C   0  0  0  0  0  0  0  0  0  0  0  0
   11.7525    7.5746   -4.5699 C   0  0  0  0  0  0  0  0  0  0  0  0
  1  2  2  0  0  0  0
  1  4  1  0  0  0  0
  2  3  1  0  0  0  0
  3  6  2  0  0  0  0
  3 21  1  0  0  0  0
  4  5  2  0  0  0  0
  5  6  1  0  0  0  0
  6  7  1  0  0  0  0
  7  8  1  0  0  0  0
  7 10  2  0  0  0  0
  8  9  1  0  0  0  0
  8 13  1  0  0  0  0
  9 11  1  0  0  0  0
  9 19  2  0  0  0  0
 10 14  1  0  0  0  0
 10 15  1  0  0  0  0
 11 12  1  0  0  0  0
 13 17  1  0  0  0  0
 13 20  2  0  0  0  0
 15 16  2  0  0  0  0
 15 17  1  0  0  0  0
 17 18  1  0  0  0  0
 18 24  1  0  0  0  0
 19 21  1  0  0  0  0
 19 23  1  0  0  0  0
 20 24  1  0  0  0  0
 21 22  2  0  0  0  0
 22 25  1  0  0  0  0
 22 26  1  0  0  0  0
 25 30  1  0  0  0  0
 26 27  1  0  0  0  0
 26 33  2  0  0  0  0
 27 23  1  6  0  0  0
 27 28  1  0  0  0  0
 28 29  1  0  0  0  0
 28 31  1  0  0  0  0
 29 34  2  0  0  0  0
 30 32  1  0  0  0  0
 32 33  1  0  0  0  0
 33 34  1  0  0  0  0
 34 35  1  0  0  0  0
 35 36  1  0  0  0  0
 36 37  1  0  0  0  0
 36 38  1  0  0  0  0
M  END
$$$$

 OpenBabel10082411353D

 38 44  0  0  0  0  0  0  0  0999 V2000
   12.7863    7.8241  -14.2109 C   0  0  0  0  0  0  0  0  0  0  0  0
   12.4233    7.7158  -13.0289 C   0  0  0  0  0  0  0  0  0  0  0  0
   11.3194    6.8571  -12.8028 C   0  0  0  0  0  0  0  0  0  0  0  0
   12.3150    7.2021  -15.3582 C   0  0  0  0  0  0  0  0  0  0  0  0
   11.2733    6.2739  -15.1502 C   0  0  0  0  0  0  0  0  0  0  0  0
   10.8099    6.0126  -13.8600 C   0  0  0  0  0  0  0  0  0  0  0  0
    9.6782    5.1428  -13.6488 C   0  0  0  0  0  0  0  0  0  0  0  0
    8.5753    5.3880  -12.9589 N   0  0  0  0  0  0  0  0  0  0  0  0
    8.3226    6.7011  -12.3862 C   0  0  0  0  0  0  0  0  0  0  0  0
    9.8502    3.8578  -14.0728 C   0  0  0  0  0  0  0  0  0  0  0  0
    7.3864    7.4720  -13.0530 C   0  0  0  0  0  0  0  0  0  0  0  0
    6.2412    7.8486  -12.2599 C   0  0  0  0  0  0  0  0  0  0  0  0
    7.6425    4.4186  -12.7943 C   0  0  0  0  0  0  0  0  0  0  0  0
   11.0297    3.2482  -14.8053 C   0  0  0  0  0  0  0  0  0  0  0  0
    8.6802    2.8955  -13.7960 C   0  0  0  0  0  0  0  0  0  0  0  0
    8.8565    1.5917  -14.3582 O   0  0  0  0  0  0  0  0  0  0  0  0
    7.6903    3.2226  -13.1994 N   0  0  0  0  0  0  0  0  0  0  0  0
    6.5724    2.3444  -12.8378 C   0  0  0  0  0  0  0  0  0  0  0  0
    9.0225    7.0353  -11.3259 C   0  0  0  0  0  0  0  0  0  0  0  0
    6.2405    4.8489  -12.4515 C   0  0  0  0  0  0  0  0  0  0  0  0
   10.5875    7.0617  -11.5321 C   0  0  0  0  0  0  0  0  0  0  0  0
   11.0960    7.6093  -10.4100 C   0  0  0  0  0  0  0  0  0  0  0  0
    8.4039    7.3336  -10.1102 C   0  0  0  0  0  0  0  0  0  0  0  0
    5.5911    3.3517  -12.3508 C   0  0  0  0  0  0  0  0  0  0  0  0
   12.6259    7.6530  -10.3901 C   0  0  0  0  0  0  0  0  0  0  0  0
   10.4284    7.7784   -9.2128 C   0  0  1  0  0  0  0  0  0  0  0  0
    9.2236    7.5051   -9.0617 C   0  0  2  0  0  0  0  0  0  0  0  0
    8.7145    7.3063   -7.7135 N   0  0  0  0  0  0  0  0  0  0  0  0
   11.0621    7.5242   -7.8430 C   0  0  1  0  0  0  0  0  0  0  0  0
   12.0213    8.4787   -7.3268 C   0  0  0  0  0  0  0  0  0  0  0  0
   13.1241    8.0749  -11.7293 C   0  0  0  0  0  0  0  0  0  0  0  0
   12.0504    9.6950   -7.9009 O   0  0  0  0  0  0  0  0  0  0  0  0
    9.8858    7.2444   -6.9594 C   0  0  2  0  0  0  0  0  0  0  0  0
    9.9777    5.9996   -6.3117 C   0  0  0  0  0  0  0  0  0  0  0  0
    8.9391    5.1621   -6.4362 C   0  0  0  0  0  0  0  0  0  0  0  0
   12.5667    8.4703   -6.0695 N   0  0  0  0  0  0  0  0  0  0  0  0
   13.2600    9.5871   -5.4885 C   0  0  0  0  0  0  0  0  0  0  0  0
   10.2457    6.1760   -4.8811 C   0  0  0  0  0  0  0  0  0  0  0  0
  1  2  2  0  0  0  0
  1  4  1  0  0  0  0
  2  3  1  0  0  0  0
  2 31  1  0  0  0  0
  3  6  2  0  0  0  0
  3 21  1  0  0  0  0
  4  5  2  0  0  0  0
  5  6  1  0  0  0  0
  6  7  1  0  0  0  0
  7  8  1  0  0  0  0
  7 10  2  0  0  0  0
  8  9  1  0  0  0  0
  8 13  1  0  0  0  0
  9 11  1  0  0  0  0
  9 19  2  0  0  0  0
 10 14  1  0  0  0  0
 10 15  1  0  0  0  0
 11 12  1  0  0  0  0
 13 17  1  0  0  0  0
 13 20  2  0  0  0  0
 15 16  2  0  0  0  0
 15 17  1  0  0  0  0
 17 18  1  0  0  0  0
 18 24  1  0  0  0  0
 19 21  1  0  0  0  0
 19 23  1  0  0  0  0
 20 24  1  0  0  0  0
 21 22  2  0  0  0  0
 22 25  1  0  0  0  0
 25 31  2  0  0  0  0
 26 22  1  6  0  0  0
 26 27  1  0  0  0  0
 26 29  1  0  0  0  0
 27 23  1  6  0  0  0
 27 28  1  0  0  0  0
 28 33  1  0  0  0  0
 29 30  1  1  0  0  0
 29 33  1  0  0  0  0
 30 32  2  0  0  0  0
 30 36  1  0  0  0  0
 33 34  1  6  0  0  0
 34 35  1  0  0  0  0
 34 38  1  0  0  0  0
 36 37  1  0  0  0  0
M  END
$$$$

 OpenBabel10082411353D

 26 29  0  0  0  0  0  0  0  0999 V2000
   10.9951    9.9694   -4.9946 C   0  0  0  0  0  0  0  0  0  0  0  0
   11.7938    9.3762   -4.2463 C   0  0  0  0  0  0  0  0  0  0  0  0
   10.8673    9.4548   -6.4276 C   0  0  0  0  0  0  0  0  0  0  0  0
   11.6576    7.9117   -4.2944 C   0  0  0  0  0  0  0  0  0  0  0  0
   10.5498    8.0257   -6.4521 C   0  0  0  0  0  0  0  0  0  0  0  0
   11.4715    7.2752   -5.6166 C   0  0  0  0  0  0  0  0  0  0  0  0
   10.5840    7.5390   -7.9254 C   0  0  0  0  0  0  0  0  0  0  0  0
   11.4612    8.1494   -8.8322 C   0  0  0  0  0  0  0  0  0  0  0  0
   12.6250    8.6294   -8.4338 O   0  0  0  0  0  0  0  0  0  0  0  0
   11.0835    8.4395  -10.0740 O   0  0  0  0  0  0  0  0  0  0  0  0
   11.2938    7.5612  -11.0769 C   0  0  1  0  0  0  0  0  0  0  0  0
   10.1547    7.2525  -11.9492 C   0  0  0  0  0  0  0  0  0  0  0  0
   10.4293    6.5622  -13.1348 C   0  0  0  0  0  0  0  0  0  0  0  0
   11.7295    6.4217  -13.6243 C   0  0  0  0  0  0  0  0  0  0  0  0
    8.7944    7.5590  -11.6123 C   0  0  1  0  0  0  0  0  0  0  0  0
   12.5537    7.8766  -11.6623 C   0  0  0  0  0  0  0  0  0  0  0  0
    8.3227    8.8234  -11.9576 C   0  0  0  0  0  0  0  0  0  0  0  0
    7.8789    6.3689  -11.9729 C   0  0  0  0  0  0  0  0  0  0  0  0
   12.7850    7.2972  -12.9839 C   0  0  0  0  0  0  0  0  0  0  0  0
   12.0731    5.5969  -14.4476 C   0  0  0  0  0  0  0  0  0  0  0  0
    8.3335    5.6916  -12.9896 C   0  0  0  0  0  0  0  0  0  0  0  0
    9.5105    5.6776  -13.5546 C   0  0  0  0  0  0  0  0  0  0  0  0
   11.0914    4.7187  -15.0981 C   0  0  0  0  0  0  0  0  0  0  0  0
    9.7989    4.7829  -14.6146 C   0  0  0  0  0  0  0  0  0  0  0  0
   11.5488    3.7615  -16.3479 C   0  0  0  0  0  0  0  0  0  0  0  0
   11.2829    2.5030  -16.1041 C   0  0  0  0  0  0  0  0  0  0  0  0
  1  2  1  0  0  0  0
  1  3  1  0  0  0  0
  2  4  1  0  0  0  0
  3  5  1  0  0  0  0
  4  6  1  0  0  0  0
  5  6  1  0  0  0  0
  5  7  1  0  0  0  0
  7  8  1  0  0  0  0
  8  9  2  0  0  0  0
  8 10  1  0  0  0  0
 11 10  1  6  0  0  0
 11 12  1  0  0  0  0
 11 16  1  0  0  0  0
 12 13  2  0  0  0  0
 12 15  1  0  0  0  0
 13 14  1  0  0  0  0
 13 22  1  0  0  0  0
 14 19  1  0  0  0  0
 14 20  2  0  0  0  0
 15 17  1  6  0  0  0
 15 18  1  0  0  0  0
 16 19  1  0  0  0  0
 18 21  1  0  0  0  0
 20 23  1  0  0  0  0
 21 22  2  0  0  0  0
 22 24  1  0  0  0  0
 23 24  2  0  0  0  0
 23 25  1  0  0  0  0
 25 26  1  0  0  0  0
M  END
$$$$

 OpenBabel10082411353D

 38 47  0  0  0  0  0  0  0  0999 V2000
    8.0806    9.0240  -12.7589 C   0  0  0  0  0  0  0  0  0  0  0  0
    8.6514    7.8645  -12.2948 C   0  0  0  0  0  0  0  0  0  0  0  0
    9.9575    7.9974  -11.8426 C   0  0  0  0  0  0  0  0  0  0  0  0
   10.7657    6.8667  -11.6050 C   0  0  1  0  0  0  0  0  0  0  0  0
   10.7682    5.9590  -12.8271 C   0  0  0  0  0  0  0  0  0  0  0  0
   12.1553    7.3846  -11.2315 C   0  0  0  0  0  0  0  0  0  0  0  0
    8.0676    6.6451  -12.2974 C   0  0  0  0  0  0  0  0  0  0  0  0
   10.1892    6.1240  -10.3860 C   0  0  0  0  0  0  0  0  0  0  0  0
   11.8375    5.4373  -13.3240 O   0  0  0  0  0  0  0  0  0  0  0  0
    8.6785    5.4761  -13.0273 C   0  0  1  0  0  0  0  0  0  0  0  0
    9.1969    5.2405  -10.4969 C   0  0  1  0  0  0  0  0  0  0  0  0
    7.2213    6.2210  -11.3074 C   0  0  1  0  0  0  0  0  0  0  0  0
   12.5590    7.6872   -9.9896 C   0  0  0  0  0  0  0  0  0  0  0  0
    9.7633    5.0333  -12.9720 C   0  0  1  0  0  0  0  0  0  0  0  0
   10.0661    4.0167  -14.0373 N   0  0  0  0  0  0  0  0  0  0  0  0
   13.6906    8.3004   -9.6233 O   0  0  0  0  0  0  0  0  0  0  0  0
    7.6357    4.5123  -12.6317 C   0  0  2  0  0  0  0  0  0  0  0  0
    6.8831    4.9171  -11.7031 C   0  0  1  0  0  0  0  0  0  0  0  0
   10.5937    6.6967   -9.1779 C   0  0  0  0  0  0  0  0  0  0  0  0
    9.5087    4.3263  -11.6925 C   0  0  2  0  0  0  0  0  0  0  0  0
   11.6359    7.4449   -8.9125 C   0  0  0  0  0  0  0  0  0  0  0  0
   11.9716    7.9159   -7.6200 C   0  0  0  0  0  0  0  0  0  0  0  0
    8.4648    3.6122  -12.2840 C   0  0  2  0  0  0  0  0  0  0  0  0
    9.3128    4.5571   -9.1689 C   0  0  0  0  0  0  0  0  0  0  0  0
   10.9557    7.6369   -6.5929 C   0  0  2  0  0  0  0  0  0  0  0  0
    9.6490    2.8108  -13.7776 C   0  0  1  0  0  0  0  0  0  0  0  0
    9.6716    6.1981   -8.0224 C   0  0  2  0  0  0  0  0  0  0  0  0
    8.5511    2.5400  -13.1402 C   0  0  0  0  0  0  0  0  0  0  0  0
    9.7877    2.0302  -15.0383 O   0  0  0  0  0  0  0  0  0  0  0  0
   10.2949    6.3957   -6.8142 C   0  0  0  0  0  0  0  0  0  0  0  0
   10.0248    8.9234   -6.5076 C   0  0  0  0  0  0  0  0  0  0  0  0
   11.5333    7.8194   -5.1272 C   0  0  0  0  0  0  0  0  0  0  0  0
    8.7519    3.1892   -9.1734 C   0  0  0  0  0  0  0  0  0  0  0  0
    9.3611    5.0979   -8.0224 C   0  0  0  0  0  0  0  0  0  0  0  0
    7.9004    5.5804  -10.3260 C   0  0  1  0  0  0  0  0  0  0  0  0
   11.7442    6.9789   -4.4692 O   0  0  0  0  0  0  0  0  0  0  0  0
   12.2917    9.0406   -4.9145 O   0  0  0  0  0  0  0  0  0  0  0  0
   12.6735    9.3718   -3.6265 C   0  0  0  0  0  0  0  0  0  0  0  0
  1  2  1  0  0  0  0
  2  3  1  0  0  0  0
  2  7  2  0  0  0  0
  4  3  1  6  0  0  0
  4  5  1  0  0  0  0
  4  6  1  0  0  0  0
  4  8  1  0  0  0  0
  5  9  2  0  0  0  0
  6 13  1  0  0  0  0
  8 19  2  0  0  0  0
 10  7  1  1  0  0  0
 10 14  1  0  0  0  0
 10 17  1  0  0  0  0
 11  8  1  6  0  0  0
 11 20  1  0  0  0  0
 11 24  1  0  0  0  0
 11 35  1  0  0  0  0
 12  7  1  6  0  0  0
 12 18  1  0  0  0  0
 12 35  1  0  0  0  0
 13 16  2  0  0  0  0
 13 21  1  0  0  0  0
 14  5  1  1  0  0  0
 14 15  1  0  0  0  0
 14 20  1  0  0  0  0
 15 26  1  0  0  0  0
 17 18  1  0  0  0  0
 17 23  1  0  0  0  0
 18 35  1  0  0  0  0
 19 21  1  0  0  0  0
 19 27  1  0  0  0  0
 20 23  1  0  0  0  0
 21 22  2  0  0  0  0
 22 25  1  0  0  0  0
 23 28  1  0  0  0  0
 24 33  2  0  0  0  0
 24 34  1  0  0  0  0
 25 30  1  0  0  0  0
 25 31  1  0  0  0  0
 25 32  1  0  0  0  0
 26 28  1  0  0  0  0
 26 29  1  0  0  0  0
 27 30  1  0  0  0  0
 27 34  1  0  0  0  0
 32 36  2  0  0  0  0
 32 37  1  0  0  0  0
 37 38  1  0  0  0  0
M  END
$$$$

 OpenBabel10082411353D

 38 44  0  0  0  0  0  0  0  0999 V2000
   11.6836    6.0105   -4.8831 C   0  0  0  0  0  0  0  0  0  0  0  0
   11.1291    7.0732   -5.4395 C   0  0  0  0  0  0  0  0  0  0  0  0
   10.6954    7.0156   -6.8073 C   0  0  0  0  0  0  0  0  0  0  0  0
   10.2502    8.1187   -7.5536 C   0  0  2  0  0  0  0  0  0  0  0  0
   11.1205    8.4712   -4.9629 C   0  0  0  0  0  0  0  0  0  0  0  0
   10.8655    8.3511   -8.7960 C   0  0  0  0  0  0  0  0  0  0  0  0
   10.2922    7.8843   -9.9985 C   0  0  0  0  0  0  0  0  0  0  0  0
   10.4654    9.6993   -5.6120 C   0  0  0  0  0  0  0  0  0  0  0  0
   10.3510    9.5971   -7.0014 C   0  0  0  0  0  0  0  0  0  0  0  0
   12.2462    6.3351   -3.5020 C   0  0  0  0  0  0  0  0  0  0  0  0
   11.0471    7.5309  -11.1063 C   0  0  0  0  0  0  0  0  0  0  0  0
   11.7288    8.6923   -3.6518 C   0  0  0  0  0  0  0  0  0  0  0  0
   12.3991    7.7501  -11.1145 C   0  0  0  0  0  0  0  0  0  0  0  0
   12.3738    7.7580   -2.9599 C   0  0  0  0  0  0  0  0  0  0  0  0
   13.1285    8.5075  -10.1661 O   0  0  0  0  0  0  0  0  0  0  0  0
    9.0407    7.3775  -10.0973 N   0  0  0  0  0  0  0  0  0  0  0  0
    8.9787    6.9473  -11.4664 N   0  0  0  0  0  0  0  0  0  0  0  0
   13.1012    7.4459  -12.3707 C   0  0  0  0  0  0  0  0  0  0  0  0
   12.2395    6.9724  -13.2444 C   0  0  0  0  0  0  0  0  0  0  0  0
   10.2768    7.0170  -11.9799 C   0  0  0  0  0  0  0  0  0  0  0  0
   12.9237    6.5822  -14.5759 O   0  0  0  0  0  0  0  0  0  0  0  0
   10.8906    6.6526  -13.2252 C   0  0  0  0  0  0  0  0  0  0  0  0
   12.2396    6.1290  -15.6916 C   0  0  0  0  0  0  0  0  0  0  0  0
    7.7368    6.4514  -12.0707 C   0  0  0  0  0  0  0  0  0  0  0  0
    7.1353    7.2872  -12.8105 C   0  0  0  0  0  0  0  0  0  0  0  0
    7.6622    5.0135  -12.1225 C   0  0  0  0  0  0  0  0  0  0  0  0
   12.5092    4.6950  -15.8147 C   0  0  0  0  0  0  0  0  0  0  0  0
    5.9403    6.5840  -13.2897 C   0  0  0  0  0  0  0  0  0  0  0  0
   11.2738    3.8422  -15.5220 N   0  0  0  0  0  0  0  0  0  0  0  0
    8.7139    4.1736  -11.4601 C   0  0  0  0  0  0  0  0  0  0  0  0
    6.6269    4.4744  -12.6955 C   0  0  0  0  0  0  0  0  0  0  0  0
    9.4620    3.2890  -12.1895 O   0  0  0  0  0  0  0  0  0  0  0  0
    5.7480    5.3068  -13.3143 C   0  0  0  0  0  0  0  0  0  0  0  0
    9.2569    3.2107  -13.4796 C   0  0  2  0  0  0  0  0  0  0  0  0
   11.2664    3.0418  -14.3307 C   0  0  0  0  0  0  0  0  0  0  0  0
    9.9594    4.3070  -15.5253 C   0  0  0  0  0  0  0  0  0  0  0  0
   10.1091    2.2857  -14.0366 C   0  0  0  0  0  0  0  0  0  0  0  0
    8.9911    3.9094  -14.5893 C   0  0  0  0  0  0  0  0  0  0  0  0
  1  2  1  0  0  0  0
  1 10  2  0  0  0  0
  2  3  1  0  0  0  0
  2  5  2  0  0  0  0
  3  4  1  0  0  0  0
  4  6  1  6  0  0  0
  4  9  1  0  0  0  0
  5  8  1  0  0  0  0
  5 12  1  0  0  0  0
  6  7  1  0  0  0  0
  7 11  1  0  0  0  0
  7 16  2  0  0  0  0
  8  9  1  0  0  0  0
 10 14  1  0  0  0  0
 11 13  2  0  0  0  0
 11 20  1  0  0  0  0
 12 14  2  0  0  0  0
 13 15  1  0  0  0  0
 13 18  1  0  0  0  0
 16 17  1  0  0  0  0
 17 20  1  0  0  0  0
 17 24  1  0  0  0  0
 18 19  2  0  0  0  0
 19 21  1  0  0  0  0
 19 22  1  0  0  0  0
 20 22  2  0  0  0  0
 21 23  1  0  0  0  0
 23 27  1  0  0  0  0
 24 25  2  0  0  0  0
 24 26  1  0  0  0  0
 25 28  1  0  0  0  0
 26 30  1  0  0  0  0
 26 31  2  0  0  0  0
 27 29  1  0  0  0  0
 28 33  2  0  0  0  0
 29 35  1  0  0  0  0
 29 36  1  0  0  0  0
 30 32  1  0  0  0  0
 31 33  1  0  0  0  0
 32 34  1  0  0  0  0
 34 37  1  6  0  0  0
 34 38  1  0  0  0  0
 35 37  1  0  0  0  0
 36 38  2  0  0  0  0
M  END
$$$$

 OpenBabel10082411353D

 38 48  0  0  0  0  0  0  0  0999 V2000
    8.0806    9.0240  -12.7589 C   0  0  0  0  0  0  0  0  0  0  0  0
    8.6514    7.8645  -12.2948 C   0  0  0  0  0  0  0  0  0  0  0  0
    9.9575    7.9974  -11.8426 C   0  0  0  0  0  0  0  0  0  0  0  0
   10.7657    6.8667  -11.6050 C   0  0  1  0  0  0  0  0  0  0  0  0
   10.7682    5.9590  -12.8271 C   0  0  0  0  0  0  0  0  0  0  0  0
   12.1553    7.3846  -11.2315 C   0  0  0  0  0  0  0  0  0  0  0  0
    8.0676    6.6451  -12.2974 C   0  0  0  0  0  0  0  0  0  0  0  0
   10.1892    6.1240  -10.3860 C   0  0  0  0  0  0  0  0  0  0  0  0
   11.8375    5.4373  -13.3240 O   0  0  0  0  0  0  0  0  0  0  0  0
    8.6785    5.4761  -13.0273 C   0  0  1  0  0  0  0  0  0  0  0  0
    9.1969    5.2405  -10.4969 C   0  0  1  0  0  0  0  0  0  0  0  0
    7.2213    6.2210  -11.3074 C   0  0  1  0  0  0  0  0  0  0  0  0
   12.5590    7.6872   -9.9896 C   0  0  0  0  0  0  0  0  0  0  0  0
    9.7633    5.0333  -12.9720 C   0  0  1  0  0  0  0  0  0  0  0  0
   10.0661    4.0167  -14.0373 N   0  0  0  0  0  0  0  0  0  0  0  0
   13.6906    8.3004   -9.6233 O   0  0  0  0  0  0  0  0  0  0  0  0
    7.6357    4.5123  -12.6317 C   0  0  2  0  0  0  0  0  0  0  0  0
    6.8831    4.9171  -11.7031 C   0  0  1  0  0  0  0  0  0  0  0  0
   10.5937    6.6967   -9.1779 C   0  0  0  0  0  0  0  0  0  0  0  0
    9.5087    4.3263  -11.6925 C   0  0  2  0  0  0  0  0  0  0  0  0
   11.6359    7.4449   -8.9125 C   0  0  0  0  0  0  0  0  0  0  0  0
   11.9716    7.9159   -7.6200 C   0  0  0  0  0  0  0  0  0  0  0  0
    8.4648    3.6122  -12.2840 C   0  0  2  0  0  0  0  0  0  0  0  0
    9.3128    4.5571   -9.1689 C   0  0  0  0  0  0  0  0  0  0  0  0
   10.9557    7.6369   -6.5929 C   0  0  0  0  0  0  0  0  0  0  0  0
    9.6490    2.8108  -13.7776 C   0  0  1  0  0  0  0  0  0  0  0  0
    9.6716    6.1981   -8.0224 C   0  0  2  0  0  0  0  0  0  0  0  0
    8.5511    2.5400  -13.1402 C   0  0  0  0  0  0  0  0  0  0  0  0
    9.7877    2.0302  -15.0383 O   0  0  0  0  0  0  0  0  0  0  0  0
   10.2949    6.3957   -6.8142 C   0  0  0  0  0  0  0  0  0  0  0  0
    8.7552    3.1757   -9.1739 O   0  0  0  0  0  0  0  0  0  0  0  0
   10.0241    8.9015   -6.4644 C   0  0  0  0  0  0  0  0  0  0  0  0
   11.5641    7.7572   -5.1363 C   0  0  0  0  0  0  0  0  0  0  0  0
    9.3278    5.0059   -8.0166 N   0  0  0  0  0  0  0  0  0  0  0  0
   12.0394    9.0178   -4.6959 C   0  0  0  0  0  0  0  0  0  0  0  0
   10.8907    9.8999   -4.5317 C   0  0  0  0  0  0  0  0  0  0  0  0
   10.5550   10.1857   -5.9966 C   0  0  0  0  0  0  0  0  0  0  0  0
    7.9520    5.6617  -10.4516 C   0  0  1  0  0  0  0  0  0  0  0  0
  1  2  1  0  0  0  0
  2  3  1  0  0  0  0
  2  7  2  0  0  0  0
  4  3  1  6  0  0  0
  4  5  1  0  0  0  0
  4  6  1  0  0  0  0
  4  8  1  0  0  0  0
  5  9  2  0  0  0  0
  6 13  1  0  0  0  0
  8 19  2  0  0  0  0
 10  7  1  1  0  0  0
 10 14  1  0  0  0  0
 10 17  1  0  0  0  0
 11  8  1  6  0  0  0
 11 20  1  0  0  0  0
 11 24  1  0  0  0  0
 11 38  1  0  0  0  0
 12  7  1  6  0  0  0
 12 18  1  0  0  0  0
 12 38  1  0  0  0  0
 13 16  2  0  0  0  0
 13 21  1  0  0  0  0
 14  5  1  1  0  0  0
 14 15  1  0  0  0  0
 14 20  1  0  0  0  0
 15 26  1  0  0  0  0
 17 18  1  0  0  0  0
 17 23  1  0  0  0  0
 18 38  1  0  0  0  0
 19 21  1  0  0  0  0
 19 27  1  0  0  0  0
 20 23  1  0  0  0  0
 21 22  2  0  0  0  0
 22 25  1  0  0  0  0
 23 28  1  0  0  0  0
 24 31  2  0  0  0  0
 24 34  1  0  0  0  0
 25 30  1  0  0  0  0
 25 32  1  0  0  0  0
 25 33  1  0  0  0  0
 26 28  1  0  0  0  0
 26 29  1  0  0  0  0
 27 30  1  0  0  0  0
 27 34  1  0  0  0  0
 32 37  1  0  0  0  0
 33 35  1  0  0  0  0
 35 36  1  0  0  0  0
 36 37  1  0  0  0  0
M  END
$$$$

 OpenBabel10082411353D

 38 44  0  0  0  0  0  0  0  0999 V2000
   11.6836    6.0105   -4.8831 C   0  0  0  0  0  0  0  0  0  0  0  0
   11.1291    7.0732   -5.4395 C   0  0  0  0  0  0  0  0  0  0  0  0
   10.6954    7.0156   -6.8073 C   0  0  0  0  0  0  0  0  0  0  0  0
   10.2502    8.1187   -7.5536 C   0  0  2  0  0  0  0  0  0  0  0  0
   11.1205    8.4712   -4.9629 C   0  0  0  0  0  0  0  0  0  0  0  0
   10.8655    8.3511   -8.7960 C   0  0  0  0  0  0  0  0  0  0  0  0
   10.2922    7.8843   -9.9985 C   0  0  0  0  0  0  0  0  0  0  0  0
   10.4654    9.6993   -5.6120 C   0  0  0  0  0  0  0  0  0  0  0  0
   10.3510    9.5971   -7.0014 C   0  0  0  0  0  0  0  0  0  0  0  0
   12.2462    6.3351   -3.5020 C   0  0  0  0  0  0  0  0  0  0  0  0
   11.0471    7.5309  -11.1063 C   0  0  0  0  0  0  0  0  0  0  0  0
   11.7288    8.6923   -3.6518 C   0  0  0  0  0  0  0  0  0  0  0  0
   12.3991    7.7501  -11.1145 C   0  0  0  0  0  0  0  0  0  0  0  0
   12.3738    7.7580   -2.9599 C   0  0  0  0  0  0  0  0  0  0  0  0
   13.1285    8.5075  -10.1661 O   0  0  0  0  0  0  0  0  0  0  0  0
    9.0407    7.3775  -10.0973 N   0  0  0  0  0  0  0  0  0  0  0  0
    8.9787    6.9473  -11.4664 N   0  0  0  0  0  0  0  0  0  0  0  0
   13.1012    7.4459  -12.3707 C   0  0  0  0  0  0  0  0  0  0  0  0
   12.2395    6.9724  -13.2444 C   0  0  0  0  0  0  0  0  0  0  0  0
   10.2768    7.0170  -11.9799 C   0  0  0  0  0  0  0  0  0  0  0  0
   12.9237    6.5822  -14.5759 O   0  0  0  0  0  0  0  0  0  0  0  0
   10.8906    6.6526  -13.2252 C   0  0  0  0  0  0  0  0  0  0  0  0
   12.2396    6.1290  -15.6916 C   0  0  0  0  0  0  0  0  0  0  0  0
    7.7368    6.4514  -12.0707 C   0  0  0  0  0  0  0  0  0  0  0  0
    7.1353    7.2872  -12.8105 C   0  0  0  0  0  0  0  0  0  0  0  0
    7.6622    5.0135  -12.1225 C   0  0  0  0  0  0  0  0  0  0  0  0
   12.5092    4.6950  -15.8147 C   0  0  0  0  0  0  0  0  0  0  0  0
    5.9403    6.5840  -13.2897 C   0  0  0  0  0  0  0  0  0  0  0  0
   11.2738    3.8422  -15.5220 N   0  0  1  0  0  0  0  0  0  0  0  0
    8.7139    4.1736  -11.4601 C   0  0  0  0  0  0  0  0  0  0  0  0
    6.6269    4.4744  -12.6955 C   0  0  0  0  0  0  0  0  0  0  0  0
    9.4620    3.2890  -12.1895 O   0  0  0  0  0  0  0  0  0  0  0  0
    5.7480    5.3068  -13.3143 C   0  0  0  0  0  0  0  0  0  0  0  0
    9.2569    3.2107  -13.4796 C   0  0  1  0  0  0  0  0  0  0  0  0
   11.2664    3.0418  -14.3307 C   0  0  0  0  0  0  0  0  0  0  0  0
    9.9594    4.3070  -15.5253 C   0  0  0  0  0  0  0  0  0  0  0  0
    8.9536    3.4276  -14.8902 C   0  0  0  0  0  0  0  0  0  0  0  0
   10.4528    2.2318  -13.8570 C   0  0  0  0  0  0  0  0  0  0  0  0
  1  2  1  0  0  0  0
  1 10  2  0  0  0  0
  2  3  1  0  0  0  0
  2  5  2  0  0  0  0
  3  4  1  0  0  0  0
  4  6  1  6  0  0  0
  4  9  1  0  0  0  0
  5  8  1  0  0  0  0
  5 12  1  0  0  0  0
  6  7  1  0  0  0  0
  7 11  1  0  0  0  0
  7 16  2  0  0  0  0
  8  9  1  0  0  0  0
 10 14  1  0  0  0  0
 11 13  2  0  0  0  0
 11 20  1  0  0  0  0
 12 14  2  0  0  0  0
 13 15  1  0  0  0  0
 13 18  1  0  0  0  0
 16 17  1  0  0  0  0
 17 20  1  0  0  0  0
 17 24  1  0  0  0  0
 18 19  2  0  0  0  0
 19 21  1  0  0  0  0
 19 22  1  0  0  0  0
 20 22  2  0  0  0  0
 21 23  1  0  0  0  0
 23 27  1  0  0  0  0
 24 25  2  0  0  0  0
 24 26  1  0  0  0  0
 25 28  1  0  0  0  0
 26 30  1  0  0  0  0
 26 31  2  0  0  0  0
 28 33  2  0  0  0  0
 29 27  1  1  0  0  0
 29 35  1  0  0  0  0
 29 36  1  0  0  0  0
 30 32  1  0  0  0  0
 31 33  1  0  0  0  0
 32 34  1  0  0  0  0
 34 37  1  6  0  0  0
 34 38  1  0  0  0  0
 35 38  1  0  0  0  0
 36 37  1  0  0  0  0
M  END
$$$$

 OpenBabel10082411353D

 38 46  0  0  0  0  0  0  0  0999 V2000
    8.0806    9.0240  -12.7589 C   0  0  0  0  0  0  0  0  0  0  0  0
    8.6514    7.8645  -12.2948 C   0  0  0  0  0  0  0  0  0  0  0  0
    9.9575    7.9974  -11.8426 C   0  0  0  0  0  0  0  0  0  0  0  0
   10.7657    6.8667  -11.6050 C   0  0  1  0  0  0  0  0  0  0  0  0
   10.7682    5.9590  -12.8271 C   0  0  0  0  0  0  0  0  0  0  0  0
   12.1553    7.3846  -11.2315 C   0  0  0  0  0  0  0  0  0  0  0  0
    8.0676    6.6451  -12.2974 C   0  0  0  0  0  0  0  0  0  0  0  0
   10.1892    6.1240  -10.3860 C   0  0  0  0  0  0  0  0  0  0  0  0
   11.8375    5.4373  -13.3240 O   0  0  0  0  0  0  0  0  0  0  0  0
    8.6785    5.4761  -13.0273 C   0  0  1  0  0  0  0  0  0  0  0  0
    9.1969    5.2405  -10.4969 C   0  0  2  0  0  0  0  0  0  0  0  0
    7.2213    6.2210  -11.3074 C   0  0  2  0  0  0  0  0  0  0  0  0
   12.5590    7.6872   -9.9896 C   0  0  0  0  0  0  0  0  0  0  0  0
    9.7633    5.0333  -12.9720 C   0  0  1  0  0  0  0  0  0  0  0  0
   10.0661    4.0167  -14.0373 N   0  0  0  0  0  0  0  0  0  0  0  0
   13.6906    8.3004   -9.6233 O   0  0  0  0  0  0  0  0  0  0  0  0
    7.6357    4.5123  -12.6317 C   0  0  2  0  0  0  0  0  0  0  0  0
    6.8831    4.9171  -11.7031 C   0  0  2  0  0  0  0  0  0  0  0  0
   10.5937    6.6967   -9.1779 C   0  0  0  0  0  0  0  0  0  0  0  0
    9.5087    4.3263  -11.6925 C   0  0  2  0  0  0  0  0  0  0  0  0
   11.6359    7.4449   -8.9125 C   0  0  0  0  0  0  0  0  0  0  0  0
   11.9716    7.9159   -7.6200 C   0  0  0  0  0  0  0  0  0  0  0  0
    8.4648    3.6122  -12.2840 C   0  0  1  0  0  0  0  0  0  0  0  0
    7.9253    2.8004  -11.3926 C   0  0  0  0  0  0  0  0  0  0  0  0
    5.6047    4.5059  -11.7589 C   0  0  0  0  0  0  0  0  0  0  0  0
    7.6606    4.1297  -10.5699 C   0  0  0  0  0  0  0  0  0  0  0  0
   10.9559    7.6849   -6.6057 C   0  0  0  0  0  0  0  0  0  0  0  0
    8.0094    4.5092   -9.5664 C   0  0  0  0  0  0  0  0  0  0  0  0
    8.3033    4.0627   -8.4980 C   0  0  0  0  0  0  0  0  0  0  0  0
    6.3587    7.1012  -11.0392 O   0  0  0  0  0  0  0  0  0  0  0  0
   11.0186    3.9598  -14.9226 C   0  0  0  0  0  0  0  0  0  0  0  0
    8.1758    5.8633  -10.2511 C   0  0  1  0  0  0  0  0  0  0  0  0
   11.4648    2.7104  -15.2650 O   0  0  0  0  0  0  0  0  0  0  0  0
    9.4734    2.7524  -13.6161 C   0  0  0  0  0  0  0  0  0  0  0  0
   11.1609    8.1965   -5.2078 C   0  0  0  0  0  0  0  0  0  0  0  0
   11.5657    4.9516  -15.5150 O   0  0  0  0  0  0  0  0  0  0  0  0
   12.1178    7.4481   -4.5477 C   0  0  0  0  0  0  0  0  0  0  0  0
   11.5843    9.7156   -5.1715 C   0  0  0  0  0  0  0  0  0  0  0  0
  1  2  1  0  0  0  0
  2  3  1  0  0  0  0
  2  7  2  0  0  0  0
  4  3  1  6  0  0  0
  4  5  1  0  0  0  0
  4  6  1  0  0  0  0
  4  8  1  0  0  0  0
  5  9  2  0  0  0  0
  6 13  1  0  0  0  0
  7 12  1  0  0  0  0
  8 19  2  0  0  0  0
 10  7  1  1  0  0  0
 10 14  1  0  0  0  0
 10 17  1  0  0  0  0
 11  8  1  6  0  0  0
 11 20  1  0  0  0  0
 11 32  1  0  0  0  0
 12 18  1  0  0  0  0
 12 30  1  1  0  0  0
 12 32  1  0  0  0  0
 13 16  2  0  0  0  0
 13 21  1  0  0  0  0
 14  5  1  1  0  0  0
 14 15  1  0  0  0  0
 14 20  1  0  0  0  0
 15 31  1  0  0  0  0
 15 34  1  0  0  0  0
 17 18  1  0  0  0  0
 17 23  1  0  0  0  0
 18 25  1  0  0  0  0
 18 26  1  0  0  0  0
 19 21  1  0  0  0  0
 20 23  1  0  0  0  0
 21 22  2  3  0  0  0
 22 27  1  0  0  0  0
 23 24  1  0  0  0  0
 23 34  1  0  0  0  0
 24 26  1  0  0  0  0
 26 28  2  0  0  0  0
 27 35  1  0  0  0  0
 28 29  1  0  0  0  0
 28 32  1  0  0  0  0
 31 33  2  0  0  0  0
 31 36  1  0  0  0  0
 35 37  1  0  0  0  0
 35 38  1  0  0  0  0
M  END
$$$$

 OpenBabel10082411353D

 38 42  0  0  0  0  0  0  0  0999 V2000
   11.6836    6.0105   -4.8831 F   0  0  0  0  0  0  0  0  0  0  0  0
   11.2562    7.2206   -5.0294 C   0  0  0  0  0  0  0  0  0  0  0  0
   12.0125    8.2418   -4.4408 C   0  0  0  0  0  0  0  0  0  0  0  0
   11.1918    7.2706   -6.5237 C   0  0  0  0  0  0  0  0  0  0  0  0
   11.6999    8.4488   -3.1704 F   0  0  0  0  0  0  0  0  0  0  0  0
    9.8648    7.0908   -4.5314 F   0  0  0  0  0  0  0  0  0  0  0  0
   11.6831    8.5291   -6.9682 C   0  0  0  0  0  0  0  0  0  0  0  0
   10.4785    6.5189   -7.4033 C   0  0  0  0  0  0  0  0  0  0  0  0
   11.6979    8.6661   -8.4760 C   0  0  0  0  0  0  0  0  0  0  0  0
   11.6248    9.5853   -5.0030 C   0  0  0  0  0  0  0  0  0  0  0  0
   11.8604    9.7907   -6.2903 O   0  0  0  0  0  0  0  0  0  0  0  0
   13.3557    8.1748   -4.5947 F   0  0  0  0  0  0  0  0  0  0  0  0
   10.5427    6.6061   -8.7190 C   0  0  0  0  0  0  0  0  0  0  0  0
   11.1158    7.7103   -9.2540 C   0  0  0  0  0  0  0  0  0  0  0  0
   11.3757    7.6656  -10.5293 N   0  0  0  0  0  0  0  0  0  0  0  0
   10.7153    7.7096  -11.5405 C   0  0  0  0  0  0  0  0  0  0  0  0
   11.2483    7.4711  -12.8542 C   0  0  0  0  0  0  0  0  0  0  0  0
    9.3980    7.7820  -11.5398 C   0  0  0  0  0  0  0  0  0  0  0  0
    8.6055    7.5889  -12.6525 C   0  0  0  0  0  0  0  0  0  0  0  0
   12.7508    7.3705  -13.0162 O   0  0  0  0  0  0  0  0  0  0  0  0
   10.5299    7.1831  -13.9856 C   0  0  0  0  0  0  0  0  0  0  0  0
    7.0533    7.7371  -12.5396 C   0  0  0  0  0  0  0  0  0  0  0  0
   11.2041    6.8490  -15.2304 C   0  0  0  0  0  0  0  0  0  0  0  0
   11.6393    5.5333  -15.3864 C   0  0  0  0  0  0  0  0  0  0  0  0
    9.1955    7.2935  -13.8301 C   0  0  0  0  0  0  0  0  0  0  0  0
   12.5294    5.1116  -16.1609 C   0  0  0  0  0  0  0  0  0  0  0  0
   11.2315    4.4703  -14.3200 C   0  0  0  0  0  0  0  0  0  0  0  0
   13.0194    6.0876  -17.1697 C   0  0  0  0  0  0  0  0  0  0  0  0
   12.9874    3.8316  -16.1456 C   0  0  0  0  0  0  0  0  0  0  0  0
   12.3949    2.9126  -15.4671 C   0  0  0  0  0  0  0  0  0  0  0  0
   10.2274    4.8149  -13.2643 C   0  0  0  0  0  0  0  0  0  0  0  0
    8.9564    4.3798  -13.5553 C   0  0  0  0  0  0  0  0  0  0  0  0
    8.7042    3.2659  -14.2465 C   0  0  0  0  0  0  0  0  0  0  0  0
   11.4148    3.2767  -14.5206 C   0  0  0  0  0  0  0  0  0  0  0  0
    8.0769    4.5652  -12.3451 C   0  0  0  0  0  0  0  0  0  0  0  0
    6.8532    4.1363  -12.5398 C   0  0  0  0  0  0  0  0  0  0  0  0
    7.3789    2.7275  -14.1356 C   0  0  0  0  0  0  0  0  0  0  0  0
    6.4909    3.1663  -13.3004 C   0  0  0  0  0  0  0  0  0  0  0  0
  1  2  1  0  0  0  0
  2  3  1  0  0  0  0
  2  4  1  0  0  0  0
  2  6  1  0  0  0  0
  3  5  1  0  0  0  0
  3 10  1  0  0  0  0
  3 12  1  0  0  0  0
  4  7  1  0  0  0  0
  4  8  2  0  0  0  0
  7  9  2  0  0  0  0
  7 11  1  0  0  0  0
  8 13  1  0  0  0  0
  9 14  1  0  0  0  0
 10 11  1  0  0  0  0
 13 14  2  0  0  0  0
 14 15  1  0  0  0  0
 15 16  1  0  0  0  0
 16 17  1  0  0  0  0
 16 18  2  0  0  0  0
 17 20  1  0  0  0  0
 17 21  2  0  0  0  0
 18 19  1  0  0  0  0
 19 22  1  0  0  0  0
 19 25  2  0  0  0  0
 21 23  1  0  0  0  0
 21 25  1  0  0  0  0
 23 24  1  0  0  0  0
 24 26  2  0  0  0  0
 24 27  1  0  0  0  0
 26 28  1  0  0  0  0
 26 29  1  0  0  0  0
 27 31  1  0  0  0  0
 27 34  2  0  0  0  0
 29 30  2  0  0  0  0
 30 34  1  0  0  0  0
 31 32  2  3  0  0  0
 32 33  1  0  0  0  0
 32 35  1  0  0  0  0
 33 37  2  0  0  0  0
 35 36  2  0  0  0  0
 36 38  1  0  0  0  0
 37 38  1  0  0  0  0
M  END
$$$$

 OpenBabel10082411353D

 38 43  0  0  0  0  0  0  0  0999 V2000
   12.7863    7.8241  -14.2109 C   0  0  0  0  0  0  0  0  0  0  0  0
   12.4233    7.7158  -13.0289 C   0  0  0  0  0  0  0  0  0  0  0  0
   11.3194    6.8571  -12.8028 C   0  0  0  0  0  0  0  0  0  0  0  0
   12.3150    7.2021  -15.3582 C   0  0  0  0  0  0  0  0  0  0  0  0
   11.2733    6.2739  -15.1502 C   0  0  0  0  0  0  0  0  0  0  0  0
   10.8099    6.0126  -13.8600 C   0  0  0  0  0  0  0  0  0  0  0  0
    9.6782    5.1428  -13.6488 C   0  0  0  0  0  0  0  0  0  0  0  0
    8.5753    5.3880  -12.9589 N   0  0  0  0  0  0  0  0  0  0  0  0
    8.3226    6.7011  -12.3862 C   0  0  0  0  0  0  0  0  0  0  0  0
    9.8502    3.8578  -14.0728 C   0  0  0  0  0  0  0  0  0  0  0  0
    7.3864    7.4720  -13.0530 C   0  0  0  0  0  0  0  0  0  0  0  0
    6.2412    7.8486  -12.2599 C   0  0  0  0  0  0  0  0  0  0  0  0
    7.6425    4.4186  -12.7943 C   0  0  0  0  0  0  0  0  0  0  0  0
   11.0297    3.2482  -14.8053 C   0  0  0  0  0  0  0  0  0  0  0  0
    8.6802    2.8955  -13.7960 C   0  0  0  0  0  0  0  0  0  0  0  0
    8.8565    1.5917  -14.3582 O   0  0  0  0  0  0  0  0  0  0  0  0
    7.6903    3.2226  -13.1994 N   0  0  0  0  0  0  0  0  0  0  0  0
    6.5724    2.3444  -12.8378 C   0  0  0  0  0  0  0  0  0  0  0  0
    9.0225    7.0353  -11.3259 C   0  0  0  0  0  0  0  0  0  0  0  0
    6.4787    4.7532  -12.1787 O   0  0  0  0  0  0  0  0  0  0  0  0
   10.5868    7.0468  -11.5199 C   0  0  0  0  0  0  0  0  0  0  0  0
   11.2761    7.4007  -10.4131 C   0  0  0  0  0  0  0  0  0  0  0  0
    8.6862    7.4300   -9.9877 C   0  0  0  0  0  0  0  0  0  0  0  0
    9.4326    7.6744   -8.9657 C   0  0  0  0  0  0  0  0  0  0  0  0
   10.6794    7.6568   -9.1312 C   0  0  2  0  0  0  0  0  0  0  0  0
    8.9269    7.9839   -7.6612 C   0  0  0  0  0  0  0  0  0  0  0  0
   11.4232    7.9744   -7.9321 C   0  0  0  0  0  0  0  0  0  0  0  0
   10.9573    8.3184   -6.8885 C   0  0  0  0  0  0  0  0  0  0  0  0
    7.5782    7.8797   -7.5710 F   0  0  0  0  0  0  0  0  0  0  0  0
   11.9524    8.6726   -5.5732 C   0  0  0  0  0  0  0  0  0  0  0  0
   12.5628    9.9251   -5.6215 C   0  0  0  0  0  0  0  0  0  0  0  0
   11.7409    8.0483   -4.4624 C   0  0  0  0  0  0  0  0  0  0  0  0
   13.2690   10.1339   -4.4918 C   0  0  0  0  0  0  0  0  0  0  0  0
    9.4630    8.1816   -6.7271 C   0  0  0  0  0  0  0  0  0  0  0  0
   12.9861    9.0553   -3.3537 S   0  0  0  0  0  0  0  0  0  0  0  0
   12.2132    7.9988   -3.3585 C   0  0  2  0  0  0  0  0  0  0  0  0
   10.8132    6.6288   -4.6870 C   0  0  0  0  0  0  0  0  0  0  0  0
   12.3537    6.8376   -2.3579 C   0  0  0  0  0  0  0  0  0  0  0  0
  1  2  2  0  0  0  0
  1  4  1  0  0  0  0
  2  3  1  0  0  0  0
  3  6  2  0  0  0  0
  3 21  1  0  0  0  0
  4  5  2  0  0  0  0
  5  6  1  0  0  0  0
  6  7  1  0  0  0  0
  7  8  1  0  0  0  0
  7 10  2  0  0  0  0
  8  9  1  0  0  0  0
  8 13  1  0  0  0  0
  9 11  1  0  0  0  0
  9 19  2  0  0  0  0
 10 14  1  0  0  0  0
 10 15  1  0  0  0  0
 11 12  1  0  0  0  0
 13 17  1  0  0  0  0
 13 20  2  0  0  0  0
 15 16  2  0  0  0  0
 15 17  1  0  0  0  0
 17 18  1  0  0  0  0
 19 21  1  0  0  0  0
 19 23  1  0  0  0  0
 21 22  2  0  0  0  0
 23 24  2  0  0  0  0
 24 25  1  0  0  0  0
 24 26  1  0  0  0  0
 25 22  1  6  0  0  0
 25 27  1  0  0  0  0
 26 29  1  0  0  0  0
 26 34  2  0  0  0  0
 27 28  2  0  0  0  0
 28 30  1  0  0  0  0
 28 34  1  0  0  0  0
 30 31  1  0  0  0  0
 30 32  2  0  0  0  0
 31 33  2  0  0  0  0
 32 36  1  0  0  0  0
 32 37  1  0  0  0  0
 33 35  1  0  0  0  0
 35 36  1  0  0  0  0
 36 38  1  6  0  0  0
M  END
$$$$

 OpenBabel10082411353D

 38 43  0  0  0  0  0  0  0  0999 V2000
   11.6836    6.0105   -4.8831 F   0  0  0  0  0  0  0  0  0  0  0  0
   11.2562    7.2206   -5.0294 C   0  0  0  0  0  0  0  0  0  0  0  0
   12.0125    8.2418   -4.4408 C   0  0  0  0  0  0  0  0  0  0  0  0
   11.1918    7.2706   -6.5237 C   0  0  0  0  0  0  0  0  0  0  0  0
   11.6999    8.4488   -3.1704 F   0  0  0  0  0  0  0  0  0  0  0  0
    9.8648    7.0908   -4.5314 F   0  0  0  0  0  0  0  0  0  0  0  0
   11.6831    8.5291   -6.9682 C   0  0  0  0  0  0  0  0  0  0  0  0
   10.4785    6.5189   -7.4033 C   0  0  0  0  0  0  0  0  0  0  0  0
   11.6979    8.6661   -8.4760 C   0  0  0  0  0  0  0  0  0  0  0  0
   11.6248    9.5853   -5.0030 C   0  0  0  0  0  0  0  0  0  0  0  0
   11.8604    9.7907   -6.2903 O   0  0  0  0  0  0  0  0  0  0  0  0
   13.3557    8.1748   -4.5947 F   0  0  0  0  0  0  0  0  0  0  0  0
   10.5427    6.6061   -8.7190 C   0  0  0  0  0  0  0  0  0  0  0  0
   11.1158    7.7103   -9.2540 C   0  0  0  0  0  0  0  0  0  0  0  0
   11.3757    7.6656  -10.5293 N   0  0  0  0  0  0  0  0  0  0  0  0
   10.7153    7.7096  -11.5405 C   0  0  0  0  0  0  0  0  0  0  0  0
   11.2483    7.4711  -12.8542 C   0  0  0  0  0  0  0  0  0  0  0  0
    9.3980    7.7820  -11.5398 C   0  0  0  0  0  0  0  0  0  0  0  0
    8.6055    7.5889  -12.6525 C   0  0  0  0  0  0  0  0  0  0  0  0
   12.7508    7.3705  -13.0162 O   0  0  0  0  0  0  0  0  0  0  0  0
   10.5299    7.1831  -13.9856 C   0  0  0  0  0  0  0  0  0  0  0  0
    7.0533    7.7371  -12.5396 C   0  0  0  0  0  0  0  0  0  0  0  0
   11.2041    6.8490  -15.2304 C   0  0  0  0  0  0  0  0  0  0  0  0
   11.6393    5.5333  -15.3864 C   0  0  0  0  0  0  0  0  0  0  0  0
    9.1955    7.2935  -13.8301 C   0  0  0  0  0  0  0  0  0  0  0  0
   12.5294    5.1116  -16.1609 C   0  0  0  0  0  0  0  0  0  0  0  0
   11.2315    4.4703  -14.3200 C   0  0  0  0  0  0  0  0  0  0  0  0
   10.2844    4.5821  -13.3000 C   0  0  0  0  0  0  0  0  0  0  0  0
   11.6270    3.1866  -14.6052 C   0  0  0  0  0  0  0  0  0  0  0  0
    9.0868    3.8289  -13.3080 C   0  0  0  0  0  0  0  0  0  0  0  0
    8.1007    4.0948  -12.4103 C   0  0  0  0  0  0  0  0  0  0  0  0
    6.8410    3.6347  -12.6829 C   0  0  0  0  0  0  0  0  0  0  0  0
    6.7154    2.6437  -13.7684 C   0  0  0  0  0  0  0  0  0  0  0  0
   11.0823    2.0862  -13.7648 C   0  0  0  0  0  0  0  0  0  0  0  0
    9.3191    2.3459  -13.6315 C   0  0  2  0  0  0  0  0  0  0  0  0
   12.7411    3.5776  -16.0808 S   0  0  0  0  0  0  0  0  0  0  0  0
    8.1229    1.8519  -14.0677 C   0  0  0  0  0  0  0  0  0  0  0  0
   12.2906    2.7123  -15.4145 C   0  0  0  0  0  0  0  0  0  0  0  0
  1  2  1  0  0  0  0
  2  3  1  0  0  0  0
  2  4  1  0  0  0  0
  2  6  1  0  0  0  0
  3  5  1  0  0  0  0
  3 10  1  0  0  0  0
  3 12  1  0  0  0  0
  4  7  1  0  0  0  0
  4  8  2  0  0  0  0
  7  9  2  0  0  0  0
  7 11  1  0  0  0  0
  8 13  1  0  0  0  0
  9 14  1  0  0  0  0
 10 11  1  0  0  0  0
 13 14  2  0  0  0  0
 14 15  1  0  0  0  0
 15 16  1  0  0  0  0
 16 17  1  0  0  0  0
 16 18  2  0  0  0  0
 17 20  1  0  0  0  0
 17 21  2  0  0  0  0
 18 19  1  0  0  0  0
 19 22  1  0  0  0  0
 19 25  2  0  0  0  0
 21 23  1  0  0  0  0
 21 25  1  0  0  0  0
 23 24  1  0  0  0  0
 24 26  2  0  0  0  0
 24 27  1  0  0  0  0
 26 36  1  0  0  0  0
 27 28  1  0  0  0  0
 27 29  2  0  0  0  0
 28 30  2  0  0  0  0
 29 34  1  0  0  0  0
 29 38  1  0  0  0  0
 30 31  1  0  0  0  0
 30 35  1  0  0  0  0
 31 32  2  0  0  0  0
 32 33  1  0  0  0  0
 33 37  1  0  0  0  0
 35 34  1  6  0  0  0
 35 37  1  0  0  0  0
 36 38  2  0  0  0  0
M  END
$$$$

 OpenBabel10082411353D

 39 44  0  0  0  0  0  0  0  0999 V2000
   11.6849    3.3051  -14.7886 C   0  0  0  0  0  0  0  0  0  0  0  0
   11.9222    4.4917  -14.7896 C   0  0  0  0  0  0  0  0  0  0  0  0
   10.4105    3.0506  -15.0123 C   0  0  0  0  0  0  0  0  0  0  0  0
   11.4495    5.4335  -14.4813 C   0  0  0  0  0  0  0  0  0  0  0  0
    9.5038    4.0445  -14.6973 C   0  0  0  0  0  0  0  0  0  0  0  0
    8.0744    3.8032  -14.7673 O   0  0  0  0  0  0  0  0  0  0  0  0
    7.4019    4.2664  -13.6471 C   0  0  0  0  0  0  0  0  0  0  0  0
   11.8713    6.8371  -14.3117 C   0  0  0  0  0  0  0  0  0  0  0  0
   12.8441    7.2889  -15.0274 O   0  0  0  0  0  0  0  0  0  0  0  0
    9.9408    5.3883  -14.5322 C   0  0  0  0  0  0  0  0  0  0  0  0
   11.9372    7.2052  -12.9834 O   0  0  0  0  0  0  0  0  0  0  0  0
    7.6871    5.3657  -12.9437 C   0  0  0  0  0  0  0  0  0  0  0  0
    6.6825    5.6376  -11.8704 C   0  0  0  0  0  0  0  0  0  0  0  0
   12.9330    7.4672  -12.1262 C   0  0  0  0  0  0  0  0  0  0  0  0
    5.6490    4.8336  -11.7379 C   0  0  0  0  0  0  0  0  0  0  0  0
    6.2655    3.3248  -13.2380 C   0  0  0  0  0  0  0  0  0  0  0  0
   12.5459    7.5503  -10.6847 C   0  0  0  0  0  0  0  0  0  0  0  0
    5.5326    3.6923  -12.2221 C   0  0  0  0  0  0  0  0  0  0  0  0
   13.2808    8.2749   -9.7966 C   0  0  0  0  0  0  0  0  0  0  0  0
   12.7625    8.4244   -8.5830 C   0  0  0  0  0  0  0  0  0  0  0  0
   11.1393    7.2655  -10.3421 C   0  0  0  0  0  0  0  0  0  0  0  0
   10.7436    7.4242   -9.1139 C   0  0  0  0  0  0  0  0  0  0  0  0
   11.5582    7.9816   -8.1804 C   0  0  0  0  0  0  0  0  0  0  0  0
   11.0885    8.1382   -6.7137 C   0  0  1  0  0  0  0  0  0  0  0  0
    9.8528    8.8294   -6.6452 C   0  0  0  0  0  0  0  0  0  0  0  0
    8.8998    8.0398   -6.0308 C   0  0  0  0  0  0  0  0  0  0  0  0
    9.3715    6.6666   -6.1288 C   0  0  2  0  0  0  0  0  0  0  0  0
   10.7980    6.8271   -6.2455 C   0  0  2  0  0  0  0  0  0  0  0  0
   12.1160    8.8620   -5.8401 C   0  0  0  0  0  0  0  0  0  0  0  0
   12.1789    8.3531   -4.5239 C   0  0  0  0  0  0  0  0  0  0  0  0
    8.5385    6.0926   -7.2579 C   0  0  0  0  0  0  0  0  0  0  0  0
   12.6867    9.0631   -3.4365 C   0  0  0  0  0  0  0  0  0  0  0  0
   11.6589    7.0440   -4.2923 C   0  0  0  0  0  0  0  0  0  0  0  0
   11.8895    6.5152   -2.9668 C   0  0  0  0  0  0  0  0  0  0  0  0
   12.4165    7.2430   -1.9006 C   0  0  0  0  0  0  0  0  0  0  0  0
   11.3292    6.0878   -5.0630 C   0  0  0  0  0  0  0  0  0  0  0  0
   12.7670    8.5844   -2.1267 C   0  0  0  0  0  0  0  0  0  0  0  0
    9.0104    5.1084   -7.7860 O   0  0  0  0  0  0  0  0  0  0  0  0
    7.5538    6.5672   -7.6008 O   0  0  0  0  0  0  0  0  0  0  0  0
  1  2  1  0  0  0  0
  1  3  2  0  0  0  0
  2  4  2  0  0  0  0
  3  5  1  0  0  0  0
  4  8  1  0  0  0  0
  4 10  1  0  0  0  0
  5  6  1  0  0  0  0
  5 10  2  0  0  0  0
  6  7  1  0  0  0  0
  7 12  2  0  0  0  0
  7 16  1  0  0  0  0
  8  9  2  0  0  0  0
  8 11  1  0  0  0  0
 11 14  1  0  0  0  0
 12 13  1  0  0  0  0
 13 15  2  0  0  0  0
 14 17  1  0  0  0  0
 15 18  1  0  0  0  0
 16 18  2  0  0  0  0
 17 19  1  0  0  0  0
 17 21  2  0  0  0  0
 19 20  2  0  0  0  0
 20 23  1  0  0  0  0
 21 22  1  0  0  0  0
 22 23  2  0  0  0  0
 24 23  1  6  0  0  0
 24 25  1  0  0  0  0
 24 28  1  0  0  0  0
 24 29  1  0  0  0  0
 25 26  1  0  0  0  0
 26 27  1  0  0  0  0
 27 28  1  0  0  0  0
 27 31  1  6  0  0  0
 28 36  1  1  0  0  0
 29 30  1  0  0  0  0
 30 32  1  0  0  0  0
 30 33  2  0  0  0  0
 31 38  2  0  0  0  0
 31 39  1  0  0  0  0
 32 37  2  0  0  0  0
 33 34  1  0  0  0  0
 33 36  1  0  0  0  0
 34 35  2  0  0  0  0
 35 37  1  0  0  0  0
M  END
$$$$

 OpenBabel10082411353D

 39 43  0  0  0  0  0  0  0  0999 V2000
   11.6836    6.0105   -4.8831 F   0  0  0  0  0  0  0  0  0  0  0  0
   11.2562    7.2206   -5.0294 C   0  0  0  0  0  0  0  0  0  0  0  0
   12.0125    8.2418   -4.4408 C   0  0  0  0  0  0  0  0  0  0  0  0
   11.1918    7.2706   -6.5237 C   0  0  0  0  0  0  0  0  0  0  0  0
   11.6999    8.4488   -3.1704 F   0  0  0  0  0  0  0  0  0  0  0  0
    9.8648    7.0908   -4.5314 F   0  0  0  0  0  0  0  0  0  0  0  0
   11.6831    8.5291   -6.9682 C   0  0  0  0  0  0  0  0  0  0  0  0
   10.4785    6.5189   -7.4033 C   0  0  0  0  0  0  0  0  0  0  0  0
   11.6979    8.6661   -8.4760 C   0  0  0  0  0  0  0  0  0  0  0  0
   11.6248    9.5853   -5.0030 C   0  0  0  0  0  0  0  0  0  0  0  0
   11.8604    9.7907   -6.2903 O   0  0  0  0  0  0  0  0  0  0  0  0
   13.3557    8.1748   -4.5947 F   0  0  0  0  0  0  0  0  0  0  0  0
   10.5427    6.6061   -8.7190 C   0  0  0  0  0  0  0  0  0  0  0  0
   11.1158    7.7103   -9.2540 C   0  0  0  0  0  0  0  0  0  0  0  0
   11.3757    7.6656  -10.5293 N   0  0  0  0  0  0  0  0  0  0  0  0
   10.7153    7.7096  -11.5405 C   0  0  0  0  0  0  0  0  0  0  0  0
   11.2483    7.4711  -12.8542 C   0  0  0  0  0  0  0  0  0  0  0  0
    9.3980    7.7820  -11.5398 C   0  0  0  0  0  0  0  0  0  0  0  0
    8.6055    7.5889  -12.6525 C   0  0  0  0  0  0  0  0  0  0  0  0
   12.7508    7.3705  -13.0162 O   0  0  0  0  0  0  0  0  0  0  0  0
   10.5299    7.1831  -13.9856 C   0  0  0  0  0  0  0  0  0  0  0  0
    7.0533    7.7371  -12.5396 C   0  0  0  0  0  0  0  0  0  0  0  0
   11.2041    6.8490  -15.2304 C   0  0  0  0  0  0  0  0  0  0  0  0
   11.6393    5.5333  -15.3864 C   0  0  0  0  0  0  0  0  0  0  0  0
    9.1955    7.2935  -13.8301 C   0  0  0  0  0  0  0  0  0  0  0  0
   12.5294    5.1116  -16.1609 C   0  0  0  0  0  0  0  0  0  0  0  0
   11.2315    4.4703  -14.3200 C   0  0  0  0  0  0  0  0  0  0  0  0
   13.0194    6.0876  -17.1697 C   0  0  0  0  0  0  0  0  0  0  0  0
   12.9874    3.8316  -16.1456 C   0  0  0  0  0  0  0  0  0  0  0  0
   12.3949    2.9126  -15.4671 C   0  0  0  0  0  0  0  0  0  0  0  0
   10.2274    4.8149  -13.2643 C   0  0  0  0  0  0  0  0  0  0  0  0
    8.9564    4.3798  -13.5553 C   0  0  0  0  0  0  0  0  0  0  0  0
    8.7030    2.9995  -13.6113 C   0  0  1  0  0  0  0  0  0  0  0  0
   11.4166    3.2431  -14.5460 C   0  0  0  0  0  0  0  0  0  0  0  0
    7.3695    2.5639  -13.4881 C   0  0  0  0  0  0  0  0  0  0  0  0
   10.5729    2.1979  -13.9272 C   0  0  0  0  0  0  0  0  0  0  0  0
    9.5697    2.1393  -13.9351 C   0  0  0  0  0  0  0  0  0  0  0  0
    7.1847    1.2434  -13.7936 O   0  0  0  0  0  0  0  0  0  0  0  0
    6.4062    3.2212  -12.8507 O   0  0  0  0  0  0  0  0  0  0  0  0
  1  2  1  0  0  0  0
  2  3  1  0  0  0  0
  2  4  1  0  0  0  0
  2  6  1  0  0  0  0
  3  5  1  0  0  0  0
  3 10  1  0  0  0  0
  3 12  1  0  0  0  0
  4  7  1  0  0  0  0
  4  8  2  0  0  0  0
  7  9  2  0  0  0  0
  7 11  1  0  0  0  0
  8 13  1  0  0  0  0
  9 14  1  0  0  0  0
 10 11  1  0  0  0  0
 13 14  2  0  0  0  0
 14 15  1  0  0  0  0
 15 16  1  0  0  0  0
 16 17  1  0  0  0  0
 16 18  2  0  0  0  0
 17 20  1  0  0  0  0
 17 21  2  0  0  0  0
 18 19  1  0  0  0  0
 19 22  1  0  0  0  0
 19 25  2  0  0  0  0
 21 23  1  0  0  0  0
 21 25  1  0  0  0  0
 23 24  1  0  0  0  0
 24 26  2  0  0  0  0
 24 27  1  0  0  0  0
 26 28  1  0  0  0  0
 26 29  1  0  0  0  0
 27 31  1  0  0  0  0
 27 34  2  0  0  0  0
 29 30  2  0  0  0  0
 30 34  1  0  0  0  0
 31 32  2  0  0  0  0
 32 33  1  0  0  0  0
 33 35  1  6  0  0  0
 33 37  1  0  0  0  0
 34 36  1  0  0  0  0
 35 38  2  0  0  0  0
 35 39  1  0  0  0  0
 36 37  1  0  0  0  0
M  END
$$$$

 OpenBabel10082411353D

 26 29  0  0  0  0  0  0  0  0999 V2000
   13.2485    9.2493   -6.3668 O   0  0  0  0  0  0  0  0  0  0  0  0
   12.3055    9.1779   -7.4488 C   0  0  1  0  0  0  0  0  0  0  0  0
   12.5005    8.1033   -8.2440 C   0  0  0  0  0  0  0  0  0  0  0  0
   11.7072    8.0925   -9.4886 C   0  0  2  0  0  0  0  0  0  0  0  0
   10.9116    9.4148   -7.0662 C   0  0  1  0  0  0  0  0  0  0  0  0
    9.9386    8.9657   -8.0654 C   0  0  0  0  0  0  0  0  0  0  0  0
   10.3196    7.8315   -8.9317 C   0  0  2  0  0  0  0  0  0  0  0  0
   10.1237    6.6155   -7.9733 C   0  0  2  0  0  0  0  0  0  0  0  0
    9.4711    7.7025  -10.1389 N   0  0  0  0  0  0  0  0  0  0  0  0
    8.9853    6.2010   -7.9545 O   0  0  0  0  0  0  0  0  0  0  0  0
   10.4471    8.5719   -5.8263 C   0  0  0  0  0  0  0  0  0  0  0  0
    8.8277    4.9823   -8.7016 C   0  0  0  0  0  0  0  0  0  0  0  0
   10.5671    7.0796   -6.5308 C   0  0  0  0  0  0  0  0  0  0  0  0
    9.9809    7.4743  -11.3743 C   0  0  2  0  0  0  0  0  0  0  0  0
    9.0505    7.4285  -12.4193 C   0  0  0  0  0  0  0  0  0  0  0  0
    9.0477    6.2588  -13.0112 C   0  0  0  0  0  0  0  0  0  0  0  0
    9.6784    5.1775  -12.7575 C   0  0  0  0  0  0  0  0  0  0  0  0
   10.5822    5.1916  -11.6999 C   0  0  0  0  0  0  0  0  0  0  0  0
    9.3533    3.8390  -13.6913 C   0  0  0  0  0  0  0  0  0  0  0  0
   10.5579    3.1878  -14.1006 C   0  0  0  0  0  0  0  0  0  0  0  0
   10.6254    6.3435  -10.9236 C   0  0  1  0  0  0  0  0  0  0  0  0
   11.4461    4.0289  -14.8590 C   0  0  0  0  0  0  0  0  0  0  0  0
   12.1774    4.9114  -14.3840 O   0  0  0  0  0  0  0  0  0  0  0  0
   11.9918    6.9463  -10.6827 C   0  0  0  0  0  0  0  0  0  0  0  0
    8.2783    8.5731  -12.6749 C   0  0  0  0  0  0  0  0  0  0  0  0
   11.8625    3.6892  -16.0712 O   0  0  0  0  0  0  0  0  0  0  0  0
  2  1  1  1  0  0  0
  2  3  1  0  0  0  0
  2  5  1  0  0  0  0
  4  3  1  1  0  0  0
  4  7  1  0  0  0  0
  4 24  1  0  0  0  0
  5  6  1  6  0  0  0
  5 11  1  0  0  0  0
  7  6  1  1  0  0  0
  7  8  1  0  0  0  0
  7  9  1  0  0  0  0
  8 10  1  1  0  0  0
  8 13  1  0  0  0  0
 10 12  1  0  0  0  0
 11 13  1  0  0  0  0
 14  9  1  1  0  0  0
 14 15  1  0  0  0  0
 14 21  1  0  0  0  0
 15 16  2  0  0  0  0
 15 25  1  0  0  0  0
 16 17  1  0  0  0  0
 17 18  2  0  0  0  0
 17 19  1  0  0  0  0
 19 20  1  0  0  0  0
 20 22  1  0  0  0  0
 21 18  1  6  0  0  0
 21 24  1  0  0  0  0
 22 23  2  0  0  0  0
 22 26  1  0  0  0  0
M  END
$$$$

 OpenBabel10082411353D

 39 43  0  0  0  0  0  0  0  0999 V2000
   11.6836    6.0105   -4.8831 F   0  0  0  0  0  0  0  0  0  0  0  0
   11.2562    7.2206   -5.0294 C   0  0  0  0  0  0  0  0  0  0  0  0
   12.0125    8.2418   -4.4408 C   0  0  0  0  0  0  0  0  0  0  0  0
   11.1918    7.2706   -6.5237 C   0  0  0  0  0  0  0  0  0  0  0  0
   11.6999    8.4488   -3.1704 F   0  0  0  0  0  0  0  0  0  0  0  0
    9.8648    7.0908   -4.5314 F   0  0  0  0  0  0  0  0  0  0  0  0
   11.6831    8.5291   -6.9682 C   0  0  0  0  0  0  0  0  0  0  0  0
   10.4785    6.5189   -7.4033 C   0  0  0  0  0  0  0  0  0  0  0  0
   11.6979    8.6661   -8.4760 C   0  0  0  0  0  0  0  0  0  0  0  0
   11.6248    9.5853   -5.0030 C   0  0  0  0  0  0  0  0  0  0  0  0
   11.8604    9.7907   -6.2903 O   0  0  0  0  0  0  0  0  0  0  0  0
   13.3557    8.1748   -4.5947 F   0  0  0  0  0  0  0  0  0  0  0  0
   10.5427    6.6061   -8.7190 C   0  0  0  0  0  0  0  0  0  0  0  0
   11.1158    7.7103   -9.2540 C   0  0  0  0  0  0  0  0  0  0  0  0
   11.3757    7.6656  -10.5293 N   0  0  0  0  0  0  0  0  0  0  0  0
   10.7153    7.7096  -11.5405 C   0  0  0  0  0  0  0  0  0  0  0  0
   11.2483    7.4711  -12.8542 C   0  0  0  0  0  0  0  0  0  0  0  0
    9.3980    7.7820  -11.5398 C   0  0  0  0  0  0  0  0  0  0  0  0
    8.6055    7.5889  -12.6525 C   0  0  0  0  0  0  0  0  0  0  0  0
   12.7508    7.3705  -13.0162 O   0  0  0  0  0  0  0  0  0  0  0  0
   10.5299    7.1831  -13.9856 C   0  0  0  0  0  0  0  0  0  0  0  0
    7.0533    7.7371  -12.5396 C   0  0  0  0  0  0  0  0  0  0  0  0
   11.2041    6.8490  -15.2304 C   0  0  0  0  0  0  0  0  0  0  0  0
   11.6393    5.5333  -15.3864 C   0  0  0  0  0  0  0  0  0  0  0  0
    9.1955    7.2935  -13.8301 C   0  0  0  0  0  0  0  0  0  0  0  0
   12.5294    5.1116  -16.1609 C   0  0  0  0  0  0  0  0  0  0  0  0
   11.2315    4.4703  -14.3200 C   0  0  0  0  0  0  0  0  0  0  0  0
   10.2844    4.5821  -13.3000 C   0  0  0  0  0  0  0  0  0  0  0  0
   11.6270    3.1866  -14.6052 C   0  0  0  0  0  0  0  0  0  0  0  0
    9.0868    3.8289  -13.3080 C   0  0  0  0  0  0  0  0  0  0  0  0
   11.3420    2.7039  -15.8535 C   0  0  0  0  0  0  0  0  0  0  0  0
    8.3582    4.0400  -12.0395 C   0  0  0  0  0  0  0  0  0  0  0  0
   13.0053    6.2224  -17.1322 C   0  0  0  0  0  0  0  0  0  0  0  0
   12.3338    3.1792  -16.8738 C   0  0  0  0  0  0  0  0  0  0  0  0
   12.9752    4.2391  -16.7963 C   0  0  0  0  0  0  0  0  0  0  0  0
    6.9632    3.7291  -12.2279 C   0  0  0  0  0  0  0  0  0  0  0  0
    6.4159    2.9682  -13.0981 C   0  0  0  0  0  0  0  0  0  0  0  0
    8.3871    3.1883  -14.3387 C   0  0  0  0  0  0  0  0  0  0  0  0
    7.1573    2.8048  -14.2779 C   0  0  0  0  0  0  0  0  0  0  0  0
  1  2  1  0  0  0  0
  2  3  1  0  0  0  0
  2  4  1  0  0  0  0
  2  6  1  0  0  0  0
  3  5  1  0  0  0  0
  3 10  1  0  0  0  0
  3 12  1  0  0  0  0
  4  7  1  0  0  0  0
  4  8  2  0  0  0  0
  7  9  2  0  0  0  0
  7 11  1  0  0  0  0
  8 13  1  0  0  0  0
  9 14  1  0  0  0  0
 10 11  1  0  0  0  0
 13 14  2  0  0  0  0
 14 15  1  0  0  0  0
 15 16  1  0  0  0  0
 16 17  1  0  0  0  0
 16 18  2  0  0  0  0
 17 20  1  0  0  0  0
 17 21  2  0  0  0  0
 18 19  1  0  0  0  0
 19 22  1  0  0  0  0
 19 25  2  0  0  0  0
 21 23  1  0  0  0  0
 21 25  1  0  0  0  0
 23 24  1  0  0  0  0
 24 26  2  0  0  0  0
 24 27  1  0  0  0  0
 26 33  1  0  0  0  0
 26 35  1  0  0  0  0
 27 28  1  0  0  0  0
 27 29  2  0  0  0  0
 28 30  2  3  0  0  0
 29 31  1  0  0  0  0
 30 32  1  0  0  0  0
 30 38  1  0  0  0  0
 31 34  1  0  0  0  0
 32 36  2  0  0  0  0
 34 35  1  0  0  0  0
 36 37  1  0  0  0  0
 37 39  2  0  0  0  0
 38 39  2  0  0  0  0
M  END
$$$$

 OpenBabel10082411353D

 39 48  0  0  0  0  0  0  0  0999 V2000
    8.0806    9.0240  -12.7589 C   0  0  0  0  0  0  0  0  0  0  0  0
    8.6514    7.8645  -12.2948 C   0  0  0  0  0  0  0  0  0  0  0  0
    9.9575    7.9974  -11.8426 C   0  0  0  0  0  0  0  0  0  0  0  0
   10.7657    6.8667  -11.6050 C   0  0  1  0  0  0  0  0  0  0  0  0
   10.7682    5.9590  -12.8271 C   0  0  0  0  0  0  0  0  0  0  0  0
   12.1553    7.3846  -11.2315 C   0  0  0  0  0  0  0  0  0  0  0  0
    8.0676    6.6451  -12.2974 C   0  0  0  0  0  0  0  0  0  0  0  0
   10.1892    6.1240  -10.3860 C   0  0  0  0  0  0  0  0  0  0  0  0
   11.8375    5.4373  -13.3240 O   0  0  0  0  0  0  0  0  0  0  0  0
    8.6785    5.4761  -13.0273 C   0  0  1  0  0  0  0  0  0  0  0  0
    9.1969    5.2405  -10.4969 C   0  0  1  0  0  0  0  0  0  0  0  0
    7.2213    6.2210  -11.3074 C   0  0  1  0  0  0  0  0  0  0  0  0
   12.5590    7.6872   -9.9896 C   0  0  0  0  0  0  0  0  0  0  0  0
    9.7633    5.0333  -12.9720 C   0  0  1  0  0  0  0  0  0  0  0  0
   10.0661    4.0167  -14.0373 N   0  0  0  0  0  0  0  0  0  0  0  0
   13.6906    8.3004   -9.6233 O   0  0  0  0  0  0  0  0  0  0  0  0
    7.6357    4.5123  -12.6317 C   0  0  2  0  0  0  0  0  0  0  0  0
    6.8831    4.9171  -11.7031 C   0  0  0  0  0  0  0  0  0  0  0  0
   10.5937    6.6967   -9.1779 C   0  0  0  0  0  0  0  0  0  0  0  0
    9.5087    4.3263  -11.6925 C   0  0  2  0  0  0  0  0  0  0  0  0
   11.6359    7.4449   -8.9125 C   0  0  0  0  0  0  0  0  0  0  0  0
   11.9716    7.9159   -7.6200 C   0  0  0  0  0  0  0  0  0  0  0  0
    8.4648    3.6122  -12.2840 C   0  0  2  0  0  0  0  0  0  0  0  0
    9.3128    4.5571   -9.1689 C   0  0  0  0  0  0  0  0  0  0  0  0
   10.9557    7.6369   -6.5929 C   0  0  1  0  0  0  0  0  0  0  0  0
    9.6490    2.8108  -13.7776 C   0  0  1  0  0  0  0  0  0  0  0  0
    9.6716    6.1981   -8.0224 C   0  0  2  0  0  0  0  0  0  0  0  0
    8.5511    2.5400  -13.1402 C   0  0  0  0  0  0  0  0  0  0  0  0
    9.7877    2.0302  -15.0383 O   0  0  0  0  0  0  0  0  0  0  0  0
   10.2949    6.3957   -6.8142 C   0  0  0  0  0  0  0  0  0  0  0  0
   11.5442    7.8028   -5.1770 C   0  0  0  0  0  0  0  0  0  0  0  0
    9.3662    4.9454   -8.1688 C   0  0  0  0  0  0  0  0  0  0  0  0
    9.9825    8.6746   -6.2053 C   0  0  0  0  0  0  0  0  0  0  0  0
   11.8670    9.1982   -4.7195 C   0  0  0  0  0  0  0  0  0  0  0  0
   12.7706    9.9232   -5.2633 C   0  0  0  0  0  0  0  0  0  0  0  0
   11.8424    9.4142   -3.2287 C   0  0  0  0  0  0  0  0  0  0  0  0
   10.4177    9.7626   -5.3285 C   0  0  0  0  0  0  0  0  0  0  0  0
    7.9350    5.6529  -10.3109 C   0  0  0  0  0  0  0  0  0  0  0  0
   11.8920    6.7549   -4.4833 C   0  0  0  0  0  0  0  0  0  0  0  0
  1  2  1  0  0  0  0
  2  3  1  0  0  0  0
  2  7  2  0  0  0  0
  4  3  1  6  0  0  0
  4  5  1  0  0  0  0
  4  6  1  0  0  0  0
  4  8  1  0  0  0  0
  5  9  2  0  0  0  0
  6 13  1  0  0  0  0
  7 12  1  0  0  0  0
  8 11  1  0  0  0  0
  8 19  2  0  0  0  0
 10  7  1  1  0  0  0
 10 14  1  0  0  0  0
 10 17  1  0  0  0  0
 11 20  1  0  0  0  0
 11 24  1  1  0  0  0
 11 38  1  0  0  0  0
 12 18  1  6  0  0  0
 12 38  1  0  0  0  0
 13 16  2  0  0  0  0
 13 21  1  0  0  0  0
 14  5  1  1  0  0  0
 14 15  1  0  0  0  0
 14 20  1  0  0  0  0
 15 26  1  0  0  0  0
 17 18  1  1  0  0  0
 17 23  1  0  0  0  0
 19 21  1  0  0  0  0
 19 27  1  0  0  0  0
 20 23  1  0  0  0  0
 21 22  2  0  0  0  0
 22 25  1  0  0  0  0
 23 28  1  0  0  0  0
 24 32  2  0  0  0  0
 25 30  1  0  0  0  0
 25 31  1  0  0  0  0
 25 33  1  0  0  0  0
 26 28  1  0  0  0  0
 26 29  1  0  0  0  0
 27 30  1  0  0  0  0
 27 32  1  0  0  0  0
 31 34  1  0  0  0  0
 31 39  2  0  0  0  0
 33 37  1  0  0  0  0
 34 35  1  0  0  0  0
 34 36  1  0  0  0  0
 34 37  1  0  0  0  0
M  END
$$$$

 OpenBabel10082411353D

 39 43  0  0  0  0  0  0  0  0999 V2000
   10.9951    9.9694   -4.9946 C   0  0  0  0  0  0  0  0  0  0  0  0
   11.7938    9.3762   -4.2463 C   0  0  0  0  0  0  0  0  0  0  0  0
   10.8673    9.4548   -6.4276 C   0  0  0  0  0  0  0  0  0  0  0  0
   11.6576    7.9117   -4.2944 C   0  0  0  0  0  0  0  0  0  0  0  0
   10.5498    8.0257   -6.4521 C   0  0  0  0  0  0  0  0  0  0  0  0
   11.4715    7.2752   -5.6166 C   0  0  0  0  0  0  0  0  0  0  0  0
   10.5840    7.5390   -7.9254 C   0  0  0  0  0  0  0  0  0  0  0  0
   11.4612    8.1494   -8.8322 C   0  0  0  0  0  0  0  0  0  0  0  0
   12.6250    8.6294   -8.4338 O   0  0  0  0  0  0  0  0  0  0  0  0
   11.0835    8.4395  -10.0740 O   0  0  0  0  0  0  0  0  0  0  0  0
   11.2938    7.5612  -11.0769 C   0  0  0  0  0  0  0  0  0  0  0  0
   10.1547    7.2525  -11.9492 C   0  0  0  0  0  0  0  0  0  0  0  0
   10.4293    6.5622  -13.1348 C   0  0  0  0  0  0  0  0  0  0  0  0
   11.7295    6.4217  -13.6243 C   0  0  0  0  0  0  0  0  0  0  0  0
    8.8120    7.3918  -11.4649 C   0  0  0  0  0  0  0  0  0  0  0  0
   12.5351    7.8894  -11.6869 C   0  0  0  0  0  0  0  0  0  0  0  0
   13.5778    8.4243  -10.9673 O   0  0  0  0  0  0  0  0  0  0  0  0
    7.7211    7.1761  -12.4323 C   0  0  0  0  0  0  0  0  0  0  0  0
   12.8103    7.0723  -12.8897 C   0  0  0  0  0  0  0  0  0  0  0  0
    7.0543    5.9667  -12.3369 C   0  0  0  0  0  0  0  0  0  0  0  0
    7.2392    8.1844  -13.1320 C   0  0  0  0  0  0  0  0  0  0  0  0
    6.6882    5.3848  -13.5016 O   0  0  0  0  0  0  0  0  0  0  0  0
    6.5103    5.5543  -11.3870 O   0  0  0  0  0  0  0  0  0  0  0  0
    7.4031    4.0506  -13.7852 C   0  0  0  0  0  0  0  0  0  0  0  0
    8.6811    3.9966  -14.1333 C   0  0  0  0  0  0  0  0  0  0  0  0
   12.0732    5.6649  -14.9357 C   0  0  0  0  0  0  0  0  0  0  0  0
    6.5842    3.0104  -13.4449 C   0  0  0  0  0  0  0  0  0  0  0  0
   12.1810    6.3505  -15.9550 C   0  0  0  0  0  0  0  0  0  0  0  0
   12.4422    5.6328  -17.1718 C   0  0  0  0  0  0  0  0  0  0  0  0
    5.1615    3.1639  -12.9487 C   0  0  0  0  0  0  0  0  0  0  0  0
   12.4897    4.2439  -17.0738 C   0  0  0  0  0  0  0  0  0  0  0  0
    7.2322    1.7149  -13.5830 C   0  0  0  0  0  0  0  0  0  0  0  0
   12.1774    3.5293  -15.9456 C   0  0  0  0  0  0  0  0  0  0  0  0
    6.3950    0.6096  -13.2209 C   0  0  0  0  0  0  0  0  0  0  0  0
    9.2444    2.7569  -14.2504 C   0  0  0  0  0  0  0  0  0  0  0  0
   10.6485    2.6215  -14.7014 N   0  0  0  0  0  0  0  0  0  0  0  0
   11.8510    4.2990  -14.8237 C   0  0  0  0  0  0  0  0  0  0  0  0
    8.5067    1.6265  -13.9247 C   0  0  0  0  0  0  0  0  0  0  0  0
   11.4639    3.5328  -13.7865 O   0  0  0  0  0  0  0  0  0  0  0  0
  1  2  1  0  0  0  0
  1  3  1  0  0  0  0
  2  4  1  0  0  0  0
  3  5  1  0  0  0  0
  4  6  1  0  0  0  0
  5  6  1  0  0  0  0
  5  7  1  0  0  0  0
  7  8  1  0  0  0  0
  8  9  2  0  0  0  0
  8 10  1  0  0  0  0
 10 11  1  0  0  0  0
 11 12  1  0  0  0  0
 11 16  2  0  0  0  0
 12 13  2  0  0  0  0
 12 15  1  0  0  0  0
 13 14  1  0  0  0  0
 14 19  2  0  0  0  0
 14 26  1  0  0  0  0
 15 18  1  0  0  0  0
 16 17  1  0  0  0  0
 16 19  1  0  0  0  0
 18 20  1  0  0  0  0
 18 21  2  0  0  0  0
 20 22  1  0  0  0  0
 20 23  2  0  0  0  0
 22 24  1  0  0  0  0
 24 25  1  0  0  0  0
 24 27  2  0  0  0  0
 25 35  2  0  0  0  0
 26 28  2  0  0  0  0
 26 37  1  0  0  0  0
 27 30  1  0  0  0  0
 27 32  1  0  0  0  0
 28 29  1  0  0  0  0
 29 31  2  0  0  0  0
 31 33  1  0  0  0  0
 32 34  1  0  0  0  0
 32 38  2  0  0  0  0
 33 37  2  0  0  0  0
 35 36  1  0  0  0  0
 35 38  1  0  0  0  0
 36 39  1  0  0  0  0
 37 39  1  0  0  0  0
M  END
$$$$

 OpenBabel10082411353D

 39 43  0  0  0  0  0  0  0  0999 V2000
   11.6836    6.0105   -4.8831 F   0  0  0  0  0  0  0  0  0  0  0  0
   11.2562    7.2206   -5.0294 C   0  0  0  0  0  0  0  0  0  0  0  0
   12.0125    8.2418   -4.4408 C   0  0  0  0  0  0  0  0  0  0  0  0
   11.1918    7.2706   -6.5237 C   0  0  0  0  0  0  0  0  0  0  0  0
   11.6999    8.4488   -3.1704 F   0  0  0  0  0  0  0  0  0  0  0  0
    9.8648    7.0908   -4.5314 F   0  0  0  0  0  0  0  0  0  0  0  0
   11.6831    8.5291   -6.9682 C   0  0  0  0  0  0  0  0  0  0  0  0
   10.4785    6.5189   -7.4033 C   0  0  0  0  0  0  0  0  0  0  0  0
   11.6979    8.6661   -8.4760 C   0  0  0  0  0  0  0  0  0  0  0  0
   11.6248    9.5853   -5.0030 C   0  0  0  0  0  0  0  0  0  0  0  0
   11.8604    9.7907   -6.2903 O   0  0  0  0  0  0  0  0  0  0  0  0
   13.3557    8.1748   -4.5947 F   0  0  0  0  0  0  0  0  0  0  0  0
   10.5427    6.6061   -8.7190 C   0  0  0  0  0  0  0  0  0  0  0  0
   11.1158    7.7103   -9.2540 C   0  0  0  0  0  0  0  0  0  0  0  0
   11.3757    7.6656  -10.5293 N   0  0  0  0  0  0  0  0  0  0  0  0
   10.7153    7.7096  -11.5405 C   0  0  0  0  0  0  0  0  0  0  0  0
   11.2483    7.4711  -12.8542 C   0  0  0  0  0  0  0  0  0  0  0  0
    9.3980    7.7820  -11.5398 C   0  0  0  0  0  0  0  0  0  0  0  0
    8.6055    7.5889  -12.6525 C   0  0  0  0  0  0  0  0  0  0  0  0
   12.7508    7.3705  -13.0162 O   0  0  0  0  0  0  0  0  0  0  0  0
   10.5299    7.1831  -13.9856 C   0  0  0  0  0  0  0  0  0  0  0  0
    7.0533    7.7371  -12.5396 C   0  0  0  0  0  0  0  0  0  0  0  0
   11.2041    6.8490  -15.2304 C   0  0  0  0  0  0  0  0  0  0  0  0
   11.6393    5.5333  -15.3864 C   0  0  0  0  0  0  0  0  0  0  0  0
    9.1955    7.2935  -13.8301 C   0  0  0  0  0  0  0  0  0  0  0  0
   12.5294    5.1116  -16.1609 C   0  0  0  0  0  0  0  0  0  0  0  0
   11.2315    4.4703  -14.3200 C   0  0  0  0  0  0  0  0  0  0  0  0
   13.0194    6.0876  -17.1697 C   0  0  0  0  0  0  0  0  0  0  0  0
   12.3991    7.3271  -17.2011 C   0  0  0  0  0  0  0  0  0  0  0  0
   11.6234    7.7212  -16.1065 C   0  0  0  0  0  0  0  0  0  0  0  0
    6.8111    8.8557  -12.1311 F   0  0  0  0  0  0  0  0  0  0  0  0
   10.0067    4.0539  -14.1822 C   0  0  0  0  0  0  0  0  0  0  0  0
    6.6026    6.8347  -11.5951 F   0  0  0  0  0  0  0  0  0  0  0  0
    9.7932    2.6838  -14.2236 C   0  0  0  0  0  0  0  0  0  0  0  0
    8.9172    4.7456  -13.9387 C   0  0  0  0  0  0  0  0  0  0  0  0
    8.6274    2.2762  -14.1460 C   0  0  0  0  0  0  0  0  0  0  0  0
    8.3675    0.7515  -14.2475 C   0  0  0  0  0  0  0  0  0  0  0  0
    7.6191    3.2983  -13.8549 S   0  0  0  0  0  0  0  0  0  0  0  0
    6.5132    7.4979  -13.7599 F   0  0  0  0  0  0  0  0  0  0  0  0
  1  2  1  0  0  0  0
  2  3  1  0  0  0  0
  2  4  1  0  0  0  0
  2  6  1  0  0  0  0
  3  5  1  0  0  0  0
  3 10  1  0  0  0  0
  3 12  1  0  0  0  0
  4  7  1  0  0  0  0
  4  8  2  0  0  0  0
  7  9  2  0  0  0  0
  7 11  1  0  0  0  0
  8 13  1  0  0  0  0
  9 14  1  0  0  0  0
 10 11  1  0  0  0  0
 13 14  2  0  0  0  0
 14 15  1  0  0  0  0
 15 16  1  0  0  0  0
 16 17  1  0  0  0  0
 16 18  2  0  0  0  0
 17 20  1  0  0  0  0
 17 21  2  0  0  0  0
 18 19  1  0  0  0  0
 19 22  1  0  0  0  0
 19 25  2  0  0  0  0
 21 23  1  0  0  0  0
 21 25  1  0  0  0  0
 22 31  1  0  0  0  0
 22 33  1  0  0  0  0
 22 39  1  0  0  0  0
 23 24  1  0  0  0  0
 23 30  2  0  0  0  0
 24 26  2  0  0  0  0
 24 27  1  0  0  0  0
 26 28  1  0  0  0  0
 27 32  1  0  0  0  0
 28 29  2  0  0  0  0
 29 30  1  0  0  0  0
 32 34  1  0  0  0  0
 32 35  2  0  0  0  0
 34 36  2  0  0  0  0
 35 38  1  0  0  0  0
 36 37  1  0  0  0  0
 36 38  1  0  0  0  0
M  END
$$$$

 OpenBabel10082411353D

 39 45  0  0  0  0  0  0  0  0999 V2000
   12.7863    7.8241  -14.2109 C   0  0  0  0  0  0  0  0  0  0  0  0
   12.4233    7.7158  -13.0289 C   0  0  0  0  0  0  0  0  0  0  0  0
   11.3194    6.8571  -12.8028 C   0  0  0  0  0  0  0  0  0  0  0  0
   12.3150    7.2021  -15.3582 C   0  0  0  0  0  0  0  0  0  0  0  0
   11.2733    6.2739  -15.1502 C   0  0  0  0  0  0  0  0  0  0  0  0
   10.8099    6.0126  -13.8600 C   0  0  0  0  0  0  0  0  0  0  0  0
    9.6782    5.1428  -13.6488 C   0  0  0  0  0  0  0  0  0  0  0  0
    8.5753    5.3880  -12.9589 N   0  0  0  0  0  0  0  0  0  0  0  0
    8.3226    6.7011  -12.3862 C   0  0  0  0  0  0  0  0  0  0  0  0
    9.8502    3.8578  -14.0728 C   0  0  0  0  0  0  0  0  0  0  0  0
    7.3864    7.4720  -13.0530 C   0  0  0  0  0  0  0  0  0  0  0  0
    6.2412    7.8486  -12.2599 C   0  0  0  0  0  0  0  0  0  0  0  0
    7.6425    4.4186  -12.7943 C   0  0  0  0  0  0  0  0  0  0  0  0
   11.0297    3.2482  -14.8053 C   0  0  0  0  0  0  0  0  0  0  0  0
    8.6802    2.8955  -13.7960 C   0  0  0  0  0  0  0  0  0  0  0  0
    8.8565    1.5917  -14.3582 O   0  0  0  0  0  0  0  0  0  0  0  0
    7.6903    3.2226  -13.1994 N   0  0  0  0  0  0  0  0  0  0  0  0
    6.5724    2.3444  -12.8378 C   0  0  0  0  0  0  0  0  0  0  0  0
    9.0225    7.0353  -11.3259 C   0  0  0  0  0  0  0  0  0  0  0  0
    6.2405    4.8489  -12.4515 C   0  0  0  0  0  0  0  0  0  0  0  0
   10.5875    7.0617  -11.5321 C   0  0  0  0  0  0  0  0  0  0  0  0
   11.0960    7.6093  -10.4100 C   0  0  0  0  0  0  0  0  0  0  0  0
    8.4039    7.3336  -10.1102 C   0  0  0  0  0  0  0  0  0  0  0  0
    5.5911    3.3517  -12.3508 C   0  0  0  0  0  0  0  0  0  0  0  0
   12.6259    7.6530  -10.3901 C   0  0  0  0  0  0  0  0  0  0  0  0
   10.4284    7.7784   -9.2128 C   0  0  1  0  0  0  0  0  0  0  0  0
    9.2236    7.5051   -9.0617 C   0  0  2  0  0  0  0  0  0  0  0  0
    8.7145    7.3063   -7.7135 N   0  0  0  0  0  0  0  0  0  0  0  0
   11.0621    7.5242   -7.8430 C   0  0  1  0  0  0  0  0  0  0  0  0
   12.0213    8.4787   -7.3268 C   0  0  0  0  0  0  0  0  0  0  0  0
   13.1241    8.0749  -11.7293 C   0  0  0  0  0  0  0  0  0  0  0  0
   12.0504    9.6950   -7.9009 O   0  0  0  0  0  0  0  0  0  0  0  0
    9.8858    7.2444   -6.9594 C   0  0  2  0  0  0  0  0  0  0  0  0
    9.9777    5.9996   -6.3117 C   0  0  0  0  0  0  0  0  0  0  0  0
    8.9391    5.1621   -6.4362 C   0  0  0  0  0  0  0  0  0  0  0  0
    9.0345    3.9683   -7.0727 O   0  0  0  0  0  0  0  0  0  0  0  0
   12.8651    8.3252   -6.3208 O   0  0  0  0  0  0  0  0  0  0  0  0
    7.8799    5.3974   -6.0353 O   0  0  0  0  0  0  0  0  0  0  0  0
   13.0496    9.2586   -5.2854 C   0  0  0  0  0  0  0  0  0  0  0  0
  1  2  2  0  0  0  0
  1  4  1  0  0  0  0
  2  3  1  0  0  0  0
  2 31  1  0  0  0  0
  3  6  2  0  0  0  0
  3 21  1  0  0  0  0
  4  5  2  0  0  0  0
  5  6  1  0  0  0  0
  6  7  1  0  0  0  0
  7  8  1  0  0  0  0
  7 10  2  0  0  0  0
  8  9  1  0  0  0  0
  8 13  1  0  0  0  0
  9 11  1  0  0  0  0
  9 19  2  0  0  0  0
 10 14  1  0  0  0  0
 10 15  1  0  0  0  0
 11 12  1  0  0  0  0
 13 17  1  0  0  0  0
 13 20  2  0  0  0  0
 15 16  2  0  0  0  0
 15 17  1  0  0  0  0
 17 18  1  0  0  0  0
 18 24  1  0  0  0  0
 19 21  1  0  0  0  0
 19 23  1  0  0  0  0
 20 24  1  0  0  0  0
 21 22  2  0  0  0  0
 22 25  1  0  0  0  0
 25 31  2  0  0  0  0
 26 22  1  6  0  0  0
 26 27  1  0  0  0  0
 26 29  1  0  0  0  0
 27 23  1  6  0  0  0
 27 28  1  0  0  0  0
 28 33  1  0  0  0  0
 29 30  1  1  0  0  0
 29 33  1  0  0  0  0
 30 32  2  0  0  0  0
 30 37  1  0  0  0  0
 33 34  1  6  0  0  0
 34 35  1  0  0  0  0
 35 36  2  0  0  0  0
 35 38  1  0  0  0  0
 37 39  1  0  0  0  0
M  END
$$$$

 OpenBabel10082411353D

 39 44  0  0  0  0  0  0  0  0999 V2000
   11.6836    6.0105   -4.8831 C   0  0  0  0  0  0  0  0  0  0  0  0
   11.1291    7.0732   -5.4395 C   0  0  0  0  0  0  0  0  0  0  0  0
   10.6954    7.0156   -6.8073 C   0  0  0  0  0  0  0  0  0  0  0  0
   10.2502    8.1187   -7.5536 C   0  0  2  0  0  0  0  0  0  0  0  0
   11.1205    8.4712   -4.9629 C   0  0  0  0  0  0  0  0  0  0  0  0
   10.8655    8.3511   -8.7960 C   0  0  0  0  0  0  0  0  0  0  0  0
   10.2922    7.8843   -9.9985 C   0  0  0  0  0  0  0  0  0  0  0  0
   10.4654    9.6993   -5.6120 C   0  0  0  0  0  0  0  0  0  0  0  0
   10.3510    9.5971   -7.0014 C   0  0  0  0  0  0  0  0  0  0  0  0
   12.2462    6.3351   -3.5020 C   0  0  0  0  0  0  0  0  0  0  0  0
   11.0471    7.5309  -11.1063 C   0  0  0  0  0  0  0  0  0  0  0  0
   11.7288    8.6923   -3.6518 C   0  0  0  0  0  0  0  0  0  0  0  0
   12.3991    7.7501  -11.1145 C   0  0  0  0  0  0  0  0  0  0  0  0
   12.3738    7.7580   -2.9599 C   0  0  0  0  0  0  0  0  0  0  0  0
   13.1285    8.5075  -10.1661 O   0  0  0  0  0  0  0  0  0  0  0  0
    9.0407    7.3775  -10.0973 N   0  0  0  0  0  0  0  0  0  0  0  0
    8.9787    6.9473  -11.4664 N   0  0  0  0  0  0  0  0  0  0  0  0
   13.1012    7.4459  -12.3707 C   0  0  0  0  0  0  0  0  0  0  0  0
   12.2395    6.9724  -13.2444 C   0  0  0  0  0  0  0  0  0  0  0  0
   10.2768    7.0170  -11.9799 C   0  0  0  0  0  0  0  0  0  0  0  0
   12.9237    6.5822  -14.5759 O   0  0  0  0  0  0  0  0  0  0  0  0
   10.8906    6.6526  -13.2252 C   0  0  0  0  0  0  0  0  0  0  0  0
   12.2396    6.1290  -15.6916 C   0  0  0  0  0  0  0  0  0  0  0  0
    7.8036    6.1825  -11.9342 C   0  0  0  0  0  0  0  0  0  0  0  0
   12.5015    4.7115  -15.7686 C   0  0  0  0  0  0  0  0  0  0  0  0
    7.1685    6.9992  -12.8245 C   0  0  0  0  0  0  0  0  0  0  0  0
   11.2461    3.8540  -15.4851 C   0  0  0  0  0  0  0  0  0  0  0  0
    7.6237    4.9154  -11.6529 C   0  0  0  0  0  0  0  0  0  0  0  0
    6.6378    4.1960  -12.2267 C   0  0  0  0  0  0  0  0  0  0  0  0
    6.2717    2.7675  -11.9743 C   0  0  0  0  0  0  0  0  0  0  0  0
    6.6569    1.8873  -12.9460 C   0  0  2  0  0  0  0  0  0  0  0  0
    6.2393    0.5737  -12.7991 C   0  0  0  0  0  0  0  0  0  0  0  0
    5.8868    6.2205  -13.3605 C   0  0  0  0  0  0  0  0  0  0  0  0
    5.6870    4.9300  -13.0899 C   0  0  0  0  0  0  0  0  0  0  0  0
   10.9648    3.4588  -14.2736 C   0  0  0  0  0  0  0  0  0  0  0  0
    8.1204    1.7675  -13.1699 O   0  0  0  0  0  0  0  0  0  0  0  0
    8.6822    2.7432  -13.9205 C   0  0  0  0  0  0  0  0  0  0  0  0
    9.8677    3.0421  -13.7265 N   0  0  0  0  0  0  0  0  0  0  0  0
    7.9814    3.4354  -14.7364 O   0  0  0  0  0  0  0  0  0  0  0  0
  1  2  1  0  0  0  0
  1 10  2  0  0  0  0
  2  3  1  0  0  0  0
  2  5  2  0  0  0  0
  3  4  1  0  0  0  0
  4  6  1  6  0  0  0
  4  9  1  0  0  0  0
  5  8  1  0  0  0  0
  5 12  1  0  0  0  0
  6  7  1  0  0  0  0
  7 11  1  0  0  0  0
  7 16  2  0  0  0  0
  8  9  1  0  0  0  0
 10 14  1  0  0  0  0
 11 13  2  0  0  0  0
 11 20  1  0  0  0  0
 12 14  2  0  0  0  0
 13 15  1  0  0  0  0
 13 18  1  0  0  0  0
 16 17  1  0  0  0  0
 17 20  1  0  0  0  0
 17 24  1  0  0  0  0
 18 19  2  0  0  0  0
 19 21  1  0  0  0  0
 19 22  1  0  0  0  0
 20 22  2  0  0  0  0
 21 23  1  0  0  0  0
 23 25  1  0  0  0  0
 24 26  2  0  0  0  0
 24 28  1  0  0  0  0
 25 27  1  0  0  0  0
 26 33  1  0  0  0  0
 27 35  1  0  0  0  0
 28 29  2  0  0  0  0
 29 30  1  0  0  0  0
 29 34  1  0  0  0  0
 30 31  1  0  0  0  0
 31 32  1  1  0  0  0
 31 36  1  0  0  0  0
 33 34  2  0  0  0  0
 35 38  2  0  0  0  0
 36 37  1  0  0  0  0
 37 38  1  0  0  0  0
 37 39  2  0  0  0  0
M  END
$$$$

 OpenBabel10082411353D

 39 44  0  0  0  0  0  0  0  0999 V2000
   11.6836    6.0105   -4.8831 F   0  0  0  0  0  0  0  0  0  0  0  0
   11.2562    7.2206   -5.0294 C   0  0  0  0  0  0  0  0  0  0  0  0
   12.0125    8.2418   -4.4408 C   0  0  0  0  0  0  0  0  0  0  0  0
   11.1918    7.2706   -6.5237 C   0  0  0  0  0  0  0  0  0  0  0  0
   11.6999    8.4488   -3.1704 F   0  0  0  0  0  0  0  0  0  0  0  0
    9.8648    7.0908   -4.5314 F   0  0  0  0  0  0  0  0  0  0  0  0
   11.6831    8.5291   -6.9682 C   0  0  0  0  0  0  0  0  0  0  0  0
   10.4785    6.5189   -7.4033 C   0  0  0  0  0  0  0  0  0  0  0  0
   11.6979    8.6661   -8.4760 C   0  0  0  0  0  0  0  0  0  0  0  0
   11.6248    9.5853   -5.0030 C   0  0  0  0  0  0  0  0  0  0  0  0
   11.8604    9.7907   -6.2903 O   0  0  0  0  0  0  0  0  0  0  0  0
   13.3557    8.1748   -4.5947 F   0  0  0  0  0  0  0  0  0  0  0  0
   10.5427    6.6061   -8.7190 C   0  0  0  0  0  0  0  0  0  0  0  0
   11.1158    7.7103   -9.2540 C   0  0  0  0  0  0  0  0  0  0  0  0
   11.3757    7.6656  -10.5293 N   0  0  0  0  0  0  0  0  0  0  0  0
   10.7153    7.7096  -11.5405 C   0  0  0  0  0  0  0  0  0  0  0  0
   11.2483    7.4711  -12.8542 C   0  0  0  0  0  0  0  0  0  0  0  0
    9.3980    7.7820  -11.5398 C   0  0  0  0  0  0  0  0  0  0  0  0
    8.6055    7.5889  -12.6525 C   0  0  0  0  0  0  0  0  0  0  0  0
   12.7508    7.3705  -13.0162 O   0  0  0  0  0  0  0  0  0  0  0  0
   10.5299    7.1831  -13.9856 C   0  0  0  0  0  0  0  0  0  0  0  0
    7.0533    7.7371  -12.5396 C   0  0  0  0  0  0  0  0  0  0  0  0
   11.2041    6.8490  -15.2304 C   0  0  0  0  0  0  0  0  0  0  0  0
   11.6393    5.5333  -15.3864 C   0  0  0  0  0  0  0  0  0  0  0  0
    9.1955    7.2935  -13.8301 C   0  0  0  0  0  0  0  0  0  0  0  0
   12.5294    5.1116  -16.1609 C   0  0  0  0  0  0  0  0  0  0  0  0
   11.2315    4.4703  -14.3200 C   0  0  0  0  0  0  0  0  0  0  0  0
   13.0194    6.0876  -17.1697 C   0  0  0  0  0  0  0  0  0  0  0  0
   12.9874    3.8316  -16.1456 C   0  0  0  0  0  0  0  0  0  0  0  0
   12.3949    2.9126  -15.4671 C   0  0  0  0  0  0  0  0  0  0  0  0
   10.2274    4.8149  -13.2643 C   0  0  0  0  0  0  0  0  0  0  0  0
    8.9564    4.3798  -13.5553 C   0  0  0  0  0  0  0  0  0  0  0  0
    8.7030    2.9995  -13.6113 C   0  0  1  0  0  0  0  0  0  0  0  0
   11.4166    3.2431  -14.5460 C   0  0  0  0  0  0  0  0  0  0  0  0
    7.3695    2.5639  -13.4881 C   0  0  0  0  0  0  0  0  0  0  0  0
   10.5729    2.1979  -13.9272 C   0  0  0  0  0  0  0  0  0  0  0  0
    9.5697    2.1393  -13.9351 C   0  0  0  0  0  0  0  0  0  0  0  0
    7.1847    1.2434  -13.7936 C   0  0  0  0  0  0  0  0  0  0  0  0
    8.6354    0.5976  -14.0457 S   0  0  0  0  0  0  0  0  0  0  0  0
  1  2  1  0  0  0  0
  2  3  1  0  0  0  0
  2  4  1  0  0  0  0
  2  6  1  0  0  0  0
  3  5  1  0  0  0  0
  3 10  1  0  0  0  0
  3 12  1  0  0  0  0
  4  7  1  0  0  0  0
  4  8  2  0  0  0  0
  7  9  2  0  0  0  0
  7 11  1  0  0  0  0
  8 13  1  0  0  0  0
  9 14  1  0  0  0  0
 10 11  1  0  0  0  0
 13 14  2  0  0  0  0
 14 15  1  0  0  0  0
 15 16  1  0  0  0  0
 16 17  1  0  0  0  0
 16 18  2  0  0  0  0
 17 20  1  0  0  0  0
 17 21  2  0  0  0  0
 18 19  1  0  0  0  0
 19 22  1  0  0  0  0
 19 25  2  0  0  0  0
 21 23  1  0  0  0  0
 21 25  1  0  0  0  0
 23 24  1  0  0  0  0
 24 26  2  0  0  0  0
 24 27  1  0  0  0  0
 26 28  1  0  0  0  0
 26 29  1  0  0  0  0
 27 31  1  0  0  0  0
 27 34  2  0  0  0  0
 29 30  2  0  0  0  0
 30 34  1  0  0  0  0
 31 32  2  0  0  0  0
 33 32  1  6  0  0  0
 33 35  1  0  0  0  0
 33 37  1  0  0  0  0
 34 36  1  0  0  0  0
 35 38  2  0  0  0  0
 36 37  1  0  0  0  0
 37 39  2  0  0  0  0
 38 39  1  0  0  0  0
M  END
$$$$

 OpenBabel10082411353D

 39 43  0  0  0  0  0  0  0  0999 V2000
   11.6836    6.0105   -4.8831 F   0  0  0  0  0  0  0  0  0  0  0  0
   11.2562    7.2206   -5.0294 C   0  0  0  0  0  0  0  0  0  0  0  0
   12.0125    8.2418   -4.4408 C   0  0  0  0  0  0  0  0  0  0  0  0
   11.1918    7.2706   -6.5237 C   0  0  0  0  0  0  0  0  0  0  0  0
   11.6999    8.4488   -3.1704 F   0  0  0  0  0  0  0  0  0  0  0  0
    9.8648    7.0908   -4.5314 F   0  0  0  0  0  0  0  0  0  0  0  0
   11.6831    8.5291   -6.9682 C   0  0  0  0  0  0  0  0  0  0  0  0
   10.4785    6.5189   -7.4033 C   0  0  0  0  0  0  0  0  0  0  0  0
   11.6979    8.6661   -8.4760 C   0  0  0  0  0  0  0  0  0  0  0  0
   11.6248    9.5853   -5.0030 C   0  0  0  0  0  0  0  0  0  0  0  0
   11.8604    9.7907   -6.2903 O   0  0  0  0  0  0  0  0  0  0  0  0
   13.3557    8.1748   -4.5947 F   0  0  0  0  0  0  0  0  0  0  0  0
   10.5427    6.6061   -8.7190 C   0  0  0  0  0  0  0  0  0  0  0  0
   11.1158    7.7103   -9.2540 C   0  0  0  0  0  0  0  0  0  0  0  0
   11.3757    7.6656  -10.5293 N   0  0  0  0  0  0  0  0  0  0  0  0
   10.7153    7.7096  -11.5405 C   0  0  0  0  0  0  0  0  0  0  0  0
   11.2483    7.4711  -12.8542 C   0  0  0  0  0  0  0  0  0  0  0  0
    9.3980    7.7820  -11.5398 C   0  0  0  0  0  0  0  0  0  0  0  0
    8.6055    7.5889  -12.6525 C   0  0  0  0  0  0  0  0  0  0  0  0
   12.7508    7.3705  -13.0162 O   0  0  0  0  0  0  0  0  0  0  0  0
   10.5299    7.1831  -13.9856 C   0  0  0  0  0  0  0  0  0  0  0  0
    7.0533    7.7371  -12.5396 C   0  0  0  0  0  0  0  0  0  0  0  0
   11.2041    6.8490  -15.2304 C   0  0  0  0  0  0  0  0  0  0  0  0
   11.6393    5.5333  -15.3864 C   0  0  0  0  0  0  0  0  0  0  0  0
    9.1955    7.2935  -13.8301 C   0  0  0  0  0  0  0  0  0  0  0  0
   12.5294    5.1116  -16.1609 C   0  0  0  0  0  0  0  0  0  0  0  0
   11.2315    4.4703  -14.3200 C   0  0  0  0  0  0  0  0  0  0  0  0
   13.0194    6.0876  -17.1697 C   0  0  0  0  0  0  0  0  0  0  0  0
   12.9874    3.8316  -16.1456 C   0  0  0  0  0  0  0  0  0  0  0  0
   12.3949    2.9126  -15.4671 C   0  0  0  0  0  0  0  0  0  0  0  0
   10.2274    4.8149  -13.2643 C   0  0  0  0  0  0  0  0  0  0  0  0
    8.9564    4.3798  -13.5553 C   0  0  0  0  0  0  0  0  0  0  0  0
    8.7042    3.2659  -14.2465 C   0  0  0  0  0  0  0  0  0  0  0  0
   11.4148    3.2767  -14.5206 C   0  0  0  0  0  0  0  0  0  0  0  0
    8.0769    4.5652  -12.3451 C   0  0  0  0  0  0  0  0  0  0  0  0
    6.8532    4.1363  -12.5398 C   0  0  0  0  0  0  0  0  0  0  0  0
    7.3789    2.7275  -14.1356 C   0  0  0  0  0  0  0  0  0  0  0  0
    5.8639    4.5775  -11.3707 F   0  0  0  0  0  0  0  0  0  0  0  0
    6.4907    3.1372  -13.2957 C   0  0  0  0  0  0  0  0  0  0  0  0
  1  2  1  0  0  0  0
  2  3  1  0  0  0  0
  2  4  1  0  0  0  0
  2  6  1  0  0  0  0
  3  5  1  0  0  0  0
  3 10  1  0  0  0  0
  3 12  1  0  0  0  0
  4  7  1  0  0  0  0
  4  8  2  0  0  0  0
  7  9  2  0  0  0  0
  7 11  1  0  0  0  0
  8 13  1  0  0  0  0
  9 14  1  0  0  0  0
 10 11  1  0  0  0  0
 13 14  2  0  0  0  0
 14 15  1  0  0  0  0
 15 16  1  0  0  0  0
 16 17  1  0  0  0  0
 16 18  2  0  0  0  0
 17 20  1  0  0  0  0
 17 21  2  0  0  0  0
 18 19  1  0  0  0  0
 19 22  1  0  0  0  0
 19 25  2  0  0  0  0
 21 23  1  0  0  0  0
 21 25  1  0  0  0  0
 23 24  1  0  0  0  0
 24 26  2  0  0  0  0
 24 27  1  0  0  0  0
 26 28  1  0  0  0  0
 26 29  1  0  0  0  0
 27 31  1  0  0  0  0
 27 34  2  0  0  0  0
 29 30  2  0  0  0  0
 30 34  1  0  0  0  0
 31 32  2  3  0  0  0
 32 33  1  0  0  0  0
 32 35  1  0  0  0  0
 33 37  2  0  0  0  0
 35 36  2  0  0  0  0
 36 38  1  0  0  0  0
 36 39  1  0  0  0  0
 37 39  1  0  0  0  0
M  END
$$$$

 OpenBabel10082411353D

 39 43  0  0  0  0  0  0  0  0999 V2000
   11.6836    6.0105   -4.8831 F   0  0  0  0  0  0  0  0  0  0  0  0
   11.2562    7.2206   -5.0294 C   0  0  0  0  0  0  0  0  0  0  0  0
   12.0125    8.2418   -4.4408 C   0  0  0  0  0  0  0  0  0  0  0  0
   11.1918    7.2706   -6.5237 C   0  0  0  0  0  0  0  0  0  0  0  0
   11.6999    8.4488   -3.1704 F   0  0  0  0  0  0  0  0  0  0  0  0
    9.8648    7.0908   -4.5314 F   0  0  0  0  0  0  0  0  0  0  0  0
   11.6831    8.5291   -6.9682 C   0  0  0  0  0  0  0  0  0  0  0  0
   10.4785    6.5189   -7.4033 C   0  0  0  0  0  0  0  0  0  0  0  0
   11.6979    8.6661   -8.4760 C   0  0  0  0  0  0  0  0  0  0  0  0
   11.6248    9.5853   -5.0030 C   0  0  0  0  0  0  0  0  0  0  0  0
   11.8604    9.7907   -6.2903 O   0  0  0  0  0  0  0  0  0  0  0  0
   13.3557    8.1748   -4.5947 F   0  0  0  0  0  0  0  0  0  0  0  0
   10.5427    6.6061   -8.7190 C   0  0  0  0  0  0  0  0  0  0  0  0
   11.1158    7.7103   -9.2540 C   0  0  0  0  0  0  0  0  0  0  0  0
   11.3757    7.6656  -10.5293 N   0  0  0  0  0  0  0  0  0  0  0  0
   10.7153    7.7096  -11.5405 C   0  0  0  0  0  0  0  0  0  0  0  0
   11.2483    7.4711  -12.8542 C   0  0  0  0  0  0  0  0  0  0  0  0
    9.3980    7.7820  -11.5398 C   0  0  0  0  0  0  0  0  0  0  0  0
    8.6055    7.5889  -12.6525 C   0  0  0  0  0  0  0  0  0  0  0  0
   12.7508    7.3705  -13.0162 O   0  0  0  0  0  0  0  0  0  0  0  0
   10.5299    7.1831  -13.9856 C   0  0  0  0  0  0  0  0  0  0  0  0
    7.0533    7.7371  -12.5396 C   0  0  0  0  0  0  0  0  0  0  0  0
   11.2041    6.8490  -15.2304 C   0  0  0  0  0  0  0  0  0  0  0  0
   11.6393    5.5333  -15.3864 C   0  0  0  0  0  0  0  0  0  0  0  0
    9.1955    7.2935  -13.8301 C   0  0  0  0  0  0  0  0  0  0  0  0
   12.5294    5.1116  -16.1609 C   0  0  0  0  0  0  0  0  0  0  0  0
   11.2315    4.4703  -14.3200 C   0  0  0  0  0  0  0  0  0  0  0  0
   10.2844    4.5821  -13.3000 C   0  0  0  0  0  0  0  0  0  0  0  0
   11.6270    3.1866  -14.6052 C   0  0  0  0  0  0  0  0  0  0  0  0
    9.0868    3.8289  -13.3080 C   0  0  0  0  0  0  0  0  0  0  0  0
    8.1007    4.0948  -12.4103 C   0  0  0  0  0  0  0  0  0  0  0  0
    6.8410    3.6347  -12.6829 C   0  0  0  0  0  0  0  0  0  0  0  0
   12.9624    6.1826  -17.2150 C   0  0  0  0  0  0  0  0  0  0  0  0
   11.1536    2.1160  -13.7692 F   0  0  0  0  0  0  0  0  0  0  0  0
   12.3467    2.9855  -15.4534 C   0  0  0  0  0  0  0  0  0  0  0  0
    6.6627    2.6322  -13.6665 C   0  0  0  0  0  0  0  0  0  0  0  0
    8.8985    2.8773  -14.2673 C   0  0  0  0  0  0  0  0  0  0  0  0
   12.8094    3.8527  -16.3624 C   0  0  0  0  0  0  0  0  0  0  0  0
    7.6818    2.2691  -14.3995 C   0  0  0  0  0  0  0  0  0  0  0  0
  1  2  1  0  0  0  0
  2  3  1  0  0  0  0
  2  4  1  0  0  0  0
  2  6  1  0  0  0  0
  3  5  1  0  0  0  0
  3 10  1  0  0  0  0
  3 12  1  0  0  0  0
  4  7  1  0  0  0  0
  4  8  2  0  0  0  0
  7  9  2  0  0  0  0
  7 11  1  0  0  0  0
  8 13  1  0  0  0  0
  9 14  1  0  0  0  0
 10 11  1  0  0  0  0
 13 14  2  0  0  0  0
 14 15  1  0  0  0  0
 15 16  1  0  0  0  0
 16 17  1  0  0  0  0
 16 18  2  0  0  0  0
 17 20  1  0  0  0  0
 17 21  2  0  0  0  0
 18 19  1  0  0  0  0
 19 22  1  0  0  0  0
 19 25  2  0  0  0  0
 21 23  1  0  0  0  0
 21 25  1  0  0  0  0
 23 24  1  0  0  0  0
 24 26  2  0  0  0  0
 24 27  1  0  0  0  0
 26 33  1  0  0  0  0
 26 38  1  0  0  0  0
 27 28  1  0  0  0  0
 27 29  2  0  0  0  0
 28 30  2  3  0  0  0
 29 34  1  0  0  0  0
 29 35  1  0  0  0  0
 30 31  1  0  0  0  0
 30 37  1  0  0  0  0
 31 32  2  0  0  0  0
 32 36  1  0  0  0  0
 35 38  2  0  0  0  0
 36 39  2  0  0  0  0
 37 39  1  0  0  0  0
M  END
$$$$

 OpenBabel10082411353D

 39 47  0  0  0  0  0  0  0  0999 V2000
    8.0806    9.0240  -12.7589 C   0  0  0  0  0  0  0  0  0  0  0  0
    8.6514    7.8645  -12.2948 C   0  0  0  0  0  0  0  0  0  0  0  0
    9.9575    7.9974  -11.8426 C   0  0  0  0  0  0  0  0  0  0  0  0
   10.7657    6.8667  -11.6050 C   0  0  1  0  0  0  0  0  0  0  0  0
   10.7682    5.9590  -12.8271 C   0  0  0  0  0  0  0  0  0  0  0  0
   12.1553    7.3846  -11.2315 C   0  0  0  0  0  0  0  0  0  0  0  0
    8.0676    6.6451  -12.2974 C   0  0  0  0  0  0  0  0  0  0  0  0
   10.1892    6.1240  -10.3860 C   0  0  0  0  0  0  0  0  0  0  0  0
   11.8375    5.4373  -13.3240 O   0  0  0  0  0  0  0  0  0  0  0  0
    8.6785    5.4761  -13.0273 C   0  0  1  0  0  0  0  0  0  0  0  0
    9.1969    5.2405  -10.4969 C   0  0  1  0  0  0  0  0  0  0  0  0
    7.2213    6.2210  -11.3074 C   0  0  0  0  0  0  0  0  0  0  0  0
   12.5590    7.6872   -9.9896 C   0  0  0  0  0  0  0  0  0  0  0  0
    9.7633    5.0333  -12.9720 C   0  0  1  0  0  0  0  0  0  0  0  0
   10.0661    4.0167  -14.0373 N   0  0  0  0  0  0  0  0  0  0  0  0
   13.6906    8.3004   -9.6233 O   0  0  0  0  0  0  0  0  0  0  0  0
    7.6357    4.5123  -12.6317 C   0  0  2  0  0  0  0  0  0  0  0  0
    6.8831    4.9171  -11.7031 C   0  0  0  0  0  0  0  0  0  0  0  0
   10.5937    6.6967   -9.1779 C   0  0  0  0  0  0  0  0  0  0  0  0
    9.5087    4.3263  -11.6925 C   0  0  2  0  0  0  0  0  0  0  0  0
   11.6359    7.4449   -8.9125 C   0  0  0  0  0  0  0  0  0  0  0  0
   11.9716    7.9159   -7.6200 C   0  0  0  0  0  0  0  0  0  0  0  0
    8.4648    3.6122  -12.2840 C   0  0  2  0  0  0  0  0  0  0  0  0
    9.3128    4.5571   -9.1689 C   0  0  0  0  0  0  0  0  0  0  0  0
   10.9557    7.6369   -6.5929 C   0  0  1  0  0  0  0  0  0  0  0  0
    9.6490    2.8108  -13.7776 C   0  0  1  0  0  0  0  0  0  0  0  0
    9.6716    6.1981   -8.0224 C   0  0  2  0  0  0  0  0  0  0  0  0
    8.5511    2.5400  -13.1402 C   0  0  0  0  0  0  0  0  0  0  0  0
    9.7877    2.0302  -15.0383 O   0  0  0  0  0  0  0  0  0  0  0  0
   10.2949    6.3957   -6.8142 C   0  0  0  0  0  0  0  0  0  0  0  0
   11.5672    7.6277   -5.2275 C   0  0  0  0  0  0  0  0  0  0  0  0
    9.9257    8.9082   -6.5228 C   0  0  0  0  0  0  0  0  0  0  0  0
    8.7436    3.1868   -9.1768 O   0  0  0  0  0  0  0  0  0  0  0  0
    9.2453    4.8876   -8.0562 C   0  0  0  0  0  0  0  0  0  0  0  0
   11.6951    6.3147   -4.7202 C   0  0  0  0  0  0  0  0  0  0  0  0
   12.0146    8.7257   -4.5097 C   0  0  0  0  0  0  0  0  0  0  0  0
   12.6485    8.6762   -3.2458 C   0  0  0  0  0  0  0  0  0  0  0  0
   12.3616    6.2784   -3.3548 C   0  0  0  0  0  0  0  0  0  0  0  0
   12.7540    7.4414   -2.6804 C   0  0  0  0  0  0  0  0  0  0  0  0
  1  2  1  0  0  0  0
  2  3  1  0  0  0  0
  2  7  2  0  0  0  0
  4  3  1  6  0  0  0
  4  5  1  0  0  0  0
  4  6  1  0  0  0  0
  4  8  1  0  0  0  0
  5  9  2  0  0  0  0
  6 13  1  0  0  0  0
  7 12  1  0  0  0  0
  8 19  2  0  0  0  0
 10  7  1  1  0  0  0
 10 14  1  0  0  0  0
 10 17  1  0  0  0  0
 11  8  1  1  0  0  0
 11 20  1  0  0  0  0
 11 24  1  0  0  0  0
 12 18  1  0  0  0  0
 13 16  2  0  0  0  0
 13 21  1  0  0  0  0
 14  5  1  1  0  0  0
 14 15  1  0  0  0  0
 14 20  1  0  0  0  0
 15 26  1  0  0  0  0
 17 18  1  1  0  0  0
 17 23  1  0  0  0  0
 19 21  1  0  0  0  0
 19 27  1  0  0  0  0
 20 23  1  0  0  0  0
 21 22  2  0  0  0  0
 22 25  1  0  0  0  0
 23 28  1  0  0  0  0
 24 33  2  0  0  0  0
 24 34  1  0  0  0  0
 25 30  1  0  0  0  0
 25 31  1  0  0  0  0
 25 32  1  0  0  0  0
 26 28  1  0  0  0  0
 26 29  1  0  0  0  0
 27 30  1  0  0  0  0
 27 34  1  0  0  0  0
 31 35  1  0  0  0  0
 31 36  2  0  0  0  0
 35 38  2  0  0  0  0
 36 37  1  0  0  0  0
 37 39  2  0  0  0  0
 38 39  1  0  0  0  0
M  END
$$$$

 OpenBabel10082411353D

 26 29  0  0  0  0  0  0  0  0999 V2000
   10.9951    9.9694   -4.9946 C   0  0  0  0  0  0  0  0  0  0  0  0
   11.7938    9.3762   -4.2463 C   0  0  0  0  0  0  0  0  0  0  0  0
   10.8673    9.4548   -6.4276 C   0  0  0  0  0  0  0  0  0  0  0  0
   11.6576    7.9117   -4.2944 C   0  0  0  0  0  0  0  0  0  0  0  0
   10.5498    8.0257   -6.4521 C   0  0  0  0  0  0  0  0  0  0  0  0
   11.4715    7.2752   -5.6166 C   0  0  0  0  0  0  0  0  0  0  0  0
   10.5840    7.5390   -7.9254 C   0  0  0  0  0  0  0  0  0  0  0  0
   11.4612    8.1494   -8.8322 C   0  0  0  0  0  0  0  0  0  0  0  0
   12.6250    8.6294   -8.4338 O   0  0  0  0  0  0  0  0  0  0  0  0
   11.0835    8.4395  -10.0740 O   0  0  0  0  0  0  0  0  0  0  0  0
   11.2938    7.5612  -11.0769 C   0  0  1  0  0  0  0  0  0  0  0  0
   10.1547    7.2525  -11.9492 C   0  0  0  0  0  0  0  0  0  0  0  0
   10.4293    6.5622  -13.1348 C   0  0  0  0  0  0  0  0  0  0  0  0
   11.7295    6.4217  -13.6243 C   0  0  0  0  0  0  0  0  0  0  0  0
    8.7944    7.5590  -11.6123 C   0  0  1  0  0  0  0  0  0  0  0  0
   12.5537    7.8766  -11.6623 C   0  0  0  0  0  0  0  0  0  0  0  0
    8.3227    8.8234  -11.9576 C   0  0  0  0  0  0  0  0  0  0  0  0
    7.8789    6.3689  -11.9729 C   0  0  0  0  0  0  0  0  0  0  0  0
   12.7850    7.2972  -12.9839 C   0  0  0  0  0  0  0  0  0  0  0  0
   12.0731    5.5969  -14.4476 C   0  0  0  0  0  0  0  0  0  0  0  0
    8.3335    5.6916  -12.9896 C   0  0  0  0  0  0  0  0  0  0  0  0
    9.5114    5.7175  -13.6947 C   0  0  0  0  0  0  0  0  0  0  0  0
    9.8344    4.7918  -14.6333 C   0  0  0  0  0  0  0  0  0  0  0  0
    7.1901    5.0550  -13.5209 O   0  0  0  0  0  0  0  0  0  0  0  0
   11.0981    4.7573  -15.1076 C   0  0  2  0  0  0  0  0  0  0  0  0
   11.4529    3.9735  -16.1362 O   0  0  0  0  0  0  0  0  0  0  0  0
  1  2  1  0  0  0  0
  1  3  1  0  0  0  0
  2  4  1  0  0  0  0
  3  5  1  0  0  0  0
  4  6  1  0  0  0  0
  5  6  1  0  0  0  0
  5  7  1  0  0  0  0
  7  8  1  0  0  0  0
  8  9  2  0  0  0  0
  8 10  1  0  0  0  0
 11 10  1  6  0  0  0
 11 12  1  0  0  0  0
 11 16  1  0  0  0  0
 12 13  2  0  0  0  0
 12 15  1  0  0  0  0
 13 14  1  0  0  0  0
 13 22  1  0  0  0  0
 14 19  1  0  0  0  0
 14 20  2  0  0  0  0
 15 17  1  6  0  0  0
 15 18  1  0  0  0  0
 16 19  1  0  0  0  0
 18 21  1  0  0  0  0
 20 25  1  0  0  0  0
 21 22  1  0  0  0  0
 21 24  2  0  0  0  0
 22 23  2  0  0  0  0
 23 25  1  0  0  0  0
 25 26  1  1  0  0  0
M  END
$$$$

 OpenBabel10082411353D

 39 43  0  0  0  0  0  0  0  0999 V2000
   11.6836    6.0105   -4.8831 F   0  0  0  0  0  0  0  0  0  0  0  0
   11.2562    7.2206   -5.0294 C   0  0  0  0  0  0  0  0  0  0  0  0
   12.0125    8.2418   -4.4408 C   0  0  0  0  0  0  0  0  0  0  0  0
   11.1918    7.2706   -6.5237 C   0  0  0  0  0  0  0  0  0  0  0  0
   11.6999    8.4488   -3.1704 F   0  0  0  0  0  0  0  0  0  0  0  0
    9.8648    7.0908   -4.5314 F   0  0  0  0  0  0  0  0  0  0  0  0
   11.6831    8.5291   -6.9682 C   0  0  0  0  0  0  0  0  0  0  0  0
   10.4785    6.5189   -7.4033 C   0  0  0  0  0  0  0  0  0  0  0  0
   11.6979    8.6661   -8.4760 C   0  0  0  0  0  0  0  0  0  0  0  0
   11.6248    9.5853   -5.0030 C   0  0  0  0  0  0  0  0  0  0  0  0
   11.8604    9.7907   -6.2903 O   0  0  0  0  0  0  0  0  0  0  0  0
   13.3557    8.1748   -4.5947 F   0  0  0  0  0  0  0  0  0  0  0  0
   10.5427    6.6061   -8.7190 C   0  0  0  0  0  0  0  0  0  0  0  0
   11.1158    7.7103   -9.2540 C   0  0  0  0  0  0  0  0  0  0  0  0
   11.3757    7.6656  -10.5293 N   0  0  0  0  0  0  0  0  0  0  0  0
   10.7153    7.7096  -11.5405 C   0  0  0  0  0  0  0  0  0  0  0  0
   11.2483    7.4711  -12.8542 C   0  0  0  0  0  0  0  0  0  0  0  0
    9.3980    7.7820  -11.5398 C   0  0  0  0  0  0  0  0  0  0  0  0
    8.6055    7.5889  -12.6525 C   0  0  0  0  0  0  0  0  0  0  0  0
   12.7508    7.3705  -13.0162 O   0  0  0  0  0  0  0  0  0  0  0  0
   10.5299    7.1831  -13.9856 C   0  0  0  0  0  0  0  0  0  0  0  0
    7.0533    7.7371  -12.5396 C   0  0  0  0  0  0  0  0  0  0  0  0
   11.2041    6.8490  -15.2304 C   0  0  0  0  0  0  0  0  0  0  0  0
   11.6393    5.5333  -15.3864 C   0  0  0  0  0  0  0  0  0  0  0  0
    9.1955    7.2935  -13.8301 C   0  0  0  0  0  0  0  0  0  0  0  0
   12.5294    5.1116  -16.1609 C   0  0  0  0  0  0  0  0  0  0  0  0
   11.2315    4.4703  -14.3200 C   0  0  0  0  0  0  0  0  0  0  0  0
   10.2844    4.5821  -13.3000 C   0  0  0  0  0  0  0  0  0  0  0  0
   11.6270    3.1866  -14.6052 C   0  0  0  0  0  0  0  0  0  0  0  0
    9.0868    3.8289  -13.3080 C   0  0  0  0  0  0  0  0  0  0  0  0
    8.1007    4.0948  -12.4103 C   0  0  0  0  0  0  0  0  0  0  0  0
    6.8410    3.6347  -12.6829 C   0  0  0  0  0  0  0  0  0  0  0  0
   12.9624    6.1826  -17.2150 C   0  0  0  0  0  0  0  0  0  0  0  0
   11.1536    2.1160  -13.7692 F   0  0  0  0  0  0  0  0  0  0  0  0
   12.3467    2.9855  -15.4534 C   0  0  0  0  0  0  0  0  0  0  0  0
    6.6627    2.6322  -13.6665 C   0  0  0  0  0  0  0  0  0  0  0  0
    8.8985    2.8773  -14.2673 C   0  0  0  0  0  0  0  0  0  0  0  0
   12.8094    3.8527  -16.3624 C   0  0  0  0  0  0  0  0  0  0  0  0
    7.6804    2.2843  -14.4220 C   0  0  0  0  0  0  0  0  0  0  0  0
  1  2  1  0  0  0  0
  2  3  1  0  0  0  0
  2  4  1  0  0  0  0
  2  6  1  0  0  0  0
  3  5  1  0  0  0  0
  3 10  1  0  0  0  0
  3 12  1  0  0  0  0
  4  7  1  0  0  0  0
  4  8  2  0  0  0  0
  7  9  2  0  0  0  0
  7 11  1  0  0  0  0
  8 13  1  0  0  0  0
  9 14  1  0  0  0  0
 10 11  1  0  0  0  0
 13 14  2  0  0  0  0
 14 15  1  0  0  0  0
 15 16  1  0  0  0  0
 16 17  1  0  0  0  0
 16 18  2  0  0  0  0
 17 20  1  0  0  0  0
 17 21  2  0  0  0  0
 18 19  1  0  0  0  0
 19 22  1  0  0  0  0
 19 25  2  0  0  0  0
 21 23  1  0  0  0  0
 21 25  1  0  0  0  0
 23 24  1  0  0  0  0
 24 26  2  0  0  0  0
 24 27  1  0  0  0  0
 26 33  1  0  0  0  0
 26 38  1  0  0  0  0
 27 28  1  0  0  0  0
 27 29  2  0  0  0  0
 28 30  2  3  0  0  0
 29 34  1  0  0  0  0
 29 35  1  0  0  0  0
 30 31  1  0  0  0  0
 30 37  1  0  0  0  0
 31 32  2  0  0  0  0
 32 36  1  0  0  0  0
 35 38  2  0  0  0  0
 36 39  2  0  0  0  0
 37 39  2  0  0  0  0
M  END
$$$$

 OpenBabel10082411353D

 39 44  0  0  0  0  0  0  0  0999 V2000
   11.6836    6.0105   -4.8831 C   0  0  0  0  0  0  0  0  0  0  0  0
   11.1291    7.0732   -5.4395 C   0  0  0  0  0  0  0  0  0  0  0  0
   10.6954    7.0156   -6.8073 C   0  0  0  0  0  0  0  0  0  0  0  0
   10.2502    8.1187   -7.5536 C   0  0  2  0  0  0  0  0  0  0  0  0
   11.1205    8.4712   -4.9629 C   0  0  0  0  0  0  0  0  0  0  0  0
   10.8655    8.3511   -8.7960 C   0  0  0  0  0  0  0  0  0  0  0  0
   10.2922    7.8843   -9.9985 C   0  0  0  0  0  0  0  0  0  0  0  0
   10.4654    9.6993   -5.6120 C   0  0  0  0  0  0  0  0  0  0  0  0
   10.3510    9.5971   -7.0014 C   0  0  0  0  0  0  0  0  0  0  0  0
   12.2462    6.3351   -3.5020 C   0  0  0  0  0  0  0  0  0  0  0  0
   11.0471    7.5309  -11.1063 C   0  0  0  0  0  0  0  0  0  0  0  0
   11.7288    8.6923   -3.6518 C   0  0  0  0  0  0  0  0  0  0  0  0
   12.3991    7.7501  -11.1145 C   0  0  0  0  0  0  0  0  0  0  0  0
   12.3738    7.7580   -2.9599 C   0  0  0  0  0  0  0  0  0  0  0  0
   13.1285    8.5075  -10.1661 O   0  0  0  0  0  0  0  0  0  0  0  0
    9.0407    7.3775  -10.0973 N   0  0  0  0  0  0  0  0  0  0  0  0
    8.9787    6.9473  -11.4664 N   0  0  0  0  0  0  0  0  0  0  0  0
   13.1012    7.4459  -12.3707 C   0  0  0  0  0  0  0  0  0  0  0  0
   12.2395    6.9724  -13.2444 C   0  0  0  0  0  0  0  0  0  0  0  0
   10.2768    7.0170  -11.9799 C   0  0  0  0  0  0  0  0  0  0  0  0
   12.9237    6.5822  -14.5759 O   0  0  0  0  0  0  0  0  0  0  0  0
   10.8906    6.6526  -13.2252 C   0  0  0  0  0  0  0  0  0  0  0  0
   12.2396    6.1290  -15.6916 C   0  0  0  0  0  0  0  0  0  0  0  0
    7.8036    6.1825  -11.9342 C   0  0  0  0  0  0  0  0  0  0  0  0
   12.5015    4.7115  -15.7686 C   0  0  0  0  0  0  0  0  0  0  0  0
    7.1685    6.9992  -12.8245 C   0  0  0  0  0  0  0  0  0  0  0  0
   11.2461    3.8540  -15.4851 C   0  0  0  0  0  0  0  0  0  0  0  0
    7.6237    4.9154  -11.6529 C   0  0  0  0  0  0  0  0  0  0  0  0
    6.6378    4.1960  -12.2267 C   0  0  0  0  0  0  0  0  0  0  0  0
    6.2717    2.7675  -11.9743 C   0  0  0  0  0  0  0  0  0  0  0  0
    6.6569    1.8873  -12.9460 C   0  0  2  0  0  0  0  0  0  0  0  0
    6.2393    0.5737  -12.7991 C   0  0  0  0  0  0  0  0  0  0  0  0
    5.7332    5.0094  -13.0098 C   0  0  0  0  0  0  0  0  0  0  0  0
   11.4513    2.5769  -15.3310 O   0  0  0  0  0  0  0  0  0  0  0  0
    5.8943    6.2717  -13.4084 C   0  0  0  0  0  0  0  0  0  0  0  0
   10.1835    4.4428  -14.8841 O   0  0  0  0  0  0  0  0  0  0  0  0
    8.0814    1.7611  -13.1181 O   0  0  0  0  0  0  0  0  0  0  0  0
    8.9507    3.9209  -14.9705 C   0  0  0  0  0  0  0  0  0  0  0  0
    8.6653    2.5747  -14.2835 C   0  0  0  0  0  0  0  0  0  0  0  0
  1  2  1  0  0  0  0
  1 10  2  0  0  0  0
  2  3  1  0  0  0  0
  2  5  2  0  0  0  0
  3  4  1  0  0  0  0
  4  6  1  6  0  0  0
  4  9  1  0  0  0  0
  5  8  1  0  0  0  0
  5 12  1  0  0  0  0
  6  7  1  0  0  0  0
  7 11  1  0  0  0  0
  7 16  2  0  0  0  0
  8  9  1  0  0  0  0
 10 14  1  0  0  0  0
 11 13  2  0  0  0  0
 11 20  1  0  0  0  0
 12 14  2  0  0  0  0
 13 15  1  0  0  0  0
 13 18  1  0  0  0  0
 16 17  1  0  0  0  0
 17 20  1  0  0  0  0
 17 24  1  0  0  0  0
 18 19  2  0  0  0  0
 19 21  1  0  0  0  0
 19 22  1  0  0  0  0
 20 22  2  0  0  0  0
 21 23  1  0  0  0  0
 23 25  1  0  0  0  0
 24 26  2  0  0  0  0
 24 28  1  0  0  0  0
 25 27  1  0  0  0  0
 26 35  1  0  0  0  0
 27 34  2  0  0  0  0
 27 36  1  0  0  0  0
 28 29  2  0  0  0  0
 29 30  1  0  0  0  0
 29 33  1  0  0  0  0
 30 31  1  0  0  0  0
 31 32  1  1  0  0  0
 31 37  1  0  0  0  0
 33 35  2  0  0  0  0
 36 38  1  0  0  0  0
 37 39  1  0  0  0  0
 38 39  1  0  0  0  0
M  END
$$$$

 OpenBabel10082411353D

 39 46  0  0  0  0  0  0  0  0999 V2000
   12.7863    7.8241  -14.2109 C   0  0  0  0  0  0  0  0  0  0  0  0
   12.4233    7.7158  -13.0289 C   0  0  0  0  0  0  0  0  0  0  0  0
   11.3194    6.8571  -12.8028 C   0  0  0  0  0  0  0  0  0  0  0  0
   12.3150    7.2021  -15.3582 C   0  0  0  0  0  0  0  0  0  0  0  0
   11.2733    6.2739  -15.1502 C   0  0  0  0  0  0  0  0  0  0  0  0
   10.8099    6.0126  -13.8600 C   0  0  0  0  0  0  0  0  0  0  0  0
    9.6782    5.1428  -13.6488 C   0  0  0  0  0  0  0  0  0  0  0  0
    8.5753    5.3880  -12.9589 N   0  0  0  0  0  0  0  0  0  0  0  0
    8.3226    6.7011  -12.3862 C   0  0  0  0  0  0  0  0  0  0  0  0
    9.8502    3.8578  -14.0728 C   0  0  0  0  0  0  0  0  0  0  0  0
    7.3864    7.4720  -13.0530 C   0  0  0  0  0  0  0  0  0  0  0  0
    6.2412    7.8486  -12.2599 C   0  0  0  0  0  0  0  0  0  0  0  0
    7.6425    4.4186  -12.7943 C   0  0  0  0  0  0  0  0  0  0  0  0
   11.0297    3.2482  -14.8053 C   0  0  0  0  0  0  0  0  0  0  0  0
    8.6802    2.8955  -13.7960 C   0  0  0  0  0  0  0  0  0  0  0  0
    8.8565    1.5917  -14.3582 O   0  0  0  0  0  0  0  0  0  0  0  0
    7.6903    3.2226  -13.1994 N   0  0  0  0  0  0  0  0  0  0  0  0
    6.5724    2.3444  -12.8378 C   0  0  0  0  0  0  0  0  0  0  0  0
    9.0225    7.0353  -11.3259 C   0  0  0  0  0  0  0  0  0  0  0  0
    6.2405    4.8489  -12.4515 C   0  0  0  0  0  0  0  0  0  0  0  0
   10.5875    7.0617  -11.5321 C   0  0  0  0  0  0  0  0  0  0  0  0
   11.0960    7.6093  -10.4100 C   0  0  0  0  0  0  0  0  0  0  0  0
    8.4039    7.3336  -10.1102 C   0  0  0  0  0  0  0  0  0  0  0  0
    5.5911    3.3517  -12.3508 C   0  0  0  0  0  0  0  0  0  0  0  0
   12.6259    7.6530  -10.3901 C   0  0  0  0  0  0  0  0  0  0  0  0
   10.4284    7.7784   -9.2128 C   0  0  1  0  0  0  0  0  0  0  0  0
    9.2236    7.5051   -9.0617 C   0  0  2  0  0  0  0  0  0  0  0  0
    8.7145    7.3063   -7.7135 N   0  0  0  0  0  0  0  0  0  0  0  0
   11.0621    7.5242   -7.8430 C   0  0  2  0  0  0  0  0  0  0  0  0
   12.0213    8.4787   -7.3268 C   0  0  0  0  0  0  0  0  0  0  0  0
   13.1241    8.0749  -11.7293 C   0  0  0  0  0  0  0  0  0  0  0  0
   12.0504    9.6950   -7.9009 O   0  0  0  0  0  0  0  0  0  0  0  0
   11.5774    6.1709   -7.7149 C   0  0  0  0  0  0  0  0  0  0  0  0
   12.4092    8.5793   -6.0108 N   0  0  0  0  0  0  0  0  0  0  0  0
    9.7740    7.4525   -7.0369 C   0  0  2  0  0  0  0  0  0  0  0  0
   13.1999    9.6456   -5.4855 C   0  0  0  0  0  0  0  0  0  0  0  0
   12.4273    7.5356   -5.1801 C   0  0  0  0  0  0  0  0  0  0  0  0
   11.1901    7.0577   -4.7307 C   0  0  0  0  0  0  0  0  0  0  0  0
    9.6691    7.2045   -5.6319 C   0  0  0  0  0  0  0  0  0  0  0  0
  1  2  2  0  0  0  0
  1  4  1  0  0  0  0
  2  3  1  0  0  0  0
  2 31  1  0  0  0  0
  3  6  2  0  0  0  0
  3 21  1  0  0  0  0
  4  5  2  0  0  0  0
  5  6  1  0  0  0  0
  6  7  1  0  0  0  0
  7  8  1  0  0  0  0
  7 10  2  0  0  0  0
  8  9  1  0  0  0  0
  8 13  1  0  0  0  0
  9 11  1  0  0  0  0
  9 19  2  0  0  0  0
 10 14  1  0  0  0  0
 10 15  1  0  0  0  0
 11 12  1  0  0  0  0
 13 17  1  0  0  0  0
 13 20  2  0  0  0  0
 15 16  2  0  0  0  0
 15 17  1  0  0  0  0
 17 18  1  0  0  0  0
 18 24  1  0  0  0  0
 19 21  1  0  0  0  0
 19 23  1  0  0  0  0
 20 24  1  0  0  0  0
 21 22  2  0  0  0  0
 22 25  1  0  0  0  0
 25 31  2  0  0  0  0
 26 22  1  6  0  0  0
 26 27  1  0  0  0  0
 26 29  1  0  0  0  0
 27 23  1  6  0  0  0
 27 28  1  0  0  0  0
 28 35  1  0  0  0  0
 29 30  1  0  0  0  0
 29 33  1  6  0  0  0
 29 35  1  0  0  0  0
 30 32  2  0  0  0  0
 30 34  1  0  0  0  0
 34 36  1  0  0  0  0
 34 37  1  0  0  0  0
 35 39  1  1  0  0  0
 37 38  1  0  0  0  0
 38 39  2  0  0  0  0
M  END
$$$$

 OpenBabel10082411353D

 39 43  0  0  0  0  0  0  0  0999 V2000
   11.6836    6.0105   -4.8831 C   0  0  0  0  0  0  0  0  0  0  0  0
   11.1291    7.0732   -5.4395 C   0  0  0  0  0  0  0  0  0  0  0  0
   10.6954    7.0156   -6.8073 C   0  0  0  0  0  0  0  0  0  0  0  0
   10.2502    8.1187   -7.5536 C   0  0  2  0  0  0  0  0  0  0  0  0
   11.1205    8.4712   -4.9629 C   0  0  0  0  0  0  0  0  0  0  0  0
   10.8655    8.3511   -8.7960 C   0  0  0  0  0  0  0  0  0  0  0  0
   10.2922    7.8843   -9.9985 C   0  0  0  0  0  0  0  0  0  0  0  0
   10.4654    9.6993   -5.6120 C   0  0  0  0  0  0  0  0  0  0  0  0
   10.3510    9.5971   -7.0014 C   0  0  0  0  0  0  0  0  0  0  0  0
   12.2462    6.3351   -3.5020 C   0  0  0  0  0  0  0  0  0  0  0  0
   11.0471    7.5309  -11.1063 C   0  0  0  0  0  0  0  0  0  0  0  0
   11.7288    8.6923   -3.6518 C   0  0  0  0  0  0  0  0  0  0  0  0
   12.3991    7.7501  -11.1145 C   0  0  0  0  0  0  0  0  0  0  0  0
   12.3738    7.7580   -2.9599 C   0  0  0  0  0  0  0  0  0  0  0  0
   13.1285    8.5075  -10.1661 O   0  0  0  0  0  0  0  0  0  0  0  0
    9.0407    7.3775  -10.0973 N   0  0  0  0  0  0  0  0  0  0  0  0
    8.9787    6.9473  -11.4664 N   0  0  0  0  0  0  0  0  0  0  0  0
   13.1012    7.4459  -12.3707 C   0  0  0  0  0  0  0  0  0  0  0  0
   12.2395    6.9724  -13.2444 C   0  0  0  0  0  0  0  0  0  0  0  0
   10.2768    7.0170  -11.9799 C   0  0  0  0  0  0  0  0  0  0  0  0
   12.9237    6.5822  -14.5759 O   0  0  0  0  0  0  0  0  0  0  0  0
   10.8906    6.6526  -13.2252 C   0  0  0  0  0  0  0  0  0  0  0  0
   12.2396    6.1290  -15.6916 C   0  0  0  0  0  0  0  0  0  0  0  0
    7.8036    6.1825  -11.9342 C   0  0  0  0  0  0  0  0  0  0  0  0
   12.5015    4.7115  -15.7686 C   0  0  0  0  0  0  0  0  0  0  0  0
    7.1685    6.9992  -12.8245 C   0  0  0  0  0  0  0  0  0  0  0  0
   11.2461    3.8540  -15.4851 C   0  0  0  0  0  0  0  0  0  0  0  0
    7.6237    4.9154  -11.6529 C   0  0  0  0  0  0  0  0  0  0  0  0
    6.6378    4.1960  -12.2267 C   0  0  0  0  0  0  0  0  0  0  0  0
    6.2717    2.7675  -11.9743 C   0  0  0  0  0  0  0  0  0  0  0  0
    6.6569    1.8873  -12.9460 C   0  0  0  0  0  0  0  0  0  0  0  0
    7.3895    8.4597  -13.1785 C   0  0  0  0  0  0  0  0  0  0  0  0
    6.3114    0.5653  -12.7247 C   0  0  0  0  0  0  0  0  0  0  0  0
   11.3885    2.5830  -15.4863 O   0  0  0  0  0  0  0  0  0  0  0  0
    7.4815    2.1853  -14.0878 C   0  0  0  0  0  0  0  0  0  0  0  0
   10.0671    4.4249  -15.4648 O   0  0  0  0  0  0  0  0  0  0  0  0
    6.9068   -0.3393  -13.8429 C   0  0  0  0  0  0  0  0  0  0  0  0
    7.6706    0.0199  -14.8276 C   0  0  0  0  0  0  0  0  0  0  0  0
    8.0611    1.4478  -14.9359 C   0  0  0  0  0  0  0  0  0  0  0  0
  1  2  1  0  0  0  0
  1 10  2  0  0  0  0
  2  3  1  0  0  0  0
  2  5  2  0  0  0  0
  3  4  1  0  0  0  0
  4  6  1  6  0  0  0
  4  9  1  0  0  0  0
  5  8  1  0  0  0  0
  5 12  1  0  0  0  0
  6  7  1  0  0  0  0
  7 11  1  0  0  0  0
  7 16  2  0  0  0  0
  8  9  1  0  0  0  0
 10 14  1  0  0  0  0
 11 13  2  0  0  0  0
 11 20  1  0  0  0  0
 12 14  2  0  0  0  0
 13 15  1  0  0  0  0
 13 18  1  0  0  0  0
 16 17  1  0  0  0  0
 17 20  1  0  0  0  0
 17 24  1  0  0  0  0
 18 19  2  0  0  0  0
 19 21  1  0  0  0  0
 19 22  1  0  0  0  0
 20 22  2  0  0  0  0
 21 23  1  0  0  0  0
 23 25  1  0  0  0  0
 24 26  2  3  0  0  0
 24 28  1  0  0  0  0
 25 27  1  0  0  0  0
 26 32  1  0  0  0  0
 27 34  2  0  0  0  0
 27 36  1  0  0  0  0
 28 29  2  3  0  0  0
 29 30  1  0  0  0  0
 30 31  1  0  0  0  0
 31 33  2  0  0  0  0
 31 35  1  0  0  0  0
 33 37  1  0  0  0  0
 35 39  2  0  0  0  0
 37 38  2  0  0  0  0
 38 39  1  0  0  0  0
M  END
$$$$

 OpenBabel10082411353D

 39 46  0  0  0  0  0  0  0  0999 V2000
   12.7863    7.8241  -14.2109 C   0  0  0  0  0  0  0  0  0  0  0  0
   12.4233    7.7158  -13.0289 C   0  0  0  0  0  0  0  0  0  0  0  0
   11.3194    6.8571  -12.8028 C   0  0  0  0  0  0  0  0  0  0  0  0
   12.3150    7.2021  -15.3582 C   0  0  0  0  0  0  0  0  0  0  0  0
   11.2733    6.2739  -15.1502 C   0  0  0  0  0  0  0  0  0  0  0  0
   10.8099    6.0126  -13.8600 C   0  0  0  0  0  0  0  0  0  0  0  0
    9.6782    5.1428  -13.6488 C   0  0  0  0  0  0  0  0  0  0  0  0
    8.5753    5.3880  -12.9589 N   0  0  0  0  0  0  0  0  0  0  0  0
    8.3226    6.7011  -12.3862 C   0  0  0  0  0  0  0  0  0  0  0  0
    9.8502    3.8578  -14.0728 C   0  0  0  0  0  0  0  0  0  0  0  0
    7.3864    7.4720  -13.0530 C   0  0  0  0  0  0  0  0  0  0  0  0
    6.2412    7.8486  -12.2599 C   0  0  0  0  0  0  0  0  0  0  0  0
    7.6425    4.4186  -12.7943 C   0  0  0  0  0  0  0  0  0  0  0  0
   11.0297    3.2482  -14.8053 C   0  0  0  0  0  0  0  0  0  0  0  0
    8.6802    2.8955  -13.7960 C   0  0  0  0  0  0  0  0  0  0  0  0
    8.8565    1.5917  -14.3582 O   0  0  0  0  0  0  0  0  0  0  0  0
    7.6903    3.2226  -13.1994 N   0  0  0  0  0  0  0  0  0  0  0  0
    6.5724    2.3444  -12.8378 C   0  0  0  0  0  0  0  0  0  0  0  0
    9.0225    7.0353  -11.3259 C   0  0  0  0  0  0  0  0  0  0  0  0
    6.2405    4.8489  -12.4515 C   0  0  0  0  0  0  0  0  0  0  0  0
   10.5875    7.0617  -11.5321 C   0  0  0  0  0  0  0  0  0  0  0  0
   11.0960    7.6093  -10.4100 C   0  0  0  0  0  0  0  0  0  0  0  0
    8.4039    7.3336  -10.1102 C   0  0  0  0  0  0  0  0  0  0  0  0
    5.5911    3.3517  -12.3508 C   0  0  0  0  0  0  0  0  0  0  0  0
   12.6259    7.6530  -10.3901 C   0  0  0  0  0  0  0  0  0  0  0  0
   10.4284    7.7784   -9.2128 C   0  0  1  0  0  0  0  0  0  0  0  0
    9.2236    7.5051   -9.0617 C   0  0  2  0  0  0  0  0  0  0  0  0
    8.7145    7.3063   -7.7135 N   0  0  0  0  0  0  0  0  0  0  0  0
   11.0621    7.5242   -7.8430 C   0  0  2  0  0  0  0  0  0  0  0  0
   12.0213    8.4787   -7.3268 C   0  0  0  0  0  0  0  0  0  0  0  0
   13.1241    8.0749  -11.7293 C   0  0  0  0  0  0  0  0  0  0  0  0
   12.0504    9.6950   -7.9009 O   0  0  0  0  0  0  0  0  0  0  0  0
   11.5774    6.1709   -7.7149 C   0  0  0  0  0  0  0  0  0  0  0  0
   12.4092    8.5793   -6.0108 N   0  0  0  0  0  0  0  0  0  0  0  0
    9.7740    7.4525   -7.0369 C   0  0  0  0  0  0  0  0  0  0  0  0
   13.1999    9.6456   -5.4855 C   0  0  0  0  0  0  0  0  0  0  0  0
   12.4273    7.5356   -5.1801 C   0  0  0  0  0  0  0  0  0  0  0  0
   12.2696    7.9503   -3.7988 C   0  0  0  0  0  0  0  0  0  0  0  0
   12.9808    9.3441   -3.9971 C   0  0  0  0  0  0  0  0  0  0  0  0
  1  2  2  0  0  0  0
  1  4  1  0  0  0  0
  2  3  1  0  0  0  0
  2 31  1  0  0  0  0
  3  6  2  0  0  0  0
  3 21  1  0  0  0  0
  4  5  2  0  0  0  0
  5  6  1  0  0  0  0
  6  7  1  0  0  0  0
  7  8  1  0  0  0  0
  7 10  2  0  0  0  0
  8  9  1  0  0  0  0
  8 13  1  0  0  0  0
  9 11  1  0  0  0  0
  9 19  2  0  0  0  0
 10 14  1  0  0  0  0
 10 15  1  0  0  0  0
 11 12  1  0  0  0  0
 13 17  1  0  0  0  0
 13 20  2  0  0  0  0
 15 16  2  0  0  0  0
 15 17  1  0  0  0  0
 17 18  1  0  0  0  0
 18 24  1  0  0  0  0
 19 21  1  0  0  0  0
 19 23  1  0  0  0  0
 20 24  1  0  0  0  0
 21 22  2  0  0  0  0
 22 25  1  0  0  0  0
 25 31  2  0  0  0  0
 26 22  1  6  0  0  0
 26 27  1  0  0  0  0
 26 29  1  0  0  0  0
 27 23  1  6  0  0  0
 27 28  1  0  0  0  0
 28 35  1  0  0  0  0
 29 30  1  0  0  0  0
 29 33  1  6  0  0  0
 29 35  1  0  0  0  0
 30 32  2  0  0  0  0
 30 34  1  0  0  0  0
 34 36  1  0  0  0  0
 34 37  1  0  0  0  0
 36 39  1  0  0  0  0
 37 38  1  0  0  0  0
 38 39  1  0  0  0  0
M  END
$$$$

 OpenBabel10082411353D

 39 43  0  0  0  0  0  0  0  0999 V2000
   10.9951    9.9694   -4.9946 C   0  0  0  0  0  0  0  0  0  0  0  0
   11.7938    9.3762   -4.2463 C   0  0  0  0  0  0  0  0  0  0  0  0
   10.8673    9.4548   -6.4276 C   0  0  0  0  0  0  0  0  0  0  0  0
   11.6576    7.9117   -4.2944 C   0  0  0  0  0  0  0  0  0  0  0  0
   10.5498    8.0257   -6.4521 C   0  0  0  0  0  0  0  0  0  0  0  0
   11.4715    7.2752   -5.6166 C   0  0  0  0  0  0  0  0  0  0  0  0
   10.5840    7.5390   -7.9254 C   0  0  0  0  0  0  0  0  0  0  0  0
   11.4612    8.1494   -8.8322 C   0  0  0  0  0  0  0  0  0  0  0  0
   12.6250    8.6294   -8.4338 O   0  0  0  0  0  0  0  0  0  0  0  0
   11.0835    8.4395  -10.0740 O   0  0  0  0  0  0  0  0  0  0  0  0
   11.2938    7.5612  -11.0769 C   0  0  0  0  0  0  0  0  0  0  0  0
   10.1547    7.2525  -11.9492 C   0  0  0  0  0  0  0  0  0  0  0  0
   10.4293    6.5622  -13.1348 C   0  0  0  0  0  0  0  0  0  0  0  0
   11.7295    6.4217  -13.6243 C   0  0  0  0  0  0  0  0  0  0  0  0
    8.8120    7.3918  -11.4649 C   0  0  0  0  0  0  0  0  0  0  0  0
   12.5351    7.8894  -11.6869 C   0  0  0  0  0  0  0  0  0  0  0  0
   13.5778    8.4243  -10.9673 O   0  0  0  0  0  0  0  0  0  0  0  0
    7.7211    7.1761  -12.4323 C   0  0  0  0  0  0  0  0  0  0  0  0
   12.8103    7.0723  -12.8897 C   0  0  0  0  0  0  0  0  0  0  0  0
    7.0543    5.9667  -12.3369 C   0  0  0  0  0  0  0  0  0  0  0  0
    7.2392    8.1844  -13.1320 C   0  0  0  0  0  0  0  0  0  0  0  0
    6.6882    5.3848  -13.5016 O   0  0  0  0  0  0  0  0  0  0  0  0
    6.5103    5.5543  -11.3870 O   0  0  0  0  0  0  0  0  0  0  0  0
    7.4031    4.0506  -13.7852 C   0  0  0  0  0  0  0  0  0  0  0  0
    8.6811    3.9966  -14.1333 C   0  0  0  0  0  0  0  0  0  0  0  0
   12.0732    5.6649  -14.9357 C   0  0  0  0  0  0  0  0  0  0  0  0
    6.5842    3.0104  -13.4449 C   0  0  0  0  0  0  0  0  0  0  0  0
   12.1810    6.3505  -15.9550 C   0  0  0  0  0  0  0  0  0  0  0  0
   12.4265    5.3943  -17.1098 C   0  0  0  0  0  0  0  0  0  0  0  0
   12.0808    4.3115  -14.6805 C   0  0  0  0  0  0  0  0  0  0  0  0
    5.1772    3.2038  -12.9749 C   0  0  0  0  0  0  0  0  0  0  0  0
   11.7401    3.5786  -13.4028 C   0  0  0  0  0  0  0  0  0  0  0  0
    7.1932    1.7609  -13.6079 C   0  0  0  0  0  0  0  0  0  0  0  0
   12.3142    4.1658  -16.8475 C   0  0  0  0  0  0  0  0  0  0  0  0
    9.2052    2.7641  -14.3200 C   0  0  0  0  0  0  0  0  0  0  0  0
    8.4704    1.6543  -14.0145 C   0  0  0  0  0  0  0  0  0  0  0  0
   10.5807    2.5887  -14.7790 O   0  0  0  0  0  0  0  0  0  0  0  0
   12.1000    3.5537  -15.7617 C   0  0  0  0  0  0  0  0  0  0  0  0
   11.3202    2.5784  -13.5644 N   0  0  0  0  0  0  0  0  0  0  0  0
  1  2  1  0  0  0  0
  1  3  1  0  0  0  0
  2  4  1  0  0  0  0
  3  5  1  0  0  0  0
  4  6  1  0  0  0  0
  5  6  1  0  0  0  0
  5  7  1  0  0  0  0
  7  8  1  0  0  0  0
  8  9  2  0  0  0  0
  8 10  1  0  0  0  0
 10 11  1  0  0  0  0
 11 12  1  0  0  0  0
 11 16  2  0  0  0  0
 12 13  2  0  0  0  0
 12 15  1  0  0  0  0
 13 14  1  0  0  0  0
 14 19  2  0  0  0  0
 14 26  1  0  0  0  0
 15 18  1  0  0  0  0
 16 17  1  0  0  0  0
 16 19  1  0  0  0  0
 18 20  1  0  0  0  0
 18 21  2  0  0  0  0
 20 22  1  0  0  0  0
 20 23  2  0  0  0  0
 22 24  1  0  0  0  0
 24 25  1  0  0  0  0
 24 27  2  0  0  0  0
 25 35  2  0  0  0  0
 26 28  2  0  0  0  0
 26 30  1  0  0  0  0
 27 31  1  0  0  0  0
 27 33  1  0  0  0  0
 28 29  1  0  0  0  0
 29 34  2  0  0  0  0
 30 32  1  0  0  0  0
 30 38  2  0  0  0  0
 32 39  2  0  0  0  0
 33 36  2  0  0  0  0
 34 38  1  0  0  0  0
 35 36  1  0  0  0  0
 35 37  1  0  0  0  0
 37 39  1  0  0  0  0
M  END
$$$$

 OpenBabel10082411353D

 39 44  0  0  0  0  0  0  0  0999 V2000
   11.6836    6.0105   -4.8831 C   0  0  0  0  0  0  0  0  0  0  0  0
   11.1291    7.0732   -5.4395 C   0  0  0  0  0  0  0  0  0  0  0  0
   10.6954    7.0156   -6.8073 C   0  0  0  0  0  0  0  0  0  0  0  0
   10.2502    8.1187   -7.5536 C   0  0  2  0  0  0  0  0  0  0  0  0
   11.1205    8.4712   -4.9629 C   0  0  0  0  0  0  0  0  0  0  0  0
   10.8655    8.3511   -8.7960 C   0  0  0  0  0  0  0  0  0  0  0  0
   10.2922    7.8843   -9.9985 C   0  0  0  0  0  0  0  0  0  0  0  0
   10.4654    9.6993   -5.6120 C   0  0  0  0  0  0  0  0  0  0  0  0
   10.3510    9.5971   -7.0014 C   0  0  0  0  0  0  0  0  0  0  0  0
   12.2462    6.3351   -3.5020 C   0  0  0  0  0  0  0  0  0  0  0  0
   11.0471    7.5309  -11.1063 C   0  0  0  0  0  0  0  0  0  0  0  0
   11.7288    8.6923   -3.6518 C   0  0  0  0  0  0  0  0  0  0  0  0
   12.3991    7.7501  -11.1145 C   0  0  0  0  0  0  0  0  0  0  0  0
   12.3738    7.7580   -2.9599 C   0  0  0  0  0  0  0  0  0  0  0  0
   13.1285    8.5075  -10.1661 O   0  0  0  0  0  0  0  0  0  0  0  0
    9.0407    7.3775  -10.0973 N   0  0  0  0  0  0  0  0  0  0  0  0
    8.9787    6.9473  -11.4664 N   0  0  0  0  0  0  0  0  0  0  0  0
   13.1012    7.4459  -12.3707 C   0  0  0  0  0  0  0  0  0  0  0  0
   12.2395    6.9724  -13.2444 C   0  0  0  0  0  0  0  0  0  0  0  0
   10.2768    7.0170  -11.9799 C   0  0  0  0  0  0  0  0  0  0  0  0
   12.9237    6.5822  -14.5759 O   0  0  0  0  0  0  0  0  0  0  0  0
   10.8906    6.6526  -13.2252 C   0  0  0  0  0  0  0  0  0  0  0  0
   12.2396    6.1290  -15.6916 C   0  0  0  0  0  0  0  0  0  0  0  0
    7.8036    6.1825  -11.9342 C   0  0  0  0  0  0  0  0  0  0  0  0
   12.5015    4.7115  -15.7686 C   0  0  0  0  0  0  0  0  0  0  0  0
    7.1685    6.9992  -12.8245 C   0  0  0  0  0  0  0  0  0  0  0  0
   11.2461    3.8540  -15.4851 C   0  0  0  0  0  0  0  0  0  0  0  0
    7.6237    4.9154  -11.6529 C   0  0  0  0  0  0  0  0  0  0  0  0
    6.6378    4.1960  -12.2267 C   0  0  0  0  0  0  0  0  0  0  0  0
    6.2717    2.7675  -11.9743 C   0  0  0  0  0  0  0  0  0  0  0  0
    6.6569    1.8873  -12.9460 C   0  0  2  0  0  0  0  0  0  0  0  0
    6.2393    0.5737  -12.7991 C   0  0  0  0  0  0  0  0  0  0  0  0
    5.7332    5.0094  -13.0098 C   0  0  0  0  0  0  0  0  0  0  0  0
    8.0694    1.7452  -13.2422 O   0  0  0  0  0  0  0  0  0  0  0  0
   11.4731    2.5511  -15.3619 O   0  0  0  0  0  0  0  0  0  0  0  0
   10.4833    1.8178  -15.6764 C   0  0  0  0  0  0  0  0  0  0  0  0
    6.0263    6.2905  -13.3542 C   0  0  0  0  0  0  0  0  0  0  0  0
    8.4674    1.1629  -14.2506 C   0  0  0  0  0  0  0  0  0  0  0  0
    9.9277    1.4733  -14.5028 C   0  0  0  0  0  0  0  0  0  0  0  0
  1  2  1  0  0  0  0
  1 10  2  0  0  0  0
  2  3  1  0  0  0  0
  2  5  2  0  0  0  0
  3  4  1  0  0  0  0
  4  6  1  6  0  0  0
  4  9  1  0  0  0  0
  5  8  1  0  0  0  0
  5 12  1  0  0  0  0
  6  7  1  0  0  0  0
  7 11  1  0  0  0  0
  7 16  2  0  0  0  0
  8  9  1  0  0  0  0
 10 14  1  0  0  0  0
 11 13  2  0  0  0  0
 11 20  1  0  0  0  0
 12 14  2  0  0  0  0
 13 15  1  0  0  0  0
 13 18  1  0  0  0  0
 16 17  1  0  0  0  0
 17 20  1  0  0  0  0
 17 24  1  0  0  0  0
 18 19  2  0  0  0  0
 19 21  1  0  0  0  0
 19 22  1  0  0  0  0
 20 22  2  0  0  0  0
 21 23  1  0  0  0  0
 23 25  1  0  0  0  0
 24 26  2  0  0  0  0
 24 28  1  0  0  0  0
 25 27  1  0  0  0  0
 26 37  1  0  0  0  0
 27 35  1  0  0  0  0
 28 29  2  0  0  0  0
 29 30  1  0  0  0  0
 29 33  1  0  0  0  0
 30 31  1  0  0  0  0
 31 32  1  1  0  0  0
 31 34  1  0  0  0  0
 33 37  2  0  0  0  0
 34 38  1  0  0  0  0
 35 36  1  0  0  0  0
 36 39  1  0  0  0  0
 38 39  1  0  0  0  0
M  END
$$$$

 OpenBabel10082411353D

 39 46  0  0  0  0  0  0  0  0999 V2000
   12.7863    7.8241  -14.2109 C   0  0  0  0  0  0  0  0  0  0  0  0
   12.4233    7.7158  -13.0289 C   0  0  0  0  0  0  0  0  0  0  0  0
   11.3194    6.8571  -12.8028 C   0  0  0  0  0  0  0  0  0  0  0  0
   12.3150    7.2021  -15.3582 C   0  0  0  0  0  0  0  0  0  0  0  0
   11.2733    6.2739  -15.1502 C   0  0  0  0  0  0  0  0  0  0  0  0
   10.8099    6.0126  -13.8600 C   0  0  0  0  0  0  0  0  0  0  0  0
    9.6782    5.1428  -13.6488 C   0  0  0  0  0  0  0  0  0  0  0  0
    8.5753    5.3880  -12.9589 N   0  0  0  0  0  0  0  0  0  0  0  0
    8.3226    6.7011  -12.3862 C   0  0  0  0  0  0  0  0  0  0  0  0
    9.8502    3.8578  -14.0728 C   0  0  0  0  0  0  0  0  0  0  0  0
    7.3864    7.4720  -13.0530 C   0  0  0  0  0  0  0  0  0  0  0  0
    6.2412    7.8486  -12.2599 C   0  0  0  0  0  0  0  0  0  0  0  0
    7.6425    4.4186  -12.7943 C   0  0  0  0  0  0  0  0  0  0  0  0
   11.0297    3.2482  -14.8053 C   0  0  0  0  0  0  0  0  0  0  0  0
    8.6802    2.8955  -13.7960 C   0  0  0  0  0  0  0  0  0  0  0  0
    8.8565    1.5917  -14.3582 O   0  0  0  0  0  0  0  0  0  0  0  0
    7.6903    3.2226  -13.1994 N   0  0  0  0  0  0  0  0  0  0  0  0
    6.5724    2.3444  -12.8378 C   0  0  0  0  0  0  0  0  0  0  0  0
    9.0225    7.0353  -11.3259 C   0  0  0  0  0  0  0  0  0  0  0  0
    6.2405    4.8489  -12.4515 C   0  0  0  0  0  0  0  0  0  0  0  0
   10.5875    7.0617  -11.5321 C   0  0  0  0  0  0  0  0  0  0  0  0
   11.0960    7.6093  -10.4100 C   0  0  0  0  0  0  0  0  0  0  0  0
    8.4039    7.3336  -10.1102 C   0  0  0  0  0  0  0  0  0  0  0  0
    5.5911    3.3517  -12.3508 C   0  0  0  0  0  0  0  0  0  0  0  0
   12.6259    7.6530  -10.3901 C   0  0  0  0  0  0  0  0  0  0  0  0
   10.4284    7.7784   -9.2128 C   0  0  0  0  0  0  0  0  0  0  0  0
    9.2236    7.5051   -9.0617 C   0  0  2  0  0  0  0  0  0  0  0  0
    8.7145    7.3063   -7.7135 N   0  0  0  0  0  0  0  0  0  0  0  0
    9.3548    8.2125   -6.8305 C   0  0  0  0  0  0  0  0  0  0  0  0
   13.2400    8.3532   -9.3250 C   0  0  0  0  0  0  0  0  0  0  0  0
    8.8718    5.9168   -7.2228 C   0  0  0  0  0  0  0  0  0  0  0  0
   12.5074    8.3587   -8.0386 C   0  0  0  0  0  0  0  0  0  0  0  0
   11.1924    8.1932   -7.9474 C   0  0  0  0  0  0  0  0  0  0  0  0
   10.5178    8.6952   -6.8252 C   0  0  0  0  0  0  0  0  0  0  0  0
   11.2414    9.5732   -5.7893 C   0  0  2  0  0  0  0  0  0  0  0  0
   12.4652    9.1984   -5.1969 C   0  0  0  0  0  0  0  0  0  0  0  0
   10.4376    9.5889   -4.5308 C   0  0  0  0  0  0  0  0  0  0  0  0
   11.1718    9.0018   -3.5689 O   0  0  0  0  0  0  0  0  0  0  0  0
   12.2330    8.4120   -3.9649 C   0  0  0  0  0  0  0  0  0  0  0  0
  1  2  2  0  0  0  0
  1  4  1  0  0  0  0
  2  3  1  0  0  0  0
  3  6  2  0  0  0  0
  3 21  1  0  0  0  0
  4  5  2  0  0  0  0
  5  6  1  0  0  0  0
  6  7  1  0  0  0  0
  7  8  1  0  0  0  0
  7 10  2  0  0  0  0
  8  9  1  0  0  0  0
  8 13  1  0  0  0  0
  9 11  1  0  0  0  0
  9 19  2  0  0  0  0
 10 14  1  0  0  0  0
 10 15  1  0  0  0  0
 11 12  1  0  0  0  0
 13 17  1  0  0  0  0
 13 20  2  0  0  0  0
 15 16  2  0  0  0  0
 15 17  1  0  0  0  0
 17 18  1  0  0  0  0
 18 24  1  0  0  0  0
 19 21  1  0  0  0  0
 19 23  1  0  0  0  0
 20 24  1  0  0  0  0
 21 22  2  0  0  0  0
 22 25  1  0  0  0  0
 22 26  1  0  0  0  0
 25 30  1  0  0  0  0
 26 27  1  0  0  0  0
 26 33  2  0  0  0  0
 27 23  1  6  0  0  0
 27 28  1  0  0  0  0
 28 29  1  0  0  0  0
 28 31  1  0  0  0  0
 29 34  2  0  0  0  0
 30 32  1  0  0  0  0
 32 33  1  0  0  0  0
 33 34  1  0  0  0  0
 35 34  1  6  0  0  0
 35 36  1  0  0  0  0
 35 37  1  0  0  0  0
 36 39  1  0  0  0  0
 37 38  1  0  0  0  0
 38 39  1  0  0  0  0
M  END
$$$$

 OpenBabel10082411353D

 39 43  0  0  0  0  0  0  0  0999 V2000
   11.6836    6.0105   -4.8831 F   0  0  0  0  0  0  0  0  0  0  0  0
   11.2562    7.2206   -5.0294 C   0  0  0  0  0  0  0  0  0  0  0  0
   12.0125    8.2418   -4.4408 C   0  0  0  0  0  0  0  0  0  0  0  0
   11.1918    7.2706   -6.5237 C   0  0  0  0  0  0  0  0  0  0  0  0
   11.6999    8.4488   -3.1704 F   0  0  0  0  0  0  0  0  0  0  0  0
    9.8648    7.0908   -4.5314 F   0  0  0  0  0  0  0  0  0  0  0  0
   11.6831    8.5291   -6.9682 C   0  0  0  0  0  0  0  0  0  0  0  0
   10.4785    6.5189   -7.4033 C   0  0  0  0  0  0  0  0  0  0  0  0
   11.6979    8.6661   -8.4760 C   0  0  0  0  0  0  0  0  0  0  0  0
   11.6248    9.5853   -5.0030 C   0  0  0  0  0  0  0  0  0  0  0  0
   11.8604    9.7907   -6.2903 O   0  0  0  0  0  0  0  0  0  0  0  0
   13.3557    8.1748   -4.5947 F   0  0  0  0  0  0  0  0  0  0  0  0
   10.5427    6.6061   -8.7190 C   0  0  0  0  0  0  0  0  0  0  0  0
   11.1158    7.7103   -9.2540 C   0  0  0  0  0  0  0  0  0  0  0  0
   11.3757    7.6656  -10.5293 N   0  0  0  0  0  0  0  0  0  0  0  0
   10.7153    7.7096  -11.5405 C   0  0  0  0  0  0  0  0  0  0  0  0
   11.2483    7.4711  -12.8542 C   0  0  0  0  0  0  0  0  0  0  0  0
    9.3980    7.7820  -11.5398 C   0  0  0  0  0  0  0  0  0  0  0  0
    8.6055    7.5889  -12.6525 C   0  0  0  0  0  0  0  0  0  0  0  0
   12.7508    7.3705  -13.0162 O   0  0  0  0  0  0  0  0  0  0  0  0
   10.5299    7.1831  -13.9856 C   0  0  0  0  0  0  0  0  0  0  0  0
    7.0533    7.7371  -12.5396 C   0  0  0  0  0  0  0  0  0  0  0  0
   11.2041    6.8490  -15.2304 C   0  0  0  0  0  0  0  0  0  0  0  0
   11.6393    5.5333  -15.3864 C   0  0  0  0  0  0  0  0  0  0  0  0
    9.1955    7.2935  -13.8301 C   0  0  0  0  0  0  0  0  0  0  0  0
   12.5294    5.1116  -16.1609 C   0  0  0  0  0  0  0  0  0  0  0  0
   11.2315    4.4703  -14.3200 C   0  0  0  0  0  0  0  0  0  0  0  0
   13.0194    6.0876  -17.1697 C   0  0  0  0  0  0  0  0  0  0  0  0
   12.3991    7.3271  -17.2011 C   0  0  0  0  0  0  0  0  0  0  0  0
   11.6234    7.7212  -16.1065 C   0  0  0  0  0  0  0  0  0  0  0  0
    6.8111    8.8557  -12.1311 F   0  0  0  0  0  0  0  0  0  0  0  0
   10.0067    4.0539  -14.1822 C   0  0  0  0  0  0  0  0  0  0  0  0
    6.6026    6.8347  -11.5951 F   0  0  0  0  0  0  0  0  0  0  0  0
    9.7932    2.6838  -14.2236 C   0  0  0  0  0  0  0  0  0  0  0  0
    8.9172    4.7456  -13.9387 C   0  0  0  0  0  0  0  0  0  0  0  0
    8.6274    2.2762  -14.1460 C   0  0  0  0  0  0  0  0  0  0  0  0
    6.5410    7.4251  -13.7572 F   0  0  0  0  0  0  0  0  0  0  0  0
    8.3783    0.7419  -14.2298 F   0  0  0  0  0  0  0  0  0  0  0  0
    7.5791    3.8320  -13.7713 S   0  0  0  0  0  0  0  0  0  0  0  0
  1  2  1  0  0  0  0
  2  3  1  0  0  0  0
  2  4  1  0  0  0  0
  2  6  1  0  0  0  0
  3  5  1  0  0  0  0
  3 10  1  0  0  0  0
  3 12  1  0  0  0  0
  4  7  1  0  0  0  0
  4  8  2  0  0  0  0
  7  9  2  0  0  0  0
  7 11  1  0  0  0  0
  8 13  1  0  0  0  0
  9 14  1  0  0  0  0
 10 11  1  0  0  0  0
 13 14  2  0  0  0  0
 14 15  1  0  0  0  0
 15 16  1  0  0  0  0
 16 17  1  0  0  0  0
 16 18  2  0  0  0  0
 17 20  1  0  0  0  0
 17 21  2  0  0  0  0
 18 19  1  0  0  0  0
 19 22  1  0  0  0  0
 19 25  2  0  0  0  0
 21 23  1  0  0  0  0
 21 25  1  0  0  0  0
 22 31  1  0  0  0  0
 22 33  1  0  0  0  0
 22 37  1  0  0  0  0
 23 24  1  0  0  0  0
 23 30  2  0  0  0  0
 24 26  2  0  0  0  0
 24 27  1  0  0  0  0
 26 28  1  0  0  0  0
 27 32  1  0  0  0  0
 28 29  2  0  0  0  0
 29 30  1  0  0  0  0
 32 34  1  0  0  0  0
 32 35  2  0  0  0  0
 34 36  2  0  0  0  0
 35 39  1  0  0  0  0
 36 38  1  0  0  0  0
 36 39  1  0  0  0  0
M  END
$$$$

 OpenBabel10082411353D

 39 45  0  0  0  0  0  0  0  0999 V2000
   13.2379    9.0584   -7.2681 C   0  0  0  0  0  0  0  0  0  0  0  0
   12.9396    9.3022   -5.9810 C   0  0  0  0  0  0  0  0  0  0  0  0
   12.1602    8.6694   -7.9361 C   0  0  0  0  0  0  0  0  0  0  0  0
   14.0320    9.7504   -5.0711 F   0  0  0  0  0  0  0  0  0  0  0  0
   10.9536    8.4526   -7.1212 C   0  0  1  0  0  0  0  0  0  0  0  0
   12.1901    8.3365   -9.3972 C   0  0  0  0  0  0  0  0  0  0  0  0
   11.0443    7.8367  -10.0430 C   0  0  0  0  0  0  0  0  0  0  0  0
   11.0471    8.9348   -5.8250 C   0  0  1  0  0  0  0  0  0  0  0  0
    9.5270    7.9533   -7.4234 C   0  0  2  0  0  0  0  0  0  0  0  0
    9.7802    8.7666   -5.0086 F   0  0  0  0  0  0  0  0  0  0  0  0
   11.9790    9.3452   -5.1373 C   0  0  0  0  0  0  0  0  0  0  0  0
    9.1878    6.9159   -6.7141 C   0  0  0  0  0  0  0  0  0  0  0  0
   11.1576    7.5184  -11.4190 C   0  0  0  0  0  0  0  0  0  0  0  0
    9.8595    7.5543   -8.9986 C   0  0  1  0  0  0  0  0  0  0  0  0
    9.9779    6.9809  -11.9943 C   0  0  0  0  0  0  0  0  0  0  0  0
   10.1471    6.6534  -13.4127 C   0  0  0  0  0  0  0  0  0  0  0  0
   12.3591    7.4352  -12.0563 C   0  0  0  0  0  0  0  0  0  0  0  0
    8.5551    6.8980  -11.2951 C   0  0  1  0  0  0  0  0  0  0  0  0
   12.2421    7.1981  -13.3125 C   0  0  0  0  0  0  0  0  0  0  0  0
   11.2735    6.6870  -13.9872 C   0  0  0  0  0  0  0  0  0  0  0  0
    8.1020    6.3652   -7.0525 O   0  0  0  0  0  0  0  0  0  0  0  0
   11.5320    6.1869  -15.4842 C   0  0  0  0  0  0  0  0  0  0  0  0
   11.6397    4.8187  -15.5947 N   0  0  0  0  0  0  0  0  0  0  0  0
   11.7429    6.9569  -16.3970 O   0  0  0  0  0  0  0  0  0  0  0  0
   11.2928    3.8324  -14.5891 C   0  0  0  0  0  0  0  0  0  0  0  0
    7.5388    6.6719  -11.9871 C   0  0  0  0  0  0  0  0  0  0  0  0
   11.5537    4.1926  -16.9885 C   0  0  0  0  0  0  0  0  0  0  0  0
    6.8943    7.7297  -12.6293 C   0  0  0  0  0  0  0  0  0  0  0  0
   12.4886    3.1529  -17.0211 C   0  0  0  0  0  0  0  0  0  0  0  0
   10.6070    2.6673  -14.9825 C   0  0  0  0  0  0  0  0  0  0  0  0
    7.0671    5.3528  -12.1345 C   0  0  0  0  0  0  0  0  0  0  0  0
    8.8121    6.8590   -9.7791 C   0  0  0  0  0  0  0  0  0  0  0  0
    7.5818    4.1934  -11.6434 C   0  0  0  0  0  0  0  0  0  0  0  0
    7.1593    2.9956  -12.2994 C   0  0  0  0  0  0  0  0  0  0  0  0
   11.6206    2.0274  -16.1494 C   0  0  0  0  0  0  0  0  0  0  0  0
    6.0254    3.2500  -13.2202 C   0  0  0  0  0  0  0  0  0  0  0  0
    6.0950    5.4478  -13.1988 C   0  0  1  0  0  0  0  0  0  0  0  0
    5.5475    4.2788  -13.6577 C   0  0  0  0  0  0  0  0  0  0  0  0
    5.8186    6.8802  -13.3667 C   0  0  0  0  0  0  0  0  0  0  0  0
  1  2  1  0  0  0  0
  1  3  2  0  0  0  0
  2  4  1  0  0  0  0
  2 11  2  0  0  0  0
  3  6  1  0  0  0  0
  5  3  1  6  0  0  0
  5  8  1  0  0  0  0
  5  9  1  0  0  0  0
  6  7  2  0  0  0  0
  7 13  1  0  0  0  0
  7 14  1  0  0  0  0
  8 10  1  1  0  0  0
  8 11  1  0  0  0  0
  9 12  1  1  0  0  0
  9 14  1  0  0  0  0
 12 21  1  0  0  0  0
 13 15  2  0  0  0  0
 13 17  1  0  0  0  0
 14 32  1  6  0  0  0
 15 16  1  0  0  0  0
 15 18  1  0  0  0  0
 16 20  2  0  0  0  0
 17 19  2  0  0  0  0
 18 26  1  6  0  0  0
 18 32  1  0  0  0  0
 19 20  1  0  0  0  0
 20 22  1  0  0  0  0
 22 23  1  0  0  0  0
 22 24  2  0  0  0  0
 23 25  1  0  0  0  0
 23 27  1  0  0  0  0
 25 30  1  0  0  0  0
 26 28  1  0  0  0  0
 26 31  2  0  0  0  0
 27 29  1  0  0  0  0
 28 39  1  0  0  0  0
 29 35  1  0  0  0  0
 30 35  1  0  0  0  0
 31 33  1  0  0  0  0
 31 37  1  0  0  0  0
 33 34  2  0  0  0  0
 34 36  1  0  0  0  0
 36 38  2  0  0  0  0
 37 38  1  1  0  0  0
 37 39  1  0  0  0  0
M  END
$$$$

 OpenBabel10082411353D

 26 29  0  0  0  0  0  0  0  0999 V2000
   13.2485    9.2493   -6.3668 O   0  0  0  0  0  0  0  0  0  0  0  0
   12.3055    9.1779   -7.4488 C   0  0  1  0  0  0  0  0  0  0  0  0
   12.5005    8.1033   -8.2440 C   0  0  0  0  0  0  0  0  0  0  0  0
   11.7072    8.0925   -9.4886 C   0  0  1  0  0  0  0  0  0  0  0  0
   10.9116    9.4148   -7.0662 C   0  0  1  0  0  0  0  0  0  0  0  0
    9.9386    8.9657   -8.0654 C   0  0  0  0  0  0  0  0  0  0  0  0
   10.3196    7.8315   -8.9317 C   0  0  2  0  0  0  0  0  0  0  0  0
   10.1237    6.6155   -7.9733 C   0  0  2  0  0  0  0  0  0  0  0  0
    9.4711    7.7025  -10.1389 N   0  0  0  0  0  0  0  0  0  0  0  0
    8.9853    6.2010   -7.9545 O   0  0  0  0  0  0  0  0  0  0  0  0
   10.4471    8.5719   -5.8263 C   0  0  0  0  0  0  0  0  0  0  0  0
    8.8277    4.9823   -8.7016 C   0  0  0  0  0  0  0  0  0  0  0  0
   10.5671    7.0796   -6.5308 C   0  0  0  0  0  0  0  0  0  0  0  0
    9.9809    7.4743  -11.3743 C   0  0  2  0  0  0  0  0  0  0  0  0
    9.0505    7.4285  -12.4193 C   0  0  0  0  0  0  0  0  0  0  0  0
    9.0477    6.2588  -13.0112 C   0  0  0  0  0  0  0  0  0  0  0  0
    9.6784    5.1775  -12.7575 C   0  0  0  0  0  0  0  0  0  0  0  0
   10.5822    5.1916  -11.6999 C   0  0  0  0  0  0  0  0  0  0  0  0
    9.3533    3.8390  -13.6913 C   0  0  0  0  0  0  0  0  0  0  0  0
   10.6621    6.3210  -10.9872 C   0  0  1  0  0  0  0  0  0  0  0  0
   12.0719    9.1127  -10.2647 O   0  0  0  0  0  0  0  0  0  0  0  0
   11.8539    6.5535  -10.2181 C   0  0  0  0  0  0  0  0  0  0  0  0
    8.2347    8.5705  -12.5910 C   0  0  0  0  0  0  0  0  0  0  0  0
    8.3911    3.3962  -13.8616 O   0  0  0  0  0  0  0  0  0  0  0  0
   10.5629    3.1232  -13.9737 C   0  0  0  0  0  0  0  0  0  0  0  0
   10.3631    2.1416  -15.0183 C   0  0  0  0  0  0  0  0  0  0  0  0
  2  1  1  1  0  0  0
  2  3  1  0  0  0  0
  2  5  1  0  0  0  0
  3  4  1  0  0  0  0
  4  7  1  0  0  0  0
  4 21  1  6  0  0  0
  4 22  1  0  0  0  0
  5  6  1  6  0  0  0
  5 11  1  0  0  0  0
  7  6  1  1  0  0  0
  7  8  1  0  0  0  0
  7  9  1  0  0  0  0
  8 10  1  1  0  0  0
  8 13  1  0  0  0  0
 10 12  1  0  0  0  0
 11 13  1  0  0  0  0
 14  9  1  1  0  0  0
 14 15  1  0  0  0  0
 14 20  1  0  0  0  0
 15 16  2  0  0  0  0
 15 23  1  0  0  0  0
 16 17  1  0  0  0  0
 17 18  2  0  0  0  0
 17 19  1  0  0  0  0
 19 24  2  0  0  0  0
 19 25  1  0  0  0  0
 20 18  1  6  0  0  0
 20 22  1  0  0  0  0
 25 26  1  0  0  0  0
M  END
$$$$

 OpenBabel10082411353D

 39 42  0  0  0  0  0  0  0  0999 V2000
   10.9951    9.9694   -4.9946 C   0  0  0  0  0  0  0  0  0  0  0  0
   11.7938    9.3762   -4.2463 C   0  0  0  0  0  0  0  0  0  0  0  0
   10.8673    9.4548   -6.4276 C   0  0  0  0  0  0  0  0  0  0  0  0
   11.6576    7.9117   -4.2944 C   0  0  0  0  0  0  0  0  0  0  0  0
   10.5498    8.0257   -6.4521 C   0  0  0  0  0  0  0  0  0  0  0  0
   11.4715    7.2752   -5.6166 C   0  0  0  0  0  0  0  0  0  0  0  0
   10.5840    7.5390   -7.9254 C   0  0  0  0  0  0  0  0  0  0  0  0
   11.4612    8.1494   -8.8322 C   0  0  0  0  0  0  0  0  0  0  0  0
   12.6250    8.6294   -8.4338 O   0  0  0  0  0  0  0  0  0  0  0  0
   11.0835    8.4395  -10.0740 O   0  0  0  0  0  0  0  0  0  0  0  0
   11.2938    7.5612  -11.0769 C   0  0  0  0  0  0  0  0  0  0  0  0
   10.1547    7.2525  -11.9492 C   0  0  0  0  0  0  0  0  0  0  0  0
   10.4293    6.5622  -13.1348 C   0  0  0  0  0  0  0  0  0  0  0  0
   11.7295    6.4217  -13.6243 C   0  0  0  0  0  0  0  0  0  0  0  0
    8.8120    7.3918  -11.4649 C   0  0  0  0  0  0  0  0  0  0  0  0
   12.5351    7.8894  -11.6869 C   0  0  0  0  0  0  0  0  0  0  0  0
   13.5778    8.4243  -10.9673 O   0  0  0  0  0  0  0  0  0  0  0  0
    7.7211    7.1761  -12.4323 C   0  0  0  0  0  0  0  0  0  0  0  0
   12.8103    7.0723  -12.8897 C   0  0  0  0  0  0  0  0  0  0  0  0
    7.0543    5.9667  -12.3369 C   0  0  0  0  0  0  0  0  0  0  0  0
    7.2392    8.1844  -13.1320 C   0  0  0  0  0  0  0  0  0  0  0  0
    6.6882    5.3848  -13.5016 O   0  0  0  0  0  0  0  0  0  0  0  0
    6.5103    5.5543  -11.3870 O   0  0  0  0  0  0  0  0  0  0  0  0
    7.4031    4.0506  -13.7852 C   0  0  0  0  0  0  0  0  0  0  0  0
    8.6811    3.9966  -14.1333 C   0  0  0  0  0  0  0  0  0  0  0  0
   12.0732    5.6649  -14.9357 C   0  0  0  0  0  0  0  0  0  0  0  0
    6.5842    3.0104  -13.4449 C   0  0  0  0  0  0  0  0  0  0  0  0
   12.1810    6.3505  -15.9550 C   0  0  0  0  0  0  0  0  0  0  0  0
   12.4265    5.3943  -17.1098 C   0  0  0  0  0  0  0  0  0  0  0  0
   11.9184    4.2576  -14.8844 C   0  0  0  0  0  0  0  0  0  0  0  0
   12.0158    3.4782  -15.9106 C   0  0  0  0  0  0  0  0  0  0  0  0
    5.1672    3.1967  -12.9871 C   0  0  0  0  0  0  0  0  0  0  0  0
    7.1727    1.7696  -13.6406 C   0  0  0  0  0  0  0  0  0  0  0  0
   11.9456    2.0651  -15.8693 F   0  0  0  0  0  0  0  0  0  0  0  0
    6.3091    0.6113  -13.2804 C   0  0  0  0  0  0  0  0  0  0  0  0
   12.3220    4.1641  -17.0834 C   0  0  0  0  0  0  0  0  0  0  0  0
    8.4442    1.6584  -14.0209 C   0  0  0  0  0  0  0  0  0  0  0  0
    9.0566    0.3792  -14.1967 F   0  0  0  0  0  0  0  0  0  0  0  0
    9.2248    2.7717  -14.2792 C   0  0  0  0  0  0  0  0  0  0  0  0
  1  2  1  0  0  0  0
  1  3  1  0  0  0  0
  2  4  1  0  0  0  0
  3  5  1  0  0  0  0
  4  6  1  0  0  0  0
  5  6  1  0  0  0  0
  5  7  1  0  0  0  0
  7  8  1  0  0  0  0
  8  9  2  0  0  0  0
  8 10  1  0  0  0  0
 10 11  1  0  0  0  0
 11 12  1  0  0  0  0
 11 16  2  0  0  0  0
 12 13  2  0  0  0  0
 12 15  1  0  0  0  0
 13 14  1  0  0  0  0
 14 19  2  0  0  0  0
 14 26  1  0  0  0  0
 15 18  1  0  0  0  0
 16 17  1  0  0  0  0
 16 19  1  0  0  0  0
 18 20  1  0  0  0  0
 18 21  2  0  0  0  0
 20 22  1  0  0  0  0
 20 23  2  0  0  0  0
 22 24  1  0  0  0  0
 24 25  1  0  0  0  0
 24 27  2  0  0  0  0
 25 39  2  0  0  0  0
 26 28  2  0  0  0  0
 26 30  1  0  0  0  0
 27 32  1  0  0  0  0
 27 33  1  0  0  0  0
 28 29  1  0  0  0  0
 29 36  2  0  0  0  0
 30 31  2  0  0  0  0
 31 34  1  0  0  0  0
 31 36  1  0  0  0  0
 33 35  1  0  0  0  0
 33 37  2  0  0  0  0
 37 38  1  0  0  0  0
 37 39  1  0  0  0  0
M  END
$$$$

 OpenBabel10082411353D

 39 43  0  0  0  0  0  0  0  0999 V2000
   11.6836    6.0105   -4.8831 F   0  0  0  0  0  0  0  0  0  0  0  0
   11.2562    7.2206   -5.0294 C   0  0  0  0  0  0  0  0  0  0  0  0
   12.0125    8.2418   -4.4408 C   0  0  0  0  0  0  0  0  0  0  0  0
   11.1918    7.2706   -6.5237 C   0  0  0  0  0  0  0  0  0  0  0  0
   11.6999    8.4488   -3.1704 F   0  0  0  0  0  0  0  0  0  0  0  0
    9.8648    7.0908   -4.5314 F   0  0  0  0  0  0  0  0  0  0  0  0
   11.6831    8.5291   -6.9682 C   0  0  0  0  0  0  0  0  0  0  0  0
   10.4785    6.5189   -7.4033 C   0  0  0  0  0  0  0  0  0  0  0  0
   11.6979    8.6661   -8.4760 C   0  0  0  0  0  0  0  0  0  0  0  0
   11.6248    9.5853   -5.0030 C   0  0  0  0  0  0  0  0  0  0  0  0
   11.8604    9.7907   -6.2903 O   0  0  0  0  0  0  0  0  0  0  0  0
   13.3557    8.1748   -4.5947 F   0  0  0  0  0  0  0  0  0  0  0  0
   10.5427    6.6061   -8.7190 C   0  0  0  0  0  0  0  0  0  0  0  0
   11.1158    7.7103   -9.2540 C   0  0  0  0  0  0  0  0  0  0  0  0
   11.3757    7.6656  -10.5293 N   0  0  0  0  0  0  0  0  0  0  0  0
   10.7153    7.7096  -11.5405 C   0  0  0  0  0  0  0  0  0  0  0  0
   11.2483    7.4711  -12.8542 C   0  0  0  0  0  0  0  0  0  0  0  0
    9.3980    7.7820  -11.5398 C   0  0  0  0  0  0  0  0  0  0  0  0
    8.6055    7.5889  -12.6525 C   0  0  0  0  0  0  0  0  0  0  0  0
   12.7508    7.3705  -13.0162 O   0  0  0  0  0  0  0  0  0  0  0  0
   10.5299    7.1831  -13.9856 C   0  0  0  0  0  0  0  0  0  0  0  0
    7.0533    7.7371  -12.5396 C   0  0  0  0  0  0  0  0  0  0  0  0
   11.2041    6.8490  -15.2304 C   0  0  0  0  0  0  0  0  0  0  0  0
   11.6393    5.5333  -15.3864 C   0  0  0  0  0  0  0  0  0  0  0  0
    9.1955    7.2935  -13.8301 C   0  0  0  0  0  0  0  0  0  0  0  0
   12.5294    5.1116  -16.1609 C   0  0  0  0  0  0  0  0  0  0  0  0
   11.2315    4.4703  -14.3200 C   0  0  0  0  0  0  0  0  0  0  0  0
   10.2844    4.5821  -13.3000 C   0  0  0  0  0  0  0  0  0  0  0  0
   11.6270    3.1866  -14.6052 C   0  0  0  0  0  0  0  0  0  0  0  0
    9.0868    3.8289  -13.3080 C   0  0  0  0  0  0  0  0  0  0  0  0
   11.3420    2.7039  -15.8535 C   0  0  0  0  0  0  0  0  0  0  0  0
    8.3582    4.0400  -12.0395 C   0  0  0  0  0  0  0  0  0  0  0  0
   13.0053    6.2224  -17.1322 C   0  0  0  0  0  0  0  0  0  0  0  0
   12.3338    3.1792  -16.8738 C   0  0  0  0  0  0  0  0  0  0  0  0
   12.9752    4.2391  -16.7963 C   0  0  0  0  0  0  0  0  0  0  0  0
    8.6667    4.6191  -11.0038 C   0  0  0  0  0  0  0  0  0  0  0  0
    6.9922    3.7682  -12.3260 C   0  0  0  0  0  0  0  0  0  0  0  0
    7.7196    4.9418  -10.0259 C   0  0  0  0  0  0  0  0  0  0  0  0
    6.3890    4.4149  -10.8651 S   0  0  0  0  0  0  0  0  0  0  0  0
  1  2  1  0  0  0  0
  2  3  1  0  0  0  0
  2  4  1  0  0  0  0
  2  6  1  0  0  0  0
  3  5  1  0  0  0  0
  3 10  1  0  0  0  0
  3 12  1  0  0  0  0
  4  7  1  0  0  0  0
  4  8  2  0  0  0  0
  7  9  2  0  0  0  0
  7 11  1  0  0  0  0
  8 13  1  0  0  0  0
  9 14  1  0  0  0  0
 10 11  1  0  0  0  0
 13 14  2  0  0  0  0
 14 15  1  0  0  0  0
 15 16  1  0  0  0  0
 16 17  1  0  0  0  0
 16 18  2  0  0  0  0
 17 20  1  0  0  0  0
 17 21  2  0  0  0  0
 18 19  1  0  0  0  0
 19 22  1  0  0  0  0
 19 25  2  0  0  0  0
 21 23  1  0  0  0  0
 21 25  1  0  0  0  0
 23 24  1  0  0  0  0
 24 26  2  0  0  0  0
 24 27  1  0  0  0  0
 26 33  1  0  0  0  0
 26 35  1  0  0  0  0
 27 28  1  0  0  0  0
 27 29  2  0  0  0  0
 28 30  2  3  0  0  0
 29 31  1  0  0  0  0
 30 32  1  0  0  0  0
 31 34  1  0  0  0  0
 32 36  1  0  0  0  0
 32 37  2  0  0  0  0
 34 35  1  0  0  0  0
 36 38  2  0  0  0  0
 37 39  1  0  0  0  0
 38 39  1  0  0  0  0
M  END
$$$$

 OpenBabel10082411353D

 39 46  0  0  0  0  0  0  0  0999 V2000
   12.7863    7.8241  -14.2109 C   0  0  0  0  0  0  0  0  0  0  0  0
   12.4233    7.7158  -13.0289 C   0  0  0  0  0  0  0  0  0  0  0  0
   11.3194    6.8571  -12.8028 C   0  0  0  0  0  0  0  0  0  0  0  0
   12.3150    7.2021  -15.3582 C   0  0  0  0  0  0  0  0  0  0  0  0
   11.2733    6.2739  -15.1502 C   0  0  0  0  0  0  0  0  0  0  0  0
   10.8099    6.0126  -13.8600 C   0  0  0  0  0  0  0  0  0  0  0  0
    9.6782    5.1428  -13.6488 C   0  0  0  0  0  0  0  0  0  0  0  0
    8.5753    5.3880  -12.9589 N   0  0  0  0  0  0  0  0  0  0  0  0
    8.3226    6.7011  -12.3862 C   0  0  0  0  0  0  0  0  0  0  0  0
    9.8502    3.8578  -14.0728 C   0  0  0  0  0  0  0  0  0  0  0  0
    7.3864    7.4720  -13.0530 C   0  0  0  0  0  0  0  0  0  0  0  0
    6.2412    7.8486  -12.2599 C   0  0  0  0  0  0  0  0  0  0  0  0
    7.6425    4.4186  -12.7943 C   0  0  0  0  0  0  0  0  0  0  0  0
   11.0297    3.2482  -14.8053 C   0  0  0  0  0  0  0  0  0  0  0  0
    8.6802    2.8955  -13.7960 C   0  0  0  0  0  0  0  0  0  0  0  0
    8.8565    1.5917  -14.3582 O   0  0  0  0  0  0  0  0  0  0  0  0
    7.6903    3.2226  -13.1994 N   0  0  0  0  0  0  0  0  0  0  0  0
    6.5724    2.3444  -12.8378 C   0  0  0  0  0  0  0  0  0  0  0  0
    9.0225    7.0353  -11.3259 C   0  0  0  0  0  0  0  0  0  0  0  0
    6.2405    4.8489  -12.4515 C   0  0  0  0  0  0  0  0  0  0  0  0
   10.5875    7.0617  -11.5321 C   0  0  0  0  0  0  0  0  0  0  0  0
   11.0960    7.6093  -10.4100 C   0  0  0  0  0  0  0  0  0  0  0  0
    8.4039    7.3336  -10.1102 C   0  0  0  0  0  0  0  0  0  0  0  0
   10.6086    7.8156   -9.1888 C   0  0  0  0  0  0  0  0  0  0  0  0
    9.3113    7.5527   -9.2022 C   0  0  0  0  0  0  0  0  0  0  0  0
    5.5868    3.4174  -12.3561 C   0  0  0  0  0  0  0  0  0  0  0  0
    8.7252    7.9330   -7.6242 C   0  0  0  0  0  0  0  0  0  0  0  0
   11.1859    8.0862   -7.9601 C   0  0  0  0  0  0  0  0  0  0  0  0
   12.7495    8.2704   -8.0174 C   0  0  0  0  0  0  0  0  0  0  0  0
   10.4493    8.2542   -6.7750 C   0  0  2  0  0  0  0  0  0  0  0  0
    9.2142    8.3462   -6.7539 C   0  0  0  0  0  0  0  0  0  0  0  0
   11.4483    9.0676   -5.7294 C   0  0  1  0  0  0  0  0  0  0  0  0
   10.5479    6.9328   -5.7137 C   0  0  1  0  0  0  0  0  0  0  0  0
   13.0940    9.3998   -7.2782 C   0  0  0  0  0  0  0  0  0  0  0  0
   12.8182    9.2697   -5.8803 C   0  0  0  0  0  0  0  0  0  0  0  0
   10.7663   10.5076   -5.8947 C   0  0  0  0  0  0  0  0  0  0  0  0
   11.4445    5.9218   -5.8343 O   0  0  0  0  0  0  0  0  0  0  0  0
   11.0849    8.8976   -4.2681 C   0  0  0  0  0  0  0  0  0  0  0  0
   11.0529    7.3080   -4.2185 C   0  0  0  0  0  0  0  0  0  0  0  0
  1  2  2  0  0  0  0
  1  4  1  0  0  0  0
  2  3  1  0  0  0  0
  3  6  2  0  0  0  0
  3 21  1  0  0  0  0
  4  5  2  0  0  0  0
  5  6  1  0  0  0  0
  6  7  1  0  0  0  0
  7  8  1  0  0  0  0
  7 10  2  0  0  0  0
  8  9  1  0  0  0  0
  8 13  1  0  0  0  0
  9 11  1  0  0  0  0
  9 19  2  0  0  0  0
 10 14  1  0  0  0  0
 10 15  1  0  0  0  0
 11 12  1  0  0  0  0
 13 17  1  0  0  0  0
 13 20  2  0  0  0  0
 15 16  2  0  0  0  0
 15 17  1  0  0  0  0
 17 18  1  0  0  0  0
 18 26  2  0  0  0  0
 19 21  1  0  0  0  0
 19 23  1  0  0  0  0
 20 26  1  0  0  0  0
 21 22  2  0  0  0  0
 22 24  1  0  0  0  0
 23 25  2  0  0  0  0
 24 25  1  0  0  0  0
 24 28  2  0  0  0  0
 25 27  1  0  0  0  0
 27 31  2  0  0  0  0
 28 29  1  0  0  0  0
 28 30  1  0  0  0  0
 29 34  1  0  0  0  0
 30 31  1  6  0  0  0
 30 32  1  0  0  0  0
 30 33  1  0  0  0  0
 32 35  1  0  0  0  0
 32 36  1  6  0  0  0
 32 38  1  0  0  0  0
 33 37  1  6  0  0  0
 33 39  1  0  0  0  0
 34 35  1  0  0  0  0
 38 39  1  0  0  0  0
M  END
$$$$

 OpenBabel10082411353D

 39 44  0  0  0  0  0  0  0  0999 V2000
   10.9951    9.9694   -4.9946 C   0  0  0  0  0  0  0  0  0  0  0  0
   11.7938    9.3762   -4.2463 C   0  0  0  0  0  0  0  0  0  0  0  0
   10.8673    9.4548   -6.4276 C   0  0  0  0  0  0  0  0  0  0  0  0
   11.6576    7.9117   -4.2944 C   0  0  0  0  0  0  0  0  0  0  0  0
   10.5498    8.0257   -6.4521 C   0  0  0  0  0  0  0  0  0  0  0  0
   11.4715    7.2752   -5.6166 C   0  0  0  0  0  0  0  0  0  0  0  0
   10.5840    7.5390   -7.9254 C   0  0  0  0  0  0  0  0  0  0  0  0
   11.4612    8.1494   -8.8322 C   0  0  0  0  0  0  0  0  0  0  0  0
   12.6250    8.6294   -8.4338 O   0  0  0  0  0  0  0  0  0  0  0  0
   11.0835    8.4395  -10.0740 O   0  0  0  0  0  0  0  0  0  0  0  0
   11.2938    7.5612  -11.0769 C   0  0  0  0  0  0  0  0  0  0  0  0
   10.1547    7.2525  -11.9492 C   0  0  0  0  0  0  0  0  0  0  0  0
   10.4293    6.5622  -13.1348 C   0  0  0  0  0  0  0  0  0  0  0  0
   11.7295    6.4217  -13.6243 C   0  0  0  0  0  0  0  0  0  0  0  0
    8.8120    7.3918  -11.4649 C   0  0  0  0  0  0  0  0  0  0  0  0
   12.5351    7.8894  -11.6869 C   0  0  0  0  0  0  0  0  0  0  0  0
   13.5778    8.4243  -10.9673 O   0  0  0  0  0  0  0  0  0  0  0  0
    7.7211    7.1761  -12.4323 C   0  0  0  0  0  0  0  0  0  0  0  0
   12.8103    7.0723  -12.8897 C   0  0  0  0  0  0  0  0  0  0  0  0
    7.0543    5.9667  -12.3369 C   0  0  0  0  0  0  0  0  0  0  0  0
    7.2392    8.1844  -13.1320 C   0  0  0  0  0  0  0  0  0  0  0  0
    6.6882    5.3848  -13.5016 O   0  0  0  0  0  0  0  0  0  0  0  0
    6.5103    5.5543  -11.3870 O   0  0  0  0  0  0  0  0  0  0  0  0
    7.4031    4.0506  -13.7852 C   0  0  0  0  0  0  0  0  0  0  0  0
    8.6811    3.9966  -14.1333 C   0  0  0  0  0  0  0  0  0  0  0  0
   12.0732    5.6649  -14.9357 C   0  0  0  0  0  0  0  0  0  0  0  0
    6.5842    3.0104  -13.4449 C   0  0  0  0  0  0  0  0  0  0  0  0
   12.1810    6.3505  -15.9550 C   0  0  0  0  0  0  0  0  0  0  0  0
   12.4265    5.3943  -17.1098 C   0  0  0  0  0  0  0  0  0  0  0  0
   12.0808    4.3115  -14.6805 C   0  0  0  0  0  0  0  0  0  0  0  0
    5.1772    3.2038  -12.9749 C   0  0  0  0  0  0  0  0  0  0  0  0
   11.7401    3.5786  -13.4028 C   0  0  0  0  0  0  0  0  0  0  0  0
    7.1932    1.7609  -13.6079 C   0  0  0  0  0  0  0  0  0  0  0  0
   12.3142    4.1658  -16.8475 C   0  0  0  0  0  0  0  0  0  0  0  0
    9.2052    2.7641  -14.3200 C   0  0  0  0  0  0  0  0  0  0  0  0
    8.4704    1.6543  -14.0145 C   0  0  0  0  0  0  0  0  0  0  0  0
   10.6491    2.6208  -14.7303 N   0  0  0  0  0  0  0  0  0  0  0  0
   12.1214    3.5890  -15.7934 C   0  0  0  0  0  0  0  0  0  0  0  0
   11.6082    2.3128  -15.4513 N   0  0  0  0  0  0  0  0  0  0  0  0
  1  2  1  0  0  0  0
  1  3  1  0  0  0  0
  2  4  1  0  0  0  0
  3  5  1  0  0  0  0
  4  6  1  0  0  0  0
  5  6  1  0  0  0  0
  5  7  1  0  0  0  0
  7  8  1  0  0  0  0
  8  9  2  0  0  0  0
  8 10  1  0  0  0  0
 10 11  1  0  0  0  0
 11 12  1  0  0  0  0
 11 16  2  0  0  0  0
 12 13  2  0  0  0  0
 12 15  1  0  0  0  0
 13 14  1  0  0  0  0
 14 19  2  0  0  0  0
 14 26  1  0  0  0  0
 15 18  1  0  0  0  0
 16 17  1  0  0  0  0
 16 19  1  0  0  0  0
 18 20  1  0  0  0  0
 18 21  2  0  0  0  0
 20 22  1  0  0  0  0
 20 23  2  0  0  0  0
 22 24  1  0  0  0  0
 24 25  1  0  0  0  0
 24 27  2  0  0  0  0
 25 35  2  0  0  0  0
 26 28  2  0  0  0  0
 26 30  1  0  0  0  0
 27 31  1  0  0  0  0
 27 33  1  0  0  0  0
 28 29  1  0  0  0  0
 29 34  2  0  0  0  0
 30 32  1  0  0  0  0
 30 38  2  0  0  0  0
 32 37  1  0  0  0  0
 33 36  2  0  0  0  0
 34 38  1  0  0  0  0
 35 36  1  0  0  0  0
 35 37  1  0  0  0  0
 37 39  1  0  0  0  0
 38 39  1  0  0  0  0
M  END
$$$$

 OpenBabel10082411353D

 39 49  0  0  0  0  0  0  0  0999 V2000
    8.0806    9.0240  -12.7589 C   0  0  0  0  0  0  0  0  0  0  0  0
    8.6514    7.8645  -12.2948 C   0  0  0  0  0  0  0  0  0  0  0  0
    9.9575    7.9974  -11.8426 C   0  0  0  0  0  0  0  0  0  0  0  0
   10.7657    6.8667  -11.6050 C   0  0  1  0  0  0  0  0  0  0  0  0
   10.7682    5.9590  -12.8271 C   0  0  0  0  0  0  0  0  0  0  0  0
   12.1553    7.3846  -11.2315 C   0  0  0  0  0  0  0  0  0  0  0  0
    8.0676    6.6451  -12.2974 C   0  0  0  0  0  0  0  0  0  0  0  0
   10.1892    6.1240  -10.3860 C   0  0  0  0  0  0  0  0  0  0  0  0
   11.8375    5.4373  -13.3240 O   0  0  0  0  0  0  0  0  0  0  0  0
    8.6785    5.4761  -13.0273 C   0  0  1  0  0  0  0  0  0  0  0  0
    9.1969    5.2405  -10.4969 C   0  0  1  0  0  0  0  0  0  0  0  0
    7.2213    6.2210  -11.3074 C   0  0  1  0  0  0  0  0  0  0  0  0
   12.5590    7.6872   -9.9896 C   0  0  0  0  0  0  0  0  0  0  0  0
    9.7633    5.0333  -12.9720 C   0  0  1  0  0  0  0  0  0  0  0  0
   10.0661    4.0167  -14.0373 N   0  0  0  0  0  0  0  0  0  0  0  0
   13.6906    8.3004   -9.6233 O   0  0  0  0  0  0  0  0  0  0  0  0
    7.6357    4.5123  -12.6317 C   0  0  2  0  0  0  0  0  0  0  0  0
    6.8831    4.9171  -11.7031 C   0  0  1  0  0  0  0  0  0  0  0  0
   10.5937    6.6967   -9.1779 C   0  0  0  0  0  0  0  0  0  0  0  0
    9.5087    4.3263  -11.6925 C   0  0  2  0  0  0  0  0  0  0  0  0
   11.6359    7.4449   -8.9125 C   0  0  0  0  0  0  0  0  0  0  0  0
   11.9716    7.9159   -7.6200 C   0  0  0  0  0  0  0  0  0  0  0  0
    8.4648    3.6122  -12.2840 C   0  0  2  0  0  0  0  0  0  0  0  0
    9.3128    4.5571   -9.1689 C   0  0  0  0  0  0  0  0  0  0  0  0
   10.9557    7.6369   -6.5929 C   0  0  1  0  0  0  0  0  0  0  0  0
    9.6490    2.8108  -13.7776 C   0  0  1  0  0  0  0  0  0  0  0  0
    9.6716    6.1981   -8.0224 C   0  0  2  0  0  0  0  0  0  0  0  0
    8.5511    2.5400  -13.1402 C   0  0  0  0  0  0  0  0  0  0  0  0
    9.7877    2.0302  -15.0383 O   0  0  0  0  0  0  0  0  0  0  0  0
   10.2949    6.3957   -6.8142 C   0  0  0  0  0  0  0  0  0  0  0  0
   11.5442    7.8028   -5.1770 C   0  0  0  0  0  0  0  0  0  0  0  0
    9.3662    4.9454   -8.1688 C   0  0  0  0  0  0  0  0  0  0  0  0
    9.9825    8.6746   -6.2053 C   0  0  0  0  0  0  0  0  0  0  0  0
   11.8670    9.1982   -4.7195 C   0  0  0  0  0  0  0  0  0  0  0  0
   12.7706    9.9232   -5.2633 C   0  0  0  0  0  0  0  0  0  0  0  0
   11.8424    9.4142   -3.2287 C   0  0  0  0  0  0  0  0  0  0  0  0
   10.4177    9.7626   -5.3285 C   0  0  0  0  0  0  0  0  0  0  0  0
    7.9394    5.6473  -10.4942 C   0  0  1  0  0  0  0  0  0  0  0  0
   11.8890    6.7522   -4.4839 C   0  0  0  0  0  0  0  0  0  0  0  0
  1  2  1  0  0  0  0
  2  3  1  0  0  0  0
  2  7  2  0  0  0  0
  4  3  1  6  0  0  0
  4  5  1  0  0  0  0
  4  6  1  0  0  0  0
  4  8  1  0  0  0  0
  5  9  2  0  0  0  0
  6 13  1  0  0  0  0
  8 11  1  0  0  0  0
  8 19  2  0  0  0  0
 10  7  1  1  0  0  0
 10 14  1  0  0  0  0
 10 17  1  0  0  0  0
 11 20  1  0  0  0  0
 11 24  1  1  0  0  0
 11 38  1  0  0  0  0
 12  7  1  6  0  0  0
 12 18  1  0  0  0  0
 12 38  1  0  0  0  0
 13 16  2  0  0  0  0
 13 21  1  0  0  0  0
 14  5  1  1  0  0  0
 14 15  1  0  0  0  0
 14 20  1  0  0  0  0
 15 26  1  0  0  0  0
 17 18  1  0  0  0  0
 17 23  1  0  0  0  0
 18 38  1  0  0  0  0
 19 21  1  0  0  0  0
 19 27  1  0  0  0  0
 20 23  1  0  0  0  0
 21 22  2  0  0  0  0
 22 25  1  0  0  0  0
 23 28  1  0  0  0  0
 24 32  2  0  0  0  0
 25 30  1  0  0  0  0
 25 31  1  0  0  0  0
 25 33  1  0  0  0  0
 26 28  1  0  0  0  0
 26 29  1  0  0  0  0
 27 30  1  0  0  0  0
 27 32  1  0  0  0  0
 31 34  1  0  0  0  0
 31 39  2  0  0  0  0
 33 37  1  0  0  0  0
 34 35  1  0  0  0  0
 34 36  1  0  0  0  0
 34 37  1  0  0  0  0
M  END
$$$$

 OpenBabel10082411353D

 39 44  0  0  0  0  0  0  0  0999 V2000
   11.6836    6.0105   -4.8831 C   0  0  0  0  0  0  0  0  0  0  0  0
   11.1291    7.0732   -5.4395 C   0  0  0  0  0  0  0  0  0  0  0  0
   10.6954    7.0156   -6.8073 C   0  0  0  0  0  0  0  0  0  0  0  0
   10.2502    8.1187   -7.5536 C   0  0  2  0  0  0  0  0  0  0  0  0
   11.1205    8.4712   -4.9629 C   0  0  0  0  0  0  0  0  0  0  0  0
   10.8655    8.3511   -8.7960 C   0  0  0  0  0  0  0  0  0  0  0  0
   10.2922    7.8843   -9.9985 C   0  0  0  0  0  0  0  0  0  0  0  0
   10.4654    9.6993   -5.6120 C   0  0  0  0  0  0  0  0  0  0  0  0
   10.3510    9.5971   -7.0014 C   0  0  0  0  0  0  0  0  0  0  0  0
   12.2462    6.3351   -3.5020 C   0  0  0  0  0  0  0  0  0  0  0  0
   11.0471    7.5309  -11.1063 C   0  0  0  0  0  0  0  0  0  0  0  0
   11.7288    8.6923   -3.6518 C   0  0  0  0  0  0  0  0  0  0  0  0
   12.3991    7.7501  -11.1145 C   0  0  0  0  0  0  0  0  0  0  0  0
   12.3738    7.7580   -2.9599 C   0  0  0  0  0  0  0  0  0  0  0  0
   13.1285    8.5075  -10.1661 O   0  0  0  0  0  0  0  0  0  0  0  0
    9.0407    7.3775  -10.0973 N   0  0  0  0  0  0  0  0  0  0  0  0
    8.9787    6.9473  -11.4664 N   0  0  0  0  0  0  0  0  0  0  0  0
   13.1012    7.4459  -12.3707 C   0  0  0  0  0  0  0  0  0  0  0  0
   12.2395    6.9724  -13.2444 C   0  0  0  0  0  0  0  0  0  0  0  0
   10.2768    7.0170  -11.9799 C   0  0  0  0  0  0  0  0  0  0  0  0
   12.9237    6.5822  -14.5759 O   0  0  0  0  0  0  0  0  0  0  0  0
   10.8906    6.6526  -13.2252 C   0  0  0  0  0  0  0  0  0  0  0  0
   12.2396    6.1290  -15.6916 C   0  0  0  0  0  0  0  0  0  0  0  0
    7.8036    6.1825  -11.9342 C   0  0  0  0  0  0  0  0  0  0  0  0
   12.5015    4.7115  -15.7686 C   0  0  0  0  0  0  0  0  0  0  0  0
    7.1685    6.9992  -12.8245 C   0  0  0  0  0  0  0  0  0  0  0  0
   11.2461    3.8540  -15.4851 C   0  0  0  0  0  0  0  0  0  0  0  0
    7.6237    4.9154  -11.6529 C   0  0  0  0  0  0  0  0  0  0  0  0
    6.6378    4.1960  -12.2267 C   0  0  0  0  0  0  0  0  0  0  0  0
    6.2717    2.7675  -11.9743 C   0  0  0  0  0  0  0  0  0  0  0  0
    6.6569    1.8873  -12.9460 C   0  0  0  0  0  0  0  0  0  0  0  0
    6.2393    0.5737  -12.7991 C   0  0  0  0  0  0  0  0  0  0  0  0
    5.7332    5.0094  -13.0098 C   0  0  0  0  0  0  0  0  0  0  0  0
   11.4513    2.5769  -15.3310 O   0  0  0  0  0  0  0  0  0  0  0  0
    5.8943    6.2717  -13.4084 C   0  0  0  0  0  0  0  0  0  0  0  0
   10.1835    4.4428  -14.8841 O   0  0  0  0  0  0  0  0  0  0  0  0
    7.5951    2.1886  -13.9495 C   0  0  0  0  0  0  0  0  0  0  0  0
    9.0536    3.6481  -14.5438 C   0  0  0  0  0  0  0  0  0  0  0  0
    8.7489    2.6612  -13.7686 C   0  0  0  0  0  0  0  0  0  0  0  0
  1  2  1  0  0  0  0
  1 10  2  0  0  0  0
  2  3  1  0  0  0  0
  2  5  2  0  0  0  0
  3  4  1  0  0  0  0
  4  6  1  6  0  0  0
  4  9  1  0  0  0  0
  5  8  1  0  0  0  0
  5 12  1  0  0  0  0
  6  7  1  0  0  0  0
  7 11  1  0  0  0  0
  7 16  2  0  0  0  0
  8  9  1  0  0  0  0
 10 14  1  0  0  0  0
 11 13  2  0  0  0  0
 11 20  1  0  0  0  0
 12 14  2  0  0  0  0
 13 15  1  0  0  0  0
 13 18  1  0  0  0  0
 16 17  1  0  0  0  0
 17 20  1  0  0  0  0
 17 24  1  0  0  0  0
 18 19  2  0  0  0  0
 19 21  1  0  0  0  0
 19 22  1  0  0  0  0
 20 22  2  0  0  0  0
 21 23  1  0  0  0  0
 23 25  1  0  0  0  0
 24 26  2  0  0  0  0
 24 28  1  0  0  0  0
 25 27  1  0  0  0  0
 26 35  1  0  0  0  0
 27 34  2  0  0  0  0
 27 36  1  0  0  0  0
 28 29  2  0  0  0  0
 29 30  1  0  0  0  0
 29 33  1  0  0  0  0
 30 31  1  0  0  0  0
 31 32  1  0  0  0  0
 31 37  2  0  0  0  0
 33 35  2  0  0  0  0
 36 38  1  0  0  0  0
 37 39  1  0  0  0  0
 38 39  2  0  0  0  0
M  END
$$$$

 OpenBabel10082411353D

 39 45  0  0  0  0  0  0  0  0999 V2000
   11.6836    6.0105   -4.8831 F   0  0  0  0  0  0  0  0  0  0  0  0
   11.2562    7.2206   -5.0294 C   0  0  0  0  0  0  0  0  0  0  0  0
   12.0125    8.2418   -4.4408 C   0  0  0  0  0  0  0  0  0  0  0  0
   11.1918    7.2706   -6.5237 C   0  0  0  0  0  0  0  0  0  0  0  0
   11.6999    8.4488   -3.1704 F   0  0  0  0  0  0  0  0  0  0  0  0
    9.8648    7.0908   -4.5314 F   0  0  0  0  0  0  0  0  0  0  0  0
   11.6831    8.5291   -6.9682 C   0  0  0  0  0  0  0  0  0  0  0  0
   10.4785    6.5189   -7.4033 C   0  0  0  0  0  0  0  0  0  0  0  0
   11.6979    8.6661   -8.4760 C   0  0  0  0  0  0  0  0  0  0  0  0
   11.6248    9.5853   -5.0030 C   0  0  0  0  0  0  0  0  0  0  0  0
   11.8604    9.7907   -6.2903 O   0  0  0  0  0  0  0  0  0  0  0  0
   13.3557    8.1748   -4.5947 F   0  0  0  0  0  0  0  0  0  0  0  0
   10.5427    6.6061   -8.7190 C   0  0  0  0  0  0  0  0  0  0  0  0
   11.1158    7.7103   -9.2540 C   0  0  0  0  0  0  0  0  0  0  0  0
   11.3757    7.6656  -10.5293 N   0  0  0  0  0  0  0  0  0  0  0  0
   10.7153    7.7096  -11.5405 C   0  0  0  0  0  0  0  0  0  0  0  0
   11.2483    7.4711  -12.8542 C   0  0  0  0  0  0  0  0  0  0  0  0
    9.3980    7.7820  -11.5398 C   0  0  0  0  0  0  0  0  0  0  0  0
    8.6055    7.5889  -12.6525 C   0  0  0  0  0  0  0  0  0  0  0  0
   12.7508    7.3705  -13.0162 O   0  0  0  0  0  0  0  0  0  0  0  0
   10.5299    7.1831  -13.9856 C   0  0  0  0  0  0  0  0  0  0  0  0
    7.0533    7.7371  -12.5396 C   0  0  0  0  0  0  0  0  0  0  0  0
   11.2041    6.8490  -15.2304 C   0  0  0  0  0  0  0  0  0  0  0  0
   11.6393    5.5333  -15.3864 C   0  0  0  0  0  0  0  0  0  0  0  0
    9.1955    7.2935  -13.8301 C   0  0  0  0  0  0  0  0  0  0  0  0
   12.5294    5.1116  -16.1609 C   0  0  0  0  0  0  0  0  0  0  0  0
   11.2315    4.4703  -14.3200 C   0  0  0  0  0  0  0  0  0  0  0  0
   10.2844    4.5821  -13.3000 C   0  0  0  0  0  0  0  0  0  0  0  0
   11.6270    3.1866  -14.6052 C   0  0  0  0  0  0  0  0  0  0  0  0
    9.0868    3.8289  -13.3080 C   0  0  0  0  0  0  0  0  0  0  0  0
   11.3420    2.7039  -15.8535 C   0  0  0  0  0  0  0  0  0  0  0  0
   12.3848    3.5242  -16.4737 C   0  0  0  0  0  0  0  0  0  0  0  0
    8.2189    3.9688  -12.1830 C   0  0  0  0  0  0  0  0  0  0  0  0
    8.4341    4.6700  -11.1010 C   0  0  0  0  0  0  0  0  0  0  0  0
    9.7276    5.5381   -9.3640 C   0  0  0  0  0  0  0  0  0  0  0  0
    9.5735    5.1732  -10.6898 C   0  0  0  0  0  0  0  0  0  0  0  0
   10.5009    5.1757  -11.9313 C   0  0  0  0  0  0  0  0  0  0  0  0
    8.5746    5.1243   -8.7202 N   0  0  0  0  0  0  0  0  0  0  0  0
    7.6965    4.5862   -9.8423 N   0  0  0  0  0  0  0  0  0  0  0  0
  1  2  1  0  0  0  0
  2  3  1  0  0  0  0
  2  4  1  0  0  0  0
  2  6  1  0  0  0  0
  3  5  1  0  0  0  0
  3 10  1  0  0  0  0
  3 12  1  0  0  0  0
  4  7  1  0  0  0  0
  4  8  2  0  0  0  0
  7  9  2  0  0  0  0
  7 11  1  0  0  0  0
  8 13  1  0  0  0  0
  9 14  1  0  0  0  0
 10 11  1  0  0  0  0
 13 14  2  0  0  0  0
 13 35  1  0  0  0  0
 14 15  1  0  0  0  0
 15 16  1  0  0  0  0
 16 17  1  0  0  0  0
 16 18  2  0  0  0  0
 17 20  1  0  0  0  0
 17 21  2  0  0  0  0
 18 19  1  0  0  0  0
 19 22  1  0  0  0  0
 19 25  2  0  0  0  0
 21 23  1  0  0  0  0
 21 25  1  0  0  0  0
 23 24  1  0  0  0  0
 24 26  2  0  0  0  0
 24 27  1  0  0  0  0
 26 32  1  0  0  0  0
 27 28  1  0  0  0  0
 27 29  2  0  0  0  0
 28 30  2  0  0  0  0
 28 37  1  0  0  0  0
 29 31  1  0  0  0  0
 30 33  1  0  0  0  0
 31 32  1  0  0  0  0
 33 34  2  0  0  0  0
 34 36  1  0  0  0  0
 34 39  1  0  0  0  0
 35 36  1  0  0  0  0
 35 38  2  0  0  0  0
 36 37  2  0  0  0  0
 38 39  1  0  0  0  0
M  END
$$$$

 OpenBabel10082411353D

 39 46  0  0  0  0  0  0  0  0999 V2000
   12.7863    7.8241  -14.2109 C   0  0  0  0  0  0  0  0  0  0  0  0
   12.4233    7.7158  -13.0289 C   0  0  0  0  0  0  0  0  0  0  0  0
   11.3194    6.8571  -12.8028 C   0  0  0  0  0  0  0  0  0  0  0  0
   12.3150    7.2021  -15.3582 C   0  0  0  0  0  0  0  0  0  0  0  0
   11.2733    6.2739  -15.1502 C   0  0  0  0  0  0  0  0  0  0  0  0
   10.8099    6.0126  -13.8600 C   0  0  0  0  0  0  0  0  0  0  0  0
    9.6782    5.1428  -13.6488 C   0  0  0  0  0  0  0  0  0  0  0  0
    8.5753    5.3880  -12.9589 N   0  0  0  0  0  0  0  0  0  0  0  0
    8.3226    6.7011  -12.3862 C   0  0  0  0  0  0  0  0  0  0  0  0
    9.8502    3.8578  -14.0728 C   0  0  0  0  0  0  0  0  0  0  0  0
    7.3864    7.4720  -13.0530 C   0  0  0  0  0  0  0  0  0  0  0  0
    6.2412    7.8486  -12.2599 C   0  0  0  0  0  0  0  0  0  0  0  0
    7.6425    4.4186  -12.7943 C   0  0  0  0  0  0  0  0  0  0  0  0
   11.0297    3.2482  -14.8053 C   0  0  0  0  0  0  0  0  0  0  0  0
    8.6802    2.8955  -13.7960 C   0  0  0  0  0  0  0  0  0  0  0  0
    8.8565    1.5917  -14.3582 O   0  0  0  0  0  0  0  0  0  0  0  0
    7.6903    3.2226  -13.1994 N   0  0  0  0  0  0  0  0  0  0  0  0
    6.5724    2.3444  -12.8378 C   0  0  0  0  0  0  0  0  0  0  0  0
    9.0225    7.0353  -11.3259 C   0  0  0  0  0  0  0  0  0  0  0  0
    6.2405    4.8489  -12.4515 C   0  0  0  0  0  0  0  0  0  0  0  0
   10.5875    7.0617  -11.5321 C   0  0  0  0  0  0  0  0  0  0  0  0
   11.0960    7.6093  -10.4100 C   0  0  0  0  0  0  0  0  0  0  0  0
    8.4039    7.3336  -10.1102 C   0  0  0  0  0  0  0  0  0  0  0  0
    5.5911    3.3517  -12.3508 C   0  0  0  0  0  0  0  0  0  0  0  0
   12.6259    7.6530  -10.3901 C   0  0  0  0  0  0  0  0  0  0  0  0
   10.4284    7.7784   -9.2128 C   0  0  1  0  0  0  0  0  0  0  0  0
    9.2236    7.5051   -9.0617 C   0  0  2  0  0  0  0  0  0  0  0  0
    8.7145    7.3063   -7.7135 N   0  0  0  0  0  0  0  0  0  0  0  0
   11.0621    7.5242   -7.8430 C   0  0  2  0  0  0  0  0  0  0  0  0
   12.0213    8.4787   -7.3268 C   0  0  0  0  0  0  0  0  0  0  0  0
   13.1241    8.0749  -11.7293 C   0  0  0  0  0  0  0  0  0  0  0  0
   12.0504    9.6950   -7.9009 O   0  0  0  0  0  0  0  0  0  0  0  0
   11.5774    6.1709   -7.7149 C   0  0  0  0  0  0  0  0  0  0  0  0
   12.4092    8.5793   -6.0108 N   0  0  0  0  0  0  0  0  0  0  0  0
    9.7740    7.4525   -7.0369 C   0  0  2  0  0  0  0  0  0  0  0  0
   13.1999    9.6456   -5.4855 C   0  0  0  0  0  0  0  0  0  0  0  0
   12.4273    7.5356   -5.1801 C   0  0  0  0  0  0  0  0  0  0  0  0
   11.1901    7.0577   -4.7307 C   0  0  0  0  0  0  0  0  0  0  0  0
    9.6691    7.2045   -5.6319 C   0  0  0  0  0  0  0  0  0  0  0  0
  1  2  2  0  0  0  0
  1  4  1  0  0  0  0
  2  3  1  0  0  0  0
  2 31  1  0  0  0  0
  3  6  2  0  0  0  0
  3 21  1  0  0  0  0
  4  5  2  0  0  0  0
  5  6  1  0  0  0  0
  6  7  1  0  0  0  0
  7  8  1  0  0  0  0
  7 10  2  0  0  0  0
  8  9  1  0  0  0  0
  8 13  1  0  0  0  0
  9 11  1  0  0  0  0
  9 19  2  0  0  0  0
 10 14  1  0  0  0  0
 10 15  1  0  0  0  0
 11 12  1  0  0  0  0
 13 17  1  0  0  0  0
 13 20  2  0  0  0  0
 15 16  2  0  0  0  0
 15 17  1  0  0  0  0
 17 18  1  0  0  0  0
 18 24  1  0  0  0  0
 19 21  1  0  0  0  0
 19 23  1  0  0  0  0
 20 24  1  0  0  0  0
 21 22  2  0  0  0  0
 22 25  1  0  0  0  0
 25 31  2  0  0  0  0
 26 22  1  6  0  0  0
 26 27  1  0  0  0  0
 26 29  1  0  0  0  0
 27 23  1  6  0  0  0
 27 28  1  0  0  0  0
 28 35  1  0  0  0  0
 29 30  1  0  0  0  0
 29 33  1  6  0  0  0
 29 35  1  0  0  0  0
 30 32  2  0  0  0  0
 30 34  1  0  0  0  0
 34 36  1  0  0  0  0
 34 37  1  0  0  0  0
 35 39  1  1  0  0  0
 37 38  1  0  0  0  0
 38 39  1  0  0  0  0
M  END
$$$$

 OpenBabel10082411353D

 39 45  0  0  0  0  0  0  0  0999 V2000
   11.6836    6.0105   -4.8831 C   0  0  0  0  0  0  0  0  0  0  0  0
   11.1291    7.0732   -5.4395 C   0  0  0  0  0  0  0  0  0  0  0  0
   10.6954    7.0156   -6.8073 C   0  0  0  0  0  0  0  0  0  0  0  0
   10.2502    8.1187   -7.5536 C   0  0  2  0  0  0  0  0  0  0  0  0
   11.1205    8.4712   -4.9629 C   0  0  0  0  0  0  0  0  0  0  0  0
   10.8655    8.3511   -8.7960 C   0  0  0  0  0  0  0  0  0  0  0  0
   10.2922    7.8843   -9.9985 C   0  0  0  0  0  0  0  0  0  0  0  0
   10.4654    9.6993   -5.6120 C   0  0  0  0  0  0  0  0  0  0  0  0
   10.3510    9.5971   -7.0014 C   0  0  0  0  0  0  0  0  0  0  0  0
   12.2462    6.3351   -3.5020 C   0  0  0  0  0  0  0  0  0  0  0  0
   11.0471    7.5309  -11.1063 C   0  0  0  0  0  0  0  0  0  0  0  0
   11.7288    8.6923   -3.6518 C   0  0  0  0  0  0  0  0  0  0  0  0
   12.3991    7.7501  -11.1145 C   0  0  0  0  0  0  0  0  0  0  0  0
   12.3738    7.7580   -2.9599 C   0  0  0  0  0  0  0  0  0  0  0  0
   13.1285    8.5075  -10.1661 O   0  0  0  0  0  0  0  0  0  0  0  0
    9.0407    7.3775  -10.0973 N   0  0  0  0  0  0  0  0  0  0  0  0
    8.9787    6.9473  -11.4664 N   0  0  0  0  0  0  0  0  0  0  0  0
   13.1012    7.4459  -12.3707 C   0  0  0  0  0  0  0  0  0  0  0  0
   12.2395    6.9724  -13.2444 C   0  0  0  0  0  0  0  0  0  0  0  0
   10.2768    7.0170  -11.9799 C   0  0  0  0  0  0  0  0  0  0  0  0
   12.9237    6.5822  -14.5759 O   0  0  0  0  0  0  0  0  0  0  0  0
   10.8906    6.6526  -13.2252 C   0  0  0  0  0  0  0  0  0  0  0  0
   12.2396    6.1290  -15.6916 C   0  0  0  0  0  0  0  0  0  0  0  0
    7.8036    6.1825  -11.9342 C   0  0  0  0  0  0  0  0  0  0  0  0
   12.5015    4.7115  -15.7686 C   0  0  0  0  0  0  0  0  0  0  0  0
    7.1685    6.9992  -12.8245 C   0  0  0  0  0  0  0  0  0  0  0  0
   11.2461    3.8540  -15.4851 C   0  0  0  0  0  0  0  0  0  0  0  0
    7.6237    4.9154  -11.6529 C   0  0  0  0  0  0  0  0  0  0  0  0
    6.6378    4.1960  -12.2267 C   0  0  0  0  0  0  0  0  0  0  0  0
    6.2717    2.7675  -11.9743 C   0  0  0  0  0  0  0  0  0  0  0  0
    6.6569    1.8873  -12.9460 C   0  0  0  0  0  0  0  0  0  0  0  0
    7.3895    8.4597  -13.1785 C   0  0  0  0  0  0  0  0  0  0  0  0
    7.5497    2.2740  -13.9920 C   0  0  0  0  0  0  0  0  0  0  0  0
    8.3498    3.4496  -14.0257 C   0  0  0  0  0  0  0  0  0  0  0  0
   11.4430    2.5942  -15.6452 O   0  0  0  0  0  0  0  0  0  0  0  0
   10.2255    4.3894  -14.9171 N   0  0  0  0  0  0  0  0  0  0  0  0
    8.9744    3.7468  -14.8970 C   0  0  0  0  0  0  0  0  0  0  0  0
    8.7294    3.2706  -16.1291 O   0  0  0  0  0  0  0  0  0  0  0  0
    7.8626    4.3091  -12.9249 C   0  0  0  0  0  0  0  0  0  0  0  0
  1  2  1  0  0  0  0
  1 10  2  0  0  0  0
  2  3  1  0  0  0  0
  2  5  2  0  0  0  0
  3  4  1  0  0  0  0
  4  6  1  6  0  0  0
  4  9  1  0  0  0  0
  5  8  1  0  0  0  0
  5 12  1  0  0  0  0
  6  7  1  0  0  0  0
  7 11  1  0  0  0  0
  7 16  2  0  0  0  0
  8  9  1  0  0  0  0
 10 14  1  0  0  0  0
 11 13  2  0  0  0  0
 11 20  1  0  0  0  0
 12 14  2  0  0  0  0
 13 15  1  0  0  0  0
 13 18  1  0  0  0  0
 16 17  1  0  0  0  0
 17 20  1  0  0  0  0
 17 24  1  0  0  0  0
 18 19  2  0  0  0  0
 19 21  1  0  0  0  0
 19 22  1  0  0  0  0
 20 22  2  0  0  0  0
 21 23  1  0  0  0  0
 23 25  1  0  0  0  0
 24 26  2  3  0  0  0
 24 28  1  0  0  0  0
 25 27  1  0  0  0  0
 26 32  1  0  0  0  0
 27 35  2  0  0  0  0
 27 36  1  0  0  0  0
 28 29  2  3  0  0  0
 28 39  1  0  0  0  0
 29 30  1  0  0  0  0
 29 39  1  0  0  0  0
 30 31  1  0  0  0  0
 31 33  2  0  0  0  0
 33 34  1  0  0  0  0
 34 37  1  0  0  0  0
 34 39  2  3  0  0  0
 36 37  1  0  0  0  0
 37 38  2  0  0  0  0
M  END
$$$$

 OpenBabel10082411353D

 39 48  0  0  0  0  0  0  0  0999 V2000
    8.0806    9.0240  -12.7589 C   0  0  0  0  0  0  0  0  0  0  0  0
    8.6514    7.8645  -12.2948 C   0  0  0  0  0  0  0  0  0  0  0  0
    9.9575    7.9974  -11.8426 C   0  0  0  0  0  0  0  0  0  0  0  0
   10.7657    6.8667  -11.6050 C   0  0  1  0  0  0  0  0  0  0  0  0
   10.7682    5.9590  -12.8271 C   0  0  0  0  0  0  0  0  0  0  0  0
   12.1553    7.3846  -11.2315 C   0  0  0  0  0  0  0  0  0  0  0  0
    8.0676    6.6451  -12.2974 C   0  0  0  0  0  0  0  0  0  0  0  0
   10.1892    6.1240  -10.3860 C   0  0  0  0  0  0  0  0  0  0  0  0
   11.8375    5.4373  -13.3240 O   0  0  0  0  0  0  0  0  0  0  0  0
    8.6785    5.4761  -13.0273 C   0  0  1  0  0  0  0  0  0  0  0  0
    9.1969    5.2405  -10.4969 C   0  0  1  0  0  0  0  0  0  0  0  0
    7.2213    6.2210  -11.3074 C   0  0  1  0  0  0  0  0  0  0  0  0
   12.5590    7.6872   -9.9896 C   0  0  0  0  0  0  0  0  0  0  0  0
    9.7633    5.0333  -12.9720 C   0  0  1  0  0  0  0  0  0  0  0  0
   10.0661    4.0167  -14.0373 N   0  0  0  0  0  0  0  0  0  0  0  0
   13.6906    8.3004   -9.6233 O   0  0  0  0  0  0  0  0  0  0  0  0
    7.6357    4.5123  -12.6317 C   0  0  2  0  0  0  0  0  0  0  0  0
    6.8831    4.9171  -11.7031 C   0  0  0  0  0  0  0  0  0  0  0  0
   10.5937    6.6967   -9.1779 C   0  0  0  0  0  0  0  0  0  0  0  0
    9.5087    4.3263  -11.6925 C   0  0  2  0  0  0  0  0  0  0  0  0
   11.6359    7.4449   -8.9125 C   0  0  0  0  0  0  0  0  0  0  0  0
   11.9716    7.9159   -7.6200 C   0  0  0  0  0  0  0  0  0  0  0  0
    8.4648    3.6122  -12.2840 C   0  0  2  0  0  0  0  0  0  0  0  0
    9.3128    4.5571   -9.1689 C   0  0  0  0  0  0  0  0  0  0  0  0
   10.9557    7.6369   -6.5929 C   0  0  1  0  0  0  0  0  0  0  0  0
    9.6490    2.8108  -13.7776 C   0  0  1  0  0  0  0  0  0  0  0  0
    9.6716    6.1981   -8.0224 C   0  0  2  0  0  0  0  0  0  0  0  0
    8.5511    2.5400  -13.1402 C   0  0  0  0  0  0  0  0  0  0  0  0
    9.7877    2.0302  -15.0383 O   0  0  0  0  0  0  0  0  0  0  0  0
   10.2949    6.3957   -6.8142 C   0  0  0  0  0  0  0  0  0  0  0  0
   11.5672    7.6277   -5.2275 C   0  0  0  0  0  0  0  0  0  0  0  0
    9.0573    5.0713   -8.1077 N   0  0  0  0  0  0  0  0  0  0  0  0
    7.9299    5.6233  -10.5104 C   0  0  0  0  0  0  0  0  0  0  0  0
    9.9903    8.7848   -6.6105 C   0  0  0  0  0  0  0  0  0  0  0  0
   12.0300    8.8991   -4.6667 C   0  0  0  0  0  0  0  0  0  0  0  0
   12.4783    8.8826   -3.3398 C   0  0  0  0  0  0  0  0  0  0  0  0
   11.5907    6.5481   -4.4671 C   0  0  0  0  0  0  0  0  0  0  0  0
   12.2387    6.6436   -3.0012 C   0  0  0  0  0  0  0  0  0  0  0  0
   12.6174    7.8326   -2.5442 C   0  0  0  0  0  0  0  0  0  0  0  0
  1  2  1  0  0  0  0
  2  3  1  0  0  0  0
  2  7  2  0  0  0  0
  4  3  1  6  0  0  0
  4  5  1  0  0  0  0
  4  6  1  0  0  0  0
  4  8  1  0  0  0  0
  5  9  2  0  0  0  0
  6 13  1  0  0  0  0
  7 12  1  0  0  0  0
  8 11  1  0  0  0  0
  8 19  2  0  0  0  0
 10  7  1  1  0  0  0
 10 14  1  0  0  0  0
 10 17  1  0  0  0  0
 11 20  1  0  0  0  0
 11 24  1  1  0  0  0
 11 33  1  0  0  0  0
 12 18  1  6  0  0  0
 12 33  1  0  0  0  0
 13 16  2  0  0  0  0
 13 21  1  0  0  0  0
 14  5  1  1  0  0  0
 14 15  1  0  0  0  0
 14 20  1  0  0  0  0
 15 26  1  0  0  0  0
 17 18  1  1  0  0  0
 17 23  1  0  0  0  0
 19 21  1  0  0  0  0
 19 27  1  0  0  0  0
 20 23  1  0  0  0  0
 21 22  2  0  0  0  0
 22 25  1  0  0  0  0
 23 28  1  0  0  0  0
 24 32  2  0  0  0  0
 25 30  1  0  0  0  0
 25 31  1  0  0  0  0
 25 34  1  0  0  0  0
 26 28  1  0  0  0  0
 26 29  1  0  0  0  0
 27 30  1  0  0  0  0
 27 32  1  0  0  0  0
 31 35  1  0  0  0  0
 31 37  2  0  0  0  0
 35 36  2  0  0  0  0
 36 39  1  0  0  0  0
 37 38  1  0  0  0  0
 38 39  2  0  0  0  0
M  END
$$$$

 OpenBabel10082411353D

 26 28  0  0  0  0  0  0  0  0999 V2000
   12.8881    8.7759   -3.5681 C   0  0  0  0  0  0  0  0  0  0  0  0
   11.9416    9.4732   -4.1220 C   0  0  0  0  0  0  0  0  0  0  0  0
   12.3556    7.6012   -2.6527 C   0  0  0  0  0  0  0  0  0  0  0  0
   11.8805    9.3400   -5.6557 C   0  0  0  0  0  0  0  0  0  0  0  0
   11.7716    6.5414   -3.3821 C   0  0  0  0  0  0  0  0  0  0  0  0
   10.8523    8.6585   -6.3310 C   0  0  0  0  0  0  0  0  0  0  0  0
   11.1142    8.2520   -7.7289 C   0  0  0  0  0  0  0  0  0  0  0  0
   10.0478    7.6568   -8.4887 C   0  0  0  0  0  0  0  0  0  0  0  0
   12.3648    8.4339   -8.3703 C   0  0  0  0  0  0  0  0  0  0  0  0
   12.6142    8.1352   -9.7322 C   0  0  0  0  0  0  0  0  0  0  0  0
   10.2852    7.3833   -9.9138 C   0  0  0  0  0  0  0  0  0  0  0  0
   11.5161    7.5808  -10.4860 C   0  0  0  0  0  0  0  0  0  0  0  0
   11.6641    7.2285  -11.8174 O   0  0  0  0  0  0  0  0  0  0  0  0
   10.8624    6.4419  -12.4395 C   0  0  0  0  0  0  0  0  0  0  0  0
   11.2693    5.8267  -13.4966 C   0  0  0  0  0  0  0  0  0  0  0  0
    9.5259    6.2192  -11.9953 C   0  0  0  0  0  0  0  0  0  0  0  0
    9.2551    6.6732  -10.5921 C   0  0  2  0  0  0  0  0  0  0  0  0
    8.1388    7.5201  -10.6434 O   0  0  0  0  0  0  0  0  0  0  0  0
   12.6263    6.1828  -14.1606 C   0  0  0  0  0  0  0  0  0  0  0  0
   10.5060    4.8097  -14.1219 C   0  0  0  0  0  0  0  0  0  0  0  0
   12.6450    7.4378  -14.7214 C   0  0  0  0  0  0  0  0  0  0  0  0
    8.7396    5.2583  -12.5420 C   0  0  0  0  0  0  0  0  0  0  0  0
    8.2551    8.6972  -11.3760 C   0  0  0  0  0  0  0  0  0  0  0  0
   10.9108    4.0830  -15.3397 C   0  0  0  0  0  0  0  0  0  0  0  0
    9.1904    4.5985  -13.6927 C   0  0  0  0  0  0  0  0  0  0  0  0
   11.7540    2.9847  -14.9973 C   0  0  0  0  0  0  0  0  0  0  0  0
  1  2  1  0  0  0  0
  1  3  1  0  0  0  0
  2  4  1  0  0  0  0
  3  5  1  0  0  0  0
  4  6  1  0  0  0  0
  6  7  1  0  0  0  0
  7  8  1  0  0  0  0
  7  9  2  0  0  0  0
  8 11  2  0  0  0  0
  9 10  1  0  0  0  0
 10 12  2  0  0  0  0
 11 12  1  0  0  0  0
 11 17  1  0  0  0  0
 12 13  1  0  0  0  0
 13 14  1  0  0  0  0
 14 15  2  0  0  0  0
 14 16  1  0  0  0  0
 15 19  1  0  0  0  0
 15 20  1  0  0  0  0
 16 17  1  0  0  0  0
 16 22  2  0  0  0  0
 17 18  1  6  0  0  0
 18 23  1  0  0  0  0
 19 21  1  0  0  0  0
 20 24  1  0  0  0  0
 20 25  2  0  0  0  0
 22 25  1  0  0  0  0
 24 26  1  0  0  0  0
M  END
$$$$

 OpenBabel10082411353D

 39 43  0  0  0  0  0  0  0  0999 V2000
   11.6836    6.0105   -4.8831 F   0  0  0  0  0  0  0  0  0  0  0  0
   11.2562    7.2206   -5.0294 C   0  0  0  0  0  0  0  0  0  0  0  0
   12.0125    8.2418   -4.4408 C   0  0  0  0  0  0  0  0  0  0  0  0
   11.1918    7.2706   -6.5237 C   0  0  0  0  0  0  0  0  0  0  0  0
   11.6999    8.4488   -3.1704 F   0  0  0  0  0  0  0  0  0  0  0  0
    9.8648    7.0908   -4.5314 F   0  0  0  0  0  0  0  0  0  0  0  0
   11.6831    8.5291   -6.9682 C   0  0  0  0  0  0  0  0  0  0  0  0
   10.4785    6.5189   -7.4033 C   0  0  0  0  0  0  0  0  0  0  0  0
   11.6979    8.6661   -8.4760 C   0  0  0  0  0  0  0  0  0  0  0  0
   11.6248    9.5853   -5.0030 C   0  0  0  0  0  0  0  0  0  0  0  0
   11.8604    9.7907   -6.2903 O   0  0  0  0  0  0  0  0  0  0  0  0
   13.3557    8.1748   -4.5947 F   0  0  0  0  0  0  0  0  0  0  0  0
   10.5427    6.6061   -8.7190 C   0  0  0  0  0  0  0  0  0  0  0  0
   11.1158    7.7103   -9.2540 C   0  0  0  0  0  0  0  0  0  0  0  0
   11.3757    7.6656  -10.5293 N   0  0  0  0  0  0  0  0  0  0  0  0
   10.7153    7.7096  -11.5405 C   0  0  0  0  0  0  0  0  0  0  0  0
   11.2483    7.4711  -12.8542 C   0  0  0  0  0  0  0  0  0  0  0  0
    9.3980    7.7820  -11.5398 C   0  0  0  0  0  0  0  0  0  0  0  0
    8.6055    7.5889  -12.6525 C   0  0  0  0  0  0  0  0  0  0  0  0
   12.7508    7.3705  -13.0162 O   0  0  0  0  0  0  0  0  0  0  0  0
   10.5299    7.1831  -13.9856 C   0  0  0  0  0  0  0  0  0  0  0  0
    7.0533    7.7371  -12.5396 C   0  0  0  0  0  0  0  0  0  0  0  0
   11.2041    6.8490  -15.2304 C   0  0  0  0  0  0  0  0  0  0  0  0
   11.6393    5.5333  -15.3864 C   0  0  0  0  0  0  0  0  0  0  0  0
    9.1955    7.2935  -13.8301 C   0  0  0  0  0  0  0  0  0  0  0  0
   12.5294    5.1116  -16.1609 C   0  0  0  0  0  0  0  0  0  0  0  0
   11.2315    4.4703  -14.3200 C   0  0  0  0  0  0  0  0  0  0  0  0
   13.0194    6.0876  -17.1697 C   0  0  0  0  0  0  0  0  0  0  0  0
   12.9874    3.8316  -16.1456 C   0  0  0  0  0  0  0  0  0  0  0  0
   12.3949    2.9126  -15.4671 C   0  0  0  0  0  0  0  0  0  0  0  0
   10.2274    4.8149  -13.2643 C   0  0  0  0  0  0  0  0  0  0  0  0
    8.9564    4.3798  -13.5553 C   0  0  0  0  0  0  0  0  0  0  0  0
    8.7042    3.2659  -14.2465 C   0  0  0  0  0  0  0  0  0  0  0  0
   11.4148    3.2767  -14.5206 C   0  0  0  0  0  0  0  0  0  0  0  0
    8.0769    4.5652  -12.3451 C   0  0  0  0  0  0  0  0  0  0  0  0
    6.8532    4.1363  -12.5398 C   0  0  0  0  0  0  0  0  0  0  0  0
    7.3789    2.7275  -14.1356 C   0  0  0  0  0  0  0  0  0  0  0  0
    7.0198    1.7155  -15.1610 O   0  0  0  0  0  0  0  0  0  0  0  0
    6.4521    3.1521  -13.3017 C   0  0  0  0  0  0  0  0  0  0  0  0
  1  2  1  0  0  0  0
  2  3  1  0  0  0  0
  2  4  1  0  0  0  0
  2  6  1  0  0  0  0
  3  5  1  0  0  0  0
  3 10  1  0  0  0  0
  3 12  1  0  0  0  0
  4  7  1  0  0  0  0
  4  8  2  0  0  0  0
  7  9  2  0  0  0  0
  7 11  1  0  0  0  0
  8 13  1  0  0  0  0
  9 14  1  0  0  0  0
 10 11  1  0  0  0  0
 13 14  2  0  0  0  0
 14 15  1  0  0  0  0
 15 16  1  0  0  0  0
 16 17  1  0  0  0  0
 16 18  2  0  0  0  0
 17 20  1  0  0  0  0
 17 21  2  0  0  0  0
 18 19  1  0  0  0  0
 19 22  1  0  0  0  0
 19 25  2  0  0  0  0
 21 23  1  0  0  0  0
 21 25  1  0  0  0  0
 23 24  1  0  0  0  0
 24 26  2  0  0  0  0
 24 27  1  0  0  0  0
 26 28  1  0  0  0  0
 26 29  1  0  0  0  0
 27 31  1  0  0  0  0
 27 34  2  0  0  0  0
 29 30  2  0  0  0  0
 30 34  1  0  0  0  0
 31 32  2  3  0  0  0
 32 33  1  0  0  0  0
 32 35  1  0  0  0  0
 33 37  2  0  0  0  0
 35 36  2  0  0  0  0
 36 39  1  0  0  0  0
 37 38  1  0  0  0  0
 37 39  1  0  0  0  0
M  END
$$$$

 OpenBabel10082411353D

 39 43  0  0  0  0  0  0  0  0999 V2000
   11.6836    6.0105   -4.8831 F   0  0  0  0  0  0  0  0  0  0  0  0
   11.2562    7.2206   -5.0294 C   0  0  0  0  0  0  0  0  0  0  0  0
   12.0125    8.2418   -4.4408 C   0  0  0  0  0  0  0  0  0  0  0  0
   11.1918    7.2706   -6.5237 C   0  0  0  0  0  0  0  0  0  0  0  0
   11.6999    8.4488   -3.1704 F   0  0  0  0  0  0  0  0  0  0  0  0
    9.8648    7.0908   -4.5314 F   0  0  0  0  0  0  0  0  0  0  0  0
   11.6831    8.5291   -6.9682 C   0  0  0  0  0  0  0  0  0  0  0  0
   10.4785    6.5189   -7.4033 C   0  0  0  0  0  0  0  0  0  0  0  0
   11.6979    8.6661   -8.4760 C   0  0  0  0  0  0  0  0  0  0  0  0
   11.6248    9.5853   -5.0030 C   0  0  0  0  0  0  0  0  0  0  0  0
   11.8604    9.7907   -6.2903 O   0  0  0  0  0  0  0  0  0  0  0  0
   13.3557    8.1748   -4.5947 F   0  0  0  0  0  0  0  0  0  0  0  0
   10.5427    6.6061   -8.7190 C   0  0  0  0  0  0  0  0  0  0  0  0
   11.1158    7.7103   -9.2540 C   0  0  0  0  0  0  0  0  0  0  0  0
   11.3757    7.6656  -10.5293 N   0  0  0  0  0  0  0  0  0  0  0  0
   10.7153    7.7096  -11.5405 C   0  0  0  0  0  0  0  0  0  0  0  0
   11.2483    7.4711  -12.8542 C   0  0  0  0  0  0  0  0  0  0  0  0
    9.3980    7.7820  -11.5398 C   0  0  0  0  0  0  0  0  0  0  0  0
    8.6055    7.5889  -12.6525 C   0  0  0  0  0  0  0  0  0  0  0  0
   12.7508    7.3705  -13.0162 O   0  0  0  0  0  0  0  0  0  0  0  0
   10.5299    7.1831  -13.9856 C   0  0  0  0  0  0  0  0  0  0  0  0
    7.0533    7.7371  -12.5396 C   0  0  0  0  0  0  0  0  0  0  0  0
   11.2041    6.8490  -15.2304 C   0  0  0  0  0  0  0  0  0  0  0  0
   11.6393    5.5333  -15.3864 C   0  0  0  0  0  0  0  0  0  0  0  0
    9.1955    7.2935  -13.8301 C   0  0  0  0  0  0  0  0  0  0  0  0
   12.5294    5.1116  -16.1609 C   0  0  0  0  0  0  0  0  0  0  0  0
   11.2315    4.4703  -14.3200 C   0  0  0  0  0  0  0  0  0  0  0  0
   10.2844    4.5821  -13.3000 C   0  0  0  0  0  0  0  0  0  0  0  0
   11.6270    3.1866  -14.6052 C   0  0  0  0  0  0  0  0  0  0  0  0
    9.0868    3.8289  -13.3080 C   0  0  0  0  0  0  0  0  0  0  0  0
   11.3420    2.7039  -15.8535 C   0  0  0  0  0  0  0  0  0  0  0  0
    8.3582    4.0400  -12.0395 C   0  0  0  0  0  0  0  0  0  0  0  0
   13.0053    6.2224  -17.1322 C   0  0  0  0  0  0  0  0  0  0  0  0
   12.3338    3.1792  -16.8738 C   0  0  0  0  0  0  0  0  0  0  0  0
   12.9752    4.2391  -16.7963 C   0  0  0  0  0  0  0  0  0  0  0  0
    6.9632    3.7291  -12.2279 C   0  0  0  0  0  0  0  0  0  0  0  0
    6.4159    2.9682  -13.0981 C   0  0  0  0  0  0  0  0  0  0  0  0
    7.2437    2.8826  -14.2936 C   0  0  0  0  0  0  0  0  0  0  0  0
    8.4949    3.3234  -14.3546 C   0  0  0  0  0  0  0  0  0  0  0  0
  1  2  1  0  0  0  0
  2  3  1  0  0  0  0
  2  4  1  0  0  0  0
  2  6  1  0  0  0  0
  3  5  1  0  0  0  0
  3 10  1  0  0  0  0
  3 12  1  0  0  0  0
  4  7  1  0  0  0  0
  4  8  2  0  0  0  0
  7  9  2  0  0  0  0
  7 11  1  0  0  0  0
  8 13  1  0  0  0  0
  9 14  1  0  0  0  0
 10 11  1  0  0  0  0
 13 14  2  0  0  0  0
 14 15  1  0  0  0  0
 15 16  1  0  0  0  0
 16 17  1  0  0  0  0
 16 18  2  0  0  0  0
 17 20  1  0  0  0  0
 17 21  2  0  0  0  0
 18 19  1  0  0  0  0
 19 22  1  0  0  0  0
 19 25  2  0  0  0  0
 21 23  1  0  0  0  0
 21 25  1  0  0  0  0
 23 24  1  0  0  0  0
 24 26  2  0  0  0  0
 24 27  1  0  0  0  0
 26 33  1  0  0  0  0
 26 35  1  0  0  0  0
 27 28  1  0  0  0  0
 27 29  2  0  0  0  0
 28 30  2  3  0  0  0
 29 31  1  0  0  0  0
 30 32  1  0  0  0  0
 30 39  1  0  0  0  0
 31 34  1  0  0  0  0
 32 36  2  0  0  0  0
 34 35  1  0  0  0  0
 36 37  1  0  0  0  0
 37 38  2  0  0  0  0
 38 39  1  0  0  0  0
M  END
$$$$

 OpenBabel10082411353D

 39 43  0  0  0  0  0  0  0  0999 V2000
   11.6836    6.0105   -4.8831 F   0  0  0  0  0  0  0  0  0  0  0  0
   11.2562    7.2206   -5.0294 C   0  0  0  0  0  0  0  0  0  0  0  0
   12.0125    8.2418   -4.4408 C   0  0  0  0  0  0  0  0  0  0  0  0
   11.1918    7.2706   -6.5237 C   0  0  0  0  0  0  0  0  0  0  0  0
   11.6999    8.4488   -3.1704 F   0  0  0  0  0  0  0  0  0  0  0  0
    9.8648    7.0908   -4.5314 F   0  0  0  0  0  0  0  0  0  0  0  0
   11.6831    8.5291   -6.9682 C   0  0  0  0  0  0  0  0  0  0  0  0
   10.4785    6.5189   -7.4033 C   0  0  0  0  0  0  0  0  0  0  0  0
   11.6979    8.6661   -8.4760 C   0  0  0  0  0  0  0  0  0  0  0  0
   11.6248    9.5853   -5.0030 C   0  0  0  0  0  0  0  0  0  0  0  0
   11.8604    9.7907   -6.2903 O   0  0  0  0  0  0  0  0  0  0  0  0
   13.3557    8.1748   -4.5947 F   0  0  0  0  0  0  0  0  0  0  0  0
   10.5427    6.6061   -8.7190 C   0  0  0  0  0  0  0  0  0  0  0  0
   11.1158    7.7103   -9.2540 C   0  0  0  0  0  0  0  0  0  0  0  0
   11.3757    7.6656  -10.5293 N   0  0  0  0  0  0  0  0  0  0  0  0
   10.7153    7.7096  -11.5405 C   0  0  0  0  0  0  0  0  0  0  0  0
   11.2483    7.4711  -12.8542 C   0  0  0  0  0  0  0  0  0  0  0  0
    9.3980    7.7820  -11.5398 C   0  0  0  0  0  0  0  0  0  0  0  0
    8.6055    7.5889  -12.6525 C   0  0  0  0  0  0  0  0  0  0  0  0
   12.7508    7.3705  -13.0162 O   0  0  0  0  0  0  0  0  0  0  0  0
   10.5299    7.1831  -13.9856 C   0  0  0  0  0  0  0  0  0  0  0  0
    7.0533    7.7371  -12.5396 C   0  0  0  0  0  0  0  0  0  0  0  0
   11.2041    6.8490  -15.2304 C   0  0  0  0  0  0  0  0  0  0  0  0
   11.6393    5.5333  -15.3864 C   0  0  0  0  0  0  0  0  0  0  0  0
    9.1955    7.2935  -13.8301 C   0  0  0  0  0  0  0  0  0  0  0  0
   12.5294    5.1116  -16.1609 C   0  0  0  0  0  0  0  0  0  0  0  0
   11.2315    4.4703  -14.3200 C   0  0  0  0  0  0  0  0  0  0  0  0
   10.2844    4.5821  -13.3000 C   0  0  0  0  0  0  0  0  0  0  0  0
   11.6270    3.1866  -14.6052 C   0  0  0  0  0  0  0  0  0  0  0  0
    9.0868    3.8289  -13.3080 C   0  0  0  0  0  0  0  0  0  0  0  0
    8.1007    4.0948  -12.4103 C   0  0  0  0  0  0  0  0  0  0  0  0
    6.8410    3.6347  -12.6829 C   0  0  0  0  0  0  0  0  0  0  0  0
   12.9624    6.1826  -17.2150 C   0  0  0  0  0  0  0  0  0  0  0  0
   11.1536    2.1160  -13.7692 F   0  0  0  0  0  0  0  0  0  0  0  0
   12.3467    2.9855  -15.4534 C   0  0  0  0  0  0  0  0  0  0  0  0
    6.6627    2.6322  -13.6665 C   0  0  0  0  0  0  0  0  0  0  0  0
    8.9928    2.5640  -14.2143 C   0  0  0  0  0  0  0  0  0  0  0  0
   12.8227    3.8567  -16.3576 C   0  0  0  0  0  0  0  0  0  0  0  0
    7.8740    2.0913  -14.3221 C   0  0  0  0  0  0  0  0  0  0  0  0
  1  2  1  0  0  0  0
  2  3  1  0  0  0  0
  2  4  1  0  0  0  0
  2  6  1  0  0  0  0
  3  5  1  0  0  0  0
  3 10  1  0  0  0  0
  3 12  1  0  0  0  0
  4  7  1  0  0  0  0
  4  8  2  0  0  0  0
  7  9  2  0  0  0  0
  7 11  1  0  0  0  0
  8 13  1  0  0  0  0
  9 14  1  0  0  0  0
 10 11  1  0  0  0  0
 13 14  2  0  0  0  0
 14 15  1  0  0  0  0
 15 16  1  0  0  0  0
 16 17  1  0  0  0  0
 16 18  2  0  0  0  0
 17 20  1  0  0  0  0
 17 21  2  0  0  0  0
 18 19  1  0  0  0  0
 19 22  1  0  0  0  0
 19 25  2  0  0  0  0
 21 23  1  0  0  0  0
 21 25  1  0  0  0  0
 23 24  1  0  0  0  0
 24 26  2  0  0  0  0
 24 27  1  0  0  0  0
 26 33  1  0  0  0  0
 26 38  1  0  0  0  0
 27 28  1  0  0  0  0
 27 29  2  0  0  0  0
 28 30  2  3  0  0  0
 29 34  1  0  0  0  0
 29 35  1  0  0  0  0
 30 31  1  0  0  0  0
 30 37  1  0  0  0  0
 31 32  2  0  0  0  0
 32 36  1  0  0  0  0
 35 38  2  0  0  0  0
 36 39  1  0  0  0  0
 37 39  1  0  0  0  0
M  END
$$$$

 OpenBabel10082411353D

 39 44  0  0  0  0  0  0  0  0999 V2000
   10.9951    9.9694   -4.9946 C   0  0  0  0  0  0  0  0  0  0  0  0
   11.7938    9.3762   -4.2463 C   0  0  0  0  0  0  0  0  0  0  0  0
   10.8673    9.4548   -6.4276 C   0  0  0  0  0  0  0  0  0  0  0  0
   11.6576    7.9117   -4.2944 C   0  0  0  0  0  0  0  0  0  0  0  0
   10.5498    8.0257   -6.4521 C   0  0  0  0  0  0  0  0  0  0  0  0
   11.4715    7.2752   -5.6166 C   0  0  0  0  0  0  0  0  0  0  0  0
   10.5840    7.5390   -7.9254 C   0  0  0  0  0  0  0  0  0  0  0  0
   11.4612    8.1494   -8.8322 C   0  0  0  0  0  0  0  0  0  0  0  0
   12.6250    8.6294   -8.4338 O   0  0  0  0  0  0  0  0  0  0  0  0
   11.0835    8.4395  -10.0740 O   0  0  0  0  0  0  0  0  0  0  0  0
   11.2938    7.5612  -11.0769 C   0  0  0  0  0  0  0  0  0  0  0  0
   10.1547    7.2525  -11.9492 C   0  0  0  0  0  0  0  0  0  0  0  0
   10.4293    6.5622  -13.1348 C   0  0  0  0  0  0  0  0  0  0  0  0
   11.7295    6.4217  -13.6243 C   0  0  0  0  0  0  0  0  0  0  0  0
    8.8120    7.3918  -11.4649 C   0  0  0  0  0  0  0  0  0  0  0  0
   12.5351    7.8894  -11.6869 C   0  0  0  0  0  0  0  0  0  0  0  0
   13.5778    8.4243  -10.9673 O   0  0  0  0  0  0  0  0  0  0  0  0
    7.7211    7.1761  -12.4323 C   0  0  0  0  0  0  0  0  0  0  0  0
   12.8103    7.0723  -12.8897 C   0  0  0  0  0  0  0  0  0  0  0  0
    7.0543    5.9667  -12.3369 C   0  0  0  0  0  0  0  0  0  0  0  0
    7.2392    8.1844  -13.1320 C   0  0  0  0  0  0  0  0  0  0  0  0
    6.6882    5.3848  -13.5016 O   0  0  0  0  0  0  0  0  0  0  0  0
    6.5103    5.5543  -11.3870 O   0  0  0  0  0  0  0  0  0  0  0  0
    7.4031    4.0506  -13.7852 C   0  0  0  0  0  0  0  0  0  0  0  0
    8.6811    3.9966  -14.1333 C   0  0  0  0  0  0  0  0  0  0  0  0
   12.0732    5.6649  -14.9357 C   0  0  0  0  0  0  0  0  0  0  0  0
    6.5842    3.0104  -13.4449 C   0  0  0  0  0  0  0  0  0  0  0  0
   12.1810    6.3505  -15.9550 C   0  0  0  0  0  0  0  0  0  0  0  0
   12.4265    5.3943  -17.1098 C   0  0  0  0  0  0  0  0  0  0  0  0
   12.0808    4.3115  -14.6805 C   0  0  0  0  0  0  0  0  0  0  0  0
    5.1772    3.2038  -12.9749 C   0  0  0  0  0  0  0  0  0  0  0  0
   11.7401    3.5786  -13.4028 C   0  0  0  0  0  0  0  0  0  0  0  0
    7.1932    1.7609  -13.6079 C   0  0  0  0  0  0  0  0  0  0  0  0
   12.3142    4.1658  -16.8475 C   0  0  0  0  0  0  0  0  0  0  0  0
    9.2052    2.7641  -14.3200 C   0  0  0  0  0  0  0  0  0  0  0  0
    8.4704    1.6543  -14.0145 C   0  0  0  0  0  0  0  0  0  0  0  0
   10.6491    2.6208  -14.7303 N   0  0  0  0  0  0  0  0  0  0  0  0
   12.1214    3.5890  -15.7934 C   0  0  0  0  0  0  0  0  0  0  0  0
   11.4939    2.3297  -15.4846 C   0  0  0  0  0  0  0  0  0  0  0  0
  1  2  1  0  0  0  0
  1  3  1  0  0  0  0
  2  4  1  0  0  0  0
  3  5  1  0  0  0  0
  4  6  1  0  0  0  0
  5  6  1  0  0  0  0
  5  7  1  0  0  0  0
  7  8  1  0  0  0  0
  8  9  2  0  0  0  0
  8 10  1  0  0  0  0
 10 11  1  0  0  0  0
 11 12  1  0  0  0  0
 11 16  2  0  0  0  0
 12 13  2  0  0  0  0
 12 15  1  0  0  0  0
 13 14  1  0  0  0  0
 14 19  2  0  0  0  0
 14 26  1  0  0  0  0
 15 18  1  0  0  0  0
 16 17  1  0  0  0  0
 16 19  1  0  0  0  0
 18 20  1  0  0  0  0
 18 21  2  0  0  0  0
 20 22  1  0  0  0  0
 20 23  2  0  0  0  0
 22 24  1  0  0  0  0
 24 25  1  0  0  0  0
 24 27  2  0  0  0  0
 25 35  2  0  0  0  0
 26 28  2  0  0  0  0
 26 30  1  0  0  0  0
 27 31  1  0  0  0  0
 27 33  1  0  0  0  0
 28 29  1  0  0  0  0
 29 34  2  0  0  0  0
 30 32  1  0  0  0  0
 30 38  2  0  0  0  0
 32 37  1  0  0  0  0
 33 36  2  0  0  0  0
 34 38  1  0  0  0  0
 35 36  1  0  0  0  0
 35 37  1  0  0  0  0
 37 39  1  0  0  0  0
 38 39  1  0  0  0  0
M  END
$$$$

 OpenBabel10082411353D

 39 46  0  0  0  0  0  0  0  0999 V2000
   12.7863    7.8241  -14.2109 C   0  0  0  0  0  0  0  0  0  0  0  0
   12.4233    7.7158  -13.0289 C   0  0  0  0  0  0  0  0  0  0  0  0
   11.3194    6.8571  -12.8028 C   0  0  0  0  0  0  0  0  0  0  0  0
   12.3150    7.2021  -15.3582 C   0  0  0  0  0  0  0  0  0  0  0  0
   11.2733    6.2739  -15.1502 C   0  0  0  0  0  0  0  0  0  0  0  0
   10.8099    6.0126  -13.8600 C   0  0  0  0  0  0  0  0  0  0  0  0
    9.6782    5.1428  -13.6488 C   0  0  0  0  0  0  0  0  0  0  0  0
    8.5753    5.3880  -12.9589 N   0  0  0  0  0  0  0  0  0  0  0  0
    8.3226    6.7011  -12.3862 C   0  0  0  0  0  0  0  0  0  0  0  0
    9.8502    3.8578  -14.0728 C   0  0  0  0  0  0  0  0  0  0  0  0
    7.3864    7.4720  -13.0530 C   0  0  0  0  0  0  0  0  0  0  0  0
    6.2412    7.8486  -12.2599 C   0  0  0  0  0  0  0  0  0  0  0  0
    7.6425    4.4186  -12.7943 C   0  0  0  0  0  0  0  0  0  0  0  0
   11.0297    3.2482  -14.8053 C   0  0  0  0  0  0  0  0  0  0  0  0
    8.6802    2.8955  -13.7960 C   0  0  0  0  0  0  0  0  0  0  0  0
    8.8565    1.5917  -14.3582 O   0  0  0  0  0  0  0  0  0  0  0  0
    7.6903    3.2226  -13.1994 N   0  0  0  0  0  0  0  0  0  0  0  0
    6.5724    2.3444  -12.8378 C   0  0  0  0  0  0  0  0  0  0  0  0
    9.0225    7.0353  -11.3259 C   0  0  0  0  0  0  0  0  0  0  0  0
    6.2405    4.8489  -12.4515 C   0  0  0  0  0  0  0  0  0  0  0  0
   10.5875    7.0617  -11.5321 C   0  0  0  0  0  0  0  0  0  0  0  0
   11.0960    7.6093  -10.4100 C   0  0  0  0  0  0  0  0  0  0  0  0
    8.4039    7.3336  -10.1102 C   0  0  0  0  0  0  0  0  0  0  0  0
   10.6086    7.8156   -9.1888 C   0  0  0  0  0  0  0  0  0  0  0  0
    9.3113    7.5527   -9.2022 C   0  0  0  0  0  0  0  0  0  0  0  0
    5.5868    3.4174  -12.3561 C   0  0  0  0  0  0  0  0  0  0  0  0
    8.7252    7.9330   -7.6242 C   0  0  0  0  0  0  0  0  0  0  0  0
   11.1859    8.0862   -7.9601 C   0  0  0  0  0  0  0  0  0  0  0  0
   12.7495    8.2704   -8.0174 C   0  0  0  0  0  0  0  0  0  0  0  0
   10.4493    8.2542   -6.7750 C   0  0  2  0  0  0  0  0  0  0  0  0
    9.2142    8.3462   -6.7539 C   0  0  0  0  0  0  0  0  0  0  0  0
   11.4483    9.0676   -5.7294 C   0  0  1  0  0  0  0  0  0  0  0  0
   10.5479    6.9328   -5.7137 C   0  0  1  0  0  0  0  0  0  0  0  0
   13.0940    9.3998   -7.2782 C   0  0  0  0  0  0  0  0  0  0  0  0
   12.8182    9.2697   -5.8803 C   0  0  0  0  0  0  0  0  0  0  0  0
   10.7663   10.5076   -5.8947 C   0  0  0  0  0  0  0  0  0  0  0  0
   11.4445    5.9218   -5.8343 O   0  0  0  0  0  0  0  0  0  0  0  0
   10.8385    7.3340   -4.4117 O   0  0  0  0  0  0  0  0  0  0  0  0
   11.4442    8.6669   -4.2723 C   0  0  0  0  0  0  0  0  0  0  0  0
  1  2  2  0  0  0  0
  1  4  1  0  0  0  0
  2  3  1  0  0  0  0
  3  6  2  0  0  0  0
  3 21  1  0  0  0  0
  4  5  2  0  0  0  0
  5  6  1  0  0  0  0
  6  7  1  0  0  0  0
  7  8  1  0  0  0  0
  7 10  2  0  0  0  0
  8  9  1  0  0  0  0
  8 13  1  0  0  0  0
  9 11  1  0  0  0  0
  9 19  2  0  0  0  0
 10 14  1  0  0  0  0
 10 15  1  0  0  0  0
 11 12  1  0  0  0  0
 13 17  1  0  0  0  0
 13 20  2  0  0  0  0
 15 16  2  0  0  0  0
 15 17  1  0  0  0  0
 17 18  1  0  0  0  0
 18 26  2  0  0  0  0
 19 21  1  0  0  0  0
 19 23  1  0  0  0  0
 20 26  1  0  0  0  0
 21 22  2  0  0  0  0
 22 24  1  0  0  0  0
 23 25  2  0  0  0  0
 24 25  1  0  0  0  0
 24 28  2  0  0  0  0
 25 27  1  0  0  0  0
 27 31  2  0  0  0  0
 28 29  1  0  0  0  0
 28 30  1  0  0  0  0
 29 34  1  0  0  0  0
 30 31  1  6  0  0  0
 30 32  1  0  0  0  0
 30 33  1  0  0  0  0
 32 35  1  0  0  0  0
 32 36  1  1  0  0  0
 32 39  1  0  0  0  0
 33 37  1  6  0  0  0
 33 38  1  0  0  0  0
 34 35  1  0  0  0  0
 38 39  1  0  0  0  0
M  END
$$$$

 OpenBabel10082411353D

 39 46  0  0  0  0  0  0  0  0999 V2000
   11.6836    6.0105   -4.8831 C   0  0  0  0  0  0  0  0  0  0  0  0
   11.1291    7.0732   -5.4395 C   0  0  0  0  0  0  0  0  0  0  0  0
   10.6954    7.0156   -6.8073 C   0  0  0  0  0  0  0  0  0  0  0  0
   10.2502    8.1187   -7.5536 C   0  0  2  0  0  0  0  0  0  0  0  0
   11.1205    8.4712   -4.9629 C   0  0  0  0  0  0  0  0  0  0  0  0
   10.8655    8.3511   -8.7960 C   0  0  0  0  0  0  0  0  0  0  0  0
   10.2922    7.8843   -9.9985 C   0  0  0  0  0  0  0  0  0  0  0  0
   10.4654    9.6993   -5.6120 C   0  0  0  0  0  0  0  0  0  0  0  0
   10.3510    9.5971   -7.0014 C   0  0  0  0  0  0  0  0  0  0  0  0
   12.2462    6.3351   -3.5020 C   0  0  0  0  0  0  0  0  0  0  0  0
   11.0471    7.5309  -11.1063 C   0  0  0  0  0  0  0  0  0  0  0  0
   11.7288    8.6923   -3.6518 C   0  0  0  0  0  0  0  0  0  0  0  0
   12.3991    7.7501  -11.1145 C   0  0  0  0  0  0  0  0  0  0  0  0
   12.3738    7.7580   -2.9599 C   0  0  0  0  0  0  0  0  0  0  0  0
   13.1285    8.5075  -10.1661 O   0  0  0  0  0  0  0  0  0  0  0  0
    9.0407    7.3775  -10.0973 N   0  0  0  0  0  0  0  0  0  0  0  0
    8.9787    6.9473  -11.4664 N   0  0  0  0  0  0  0  0  0  0  0  0
   13.1012    7.4459  -12.3707 C   0  0  0  0  0  0  0  0  0  0  0  0
   12.2395    6.9724  -13.2444 C   0  0  0  0  0  0  0  0  0  0  0  0
   10.2768    7.0170  -11.9799 C   0  0  0  0  0  0  0  0  0  0  0  0
   12.9237    6.5822  -14.5759 O   0  0  0  0  0  0  0  0  0  0  0  0
   10.8906    6.6526  -13.2252 C   0  0  0  0  0  0  0  0  0  0  0  0
   12.2396    6.1290  -15.6916 C   0  0  0  0  0  0  0  0  0  0  0  0
    7.7368    6.4514  -12.0707 C   0  0  0  0  0  0  0  0  0  0  0  0
    7.1353    7.2872  -12.8105 C   0  0  0  0  0  0  0  0  0  0  0  0
    7.6622    5.0135  -12.1225 C   0  0  0  0  0  0  0  0  0  0  0  0
   12.5092    4.6950  -15.8147 C   0  0  0  0  0  0  0  0  0  0  0  0
    5.9403    6.5840  -13.2897 C   0  0  0  0  0  0  0  0  0  0  0  0
   11.2738    3.8422  -15.5220 N   0  0  0  0  0  0  0  0  0  0  0  0
    8.7139    4.1736  -11.4601 C   0  0  0  0  0  0  0  0  0  0  0  0
    5.7546    5.3014  -13.2955 C   0  0  0  0  0  0  0  0  0  0  0  0
   10.5665    3.9988  -14.5162 C   0  0  0  0  0  0  0  0  0  0  0  0
   11.2403    2.6657  -16.2927 C   0  0  0  0  0  0  0  0  0  0  0  0
    9.3488    3.2304  -14.4620 C   0  0  0  0  0  0  0  0  0  0  0  0
    9.6031    2.1282  -15.6022 S   0  0  0  0  0  0  0  0  0  0  0  0
    8.2511    3.3142  -13.6213 C   0  0  2  0  0  0  0  0  0  0  0  0
    9.1172    3.3371  -12.4710 O   0  0  0  0  0  0  0  0  0  0  0  0
    6.7400    4.5562  -12.5790 C   0  0  0  0  0  0  0  0  0  0  0  0
    6.9593    3.1445  -12.8969 C   0  0  0  0  0  0  0  0  0  0  0  0
  1  2  1  0  0  0  0
  1 10  2  0  0  0  0
  2  3  1  0  0  0  0
  2  5  2  0  0  0  0
  3  4  1  0  0  0  0
  4  6  1  6  0  0  0
  4  9  1  0  0  0  0
  5  8  1  0  0  0  0
  5 12  1  0  0  0  0
  6  7  1  0  0  0  0
  7 11  1  0  0  0  0
  7 16  2  0  0  0  0
  8  9  1  0  0  0  0
 10 14  1  0  0  0  0
 11 13  2  0  0  0  0
 11 20  1  0  0  0  0
 12 14  2  0  0  0  0
 13 15  1  0  0  0  0
 13 18  1  0  0  0  0
 16 17  1  0  0  0  0
 17 20  1  0  0  0  0
 17 24  1  0  0  0  0
 18 19  2  0  0  0  0
 19 21  1  0  0  0  0
 19 22  1  0  0  0  0
 20 22  2  0  0  0  0
 21 23  1  0  0  0  0
 23 27  1  0  0  0  0
 24 25  2  0  0  0  0
 24 26  1  0  0  0  0
 25 28  1  0  0  0  0
 26 30  1  0  0  0  0
 26 38  2  0  0  0  0
 27 29  1  0  0  0  0
 28 31  2  0  0  0  0
 29 32  1  0  0  0  0
 29 33  1  0  0  0  0
 30 37  1  0  0  0  0
 31 38  1  0  0  0  0
 32 34  2  0  0  0  0
 33 35  1  0  0  0  0
 34 35  1  0  0  0  0
 34 36  1  0  0  0  0
 36 37  1  0  0  0  0
 36 39  1  1  0  0  0
 38 39  1  0  0  0  0
M  END
$$$$

 OpenBabel10082411353D

 39 43  0  0  0  0  0  0  0  0999 V2000
   11.6836    6.0105   -4.8831 C   0  0  0  0  0  0  0  0  0  0  0  0
   11.1291    7.0732   -5.4395 C   0  0  0  0  0  0  0  0  0  0  0  0
   10.6954    7.0156   -6.8073 C   0  0  0  0  0  0  0  0  0  0  0  0
   10.2502    8.1187   -7.5536 C   0  0  2  0  0  0  0  0  0  0  0  0
   11.1205    8.4712   -4.9629 C   0  0  0  0  0  0  0  0  0  0  0  0
   10.8655    8.3511   -8.7960 C   0  0  0  0  0  0  0  0  0  0  0  0
   10.2922    7.8843   -9.9985 C   0  0  0  0  0  0  0  0  0  0  0  0
   10.4654    9.6993   -5.6120 C   0  0  0  0  0  0  0  0  0  0  0  0
   10.3510    9.5971   -7.0014 C   0  0  0  0  0  0  0  0  0  0  0  0
   12.2462    6.3351   -3.5020 C   0  0  0  0  0  0  0  0  0  0  0  0
   11.0471    7.5309  -11.1063 C   0  0  0  0  0  0  0  0  0  0  0  0
   11.7288    8.6923   -3.6518 C   0  0  0  0  0  0  0  0  0  0  0  0
   12.3991    7.7501  -11.1145 C   0  0  0  0  0  0  0  0  0  0  0  0
   12.3738    7.7580   -2.9599 C   0  0  0  0  0  0  0  0  0  0  0  0
   13.1285    8.5075  -10.1661 O   0  0  0  0  0  0  0  0  0  0  0  0
    9.0407    7.3775  -10.0973 N   0  0  0  0  0  0  0  0  0  0  0  0
    8.9787    6.9473  -11.4664 N   0  0  0  0  0  0  0  0  0  0  0  0
   13.1012    7.4459  -12.3707 C   0  0  0  0  0  0  0  0  0  0  0  0
   12.2395    6.9724  -13.2444 C   0  0  0  0  0  0  0  0  0  0  0  0
   10.2768    7.0170  -11.9799 C   0  0  0  0  0  0  0  0  0  0  0  0
   12.9237    6.5822  -14.5759 O   0  0  0  0  0  0  0  0  0  0  0  0
   10.8906    6.6526  -13.2252 C   0  0  0  0  0  0  0  0  0  0  0  0
   12.2396    6.1290  -15.6916 C   0  0  0  0  0  0  0  0  0  0  0  0
    7.8036    6.1825  -11.9342 C   0  0  0  0  0  0  0  0  0  0  0  0
   12.5015    4.7115  -15.7686 C   0  0  0  0  0  0  0  0  0  0  0  0
    7.1685    6.9992  -12.8245 C   0  0  0  0  0  0  0  0  0  0  0  0
   11.2461    3.8540  -15.4851 C   0  0  2  0  0  0  0  0  0  0  0  0
    7.6237    4.9154  -11.6529 C   0  0  0  0  0  0  0  0  0  0  0  0
    6.6378    4.1960  -12.2267 C   0  0  0  0  0  0  0  0  0  0  0  0
    6.2717    2.7675  -11.9743 C   0  0  0  0  0  0  0  0  0  0  0  0
    6.6569    1.8873  -12.9460 C   0  0  0  0  0  0  0  0  0  0  0  0
    7.3895    8.4597  -13.1785 C   0  0  0  0  0  0  0  0  0  0  0  0
    6.3114    0.5653  -12.7247 C   0  0  0  0  0  0  0  0  0  0  0  0
    7.7684    2.0327  -13.9055 C   0  0  0  0  0  0  0  0  0  0  0  0
    6.9387   -0.3720  -13.7691 C   0  0  0  0  0  0  0  0  0  0  0  0
    8.3285    1.1433  -14.6815 C   0  0  0  0  0  0  0  0  0  0  0  0
   11.1366    3.2519  -14.4180 O   0  0  0  0  0  0  0  0  0  0  0  0
    7.8496   -0.1425  -14.5932 C   0  0  0  0  0  0  0  0  0  0  0  0
   10.9471    3.0964  -16.6548 C   0  0  0  0  0  0  0  0  0  0  0  0
  1  2  1  0  0  0  0
  1 10  2  0  0  0  0
  2  3  1  0  0  0  0
  2  5  2  0  0  0  0
  3  4  1  0  0  0  0
  4  6  1  6  0  0  0
  4  9  1  0  0  0  0
  5  8  1  0  0  0  0
  5 12  1  0  0  0  0
  6  7  1  0  0  0  0
  7 11  1  0  0  0  0
  7 16  2  0  0  0  0
  8  9  1  0  0  0  0
 10 14  1  0  0  0  0
 11 13  2  0  0  0  0
 11 20  1  0  0  0  0
 12 14  2  0  0  0  0
 13 15  1  0  0  0  0
 13 18  1  0  0  0  0
 16 17  1  0  0  0  0
 17 20  1  0  0  0  0
 17 24  1  0  0  0  0
 18 19  2  0  0  0  0
 19 21  1  0  0  0  0
 19 22  1  0  0  0  0
 20 22  2  0  0  0  0
 21 23  1  0  0  0  0
 23 25  1  0  0  0  0
 24 26  2  3  0  0  0
 24 28  1  0  0  0  0
 25 27  1  0  0  0  0
 26 32  1  0  0  0  0
 27 37  1  0  0  0  0
 27 39  1  6  0  0  0
 28 29  2  3  0  0  0
 29 30  1  0  0  0  0
 30 31  1  0  0  0  0
 31 33  2  0  0  0  0
 31 34  1  0  0  0  0
 33 35  1  0  0  0  0
 34 36  2  0  0  0  0
 35 38  2  0  0  0  0
 36 38  1  0  0  0  0
M  END
$$$$

 OpenBabel10082411353D

 39 44  0  0  0  0  0  0  0  0999 V2000
   11.6836    6.0105   -4.8831 C   0  0  0  0  0  0  0  0  0  0  0  0
   11.1291    7.0732   -5.4395 C   0  0  0  0  0  0  0  0  0  0  0  0
   10.6954    7.0156   -6.8073 C   0  0  0  0  0  0  0  0  0  0  0  0
   10.2502    8.1187   -7.5536 C   0  0  2  0  0  0  0  0  0  0  0  0
   11.1205    8.4712   -4.9629 C   0  0  0  0  0  0  0  0  0  0  0  0
   10.8655    8.3511   -8.7960 C   0  0  0  0  0  0  0  0  0  0  0  0
   10.2922    7.8843   -9.9985 C   0  0  0  0  0  0  0  0  0  0  0  0
   10.4654    9.6993   -5.6120 C   0  0  0  0  0  0  0  0  0  0  0  0
   10.3510    9.5971   -7.0014 C   0  0  0  0  0  0  0  0  0  0  0  0
   12.2462    6.3351   -3.5020 C   0  0  0  0  0  0  0  0  0  0  0  0
   11.0471    7.5309  -11.1063 C   0  0  0  0  0  0  0  0  0  0  0  0
   11.7288    8.6923   -3.6518 C   0  0  0  0  0  0  0  0  0  0  0  0
   12.3991    7.7501  -11.1145 C   0  0  0  0  0  0  0  0  0  0  0  0
   12.3738    7.7580   -2.9599 C   0  0  0  0  0  0  0  0  0  0  0  0
   13.1285    8.5075  -10.1661 O   0  0  0  0  0  0  0  0  0  0  0  0
    9.0407    7.3775  -10.0973 N   0  0  0  0  0  0  0  0  0  0  0  0
    8.9787    6.9473  -11.4664 N   0  0  0  0  0  0  0  0  0  0  0  0
   13.1012    7.4459  -12.3707 C   0  0  0  0  0  0  0  0  0  0  0  0
   12.2395    6.9724  -13.2444 C   0  0  0  0  0  0  0  0  0  0  0  0
   10.2768    7.0170  -11.9799 C   0  0  0  0  0  0  0  0  0  0  0  0
   12.9237    6.5822  -14.5759 O   0  0  0  0  0  0  0  0  0  0  0  0
   10.8906    6.6526  -13.2252 C   0  0  0  0  0  0  0  0  0  0  0  0
   12.2396    6.1290  -15.6916 C   0  0  0  0  0  0  0  0  0  0  0  0
    7.8036    6.1825  -11.9342 C   0  0  0  0  0  0  0  0  0  0  0  0
   12.5015    4.7115  -15.7686 C   0  0  0  0  0  0  0  0  0  0  0  0
    7.1685    6.9992  -12.8245 C   0  0  0  0  0  0  0  0  0  0  0  0
   11.2461    3.8540  -15.4851 C   0  0  0  0  0  0  0  0  0  0  0  0
    7.6237    4.9154  -11.6529 C   0  0  0  0  0  0  0  0  0  0  0  0
    6.6378    4.1960  -12.2267 C   0  0  0  0  0  0  0  0  0  0  0  0
    6.2717    2.7675  -11.9743 C   0  0  0  0  0  0  0  0  0  0  0  0
    6.6569    1.8873  -12.9460 C   0  0  0  0  0  0  0  0  0  0  0  0
    7.3895    8.4597  -13.1785 C   0  0  0  0  0  0  0  0  0  0  0  0
    6.3114    0.5653  -12.7247 C   0  0  0  0  0  0  0  0  0  0  0  0
    7.7684    2.0327  -13.9055 C   0  0  0  0  0  0  0  0  0  0  0  0
    6.9387   -0.3720  -13.7691 C   0  0  0  0  0  0  0  0  0  0  0  0
    8.4223    3.3339  -14.0264 C   0  0  0  0  0  0  0  0  0  0  0  0
    8.1521    0.8303  -14.5801 C   0  0  0  0  0  0  0  0  0  0  0  0
   11.1744    3.2652  -14.3832 C   0  0  0  0  0  0  0  0  0  0  0  0
    9.9386    2.4375  -14.0021 C   0  0  0  0  0  0  0  0  0  0  0  0
  1  2  1  0  0  0  0
  1 10  2  0  0  0  0
  2  3  1  0  0  0  0
  2  5  2  0  0  0  0
  3  4  1  0  0  0  0
  4  6  1  6  0  0  0
  4  9  1  0  0  0  0
  5  8  1  0  0  0  0
  5 12  1  0  0  0  0
  6  7  1  0  0  0  0
  7 11  1  0  0  0  0
  7 16  2  0  0  0  0
  8  9  1  0  0  0  0
 10 14  1  0  0  0  0
 11 13  2  0  0  0  0
 11 20  1  0  0  0  0
 12 14  2  0  0  0  0
 13 15  1  0  0  0  0
 13 18  1  0  0  0  0
 16 17  1  0  0  0  0
 17 20  1  0  0  0  0
 17 24  1  0  0  0  0
 18 19  2  0  0  0  0
 19 21  1  0  0  0  0
 19 22  1  0  0  0  0
 20 22  2  0  0  0  0
 21 23  1  0  0  0  0
 23 25  1  0  0  0  0
 24 26  2  3  0  0  0
 24 28  1  0  0  0  0
 25 27  1  0  0  0  0
 26 32  1  0  0  0  0
 27 38  2  0  0  0  0
 28 29  2  0  0  0  0
 29 30  1  0  0  0  0
 30 31  1  0  0  0  0
 31 33  2  0  0  0  0
 31 34  1  0  0  0  0
 33 35  1  0  0  0  0
 34 36  2  0  0  0  0
 34 37  1  0  0  0  0
 35 37  2  0  0  0  0
 36 39  1  0  0  0  0
 38 39  1  0  0  0  0
M  END
$$$$

 OpenBabel10082411353D

 39 47  0  0  0  0  0  0  0  0999 V2000
   12.7863    7.8241  -14.2109 C   0  0  0  0  0  0  0  0  0  0  0  0
   12.4233    7.7158  -13.0289 C   0  0  0  0  0  0  0  0  0  0  0  0
   11.3194    6.8571  -12.8028 C   0  0  0  0  0  0  0  0  0  0  0  0
   12.3150    7.2021  -15.3582 C   0  0  0  0  0  0  0  0  0  0  0  0
   11.2733    6.2739  -15.1502 C   0  0  0  0  0  0  0  0  0  0  0  0
   10.8099    6.0126  -13.8600 C   0  0  0  0  0  0  0  0  0  0  0  0
    9.6782    5.1428  -13.6488 C   0  0  0  0  0  0  0  0  0  0  0  0
    8.5753    5.3880  -12.9589 N   0  0  0  0  0  0  0  0  0  0  0  0
    8.3226    6.7011  -12.3862 C   0  0  0  0  0  0  0  0  0  0  0  0
    9.8502    3.8578  -14.0728 C   0  0  0  0  0  0  0  0  0  0  0  0
    7.3864    7.4720  -13.0530 C   0  0  0  0  0  0  0  0  0  0  0  0
    6.2412    7.8486  -12.2599 C   0  0  0  0  0  0  0  0  0  0  0  0
    7.6425    4.4186  -12.7943 C   0  0  0  0  0  0  0  0  0  0  0  0
   11.0297    3.2482  -14.8053 C   0  0  0  0  0  0  0  0  0  0  0  0
    8.6802    2.8955  -13.7960 C   0  0  0  0  0  0  0  0  0  0  0  0
    8.8565    1.5917  -14.3582 O   0  0  0  0  0  0  0  0  0  0  0  0
    7.6903    3.2226  -13.1994 N   0  0  0  0  0  0  0  0  0  0  0  0
    6.5724    2.3444  -12.8378 C   0  0  0  0  0  0  0  0  0  0  0  0
    9.0225    7.0353  -11.3259 C   0  0  0  0  0  0  0  0  0  0  0  0
    6.2405    4.8489  -12.4515 C   0  0  0  0  0  0  0  0  0  0  0  0
   10.5875    7.0617  -11.5321 C   0  0  0  0  0  0  0  0  0  0  0  0
   11.0960    7.6093  -10.4100 C   0  0  0  0  0  0  0  0  0  0  0  0
    8.4039    7.3336  -10.1102 C   0  0  0  0  0  0  0  0  0  0  0  0
    5.5911    3.3517  -12.3508 C   0  0  0  0  0  0  0  0  0  0  0  0
   12.6259    7.6530  -10.3901 C   0  0  0  0  0  0  0  0  0  0  0  0
   10.4284    7.7784   -9.2128 C   0  0  1  0  0  0  0  0  0  0  0  0
    9.2236    7.5051   -9.0617 C   0  0  2  0  0  0  0  0  0  0  0  0
    8.7145    7.3063   -7.7135 N   0  0  0  0  0  0  0  0  0  0  0  0
   11.0621    7.5242   -7.8430 C   0  0  1  0  0  0  0  0  0  0  0  0
   12.0213    8.4787   -7.3268 C   0  0  0  0  0  0  0  0  0  0  0  0
   13.1241    8.0749  -11.7293 C   0  0  0  0  0  0  0  0  0  0  0  0
    9.9178    7.6308   -6.9884 C   0  0  2  0  0  0  0  0  0  0  0  0
   12.0768    8.3481   -5.8539 C   0  0  0  0  0  0  0  0  0  0  0  0
   10.0351    6.6960   -5.8250 C   0  0  0  0  0  0  0  0  0  0  0  0
   11.2104    7.4471   -5.1985 C   0  0  0  0  0  0  0  0  0  0  0  0
   12.9004    9.3019   -5.1631 C   0  0  0  0  0  0  0  0  0  0  0  0
   11.4590    7.3245   -3.8843 C   0  0  0  0  0  0  0  0  0  0  0  0
   12.2985    8.1067   -3.0843 C   0  0  0  0  0  0  0  0  0  0  0  0
   12.9865    9.1615   -3.6659 C   0  0  0  0  0  0  0  0  0  0  0  0
  1  2  2  0  0  0  0
  1  4  1  0  0  0  0
  2  3  1  0  0  0  0
  2 31  1  0  0  0  0
  3  6  2  0  0  0  0
  3 21  1  0  0  0  0
  4  5  2  0  0  0  0
  5  6  1  0  0  0  0
  6  7  1  0  0  0  0
  7  8  1  0  0  0  0
  7 10  2  0  0  0  0
  8  9  1  0  0  0  0
  8 13  1  0  0  0  0
  9 11  1  0  0  0  0
  9 19  2  0  0  0  0
 10 14  1  0  0  0  0
 10 15  1  0  0  0  0
 11 12  1  0  0  0  0
 13 17  1  0  0  0  0
 13 20  2  0  0  0  0
 15 16  2  0  0  0  0
 15 17  1  0  0  0  0
 17 18  1  0  0  0  0
 18 24  1  0  0  0  0
 19 21  1  0  0  0  0
 19 23  1  0  0  0  0
 20 24  1  0  0  0  0
 21 22  2  0  0  0  0
 22 25  1  0  0  0  0
 25 31  2  0  0  0  0
 26 22  1  6  0  0  0
 26 27  1  0  0  0  0
 26 29  1  0  0  0  0
 27 23  1  6  0  0  0
 27 28  1  0  0  0  0
 28 32  1  0  0  0  0
 29 30  1  1  0  0  0
 29 32  1  0  0  0  0
 30 33  1  0  0  0  0
 32 34  1  1  0  0  0
 33 35  1  0  0  0  0
 33 36  2  0  0  0  0
 34 35  1  0  0  0  0
 35 37  2  0  0  0  0
 36 39  1  0  0  0  0
 37 38  1  0  0  0  0
 38 39  2  0  0  0  0
M  END
$$$$

 OpenBabel10082411353D

 39 45  0  0  0  0  0  0  0  0999 V2000
   13.2379    9.0584   -7.2681 C   0  0  0  0  0  0  0  0  0  0  0  0
   12.9396    9.3022   -5.9810 C   0  0  0  0  0  0  0  0  0  0  0  0
   12.1602    8.6694   -7.9361 C   0  0  0  0  0  0  0  0  0  0  0  0
   14.0320    9.7504   -5.0711 F   0  0  0  0  0  0  0  0  0  0  0  0
   10.9536    8.4526   -7.1212 C   0  0  1  0  0  0  0  0  0  0  0  0
   12.1901    8.3365   -9.3972 C   0  0  0  0  0  0  0  0  0  0  0  0
   11.0443    7.8367  -10.0430 C   0  0  0  0  0  0  0  0  0  0  0  0
   11.0471    8.9348   -5.8250 C   0  0  1  0  0  0  0  0  0  0  0  0
    9.5270    7.9533   -7.4234 C   0  0  2  0  0  0  0  0  0  0  0  0
    9.7802    8.7666   -5.0086 F   0  0  0  0  0  0  0  0  0  0  0  0
   11.9790    9.3452   -5.1373 C   0  0  0  0  0  0  0  0  0  0  0  0
    9.1878    6.9159   -6.7141 C   0  0  0  0  0  0  0  0  0  0  0  0
   11.1576    7.5184  -11.4190 C   0  0  0  0  0  0  0  0  0  0  0  0
    9.8595    7.5543   -8.9986 C   0  0  1  0  0  0  0  0  0  0  0  0
    9.9779    6.9809  -11.9943 C   0  0  0  0  0  0  0  0  0  0  0  0
   10.1471    6.6534  -13.4127 C   0  0  0  0  0  0  0  0  0  0  0  0
   12.3591    7.4352  -12.0563 C   0  0  0  0  0  0  0  0  0  0  0  0
    8.5551    6.8980  -11.2951 C   0  0  1  0  0  0  0  0  0  0  0  0
   12.2421    7.1981  -13.3125 C   0  0  0  0  0  0  0  0  0  0  0  0
   11.2735    6.6870  -13.9872 C   0  0  0  0  0  0  0  0  0  0  0  0
    8.1020    6.3652   -7.0525 O   0  0  0  0  0  0  0  0  0  0  0  0
   11.5320    6.1869  -15.4842 C   0  0  0  0  0  0  0  0  0  0  0  0
   11.6397    4.8187  -15.5947 N   0  0  0  0  0  0  0  0  0  0  0  0
   11.7429    6.9569  -16.3970 O   0  0  0  0  0  0  0  0  0  0  0  0
   11.2928    3.8324  -14.5891 C   0  0  0  0  0  0  0  0  0  0  0  0
    7.5388    6.6719  -11.9871 C   0  0  0  0  0  0  0  0  0  0  0  0
   11.5537    4.1926  -16.9885 C   0  0  0  0  0  0  0  0  0  0  0  0
    6.8943    7.7297  -12.6293 C   0  0  0  0  0  0  0  0  0  0  0  0
   12.4886    3.1529  -17.0211 C   0  0  0  0  0  0  0  0  0  0  0  0
   10.6070    2.6673  -14.9825 C   0  0  0  0  0  0  0  0  0  0  0  0
    7.0671    5.3528  -12.1345 C   0  0  0  0  0  0  0  0  0  0  0  0
    8.8121    6.8590   -9.7791 C   0  0  0  0  0  0  0  0  0  0  0  0
    7.5818    4.1934  -11.6434 C   0  0  0  0  0  0  0  0  0  0  0  0
    7.1593    2.9956  -12.2994 C   0  0  0  0  0  0  0  0  0  0  0  0
   11.6206    2.0274  -16.1494 C   0  0  0  0  0  0  0  0  0  0  0  0
    6.0254    3.2500  -13.2202 C   0  0  0  0  0  0  0  0  0  0  0  0
    5.5735    4.3286  -13.6640 C   0  0  0  0  0  0  0  0  0  0  0  0
    6.1559    5.4920  -13.1122 C   0  0  0  0  0  0  0  0  0  0  0  0
    5.8819    6.8385  -13.3586 N   0  0  0  0  0  0  0  0  0  0  0  0
  1  2  1  0  0  0  0
  1  3  2  0  0  0  0
  2  4  1  0  0  0  0
  2 11  2  0  0  0  0
  3  6  1  0  0  0  0
  5  3  1  6  0  0  0
  5  8  1  0  0  0  0
  5  9  1  0  0  0  0
  6  7  2  0  0  0  0
  7 13  1  0  0  0  0
  7 14  1  0  0  0  0
  8 10  1  1  0  0  0
  8 11  1  0  0  0  0
  9 12  1  1  0  0  0
  9 14  1  0  0  0  0
 12 21  1  0  0  0  0
 13 15  2  0  0  0  0
 13 17  1  0  0  0  0
 14 32  1  6  0  0  0
 15 16  1  0  0  0  0
 15 18  1  0  0  0  0
 16 20  2  0  0  0  0
 17 19  2  0  0  0  0
 18 26  1  6  0  0  0
 18 32  1  0  0  0  0
 19 20  1  0  0  0  0
 20 22  1  0  0  0  0
 22 23  1  0  0  0  0
 22 24  2  0  0  0  0
 23 25  1  0  0  0  0
 23 27  1  0  0  0  0
 25 30  1  0  0  0  0
 26 28  1  0  0  0  0
 26 31  2  0  0  0  0
 27 29  1  0  0  0  0
 28 39  1  0  0  0  0
 29 35  1  0  0  0  0
 30 35  1  0  0  0  0
 31 33  1  0  0  0  0
 31 38  1  0  0  0  0
 33 34  2  0  0  0  0
 34 36  1  0  0  0  0
 36 37  2  0  0  0  0
 37 38  1  0  0  0  0
 38 39  2  0  0  0  0
M  END
$$$$

 OpenBabel10082411353D

 26 28  0  0  0  0  0  0  0  0999 V2000
   10.7609    9.6228   -4.2714 C   0  0  0  0  0  0  0  0  0  0  0  0
   10.4930    9.4831   -5.5343 C   0  0  0  0  0  0  0  0  0  0  0  0
   11.6139    8.5907   -3.8078 C   0  0  0  0  0  0  0  0  0  0  0  0
   10.6916    8.7185   -6.3306 C   0  0  0  0  0  0  0  0  0  0  0  0
   11.4775    7.4908   -5.9802 C   0  0  0  0  0  0  0  0  0  0  0  0
   10.1045    8.7095   -7.8164 C   0  0  0  0  0  0  0  0  0  0  0  0
   11.8703    7.5203   -4.5985 C   0  0  0  0  0  0  0  0  0  0  0  0
   10.7919    7.9248   -8.8228 C   0  0  2  0  0  0  0  0  0  0  0  0
   11.9364    8.4952   -9.3965 C   0  0  0  0  0  0  0  0  0  0  0  0
    9.8959    7.3469   -9.8494 C   0  0  0  0  0  0  0  0  0  0  0  0
   12.2659    8.0794  -10.7080 C   0  0  0  0  0  0  0  0  0  0  0  0
   10.4408    6.8044  -11.0562 C   0  0  2  0  0  0  0  0  0  0  0  0
   11.4386    7.6856  -11.6482 N   0  0  0  0  0  0  0  0  0  0  0  0
    9.4200    6.2781  -12.0473 C   0  0  2  0  0  0  0  0  0  0  0  0
   11.6788    7.6359  -13.0249 C   0  0  0  0  0  0  0  0  0  0  0  0
   12.6986    7.8374  -13.5514 O   0  0  0  0  0  0  0  0  0  0  0  0
    8.6050    5.1568  -11.5138 C   0  0  0  0  0  0  0  0  0  0  0  0
    9.9990    5.8712  -13.2928 C   0  0  1  0  0  0  0  0  0  0  0  0
   10.5693    7.3889  -13.8893 C   0  0  0  0  0  0  0  0  0  0  0  0
   11.1361    4.9366  -13.2042 C   0  0  0  0  0  0  0  0  0  0  0  0
   10.9712    3.7479  -14.2147 C   0  0  0  0  0  0  0  0  0  0  0  0
    7.2750    5.0810  -11.9818 C   0  0  0  0  0  0  0  0  0  0  0  0
   11.8122    3.5910  -15.0977 O   0  0  0  0  0  0  0  0  0  0  0  0
    6.4296    5.8775  -11.4180 O   0  0  0  0  0  0  0  0  0  0  0  0
   10.2290    2.7767  -13.7960 O   0  0  0  0  0  0  0  0  0  0  0  0
    6.9817    4.2521  -12.9161 O   0  0  0  0  0  0  0  0  0  0  0  0
  1  2  1  0  0  0  0
  1  3  2  0  0  0  0
  2  4  2  0  0  0  0
  3  7  1  0  0  0  0
  4  5  1  0  0  0  0
  4  6  1  0  0  0  0
  5  7  2  0  0  0  0
  8  6  1  6  0  0  0
  8  9  1  0  0  0  0
  8 10  1  0  0  0  0
  9 11  1  0  0  0  0
 11 13  1  0  0  0  0
 12 10  1  1  0  0  0
 12 13  1  0  0  0  0
 12 14  1  0  0  0  0
 13 15  1  0  0  0  0
 14 17  1  1  0  0  0
 14 18  1  0  0  0  0
 15 16  2  0  0  0  0
 15 19  1  0  0  0  0
 17 22  1  0  0  0  0
 18 19  1  0  0  0  0
 18 20  1  1  0  0  0
 20 21  1  0  0  0  0
 21 23  2  0  0  0  0
 21 25  1  0  0  0  0
 22 24  1  0  0  0  0
 22 26  2  0  0  0  0
M  END
$$$$

 OpenBabel10082411353D

 39 43  0  0  0  0  0  0  0  0999 V2000
   11.6836    6.0105   -4.8831 F   0  0  0  0  0  0  0  0  0  0  0  0
   11.2562    7.2206   -5.0294 C   0  0  0  0  0  0  0  0  0  0  0  0
   12.0125    8.2418   -4.4408 C   0  0  0  0  0  0  0  0  0  0  0  0
   11.1918    7.2706   -6.5237 C   0  0  0  0  0  0  0  0  0  0  0  0
   11.6999    8.4488   -3.1704 F   0  0  0  0  0  0  0  0  0  0  0  0
    9.8648    7.0908   -4.5314 F   0  0  0  0  0  0  0  0  0  0  0  0
   11.6831    8.5291   -6.9682 C   0  0  0  0  0  0  0  0  0  0  0  0
   10.4785    6.5189   -7.4033 C   0  0  0  0  0  0  0  0  0  0  0  0
   11.6979    8.6661   -8.4760 C   0  0  0  0  0  0  0  0  0  0  0  0
   11.6248    9.5853   -5.0030 C   0  0  0  0  0  0  0  0  0  0  0  0
   11.8604    9.7907   -6.2903 O   0  0  0  0  0  0  0  0  0  0  0  0
   13.3557    8.1748   -4.5947 F   0  0  0  0  0  0  0  0  0  0  0  0
   10.5427    6.6061   -8.7190 C   0  0  0  0  0  0  0  0  0  0  0  0
   11.1158    7.7103   -9.2540 C   0  0  0  0  0  0  0  0  0  0  0  0
   11.3757    7.6656  -10.5293 N   0  0  0  0  0  0  0  0  0  0  0  0
   10.7153    7.7096  -11.5405 C   0  0  0  0  0  0  0  0  0  0  0  0
   11.2483    7.4711  -12.8542 C   0  0  0  0  0  0  0  0  0  0  0  0
    9.3980    7.7820  -11.5398 C   0  0  0  0  0  0  0  0  0  0  0  0
    8.6055    7.5889  -12.6525 C   0  0  0  0  0  0  0  0  0  0  0  0
   12.7508    7.3705  -13.0162 O   0  0  0  0  0  0  0  0  0  0  0  0
   10.5299    7.1831  -13.9856 C   0  0  0  0  0  0  0  0  0  0  0  0
    7.0533    7.7371  -12.5396 C   0  0  0  0  0  0  0  0  0  0  0  0
   11.2041    6.8490  -15.2304 C   0  0  0  0  0  0  0  0  0  0  0  0
   11.6393    5.5333  -15.3864 C   0  0  0  0  0  0  0  0  0  0  0  0
    9.1955    7.2935  -13.8301 C   0  0  0  0  0  0  0  0  0  0  0  0
   12.5294    5.1116  -16.1609 C   0  0  0  0  0  0  0  0  0  0  0  0
   11.2315    4.4703  -14.3200 C   0  0  0  0  0  0  0  0  0  0  0  0
   10.2844    4.5821  -13.3000 C   0  0  0  0  0  0  0  0  0  0  0  0
   11.6270    3.1866  -14.6052 C   0  0  0  0  0  0  0  0  0  0  0  0
    9.0868    3.8289  -13.3080 C   0  0  0  0  0  0  0  0  0  0  0  0
   11.3420    2.7039  -15.8535 C   0  0  0  0  0  0  0  0  0  0  0  0
    8.3582    4.0400  -12.0395 C   0  0  0  0  0  0  0  0  0  0  0  0
   13.0053    6.2224  -17.1322 C   0  0  0  0  0  0  0  0  0  0  0  0
   12.3338    3.1792  -16.8738 C   0  0  0  0  0  0  0  0  0  0  0  0
   12.9752    4.2391  -16.7963 C   0  0  0  0  0  0  0  0  0  0  0  0
    6.9632    3.7291  -12.2279 C   0  0  0  0  0  0  0  0  0  0  0  0
    6.4159    2.9682  -13.0981 C   0  0  0  0  0  0  0  0  0  0  0  0
    8.3871    3.1883  -14.3387 C   0  0  0  0  0  0  0  0  0  0  0  0
    7.1555    2.7366  -14.2224 C   0  0  0  0  0  0  0  0  0  0  0  0
  1  2  1  0  0  0  0
  2  3  1  0  0  0  0
  2  4  1  0  0  0  0
  2  6  1  0  0  0  0
  3  5  1  0  0  0  0
  3 10  1  0  0  0  0
  3 12  1  0  0  0  0
  4  7  1  0  0  0  0
  4  8  2  0  0  0  0
  7  9  2  0  0  0  0
  7 11  1  0  0  0  0
  8 13  1  0  0  0  0
  9 14  1  0  0  0  0
 10 11  1  0  0  0  0
 13 14  2  0  0  0  0
 14 15  1  0  0  0  0
 15 16  1  0  0  0  0
 16 17  1  0  0  0  0
 16 18  2  0  0  0  0
 17 20  1  0  0  0  0
 17 21  2  0  0  0  0
 18 19  1  0  0  0  0
 19 22  1  0  0  0  0
 19 25  2  0  0  0  0
 21 23  1  0  0  0  0
 21 25  1  0  0  0  0
 23 24  1  0  0  0  0
 24 26  2  0  0  0  0
 24 27  1  0  0  0  0
 26 33  1  0  0  0  0
 26 35  1  0  0  0  0
 27 28  1  0  0  0  0
 27 29  2  0  0  0  0
 28 30  2  3  0  0  0
 29 31  1  0  0  0  0
 30 32  1  0  0  0  0
 30 38  1  0  0  0  0
 31 34  1  0  0  0  0
 32 36  2  0  0  0  0
 34 35  1  0  0  0  0
 36 37  1  0  0  0  0
 37 39  1  0  0  0  0
 38 39  1  0  0  0  0
M  END
$$$$

 OpenBabel10082411353D

 39 49  0  0  0  0  0  0  0  0999 V2000
    8.0806    9.0240  -12.7589 C   0  0  0  0  0  0  0  0  0  0  0  0
    8.6514    7.8645  -12.2948 C   0  0  0  0  0  0  0  0  0  0  0  0
    9.9575    7.9974  -11.8426 C   0  0  0  0  0  0  0  0  0  0  0  0
   10.7657    6.8667  -11.6050 C   0  0  1  0  0  0  0  0  0  0  0  0
   10.7682    5.9590  -12.8271 C   0  0  0  0  0  0  0  0  0  0  0  0
   12.1553    7.3846  -11.2315 C   0  0  0  0  0  0  0  0  0  0  0  0
    8.0676    6.6451  -12.2974 C   0  0  0  0  0  0  0  0  0  0  0  0
   10.1892    6.1240  -10.3860 C   0  0  0  0  0  0  0  0  0  0  0  0
   11.8375    5.4373  -13.3240 O   0  0  0  0  0  0  0  0  0  0  0  0
    8.6785    5.4761  -13.0273 C   0  0  1  0  0  0  0  0  0  0  0  0
    9.1969    5.2405  -10.4969 C   0  0  1  0  0  0  0  0  0  0  0  0
    7.2213    6.2210  -11.3074 C   0  0  1  0  0  0  0  0  0  0  0  0
   12.5590    7.6872   -9.9896 C   0  0  0  0  0  0  0  0  0  0  0  0
    9.7633    5.0333  -12.9720 C   0  0  1  0  0  0  0  0  0  0  0  0
   10.0661    4.0167  -14.0373 N   0  0  0  0  0  0  0  0  0  0  0  0
   13.6906    8.3004   -9.6233 O   0  0  0  0  0  0  0  0  0  0  0  0
    7.6357    4.5123  -12.6317 C   0  0  2  0  0  0  0  0  0  0  0  0
    6.8831    4.9171  -11.7031 C   0  0  1  0  0  0  0  0  0  0  0  0
   10.5937    6.6967   -9.1779 C   0  0  0  0  0  0  0  0  0  0  0  0
    9.5087    4.3263  -11.6925 C   0  0  2  0  0  0  0  0  0  0  0  0
   11.6359    7.4449   -8.9125 C   0  0  0  0  0  0  0  0  0  0  0  0
   11.9716    7.9159   -7.6200 C   0  0  0  0  0  0  0  0  0  0  0  0
    8.4648    3.6122  -12.2840 C   0  0  2  0  0  0  0  0  0  0  0  0
    9.3128    4.5571   -9.1689 C   0  0  0  0  0  0  0  0  0  0  0  0
   10.9557    7.6369   -6.5929 C   0  0  0  0  0  0  0  0  0  0  0  0
    9.6490    2.8108  -13.7776 C   0  0  0  0  0  0  0  0  0  0  0  0
   10.2419    1.7839  -14.4904 O   0  0  0  0  0  0  0  0  0  0  0  0
    9.8235    6.3429   -8.0308 C   0  0  0  0  0  0  0  0  0  0  0  0
    8.5421    2.5419  -13.1600 C   0  0  0  0  0  0  0  0  0  0  0  0
   10.0139    6.8647   -6.7816 C   0  0  0  0  0  0  0  0  0  0  0  0
    8.9641    5.2626   -8.0936 N   0  0  0  0  0  0  0  0  0  0  0  0
    7.9178    5.6594  -10.4374 C   0  0  1  0  0  0  0  0  0  0  0  0
   11.2467    8.3685   -5.1947 C   0  0  0  0  0  0  0  0  0  0  0  0
   12.0651    7.7023   -4.3308 C   0  0  0  0  0  0  0  0  0  0  0  0
   10.7646    9.6393   -4.8611 C   0  0  0  0  0  0  0  0  0  0  0  0
   12.3172    8.2274   -3.0562 C   0  0  0  0  0  0  0  0  0  0  0  0
   13.1768    7.4397   -2.0213 C   0  0  0  0  0  0  0  0  0  0  0  0
   11.8743    9.5786   -2.7088 C   0  0  0  0  0  0  0  0  0  0  0  0
   11.1121   10.2174   -3.6781 C   0  0  0  0  0  0  0  0  0  0  0  0
  1  2  1  0  0  0  0
  2  3  1  0  0  0  0
  2  7  2  0  0  0  0
  4  3  1  6  0  0  0
  4  5  1  0  0  0  0
  4  6  1  0  0  0  0
  4  8  1  0  0  0  0
  5  9  2  0  0  0  0
  6 13  1  0  0  0  0
  8 11  1  0  0  0  0
  8 19  2  0  0  0  0
 10  7  1  1  0  0  0
 10 14  1  0  0  0  0
 10 17  1  0  0  0  0
 11 20  1  0  0  0  0
 11 24  1  1  0  0  0
 11 32  1  0  0  0  0
 12  7  1  6  0  0  0
 12 18  1  0  0  0  0
 12 32  1  0  0  0  0
 13 16  2  0  0  0  0
 13 21  1  0  0  0  0
 14  5  1  1  0  0  0
 14 15  1  0  0  0  0
 14 20  1  0  0  0  0
 15 26  1  0  0  0  0
 17 18  1  0  0  0  0
 17 23  1  0  0  0  0
 18 32  1  0  0  0  0
 19 21  1  0  0  0  0
 19 28  1  0  0  0  0
 20 23  1  0  0  0  0
 21 22  2  0  0  0  0
 22 25  1  0  0  0  0
 23 29  1  0  0  0  0
 24 31  1  0  0  0  0
 25 30  2  0  0  0  0
 25 33  1  0  0  0  0
 26 27  2  0  0  0  0
 26 29  1  0  0  0  0
 28 30  1  0  0  0  0
 28 31  2  0  0  0  0
 33 34  1  0  0  0  0
 33 35  2  0  0  0  0
 34 36  2  0  0  0  0
 35 39  1  0  0  0  0
 36 37  1  0  0  0  0
 36 38  1  0  0  0  0
 38 39  2  0  0  0  0
M  END
$$$$

 OpenBabel10082411353D

 39 43  0  0  0  0  0  0  0  0999 V2000
   10.9951    9.9694   -4.9946 C   0  0  0  0  0  0  0  0  0  0  0  0
   11.7938    9.3762   -4.2463 C   0  0  0  0  0  0  0  0  0  0  0  0
   10.8673    9.4548   -6.4276 C   0  0  0  0  0  0  0  0  0  0  0  0
   11.6576    7.9117   -4.2944 C   0  0  0  0  0  0  0  0  0  0  0  0
   10.5498    8.0257   -6.4521 C   0  0  0  0  0  0  0  0  0  0  0  0
   11.4715    7.2752   -5.6166 C   0  0  0  0  0  0  0  0  0  0  0  0
   10.5840    7.5390   -7.9254 C   0  0  0  0  0  0  0  0  0  0  0  0
   11.4612    8.1494   -8.8322 C   0  0  0  0  0  0  0  0  0  0  0  0
   12.6250    8.6294   -8.4338 O   0  0  0  0  0  0  0  0  0  0  0  0
   11.0835    8.4395  -10.0740 O   0  0  0  0  0  0  0  0  0  0  0  0
   11.2938    7.5612  -11.0769 C   0  0  0  0  0  0  0  0  0  0  0  0
   10.1547    7.2525  -11.9492 C   0  0  0  0  0  0  0  0  0  0  0  0
   10.4293    6.5622  -13.1348 C   0  0  0  0  0  0  0  0  0  0  0  0
   11.7295    6.4217  -13.6243 C   0  0  0  0  0  0  0  0  0  0  0  0
    8.8120    7.3918  -11.4649 C   0  0  0  0  0  0  0  0  0  0  0  0
   12.5351    7.8894  -11.6869 C   0  0  0  0  0  0  0  0  0  0  0  0
   13.5778    8.4243  -10.9673 O   0  0  0  0  0  0  0  0  0  0  0  0
    7.7211    7.1761  -12.4323 C   0  0  0  0  0  0  0  0  0  0  0  0
   12.8103    7.0723  -12.8897 C   0  0  0  0  0  0  0  0  0  0  0  0
    7.0543    5.9667  -12.3369 C   0  0  0  0  0  0  0  0  0  0  0  0
    7.2392    8.1844  -13.1320 C   0  0  0  0  0  0  0  0  0  0  0  0
    6.6882    5.3848  -13.5016 O   0  0  0  0  0  0  0  0  0  0  0  0
    6.5103    5.5543  -11.3870 O   0  0  0  0  0  0  0  0  0  0  0  0
    7.4031    4.0506  -13.7852 C   0  0  0  0  0  0  0  0  0  0  0  0
    8.6811    3.9966  -14.1333 C   0  0  0  0  0  0  0  0  0  0  0  0
   12.0732    5.6649  -14.9357 C   0  0  0  0  0  0  0  0  0  0  0  0
    6.5842    3.0104  -13.4449 C   0  0  0  0  0  0  0  0  0  0  0  0
   12.1810    6.3505  -15.9550 C   0  0  0  0  0  0  0  0  0  0  0  0
   12.4265    5.3943  -17.1098 C   0  0  0  0  0  0  0  0  0  0  0  0
   12.0808    4.3115  -14.6805 C   0  0  0  0  0  0  0  0  0  0  0  0
    5.1772    3.2038  -12.9749 C   0  0  0  0  0  0  0  0  0  0  0  0
   11.7401    3.5786  -13.4028 C   0  0  0  0  0  0  0  0  0  0  0  0
    7.1932    1.7609  -13.6079 C   0  0  0  0  0  0  0  0  0  0  0  0
   12.3142    4.1658  -16.8475 C   0  0  0  0  0  0  0  0  0  0  0  0
    9.2052    2.7641  -14.3200 C   0  0  0  0  0  0  0  0  0  0  0  0
    8.4704    1.6543  -14.0145 C   0  0  0  0  0  0  0  0  0  0  0  0
   10.5807    2.5887  -14.7790 O   0  0  0  0  0  0  0  0  0  0  0  0
   10.8514    2.7597  -13.6503 C   0  0  0  0  0  0  0  0  0  0  0  0
   12.2526    3.6657  -15.7280 C   0  0  0  0  0  0  0  0  0  0  0  0
  1  2  1  0  0  0  0
  1  3  1  0  0  0  0
  2  4  1  0  0  0  0
  3  5  1  0  0  0  0
  4  6  1  0  0  0  0
  5  6  1  0  0  0  0
  5  7  1  0  0  0  0
  7  8  1  0  0  0  0
  8  9  2  0  0  0  0
  8 10  1  0  0  0  0
 10 11  1  0  0  0  0
 11 12  1  0  0  0  0
 11 16  2  0  0  0  0
 12 13  2  0  0  0  0
 12 15  1  0  0  0  0
 13 14  1  0  0  0  0
 14 19  2  0  0  0  0
 14 26  1  0  0  0  0
 15 18  1  0  0  0  0
 16 17  1  0  0  0  0
 16 19  1  0  0  0  0
 18 20  1  0  0  0  0
 18 21  2  0  0  0  0
 20 22  1  0  0  0  0
 20 23  2  0  0  0  0
 22 24  1  0  0  0  0
 24 25  1  0  0  0  0
 24 27  2  0  0  0  0
 25 35  2  0  0  0  0
 26 28  2  0  0  0  0
 26 30  1  0  0  0  0
 27 31  1  0  0  0  0
 27 33  1  0  0  0  0
 28 29  1  0  0  0  0
 29 34  2  0  0  0  0
 30 32  1  0  0  0  0
 30 39  2  0  0  0  0
 32 38  2  0  0  0  0
 33 36  2  0  0  0  0
 34 39  1  0  0  0  0
 35 36  1  0  0  0  0
 35 37  1  0  0  0  0
 37 38  1  0  0  0  0
M  END
$$$$

 OpenBabel10082411353D

 39 43  0  0  0  0  0  0  0  0999 V2000
   10.9951    9.9694   -4.9946 C   0  0  0  0  0  0  0  0  0  0  0  0
   11.7938    9.3762   -4.2463 C   0  0  0  0  0  0  0  0  0  0  0  0
   10.8673    9.4548   -6.4276 C   0  0  0  0  0  0  0  0  0  0  0  0
   11.6576    7.9117   -4.2944 C   0  0  0  0  0  0  0  0  0  0  0  0
   10.5498    8.0257   -6.4521 C   0  0  0  0  0  0  0  0  0  0  0  0
   11.4715    7.2752   -5.6166 C   0  0  0  0  0  0  0  0  0  0  0  0
   10.5840    7.5390   -7.9254 C   0  0  0  0  0  0  0  0  0  0  0  0
   11.4612    8.1494   -8.8322 C   0  0  0  0  0  0  0  0  0  0  0  0
   12.6250    8.6294   -8.4338 O   0  0  0  0  0  0  0  0  0  0  0  0
   11.0835    8.4395  -10.0740 O   0  0  0  0  0  0  0  0  0  0  0  0
   11.2938    7.5612  -11.0769 C   0  0  0  0  0  0  0  0  0  0  0  0
   10.1547    7.2525  -11.9492 C   0  0  0  0  0  0  0  0  0  0  0  0
   10.4293    6.5622  -13.1348 C   0  0  0  0  0  0  0  0  0  0  0  0
   11.7295    6.4217  -13.6243 C   0  0  0  0  0  0  0  0  0  0  0  0
    8.8120    7.3918  -11.4649 C   0  0  0  0  0  0  0  0  0  0  0  0
   12.5351    7.8894  -11.6869 C   0  0  0  0  0  0  0  0  0  0  0  0
   13.5778    8.4243  -10.9673 O   0  0  0  0  0  0  0  0  0  0  0  0
    7.7211    7.1761  -12.4323 C   0  0  0  0  0  0  0  0  0  0  0  0
   12.8103    7.0723  -12.8897 C   0  0  0  0  0  0  0  0  0  0  0  0
    7.0543    5.9667  -12.3369 C   0  0  0  0  0  0  0  0  0  0  0  0
    7.2392    8.1844  -13.1320 C   0  0  0  0  0  0  0  0  0  0  0  0
    6.6882    5.3848  -13.5016 O   0  0  0  0  0  0  0  0  0  0  0  0
    6.5103    5.5543  -11.3870 O   0  0  0  0  0  0  0  0  0  0  0  0
    7.4031    4.0506  -13.7852 C   0  0  0  0  0  0  0  0  0  0  0  0
    8.6811    3.9966  -14.1333 C   0  0  0  0  0  0  0  0  0  0  0  0
   12.0732    5.6649  -14.9357 C   0  0  0  0  0  0  0  0  0  0  0  0
    6.5842    3.0104  -13.4449 C   0  0  0  0  0  0  0  0  0  0  0  0
   12.1810    6.3505  -15.9550 C   0  0  0  0  0  0  0  0  0  0  0  0
   12.4265    5.3943  -17.1098 C   0  0  0  0  0  0  0  0  0  0  0  0
   12.0808    4.3115  -14.6805 C   0  0  0  0  0  0  0  0  0  0  0  0
    5.1772    3.2038  -12.9749 C   0  0  0  0  0  0  0  0  0  0  0  0
   11.7401    3.5786  -13.4028 C   0  0  0  0  0  0  0  0  0  0  0  0
    7.1932    1.7609  -13.6079 C   0  0  0  0  0  0  0  0  0  0  0  0
   12.3142    4.1658  -16.8475 C   0  0  0  0  0  0  0  0  0  0  0  0
    9.2052    2.7641  -14.3200 C   0  0  0  0  0  0  0  0  0  0  0  0
    8.4704    1.6543  -14.0145 C   0  0  0  0  0  0  0  0  0  0  0  0
   10.5807    2.5887  -14.7790 O   0  0  0  0  0  0  0  0  0  0  0  0
   11.8761    3.5310  -15.5903 C   0  0  0  0  0  0  0  0  0  0  0  0
   11.5244    2.3566  -15.4498 N   0  0  0  0  0  0  0  0  0  0  0  0
  1  2  1  0  0  0  0
  1  3  1  0  0  0  0
  2  4  1  0  0  0  0
  3  5  1  0  0  0  0
  4  6  1  0  0  0  0
  5  6  1  0  0  0  0
  5  7  1  0  0  0  0
  7  8  1  0  0  0  0
  8  9  2  0  0  0  0
  8 10  1  0  0  0  0
 10 11  1  0  0  0  0
 11 12  1  0  0  0  0
 11 16  2  0  0  0  0
 12 13  2  0  0  0  0
 12 15  1  0  0  0  0
 13 14  1  0  0  0  0
 14 19  2  0  0  0  0
 14 26  1  0  0  0  0
 15 18  1  0  0  0  0
 16 17  1  0  0  0  0
 16 19  1  0  0  0  0
 18 20  1  0  0  0  0
 18 21  2  0  0  0  0
 20 22  1  0  0  0  0
 20 23  2  0  0  0  0
 22 24  1  0  0  0  0
 24 25  1  0  0  0  0
 24 27  2  0  0  0  0
 25 35  2  0  0  0  0
 26 28  2  0  0  0  0
 26 30  1  0  0  0  0
 27 31  1  0  0  0  0
 27 33  1  0  0  0  0
 28 29  1  0  0  0  0
 29 34  2  0  0  0  0
 30 32  1  0  0  0  0
 30 38  2  0  0  0  0
 33 36  2  0  0  0  0
 34 38  1  0  0  0  0
 35 36  1  0  0  0  0
 35 37  1  0  0  0  0
 37 39  1  0  0  0  0
 38 39  1  0  0  0  0
M  END
$$$$

 OpenBabel10082411353D

 39 45  0  0  0  0  0  0  0  0999 V2000
   11.6836    6.0105   -4.8831 C   0  0  0  0  0  0  0  0  0  0  0  0
   11.1291    7.0732   -5.4395 C   0  0  0  0  0  0  0  0  0  0  0  0
   10.6954    7.0156   -6.8073 C   0  0  0  0  0  0  0  0  0  0  0  0
   10.2502    8.1187   -7.5536 C   0  0  2  0  0  0  0  0  0  0  0  0
   11.1205    8.4712   -4.9629 C   0  0  0  0  0  0  0  0  0  0  0  0
   10.8655    8.3511   -8.7960 C   0  0  0  0  0  0  0  0  0  0  0  0
   10.2922    7.8843   -9.9985 C   0  0  0  0  0  0  0  0  0  0  0  0
   10.4654    9.6993   -5.6120 C   0  0  0  0  0  0  0  0  0  0  0  0
   10.3510    9.5971   -7.0014 C   0  0  0  0  0  0  0  0  0  0  0  0
   12.2462    6.3351   -3.5020 C   0  0  0  0  0  0  0  0  0  0  0  0
   11.0471    7.5309  -11.1063 C   0  0  0  0  0  0  0  0  0  0  0  0
   11.7288    8.6923   -3.6518 C   0  0  0  0  0  0  0  0  0  0  0  0
   12.3991    7.7501  -11.1145 C   0  0  0  0  0  0  0  0  0  0  0  0
   12.3738    7.7580   -2.9599 C   0  0  0  0  0  0  0  0  0  0  0  0
   13.1285    8.5075  -10.1661 O   0  0  0  0  0  0  0  0  0  0  0  0
    9.0407    7.3775  -10.0973 N   0  0  0  0  0  0  0  0  0  0  0  0
    8.9787    6.9473  -11.4664 N   0  0  0  0  0  0  0  0  0  0  0  0
   13.1012    7.4459  -12.3707 C   0  0  0  0  0  0  0  0  0  0  0  0
   12.2395    6.9724  -13.2444 C   0  0  0  0  0  0  0  0  0  0  0  0
   10.2768    7.0170  -11.9799 C   0  0  0  0  0  0  0  0  0  0  0  0
   12.9237    6.5822  -14.5759 O   0  0  0  0  0  0  0  0  0  0  0  0
   10.8906    6.6526  -13.2252 C   0  0  0  0  0  0  0  0  0  0  0  0
   12.2396    6.1290  -15.6916 C   0  0  0  0  0  0  0  0  0  0  0  0
    7.8036    6.1825  -11.9342 C   0  0  0  0  0  0  0  0  0  0  0  0
   12.5015    4.7115  -15.7686 C   0  0  0  0  0  0  0  0  0  0  0  0
    7.1685    6.9992  -12.8245 C   0  0  0  0  0  0  0  0  0  0  0  0
   11.2461    3.8540  -15.4851 C   0  0  0  0  0  0  0  0  0  0  0  0
    7.6237    4.9154  -11.6529 C   0  0  0  0  0  0  0  0  0  0  0  0
    6.6378    4.1960  -12.2267 C   0  0  0  0  0  0  0  0  0  0  0  0
    6.2717    2.7675  -11.9743 C   0  0  0  0  0  0  0  0  0  0  0  0
    6.6569    1.8873  -12.9460 C   0  0  0  0  0  0  0  0  0  0  0  0
    7.3895    8.4597  -13.1785 C   0  0  0  0  0  0  0  0  0  0  0  0
    7.5497    2.2740  -13.9920 C   0  0  0  0  0  0  0  0  0  0  0  0
    8.3498    3.4496  -14.0257 C   0  0  1  0  0  0  0  0  0  0  0  0
   11.4430    2.5942  -15.6452 O   0  0  0  0  0  0  0  0  0  0  0  0
   10.2255    4.3894  -14.9171 N   0  0  0  0  0  0  0  0  0  0  0  0
    8.9744    3.7468  -14.8970 C   0  0  0  0  0  0  0  0  0  0  0  0
    9.1613    3.0010  -16.0084 N   0  0  0  0  0  0  0  0  0  0  0  0
    7.4347    4.5127  -13.2783 C   0  0  2  0  0  0  0  0  0  0  0  0
  1  2  1  0  0  0  0
  1 10  2  0  0  0  0
  2  3  1  0  0  0  0
  2  5  2  0  0  0  0
  3  4  1  0  0  0  0
  4  6  1  6  0  0  0
  4  9  1  0  0  0  0
  5  8  1  0  0  0  0
  5 12  1  0  0  0  0
  6  7  1  0  0  0  0
  7 11  1  0  0  0  0
  7 16  2  0  0  0  0
  8  9  1  0  0  0  0
 10 14  1  0  0  0  0
 11 13  2  0  0  0  0
 11 20  1  0  0  0  0
 12 14  2  0  0  0  0
 13 15  1  0  0  0  0
 13 18  1  0  0  0  0
 16 17  1  0  0  0  0
 17 20  1  0  0  0  0
 17 24  1  0  0  0  0
 18 19  2  0  0  0  0
 19 21  1  0  0  0  0
 19 22  1  0  0  0  0
 20 22  2  0  0  0  0
 21 23  1  0  0  0  0
 23 25  1  0  0  0  0
 24 26  2  3  0  0  0
 24 28  1  0  0  0  0
 25 27  1  0  0  0  0
 26 32  1  0  0  0  0
 27 35  2  0  0  0  0
 27 36  1  0  0  0  0
 28 29  2  3  0  0  0
 29 30  1  0  0  0  0
 29 39  1  0  0  0  0
 30 31  1  0  0  0  0
 31 33  2  0  0  0  0
 34 33  1  6  0  0  0
 34 37  1  0  0  0  0
 34 39  1  0  0  0  0
 36 37  1  0  0  0  0
 37 38  2  0  0  0  0
 39 28  1  1  0  0  0
M  END
$$$$

 OpenBabel10082411353D

 39 44  0  0  0  0  0  0  0  0999 V2000
   11.6836    6.0105   -4.8831 C   0  0  0  0  0  0  0  0  0  0  0  0
   11.1291    7.0732   -5.4395 C   0  0  0  0  0  0  0  0  0  0  0  0
   10.6954    7.0156   -6.8073 C   0  0  0  0  0  0  0  0  0  0  0  0
   10.2502    8.1187   -7.5536 C   0  0  2  0  0  0  0  0  0  0  0  0
   11.1205    8.4712   -4.9629 C   0  0  0  0  0  0  0  0  0  0  0  0
   10.8655    8.3511   -8.7960 C   0  0  0  0  0  0  0  0  0  0  0  0
   10.2922    7.8843   -9.9985 C   0  0  0  0  0  0  0  0  0  0  0  0
   10.4654    9.6993   -5.6120 C   0  0  0  0  0  0  0  0  0  0  0  0
   10.3510    9.5971   -7.0014 C   0  0  0  0  0  0  0  0  0  0  0  0
   12.2462    6.3351   -3.5020 C   0  0  0  0  0  0  0  0  0  0  0  0
   11.0471    7.5309  -11.1063 C   0  0  0  0  0  0  0  0  0  0  0  0
   11.7288    8.6923   -3.6518 C   0  0  0  0  0  0  0  0  0  0  0  0
   12.3991    7.7501  -11.1145 C   0  0  0  0  0  0  0  0  0  0  0  0
   12.3738    7.7580   -2.9599 C   0  0  0  0  0  0  0  0  0  0  0  0
   13.1285    8.5075  -10.1661 O   0  0  0  0  0  0  0  0  0  0  0  0
    9.0407    7.3775  -10.0973 N   0  0  0  0  0  0  0  0  0  0  0  0
    8.9787    6.9473  -11.4664 N   0  0  0  0  0  0  0  0  0  0  0  0
   13.1012    7.4459  -12.3707 C   0  0  0  0  0  0  0  0  0  0  0  0
   12.2395    6.9724  -13.2444 C   0  0  0  0  0  0  0  0  0  0  0  0
   10.2768    7.0170  -11.9799 C   0  0  0  0  0  0  0  0  0  0  0  0
   12.9237    6.5822  -14.5759 O   0  0  0  0  0  0  0  0  0  0  0  0
   10.8906    6.6526  -13.2252 C   0  0  0  0  0  0  0  0  0  0  0  0
   12.2396    6.1290  -15.6916 C   0  0  0  0  0  0  0  0  0  0  0  0
    7.8036    6.1825  -11.9342 C   0  0  0  0  0  0  0  0  0  0  0  0
   12.5015    4.7115  -15.7686 C   0  0  0  0  0  0  0  0  0  0  0  0
    7.1685    6.9992  -12.8245 C   0  0  0  0  0  0  0  0  0  0  0  0
   11.2461    3.8540  -15.4851 C   0  0  0  0  0  0  0  0  0  0  0  0
    7.6237    4.9154  -11.6529 C   0  0  0  0  0  0  0  0  0  0  0  0
    6.6378    4.1960  -12.2267 C   0  0  0  0  0  0  0  0  0  0  0  0
    6.2717    2.7675  -11.9743 C   0  0  0  0  0  0  0  0  0  0  0  0
    6.6569    1.8873  -12.9460 C   0  0  2  0  0  0  0  0  0  0  0  0
    6.2393    0.5737  -12.7991 C   0  0  0  0  0  0  0  0  0  0  0  0
    5.8868    6.2205  -13.3605 C   0  0  0  0  0  0  0  0  0  0  0  0
    5.6870    4.9300  -13.0899 C   0  0  0  0  0  0  0  0  0  0  0  0
   10.9648    3.4588  -14.2736 C   0  0  0  0  0  0  0  0  0  0  0  0
    8.1204    1.7675  -13.1699 O   0  0  0  0  0  0  0  0  0  0  0  0
    8.6822    2.7432  -13.9205 C   0  0  0  0  0  0  0  0  0  0  0  0
   10.0797    2.8849  -13.5638 C   0  0  0  0  0  0  0  0  0  0  0  0
    8.1307    3.2380  -14.8340 O   0  0  0  0  0  0  0  0  0  0  0  0
  1  2  1  0  0  0  0
  1 10  2  0  0  0  0
  2  3  1  0  0  0  0
  2  5  2  0  0  0  0
  3  4  1  0  0  0  0
  4  6  1  6  0  0  0
  4  9  1  0  0  0  0
  5  8  1  0  0  0  0
  5 12  1  0  0  0  0
  6  7  1  0  0  0  0
  7 11  1  0  0  0  0
  7 16  2  0  0  0  0
  8  9  1  0  0  0  0
 10 14  1  0  0  0  0
 11 13  2  0  0  0  0
 11 20  1  0  0  0  0
 12 14  2  0  0  0  0
 13 15  1  0  0  0  0
 13 18  1  0  0  0  0
 16 17  1  0  0  0  0
 17 20  1  0  0  0  0
 17 24  1  0  0  0  0
 18 19  2  0  0  0  0
 19 21  1  0  0  0  0
 19 22  1  0  0  0  0
 20 22  2  0  0  0  0
 21 23  1  0  0  0  0
 23 25  1  0  0  0  0
 24 26  2  0  0  0  0
 24 28  1  0  0  0  0
 25 27  1  0  0  0  0
 26 33  1  0  0  0  0
 27 35  1  0  0  0  0
 28 29  2  0  0  0  0
 29 30  1  0  0  0  0
 29 34  1  0  0  0  0
 30 31  1  0  0  0  0
 31 32  1  1  0  0  0
 31 36  1  0  0  0  0
 33 34  2  0  0  0  0
 35 38  2  0  0  0  0
 36 37  1  0  0  0  0
 37 38  1  0  0  0  0
 37 39  2  0  0  0  0
M  END
$$$$

 OpenBabel10082411353D

 39 45  0  0  0  0  0  0  0  0999 V2000
   12.7863    7.8241  -14.2109 C   0  0  0  0  0  0  0  0  0  0  0  0
   12.4233    7.7158  -13.0289 C   0  0  0  0  0  0  0  0  0  0  0  0
   11.3194    6.8571  -12.8028 C   0  0  0  0  0  0  0  0  0  0  0  0
   12.3150    7.2021  -15.3582 C   0  0  0  0  0  0  0  0  0  0  0  0
   11.2733    6.2739  -15.1502 C   0  0  0  0  0  0  0  0  0  0  0  0
   10.8099    6.0126  -13.8600 C   0  0  0  0  0  0  0  0  0  0  0  0
    9.6782    5.1428  -13.6488 C   0  0  0  0  0  0  0  0  0  0  0  0
    8.5753    5.3880  -12.9589 N   0  0  0  0  0  0  0  0  0  0  0  0
    8.3226    6.7011  -12.3862 C   0  0  0  0  0  0  0  0  0  0  0  0
    9.8502    3.8578  -14.0728 C   0  0  0  0  0  0  0  0  0  0  0  0
    7.3864    7.4720  -13.0530 C   0  0  0  0  0  0  0  0  0  0  0  0
    6.2412    7.8486  -12.2599 C   0  0  0  0  0  0  0  0  0  0  0  0
    7.6425    4.4186  -12.7943 C   0  0  0  0  0  0  0  0  0  0  0  0
   11.0297    3.2482  -14.8053 C   0  0  0  0  0  0  0  0  0  0  0  0
    8.6802    2.8955  -13.7960 C   0  0  0  0  0  0  0  0  0  0  0  0
    8.8565    1.5917  -14.3582 O   0  0  0  0  0  0  0  0  0  0  0  0
    7.6903    3.2226  -13.1994 N   0  0  0  0  0  0  0  0  0  0  0  0
    6.5724    2.3444  -12.8378 C   0  0  0  0  0  0  0  0  0  0  0  0
    9.0225    7.0353  -11.3259 C   0  0  0  0  0  0  0  0  0  0  0  0
    6.2405    4.8489  -12.4515 C   0  0  0  0  0  0  0  0  0  0  0  0
   10.5875    7.0617  -11.5321 C   0  0  0  0  0  0  0  0  0  0  0  0
   11.0960    7.6093  -10.4100 C   0  0  0  0  0  0  0  0  0  0  0  0
    8.4039    7.3336  -10.1102 C   0  0  0  0  0  0  0  0  0  0  0  0
   10.6086    7.8156   -9.1888 C   0  0  0  0  0  0  0  0  0  0  0  0
    9.3113    7.5527   -9.2022 C   0  0  0  0  0  0  0  0  0  0  0  0
    5.5868    3.4174  -12.3561 C   0  0  0  0  0  0  0  0  0  0  0  0
    8.7252    7.9330   -7.6242 C   0  0  0  0  0  0  0  0  0  0  0  0
   11.1859    8.0862   -7.9601 C   0  0  0  0  0  0  0  0  0  0  0  0
   12.7495    8.2704   -8.0174 C   0  0  0  0  0  0  0  0  0  0  0  0
   10.4493    8.2542   -6.7750 C   0  0  2  0  0  0  0  0  0  0  0  0
    9.2142    8.3462   -6.7539 C   0  0  0  0  0  0  0  0  0  0  0  0
   11.4483    9.0676   -5.7294 C   0  0  1  0  0  0  0  0  0  0  0  0
   10.5479    6.9328   -5.7137 C   0  0  0  0  0  0  0  0  0  0  0  0
   13.0940    9.3998   -7.2782 C   0  0  0  0  0  0  0  0  0  0  0  0
   12.8182    9.2697   -5.8803 C   0  0  0  0  0  0  0  0  0  0  0  0
   10.7663   10.5076   -5.8947 C   0  0  0  0  0  0  0  0  0  0  0  0
   11.4445    5.9218   -5.8343 O   0  0  0  0  0  0  0  0  0  0  0  0
    9.8982    6.9178   -4.6654 O   0  0  0  0  0  0  0  0  0  0  0  0
   11.0626    8.9140   -4.1805 O   0  0  0  0  0  0  0  0  0  0  0  0
  1  2  2  0  0  0  0
  1  4  1  0  0  0  0
  2  3  1  0  0  0  0
  3  6  2  0  0  0  0
  3 21  1  0  0  0  0
  4  5  2  0  0  0  0
  5  6  1  0  0  0  0
  6  7  1  0  0  0  0
  7  8  1  0  0  0  0
  7 10  2  0  0  0  0
  8  9  1  0  0  0  0
  8 13  1  0  0  0  0
  9 11  1  0  0  0  0
  9 19  2  0  0  0  0
 10 14  1  0  0  0  0
 10 15  1  0  0  0  0
 11 12  1  0  0  0  0
 13 17  1  0  0  0  0
 13 20  2  0  0  0  0
 15 16  2  0  0  0  0
 15 17  1  0  0  0  0
 17 18  1  0  0  0  0
 18 26  2  0  0  0  0
 19 21  1  0  0  0  0
 19 23  1  0  0  0  0
 20 26  1  0  0  0  0
 21 22  2  0  0  0  0
 22 24  1  0  0  0  0
 23 25  2  0  0  0  0
 24 25  1  0  0  0  0
 24 28  2  0  0  0  0
 25 27  1  0  0  0  0
 27 31  2  0  0  0  0
 28 29  1  0  0  0  0
 28 30  1  0  0  0  0
 29 34  1  0  0  0  0
 30 31  1  0  0  0  0
 30 32  1  0  0  0  0
 30 33  1  1  0  0  0
 32 35  1  0  0  0  0
 32 36  1  6  0  0  0
 32 39  1  0  0  0  0
 33 37  1  0  0  0  0
 33 38  2  0  0  0  0
 34 35  1  0  0  0  0
M  END
$$$$

 OpenBabel10082411353D

 39 46  0  0  0  0  0  0  0  0999 V2000
   12.7863    7.8241  -14.2109 C   0  0  0  0  0  0  0  0  0  0  0  0
   12.4233    7.7158  -13.0289 C   0  0  0  0  0  0  0  0  0  0  0  0
   11.3194    6.8571  -12.8028 C   0  0  0  0  0  0  0  0  0  0  0  0
   12.3150    7.2021  -15.3582 C   0  0  0  0  0  0  0  0  0  0  0  0
   11.2733    6.2739  -15.1502 C   0  0  0  0  0  0  0  0  0  0  0  0
   10.8099    6.0126  -13.8600 C   0  0  0  0  0  0  0  0  0  0  0  0
    9.6782    5.1428  -13.6488 C   0  0  0  0  0  0  0  0  0  0  0  0
    8.5753    5.3880  -12.9589 N   0  0  0  0  0  0  0  0  0  0  0  0
    8.3226    6.7011  -12.3862 C   0  0  0  0  0  0  0  0  0  0  0  0
    9.8502    3.8578  -14.0728 C   0  0  0  0  0  0  0  0  0  0  0  0
    7.3864    7.4720  -13.0530 C   0  0  0  0  0  0  0  0  0  0  0  0
    6.2412    7.8486  -12.2599 C   0  0  0  0  0  0  0  0  0  0  0  0
    7.6425    4.4186  -12.7943 C   0  0  0  0  0  0  0  0  0  0  0  0
   11.0297    3.2482  -14.8053 C   0  0  0  0  0  0  0  0  0  0  0  0
    8.6802    2.8955  -13.7960 C   0  0  0  0  0  0  0  0  0  0  0  0
    8.8565    1.5917  -14.3582 O   0  0  0  0  0  0  0  0  0  0  0  0
    7.6903    3.2226  -13.1994 N   0  0  0  0  0  0  0  0  0  0  0  0
    6.5724    2.3444  -12.8378 C   0  0  0  0  0  0  0  0  0  0  0  0
    9.0225    7.0353  -11.3259 C   0  0  0  0  0  0  0  0  0  0  0  0
    6.2405    4.8489  -12.4515 C   0  0  0  0  0  0  0  0  0  0  0  0
   10.5875    7.0617  -11.5321 C   0  0  0  0  0  0  0  0  0  0  0  0
   11.0960    7.6093  -10.4100 C   0  0  0  0  0  0  0  0  0  0  0  0
    8.4039    7.3336  -10.1102 C   0  0  0  0  0  0  0  0  0  0  0  0
    5.5911    3.3517  -12.3508 C   0  0  0  0  0  0  0  0  0  0  0  0
   12.6259    7.6530  -10.3901 C   0  0  0  0  0  0  0  0  0  0  0  0
   10.4284    7.7784   -9.2128 C   0  0  0  0  0  0  0  0  0  0  0  0
    9.2236    7.5051   -9.0617 C   0  0  2  0  0  0  0  0  0  0  0  0
    8.7145    7.3063   -7.7135 N   0  0  0  0  0  0  0  0  0  0  0  0
    9.3548    8.2125   -6.8305 C   0  0  0  0  0  0  0  0  0  0  0  0
   13.2400    8.3532   -9.3250 C   0  0  0  0  0  0  0  0  0  0  0  0
    8.8718    5.9168   -7.2228 C   0  0  0  0  0  0  0  0  0  0  0  0
   12.5074    8.3587   -8.0386 C   0  0  0  0  0  0  0  0  0  0  0  0
   11.1924    8.1932   -7.9474 C   0  0  0  0  0  0  0  0  0  0  0  0
   10.5178    8.6952   -6.8252 C   0  0  0  0  0  0  0  0  0  0  0  0
   11.2414    9.5732   -5.7893 C   0  0  0  0  0  0  0  0  0  0  0  0
   12.4652    9.1984   -5.1969 C   0  0  0  0  0  0  0  0  0  0  0  0
   10.4376    9.5889   -4.5308 C   0  0  0  0  0  0  0  0  0  0  0  0
   11.1718    9.0018   -3.5689 C   0  0  0  0  0  0  0  0  0  0  0  0
   12.0184    7.9781   -4.1442 C   0  0  0  0  0  0  0  0  0  0  0  0
  1  2  2  0  0  0  0
  1  4  1  0  0  0  0
  2  3  1  0  0  0  0
  3  6  2  0  0  0  0
  3 21  1  0  0  0  0
  4  5  2  0  0  0  0
  5  6  1  0  0  0  0
  6  7  1  0  0  0  0
  7  8  1  0  0  0  0
  7 10  2  0  0  0  0
  8  9  1  0  0  0  0
  8 13  1  0  0  0  0
  9 11  1  0  0  0  0
  9 19  2  0  0  0  0
 10 14  1  0  0  0  0
 10 15  1  0  0  0  0
 11 12  1  0  0  0  0
 13 17  1  0  0  0  0
 13 20  2  0  0  0  0
 15 16  2  0  0  0  0
 15 17  1  0  0  0  0
 17 18  1  0  0  0  0
 18 24  1  0  0  0  0
 19 21  1  0  0  0  0
 19 23  1  0  0  0  0
 20 24  1  0  0  0  0
 21 22  2  0  0  0  0
 22 25  1  0  0  0  0
 22 26  1  0  0  0  0
 25 30  1  0  0  0  0
 26 27  1  0  0  0  0
 26 33  2  0  0  0  0
 27 23  1  6  0  0  0
 27 28  1  0  0  0  0
 28 29  1  0  0  0  0
 28 31  1  0  0  0  0
 29 34  2  0  0  0  0
 30 32  1  0  0  0  0
 32 33  1  0  0  0  0
 33 34  1  0  0  0  0
 34 35  1  0  0  0  0
 35 36  1  0  0  0  0
 35 37  1  0  0  0  0
 36 39  1  0  0  0  0
 37 38  1  0  0  0  0
 38 39  1  0  0  0  0
M  END
$$$$

 OpenBabel10082411353D

 39 43  0  0  0  0  0  0  0  0999 V2000
   11.6836    6.0105   -4.8831 F   0  0  0  0  0  0  0  0  0  0  0  0
   11.2562    7.2206   -5.0294 C   0  0  0  0  0  0  0  0  0  0  0  0
   12.0125    8.2418   -4.4408 C   0  0  0  0  0  0  0  0  0  0  0  0
   11.1918    7.2706   -6.5237 C   0  0  0  0  0  0  0  0  0  0  0  0
   11.6999    8.4488   -3.1704 F   0  0  0  0  0  0  0  0  0  0  0  0
    9.8648    7.0908   -4.5314 F   0  0  0  0  0  0  0  0  0  0  0  0
   11.6831    8.5291   -6.9682 C   0  0  0  0  0  0  0  0  0  0  0  0
   10.4785    6.5189   -7.4033 C   0  0  0  0  0  0  0  0  0  0  0  0
   11.6979    8.6661   -8.4760 C   0  0  0  0  0  0  0  0  0  0  0  0
   11.6248    9.5853   -5.0030 C   0  0  0  0  0  0  0  0  0  0  0  0
   11.8604    9.7907   -6.2903 O   0  0  0  0  0  0  0  0  0  0  0  0
   13.3557    8.1748   -4.5947 F   0  0  0  0  0  0  0  0  0  0  0  0
   10.5427    6.6061   -8.7190 C   0  0  0  0  0  0  0  0  0  0  0  0
   11.1158    7.7103   -9.2540 C   0  0  0  0  0  0  0  0  0  0  0  0
   11.3757    7.6656  -10.5293 N   0  0  0  0  0  0  0  0  0  0  0  0
   10.7153    7.7096  -11.5405 C   0  0  0  0  0  0  0  0  0  0  0  0
   11.2483    7.4711  -12.8542 C   0  0  0  0  0  0  0  0  0  0  0  0
    9.3980    7.7820  -11.5398 C   0  0  0  0  0  0  0  0  0  0  0  0
    8.6055    7.5889  -12.6525 C   0  0  0  0  0  0  0  0  0  0  0  0
   12.7508    7.3705  -13.0162 O   0  0  0  0  0  0  0  0  0  0  0  0
   10.5299    7.1831  -13.9856 C   0  0  0  0  0  0  0  0  0  0  0  0
    7.0533    7.7371  -12.5396 C   0  0  0  0  0  0  0  0  0  0  0  0
   11.2041    6.8490  -15.2304 C   0  0  0  0  0  0  0  0  0  0  0  0
   11.6393    5.5333  -15.3864 C   0  0  0  0  0  0  0  0  0  0  0  0
    9.1955    7.2935  -13.8301 C   0  0  0  0  0  0  0  0  0  0  0  0
   12.5294    5.1116  -16.1609 C   0  0  0  0  0  0  0  0  0  0  0  0
   11.2315    4.4703  -14.3200 C   0  0  0  0  0  0  0  0  0  0  0  0
   13.0194    6.0876  -17.1697 C   0  0  0  0  0  0  0  0  0  0  0  0
   12.9874    3.8316  -16.1456 C   0  0  0  0  0  0  0  0  0  0  0  0
   12.3949    2.9126  -15.4671 C   0  0  0  0  0  0  0  0  0  0  0  0
   10.2274    4.8149  -13.2643 C   0  0  0  0  0  0  0  0  0  0  0  0
    8.9564    4.3798  -13.5553 C   0  0  0  0  0  0  0  0  0  0  0  0
    8.7042    3.2659  -14.2465 C   0  0  0  0  0  0  0  0  0  0  0  0
   11.4148    3.2767  -14.5206 C   0  0  0  0  0  0  0  0  0  0  0  0
    8.0769    4.5652  -12.3451 C   0  0  0  0  0  0  0  0  0  0  0  0
    6.8532    4.1363  -12.5398 C   0  0  0  0  0  0  0  0  0  0  0  0
    5.8046    4.5086  -11.4664 C   0  0  0  0  0  0  0  0  0  0  0  0
    6.4819    3.1514  -13.4420 C   0  0  0  0  0  0  0  0  0  0  0  0
    7.4437    2.6887  -14.2784 C   0  0  0  0  0  0  0  0  0  0  0  0
  1  2  1  0  0  0  0
  2  3  1  0  0  0  0
  2  4  1  0  0  0  0
  2  6  1  0  0  0  0
  3  5  1  0  0  0  0
  3 10  1  0  0  0  0
  3 12  1  0  0  0  0
  4  7  1  0  0  0  0
  4  8  2  0  0  0  0
  7  9  2  0  0  0  0
  7 11  1  0  0  0  0
  8 13  1  0  0  0  0
  9 14  1  0  0  0  0
 10 11  1  0  0  0  0
 13 14  2  0  0  0  0
 14 15  1  0  0  0  0
 15 16  1  0  0  0  0
 16 17  1  0  0  0  0
 16 18  2  0  0  0  0
 17 20  1  0  0  0  0
 17 21  2  0  0  0  0
 18 19  1  0  0  0  0
 19 22  1  0  0  0  0
 19 25  2  0  0  0  0
 21 23  1  0  0  0  0
 21 25  1  0  0  0  0
 23 24  1  0  0  0  0
 24 26  2  0  0  0  0
 24 27  1  0  0  0  0
 26 28  1  0  0  0  0
 26 29  1  0  0  0  0
 27 31  1  0  0  0  0
 27 34  2  0  0  0  0
 29 30  2  0  0  0  0
 30 34  1  0  0  0  0
 31 32  2  3  0  0  0
 32 33  1  0  0  0  0
 32 35  1  0  0  0  0
 33 39  1  0  0  0  0
 35 36  2  0  0  0  0
 36 37  1  0  0  0  0
 36 38  1  0  0  0  0
 38 39  2  0  0  0  0
M  END
$$$$

 OpenBabel10082411353D

 39 44  0  0  0  0  0  0  0  0999 V2000
   11.6836    6.0105   -4.8831 C   0  0  0  0  0  0  0  0  0  0  0  0
   11.1291    7.0732   -5.4395 C   0  0  0  0  0  0  0  0  0  0  0  0
   10.6954    7.0156   -6.8073 C   0  0  0  0  0  0  0  0  0  0  0  0
   10.2502    8.1187   -7.5536 C   0  0  2  0  0  0  0  0  0  0  0  0
   11.1205    8.4712   -4.9629 C   0  0  0  0  0  0  0  0  0  0  0  0
   10.8655    8.3511   -8.7960 C   0  0  0  0  0  0  0  0  0  0  0  0
   10.2922    7.8843   -9.9985 C   0  0  0  0  0  0  0  0  0  0  0  0
   10.4654    9.6993   -5.6120 C   0  0  0  0  0  0  0  0  0  0  0  0
   10.3510    9.5971   -7.0014 C   0  0  0  0  0  0  0  0  0  0  0  0
   12.2462    6.3351   -3.5020 C   0  0  0  0  0  0  0  0  0  0  0  0
   11.0471    7.5309  -11.1063 C   0  0  0  0  0  0  0  0  0  0  0  0
   11.7288    8.6923   -3.6518 C   0  0  0  0  0  0  0  0  0  0  0  0
   12.3991    7.7501  -11.1145 C   0  0  0  0  0  0  0  0  0  0  0  0
   12.3738    7.7580   -2.9599 C   0  0  0  0  0  0  0  0  0  0  0  0
   13.1285    8.5075  -10.1661 O   0  0  0  0  0  0  0  0  0  0  0  0
    9.0407    7.3775  -10.0973 N   0  0  0  0  0  0  0  0  0  0  0  0
    8.9787    6.9473  -11.4664 N   0  0  0  0  0  0  0  0  0  0  0  0
   13.1012    7.4459  -12.3707 C   0  0  0  0  0  0  0  0  0  0  0  0
   12.2395    6.9724  -13.2444 C   0  0  0  0  0  0  0  0  0  0  0  0
   10.2768    7.0170  -11.9799 C   0  0  0  0  0  0  0  0  0  0  0  0
   12.9237    6.5822  -14.5759 O   0  0  0  0  0  0  0  0  0  0  0  0
   10.8906    6.6526  -13.2252 C   0  0  0  0  0  0  0  0  0  0  0  0
   12.2396    6.1290  -15.6916 C   0  0  0  0  0  0  0  0  0  0  0  0
    7.8036    6.1825  -11.9342 C   0  0  0  0  0  0  0  0  0  0  0  0
   12.5015    4.7115  -15.7686 C   0  0  0  0  0  0  0  0  0  0  0  0
    7.1685    6.9992  -12.8245 C   0  0  0  0  0  0  0  0  0  0  0  0
   11.2461    3.8540  -15.4851 C   0  0  0  0  0  0  0  0  0  0  0  0
    7.6237    4.9154  -11.6529 C   0  0  0  0  0  0  0  0  0  0  0  0
    6.6378    4.1960  -12.2267 C   0  0  0  0  0  0  0  0  0  0  0  0
    6.2717    2.7675  -11.9743 C   0  0  0  0  0  0  0  0  0  0  0  0
    6.6569    1.8873  -12.9460 C   0  0  2  0  0  0  0  0  0  0  0  0
    6.2393    0.5737  -12.7991 C   0  0  0  0  0  0  0  0  0  0  0  0
    5.7332    5.0094  -13.0098 C   0  0  0  0  0  0  0  0  0  0  0  0
   11.4513    2.5769  -15.3310 O   0  0  0  0  0  0  0  0  0  0  0  0
    5.8943    6.2717  -13.4084 C   0  0  0  0  0  0  0  0  0  0  0  0
   10.1835    4.4428  -14.8841 O   0  0  0  0  0  0  0  0  0  0  0  0
    8.0814    1.7611  -13.1181 O   0  0  0  0  0  0  0  0  0  0  0  0
    9.0902    3.6400  -14.4290 C   0  0  0  0  0  0  0  0  0  0  0  0
    9.0063    2.2982  -14.0346 C   0  0  0  0  0  0  0  0  0  0  0  0
  1  2  1  0  0  0  0
  1 10  2  0  0  0  0
  2  3  1  0  0  0  0
  2  5  2  0  0  0  0
  3  4  1  0  0  0  0
  4  6  1  6  0  0  0
  4  9  1  0  0  0  0
  5  8  1  0  0  0  0
  5 12  1  0  0  0  0
  6  7  1  0  0  0  0
  7 11  1  0  0  0  0
  7 16  2  0  0  0  0
  8  9  1  0  0  0  0
 10 14  1  0  0  0  0
 11 13  2  0  0  0  0
 11 20  1  0  0  0  0
 12 14  2  0  0  0  0
 13 15  1  0  0  0  0
 13 18  1  0  0  0  0
 16 17  1  0  0  0  0
 17 20  1  0  0  0  0
 17 24  1  0  0  0  0
 18 19  2  0  0  0  0
 19 21  1  0  0  0  0
 19 22  1  0  0  0  0
 20 22  2  0  0  0  0
 21 23  1  0  0  0  0
 23 25  1  0  0  0  0
 24 26  2  0  0  0  0
 24 28  1  0  0  0  0
 25 27  1  0  0  0  0
 26 35  1  0  0  0  0
 27 34  2  0  0  0  0
 27 36  1  0  0  0  0
 28 29  2  0  0  0  0
 29 30  1  0  0  0  0
 29 33  1  0  0  0  0
 30 31  1  0  0  0  0
 31 32  1  1  0  0  0
 31 37  1  0  0  0  0
 33 35  2  0  0  0  0
 36 38  1  0  0  0  0
 37 39  1  0  0  0  0
 38 39  2  0  0  0  0
M  END
$$$$

 OpenBabel10082411353D

 26 28  0  0  0  0  0  0  0  0999 V2000
   12.8881    8.7759   -3.5681 C   0  0  0  0  0  0  0  0  0  0  0  0
   11.9416    9.4732   -4.1220 C   0  0  0  0  0  0  0  0  0  0  0  0
   12.3556    7.6012   -2.6527 C   0  0  0  0  0  0  0  0  0  0  0  0
   11.8805    9.3400   -5.6557 C   0  0  0  0  0  0  0  0  0  0  0  0
   11.7716    6.5414   -3.3821 C   0  0  0  0  0  0  0  0  0  0  0  0
   10.8523    8.6585   -6.3310 C   0  0  0  0  0  0  0  0  0  0  0  0
   11.1142    8.2520   -7.7289 C   0  0  0  0  0  0  0  0  0  0  0  0
   10.0478    7.6568   -8.4887 C   0  0  0  0  0  0  0  0  0  0  0  0
   12.3648    8.4339   -8.3703 C   0  0  0  0  0  0  0  0  0  0  0  0
   12.6142    8.1352   -9.7322 C   0  0  0  0  0  0  0  0  0  0  0  0
   10.2852    7.3833   -9.9138 C   0  0  0  0  0  0  0  0  0  0  0  0
   11.5161    7.5808  -10.4860 C   0  0  0  0  0  0  0  0  0  0  0  0
   11.6641    7.2285  -11.8174 O   0  0  0  0  0  0  0  0  0  0  0  0
   10.8624    6.4419  -12.4395 C   0  0  0  0  0  0  0  0  0  0  0  0
   11.2693    5.8267  -13.4966 C   0  0  0  0  0  0  0  0  0  0  0  0
   10.3973    4.9870  -14.3057 C   0  0  0  0  0  0  0  0  0  0  0  0
   12.6295    5.9759  -14.0650 O   0  0  0  0  0  0  0  0  0  0  0  0
   10.8956    4.1934  -15.4489 C   0  0  0  0  0  0  0  0  0  0  0  0
    9.2617    4.6689  -13.8393 C   0  0  0  0  0  0  0  0  0  0  0  0
    9.1278    6.8012  -10.5958 C   0  0  0  0  0  0  0  0  0  0  0  0
    9.5642    6.1571  -11.9260 C   0  0  0  0  0  0  0  0  0  0  0  0
   12.7502    6.6186  -15.2675 C   0  0  0  0  0  0  0  0  0  0  0  0
    8.7679    5.3208  -12.5840 C   0  0  0  0  0  0  0  0  0  0  0  0
    7.2049    4.9098  -12.1268 C   0  0  0  0  0  0  0  0  0  0  0  0
    6.7975    3.6784  -12.7150 C   0  0  0  0  0  0  0  0  0  0  0  0
   11.2263    2.8675  -15.2462 C   0  0  0  0  0  0  0  0  0  0  0  0
  1  2  1  0  0  0  0
  1  3  1  0  0  0  0
  2  4  1  0  0  0  0
  3  5  1  0  0  0  0
  4  6  1  0  0  0  0
  6  7  1  0  0  0  0
  7  8  1  0  0  0  0
  7  9  2  0  0  0  0
  8 11  2  0  0  0  0
  9 10  1  0  0  0  0
 10 12  2  0  0  0  0
 11 12  1  0  0  0  0
 11 20  1  0  0  0  0
 12 13  1  0  0  0  0
 13 14  1  0  0  0  0
 14 15  2  0  0  0  0
 14 21  1  0  0  0  0
 15 16  1  0  0  0  0
 15 17  1  0  0  0  0
 16 18  1  0  0  0  0
 16 19  2  0  0  0  0
 17 22  1  0  0  0  0
 18 26  1  0  0  0  0
 19 23  1  0  0  0  0
 20 21  1  0  0  0  0
 21 23  2  0  0  0  0
 23 24  1  0  0  0  0
 24 25  1  0  0  0  0
M  END
$$$$

 OpenBabel10082411353D

 39 45  0  0  0  0  0  0  0  0999 V2000
   13.2379    9.0584   -7.2681 C   0  0  0  0  0  0  0  0  0  0  0  0
   12.9396    9.3022   -5.9810 C   0  0  0  0  0  0  0  0  0  0  0  0
   12.1602    8.6694   -7.9361 C   0  0  0  0  0  0  0  0  0  0  0  0
   14.0320    9.7504   -5.0711 F   0  0  0  0  0  0  0  0  0  0  0  0
   10.9536    8.4526   -7.1212 C   0  0  1  0  0  0  0  0  0  0  0  0
   12.1901    8.3365   -9.3972 C   0  0  0  0  0  0  0  0  0  0  0  0
   11.0443    7.8367  -10.0430 C   0  0  0  0  0  0  0  0  0  0  0  0
   11.0471    8.9348   -5.8250 C   0  0  1  0  0  0  0  0  0  0  0  0
    9.5270    7.9533   -7.4234 C   0  0  2  0  0  0  0  0  0  0  0  0
    9.7802    8.7666   -5.0086 F   0  0  0  0  0  0  0  0  0  0  0  0
   11.9790    9.3452   -5.1373 C   0  0  0  0  0  0  0  0  0  0  0  0
    9.1878    6.9159   -6.7141 C   0  0  0  0  0  0  0  0  0  0  0  0
   11.1576    7.5184  -11.4190 C   0  0  0  0  0  0  0  0  0  0  0  0
    9.8595    7.5543   -8.9986 C   0  0  1  0  0  0  0  0  0  0  0  0
    9.9779    6.9809  -11.9943 C   0  0  0  0  0  0  0  0  0  0  0  0
   10.1471    6.6534  -13.4127 C   0  0  0  0  0  0  0  0  0  0  0  0
   12.3591    7.4352  -12.0563 C   0  0  0  0  0  0  0  0  0  0  0  0
    8.5551    6.8980  -11.2951 C   0  0  1  0  0  0  0  0  0  0  0  0
   12.2421    7.1981  -13.3125 C   0  0  0  0  0  0  0  0  0  0  0  0
   11.2735    6.6870  -13.9872 C   0  0  0  0  0  0  0  0  0  0  0  0
    8.1020    6.3652   -7.0525 O   0  0  0  0  0  0  0  0  0  0  0  0
   11.5320    6.1869  -15.4842 C   0  0  0  0  0  0  0  0  0  0  0  0
   11.6397    4.8187  -15.5947 N   0  0  0  0  0  0  0  0  0  0  0  0
   11.7429    6.9569  -16.3970 O   0  0  0  0  0  0  0  0  0  0  0  0
   11.2928    3.8324  -14.5891 C   0  0  0  0  0  0  0  0  0  0  0  0
    7.5388    6.6719  -11.9871 C   0  0  0  0  0  0  0  0  0  0  0  0
   11.5537    4.1926  -16.9885 C   0  0  0  0  0  0  0  0  0  0  0  0
    6.8943    7.7297  -12.6293 C   0  0  0  0  0  0  0  0  0  0  0  0
   12.4886    3.1529  -17.0211 C   0  0  0  0  0  0  0  0  0  0  0  0
   10.6070    2.6673  -14.9825 C   0  0  0  0  0  0  0  0  0  0  0  0
    7.0671    5.3528  -12.1345 C   0  0  0  0  0  0  0  0  0  0  0  0
    8.8121    6.8590   -9.7791 C   0  0  0  0  0  0  0  0  0  0  0  0
    7.5818    4.1934  -11.6434 C   0  0  0  0  0  0  0  0  0  0  0  0
    7.1593    2.9956  -12.2994 C   0  0  0  0  0  0  0  0  0  0  0  0
   11.6206    2.0274  -16.1494 C   0  0  0  0  0  0  0  0  0  0  0  0
    6.0254    3.2500  -13.2202 C   0  0  0  0  0  0  0  0  0  0  0  0
    5.5735    4.3286  -13.6640 C   0  0  0  0  0  0  0  0  0  0  0  0
    6.1283    5.4219  -13.1409 C   0  0  0  0  0  0  0  0  0  0  0  0
    5.8179    6.8530  -13.3564 C   0  0  0  0  0  0  0  0  0  0  0  0
  1  2  1  0  0  0  0
  1  3  2  0  0  0  0
  2  4  1  0  0  0  0
  2 11  2  0  0  0  0
  3  6  1  0  0  0  0
  5  3  1  6  0  0  0
  5  8  1  0  0  0  0
  5  9  1  0  0  0  0
  6  7  2  0  0  0  0
  7 13  1  0  0  0  0
  7 14  1  0  0  0  0
  8 10  1  1  0  0  0
  8 11  1  0  0  0  0
  9 12  1  1  0  0  0
  9 14  1  0  0  0  0
 12 21  1  0  0  0  0
 13 15  2  0  0  0  0
 13 17  1  0  0  0  0
 14 32  1  6  0  0  0
 15 16  1  0  0  0  0
 15 18  1  0  0  0  0
 16 20  2  0  0  0  0
 17 19  2  0  0  0  0
 18 26  1  6  0  0  0
 18 32  1  0  0  0  0
 19 20  1  0  0  0  0
 20 22  1  0  0  0  0
 22 23  1  0  0  0  0
 22 24  2  0  0  0  0
 23 25  1  0  0  0  0
 23 27  1  0  0  0  0
 25 30  1  0  0  0  0
 26 28  1  0  0  0  0
 26 31  2  0  0  0  0
 27 29  1  0  0  0  0
 28 39  1  0  0  0  0
 29 35  1  0  0  0  0
 30 35  1  0  0  0  0
 31 33  1  0  0  0  0
 31 38  1  0  0  0  0
 33 34  2  0  0  0  0
 34 36  1  0  0  0  0
 36 37  2  0  0  0  0
 37 38  1  0  0  0  0
 38 39  2  0  0  0  0
M  END
$$$$

 OpenBabel10082411353D

 39 49  0  0  0  0  0  0  0  0999 V2000
    8.0806    9.0240  -12.7589 C   0  0  0  0  0  0  0  0  0  0  0  0
    8.6514    7.8645  -12.2948 C   0  0  0  0  0  0  0  0  0  0  0  0
    9.9575    7.9974  -11.8426 C   0  0  0  0  0  0  0  0  0  0  0  0
   10.7657    6.8667  -11.6050 C   0  0  1  0  0  0  0  0  0  0  0  0
   10.7682    5.9590  -12.8271 C   0  0  0  0  0  0  0  0  0  0  0  0
   12.1553    7.3846  -11.2315 C   0  0  0  0  0  0  0  0  0  0  0  0
    8.0676    6.6451  -12.2974 C   0  0  0  0  0  0  0  0  0  0  0  0
   10.1892    6.1240  -10.3860 C   0  0  0  0  0  0  0  0  0  0  0  0
   11.8375    5.4373  -13.3240 O   0  0  0  0  0  0  0  0  0  0  0  0
    8.6785    5.4761  -13.0273 C   0  0  1  0  0  0  0  0  0  0  0  0
    9.1969    5.2405  -10.4969 C   0  0  1  0  0  0  0  0  0  0  0  0
    7.2213    6.2210  -11.3074 C   0  0  1  0  0  0  0  0  0  0  0  0
   12.5590    7.6872   -9.9896 C   0  0  0  0  0  0  0  0  0  0  0  0
    9.7633    5.0333  -12.9720 C   0  0  1  0  0  0  0  0  0  0  0  0
   10.0661    4.0167  -14.0373 N   0  0  0  0  0  0  0  0  0  0  0  0
   13.6906    8.3004   -9.6233 O   0  0  0  0  0  0  0  0  0  0  0  0
    7.6357    4.5123  -12.6317 C   0  0  2  0  0  0  0  0  0  0  0  0
    6.8831    4.9171  -11.7031 C   0  0  1  0  0  0  0  0  0  0  0  0
   10.5937    6.6967   -9.1779 C   0  0  0  0  0  0  0  0  0  0  0  0
    9.5087    4.3263  -11.6925 C   0  0  2  0  0  0  0  0  0  0  0  0
   11.6359    7.4449   -8.9125 C   0  0  0  0  0  0  0  0  0  0  0  0
   11.9716    7.9159   -7.6200 C   0  0  0  0  0  0  0  0  0  0  0  0
    8.4648    3.6122  -12.2840 C   0  0  2  0  0  0  0  0  0  0  0  0
    9.3128    4.5571   -9.1689 C   0  0  0  0  0  0  0  0  0  0  0  0
   10.9557    7.6369   -6.5929 C   0  0  0  0  0  0  0  0  0  0  0  0
    9.6490    2.8108  -13.7776 C   0  0  0  0  0  0  0  0  0  0  0  0
   10.2419    1.7839  -14.4904 O   0  0  0  0  0  0  0  0  0  0  0  0
    9.8235    6.3429   -8.0308 C   0  0  0  0  0  0  0  0  0  0  0  0
    8.5421    2.5419  -13.1600 C   0  0  0  0  0  0  0  0  0  0  0  0
   10.0139    6.8647   -6.7816 C   0  0  0  0  0  0  0  0  0  0  0  0
    8.9641    5.2626   -8.0936 N   0  0  0  0  0  0  0  0  0  0  0  0
    7.9178    5.6594  -10.4374 C   0  0  1  0  0  0  0  0  0  0  0  0
   11.2467    8.3685   -5.1947 C   0  0  0  0  0  0  0  0  0  0  0  0
   12.0651    7.7023   -4.3308 C   0  0  0  0  0  0  0  0  0  0  0  0
   10.7646    9.6393   -4.8611 C   0  0  0  0  0  0  0  0  0  0  0  0
   12.5013    6.1764   -4.5636 C   0  0  0  0  0  0  0  0  0  0  0  0
   11.0853   10.2001   -3.7193 C   0  0  0  0  0  0  0  0  0  0  0  0
   12.3104    8.1218   -3.1717 C   0  0  0  0  0  0  0  0  0  0  0  0
   11.9245    9.5157   -2.7697 C   0  0  0  0  0  0  0  0  0  0  0  0
  1  2  1  0  0  0  0
  2  3  1  0  0  0  0
  2  7  2  0  0  0  0
  4  3  1  6  0  0  0
  4  5  1  0  0  0  0
  4  6  1  0  0  0  0
  4  8  1  0  0  0  0
  5  9  2  0  0  0  0
  6 13  1  0  0  0  0
  8 11  1  0  0  0  0
  8 19  2  0  0  0  0
 10  7  1  1  0  0  0
 10 14  1  0  0  0  0
 10 17  1  0  0  0  0
 11 20  1  0  0  0  0
 11 24  1  1  0  0  0
 11 32  1  0  0  0  0
 12  7  1  6  0  0  0
 12 18  1  0  0  0  0
 12 32  1  0  0  0  0
 13 16  2  0  0  0  0
 13 21  1  0  0  0  0
 14  5  1  1  0  0  0
 14 15  1  0  0  0  0
 14 20  1  0  0  0  0
 15 26  1  0  0  0  0
 17 18  1  0  0  0  0
 17 23  1  0  0  0  0
 18 32  1  0  0  0  0
 19 21  1  0  0  0  0
 19 28  1  0  0  0  0
 20 23  1  0  0  0  0
 21 22  2  0  0  0  0
 22 25  1  0  0  0  0
 23 29  1  0  0  0  0
 24 31  1  0  0  0  0
 25 30  2  0  0  0  0
 25 33  1  0  0  0  0
 26 27  2  0  0  0  0
 26 29  1  0  0  0  0
 28 30  1  0  0  0  0
 28 31  2  0  0  0  0
 33 34  1  0  0  0  0
 33 35  2  0  0  0  0
 34 36  1  0  0  0  0
 34 38  2  0  0  0  0
 35 37  1  0  0  0  0
 37 39  2  0  0  0  0
 38 39  1  0  0  0  0
M  END
$$$$

 OpenBabel10082411353D

 40 45  0  0  0  0  0  0  0  0999 V2000
   10.9951    9.9694   -4.9946 C   0  0  0  0  0  0  0  0  0  0  0  0
   11.7938    9.3762   -4.2463 C   0  0  0  0  0  0  0  0  0  0  0  0
   10.8673    9.4548   -6.4276 C   0  0  0  0  0  0  0  0  0  0  0  0
   11.6576    7.9117   -4.2944 C   0  0  0  0  0  0  0  0  0  0  0  0
   10.5498    8.0257   -6.4521 C   0  0  0  0  0  0  0  0  0  0  0  0
   11.4715    7.2752   -5.6166 C   0  0  0  0  0  0  0  0  0  0  0  0
   10.5840    7.5390   -7.9254 C   0  0  0  0  0  0  0  0  0  0  0  0
   11.4612    8.1494   -8.8322 C   0  0  0  0  0  0  0  0  0  0  0  0
   12.6250    8.6294   -8.4338 O   0  0  0  0  0  0  0  0  0  0  0  0
   11.0835    8.4395  -10.0740 O   0  0  0  0  0  0  0  0  0  0  0  0
   11.2938    7.5612  -11.0769 C   0  0  0  0  0  0  0  0  0  0  0  0
   10.1547    7.2525  -11.9492 C   0  0  0  0  0  0  0  0  0  0  0  0
   10.4293    6.5622  -13.1348 C   0  0  0  0  0  0  0  0  0  0  0  0
   11.7295    6.4217  -13.6243 C   0  0  0  0  0  0  0  0  0  0  0  0
    8.8120    7.3918  -11.4649 C   0  0  0  0  0  0  0  0  0  0  0  0
   12.5351    7.8894  -11.6869 C   0  0  0  0  0  0  0  0  0  0  0  0
   13.5778    8.4243  -10.9673 O   0  0  0  0  0  0  0  0  0  0  0  0
    7.7211    7.1761  -12.4323 C   0  0  0  0  0  0  0  0  0  0  0  0
   12.8103    7.0723  -12.8897 C   0  0  0  0  0  0  0  0  0  0  0  0
    7.0543    5.9667  -12.3369 C   0  0  0  0  0  0  0  0  0  0  0  0
    7.2392    8.1844  -13.1320 C   0  0  0  0  0  0  0  0  0  0  0  0
    6.6882    5.3848  -13.5016 O   0  0  0  0  0  0  0  0  0  0  0  0
    6.5103    5.5543  -11.3870 O   0  0  0  0  0  0  0  0  0  0  0  0
    7.4031    4.0506  -13.7852 C   0  0  0  0  0  0  0  0  0  0  0  0
    8.6811    3.9966  -14.1333 C   0  0  0  0  0  0  0  0  0  0  0  0
   12.0732    5.6649  -14.9357 C   0  0  0  0  0  0  0  0  0  0  0  0
    6.5842    3.0104  -13.4449 C   0  0  0  0  0  0  0  0  0  0  0  0
   12.1810    6.3505  -15.9550 C   0  0  0  0  0  0  0  0  0  0  0  0
   12.4422    5.6328  -17.1718 C   0  0  0  0  0  0  0  0  0  0  0  0
    5.1615    3.1639  -12.9487 C   0  0  0  0  0  0  0  0  0  0  0  0
   12.4897    4.2439  -17.0738 C   0  0  0  0  0  0  0  0  0  0  0  0
    7.2322    1.7149  -13.5830 C   0  0  0  0  0  0  0  0  0  0  0  0
   12.1774    3.5293  -15.9456 C   0  0  0  0  0  0  0  0  0  0  0  0
    6.3950    0.6096  -13.2209 C   0  0  0  0  0  0  0  0  0  0  0  0
    8.4431    1.6963  -14.0012 C   0  0  0  0  0  0  0  0  0  0  0  0
    9.2220    2.8237  -14.2367 C   0  0  0  0  0  0  0  0  0  0  0  0
   10.5901    2.5486  -14.6599 N   0  0  0  0  0  0  0  0  0  0  0  0
   11.8593    4.2260  -14.7438 C   0  0  0  0  0  0  0  0  0  0  0  0
   11.5591    3.1659  -14.0168 N   0  0  0  0  0  0  0  0  0  0  0  0
   11.3868    2.2589  -15.6868 C   0  0  0  0  0  0  0  0  0  0  0  0
  1  2  1  0  0  0  0
  1  3  1  0  0  0  0
  2  4  1  0  0  0  0
  3  5  1  0  0  0  0
  4  6  1  0  0  0  0
  5  6  1  0  0  0  0
  5  7  1  0  0  0  0
  7  8  1  0  0  0  0
  8  9  2  0  0  0  0
  8 10  1  0  0  0  0
 10 11  1  0  0  0  0
 11 12  1  0  0  0  0
 11 16  2  0  0  0  0
 12 13  2  0  0  0  0
 12 15  1  0  0  0  0
 13 14  1  0  0  0  0
 14 19  2  0  0  0  0
 14 26  1  0  0  0  0
 15 18  1  0  0  0  0
 16 17  1  0  0  0  0
 16 19  1  0  0  0  0
 18 20  1  0  0  0  0
 18 21  2  0  0  0  0
 20 22  1  0  0  0  0
 20 23  2  0  0  0  0
 22 24  1  0  0  0  0
 24 25  1  0  0  0  0
 24 27  2  0  0  0  0
 25 36  2  0  0  0  0
 26 28  2  0  0  0  0
 26 38  1  0  0  0  0
 27 30  1  0  0  0  0
 27 32  1  0  0  0  0
 28 29  1  0  0  0  0
 29 31  2  0  0  0  0
 31 33  1  0  0  0  0
 32 34  1  0  0  0  0
 32 35  2  0  0  0  0
 33 38  2  0  0  0  0
 33 40  1  0  0  0  0
 35 36  1  0  0  0  0
 36 37  1  0  0  0  0
 37 39  1  0  0  0  0
 37 40  1  0  0  0  0
 38 39  1  0  0  0  0
M  END
$$$$

 OpenBabel10082411353D

 40 44  0  0  0  0  0  0  0  0999 V2000
   11.6836    6.0105   -4.8831 F   0  0  0  0  0  0  0  0  0  0  0  0
   11.2562    7.2206   -5.0294 C   0  0  0  0  0  0  0  0  0  0  0  0
   12.0125    8.2418   -4.4408 C   0  0  0  0  0  0  0  0  0  0  0  0
   11.1918    7.2706   -6.5237 C   0  0  0  0  0  0  0  0  0  0  0  0
   11.6999    8.4488   -3.1704 F   0  0  0  0  0  0  0  0  0  0  0  0
    9.8648    7.0908   -4.5314 F   0  0  0  0  0  0  0  0  0  0  0  0
   11.6831    8.5291   -6.9682 C   0  0  0  0  0  0  0  0  0  0  0  0
   10.4785    6.5189   -7.4033 C   0  0  0  0  0  0  0  0  0  0  0  0
   11.6979    8.6661   -8.4760 C   0  0  0  0  0  0  0  0  0  0  0  0
   11.6248    9.5853   -5.0030 C   0  0  0  0  0  0  0  0  0  0  0  0
   11.8604    9.7907   -6.2903 O   0  0  0  0  0  0  0  0  0  0  0  0
   13.3557    8.1748   -4.5947 F   0  0  0  0  0  0  0  0  0  0  0  0
   10.5427    6.6061   -8.7190 C   0  0  0  0  0  0  0  0  0  0  0  0
   11.1158    7.7103   -9.2540 C   0  0  0  0  0  0  0  0  0  0  0  0
   11.3757    7.6656  -10.5293 N   0  0  0  0  0  0  0  0  0  0  0  0
   10.7153    7.7096  -11.5405 C   0  0  0  0  0  0  0  0  0  0  0  0
   11.2483    7.4711  -12.8542 C   0  0  0  0  0  0  0  0  0  0  0  0
    9.3980    7.7820  -11.5398 C   0  0  0  0  0  0  0  0  0  0  0  0
    8.6055    7.5889  -12.6525 C   0  0  0  0  0  0  0  0  0  0  0  0
   12.7508    7.3705  -13.0162 O   0  0  0  0  0  0  0  0  0  0  0  0
   10.5299    7.1831  -13.9856 C   0  0  0  0  0  0  0  0  0  0  0  0
    7.0533    7.7371  -12.5396 C   0  0  0  0  0  0  0  0  0  0  0  0
   11.2041    6.8490  -15.2304 C   0  0  0  0  0  0  0  0  0  0  0  0
   11.6393    5.5333  -15.3864 C   0  0  0  0  0  0  0  0  0  0  0  0
    9.1955    7.2935  -13.8301 C   0  0  0  0  0  0  0  0  0  0  0  0
   12.5294    5.1116  -16.1609 C   0  0  0  0  0  0  0  0  0  0  0  0
   11.2315    4.4703  -14.3200 C   0  0  0  0  0  0  0  0  0  0  0  0
   10.2844    4.5821  -13.3000 C   0  0  0  0  0  0  0  0  0  0  0  0
   11.6270    3.1866  -14.6052 C   0  0  0  0  0  0  0  0  0  0  0  0
    9.0868    3.8289  -13.3080 C   0  0  0  0  0  0  0  0  0  0  0  0
    8.1007    4.0948  -12.4103 C   0  0  0  0  0  0  0  0  0  0  0  0
    6.8410    3.6347  -12.6829 C   0  0  0  0  0  0  0  0  0  0  0  0
   12.9624    6.1826  -17.2150 C   0  0  0  0  0  0  0  0  0  0  0  0
   11.1536    2.1160  -13.7692 F   0  0  0  0  0  0  0  0  0  0  0  0
   12.9009    3.8595  -16.3893 C   0  0  0  0  0  0  0  0  0  0  0  0
   12.3138    2.9215  -15.6929 C   0  0  0  0  0  0  0  0  0  0  0  0
    6.5719    2.6764  -13.6044 C   0  0  0  0  0  0  0  0  0  0  0  0
    8.5619    2.8406  -14.3788 C   0  0  0  0  0  0  0  0  0  0  0  0
    7.5597    2.3441  -14.4138 C   0  0  0  0  0  0  0  0  0  0  0  0
    7.4948    1.6196  -15.2599 O   0  0  0  0  0  0  0  0  0  0  0  0
  1  2  1  0  0  0  0
  2  3  1  0  0  0  0
  2  4  1  0  0  0  0
  2  6  1  0  0  0  0
  3  5  1  0  0  0  0
  3 10  1  0  0  0  0
  3 12  1  0  0  0  0
  4  7  1  0  0  0  0
  4  8  2  0  0  0  0
  7  9  2  0  0  0  0
  7 11  1  0  0  0  0
  8 13  1  0  0  0  0
  9 14  1  0  0  0  0
 10 11  1  0  0  0  0
 13 14  2  0  0  0  0
 14 15  1  0  0  0  0
 15 16  1  0  0  0  0
 16 17  1  0  0  0  0
 16 18  2  0  0  0  0
 17 20  1  0  0  0  0
 17 21  2  0  0  0  0
 18 19  1  0  0  0  0
 19 22  1  0  0  0  0
 19 25  2  0  0  0  0
 21 23  1  0  0  0  0
 21 25  1  0  0  0  0
 23 24  1  0  0  0  0
 24 26  2  0  0  0  0
 24 27  1  0  0  0  0
 26 33  1  0  0  0  0
 26 35  1  0  0  0  0
 27 28  1  0  0  0  0
 27 29  2  0  0  0  0
 28 30  2  3  0  0  0
 29 34  1  0  0  0  0
 29 36  1  0  0  0  0
 30 31  1  0  0  0  0
 30 38  1  0  0  0  0
 31 32  2  0  0  0  0
 32 37  1  0  0  0  0
 35 36  2  0  0  0  0
 37 39  1  0  0  0  0
 38 39  1  0  0  0  0
 39 40  2  0  0  0  0
M  END
$$$$

 OpenBabel10082411353D

 40 44  0  0  0  0  0  0  0  0999 V2000
   11.6836    6.0105   -4.8831 F   0  0  0  0  0  0  0  0  0  0  0  0
   11.2562    7.2206   -5.0294 C   0  0  0  0  0  0  0  0  0  0  0  0
   12.0125    8.2418   -4.4408 C   0  0  0  0  0  0  0  0  0  0  0  0
   11.1918    7.2706   -6.5237 C   0  0  0  0  0  0  0  0  0  0  0  0
   11.6999    8.4488   -3.1704 F   0  0  0  0  0  0  0  0  0  0  0  0
    9.8648    7.0908   -4.5314 F   0  0  0  0  0  0  0  0  0  0  0  0
   11.6831    8.5291   -6.9682 C   0  0  0  0  0  0  0  0  0  0  0  0
   10.4785    6.5189   -7.4033 C   0  0  0  0  0  0  0  0  0  0  0  0
   11.6979    8.6661   -8.4760 C   0  0  0  0  0  0  0  0  0  0  0  0
   11.6248    9.5853   -5.0030 C   0  0  0  0  0  0  0  0  0  0  0  0
   11.8604    9.7907   -6.2903 O   0  0  0  0  0  0  0  0  0  0  0  0
   13.3557    8.1748   -4.5947 F   0  0  0  0  0  0  0  0  0  0  0  0
   10.5427    6.6061   -8.7190 C   0  0  0  0  0  0  0  0  0  0  0  0
   11.1158    7.7103   -9.2540 C   0  0  0  0  0  0  0  0  0  0  0  0
   11.3757    7.6656  -10.5293 N   0  0  0  0  0  0  0  0  0  0  0  0
   10.7153    7.7096  -11.5405 C   0  0  0  0  0  0  0  0  0  0  0  0
   11.2483    7.4711  -12.8542 C   0  0  0  0  0  0  0  0  0  0  0  0
    9.3980    7.7820  -11.5398 C   0  0  0  0  0  0  0  0  0  0  0  0
    8.6055    7.5889  -12.6525 C   0  0  0  0  0  0  0  0  0  0  0  0
   12.7508    7.3705  -13.0162 O   0  0  0  0  0  0  0  0  0  0  0  0
   10.5299    7.1831  -13.9856 C   0  0  0  0  0  0  0  0  0  0  0  0
    7.0533    7.7371  -12.5396 C   0  0  0  0  0  0  0  0  0  0  0  0
   11.2041    6.8490  -15.2304 C   0  0  0  0  0  0  0  0  0  0  0  0
   11.6393    5.5333  -15.3864 C   0  0  0  0  0  0  0  0  0  0  0  0
    9.1955    7.2935  -13.8301 C   0  0  0  0  0  0  0  0  0  0  0  0
   12.5294    5.1116  -16.1609 C   0  0  0  0  0  0  0  0  0  0  0  0
   11.2315    4.4703  -14.3200 C   0  0  0  0  0  0  0  0  0  0  0  0
   13.0194    6.0876  -17.1697 C   0  0  0  0  0  0  0  0  0  0  0  0
   12.3991    7.3271  -17.2011 C   0  0  0  0  0  0  0  0  0  0  0  0
   11.6234    7.7212  -16.1065 C   0  0  0  0  0  0  0  0  0  0  0  0
    6.8111    8.8557  -12.1311 F   0  0  0  0  0  0  0  0  0  0  0  0
   10.0067    4.0539  -14.1822 C   0  0  0  0  0  0  0  0  0  0  0  0
    6.6026    6.8347  -11.5951 F   0  0  0  0  0  0  0  0  0  0  0  0
    9.7932    2.6838  -14.2236 C   0  0  0  0  0  0  0  0  0  0  0  0
    8.9172    4.7456  -13.9387 C   0  0  0  0  0  0  0  0  0  0  0  0
    8.6274    2.2762  -14.1460 C   0  0  0  0  0  0  0  0  0  0  0  0
    8.3675    0.7515  -14.2475 C   0  0  0  0  0  0  0  0  0  0  0  0
    6.5409    7.4224  -13.7587 F   0  0  0  0  0  0  0  0  0  0  0  0
    7.5992    3.2831  -13.8476 C   0  0  1  0  0  0  0  0  0  0  0  0
    7.0439    3.4028  -12.7571 C   0  0  0  0  0  0  0  0  0  0  0  0
  1  2  1  0  0  0  0
  2  3  1  0  0  0  0
  2  4  1  0  0  0  0
  2  6  1  0  0  0  0
  3  5  1  0  0  0  0
  3 10  1  0  0  0  0
  3 12  1  0  0  0  0
  4  7  1  0  0  0  0
  4  8  2  0  0  0  0
  7  9  2  0  0  0  0
  7 11  1  0  0  0  0
  8 13  1  0  0  0  0
  9 14  1  0  0  0  0
 10 11  1  0  0  0  0
 13 14  2  0  0  0  0
 14 15  1  0  0  0  0
 15 16  1  0  0  0  0
 16 17  1  0  0  0  0
 16 18  2  0  0  0  0
 17 20  1  0  0  0  0
 17 21  2  0  0  0  0
 18 19  1  0  0  0  0
 19 22  1  0  0  0  0
 19 25  2  0  0  0  0
 21 23  1  0  0  0  0
 21 25  1  0  0  0  0
 22 31  1  0  0  0  0
 22 33  1  0  0  0  0
 22 38  1  0  0  0  0
 23 24  1  0  0  0  0
 23 30  2  0  0  0  0
 24 26  2  0  0  0  0
 24 27  1  0  0  0  0
 26 28  1  0  0  0  0
 27 32  1  0  0  0  0
 28 29  2  0  0  0  0
 29 30  1  0  0  0  0
 32 34  1  0  0  0  0
 32 35  2  0  0  0  0
 34 36  2  0  0  0  0
 35 39  1  0  0  0  0
 36 37  1  0  0  0  0
 36 39  1  0  0  0  0
 39 40  1  1  0  0  0
M  END
$$$$

 OpenBabel10082411353D

 40 45  0  0  0  0  0  0  0  0999 V2000
   11.6836    6.0105   -4.8831 F   0  0  0  0  0  0  0  0  0  0  0  0
   11.2562    7.2206   -5.0294 C   0  0  0  0  0  0  0  0  0  0  0  0
   12.0125    8.2418   -4.4408 C   0  0  0  0  0  0  0  0  0  0  0  0
   11.1918    7.2706   -6.5237 C   0  0  2  0  0  0  0  0  0  0  0  0
   11.6999    8.4488   -3.1704 F   0  0  0  0  0  0  0  0  0  0  0  0
    9.8648    7.0908   -4.5314 F   0  0  0  0  0  0  0  0  0  0  0  0
   11.6831    8.5291   -6.9682 C   0  0  1  0  0  0  0  0  0  0  0  0
   13.3042    8.0958   -4.5769 F   0  0  0  0  0  0  0  0  0  0  0  0
   10.0051    6.7877   -7.1387 C   0  0  2  0  0  0  0  0  0  0  0  0
   12.1549    9.4036   -6.0698 C   0  0  0  0  0  0  0  0  0  0  0  0
   11.7460    9.5074   -4.8672 O   0  0  0  0  0  0  0  0  0  0  0  0
   12.5684    8.5172   -7.8652 C   0  0  0  0  0  0  0  0  0  0  0  0
   10.4250    8.9412   -7.4869 C   0  0  0  0  0  0  0  0  0  0  0  0
    9.8902    5.4070   -7.8206 C   0  0  1  0  0  0  0  0  0  0  0  0
    8.7348    4.6919   -7.6168 C   0  0  0  0  0  0  0  0  0  0  0  0
    9.5887    7.8633   -8.0188 C   0  0  1  0  0  0  0  0  0  0  0  0
   10.0149    7.4671   -9.3945 C   0  0  0  0  0  0  0  0  0  0  0  0
    8.7013    3.5197   -8.2148 C   0  0  0  0  0  0  0  0  0  0  0  0
    9.3794    3.4628   -9.4166 C   0  0  0  0  0  0  0  0  0  0  0  0
    9.7670    8.0902  -10.5147 C   0  0  0  0  0  0  0  0  0  0  0  0
   10.1630    7.7248  -11.8028 C   0  0  0  0  0  0  0  0  0  0  0  0
   10.1363    4.5235   -9.8811 C   0  0  0  0  0  0  0  0  0  0  0  0
   10.2836    5.8862   -9.1314 C   0  0  2  0  0  0  0  0  0  0  0  0
    9.2642    7.6154  -12.7688 C   0  0  0  0  0  0  0  0  0  0  0  0
    9.7352    7.0429  -13.9890 C   0  0  0  0  0  0  0  0  0  0  0  0
    8.9431    5.9978  -14.4048 C   0  0  0  0  0  0  0  0  0  0  0  0
    8.0476    5.1914  -13.6918 C   0  0  0  0  0  0  0  0  0  0  0  0
    8.1490    3.7734  -13.7660 C   0  0  0  0  0  0  0  0  0  0  0  0
    7.0453    3.1418  -12.9717 C   0  0  0  0  0  0  0  0  0  0  0  0
    6.2338    3.8839  -12.1754 C   0  0  0  0  0  0  0  0  0  0  0  0
   10.8369    7.3431  -14.6932 C   0  0  0  0  0  0  0  0  0  0  0  0
    7.2107    5.8505  -12.7998 C   0  0  0  0  0  0  0  0  0  0  0  0
    5.3001    3.0920  -11.3306 F   0  0  0  0  0  0  0  0  0  0  0  0
    7.8586    7.9143  -12.4857 C   0  0  0  0  0  0  0  0  0  0  0  0
    6.3696    5.0319  -12.1370 C   0  0  0  0  0  0  0  0  0  0  0  0
    6.9659    7.0740  -12.5678 C   0  0  0  0  0  0  0  0  0  0  0  0
   11.6802    6.2859  -15.0974 C   0  0  0  0  0  0  0  0  0  0  0  0
   11.4895    5.0617  -14.5281 C   0  0  0  0  0  0  0  0  0  0  0  0
   11.4332    4.7730  -13.3324 O   0  0  0  0  0  0  0  0  0  0  0  0
   11.7411    3.9442  -15.2889 O   0  0  0  0  0  0  0  0  0  0  0  0
  1  2  1  0  0  0  0
  2  3  1  0  0  0  0
  2  6  1  0  0  0  0
  3  5  1  0  0  0  0
  3  8  1  0  0  0  0
  3 11  1  0  0  0  0
  4  2  1  1  0  0  0
  4  7  1  0  0  0  0
  4  9  1  0  0  0  0
  7 10  1  0  0  0  0
  7 12  1  6  0  0  0
  7 13  1  0  0  0  0
  9 14  1  0  0  0  0
  9 16  1  0  0  0  0
 10 11  1  0  0  0  0
 13 16  1  0  0  0  0
 14 15  1  0  0  0  0
 14 23  1  0  0  0  0
 15 18  2  0  0  0  0
 16 17  1  0  0  0  0
 17 20  2  3  0  0  0
 17 23  1  0  0  0  0
 18 19  1  0  0  0  0
 19 22  2  0  0  0  0
 20 21  1  0  0  0  0
 21 24  2  3  0  0  0
 22 23  1  0  0  0  0
 24 25  1  0  0  0  0
 24 34  1  0  0  0  0
 25 26  2  0  0  0  0
 25 31  1  0  0  0  0
 26 27  1  0  0  0  0
 27 28  2  0  0  0  0
 27 32  1  0  0  0  0
 28 29  1  0  0  0  0
 29 30  2  0  0  0  0
 30 33  1  0  0  0  0
 30 35  1  0  0  0  0
 31 37  1  0  0  0  0
 32 35  2  0  0  0  0
 32 36  1  0  0  0  0
 34 36  1  0  0  0  0
 37 38  1  0  0  0  0
 38 39  2  0  0  0  0
 38 40  1  0  0  0  0
M  END
$$$$

 OpenBabel10082411353D

 40 45  0  0  0  0  0  0  0  0999 V2000
   11.6836    6.0105   -4.8831 C   0  0  0  0  0  0  0  0  0  0  0  0
   11.1291    7.0732   -5.4395 C   0  0  0  0  0  0  0  0  0  0  0  0
   10.6954    7.0156   -6.8073 C   0  0  0  0  0  0  0  0  0  0  0  0
   10.2502    8.1187   -7.5536 C   0  0  2  0  0  0  0  0  0  0  0  0
   11.1205    8.4712   -4.9629 C   0  0  0  0  0  0  0  0  0  0  0  0
   10.8655    8.3511   -8.7960 C   0  0  0  0  0  0  0  0  0  0  0  0
   10.2922    7.8843   -9.9985 C   0  0  0  0  0  0  0  0  0  0  0  0
   10.4654    9.6993   -5.6120 C   0  0  0  0  0  0  0  0  0  0  0  0
   10.3510    9.5971   -7.0014 C   0  0  0  0  0  0  0  0  0  0  0  0
   12.2462    6.3351   -3.5020 C   0  0  0  0  0  0  0  0  0  0  0  0
   11.0471    7.5309  -11.1063 C   0  0  0  0  0  0  0  0  0  0  0  0
   11.7288    8.6923   -3.6518 C   0  0  0  0  0  0  0  0  0  0  0  0
   12.3991    7.7501  -11.1145 C   0  0  0  0  0  0  0  0  0  0  0  0
   12.3738    7.7580   -2.9599 C   0  0  0  0  0  0  0  0  0  0  0  0
   13.1285    8.5075  -10.1661 O   0  0  0  0  0  0  0  0  0  0  0  0
    9.0407    7.3775  -10.0973 N   0  0  0  0  0  0  0  0  0  0  0  0
    8.9787    6.9473  -11.4664 N   0  0  0  0  0  0  0  0  0  0  0  0
   13.1012    7.4459  -12.3707 C   0  0  0  0  0  0  0  0  0  0  0  0
   12.2395    6.9724  -13.2444 C   0  0  0  0  0  0  0  0  0  0  0  0
   10.2768    7.0170  -11.9799 C   0  0  0  0  0  0  0  0  0  0  0  0
   12.9237    6.5822  -14.5759 O   0  0  0  0  0  0  0  0  0  0  0  0
   10.8906    6.6526  -13.2252 C   0  0  0  0  0  0  0  0  0  0  0  0
   12.2396    6.1290  -15.6916 C   0  0  0  0  0  0  0  0  0  0  0  0
    7.8036    6.1825  -11.9342 C   0  0  0  0  0  0  0  0  0  0  0  0
   12.5015    4.7115  -15.7686 C   0  0  0  0  0  0  0  0  0  0  0  0
    7.1685    6.9992  -12.8245 C   0  0  0  0  0  0  0  0  0  0  0  0
   11.2461    3.8540  -15.4851 C   0  0  0  0  0  0  0  0  0  0  0  0
    7.6237    4.9154  -11.6529 C   0  0  0  0  0  0  0  0  0  0  0  0
    6.6378    4.1960  -12.2267 C   0  0  0  0  0  0  0  0  0  0  0  0
    6.2717    2.7675  -11.9743 C   0  0  0  0  0  0  0  0  0  0  0  0
    6.6569    1.8873  -12.9460 C   0  0  0  0  0  0  0  0  0  0  0  0
    7.3895    8.4597  -13.1785 C   0  0  0  0  0  0  0  0  0  0  0  0
    6.3114    0.5653  -12.7247 C   0  0  0  0  0  0  0  0  0  0  0  0
    7.7684    2.0327  -13.9055 C   0  0  0  0  0  0  0  0  0  0  0  0
    6.9387   -0.3720  -13.7691 C   0  0  0  0  0  0  0  0  0  0  0  0
    8.4223    3.3339  -14.0264 C   0  0  0  0  0  0  0  0  0  0  0  0
    9.9233    3.2491  -14.0383 C   0  0  0  0  0  0  0  0  0  0  0  0
   10.7554    4.1043  -14.1438 O   0  0  0  0  0  0  0  0  0  0  0  0
    7.9881    0.9113  -14.5593 C   0  0  0  0  0  0  0  0  0  0  0  0
   10.5426    2.0684  -13.9439 O   0  0  0  0  0  0  0  0  0  0  0  0
  1  2  1  0  0  0  0
  1 10  2  0  0  0  0
  2  3  1  0  0  0  0
  2  5  2  0  0  0  0
  3  4  1  0  0  0  0
  4  6  1  6  0  0  0
  4  9  1  0  0  0  0
  5  8  1  0  0  0  0
  5 12  1  0  0  0  0
  6  7  1  0  0  0  0
  7 11  1  0  0  0  0
  7 16  2  0  0  0  0
  8  9  1  0  0  0  0
 10 14  1  0  0  0  0
 11 13  2  0  0  0  0
 11 20  1  0  0  0  0
 12 14  2  0  0  0  0
 13 15  1  0  0  0  0
 13 18  1  0  0  0  0
 16 17  1  0  0  0  0
 17 20  1  0  0  0  0
 17 24  1  0  0  0  0
 18 19  2  0  0  0  0
 19 21  1  0  0  0  0
 19 22  1  0  0  0  0
 20 22  2  0  0  0  0
 21 23  1  0  0  0  0
 23 25  1  0  0  0  0
 24 26  2  3  0  0  0
 24 28  1  0  0  0  0
 25 27  1  0  0  0  0
 26 32  1  0  0  0  0
 27 38  1  0  0  0  0
 28 29  2  0  0  0  0
 29 30  1  0  0  0  0
 30 31  1  0  0  0  0
 31 33  2  0  0  0  0
 31 34  1  0  0  0  0
 33 35  1  0  0  0  0
 34 36  1  0  0  0  0
 34 39  2  0  0  0  0
 35 39  1  0  0  0  0
 36 37  1  0  0  0  0
 37 38  1  0  0  0  0
 37 40  2  0  0  0  0
M  END
$$$$

 OpenBabel10082411353D

 40 45  0  0  0  0  0  0  0  0999 V2000
   11.6836    6.0105   -4.8831 C   0  0  0  0  0  0  0  0  0  0  0  0
   11.1291    7.0732   -5.4395 C   0  0  0  0  0  0  0  0  0  0  0  0
   10.6954    7.0156   -6.8073 C   0  0  0  0  0  0  0  0  0  0  0  0
   10.2502    8.1187   -7.5536 C   0  0  2  0  0  0  0  0  0  0  0  0
   11.1205    8.4712   -4.9629 C   0  0  0  0  0  0  0  0  0  0  0  0
   10.8655    8.3511   -8.7960 C   0  0  0  0  0  0  0  0  0  0  0  0
   10.2922    7.8843   -9.9985 C   0  0  0  0  0  0  0  0  0  0  0  0
   10.4654    9.6993   -5.6120 C   0  0  0  0  0  0  0  0  0  0  0  0
   10.3510    9.5971   -7.0014 C   0  0  0  0  0  0  0  0  0  0  0  0
   12.2462    6.3351   -3.5020 C   0  0  0  0  0  0  0  0  0  0  0  0
   11.0471    7.5309  -11.1063 C   0  0  0  0  0  0  0  0  0  0  0  0
   11.7288    8.6923   -3.6518 C   0  0  0  0  0  0  0  0  0  0  0  0
   12.3991    7.7501  -11.1145 C   0  0  0  0  0  0  0  0  0  0  0  0
   12.3738    7.7580   -2.9599 C   0  0  0  0  0  0  0  0  0  0  0  0
   13.1285    8.5075  -10.1661 O   0  0  0  0  0  0  0  0  0  0  0  0
    9.0407    7.3775  -10.0973 N   0  0  0  0  0  0  0  0  0  0  0  0
    8.9787    6.9473  -11.4664 N   0  0  0  0  0  0  0  0  0  0  0  0
   13.1012    7.4459  -12.3707 C   0  0  0  0  0  0  0  0  0  0  0  0
   12.2395    6.9724  -13.2444 C   0  0  0  0  0  0  0  0  0  0  0  0
   10.2768    7.0170  -11.9799 C   0  0  0  0  0  0  0  0  0  0  0  0
   12.9237    6.5822  -14.5759 O   0  0  0  0  0  0  0  0  0  0  0  0
   10.8906    6.6526  -13.2252 C   0  0  0  0  0  0  0  0  0  0  0  0
   12.2396    6.1290  -15.6916 C   0  0  0  0  0  0  0  0  0  0  0  0
    7.8036    6.1825  -11.9342 C   0  0  0  0  0  0  0  0  0  0  0  0
   12.5015    4.7115  -15.7686 C   0  0  0  0  0  0  0  0  0  0  0  0
    7.1685    6.9992  -12.8245 C   0  0  0  0  0  0  0  0  0  0  0  0
   11.2461    3.8540  -15.4851 C   0  0  0  0  0  0  0  0  0  0  0  0
    7.6237    4.9154  -11.6529 C   0  0  0  0  0  0  0  0  0  0  0  0
    6.0177    6.2707  -13.3932 C   0  0  0  0  0  0  0  0  0  0  0  0
   10.6165    3.9039  -14.4137 C   0  0  0  0  0  0  0  0  0  0  0  0
    9.5305    2.8756  -14.1992 C   0  0  0  0  0  0  0  0  0  0  0  0
    8.7172    4.2136  -10.7843 C   0  0  0  0  0  0  0  0  0  0  0  0
    9.5147    1.8398  -14.9874 C   0  0  0  0  0  0  0  0  0  0  0  0
    6.9017    4.3047  -12.3893 C   0  0  0  0  0  0  0  0  0  0  0  0
    8.4897    4.4189   -9.4168 O   0  0  0  0  0  0  0  0  0  0  0  0
    8.4397    0.8891  -14.6534 C   0  0  0  0  0  0  0  0  0  0  0  0
    6.6311    2.7415  -12.1984 C   0  0  0  0  0  0  0  0  0  0  0  0
    5.9807    4.9030  -13.1926 C   0  0  0  0  0  0  0  0  0  0  0  0
   11.2463    2.6575  -16.3378 C   0  0  0  0  0  0  0  0  0  0  0  0
   10.3109    1.7118  -16.1099 C   0  0  0  0  0  0  0  0  0  0  0  0
  1  2  1  0  0  0  0
  1 10  2  0  0  0  0
  2  3  1  0  0  0  0
  2  5  2  0  0  0  0
  3  4  1  0  0  0  0
  4  6  1  6  0  0  0
  4  9  1  0  0  0  0
  5  8  1  0  0  0  0
  5 12  1  0  0  0  0
  6  7  1  0  0  0  0
  7 11  1  0  0  0  0
  7 16  2  0  0  0  0
  8  9  1  0  0  0  0
 10 14  1  0  0  0  0
 11 13  2  0  0  0  0
 11 20  1  0  0  0  0
 12 14  2  0  0  0  0
 13 15  1  0  0  0  0
 13 18  1  0  0  0  0
 16 17  1  0  0  0  0
 17 20  1  0  0  0  0
 17 24  1  0  0  0  0
 18 19  2  0  0  0  0
 19 21  1  0  0  0  0
 19 22  1  0  0  0  0
 20 22  2  0  0  0  0
 21 23  1  0  0  0  0
 23 25  1  0  0  0  0
 24 26  2  0  0  0  0
 24 28  1  0  0  0  0
 25 27  1  0  0  0  0
 26 29  1  0  0  0  0
 27 30  1  0  0  0  0
 27 39  2  0  0  0  0
 28 32  1  0  0  0  0
 28 34  2  0  0  0  0
 29 38  2  0  0  0  0
 30 31  2  0  0  0  0
 31 33  1  0  0  0  0
 32 35  1  0  0  0  0
 33 36  1  0  0  0  0
 33 40  2  0  0  0  0
 34 37  1  0  0  0  0
 34 38  1  0  0  0  0
 39 40  1  0  0  0  0
M  END
$$$$

 OpenBabel10082411353D

 40 44  0  0  0  0  0  0  0  0999 V2000
   11.6836    6.0105   -4.8831 C   0  0  0  0  0  0  0  0  0  0  0  0
   11.1291    7.0732   -5.4395 C   0  0  0  0  0  0  0  0  0  0  0  0
   10.6954    7.0156   -6.8073 C   0  0  0  0  0  0  0  0  0  0  0  0
   10.2502    8.1187   -7.5536 C   0  0  2  0  0  0  0  0  0  0  0  0
   11.1205    8.4712   -4.9629 C   0  0  0  0  0  0  0  0  0  0  0  0
   10.8655    8.3511   -8.7960 C   0  0  0  0  0  0  0  0  0  0  0  0
   10.2922    7.8843   -9.9985 C   0  0  0  0  0  0  0  0  0  0  0  0
   10.4654    9.6993   -5.6120 C   0  0  0  0  0  0  0  0  0  0  0  0
   10.3510    9.5971   -7.0014 C   0  0  0  0  0  0  0  0  0  0  0  0
   12.2462    6.3351   -3.5020 C   0  0  0  0  0  0  0  0  0  0  0  0
   11.0471    7.5309  -11.1063 C   0  0  0  0  0  0  0  0  0  0  0  0
   11.7288    8.6923   -3.6518 C   0  0  0  0  0  0  0  0  0  0  0  0
   12.3991    7.7501  -11.1145 C   0  0  0  0  0  0  0  0  0  0  0  0
   12.3738    7.7580   -2.9599 C   0  0  0  0  0  0  0  0  0  0  0  0
   13.1285    8.5075  -10.1661 O   0  0  0  0  0  0  0  0  0  0  0  0
    9.0407    7.3775  -10.0973 N   0  0  0  0  0  0  0  0  0  0  0  0
    8.9787    6.9473  -11.4664 N   0  0  0  0  0  0  0  0  0  0  0  0
   13.1012    7.4459  -12.3707 C   0  0  0  0  0  0  0  0  0  0  0  0
   12.2395    6.9724  -13.2444 C   0  0  0  0  0  0  0  0  0  0  0  0
   10.2768    7.0170  -11.9799 C   0  0  0  0  0  0  0  0  0  0  0  0
   12.9237    6.5822  -14.5759 O   0  0  0  0  0  0  0  0  0  0  0  0
   10.8906    6.6526  -13.2252 C   0  0  0  0  0  0  0  0  0  0  0  0
   12.2396    6.1290  -15.6916 C   0  0  0  0  0  0  0  0  0  0  0  0
    7.8036    6.1825  -11.9342 C   0  0  0  0  0  0  0  0  0  0  0  0
   12.5015    4.7115  -15.7686 C   0  0  0  0  0  0  0  0  0  0  0  0
    7.1685    6.9992  -12.8245 C   0  0  0  0  0  0  0  0  0  0  0  0
   11.2461    3.8540  -15.4851 C   0  0  0  0  0  0  0  0  0  0  0  0
    7.6237    4.9154  -11.6529 C   0  0  0  0  0  0  0  0  0  0  0  0
    6.6378    4.1960  -12.2267 C   0  0  0  0  0  0  0  0  0  0  0  0
    6.2717    2.7675  -11.9743 C   0  0  0  0  0  0  0  0  0  0  0  0
    6.6569    1.8873  -12.9460 C   0  0  0  0  0  0  0  0  0  0  0  0
    7.3895    8.4597  -13.1785 C   0  0  0  0  0  0  0  0  0  0  0  0
    6.3114    0.5653  -12.7247 C   0  0  0  0  0  0  0  0  0  0  0  0
   11.3885    2.5830  -15.4863 O   0  0  0  0  0  0  0  0  0  0  0  0
    7.4815    2.1853  -14.0878 C   0  0  0  0  0  0  0  0  0  0  0  0
   10.0671    4.4249  -15.4648 O   0  0  0  0  0  0  0  0  0  0  0  0
    7.9242    1.1787  -14.9471 C   0  0  0  0  0  0  0  0  0  0  0  0
    8.8007    1.5498  -16.0544 O   0  0  0  0  0  0  0  0  0  0  0  0
    6.8880   -0.4827  -13.8459 C   0  0  0  0  0  0  0  0  0  0  0  0
    7.6521   -0.0995  -14.8763 C   0  0  0  0  0  0  0  0  0  0  0  0
  1  2  1  0  0  0  0
  1 10  2  0  0  0  0
  2  3  1  0  0  0  0
  2  5  2  0  0  0  0
  3  4  1  0  0  0  0
  4  6  1  6  0  0  0
  4  9  1  0  0  0  0
  5  8  1  0  0  0  0
  5 12  1  0  0  0  0
  6  7  1  0  0  0  0
  7 11  1  0  0  0  0
  7 16  2  0  0  0  0
  8  9  1  0  0  0  0
 10 14  1  0  0  0  0
 11 13  2  0  0  0  0
 11 20  1  0  0  0  0
 12 14  2  0  0  0  0
 13 15  1  0  0  0  0
 13 18  1  0  0  0  0
 16 17  1  0  0  0  0
 17 20  1  0  0  0  0
 17 24  1  0  0  0  0
 18 19  2  0  0  0  0
 19 21  1  0  0  0  0
 19 22  1  0  0  0  0
 20 22  2  0  0  0  0
 21 23  1  0  0  0  0
 23 25  1  0  0  0  0
 24 26  2  3  0  0  0
 24 28  1  0  0  0  0
 25 27  1  0  0  0  0
 26 32  1  0  0  0  0
 27 34  2  0  0  0  0
 27 36  1  0  0  0  0
 28 29  2  3  0  0  0
 29 30  1  0  0  0  0
 30 31  1  0  0  0  0
 31 33  2  0  0  0  0
 31 35  1  0  0  0  0
 33 39  1  0  0  0  0
 35 37  2  0  0  0  0
 37 38  1  0  0  0  0
 37 40  1  0  0  0  0
 39 40  2  0  0  0  0
M  END
$$$$

 OpenBabel10082411353D

 40 45  0  0  0  0  0  0  0  0999 V2000
   11.6836    6.0105   -4.8831 F   0  0  0  0  0  0  0  0  0  0  0  0
   11.2562    7.2206   -5.0294 C   0  0  0  0  0  0  0  0  0  0  0  0
   12.0125    8.2418   -4.4408 C   0  0  0  0  0  0  0  0  0  0  0  0
   11.1918    7.2706   -6.5237 C   0  0  2  0  0  0  0  0  0  0  0  0
   11.6999    8.4488   -3.1704 F   0  0  0  0  0  0  0  0  0  0  0  0
    9.8648    7.0908   -4.5314 F   0  0  0  0  0  0  0  0  0  0  0  0
   11.6831    8.5291   -6.9682 C   0  0  1  0  0  0  0  0  0  0  0  0
   13.3042    8.0958   -4.5769 F   0  0  0  0  0  0  0  0  0  0  0  0
   10.0051    6.7877   -7.1387 C   0  0  2  0  0  0  0  0  0  0  0  0
   12.1549    9.4036   -6.0698 C   0  0  0  0  0  0  0  0  0  0  0  0
   11.7460    9.5074   -4.8672 O   0  0  0  0  0  0  0  0  0  0  0  0
   12.5684    8.5172   -7.8652 C   0  0  0  0  0  0  0  0  0  0  0  0
   10.4250    8.9412   -7.4869 C   0  0  0  0  0  0  0  0  0  0  0  0
    9.8902    5.4070   -7.8206 C   0  0  1  0  0  0  0  0  0  0  0  0
    8.7348    4.6919   -7.6168 C   0  0  0  0  0  0  0  0  0  0  0  0
    9.5887    7.8633   -8.0188 C   0  0  1  0  0  0  0  0  0  0  0  0
   10.0149    7.4671   -9.3945 C   0  0  0  0  0  0  0  0  0  0  0  0
    8.7013    3.5197   -8.2148 C   0  0  0  0  0  0  0  0  0  0  0  0
    9.3794    3.4628   -9.4166 C   0  0  0  0  0  0  0  0  0  0  0  0
    9.7670    8.0902  -10.5147 C   0  0  0  0  0  0  0  0  0  0  0  0
   10.1630    7.7248  -11.8028 C   0  0  0  0  0  0  0  0  0  0  0  0
   10.1363    4.5235   -9.8811 C   0  0  0  0  0  0  0  0  0  0  0  0
   10.2836    5.8862   -9.1314 C   0  0  2  0  0  0  0  0  0  0  0  0
    9.2642    7.6154  -12.7688 C   0  0  0  0  0  0  0  0  0  0  0  0
    9.7352    7.0429  -13.9890 C   0  0  0  0  0  0  0  0  0  0  0  0
    8.9431    5.9978  -14.4048 C   0  0  0  0  0  0  0  0  0  0  0  0
    8.0476    5.1914  -13.6918 C   0  0  0  0  0  0  0  0  0  0  0  0
    8.1490    3.7734  -13.7660 C   0  0  0  0  0  0  0  0  0  0  0  0
    7.0453    3.1418  -12.9717 C   0  0  0  0  0  0  0  0  0  0  0  0
    6.2338    3.8839  -12.1754 C   0  0  0  0  0  0  0  0  0  0  0  0
   10.8369    7.3431  -14.6932 C   0  0  0  0  0  0  0  0  0  0  0  0
    7.2107    5.8505  -12.7998 C   0  0  0  0  0  0  0  0  0  0  0  0
    5.3001    3.0920  -11.3306 F   0  0  0  0  0  0  0  0  0  0  0  0
    7.8586    7.9143  -12.4857 C   0  0  0  0  0  0  0  0  0  0  0  0
    6.3696    5.0319  -12.1370 C   0  0  0  0  0  0  0  0  0  0  0  0
    6.9659    7.0740  -12.5678 C   0  0  0  0  0  0  0  0  0  0  0  0
   11.6802    6.2859  -15.0974 C   0  0  0  0  0  0  0  0  0  0  0  0
   12.7157    6.5542  -15.7371 O   0  0  0  0  0  0  0  0  0  0  0  0
   11.2581    5.0055  -14.9301 O   0  0  0  0  0  0  0  0  0  0  0  0
   12.1378    3.9519  -15.2125 C   0  0  0  0  0  0  0  0  0  0  0  0
  1  2  1  0  0  0  0
  2  3  1  0  0  0  0
  2  6  1  0  0  0  0
  3  5  1  0  0  0  0
  3  8  1  0  0  0  0
  3 11  1  0  0  0  0
  4  2  1  1  0  0  0
  4  7  1  0  0  0  0
  4  9  1  0  0  0  0
  7 10  1  0  0  0  0
  7 12  1  6  0  0  0
  7 13  1  0  0  0  0
  9 14  1  0  0  0  0
  9 16  1  0  0  0  0
 10 11  1  0  0  0  0
 13 16  1  0  0  0  0
 14 15  1  0  0  0  0
 14 23  1  0  0  0  0
 15 18  2  0  0  0  0
 16 17  1  0  0  0  0
 17 20  2  3  0  0  0
 17 23  1  0  0  0  0
 18 19  1  0  0  0  0
 19 22  2  0  0  0  0
 20 21  1  0  0  0  0
 21 24  2  3  0  0  0
 22 23  1  0  0  0  0
 24 25  1  0  0  0  0
 24 34  1  0  0  0  0
 25 26  2  0  0  0  0
 25 31  1  0  0  0  0
 26 27  1  0  0  0  0
 27 28  2  0  0  0  0
 27 32  1  0  0  0  0
 28 29  1  0  0  0  0
 29 30  2  0  0  0  0
 30 33  1  0  0  0  0
 30 35  1  0  0  0  0
 31 37  1  0  0  0  0
 32 35  2  0  0  0  0
 32 36  1  0  0  0  0
 34 36  1  0  0  0  0
 37 38  2  0  0  0  0
 37 39  1  0  0  0  0
 39 40  1  0  0  0  0
M  END
$$$$

 OpenBabel10082411353D

 26 29  0  0  0  0  0  0  0  0999 V2000
   12.8881    8.7759   -3.5681 C   0  0  0  0  0  0  0  0  0  0  0  0
   11.9416    9.4732   -4.1220 C   0  0  0  0  0  0  0  0  0  0  0  0
   12.1782    9.3707   -5.6407 C   0  0  0  0  0  0  0  0  0  0  0  0
   11.3825    8.3447   -6.3966 C   0  0  0  0  0  0  0  0  0  0  0  0
   11.8188    8.0044   -7.6822 C   0  0  0  0  0  0  0  0  0  0  0  0
   10.3120    7.6600   -5.7120 C   0  0  0  0  0  0  0  0  0  0  0  0
   10.8678    7.0723   -8.2897 C   0  0  0  0  0  0  0  0  0  0  0  0
    9.5717    6.7245   -6.3809 C   0  0  0  0  0  0  0  0  0  0  0  0
    9.8820    6.4468   -7.7081 C   0  0  0  0  0  0  0  0  0  0  0  0
   11.2611    6.6953   -9.7105 C   0  0  0  0  0  0  0  0  0  0  0  0
   10.0425    6.5460  -10.5971 C   0  0  0  0  0  0  0  0  0  0  0  0
    9.7273    7.6207  -11.3847 C   0  0  1  0  0  0  0  0  0  0  0  0
    9.9764    7.6413  -12.5696 O   0  0  0  0  0  0  0  0  0  0  0  0
    8.9346    5.4564   -8.3902 C   0  0  0  0  0  0  0  0  0  0  0  0
    8.2490    7.9349  -11.1820 O   0  0  0  0  0  0  0  0  0  0  0  0
   10.1841    6.7003  -13.2223 C   0  0  0  0  0  0  0  0  0  0  0  0
    9.5958    5.5854  -13.1076 C   0  0  0  0  0  0  0  0  0  0  0  0
    8.4924    5.3473  -12.1285 C   0  0  0  0  0  0  0  0  0  0  0  0
    9.8209    4.3589  -14.0027 C   0  0  0  0  0  0  0  0  0  0  0  0
    7.6536    4.3101  -12.3765 O   0  0  0  0  0  0  0  0  0  0  0  0
   11.1109    4.2107  -14.4593 C   0  0  2  0  0  0  0  0  0  0  0  0
    8.9804    5.5270  -10.7091 C   0  0  0  0  0  0  0  0  0  0  0  0
   11.5375    6.7339  -14.0672 C   0  0  0  0  0  0  0  0  0  0  0  0
   11.7491    5.5310  -14.8752 C   0  0  0  0  0  0  0  0  0  0  0  0
    8.6430    4.8704   -9.6130 C   0  0  0  0  0  0  0  0  0  0  0  0
   11.4319    3.1398  -15.3532 C   0  0  0  0  0  0  0  0  0  0  0  0
  1  2  1  0  0  0  0
  2  3  1  0  0  0  0
  3  4  1  0  0  0  0
  4  5  2  0  0  0  0
  4  6  1  0  0  0  0
  5  7  1  0  0  0  0
  6  8  2  0  0  0  0
  7  9  2  0  0  0  0
  7 10  1  0  0  0  0
  8  9  1  0  0  0  0
  9 14  1  0  0  0  0
 10 11  1  0  0  0  0
 11 12  1  0  0  0  0
 11 22  2  0  0  0  0
 12 13  1  0  0  0  0
 12 15  1  6  0  0  0
 13 16  1  0  0  0  0
 14 25  2  0  0  0  0
 16 17  2  0  0  0  0
 16 23  1  0  0  0  0
 17 18  1  0  0  0  0
 17 19  1  0  0  0  0
 18 20  2  0  0  0  0
 18 22  1  0  0  0  0
 19 21  1  0  0  0  0
 21 24  1  0  0  0  0
 21 26  1  6  0  0  0
 22 25  1  0  0  0  0
 23 24  1  0  0  0  0
M  END
$$$$

 OpenBabel10082411353D

 40 44  0  0  0  0  0  0  0  0999 V2000
   11.6836    6.0105   -4.8831 F   0  0  0  0  0  0  0  0  0  0  0  0
   11.2562    7.2206   -5.0294 C   0  0  0  0  0  0  0  0  0  0  0  0
   12.0125    8.2418   -4.4408 C   0  0  0  0  0  0  0  0  0  0  0  0
   11.1918    7.2706   -6.5237 C   0  0  0  0  0  0  0  0  0  0  0  0
   11.6999    8.4488   -3.1704 F   0  0  0  0  0  0  0  0  0  0  0  0
    9.8648    7.0908   -4.5314 F   0  0  0  0  0  0  0  0  0  0  0  0
   11.6831    8.5291   -6.9682 C   0  0  0  0  0  0  0  0  0  0  0  0
   10.4785    6.5189   -7.4033 C   0  0  0  0  0  0  0  0  0  0  0  0
   11.6979    8.6661   -8.4760 C   0  0  0  0  0  0  0  0  0  0  0  0
   11.6248    9.5853   -5.0030 C   0  0  0  0  0  0  0  0  0  0  0  0
   11.8604    9.7907   -6.2903 O   0  0  0  0  0  0  0  0  0  0  0  0
   13.3557    8.1748   -4.5947 F   0  0  0  0  0  0  0  0  0  0  0  0
   10.5427    6.6061   -8.7190 C   0  0  0  0  0  0  0  0  0  0  0  0
   11.1158    7.7103   -9.2540 C   0  0  0  0  0  0  0  0  0  0  0  0
   11.3757    7.6656  -10.5293 N   0  0  0  0  0  0  0  0  0  0  0  0
   10.7153    7.7096  -11.5405 C   0  0  0  0  0  0  0  0  0  0  0  0
   11.2483    7.4711  -12.8542 C   0  0  0  0  0  0  0  0  0  0  0  0
    9.3980    7.7820  -11.5398 C   0  0  0  0  0  0  0  0  0  0  0  0
    8.6055    7.5889  -12.6525 C   0  0  0  0  0  0  0  0  0  0  0  0
   12.7508    7.3705  -13.0162 O   0  0  0  0  0  0  0  0  0  0  0  0
   10.5299    7.1831  -13.9856 C   0  0  0  0  0  0  0  0  0  0  0  0
    7.0533    7.7371  -12.5396 C   0  0  0  0  0  0  0  0  0  0  0  0
   11.2041    6.8490  -15.2304 C   0  0  0  0  0  0  0  0  0  0  0  0
   11.6393    5.5333  -15.3864 C   0  0  0  0  0  0  0  0  0  0  0  0
    9.1955    7.2935  -13.8301 C   0  0  0  0  0  0  0  0  0  0  0  0
   12.5294    5.1116  -16.1609 C   0  0  0  0  0  0  0  0  0  0  0  0
   11.2315    4.4703  -14.3200 C   0  0  0  0  0  0  0  0  0  0  0  0
   13.0194    6.0876  -17.1697 C   0  0  0  0  0  0  0  0  0  0  0  0
   12.3991    7.3271  -17.2011 C   0  0  0  0  0  0  0  0  0  0  0  0
   11.6234    7.7212  -16.1065 C   0  0  0  0  0  0  0  0  0  0  0  0
    6.8111    8.8557  -12.1311 F   0  0  0  0  0  0  0  0  0  0  0  0
   10.0067    4.0539  -14.1822 C   0  0  0  0  0  0  0  0  0  0  0  0
    6.6026    6.8347  -11.5951 F   0  0  0  0  0  0  0  0  0  0  0  0
    9.7932    2.6838  -14.2236 C   0  0  0  0  0  0  0  0  0  0  0  0
    8.9172    4.7456  -13.9387 C   0  0  0  0  0  0  0  0  0  0  0  0
    8.6274    2.2762  -14.1460 C   0  0  0  0  0  0  0  0  0  0  0  0
    8.3675    0.7515  -14.2475 C   0  0  0  0  0  0  0  0  0  0  0  0
    6.5409    7.4224  -13.7587 F   0  0  0  0  0  0  0  0  0  0  0  0
    7.6177    4.2782  -13.7833 C   0  0  0  0  0  0  0  0  0  0  0  0
    7.6916    2.9745  -13.9116 C   0  0  0  0  0  0  0  0  0  0  0  0
  1  2  1  0  0  0  0
  2  3  1  0  0  0  0
  2  4  1  0  0  0  0
  2  6  1  0  0  0  0
  3  5  1  0  0  0  0
  3 10  1  0  0  0  0
  3 12  1  0  0  0  0
  4  7  1  0  0  0  0
  4  8  2  0  0  0  0
  7  9  2  0  0  0  0
  7 11  1  0  0  0  0
  8 13  1  0  0  0  0
  9 14  1  0  0  0  0
 10 11  1  0  0  0  0
 13 14  2  0  0  0  0
 14 15  1  0  0  0  0
 15 16  1  0  0  0  0
 16 17  1  0  0  0  0
 16 18  2  0  0  0  0
 17 20  1  0  0  0  0
 17 21  2  0  0  0  0
 18 19  1  0  0  0  0
 19 22  1  0  0  0  0
 19 25  2  0  0  0  0
 21 23  1  0  0  0  0
 21 25  1  0  0  0  0
 22 31  1  0  0  0  0
 22 33  1  0  0  0  0
 22 38  1  0  0  0  0
 23 24  1  0  0  0  0
 23 30  2  0  0  0  0
 24 26  2  0  0  0  0
 24 27  1  0  0  0  0
 26 28  1  0  0  0  0
 27 32  1  0  0  0  0
 28 29  2  0  0  0  0
 29 30  1  0  0  0  0
 32 34  1  0  0  0  0
 32 35  2  0  0  0  0
 34 36  2  0  0  0  0
 35 39  1  0  0  0  0
 36 37  1  0  0  0  0
 36 40  1  0  0  0  0
 39 40  2  0  0  0  0
M  END
$$$$

 OpenBabel10082411353D

 40 44  0  0  0  0  0  0  0  0999 V2000
   11.6836    6.0105   -4.8831 F   0  0  0  0  0  0  0  0  0  0  0  0
   11.2562    7.2206   -5.0294 C   0  0  0  0  0  0  0  0  0  0  0  0
   12.0125    8.2418   -4.4408 C   0  0  0  0  0  0  0  0  0  0  0  0
   11.1918    7.2706   -6.5237 C   0  0  0  0  0  0  0  0  0  0  0  0
   11.6999    8.4488   -3.1704 F   0  0  0  0  0  0  0  0  0  0  0  0
    9.8648    7.0908   -4.5314 F   0  0  0  0  0  0  0  0  0  0  0  0
   11.6831    8.5291   -6.9682 C   0  0  0  0  0  0  0  0  0  0  0  0
   10.4785    6.5189   -7.4033 C   0  0  0  0  0  0  0  0  0  0  0  0
   11.6979    8.6661   -8.4760 C   0  0  0  0  0  0  0  0  0  0  0  0
   11.6248    9.5853   -5.0030 C   0  0  0  0  0  0  0  0  0  0  0  0
   11.8604    9.7907   -6.2903 O   0  0  0  0  0  0  0  0  0  0  0  0
   13.3557    8.1748   -4.5947 F   0  0  0  0  0  0  0  0  0  0  0  0
   10.5427    6.6061   -8.7190 C   0  0  0  0  0  0  0  0  0  0  0  0
   11.1158    7.7103   -9.2540 C   0  0  0  0  0  0  0  0  0  0  0  0
   11.3757    7.6656  -10.5293 N   0  0  0  0  0  0  0  0  0  0  0  0
   10.7153    7.7096  -11.5405 C   0  0  0  0  0  0  0  0  0  0  0  0
   11.2483    7.4711  -12.8542 C   0  0  0  0  0  0  0  0  0  0  0  0
    9.3980    7.7820  -11.5398 C   0  0  0  0  0  0  0  0  0  0  0  0
    8.6055    7.5889  -12.6525 C   0  0  0  0  0  0  0  0  0  0  0  0
   12.7508    7.3705  -13.0162 O   0  0  0  0  0  0  0  0  0  0  0  0
   10.5299    7.1831  -13.9856 C   0  0  0  0  0  0  0  0  0  0  0  0
    7.0533    7.7371  -12.5396 C   0  0  0  0  0  0  0  0  0  0  0  0
   11.2041    6.8490  -15.2304 C   0  0  0  0  0  0  0  0  0  0  0  0
   11.6393    5.5333  -15.3864 C   0  0  0  0  0  0  0  0  0  0  0  0
    9.1955    7.2935  -13.8301 C   0  0  0  0  0  0  0  0  0  0  0  0
   12.5294    5.1116  -16.1609 C   0  0  0  0  0  0  0  0  0  0  0  0
   11.2315    4.4703  -14.3200 C   0  0  0  0  0  0  0  0  0  0  0  0
   13.0194    6.0876  -17.1697 C   0  0  0  0  0  0  0  0  0  0  0  0
   12.3991    7.3271  -17.2011 C   0  0  0  0  0  0  0  0  0  0  0  0
   11.6234    7.7212  -16.1065 C   0  0  0  0  0  0  0  0  0  0  0  0
    6.8111    8.8557  -12.1311 F   0  0  0  0  0  0  0  0  0  0  0  0
   10.0067    4.0539  -14.1822 C   0  0  0  0  0  0  0  0  0  0  0  0
    6.6026    6.8347  -11.5951 F   0  0  0  0  0  0  0  0  0  0  0  0
    9.7932    2.6838  -14.2236 C   0  0  0  0  0  0  0  0  0  0  0  0
    6.5313    7.4992  -13.7364 F   0  0  0  0  0  0  0  0  0  0  0  0
    8.5090    2.2423  -14.0486 C   0  0  0  0  0  0  0  0  0  0  0  0
    8.8946    4.7230  -14.1656 C   0  0  0  0  0  0  0  0  0  0  0  0
    7.4340    2.9440  -13.9833 C   0  0  0  0  0  0  0  0  0  0  0  0
    6.1178    2.4338  -13.7912 C   0  0  0  0  0  0  0  0  0  0  0  0
    7.5952    4.1559  -13.9552 C   0  0  0  0  0  0  0  0  0  0  0  0
  1  2  1  0  0  0  0
  2  3  1  0  0  0  0
  2  4  1  0  0  0  0
  2  6  1  0  0  0  0
  3  5  1  0  0  0  0
  3 10  1  0  0  0  0
  3 12  1  0  0  0  0
  4  7  1  0  0  0  0
  4  8  2  0  0  0  0
  7  9  2  0  0  0  0
  7 11  1  0  0  0  0
  8 13  1  0  0  0  0
  9 14  1  0  0  0  0
 10 11  1  0  0  0  0
 13 14  2  0  0  0  0
 14 15  1  0  0  0  0
 15 16  1  0  0  0  0
 16 17  1  0  0  0  0
 16 18  2  0  0  0  0
 17 20  1  0  0  0  0
 17 21  2  0  0  0  0
 18 19  1  0  0  0  0
 19 22  1  0  0  0  0
 19 25  2  0  0  0  0
 21 23  1  0  0  0  0
 21 25  1  0  0  0  0
 22 31  1  0  0  0  0
 22 33  1  0  0  0  0
 22 35  1  0  0  0  0
 23 24  1  0  0  0  0
 23 30  2  0  0  0  0
 24 26  2  0  0  0  0
 24 27  1  0  0  0  0
 26 28  1  0  0  0  0
 27 32  1  0  0  0  0
 28 29  2  0  0  0  0
 29 30  1  0  0  0  0
 32 34  1  0  0  0  0
 32 37  2  0  0  0  0
 34 36  2  0  0  0  0
 36 38  1  0  0  0  0
 37 40  1  0  0  0  0
 38 39  1  0  0  0  0
 38 40  2  0  0  0  0
M  END
$$$$

 OpenBabel10082411353D

 40 50  0  0  0  0  0  0  0  0999 V2000
    8.0806    9.0240  -12.7589 C   0  0  0  0  0  0  0  0  0  0  0  0
    8.6514    7.8645  -12.2948 C   0  0  0  0  0  0  0  0  0  0  0  0
    9.9575    7.9974  -11.8426 C   0  0  0  0  0  0  0  0  0  0  0  0
   10.7657    6.8667  -11.6050 C   0  0  1  0  0  0  0  0  0  0  0  0
   10.7682    5.9590  -12.8271 C   0  0  0  0  0  0  0  0  0  0  0  0
   12.1553    7.3846  -11.2315 C   0  0  0  0  0  0  0  0  0  0  0  0
    8.0676    6.6451  -12.2974 C   0  0  0  0  0  0  0  0  0  0  0  0
   10.1892    6.1240  -10.3860 C   0  0  0  0  0  0  0  0  0  0  0  0
   11.8375    5.4373  -13.3240 O   0  0  0  0  0  0  0  0  0  0  0  0
    8.6785    5.4761  -13.0273 C   0  0  1  0  0  0  0  0  0  0  0  0
    9.1969    5.2405  -10.4969 C   0  0  1  0  0  0  0  0  0  0  0  0
    7.2213    6.2210  -11.3074 C   0  0  1  0  0  0  0  0  0  0  0  0
   12.5590    7.6872   -9.9896 C   0  0  0  0  0  0  0  0  0  0  0  0
    9.7633    5.0333  -12.9720 C   0  0  1  0  0  0  0  0  0  0  0  0
   10.0661    4.0167  -14.0373 N   0  0  0  0  0  0  0  0  0  0  0  0
   13.6906    8.3004   -9.6233 O   0  0  0  0  0  0  0  0  0  0  0  0
    7.6357    4.5123  -12.6317 C   0  0  2  0  0  0  0  0  0  0  0  0
    6.8831    4.9171  -11.7031 C   0  0  1  0  0  0  0  0  0  0  0  0
   10.5937    6.6967   -9.1779 C   0  0  0  0  0  0  0  0  0  0  0  0
    9.5087    4.3263  -11.6925 C   0  0  2  0  0  0  0  0  0  0  0  0
   11.6359    7.4449   -8.9125 C   0  0  0  0  0  0  0  0  0  0  0  0
   11.9716    7.9159   -7.6200 C   0  0  0  0  0  0  0  0  0  0  0  0
    8.4648    3.6122  -12.2840 C   0  0  2  0  0  0  0  0  0  0  0  0
    9.3128    4.5571   -9.1689 C   0  0  0  0  0  0  0  0  0  0  0  0
   10.9557    7.6369   -6.5929 C   0  0  1  0  0  0  0  0  0  0  0  0
    9.6490    2.8108  -13.7776 C   0  0  1  0  0  0  0  0  0  0  0  0
    9.6716    6.1981   -8.0224 C   0  0  2  0  0  0  0  0  0  0  0  0
    8.5511    2.5400  -13.1402 C   0  0  0  0  0  0  0  0  0  0  0  0
    9.7877    2.0302  -15.0383 O   0  0  0  0  0  0  0  0  0  0  0  0
   10.2949    6.3957   -6.8142 C   0  0  0  0  0  0  0  0  0  0  0  0
   11.5672    7.6277   -5.2275 C   0  0  1  0  0  0  0  0  0  0  0  0
    9.0573    5.0713   -8.1077 N   0  0  0  0  0  0  0  0  0  0  0  0
    9.9816    8.7976   -6.5531 C   0  0  0  0  0  0  0  0  0  0  0  0
   11.0000    1.9397  -15.5744 C   0  0  0  0  0  0  0  0  0  0  0  0
    7.9363    5.6537  -10.4961 C   0  0  1  0  0  0  0  0  0  0  0  0
   12.0307    8.8848   -4.6652 C   0  0  1  0  0  0  0  0  0  0  0  0
   10.9126    7.0320   -4.1481 C   0  0  0  0  0  0  0  0  0  0  0  0
   12.3132    9.8861   -5.4591 F   0  0  0  0  0  0  0  0  0  0  0  0
   11.6102    7.6373   -2.9673 C   0  0  0  0  0  0  0  0  0  0  0  0
   11.9558    8.9545   -3.2471 C   0  0  0  0  0  0  0  0  0  0  0  0
  1  2  1  0  0  0  0
  2  3  1  0  0  0  0
  2  7  2  0  0  0  0
  4  3  1  6  0  0  0
  4  5  1  0  0  0  0
  4  6  1  0  0  0  0
  4  8  1  0  0  0  0
  5  9  2  0  0  0  0
  6 13  1  0  0  0  0
  8 11  1  0  0  0  0
  8 19  2  0  0  0  0
 10  7  1  1  0  0  0
 10 14  1  0  0  0  0
 10 17  1  0  0  0  0
 11 20  1  0  0  0  0
 11 24  1  1  0  0  0
 11 35  1  0  0  0  0
 12  7  1  6  0  0  0
 12 18  1  0  0  0  0
 12 35  1  0  0  0  0
 13 16  2  0  0  0  0
 13 21  1  0  0  0  0
 14  5  1  1  0  0  0
 14 15  1  0  0  0  0
 14 20  1  0  0  0  0
 15 26  1  0  0  0  0
 17 18  1  0  0  0  0
 17 23  1  0  0  0  0
 18 35  1  0  0  0  0
 19 21  1  0  0  0  0
 19 27  1  0  0  0  0
 20 23  1  0  0  0  0
 21 22  2  0  0  0  0
 22 25  1  0  0  0  0
 23 28  1  0  0  0  0
 24 32  2  0  0  0  0
 25 30  1  0  0  0  0
 25 31  1  0  0  0  0
 25 33  1  0  0  0  0
 26 28  1  0  0  0  0
 26 29  1  0  0  0  0
 27 30  1  0  0  0  0
 27 32  1  0  0  0  0
 29 34  1  0  0  0  0
 31 36  1  0  0  0  0
 31 37  1  0  0  0  0
 36 38  1  0  0  0  0
 36 40  1  0  0  0  0
 37 39  1  0  0  0  0
 39 40  1  0  0  0  0
M  END
$$$$

 OpenBabel10082411353D

 40 45  0  0  0  0  0  0  0  0999 V2000
   11.6836    6.0105   -4.8831 C   0  0  0  0  0  0  0  0  0  0  0  0
   11.1291    7.0732   -5.4395 C   0  0  0  0  0  0  0  0  0  0  0  0
   10.6954    7.0156   -6.8073 C   0  0  0  0  0  0  0  0  0  0  0  0
   10.2502    8.1187   -7.5536 C   0  0  2  0  0  0  0  0  0  0  0  0
   11.1205    8.4712   -4.9629 C   0  0  0  0  0  0  0  0  0  0  0  0
   10.8655    8.3511   -8.7960 C   0  0  0  0  0  0  0  0  0  0  0  0
   10.2922    7.8843   -9.9985 C   0  0  0  0  0  0  0  0  0  0  0  0
   10.4654    9.6993   -5.6120 C   0  0  0  0  0  0  0  0  0  0  0  0
   10.3510    9.5971   -7.0014 C   0  0  0  0  0  0  0  0  0  0  0  0
   12.2462    6.3351   -3.5020 C   0  0  0  0  0  0  0  0  0  0  0  0
   11.0471    7.5309  -11.1063 C   0  0  0  0  0  0  0  0  0  0  0  0
   11.7288    8.6923   -3.6518 C   0  0  0  0  0  0  0  0  0  0  0  0
   12.3991    7.7501  -11.1145 C   0  0  0  0  0  0  0  0  0  0  0  0
   12.3738    7.7580   -2.9599 C   0  0  0  0  0  0  0  0  0  0  0  0
   13.1285    8.5075  -10.1661 O   0  0  0  0  0  0  0  0  0  0  0  0
    9.0407    7.3775  -10.0973 N   0  0  0  0  0  0  0  0  0  0  0  0
    8.9787    6.9473  -11.4664 N   0  0  0  0  0  0  0  0  0  0  0  0
   13.1012    7.4459  -12.3707 C   0  0  0  0  0  0  0  0  0  0  0  0
   12.2395    6.9724  -13.2444 C   0  0  0  0  0  0  0  0  0  0  0  0
   10.2768    7.0170  -11.9799 C   0  0  0  0  0  0  0  0  0  0  0  0
   12.9237    6.5822  -14.5759 O   0  0  0  0  0  0  0  0  0  0  0  0
   10.8906    6.6526  -13.2252 C   0  0  0  0  0  0  0  0  0  0  0  0
   12.2396    6.1290  -15.6916 C   0  0  0  0  0  0  0  0  0  0  0  0
    7.8036    6.1825  -11.9342 C   0  0  0  0  0  0  0  0  0  0  0  0
   12.5015    4.7115  -15.7686 C   0  0  0  0  0  0  0  0  0  0  0  0
    7.1685    6.9992  -12.8245 C   0  0  0  0  0  0  0  0  0  0  0  0
   11.2461    3.8540  -15.4851 C   0  0  0  0  0  0  0  0  0  0  0  0
    7.6237    4.9154  -11.6529 C   0  0  0  0  0  0  0  0  0  0  0  0
    6.6378    4.1960  -12.2267 C   0  0  0  0  0  0  0  0  0  0  0  0
    6.2717    2.7675  -11.9743 C   0  0  0  0  0  0  0  0  0  0  0  0
    6.6569    1.8873  -12.9460 C   0  0  0  0  0  0  0  0  0  0  0  0
    7.3895    8.4597  -13.1785 C   0  0  0  0  0  0  0  0  0  0  0  0
    6.3114    0.5653  -12.7247 C   0  0  0  0  0  0  0  0  0  0  0  0
    7.7684    2.0327  -13.9055 C   0  0  0  0  0  0  0  0  0  0  0  0
    8.3733    3.3319  -14.0408 C   0  0  0  0  0  0  0  0  0  0  0  0
    6.7866   -0.4375  -13.6507 C   0  0  0  0  0  0  0  0  0  0  0  0
    7.8338   -0.2012  -14.4625 C   0  0  0  0  0  0  0  0  0  0  0  0
    8.3543    1.0623  -14.5600 C   0  0  0  0  0  0  0  0  0  0  0  0
   11.0755    3.2364  -14.4569 C   0  0  0  0  0  0  0  0  0  0  0  0
    9.8031    2.7830  -13.9769 N   0  0  0  0  0  0  0  0  0  0  0  0
  1  2  1  0  0  0  0
  1 10  2  0  0  0  0
  2  3  1  0  0  0  0
  2  5  2  0  0  0  0
  3  4  1  0  0  0  0
  4  6  1  6  0  0  0
  4  9  1  0  0  0  0
  5  8  1  0  0  0  0
  5 12  1  0  0  0  0
  6  7  1  0  0  0  0
  7 11  1  0  0  0  0
  7 16  2  0  0  0  0
  8  9  1  0  0  0  0
 10 14  1  0  0  0  0
 11 13  2  0  0  0  0
 11 20  1  0  0  0  0
 12 14  2  0  0  0  0
 13 15  1  0  0  0  0
 13 18  1  0  0  0  0
 16 17  1  0  0  0  0
 17 20  1  0  0  0  0
 17 24  1  0  0  0  0
 18 19  2  0  0  0  0
 19 21  1  0  0  0  0
 19 22  1  0  0  0  0
 20 22  2  0  0  0  0
 21 23  1  0  0  0  0
 23 25  1  0  0  0  0
 24 26  2  3  0  0  0
 24 28  1  0  0  0  0
 25 27  1  0  0  0  0
 26 32  1  0  0  0  0
 27 39  1  0  0  0  0
 28 29  2  0  0  0  0
 29 30  1  0  0  0  0
 30 31  1  0  0  0  0
 31 33  2  0  0  0  0
 31 34  1  0  0  0  0
 33 36  1  0  0  0  0
 34 35  1  0  0  0  0
 34 38  2  0  0  0  0
 35 40  1  0  0  0  0
 36 37  2  0  0  0  0
 37 38  1  0  0  0  0
 39 40  1  0  0  0  0
M  END
$$$$

 OpenBabel10082411353D

 40 48  0  0  0  0  0  0  0  0999 V2000
   12.7863    7.8241  -14.2109 C   0  0  0  0  0  0  0  0  0  0  0  0
   12.4233    7.7158  -13.0289 C   0  0  0  0  0  0  0  0  0  0  0  0
   11.3194    6.8571  -12.8028 C   0  0  0  0  0  0  0  0  0  0  0  0
   12.3150    7.2021  -15.3582 C   0  0  0  0  0  0  0  0  0  0  0  0
   11.2733    6.2739  -15.1502 C   0  0  0  0  0  0  0  0  0  0  0  0
   10.8099    6.0126  -13.8600 C   0  0  0  0  0  0  0  0  0  0  0  0
    9.6782    5.1428  -13.6488 C   0  0  0  0  0  0  0  0  0  0  0  0
    8.5753    5.3880  -12.9589 N   0  0  0  0  0  0  0  0  0  0  0  0
    8.3226    6.7011  -12.3862 C   0  0  0  0  0  0  0  0  0  0  0  0
    9.8502    3.8578  -14.0728 C   0  0  0  0  0  0  0  0  0  0  0  0
    7.3864    7.4720  -13.0530 C   0  0  0  0  0  0  0  0  0  0  0  0
    6.2412    7.8486  -12.2599 C   0  0  0  0  0  0  0  0  0  0  0  0
    7.6425    4.4186  -12.7943 C   0  0  0  0  0  0  0  0  0  0  0  0
   11.0297    3.2482  -14.8053 C   0  0  0  0  0  0  0  0  0  0  0  0
    8.6802    2.8955  -13.7960 C   0  0  0  0  0  0  0  0  0  0  0  0
    8.8565    1.5917  -14.3582 O   0  0  0  0  0  0  0  0  0  0  0  0
    7.6903    3.2226  -13.1994 N   0  0  0  0  0  0  0  0  0  0  0  0
    6.5724    2.3444  -12.8378 C   0  0  0  0  0  0  0  0  0  0  0  0
    9.0225    7.0353  -11.3259 C   0  0  0  0  0  0  0  0  0  0  0  0
    6.2405    4.8489  -12.4515 C   0  0  0  0  0  0  0  0  0  0  0  0
   10.5875    7.0617  -11.5321 C   0  0  0  0  0  0  0  0  0  0  0  0
   11.0960    7.6093  -10.4100 C   0  0  0  0  0  0  0  0  0  0  0  0
    8.4039    7.3336  -10.1102 C   0  0  0  0  0  0  0  0  0  0  0  0
    5.5911    3.3517  -12.3508 C   0  0  0  0  0  0  0  0  0  0  0  0
   12.6259    7.6530  -10.3901 C   0  0  0  0  0  0  0  0  0  0  0  0
   10.4284    7.7784   -9.2128 C   0  0  1  0  0  0  0  0  0  0  0  0
    9.2236    7.5051   -9.0617 C   0  0  2  0  0  0  0  0  0  0  0  0
    8.7145    7.3063   -7.7135 N   0  0  0  0  0  0  0  0  0  0  0  0
   11.0621    7.5242   -7.8430 C   0  0  1  0  0  0  0  0  0  0  0  0
   12.0213    8.4787   -7.3268 C   0  0  0  0  0  0  0  0  0  0  0  0
   13.1241    8.0749  -11.7293 C   0  0  0  0  0  0  0  0  0  0  0  0
    9.9178    7.6308   -6.9884 C   0  0  2  0  0  0  0  0  0  0  0  0
   12.0768    8.3481   -5.8539 C   0  0  0  0  0  0  0  0  0  0  0  0
   10.0351    6.6960   -5.8250 C   0  0  0  0  0  0  0  0  0  0  0  0
   11.2104    7.4471   -5.1985 C   0  0  0  0  0  0  0  0  0  0  0  0
   12.9004    9.3019   -5.1631 C   0  0  0  0  0  0  0  0  0  0  0  0
   11.4590    7.3245   -3.8843 C   0  0  0  0  0  0  0  0  0  0  0  0
   10.7083    6.2477   -3.0781 F   0  0  0  0  0  0  0  0  0  0  0  0
   12.2694    8.0475   -3.0001 C   0  0  0  0  0  0  0  0  0  0  0  0
   12.9565    9.0964   -3.5872 C   0  0  0  0  0  0  0  0  0  0  0  0
  1  2  2  0  0  0  0
  1  4  1  0  0  0  0
  2  3  1  0  0  0  0
  2 31  1  0  0  0  0
  3  6  2  0  0  0  0
  3 21  1  0  0  0  0
  4  5  2  0  0  0  0
  5  6  1  0  0  0  0
  6  7  1  0  0  0  0
  7  8  1  0  0  0  0
  7 10  2  0  0  0  0
  8  9  1  0  0  0  0
  8 13  1  0  0  0  0
  9 11  1  0  0  0  0
  9 19  2  0  0  0  0
 10 14  1  0  0  0  0
 10 15  1  0  0  0  0
 11 12  1  0  0  0  0
 13 17  1  0  0  0  0
 13 20  2  0  0  0  0
 15 16  2  0  0  0  0
 15 17  1  0  0  0  0
 17 18  1  0  0  0  0
 18 24  1  0  0  0  0
 19 21  1  0  0  0  0
 19 23  1  0  0  0  0
 20 24  1  0  0  0  0
 21 22  2  0  0  0  0
 22 25  1  0  0  0  0
 25 31  2  0  0  0  0
 26 22  1  6  0  0  0
 26 27  1  0  0  0  0
 26 29  1  0  0  0  0
 27 23  1  6  0  0  0
 27 28  1  0  0  0  0
 28 32  1  0  0  0  0
 29 30  1  1  0  0  0
 29 32  1  0  0  0  0
 30 33  1  0  0  0  0
 32 34  1  1  0  0  0
 33 35  1  0  0  0  0
 33 36  2  0  0  0  0
 34 35  1  0  0  0  0
 35 37  2  0  0  0  0
 36 40  1  0  0  0  0
 37 38  1  0  0  0  0
 37 39  1  0  0  0  0
 39 40  2  0  0  0  0
M  END
$$$$

 OpenBabel10082411353D

 40 46  0  0  0  0  0  0  0  0999 V2000
   12.7863    7.8241  -14.2109 C   0  0  0  0  0  0  0  0  0  0  0  0
   12.4233    7.7158  -13.0289 C   0  0  0  0  0  0  0  0  0  0  0  0
   11.3194    6.8571  -12.8028 C   0  0  0  0  0  0  0  0  0  0  0  0
   12.3150    7.2021  -15.3582 C   0  0  0  0  0  0  0  0  0  0  0  0
   11.2733    6.2739  -15.1502 C   0  0  0  0  0  0  0  0  0  0  0  0
   10.8099    6.0126  -13.8600 C   0  0  0  0  0  0  0  0  0  0  0  0
    9.6782    5.1428  -13.6488 C   0  0  0  0  0  0  0  0  0  0  0  0
    8.5753    5.3880  -12.9589 N   0  0  0  0  0  0  0  0  0  0  0  0
    8.3226    6.7011  -12.3862 C   0  0  0  0  0  0  0  0  0  0  0  0
    9.8502    3.8578  -14.0728 C   0  0  0  0  0  0  0  0  0  0  0  0
    7.3864    7.4720  -13.0530 C   0  0  0  0  0  0  0  0  0  0  0  0
    6.2412    7.8486  -12.2599 C   0  0  0  0  0  0  0  0  0  0  0  0
    7.6425    4.4186  -12.7943 C   0  0  0  0  0  0  0  0  0  0  0  0
   11.0297    3.2482  -14.8053 C   0  0  0  0  0  0  0  0  0  0  0  0
    8.6802    2.8955  -13.7960 C   0  0  0  0  0  0  0  0  0  0  0  0
    8.8565    1.5917  -14.3582 O   0  0  0  0  0  0  0  0  0  0  0  0
    7.6903    3.2226  -13.1994 N   0  0  0  0  0  0  0  0  0  0  0  0
    6.5724    2.3444  -12.8378 C   0  0  0  0  0  0  0  0  0  0  0  0
    9.0225    7.0353  -11.3259 C   0  0  0  0  0  0  0  0  0  0  0  0
    6.4787    4.7532  -12.1787 O   0  0  0  0  0  0  0  0  0  0  0  0
   10.5868    7.0468  -11.5199 C   0  0  0  0  0  0  0  0  0  0  0  0
   11.2761    7.4007  -10.4131 C   0  0  0  0  0  0  0  0  0  0  0  0
    8.6862    7.4300   -9.9877 C   0  0  0  0  0  0  0  0  0  0  0  0
    9.4326    7.6744   -8.9657 C   0  0  0  0  0  0  0  0  0  0  0  0
   10.6794    7.6568   -9.1312 C   0  0  2  0  0  0  0  0  0  0  0  0
    8.9269    7.9839   -7.6612 C   0  0  0  0  0  0  0  0  0  0  0  0
   11.4232    7.9744   -7.9321 C   0  0  0  0  0  0  0  0  0  0  0  0
   10.9573    8.3184   -6.8885 C   0  0  0  0  0  0  0  0  0  0  0  0
    7.5782    7.8797   -7.5710 F   0  0  0  0  0  0  0  0  0  0  0  0
   11.9524    8.6726   -5.5732 C   0  0  0  0  0  0  0  0  0  0  0  0
   12.5628    9.9251   -5.6215 C   0  0  0  0  0  0  0  0  0  0  0  0
   11.7409    8.0483   -4.4624 C   0  0  0  0  0  0  0  0  0  0  0  0
   13.2690   10.1339   -4.4918 C   0  0  0  0  0  0  0  0  0  0  0  0
    9.4630    8.1816   -6.7271 C   0  0  0  0  0  0  0  0  0  0  0  0
   12.9861    9.0553   -3.3537 S   0  0  0  0  0  0  0  0  0  0  0  0
   12.2132    7.9988   -3.3585 C   0  0  0  0  0  0  0  0  0  0  0  0
   10.8132    6.6288   -4.6870 C   0  0  0  0  0  0  0  0  0  0  0  0
   12.1026    7.1304   -2.2950 C   0  0  0  0  0  0  0  0  0  0  0  0
   11.3871    5.9780   -2.5357 C   0  0  0  0  0  0  0  0  0  0  0  0
   10.6998    5.8725   -3.8395 C   0  0  0  0  0  0  0  0  0  0  0  0
  1  2  2  0  0  0  0
  1  4  1  0  0  0  0
  2  3  1  0  0  0  0
  3  6  2  0  0  0  0
  3 21  1  0  0  0  0
  4  5  2  0  0  0  0
  5  6  1  0  0  0  0
  6  7  1  0  0  0  0
  7  8  1  0  0  0  0
  7 10  2  0  0  0  0
  8  9  1  0  0  0  0
  8 13  1  0  0  0  0
  9 11  1  0  0  0  0
  9 19  2  0  0  0  0
 10 14  1  0  0  0  0
 10 15  1  0  0  0  0
 11 12  1  0  0  0  0
 13 17  1  0  0  0  0
 13 20  2  0  0  0  0
 15 16  2  0  0  0  0
 15 17  1  0  0  0  0
 17 18  1  0  0  0  0
 19 21  1  0  0  0  0
 19 23  1  0  0  0  0
 21 22  2  0  0  0  0
 23 24  2  0  0  0  0
 24 25  1  0  0  0  0
 24 26  1  0  0  0  0
 25 22  1  6  0  0  0
 25 27  1  0  0  0  0
 26 29  1  0  0  0  0
 26 34  2  0  0  0  0
 27 28  2  0  0  0  0
 28 30  1  0  0  0  0
 28 34  1  0  0  0  0
 30 31  1  0  0  0  0
 30 32  2  0  0  0  0
 31 33  2  0  0  0  0
 32 36  1  0  0  0  0
 32 37  1  0  0  0  0
 33 35  1  0  0  0  0
 35 36  1  0  0  0  0
 36 38  2  0  0  0  0
 37 40  1  0  0  0  0
 38 39  1  0  0  0  0
 39 40  2  0  0  0  0
M  END
$$$$

 OpenBabel10082411353D

 40 50  0  0  0  0  0  0  0  0999 V2000
    8.0806    9.0240  -12.7589 C   0  0  0  0  0  0  0  0  0  0  0  0
    8.6514    7.8645  -12.2948 C   0  0  0  0  0  0  0  0  0  0  0  0
    9.9575    7.9974  -11.8426 C   0  0  0  0  0  0  0  0  0  0  0  0
   10.7657    6.8667  -11.6050 C   0  0  1  0  0  0  0  0  0  0  0  0
   10.7682    5.9590  -12.8271 C   0  0  0  0  0  0  0  0  0  0  0  0
   12.1553    7.3846  -11.2315 C   0  0  0  0  0  0  0  0  0  0  0  0
    8.0676    6.6451  -12.2974 C   0  0  0  0  0  0  0  0  0  0  0  0
   10.1892    6.1240  -10.3860 C   0  0  0  0  0  0  0  0  0  0  0  0
   11.8375    5.4373  -13.3240 O   0  0  0  0  0  0  0  0  0  0  0  0
    8.6785    5.4761  -13.0273 C   0  0  1  0  0  0  0  0  0  0  0  0
    9.1969    5.2405  -10.4969 C   0  0  1  0  0  0  0  0  0  0  0  0
    7.2213    6.2210  -11.3074 C   0  0  1  0  0  0  0  0  0  0  0  0
   12.5590    7.6872   -9.9896 C   0  0  0  0  0  0  0  0  0  0  0  0
    9.7633    5.0333  -12.9720 C   0  0  1  0  0  0  0  0  0  0  0  0
   10.0661    4.0167  -14.0373 N   0  0  0  0  0  0  0  0  0  0  0  0
   13.6906    8.3004   -9.6233 O   0  0  0  0  0  0  0  0  0  0  0  0
    7.6357    4.5123  -12.6317 C   0  0  2  0  0  0  0  0  0  0  0  0
    6.8831    4.9171  -11.7031 C   0  0  1  0  0  0  0  0  0  0  0  0
   10.5937    6.6967   -9.1779 C   0  0  0  0  0  0  0  0  0  0  0  0
    9.5087    4.3263  -11.6925 C   0  0  2  0  0  0  0  0  0  0  0  0
   11.6359    7.4449   -8.9125 C   0  0  0  0  0  0  0  0  0  0  0  0
   11.9716    7.9159   -7.6200 C   0  0  0  0  0  0  0  0  0  0  0  0
    8.4648    3.6122  -12.2840 C   0  0  2  0  0  0  0  0  0  0  0  0
    9.3128    4.5571   -9.1689 C   0  0  0  0  0  0  0  0  0  0  0  0
   10.9557    7.6369   -6.5929 C   0  0  1  0  0  0  0  0  0  0  0  0
    9.6490    2.8108  -13.7776 C   0  0  1  0  0  0  0  0  0  0  0  0
    9.6716    6.1981   -8.0224 C   0  0  2  0  0  0  0  0  0  0  0  0
    8.5511    2.5400  -13.1402 C   0  0  0  0  0  0  0  0  0  0  0  0
    9.7877    2.0302  -15.0383 O   0  0  0  0  0  0  0  0  0  0  0  0
   10.2949    6.3957   -6.8142 C   0  0  0  0  0  0  0  0  0  0  0  0
   11.5672    7.6277   -5.2275 C   0  0  0  0  0  0  0  0  0  0  0  0
    9.0573    5.0713   -8.1077 N   0  0  0  0  0  0  0  0  0  0  0  0
    9.9816    8.7976   -6.5531 C   0  0  0  0  0  0  0  0  0  0  0  0
   11.0000    1.9397  -15.5744 C   0  0  0  0  0  0  0  0  0  0  0  0
    7.9363    5.6537  -10.4961 C   0  0  1  0  0  0  0  0  0  0  0  0
   11.7094    6.5344   -4.5880 C   0  0  0  0  0  0  0  0  0  0  0  0
   12.4227    6.4588   -3.2807 C   0  0  0  0  0  0  0  0  0  0  0  0
   12.5805    7.7754   -2.8612 C   0  0  0  0  0  0  0  0  0  0  0  0
   12.4128    8.9636   -3.2806 C   0  0  0  0  0  0  0  0  0  0  0  0
   11.8292    8.9105   -4.5424 C   0  0  0  0  0  0  0  0  0  0  0  0
  1  2  1  0  0  0  0
  2  3  1  0  0  0  0
  2  7  2  0  0  0  0
  4  3  1  6  0  0  0
  4  5  1  0  0  0  0
  4  6  1  0  0  0  0
  4  8  1  0  0  0  0
  5  9  2  0  0  0  0
  6 13  1  0  0  0  0
  8 11  1  0  0  0  0
  8 19  2  0  0  0  0
 10  7  1  1  0  0  0
 10 14  1  0  0  0  0
 10 17  1  0  0  0  0
 11 20  1  0  0  0  0
 11 24  1  1  0  0  0
 11 35  1  0  0  0  0
 12  7  1  6  0  0  0
 12 18  1  0  0  0  0
 12 35  1  0  0  0  0
 13 16  2  0  0  0  0
 13 21  1  0  0  0  0
 14  5  1  1  0  0  0
 14 15  1  0  0  0  0
 14 20  1  0  0  0  0
 15 26  1  0  0  0  0
 17 18  1  0  0  0  0
 17 23  1  0  0  0  0
 18 35  1  0  0  0  0
 19 21  1  0  0  0  0
 19 27  1  0  0  0  0
 20 23  1  0  0  0  0
 21 22  2  0  0  0  0
 22 25  1  0  0  0  0
 23 28  1  0  0  0  0
 24 32  2  0  0  0  0
 25 30  1  0  0  0  0
 25 31  1  0  0  0  0
 25 33  1  0  0  0  0
 26 28  1  0  0  0  0
 26 29  1  0  0  0  0
 27 30  1  0  0  0  0
 27 32  1  0  0  0  0
 29 34  1  0  0  0  0
 31 36  2  0  0  0  0
 31 40  1  0  0  0  0
 36 37  1  0  0  0  0
 37 38  2  0  0  0  0
 38 39  1  0  0  0  0
 39 40  2  0  0  0  0
M  END
$$$$

 OpenBabel10082411353D

 40 48  0  0  0  0  0  0  0  0999 V2000
   12.7863    7.8241  -14.2109 C   0  0  0  0  0  0  0  0  0  0  0  0
   12.4233    7.7158  -13.0289 C   0  0  0  0  0  0  0  0  0  0  0  0
   11.3194    6.8571  -12.8028 C   0  0  0  0  0  0  0  0  0  0  0  0
   12.3150    7.2021  -15.3582 C   0  0  0  0  0  0  0  0  0  0  0  0
   11.2733    6.2739  -15.1502 C   0  0  0  0  0  0  0  0  0  0  0  0
   10.8099    6.0126  -13.8600 C   0  0  0  0  0  0  0  0  0  0  0  0
    9.6782    5.1428  -13.6488 C   0  0  0  0  0  0  0  0  0  0  0  0
    8.5753    5.3880  -12.9589 N   0  0  0  0  0  0  0  0  0  0  0  0
    8.3226    6.7011  -12.3862 C   0  0  0  0  0  0  0  0  0  0  0  0
    9.8502    3.8578  -14.0728 C   0  0  0  0  0  0  0  0  0  0  0  0
    7.3864    7.4720  -13.0530 C   0  0  0  0  0  0  0  0  0  0  0  0
    6.2412    7.8486  -12.2599 C   0  0  0  0  0  0  0  0  0  0  0  0
    7.6425    4.4186  -12.7943 C   0  0  0  0  0  0  0  0  0  0  0  0
   11.0297    3.2482  -14.8053 C   0  0  0  0  0  0  0  0  0  0  0  0
    8.6802    2.8955  -13.7960 C   0  0  0  0  0  0  0  0  0  0  0  0
    8.8565    1.5917  -14.3582 O   0  0  0  0  0  0  0  0  0  0  0  0
    7.6903    3.2226  -13.1994 N   0  0  0  0  0  0  0  0  0  0  0  0
    6.5724    2.3444  -12.8378 C   0  0  0  0  0  0  0  0  0  0  0  0
    9.0225    7.0353  -11.3259 C   0  0  0  0  0  0  0  0  0  0  0  0
    6.2405    4.8489  -12.4515 C   0  0  0  0  0  0  0  0  0  0  0  0
   10.5875    7.0617  -11.5321 C   0  0  0  0  0  0  0  0  0  0  0  0
   11.0960    7.6093  -10.4100 C   0  0  0  0  0  0  0  0  0  0  0  0
    8.4039    7.3336  -10.1102 C   0  0  0  0  0  0  0  0  0  0  0  0
    5.5911    3.3517  -12.3508 C   0  0  0  0  0  0  0  0  0  0  0  0
   12.6259    7.6530  -10.3901 C   0  0  0  0  0  0  0  0  0  0  0  0
   10.4284    7.7784   -9.2128 C   0  0  1  0  0  0  0  0  0  0  0  0
    9.2236    7.5051   -9.0617 C   0  0  2  0  0  0  0  0  0  0  0  0
    8.7145    7.3063   -7.7135 N   0  0  0  0  0  0  0  0  0  0  0  0
   11.0621    7.5242   -7.8430 C   0  0  2  0  0  0  0  0  0  0  0  0
   12.0213    8.4787   -7.3268 C   0  0  0  0  0  0  0  0  0  0  0  0
   13.1241    8.0749  -11.7293 C   0  0  0  0  0  0  0  0  0  0  0  0
   12.0504    9.6950   -7.9009 O   0  0  0  0  0  0  0  0  0  0  0  0
   11.5774    6.1709   -7.7149 C   0  0  0  0  0  0  0  0  0  0  0  0
   12.4092    8.5793   -6.0108 N   0  0  0  0  0  0  0  0  0  0  0  0
    9.7740    7.4525   -7.0369 C   0  0  2  0  0  0  0  0  0  0  0  0
   13.1999    9.6456   -5.4855 C   0  0  0  0  0  0  0  0  0  0  0  0
   12.4273    7.5356   -5.1801 C   0  0  0  0  0  0  0  0  0  0  0  0
   11.1901    7.0577   -4.7307 C   0  0  0  0  0  0  0  0  0  0  0  0
   10.2384    6.6799   -5.8390 C   0  0  2  0  0  0  0  0  0  0  0  0
   11.0183    5.7606   -6.6168 C   0  0  0  0  0  0  0  0  0  0  0  0
  1  2  2  0  0  0  0
  1  4  1  0  0  0  0
  2  3  1  0  0  0  0
  2 31  1  0  0  0  0
  3  6  2  0  0  0  0
  3 21  1  0  0  0  0
  4  5  2  0  0  0  0
  5  6  1  0  0  0  0
  6  7  1  0  0  0  0
  7  8  1  0  0  0  0
  7 10  2  0  0  0  0
  8  9  1  0  0  0  0
  8 13  1  0  0  0  0
  9 11  1  0  0  0  0
  9 19  2  0  0  0  0
 10 14  1  0  0  0  0
 10 15  1  0  0  0  0
 11 12  1  0  0  0  0
 13 17  1  0  0  0  0
 13 20  2  0  0  0  0
 15 16  2  0  0  0  0
 15 17  1  0  0  0  0
 17 18  1  0  0  0  0
 18 24  1  0  0  0  0
 19 21  1  0  0  0  0
 19 23  1  0  0  0  0
 20 24  1  0  0  0  0
 21 22  2  0  0  0  0
 22 25  1  0  0  0  0
 25 31  2  0  0  0  0
 26 22  1  6  0  0  0
 26 27  1  0  0  0  0
 26 29  1  0  0  0  0
 27 23  1  6  0  0  0
 27 28  1  0  0  0  0
 29 30  1  0  0  0  0
 29 33  1  6  0  0  0
 29 35  1  0  0  0  0
 30 32  2  0  0  0  0
 30 34  1  0  0  0  0
 33 40  2  0  0  0  0
 34 36  1  0  0  0  0
 34 37  1  0  0  0  0
 35 28  1  6  0  0  0
 35 39  1  0  0  0  0
 37 38  1  0  0  0  0
 39 38  1  1  0  0  0
 39 40  1  0  0  0  0
M  END
$$$$

 OpenBabel10082411353D

 40 46  0  0  0  0  0  0  0  0999 V2000
   11.6836    6.0105   -4.8831 F   0  0  0  0  0  0  0  0  0  0  0  0
   11.2562    7.2206   -5.0294 C   0  0  0  0  0  0  0  0  0  0  0  0
   12.0125    8.2418   -4.4408 C   0  0  0  0  0  0  0  0  0  0  0  0
   11.1918    7.2706   -6.5237 C   0  0  0  0  0  0  0  0  0  0  0  0
   11.6999    8.4488   -3.1704 F   0  0  0  0  0  0  0  0  0  0  0  0
    9.8648    7.0908   -4.5314 F   0  0  0  0  0  0  0  0  0  0  0  0
   11.6831    8.5291   -6.9682 C   0  0  0  0  0  0  0  0  0  0  0  0
   10.4785    6.5189   -7.4033 C   0  0  0  0  0  0  0  0  0  0  0  0
   11.6979    8.6661   -8.4760 C   0  0  0  0  0  0  0  0  0  0  0  0
   11.6248    9.5853   -5.0030 C   0  0  0  0  0  0  0  0  0  0  0  0
   11.8604    9.7907   -6.2903 O   0  0  0  0  0  0  0  0  0  0  0  0
   13.3557    8.1748   -4.5947 F   0  0  0  0  0  0  0  0  0  0  0  0
   10.5427    6.6061   -8.7190 C   0  0  0  0  0  0  0  0  0  0  0  0
   11.1158    7.7103   -9.2540 C   0  0  0  0  0  0  0  0  0  0  0  0
   11.3757    7.6656  -10.5293 N   0  0  0  0  0  0  0  0  0  0  0  0
   10.7153    7.7096  -11.5405 C   0  0  0  0  0  0  0  0  0  0  0  0
   11.2483    7.4711  -12.8542 C   0  0  0  0  0  0  0  0  0  0  0  0
    9.3980    7.7820  -11.5398 C   0  0  0  0  0  0  0  0  0  0  0  0
    8.6055    7.5889  -12.6525 C   0  0  0  0  0  0  0  0  0  0  0  0
   12.7508    7.3705  -13.0162 O   0  0  0  0  0  0  0  0  0  0  0  0
   10.5299    7.1831  -13.9856 C   0  0  0  0  0  0  0  0  0  0  0  0
    7.0533    7.7371  -12.5396 C   0  0  0  0  0  0  0  0  0  0  0  0
   11.2041    6.8490  -15.2304 C   0  0  0  0  0  0  0  0  0  0  0  0
   11.6393    5.5333  -15.3864 C   0  0  0  0  0  0  0  0  0  0  0  0
    9.1955    7.2935  -13.8301 C   0  0  0  0  0  0  0  0  0  0  0  0
   12.5294    5.1116  -16.1609 C   0  0  0  0  0  0  0  0  0  0  0  0
   11.2315    4.4703  -14.3200 C   0  0  0  0  0  0  0  0  0  0  0  0
   10.2844    4.5821  -13.3000 C   0  0  0  0  0  0  0  0  0  0  0  0
   11.6270    3.1866  -14.6052 C   0  0  0  0  0  0  0  0  0  0  0  0
    9.0868    3.8289  -13.3080 C   0  0  0  0  0  0  0  0  0  0  0  0
   11.3420    2.7039  -15.8535 C   0  0  0  0  0  0  0  0  0  0  0  0
   12.3848    3.5242  -16.4737 C   0  0  0  0  0  0  0  0  0  0  0  0
    8.2189    3.9688  -12.1830 C   0  0  0  0  0  0  0  0  0  0  0  0
    8.4341    4.6700  -11.1010 C   0  0  0  0  0  0  0  0  0  0  0  0
    9.7276    5.5381   -9.3640 C   0  0  0  0  0  0  0  0  0  0  0  0
    9.5735    5.1732  -10.6898 C   0  0  0  0  0  0  0  0  0  0  0  0
   10.5009    5.1757  -11.9313 C   0  0  0  0  0  0  0  0  0  0  0  0
    8.9307    4.7754   -8.5818 N   0  0  0  0  0  0  0  0  0  0  0  0
    7.8314    4.4220   -9.1769 N   0  0  0  0  0  0  0  0  0  0  0  0
    7.4945    4.2038  -10.3010 C   0  0  0  0  0  0  0  0  0  0  0  0
  1  2  1  0  0  0  0
  2  3  1  0  0  0  0
  2  4  1  0  0  0  0
  2  6  1  0  0  0  0
  3  5  1  0  0  0  0
  3 10  1  0  0  0  0
  3 12  1  0  0  0  0
  4  7  1  0  0  0  0
  4  8  2  0  0  0  0
  7  9  2  0  0  0  0
  7 11  1  0  0  0  0
  8 13  1  0  0  0  0
  9 14  1  0  0  0  0
 10 11  1  0  0  0  0
 13 14  2  0  0  0  0
 13 35  1  0  0  0  0
 14 15  1  0  0  0  0
 15 16  1  0  0  0  0
 16 17  1  0  0  0  0
 16 18  2  0  0  0  0
 17 20  1  0  0  0  0
 17 21  2  0  0  0  0
 18 19  1  0  0  0  0
 19 22  1  0  0  0  0
 19 25  2  0  0  0  0
 21 23  1  0  0  0  0
 21 25  1  0  0  0  0
 23 24  1  0  0  0  0
 24 26  2  0  0  0  0
 24 27  1  0  0  0  0
 26 32  1  0  0  0  0
 27 28  1  0  0  0  0
 27 29  2  0  0  0  0
 28 30  2  0  0  0  0
 28 37  1  0  0  0  0
 29 31  1  0  0  0  0
 30 33  1  0  0  0  0
 31 32  1  0  0  0  0
 33 34  2  0  0  0  0
 34 36  1  0  0  0  0
 34 40  1  0  0  0  0
 35 36  1  0  0  0  0
 35 38  2  0  0  0  0
 36 37  2  0  0  0  0
 38 39  1  0  0  0  0
 39 40  2  0  0  0  0
M  END
$$$$

 OpenBabel10082411353D

 40 45  0  0  0  0  0  0  0  0999 V2000
   11.6836    6.0105   -4.8831 C   0  0  0  0  0  0  0  0  0  0  0  0
   11.1291    7.0732   -5.4395 C   0  0  0  0  0  0  0  0  0  0  0  0
   10.6954    7.0156   -6.8073 C   0  0  0  0  0  0  0  0  0  0  0  0
   10.2502    8.1187   -7.5536 C   0  0  2  0  0  0  0  0  0  0  0  0
   11.1205    8.4712   -4.9629 C   0  0  0  0  0  0  0  0  0  0  0  0
   10.8655    8.3511   -8.7960 C   0  0  0  0  0  0  0  0  0  0  0  0
   10.2922    7.8843   -9.9985 C   0  0  0  0  0  0  0  0  0  0  0  0
   10.4654    9.6993   -5.6120 C   0  0  0  0  0  0  0  0  0  0  0  0
   10.3510    9.5971   -7.0014 C   0  0  0  0  0  0  0  0  0  0  0  0
   12.2462    6.3351   -3.5020 C   0  0  0  0  0  0  0  0  0  0  0  0
   11.0471    7.5309  -11.1063 C   0  0  0  0  0  0  0  0  0  0  0  0
   11.7288    8.6923   -3.6518 C   0  0  0  0  0  0  0  0  0  0  0  0
   12.3991    7.7501  -11.1145 C   0  0  0  0  0  0  0  0  0  0  0  0
   12.3738    7.7580   -2.9599 C   0  0  0  0  0  0  0  0  0  0  0  0
   13.1285    8.5075  -10.1661 O   0  0  0  0  0  0  0  0  0  0  0  0
    9.0407    7.3775  -10.0973 N   0  0  0  0  0  0  0  0  0  0  0  0
    8.9787    6.9473  -11.4664 N   0  0  0  0  0  0  0  0  0  0  0  0
   13.1012    7.4459  -12.3707 C   0  0  0  0  0  0  0  0  0  0  0  0
   12.2395    6.9724  -13.2444 C   0  0  0  0  0  0  0  0  0  0  0  0
   10.2768    7.0170  -11.9799 C   0  0  0  0  0  0  0  0  0  0  0  0
   12.9237    6.5822  -14.5759 O   0  0  0  0  0  0  0  0  0  0  0  0
   10.8906    6.6526  -13.2252 C   0  0  0  0  0  0  0  0  0  0  0  0
   12.2396    6.1290  -15.6916 C   0  0  0  0  0  0  0  0  0  0  0  0
    7.8036    6.1825  -11.9342 C   0  0  0  0  0  0  0  0  0  0  0  0
   12.5015    4.7115  -15.7686 C   0  0  0  0  0  0  0  0  0  0  0  0
    7.1685    6.9992  -12.8245 C   0  0  0  0  0  0  0  0  0  0  0  0
   11.2461    3.8540  -15.4851 C   0  0  0  0  0  0  0  0  0  0  0  0
    7.6237    4.9154  -11.6529 C   0  0  0  0  0  0  0  0  0  0  0  0
    6.6378    4.1960  -12.2267 C   0  0  0  0  0  0  0  0  0  0  0  0
    6.2717    2.7675  -11.9743 C   0  0  0  0  0  0  0  0  0  0  0  0
    6.6569    1.8873  -12.9460 C   0  0  0  0  0  0  0  0  0  0  0  0
    7.3895    8.4597  -13.1785 C   0  0  0  0  0  0  0  0  0  0  0  0
    6.3114    0.5653  -12.7247 C   0  0  0  0  0  0  0  0  0  0  0  0
    7.7684    2.0327  -13.9055 C   0  0  0  0  0  0  0  0  0  0  0  0
    6.9387   -0.3720  -13.7691 C   0  0  0  0  0  0  0  0  0  0  0  0
    8.3285    1.1433  -14.6815 C   0  0  0  0  0  0  0  0  0  0  0  0
    7.8536   -0.1990  -14.4998 C   0  0  0  0  0  0  0  0  0  0  0  0
   11.3896    2.5547  -15.5227 O   0  0  0  0  0  0  0  0  0  0  0  0
   10.3944    1.9072  -15.9104 C   0  0  0  0  0  0  0  0  0  0  0  0
    9.4154    1.4352  -15.5609 C   0  0  0  0  0  0  0  0  0  0  0  0
  1  2  1  0  0  0  0
  1 10  2  0  0  0  0
  2  3  1  0  0  0  0
  2  5  2  0  0  0  0
  3  4  1  0  0  0  0
  4  6  1  6  0  0  0
  4  9  1  0  0  0  0
  5  8  1  0  0  0  0
  5 12  1  0  0  0  0
  6  7  1  0  0  0  0
  7 11  1  0  0  0  0
  7 16  2  0  0  0  0
  8  9  1  0  0  0  0
 10 14  1  0  0  0  0
 11 13  2  0  0  0  0
 11 20  1  0  0  0  0
 12 14  2  0  0  0  0
 13 15  1  0  0  0  0
 13 18  1  0  0  0  0
 16 17  1  0  0  0  0
 17 20  1  0  0  0  0
 17 24  1  0  0  0  0
 18 19  2  0  0  0  0
 19 21  1  0  0  0  0
 19 22  1  0  0  0  0
 20 22  2  0  0  0  0
 21 23  1  0  0  0  0
 23 25  1  0  0  0  0
 24 26  2  3  0  0  0
 24 28  1  0  0  0  0
 25 27  1  0  0  0  0
 26 32  1  0  0  0  0
 27 38  1  0  0  0  0
 28 29  2  0  0  0  0
 29 30  1  0  0  0  0
 30 31  1  0  0  0  0
 31 33  2  0  0  0  0
 31 34  1  0  0  0  0
 33 35  1  0  0  0  0
 34 36  2  0  0  0  0
 35 37  2  0  0  0  0
 36 37  1  0  0  0  0
 36 40  1  0  0  0  0
 38 39  1  0  0  0  0
 39 40  3  0  0  0  0
M  END
$$$$

 OpenBabel10082411353D

 26 29  0  0  0  0  0  0  0  0999 V2000
   10.9951    9.9694   -4.9946 C   0  0  0  0  0  0  0  0  0  0  0  0
   11.7938    9.3762   -4.2463 C   0  0  0  0  0  0  0  0  0  0  0  0
   10.8673    9.4548   -6.4276 C   0  0  0  0  0  0  0  0  0  0  0  0
   11.6576    7.9117   -4.2944 C   0  0  0  0  0  0  0  0  0  0  0  0
   10.5498    8.0257   -6.4521 C   0  0  0  0  0  0  0  0  0  0  0  0
   11.4715    7.2752   -5.6166 C   0  0  0  0  0  0  0  0  0  0  0  0
   10.5840    7.5390   -7.9254 C   0  0  0  0  0  0  0  0  0  0  0  0
   11.4612    8.1494   -8.8322 C   0  0  0  0  0  0  0  0  0  0  0  0
   12.6250    8.6294   -8.4338 O   0  0  0  0  0  0  0  0  0  0  0  0
   11.0835    8.4395  -10.0740 O   0  0  0  0  0  0  0  0  0  0  0  0
   11.2938    7.5612  -11.0769 C   0  0  1  0  0  0  0  0  0  0  0  0
   10.1547    7.2525  -11.9492 C   0  0  0  0  0  0  0  0  0  0  0  0
   10.4293    6.5622  -13.1348 C   0  0  0  0  0  0  0  0  0  0  0  0
   11.7295    6.4217  -13.6243 C   0  0  0  0  0  0  0  0  0  0  0  0
    8.7944    7.5590  -11.6123 C   0  0  1  0  0  0  0  0  0  0  0  0
   12.5537    7.8766  -11.6623 C   0  0  0  0  0  0  0  0  0  0  0  0
    8.3227    8.8234  -11.9576 C   0  0  0  0  0  0  0  0  0  0  0  0
    7.8789    6.3689  -11.9729 C   0  0  0  0  0  0  0  0  0  0  0  0
   12.7850    7.2972  -12.9839 C   0  0  0  0  0  0  0  0  0  0  0  0
   12.0731    5.5969  -14.4476 C   0  0  0  0  0  0  0  0  0  0  0  0
    8.3335    5.6916  -12.9896 C   0  0  0  0  0  0  0  0  0  0  0  0
   11.1257    4.5954  -15.0134 C   0  0  0  0  0  0  0  0  0  0  0  0
    9.5744    5.6603  -13.5407 C   0  0  1  0  0  0  0  0  0  0  0  0
   11.4877    3.7121  -16.0352 O   0  0  0  0  0  0  0  0  0  0  0  0
    9.6876    4.7037  -14.5985 C   0  0  0  0  0  0  0  0  0  0  0  0
   11.1828    2.4673  -15.9382 C   0  0  0  0  0  0  0  0  0  0  0  0
  1  2  1  0  0  0  0
  1  3  1  0  0  0  0
  2  4  1  0  0  0  0
  3  5  1  0  0  0  0
  4  6  1  0  0  0  0
  5  6  1  0  0  0  0
  5  7  1  0  0  0  0
  7  8  1  0  0  0  0
  8  9  2  0  0  0  0
  8 10  1  0  0  0  0
 11 10  1  6  0  0  0
 11 12  1  0  0  0  0
 11 16  1  0  0  0  0
 12 13  2  0  0  0  0
 12 15  1  0  0  0  0
 13 14  1  0  0  0  0
 13 23  1  0  0  0  0
 14 19  1  0  0  0  0
 14 20  2  0  0  0  0
 15 17  1  6  0  0  0
 15 18  1  0  0  0  0
 16 19  1  0  0  0  0
 18 21  2  0  0  0  0
 20 22  1  0  0  0  0
 22 24  1  0  0  0  0
 22 25  2  0  0  0  0
 23 21  1  6  0  0  0
 23 25  1  0  0  0  0
 24 26  1  0  0  0  0
M  END
$$$$

 OpenBabel10082411353D

 40 45  0  0  0  0  0  0  0  0999 V2000
   11.6836    6.0105   -4.8831 C   0  0  0  0  0  0  0  0  0  0  0  0
   11.1291    7.0732   -5.4395 C   0  0  0  0  0  0  0  0  0  0  0  0
   10.6954    7.0156   -6.8073 C   0  0  0  0  0  0  0  0  0  0  0  0
   10.2502    8.1187   -7.5536 C   0  0  2  0  0  0  0  0  0  0  0  0
   11.1205    8.4712   -4.9629 C   0  0  0  0  0  0  0  0  0  0  0  0
   10.8655    8.3511   -8.7960 C   0  0  0  0  0  0  0  0  0  0  0  0
   10.2922    7.8843   -9.9985 C   0  0  0  0  0  0  0  0  0  0  0  0
   10.4654    9.6993   -5.6120 C   0  0  0  0  0  0  0  0  0  0  0  0
   10.3510    9.5971   -7.0014 C   0  0  0  0  0  0  0  0  0  0  0  0
   12.2462    6.3351   -3.5020 C   0  0  0  0  0  0  0  0  0  0  0  0
   11.0471    7.5309  -11.1063 C   0  0  0  0  0  0  0  0  0  0  0  0
   11.7288    8.6923   -3.6518 C   0  0  0  0  0  0  0  0  0  0  0  0
   12.3991    7.7501  -11.1145 C   0  0  0  0  0  0  0  0  0  0  0  0
   12.3738    7.7580   -2.9599 C   0  0  0  0  0  0  0  0  0  0  0  0
   13.1285    8.5075  -10.1661 O   0  0  0  0  0  0  0  0  0  0  0  0
    9.0407    7.3775  -10.0973 N   0  0  0  0  0  0  0  0  0  0  0  0
    8.9787    6.9473  -11.4664 N   0  0  0  0  0  0  0  0  0  0  0  0
   13.1012    7.4459  -12.3707 C   0  0  0  0  0  0  0  0  0  0  0  0
   12.2395    6.9724  -13.2444 C   0  0  0  0  0  0  0  0  0  0  0  0
   10.2768    7.0170  -11.9799 C   0  0  0  0  0  0  0  0  0  0  0  0
   12.9237    6.5822  -14.5759 O   0  0  0  0  0  0  0  0  0  0  0  0
   10.8906    6.6526  -13.2252 C   0  0  0  0  0  0  0  0  0  0  0  0
   12.2396    6.1290  -15.6916 C   0  0  0  0  0  0  0  0  0  0  0  0
    7.8036    6.1825  -11.9342 C   0  0  0  0  0  0  0  0  0  0  0  0
   12.5015    4.7115  -15.7686 C   0  0  0  0  0  0  0  0  0  0  0  0
    7.1685    6.9992  -12.8245 C   0  0  0  0  0  0  0  0  0  0  0  0
   11.2461    3.8540  -15.4851 C   0  0  0  0  0  0  0  0  0  0  0  0
    7.6237    4.9154  -11.6529 C   0  0  0  0  0  0  0  0  0  0  0  0
    6.0177    6.2707  -13.3932 C   0  0  0  0  0  0  0  0  0  0  0  0
   10.6165    3.9039  -14.4137 C   0  0  0  0  0  0  0  0  0  0  0  0
    9.5305    2.8756  -14.1992 C   0  0  0  0  0  0  0  0  0  0  0  0
    8.7172    4.2136  -10.7843 C   0  0  0  0  0  0  0  0  0  0  0  0
    9.5147    1.8398  -14.9874 C   0  0  0  0  0  0  0  0  0  0  0  0
    6.9017    4.3047  -12.3893 C   0  0  0  0  0  0  0  0  0  0  0  0
    6.0518    4.9138  -13.1376 C   0  0  0  0  0  0  0  0  0  0  0  0
   11.2408    2.6620  -16.3292 C   0  0  0  0  0  0  0  0  0  0  0  0
    8.5074    0.8365  -14.7054 C   0  0  0  0  0  0  0  0  0  0  0  0
   10.2613    1.7423  -15.9494 C   0  0  0  0  0  0  0  0  0  0  0  0
    8.1503    0.5077  -13.5315 O   0  0  0  0  0  0  0  0  0  0  0  0
    7.9599    0.1177  -15.6851 O   0  0  0  0  0  0  0  0  0  0  0  0
  1  2  1  0  0  0  0
  1 10  2  0  0  0  0
  2  3  1  0  0  0  0
  2  5  2  0  0  0  0
  3  4  1  0  0  0  0
  4  6  1  6  0  0  0
  4  9  1  0  0  0  0
  5  8  1  0  0  0  0
  5 12  1  0  0  0  0
  6  7  1  0  0  0  0
  7 11  1  0  0  0  0
  7 16  2  0  0  0  0
  8  9  1  0  0  0  0
 10 14  1  0  0  0  0
 11 13  2  0  0  0  0
 11 20  1  0  0  0  0
 12 14  2  0  0  0  0
 13 15  1  0  0  0  0
 13 18  1  0  0  0  0
 16 17  1  0  0  0  0
 17 20  1  0  0  0  0
 17 24  1  0  0  0  0
 18 19  2  0  0  0  0
 19 21  1  0  0  0  0
 19 22  1  0  0  0  0
 20 22  2  0  0  0  0
 21 23  1  0  0  0  0
 23 25  1  0  0  0  0
 24 26  2  0  0  0  0
 24 28  1  0  0  0  0
 25 27  1  0  0  0  0
 26 29  1  0  0  0  0
 27 30  1  0  0  0  0
 27 36  2  0  0  0  0
 28 32  1  0  0  0  0
 28 34  2  0  0  0  0
 29 35  2  0  0  0  0
 30 31  2  0  0  0  0
 31 33  1  0  0  0  0
 33 37  1  0  0  0  0
 33 38  2  0  0  0  0
 34 35  1  0  0  0  0
 36 38  1  0  0  0  0
 37 39  1  0  0  0  0
 37 40  2  0  0  0  0
M  END
$$$$

 OpenBabel10082411353D

 40 45  0  0  0  0  0  0  0  0999 V2000
   11.6836    6.0105   -4.8831 C   0  0  0  0  0  0  0  0  0  0  0  0
   11.1291    7.0732   -5.4395 C   0  0  0  0  0  0  0  0  0  0  0  0
   10.6954    7.0156   -6.8073 C   0  0  0  0  0  0  0  0  0  0  0  0
   10.2502    8.1187   -7.5536 C   0  0  2  0  0  0  0  0  0  0  0  0
   11.1205    8.4712   -4.9629 C   0  0  0  0  0  0  0  0  0  0  0  0
   10.8655    8.3511   -8.7960 C   0  0  0  0  0  0  0  0  0  0  0  0
   10.2922    7.8843   -9.9985 C   0  0  0  0  0  0  0  0  0  0  0  0
   10.4654    9.6993   -5.6120 C   0  0  0  0  0  0  0  0  0  0  0  0
   10.3510    9.5971   -7.0014 C   0  0  0  0  0  0  0  0  0  0  0  0
   12.2462    6.3351   -3.5020 C   0  0  0  0  0  0  0  0  0  0  0  0
   11.0471    7.5309  -11.1063 C   0  0  0  0  0  0  0  0  0  0  0  0
   11.7288    8.6923   -3.6518 C   0  0  0  0  0  0  0  0  0  0  0  0
   12.3991    7.7501  -11.1145 C   0  0  0  0  0  0  0  0  0  0  0  0
   12.3738    7.7580   -2.9599 C   0  0  0  0  0  0  0  0  0  0  0  0
   13.1285    8.5075  -10.1661 O   0  0  0  0  0  0  0  0  0  0  0  0
    9.0407    7.3775  -10.0973 N   0  0  0  0  0  0  0  0  0  0  0  0
    8.9787    6.9473  -11.4664 N   0  0  0  0  0  0  0  0  0  0  0  0
   13.1012    7.4459  -12.3707 C   0  0  0  0  0  0  0  0  0  0  0  0
   12.2395    6.9724  -13.2444 C   0  0  0  0  0  0  0  0  0  0  0  0
   10.2768    7.0170  -11.9799 C   0  0  0  0  0  0  0  0  0  0  0  0
   12.9237    6.5822  -14.5759 O   0  0  0  0  0  0  0  0  0  0  0  0
   10.8906    6.6526  -13.2252 C   0  0  0  0  0  0  0  0  0  0  0  0
   12.2396    6.1290  -15.6916 C   0  0  0  0  0  0  0  0  0  0  0  0
    7.8036    6.1825  -11.9342 C   0  0  0  0  0  0  0  0  0  0  0  0
   12.5015    4.7115  -15.7686 C   0  0  0  0  0  0  0  0  0  0  0  0
    7.1685    6.9992  -12.8245 C   0  0  0  0  0  0  0  0  0  0  0  0
   11.2461    3.8540  -15.4851 C   0  0  0  0  0  0  0  0  0  0  0  0
    7.6237    4.9154  -11.6529 C   0  0  0  0  0  0  0  0  0  0  0  0
    6.6378    4.1960  -12.2267 C   0  0  0  0  0  0  0  0  0  0  0  0
    6.2717    2.7675  -11.9743 C   0  0  0  0  0  0  0  0  0  0  0  0
    6.6569    1.8873  -12.9460 C   0  0  2  0  0  0  0  0  0  0  0  0
    6.2393    0.5737  -12.7991 C   0  0  0  0  0  0  0  0  0  0  0  0
    5.7332    5.0094  -13.0098 C   0  0  0  0  0  0  0  0  0  0  0  0
    8.0694    1.7452  -13.2422 O   0  0  0  0  0  0  0  0  0  0  0  0
   11.4731    2.5511  -15.3619 O   0  0  0  0  0  0  0  0  0  0  0  0
   10.4833    1.8178  -15.6764 C   0  0  0  0  0  0  0  0  0  0  0  0
    8.4843    1.6759  -14.4990 C   0  0  0  0  0  0  0  0  0  0  0  0
    9.8212    1.3012  -14.5021 C   0  0  0  0  0  0  0  0  0  0  0  0
    7.4540    8.4954  -13.1749 Cl  0  0  0  0  0  0  0  0  0  0  0  0
    5.9757    6.3109  -13.4233 C   0  0  0  0  0  0  0  0  0  0  0  0
  1  2  1  0  0  0  0
  1 10  2  0  0  0  0
  2  3  1  0  0  0  0
  2  5  2  0  0  0  0
  3  4  1  0  0  0  0
  4  6  1  6  0  0  0
  4  9  1  0  0  0  0
  5  8  1  0  0  0  0
  5 12  1  0  0  0  0
  6  7  1  0  0  0  0
  7 11  1  0  0  0  0
  7 16  2  0  0  0  0
  8  9  1  0  0  0  0
 10 14  1  0  0  0  0
 11 13  2  0  0  0  0
 11 20  1  0  0  0  0
 12 14  2  0  0  0  0
 13 15  1  0  0  0  0
 13 18  1  0  0  0  0
 16 17  1  0  0  0  0
 17 20  1  0  0  0  0
 17 24  1  0  0  0  0
 18 19  2  0  0  0  0
 19 21  1  0  0  0  0
 19 22  1  0  0  0  0
 20 22  2  0  0  0  0
 21 23  1  0  0  0  0
 23 25  1  0  0  0  0
 24 26  2  0  0  0  0
 24 28  1  0  0  0  0
 25 27  1  0  0  0  0
 26 39  1  0  0  0  0
 26 40  1  0  0  0  0
 27 35  1  0  0  0  0
 28 29  2  0  0  0  0
 29 30  1  0  0  0  0
 29 33  1  0  0  0  0
 30 31  1  0  0  0  0
 31 32  1  1  0  0  0
 31 34  1  0  0  0  0
 33 40  2  0  0  0  0
 34 37  1  0  0  0  0
 35 36  1  0  0  0  0
 36 38  1  0  0  0  0
 37 38  1  0  0  0  0
M  END
$$$$

 OpenBabel10082411353D

 40 49  0  0  0  0  0  0  0  0999 V2000
    8.0806    9.0240  -12.7589 C   0  0  0  0  0  0  0  0  0  0  0  0
    8.6514    7.8645  -12.2948 C   0  0  0  0  0  0  0  0  0  0  0  0
    9.9575    7.9974  -11.8426 C   0  0  0  0  0  0  0  0  0  0  0  0
   10.7657    6.8667  -11.6050 C   0  0  1  0  0  0  0  0  0  0  0  0
   10.7682    5.9590  -12.8271 C   0  0  0  0  0  0  0  0  0  0  0  0
   12.1553    7.3846  -11.2315 C   0  0  0  0  0  0  0  0  0  0  0  0
    8.0676    6.6451  -12.2974 C   0  0  0  0  0  0  0  0  0  0  0  0
   10.1892    6.1240  -10.3860 C   0  0  0  0  0  0  0  0  0  0  0  0
   11.8375    5.4373  -13.3240 O   0  0  0  0  0  0  0  0  0  0  0  0
    8.6785    5.4761  -13.0273 C   0  0  1  0  0  0  0  0  0  0  0  0
    9.1969    5.2405  -10.4969 C   0  0  1  0  0  0  0  0  0  0  0  0
    7.2213    6.2210  -11.3074 C   0  0  1  0  0  0  0  0  0  0  0  0
   12.5590    7.6872   -9.9896 C   0  0  0  0  0  0  0  0  0  0  0  0
    9.7633    5.0333  -12.9720 C   0  0  1  0  0  0  0  0  0  0  0  0
   10.0661    4.0167  -14.0373 N   0  0  0  0  0  0  0  0  0  0  0  0
   13.6906    8.3004   -9.6233 O   0  0  0  0  0  0  0  0  0  0  0  0
    7.6357    4.5123  -12.6317 C   0  0  2  0  0  0  0  0  0  0  0  0
    6.8831    4.9171  -11.7031 C   0  0  0  0  0  0  0  0  0  0  0  0
   10.5937    6.6967   -9.1779 C   0  0  0  0  0  0  0  0  0  0  0  0
    9.5087    4.3263  -11.6925 C   0  0  2  0  0  0  0  0  0  0  0  0
   11.6359    7.4449   -8.9125 C   0  0  0  0  0  0  0  0  0  0  0  0
   11.9716    7.9159   -7.6200 C   0  0  0  0  0  0  0  0  0  0  0  0
    8.4648    3.6122  -12.2840 C   0  0  2  0  0  0  0  0  0  0  0  0
    9.3128    4.5571   -9.1689 C   0  0  0  0  0  0  0  0  0  0  0  0
   10.9557    7.6369   -6.5929 C   0  0  1  0  0  0  0  0  0  0  0  0
    9.6490    2.8108  -13.7776 C   0  0  1  0  0  0  0  0  0  0  0  0
    9.6716    6.1981   -8.0224 C   0  0  2  0  0  0  0  0  0  0  0  0
    8.5511    2.5400  -13.1402 C   0  0  0  0  0  0  0  0  0  0  0  0
    9.7877    2.0302  -15.0383 O   0  0  0  0  0  0  0  0  0  0  0  0
   10.2949    6.3957   -6.8142 C   0  0  0  0  0  0  0  0  0  0  0  0
   11.5672    7.6277   -5.2275 C   0  0  0  0  0  0  0  0  0  0  0  0
    9.0573    5.0713   -8.1077 N   0  0  0  0  0  0  0  0  0  0  0  0
    9.9816    8.7976   -6.5531 C   0  0  0  0  0  0  0  0  0  0  0  0
   11.0000    1.9397  -15.5744 C   0  0  0  0  0  0  0  0  0  0  0  0
   11.6850    6.4911   -4.5753 C   0  0  0  0  0  0  0  0  0  0  0  0
   12.3660    6.6379   -3.1994 C   0  0  0  0  0  0  0  0  0  0  0  0
    7.9281    5.6469  -10.2881 C   0  0  0  0  0  0  0  0  0  0  0  0
   12.6791    7.8086   -2.6986 C   0  0  0  0  0  0  0  0  0  0  0  0
   11.8770    8.9095   -4.6112 C   0  0  0  0  0  0  0  0  0  0  0  0
   12.4048    9.0672   -3.3622 C   0  0  0  0  0  0  0  0  0  0  0  0
  1  2  1  0  0  0  0
  2  3  1  0  0  0  0
  2  7  2  0  0  0  0
  4  3  1  6  0  0  0
  4  5  1  0  0  0  0
  4  6  1  0  0  0  0
  4  8  1  0  0  0  0
  5  9  2  0  0  0  0
  6 13  1  0  0  0  0
  7 12  1  0  0  0  0
  8 11  1  0  0  0  0
  8 19  2  0  0  0  0
 10  7  1  1  0  0  0
 10 14  1  0  0  0  0
 10 17  1  0  0  0  0
 11 20  1  0  0  0  0
 11 24  1  1  0  0  0
 11 37  1  0  0  0  0
 12 18  1  6  0  0  0
 12 37  1  0  0  0  0
 13 16  2  0  0  0  0
 13 21  1  0  0  0  0
 14  5  1  1  0  0  0
 14 15  1  0  0  0  0
 14 20  1  0  0  0  0
 15 26  1  0  0  0  0
 17 18  1  1  0  0  0
 17 23  1  0  0  0  0
 19 21  1  0  0  0  0
 19 27  1  0  0  0  0
 20 23  1  0  0  0  0
 21 22  2  0  0  0  0
 22 25  1  0  0  0  0
 23 28  1  0  0  0  0
 24 32  2  0  0  0  0
 25 30  1  0  0  0  0
 25 31  1  0  0  0  0
 25 33  1  0  0  0  0
 26 28  1  0  0  0  0
 26 29  1  0  0  0  0
 27 30  1  0  0  0  0
 27 32  1  0  0  0  0
 29 34  1  0  0  0  0
 31 35  2  0  0  0  0
 31 39  1  0  0  0  0
 35 36  1  0  0  0  0
 36 38  2  0  0  0  0
 38 40  1  0  0  0  0
 39 40  2  0  0  0  0
M  END
$$$$

 OpenBabel10082411353D

 40 45  0  0  0  0  0  0  0  0999 V2000
   11.6836    6.0105   -4.8831 F   0  0  0  0  0  0  0  0  0  0  0  0
   11.2562    7.2206   -5.0294 C   0  0  0  0  0  0  0  0  0  0  0  0
   12.0125    8.2418   -4.4408 C   0  0  0  0  0  0  0  0  0  0  0  0
   11.1918    7.2706   -6.5237 C   0  0  2  0  0  0  0  0  0  0  0  0
   11.6999    8.4488   -3.1704 F   0  0  0  0  0  0  0  0  0  0  0  0
    9.8648    7.0908   -4.5314 F   0  0  0  0  0  0  0  0  0  0  0  0
   11.6831    8.5291   -6.9682 C   0  0  1  0  0  0  0  0  0  0  0  0
   13.3042    8.0958   -4.5769 F   0  0  0  0  0  0  0  0  0  0  0  0
   10.0051    6.7877   -7.1387 C   0  0  2  0  0  0  0  0  0  0  0  0
   12.1549    9.4036   -6.0698 C   0  0  0  0  0  0  0  0  0  0  0  0
   11.7460    9.5074   -4.8672 O   0  0  0  0  0  0  0  0  0  0  0  0
   12.5684    8.5172   -7.8652 C   0  0  0  0  0  0  0  0  0  0  0  0
   10.4250    8.9412   -7.4869 C   0  0  0  0  0  0  0  0  0  0  0  0
    9.8902    5.4070   -7.8206 C   0  0  1  0  0  0  0  0  0  0  0  0
    8.7348    4.6919   -7.6168 C   0  0  0  0  0  0  0  0  0  0  0  0
    9.5887    7.8633   -8.0188 C   0  0  1  0  0  0  0  0  0  0  0  0
   10.0149    7.4671   -9.3945 C   0  0  0  0  0  0  0  0  0  0  0  0
    8.7013    3.5197   -8.2148 C   0  0  0  0  0  0  0  0  0  0  0  0
    9.3794    3.4628   -9.4166 C   0  0  0  0  0  0  0  0  0  0  0  0
    9.7670    8.0902  -10.5147 C   0  0  0  0  0  0  0  0  0  0  0  0
   10.1630    7.7248  -11.8028 C   0  0  0  0  0  0  0  0  0  0  0  0
   10.1363    4.5235   -9.8811 C   0  0  0  0  0  0  0  0  0  0  0  0
   10.2836    5.8862   -9.1314 C   0  0  2  0  0  0  0  0  0  0  0  0
    9.2642    7.6154  -12.7688 C   0  0  0  0  0  0  0  0  0  0  0  0
    9.7352    7.0429  -13.9890 C   0  0  0  0  0  0  0  0  0  0  0  0
    8.9431    5.9978  -14.4048 C   0  0  0  0  0  0  0  0  0  0  0  0
    8.0476    5.1914  -13.6918 C   0  0  0  0  0  0  0  0  0  0  0  0
    8.1490    3.7734  -13.7660 C   0  0  0  0  0  0  0  0  0  0  0  0
    7.0453    3.1418  -12.9717 C   0  0  0  0  0  0  0  0  0  0  0  0
    6.2338    3.8839  -12.1754 C   0  0  0  0  0  0  0  0  0  0  0  0
   10.8369    7.3431  -14.6932 C   0  0  0  0  0  0  0  0  0  0  0  0
    7.2107    5.8505  -12.7998 C   0  0  0  0  0  0  0  0  0  0  0  0
    5.3001    3.0920  -11.3306 F   0  0  0  0  0  0  0  0  0  0  0  0
    7.8586    7.9143  -12.4857 C   0  0  0  0  0  0  0  0  0  0  0  0
    6.3696    5.0319  -12.1370 C   0  0  0  0  0  0  0  0  0  0  0  0
    6.9659    7.0740  -12.5678 C   0  0  0  0  0  0  0  0  0  0  0  0
   11.6802    6.2859  -15.0974 C   0  0  0  0  0  0  0  0  0  0  0  0
   12.7157    6.5542  -15.7371 O   0  0  0  0  0  0  0  0  0  0  0  0
   11.2581    5.0055  -14.9301 N   0  0  0  0  0  0  0  0  0  0  0  0
   12.1684    3.8906  -14.9048 C   0  0  0  0  0  0  0  0  0  0  0  0
  1  2  1  0  0  0  0
  2  3  1  0  0  0  0
  2  6  1  0  0  0  0
  3  5  1  0  0  0  0
  3  8  1  0  0  0  0
  3 11  1  0  0  0  0
  4  2  1  1  0  0  0
  4  7  1  0  0  0  0
  4  9  1  0  0  0  0
  7 10  1  0  0  0  0
  7 12  1  6  0  0  0
  7 13  1  0  0  0  0
  9 14  1  0  0  0  0
  9 16  1  0  0  0  0
 10 11  1  0  0  0  0
 13 16  1  0  0  0  0
 14 15  1  0  0  0  0
 14 23  1  0  0  0  0
 15 18  2  0  0  0  0
 16 17  1  0  0  0  0
 17 20  2  3  0  0  0
 17 23  1  0  0  0  0
 18 19  1  0  0  0  0
 19 22  2  0  0  0  0
 20 21  1  0  0  0  0
 21 24  2  3  0  0  0
 22 23  1  0  0  0  0
 24 25  1  0  0  0  0
 24 34  1  0  0  0  0
 25 26  2  0  0  0  0
 25 31  1  0  0  0  0
 26 27  1  0  0  0  0
 27 28  2  0  0  0  0
 27 32  1  0  0  0  0
 28 29  1  0  0  0  0
 29 30  2  0  0  0  0
 30 33  1  0  0  0  0
 30 35  1  0  0  0  0
 31 37  1  0  0  0  0
 32 35  2  0  0  0  0
 32 36  1  0  0  0  0
 34 36  1  0  0  0  0
 37 38  2  0  0  0  0
 37 39  1  0  0  0  0
 39 40  1  0  0  0  0
M  END
$$$$

 OpenBabel10082411353D

 40 45  0  0  0  0  0  0  0  0999 V2000
   11.6836    6.0105   -4.8831 C   0  0  0  0  0  0  0  0  0  0  0  0
   11.1291    7.0732   -5.4395 C   0  0  0  0  0  0  0  0  0  0  0  0
   10.6954    7.0156   -6.8073 C   0  0  0  0  0  0  0  0  0  0  0  0
   10.2502    8.1187   -7.5536 C   0  0  2  0  0  0  0  0  0  0  0  0
   11.1205    8.4712   -4.9629 C   0  0  0  0  0  0  0  0  0  0  0  0
   10.8655    8.3511   -8.7960 C   0  0  0  0  0  0  0  0  0  0  0  0
   10.2922    7.8843   -9.9985 C   0  0  0  0  0  0  0  0  0  0  0  0
   10.4654    9.6993   -5.6120 C   0  0  0  0  0  0  0  0  0  0  0  0
   10.3510    9.5971   -7.0014 C   0  0  0  0  0  0  0  0  0  0  0  0
   12.2462    6.3351   -3.5020 C   0  0  0  0  0  0  0  0  0  0  0  0
   11.0471    7.5309  -11.1063 C   0  0  0  0  0  0  0  0  0  0  0  0
   11.7288    8.6923   -3.6518 C   0  0  0  0  0  0  0  0  0  0  0  0
   12.3991    7.7501  -11.1145 C   0  0  0  0  0  0  0  0  0  0  0  0
   12.3738    7.7580   -2.9599 C   0  0  0  0  0  0  0  0  0  0  0  0
   13.1285    8.5075  -10.1661 O   0  0  0  0  0  0  0  0  0  0  0  0
    9.0407    7.3775  -10.0973 N   0  0  0  0  0  0  0  0  0  0  0  0
    8.9787    6.9473  -11.4664 N   0  0  0  0  0  0  0  0  0  0  0  0
   13.1012    7.4459  -12.3707 C   0  0  0  0  0  0  0  0  0  0  0  0
   12.2395    6.9724  -13.2444 C   0  0  0  0  0  0  0  0  0  0  0  0
   10.2768    7.0170  -11.9799 C   0  0  0  0  0  0  0  0  0  0  0  0
   12.9237    6.5822  -14.5759 O   0  0  0  0  0  0  0  0  0  0  0  0
   10.8906    6.6526  -13.2252 C   0  0  0  0  0  0  0  0  0  0  0  0
   12.2396    6.1290  -15.6916 C   0  0  0  0  0  0  0  0  0  0  0  0
    7.8036    6.1825  -11.9342 C   0  0  0  0  0  0  0  0  0  0  0  0
   12.5015    4.7115  -15.7686 C   0  0  0  0  0  0  0  0  0  0  0  0
    7.1685    6.9992  -12.8245 C   0  0  0  0  0  0  0  0  0  0  0  0
   11.2461    3.8540  -15.4851 C   0  0  0  0  0  0  0  0  0  0  0  0
    7.6237    4.9154  -11.6529 C   0  0  0  0  0  0  0  0  0  0  0  0
    6.6378    4.1960  -12.2267 C   0  0  0  0  0  0  0  0  0  0  0  0
    6.2717    2.7675  -11.9743 C   0  0  0  0  0  0  0  0  0  0  0  0
    6.6569    1.8873  -12.9460 C   0  0  0  0  0  0  0  0  0  0  0  0
    6.2393    0.5737  -12.7991 C   0  0  0  0  0  0  0  0  0  0  0  0
    5.7332    5.0094  -13.0098 C   0  0  0  0  0  0  0  0  0  0  0  0
   11.4513    2.5769  -15.3310 O   0  0  0  0  0  0  0  0  0  0  0  0
    5.8943    6.2717  -13.4084 C   0  0  0  0  0  0  0  0  0  0  0  0
   10.1835    4.4428  -14.8841 O   0  0  0  0  0  0  0  0  0  0  0  0
    7.5951    2.1886  -13.9495 C   0  0  0  0  0  0  0  0  0  0  0  0
    6.6822   -0.4124  -13.7002 C   0  0  0  0  0  0  0  0  0  0  0  0
    8.0819    1.1881  -14.7612 C   0  0  0  0  0  0  0  0  0  0  0  0
    7.6291   -0.1168  -14.6258 C   0  0  0  0  0  0  0  0  0  0  0  0
  1  2  1  0  0  0  0
  1 10  2  0  0  0  0
  2  3  1  0  0  0  0
  2  5  2  0  0  0  0
  3  4  1  0  0  0  0
  4  6  1  6  0  0  0
  4  9  1  0  0  0  0
  5  8  1  0  0  0  0
  5 12  1  0  0  0  0
  6  7  1  0  0  0  0
  7 11  1  0  0  0  0
  7 16  2  0  0  0  0
  8  9  1  0  0  0  0
 10 14  1  0  0  0  0
 11 13  2  0  0  0  0
 11 20  1  0  0  0  0
 12 14  2  0  0  0  0
 13 15  1  0  0  0  0
 13 18  1  0  0  0  0
 16 17  1  0  0  0  0
 17 20  1  0  0  0  0
 17 24  1  0  0  0  0
 18 19  2  0  0  0  0
 19 21  1  0  0  0  0
 19 22  1  0  0  0  0
 20 22  2  0  0  0  0
 21 23  1  0  0  0  0
 23 25  1  0  0  0  0
 24 26  2  0  0  0  0
 24 28  1  0  0  0  0
 25 27  1  0  0  0  0
 26 35  1  0  0  0  0
 27 34  2  0  0  0  0
 27 36  1  0  0  0  0
 28 29  2  0  0  0  0
 29 30  1  0  0  0  0
 29 33  1  0  0  0  0
 30 31  1  0  0  0  0
 31 32  1  0  0  0  0
 31 37  2  0  0  0  0
 32 38  2  0  0  0  0
 33 35  2  0  0  0  0
 37 39  1  0  0  0  0
 38 40  1  0  0  0  0
 39 40  2  0  0  0  0
M  END
$$$$

 OpenBabel10082411353D

 40 48  0  0  0  0  0  0  0  0999 V2000
    8.0806    9.0240  -12.7589 C   0  0  0  0  0  0  0  0  0  0  0  0
    8.6514    7.8645  -12.2948 C   0  0  0  0  0  0  0  0  0  0  0  0
    9.9575    7.9974  -11.8426 C   0  0  0  0  0  0  0  0  0  0  0  0
   10.7657    6.8667  -11.6050 C   0  0  1  0  0  0  0  0  0  0  0  0
   10.7682    5.9590  -12.8271 C   0  0  0  0  0  0  0  0  0  0  0  0
   12.1553    7.3846  -11.2315 C   0  0  0  0  0  0  0  0  0  0  0  0
    8.0676    6.6451  -12.2974 C   0  0  0  0  0  0  0  0  0  0  0  0
   10.1892    6.1240  -10.3860 C   0  0  0  0  0  0  0  0  0  0  0  0
   11.8375    5.4373  -13.3240 O   0  0  0  0  0  0  0  0  0  0  0  0
    8.6785    5.4761  -13.0273 C   0  0  1  0  0  0  0  0  0  0  0  0
    9.1969    5.2405  -10.4969 C   0  0  1  0  0  0  0  0  0  0  0  0
    7.2213    6.2210  -11.3074 C   0  0  0  0  0  0  0  0  0  0  0  0
   12.5590    7.6872   -9.9896 C   0  0  0  0  0  0  0  0  0  0  0  0
    9.7633    5.0333  -12.9720 C   0  0  1  0  0  0  0  0  0  0  0  0
   10.0661    4.0167  -14.0373 N   0  0  0  0  0  0  0  0  0  0  0  0
   13.6906    8.3004   -9.6233 O   0  0  0  0  0  0  0  0  0  0  0  0
    7.6357    4.5123  -12.6317 C   0  0  2  0  0  0  0  0  0  0  0  0
    6.8831    4.9171  -11.7031 C   0  0  0  0  0  0  0  0  0  0  0  0
   10.5937    6.6967   -9.1779 C   0  0  0  0  0  0  0  0  0  0  0  0
    9.5087    4.3263  -11.6925 C   0  0  2  0  0  0  0  0  0  0  0  0
   11.6359    7.4449   -8.9125 C   0  0  0  0  0  0  0  0  0  0  0  0
   11.9716    7.9159   -7.6200 C   0  0  0  0  0  0  0  0  0  0  0  0
    8.4648    3.6122  -12.2840 C   0  0  2  0  0  0  0  0  0  0  0  0
    9.3128    4.5571   -9.1689 C   0  0  0  0  0  0  0  0  0  0  0  0
   10.9557    7.6369   -6.5929 C   0  0  1  0  0  0  0  0  0  0  0  0
    9.6490    2.8108  -13.7776 C   0  0  1  0  0  0  0  0  0  0  0  0
    9.6716    6.1981   -8.0224 C   0  0  2  0  0  0  0  0  0  0  0  0
    8.5511    2.5400  -13.1402 C   0  0  0  0  0  0  0  0  0  0  0  0
    9.7877    2.0302  -15.0383 O   0  0  0  0  0  0  0  0  0  0  0  0
   10.2949    6.3957   -6.8142 C   0  0  0  0  0  0  0  0  0  0  0  0
   11.5672    7.6277   -5.2275 C   0  0  0  0  0  0  0  0  0  0  0  0
    9.9257    8.9082   -6.5228 C   0  0  0  0  0  0  0  0  0  0  0  0
    8.7436    3.1868   -9.1768 O   0  0  0  0  0  0  0  0  0  0  0  0
    9.2453    4.8876   -8.0562 C   0  0  0  0  0  0  0  0  0  0  0  0
   11.6951    6.3147   -4.7202 C   0  0  0  0  0  0  0  0  0  0  0  0
   12.0146    8.7257   -4.5097 C   0  0  0  0  0  0  0  0  0  0  0  0
   11.8117   10.2491   -5.0886 C   0  0  0  0  0  0  0  0  0  0  0  0
   12.4918    8.7635   -3.0640 C   0  0  0  0  0  0  0  0  0  0  0  0
   12.1548    6.3293   -3.3946 C   0  0  0  0  0  0  0  0  0  0  0  0
   12.5505    7.4488   -2.5760 C   0  0  0  0  0  0  0  0  0  0  0  0
  1  2  1  0  0  0  0
  2  3  1  0  0  0  0
  2  7  2  0  0  0  0
  4  3  1  6  0  0  0
  4  5  1  0  0  0  0
  4  6  1  0  0  0  0
  4  8  1  0  0  0  0
  5  9  2  0  0  0  0
  6 13  1  0  0  0  0
  7 12  1  0  0  0  0
  8 19  2  0  0  0  0
 10  7  1  1  0  0  0
 10 14  1  0  0  0  0
 10 17  1  0  0  0  0
 11  8  1  1  0  0  0
 11 20  1  0  0  0  0
 11 24  1  0  0  0  0
 12 18  1  0  0  0  0
 13 16  2  0  0  0  0
 13 21  1  0  0  0  0
 14  5  1  1  0  0  0
 14 15  1  0  0  0  0
 14 20  1  0  0  0  0
 15 26  1  0  0  0  0
 17 18  1  1  0  0  0
 17 23  1  0  0  0  0
 19 21  1  0  0  0  0
 19 27  1  0  0  0  0
 20 23  1  0  0  0  0
 21 22  2  0  0  0  0
 22 25  1  0  0  0  0
 23 28  1  0  0  0  0
 24 33  2  0  0  0  0
 24 34  1  0  0  0  0
 25 30  1  0  0  0  0
 25 31  1  0  0  0  0
 25 32  1  0  0  0  0
 26 28  1  0  0  0  0
 26 29  1  0  0  0  0
 27 30  1  0  0  0  0
 27 34  1  0  0  0  0
 31 35  1  0  0  0  0
 31 36  2  0  0  0  0
 35 39  2  0  0  0  0
 36 37  1  0  0  0  0
 36 38  1  0  0  0  0
 38 40  2  0  0  0  0
 39 40  1  0  0  0  0
M  END
$$$$

 OpenBabel10082411353D

 40 49  0  0  0  0  0  0  0  0999 V2000
    8.0806    9.0240  -12.7589 C   0  0  0  0  0  0  0  0  0  0  0  0
    8.6514    7.8645  -12.2948 C   0  0  0  0  0  0  0  0  0  0  0  0
    9.9575    7.9974  -11.8426 C   0  0  0  0  0  0  0  0  0  0  0  0
   10.7657    6.8667  -11.6050 C   0  0  1  0  0  0  0  0  0  0  0  0
   10.7682    5.9590  -12.8271 C   0  0  0  0  0  0  0  0  0  0  0  0
   12.1553    7.3846  -11.2315 C   0  0  0  0  0  0  0  0  0  0  0  0
    8.0676    6.6451  -12.2974 C   0  0  0  0  0  0  0  0  0  0  0  0
   10.1892    6.1240  -10.3860 C   0  0  0  0  0  0  0  0  0  0  0  0
   11.8375    5.4373  -13.3240 O   0  0  0  0  0  0  0  0  0  0  0  0
    8.6785    5.4761  -13.0273 C   0  0  1  0  0  0  0  0  0  0  0  0
    9.1969    5.2405  -10.4969 C   0  0  1  0  0  0  0  0  0  0  0  0
    7.2213    6.2210  -11.3074 C   0  0  1  0  0  0  0  0  0  0  0  0
   12.5590    7.6872   -9.9896 C   0  0  0  0  0  0  0  0  0  0  0  0
    9.7633    5.0333  -12.9720 C   0  0  1  0  0  0  0  0  0  0  0  0
   10.0661    4.0167  -14.0373 N   0  0  0  0  0  0  0  0  0  0  0  0
   13.6906    8.3004   -9.6233 O   0  0  0  0  0  0  0  0  0  0  0  0
    7.6357    4.5123  -12.6317 C   0  0  2  0  0  0  0  0  0  0  0  0
    6.8831    4.9171  -11.7031 C   0  0  1  0  0  0  0  0  0  0  0  0
   10.5937    6.6967   -9.1779 C   0  0  0  0  0  0  0  0  0  0  0  0
    9.5087    4.3263  -11.6925 C   0  0  2  0  0  0  0  0  0  0  0  0
   11.6359    7.4449   -8.9125 C   0  0  0  0  0  0  0  0  0  0  0  0
   11.9716    7.9159   -7.6200 C   0  0  0  0  0  0  0  0  0  0  0  0
    8.4648    3.6122  -12.2840 C   0  0  2  0  0  0  0  0  0  0  0  0
    9.3128    4.5571   -9.1689 C   0  0  0  0  0  0  0  0  0  0  0  0
   10.9557    7.6369   -6.5929 C   0  0  1  0  0  0  0  0  0  0  0  0
    9.6490    2.8108  -13.7776 C   0  0  1  0  0  0  0  0  0  0  0  0
    9.6716    6.1981   -8.0224 C   0  0  2  0  0  0  0  0  0  0  0  0
    8.5511    2.5400  -13.1402 C   0  0  0  0  0  0  0  0  0  0  0  0
    9.7877    2.0302  -15.0383 O   0  0  0  0  0  0  0  0  0  0  0  0
   10.2949    6.3957   -6.8142 C   0  0  0  0  0  0  0  0  0  0  0  0
   11.5672    7.6277   -5.2275 C   0  0  1  0  0  0  0  0  0  0  0  0
    9.0573    5.0713   -8.1077 N   0  0  0  0  0  0  0  0  0  0  0  0
    9.9816    8.7976   -6.5531 C   0  0  0  0  0  0  0  0  0  0  0  0
   11.0000    1.9397  -15.5744 C   0  0  0  0  0  0  0  0  0  0  0  0
    7.9363    5.6537  -10.4961 C   0  0  1  0  0  0  0  0  0  0  0  0
   12.0307    8.8848   -4.6652 C   0  0  0  0  0  0  0  0  0  0  0  0
   10.9126    7.0320   -4.1481 C   0  0  0  0  0  0  0  0  0  0  0  0
   12.3132    9.8861   -5.4591 F   0  0  0  0  0  0  0  0  0  0  0  0
   11.4125    9.3471   -3.5922 F   0  0  0  0  0  0  0  0  0  0  0  0
   13.3027    8.6425   -3.9460 F   0  0  0  0  0  0  0  0  0  0  0  0
  1  2  1  0  0  0  0
  2  3  1  0  0  0  0
  2  7  2  0  0  0  0
  4  3  1  6  0  0  0
  4  5  1  0  0  0  0
  4  6  1  0  0  0  0
  4  8  1  0  0  0  0
  5  9  2  0  0  0  0
  6 13  1  0  0  0  0
  8 11  1  0  0  0  0
  8 19  2  0  0  0  0
 10  7  1  1  0  0  0
 10 14  1  0  0  0  0
 10 17  1  0  0  0  0
 11 20  1  0  0  0  0
 11 24  1  1  0  0  0
 11 35  1  0  0  0  0
 12  7  1  6  0  0  0
 12 18  1  0  0  0  0
 12 35  1  0  0  0  0
 13 16  2  0  0  0  0
 13 21  1  0  0  0  0
 14  5  1  1  0  0  0
 14 15  1  0  0  0  0
 14 20  1  0  0  0  0
 15 26  1  0  0  0  0
 17 18  1  0  0  0  0
 17 23  1  0  0  0  0
 18 35  1  0  0  0  0
 19 21  1  0  0  0  0
 19 27  1  0  0  0  0
 20 23  1  0  0  0  0
 21 22  2  0  0  0  0
 22 25  1  0  0  0  0
 23 28  1  0  0  0  0
 24 32  2  0  0  0  0
 25 30  1  0  0  0  0
 25 31  1  0  0  0  0
 25 33  1  0  0  0  0
 26 28  1  0  0  0  0
 26 29  1  0  0  0  0
 27 30  1  0  0  0  0
 27 32  1  0  0  0  0
 29 34  1  0  0  0  0
 31 36  1  0  0  0  0
 31 37  1  0  0  0  0
 36 38  1  0  0  0  0
 36 39  1  0  0  0  0
 36 40  1  0  0  0  0
M  END
$$$$

 OpenBabel10082411353D

 40 45  0  0  0  0  0  0  0  0999 V2000
   11.6836    6.0105   -4.8831 F   0  0  0  0  0  0  0  0  0  0  0  0
   11.2562    7.2206   -5.0294 C   0  0  0  0  0  0  0  0  0  0  0  0
   12.0125    8.2418   -4.4408 C   0  0  0  0  0  0  0  0  0  0  0  0
   11.1918    7.2706   -6.5237 C   0  0  0  0  0  0  0  0  0  0  0  0
   11.6999    8.4488   -3.1704 F   0  0  0  0  0  0  0  0  0  0  0  0
    9.8648    7.0908   -4.5314 F   0  0  0  0  0  0  0  0  0  0  0  0
   11.6831    8.5291   -6.9682 C   0  0  0  0  0  0  0  0  0  0  0  0
   10.4785    6.5189   -7.4033 C   0  0  0  0  0  0  0  0  0  0  0  0
   11.6979    8.6661   -8.4760 C   0  0  0  0  0  0  0  0  0  0  0  0
   11.6248    9.5853   -5.0030 C   0  0  0  0  0  0  0  0  0  0  0  0
   11.8604    9.7907   -6.2903 O   0  0  0  0  0  0  0  0  0  0  0  0
   13.3557    8.1748   -4.5947 F   0  0  0  0  0  0  0  0  0  0  0  0
   10.5427    6.6061   -8.7190 C   0  0  0  0  0  0  0  0  0  0  0  0
   11.1158    7.7103   -9.2540 C   0  0  0  0  0  0  0  0  0  0  0  0
   11.3757    7.6656  -10.5293 N   0  0  0  0  0  0  0  0  0  0  0  0
   10.7153    7.7096  -11.5405 C   0  0  0  0  0  0  0  0  0  0  0  0
   11.2483    7.4711  -12.8542 C   0  0  0  0  0  0  0  0  0  0  0  0
    9.3980    7.7820  -11.5398 C   0  0  0  0  0  0  0  0  0  0  0  0
    8.6055    7.5889  -12.6525 C   0  0  0  0  0  0  0  0  0  0  0  0
   12.7508    7.3705  -13.0162 O   0  0  0  0  0  0  0  0  0  0  0  0
   10.5299    7.1831  -13.9856 C   0  0  0  0  0  0  0  0  0  0  0  0
    7.0533    7.7371  -12.5396 C   0  0  0  0  0  0  0  0  0  0  0  0
   11.2041    6.8490  -15.2304 C   0  0  0  0  0  0  0  0  0  0  0  0
   11.6393    5.5333  -15.3864 C   0  0  0  0  0  0  0  0  0  0  0  0
    9.1955    7.2935  -13.8301 C   0  0  0  0  0  0  0  0  0  0  0  0
   12.5294    5.1116  -16.1609 C   0  0  0  0  0  0  0  0  0  0  0  0
   11.2315    4.4703  -14.3200 C   0  0  0  0  0  0  0  0  0  0  0  0
   10.2844    4.5821  -13.3000 C   0  0  0  0  0  0  0  0  0  0  0  0
   11.6270    3.1866  -14.6052 C   0  0  0  0  0  0  0  0  0  0  0  0
    9.0868    3.8289  -13.3080 C   0  0  0  0  0  0  0  0  0  0  0  0
    8.1007    4.0948  -12.4103 C   0  0  0  0  0  0  0  0  0  0  0  0
    6.8410    3.6347  -12.6829 C   0  0  0  0  0  0  0  0  0  0  0  0
    6.7154    2.6437  -13.7684 C   0  0  0  0  0  0  0  0  0  0  0  0
   11.0823    2.0862  -13.7648 C   0  0  0  0  0  0  0  0  0  0  0  0
   12.4114    2.9184  -15.6196 C   0  0  0  0  0  0  0  0  0  0  0  0
    7.7737    2.1533  -14.3623 C   0  0  0  0  0  0  0  0  0  0  0  0
    9.0828    2.6814  -14.0389 C   0  0  2  0  0  0  0  0  0  0  0  0
   12.9314    6.1800  -17.0811 O   0  0  0  0  0  0  0  0  0  0  0  0
   10.0163    1.7533  -13.9135 C   0  0  0  0  0  0  0  0  0  0  0  0
   12.8571    3.8944  -16.4352 C   0  0  0  0  0  0  0  0  0  0  0  0
  1  2  1  0  0  0  0
  2  3  1  0  0  0  0
  2  4  1  0  0  0  0
  2  6  1  0  0  0  0
  3  5  1  0  0  0  0
  3 10  1  0  0  0  0
  3 12  1  0  0  0  0
  4  7  1  0  0  0  0
  4  8  2  0  0  0  0
  7  9  2  0  0  0  0
  7 11  1  0  0  0  0
  8 13  1  0  0  0  0
  9 14  1  0  0  0  0
 10 11  1  0  0  0  0
 13 14  2  0  0  0  0
 14 15  1  0  0  0  0
 15 16  1  0  0  0  0
 16 17  1  0  0  0  0
 16 18  2  0  0  0  0
 17 20  1  0  0  0  0
 17 21  2  0  0  0  0
 18 19  1  0  0  0  0
 19 22  1  0  0  0  0
 19 25  2  0  0  0  0
 21 23  1  0  0  0  0
 21 25  1  0  0  0  0
 23 24  1  0  0  0  0
 24 26  2  0  0  0  0
 24 27  1  0  0  0  0
 26 38  1  0  0  0  0
 26 40  1  0  0  0  0
 27 28  1  0  0  0  0
 27 29  2  0  0  0  0
 28 30  2  0  0  0  0
 29 34  1  0  0  0  0
 29 35  1  0  0  0  0
 30 31  1  0  0  0  0
 30 37  1  0  0  0  0
 31 32  2  0  0  0  0
 32 33  1  0  0  0  0
 33 36  2  0  0  0  0
 34 39  1  0  0  0  0
 35 40  2  0  0  0  0
 37 36  1  1  0  0  0
 37 39  1  0  0  0  0
M  END
$$$$

 OpenBabel10082411353D

 40 45  0  0  0  0  0  0  0  0999 V2000
   10.9951    9.9694   -4.9946 C   0  0  0  0  0  0  0  0  0  0  0  0
   11.7938    9.3762   -4.2463 C   0  0  0  0  0  0  0  0  0  0  0  0
   10.8673    9.4548   -6.4276 C   0  0  0  0  0  0  0  0  0  0  0  0
   11.6576    7.9117   -4.2944 C   0  0  0  0  0  0  0  0  0  0  0  0
   10.5498    8.0257   -6.4521 C   0  0  0  0  0  0  0  0  0  0  0  0
   11.4715    7.2752   -5.6166 C   0  0  0  0  0  0  0  0  0  0  0  0
   10.5840    7.5390   -7.9254 C   0  0  0  0  0  0  0  0  0  0  0  0
   11.4612    8.1494   -8.8322 C   0  0  0  0  0  0  0  0  0  0  0  0
   12.6250    8.6294   -8.4338 O   0  0  0  0  0  0  0  0  0  0  0  0
   11.0835    8.4395  -10.0740 O   0  0  0  0  0  0  0  0  0  0  0  0
   11.2938    7.5612  -11.0769 C   0  0  0  0  0  0  0  0  0  0  0  0
   10.1547    7.2525  -11.9492 C   0  0  0  0  0  0  0  0  0  0  0  0
   10.4293    6.5622  -13.1348 C   0  0  0  0  0  0  0  0  0  0  0  0
   11.7295    6.4217  -13.6243 C   0  0  0  0  0  0  0  0  0  0  0  0
    8.8120    7.3918  -11.4649 C   0  0  0  0  0  0  0  0  0  0  0  0
   12.5351    7.8894  -11.6869 C   0  0  0  0  0  0  0  0  0  0  0  0
   13.5778    8.4243  -10.9673 O   0  0  0  0  0  0  0  0  0  0  0  0
    7.7211    7.1761  -12.4323 C   0  0  0  0  0  0  0  0  0  0  0  0
   12.8103    7.0723  -12.8897 C   0  0  0  0  0  0  0  0  0  0  0  0
    7.0543    5.9667  -12.3369 C   0  0  0  0  0  0  0  0  0  0  0  0
    7.2392    8.1844  -13.1320 C   0  0  0  0  0  0  0  0  0  0  0  0
    6.6882    5.3848  -13.5016 O   0  0  0  0  0  0  0  0  0  0  0  0
    6.5103    5.5543  -11.3870 O   0  0  0  0  0  0  0  0  0  0  0  0
    7.4031    4.0506  -13.7852 C   0  0  0  0  0  0  0  0  0  0  0  0
    8.6811    3.9966  -14.1333 C   0  0  0  0  0  0  0  0  0  0  0  0
   12.0732    5.6649  -14.9357 C   0  0  0  0  0  0  0  0  0  0  0  0
    6.5842    3.0104  -13.4449 C   0  0  0  0  0  0  0  0  0  0  0  0
   12.1810    6.3505  -15.9550 C   0  0  0  0  0  0  0  0  0  0  0  0
   12.4422    5.6328  -17.1718 C   0  0  0  0  0  0  0  0  0  0  0  0
    5.1615    3.1639  -12.9487 C   0  0  0  0  0  0  0  0  0  0  0  0
   12.4897    4.2439  -17.0738 C   0  0  0  0  0  0  0  0  0  0  0  0
    7.2322    1.7149  -13.5830 C   0  0  0  0  0  0  0  0  0  0  0  0
   12.1774    3.5293  -15.9456 C   0  0  0  0  0  0  0  0  0  0  0  0
    6.3950    0.6096  -13.2209 C   0  0  0  0  0  0  0  0  0  0  0  0
    9.2444    2.7569  -14.2504 C   0  0  0  0  0  0  0  0  0  0  0  0
   10.6485    2.6215  -14.7014 N   0  0  0  0  0  0  0  0  0  0  0  0
   11.8510    4.2990  -14.8237 C   0  0  0  0  0  0  0  0  0  0  0  0
    8.5598    1.5412  -13.8859 C   0  0  0  0  0  0  0  0  0  0  0  0
   11.6573    2.3908  -15.7167 N   0  0  0  0  0  0  0  0  0  0  0  0
   11.6114    3.5188  -13.6631 C   0  0  0  0  0  0  0  0  0  0  0  0
  1  2  1  0  0  0  0
  1  3  1  0  0  0  0
  2  4  1  0  0  0  0
  3  5  1  0  0  0  0
  4  6  1  0  0  0  0
  5  6  1  0  0  0  0
  5  7  1  0  0  0  0
  7  8  1  0  0  0  0
  8  9  2  0  0  0  0
  8 10  1  0  0  0  0
 10 11  1  0  0  0  0
 11 12  1  0  0  0  0
 11 16  2  0  0  0  0
 12 13  2  0  0  0  0
 12 15  1  0  0  0  0
 13 14  1  0  0  0  0
 14 19  2  0  0  0  0
 14 26  1  0  0  0  0
 15 18  1  0  0  0  0
 16 17  1  0  0  0  0
 16 19  1  0  0  0  0
 18 20  1  0  0  0  0
 18 21  2  0  0  0  0
 20 22  1  0  0  0  0
 20 23  2  0  0  0  0
 22 24  1  0  0  0  0
 24 25  1  0  0  0  0
 24 27  2  0  0  0  0
 25 35  2  0  0  0  0
 26 28  2  0  0  0  0
 26 37  1  0  0  0  0
 27 30  1  0  0  0  0
 27 32  1  0  0  0  0
 28 29  1  0  0  0  0
 29 31  2  0  0  0  0
 31 33  1  0  0  0  0
 32 34  1  0  0  0  0
 32 38  2  0  0  0  0
 33 37  2  0  0  0  0
 33 39  1  0  0  0  0
 35 36  1  0  0  0  0
 35 38  1  0  0  0  0
 36 39  1  0  0  0  0
 36 40  1  0  0  0  0
 37 40  1  0  0  0  0
M  END
$$$$

 OpenBabel10082411353D

 40 45  0  0  0  0  0  0  0  0999 V2000
   11.6836    6.0105   -4.8831 C   0  0  0  0  0  0  0  0  0  0  0  0
   11.1291    7.0732   -5.4395 C   0  0  0  0  0  0  0  0  0  0  0  0
   10.6954    7.0156   -6.8073 C   0  0  0  0  0  0  0  0  0  0  0  0
   10.2502    8.1187   -7.5536 C   0  0  2  0  0  0  0  0  0  0  0  0
   11.1205    8.4712   -4.9629 C   0  0  0  0  0  0  0  0  0  0  0  0
   10.8655    8.3511   -8.7960 C   0  0  0  0  0  0  0  0  0  0  0  0
   10.2922    7.8843   -9.9985 C   0  0  0  0  0  0  0  0  0  0  0  0
   10.4654    9.6993   -5.6120 C   0  0  0  0  0  0  0  0  0  0  0  0
   10.3510    9.5971   -7.0014 C   0  0  0  0  0  0  0  0  0  0  0  0
   12.2462    6.3351   -3.5020 C   0  0  0  0  0  0  0  0  0  0  0  0
   11.0471    7.5309  -11.1063 C   0  0  0  0  0  0  0  0  0  0  0  0
   11.7288    8.6923   -3.6518 C   0  0  0  0  0  0  0  0  0  0  0  0
   12.3991    7.7501  -11.1145 C   0  0  0  0  0  0  0  0  0  0  0  0
   12.3738    7.7580   -2.9599 C   0  0  0  0  0  0  0  0  0  0  0  0
   13.1285    8.5075  -10.1661 O   0  0  0  0  0  0  0  0  0  0  0  0
    9.0407    7.3775  -10.0973 N   0  0  0  0  0  0  0  0  0  0  0  0
    8.9787    6.9473  -11.4664 N   0  0  0  0  0  0  0  0  0  0  0  0
   13.1012    7.4459  -12.3707 C   0  0  0  0  0  0  0  0  0  0  0  0
   12.2395    6.9724  -13.2444 C   0  0  0  0  0  0  0  0  0  0  0  0
   10.2768    7.0170  -11.9799 C   0  0  0  0  0  0  0  0  0  0  0  0
   12.9237    6.5822  -14.5759 O   0  0  0  0  0  0  0  0  0  0  0  0
   10.8906    6.6526  -13.2252 C   0  0  0  0  0  0  0  0  0  0  0  0
   12.2396    6.1290  -15.6916 C   0  0  0  0  0  0  0  0  0  0  0  0
    7.8036    6.1825  -11.9342 C   0  0  0  0  0  0  0  0  0  0  0  0
   12.5015    4.7115  -15.7686 C   0  0  0  0  0  0  0  0  0  0  0  0
    7.1685    6.9992  -12.8245 C   0  0  0  0  0  0  0  0  0  0  0  0
   11.2461    3.8540  -15.4851 C   0  0  0  0  0  0  0  0  0  0  0  0
    7.6237    4.9154  -11.6529 C   0  0  0  0  0  0  0  0  0  0  0  0
    6.6378    4.1960  -12.2267 C   0  0  0  0  0  0  0  0  0  0  0  0
    6.2717    2.7675  -11.9743 C   0  0  0  0  0  0  0  0  0  0  0  0
    6.6569    1.8873  -12.9460 C   0  0  0  0  0  0  0  0  0  0  0  0
    7.3895    8.4597  -13.1785 C   0  0  0  0  0  0  0  0  0  0  0  0
    6.3114    0.5653  -12.7247 C   0  0  0  0  0  0  0  0  0  0  0  0
    7.7684    2.0327  -13.9055 C   0  0  1  0  0  0  0  0  0  0  0  0
    6.9387   -0.3720  -13.7691 C   0  0  0  0  0  0  0  0  0  0  0  0
    8.4223    3.3339  -14.0264 C   0  0  0  0  0  0  0  0  0  0  0  0
    9.9233    3.2491  -14.0383 C   0  0  0  0  0  0  0  0  0  0  0  0
   10.7554    4.1043  -14.1438 O   0  0  0  0  0  0  0  0  0  0  0  0
    7.9516    0.4728  -14.5580 C   0  0  0  0  0  0  0  0  0  0  0  0
   10.5310    2.0691  -13.9036 O   0  0  0  0  0  0  0  0  0  0  0  0
  1  2  1  0  0  0  0
  1 10  2  0  0  0  0
  2  3  1  0  0  0  0
  2  5  2  0  0  0  0
  3  4  1  0  0  0  0
  4  6  1  6  0  0  0
  4  9  1  0  0  0  0
  5  8  1  0  0  0  0
  5 12  1  0  0  0  0
  6  7  1  0  0  0  0
  7 11  1  0  0  0  0
  7 16  2  0  0  0  0
  8  9  1  0  0  0  0
 10 14  1  0  0  0  0
 11 13  2  0  0  0  0
 11 20  1  0  0  0  0
 12 14  2  0  0  0  0
 13 15  1  0  0  0  0
 13 18  1  0  0  0  0
 16 17  1  0  0  0  0
 17 20  1  0  0  0  0
 17 24  1  0  0  0  0
 18 19  2  0  0  0  0
 19 21  1  0  0  0  0
 19 22  1  0  0  0  0
 20 22  2  0  0  0  0
 21 23  1  0  0  0  0
 23 25  1  0  0  0  0
 24 26  2  3  0  0  0
 24 28  1  0  0  0  0
 25 27  1  0  0  0  0
 26 32  1  0  0  0  0
 27 38  1  0  0  0  0
 28 29  2  0  0  0  0
 29 30  1  0  0  0  0
 30 31  1  0  0  0  0
 31 33  2  0  0  0  0
 31 34  1  0  0  0  0
 33 35  1  0  0  0  0
 34 36  1  1  0  0  0
 34 39  1  0  0  0  0
 35 39  1  0  0  0  0
 36 37  1  0  0  0  0
 37 38  1  0  0  0  0
 37 40  2  0  0  0  0
M  END
$$$$

 OpenBabel10082411353D

 26 29  0  0  0  0  0  0  0  0999 V2000
   11.6836    6.0105   -4.8831 F   0  0  0  0  0  0  0  0  0  0  0  0
   11.2562    7.2206   -5.0294 C   0  0  0  0  0  0  0  0  0  0  0  0
   12.0125    8.2418   -4.4408 C   0  0  0  0  0  0  0  0  0  0  0  0
   11.1918    7.2706   -6.5237 C   0  0  2  0  0  0  0  0  0  0  0  0
   11.6999    8.4488   -3.1704 F   0  0  0  0  0  0  0  0  0  0  0  0
    9.8648    7.0908   -4.5314 F   0  0  0  0  0  0  0  0  0  0  0  0
   11.6831    8.5291   -6.9682 C   0  0  1  0  0  0  0  0  0  0  0  0
   13.3042    8.0958   -4.5769 F   0  0  0  0  0  0  0  0  0  0  0  0
   10.0051    6.7877   -7.1387 C   0  0  2  0  0  0  0  0  0  0  0  0
   12.1549    9.4036   -6.0698 C   0  0  0  0  0  0  0  0  0  0  0  0
   11.7460    9.5074   -4.8672 O   0  0  0  0  0  0  0  0  0  0  0  0
   12.5684    8.5172   -7.8652 C   0  0  0  0  0  0  0  0  0  0  0  0
   10.4250    8.9412   -7.4869 C   0  0  0  0  0  0  0  0  0  0  0  0
    9.8902    5.4070   -7.8206 C   0  0  0  0  0  0  0  0  0  0  0  0
    8.7348    4.6919   -7.6168 C   0  0  0  0  0  0  0  0  0  0  0  0
    9.5887    7.8633   -8.0188 C   0  0  1  0  0  0  0  0  0  0  0  0
   10.0149    7.4671   -9.3945 C   0  0  0  0  0  0  0  0  0  0  0  0
    8.7013    3.5197   -8.2148 C   0  0  0  0  0  0  0  0  0  0  0  0
    9.3794    3.4628   -9.4166 C   0  0  0  0  0  0  0  0  0  0  0  0
    9.7670    8.0902  -10.5147 C   0  0  0  0  0  0  0  0  0  0  0  0
   10.1630    7.7248  -11.8028 C   0  0  0  0  0  0  0  0  0  0  0  0
   10.1363    4.5235   -9.8811 C   0  0  0  0  0  0  0  0  0  0  0  0
   10.2621    5.6959   -9.0592 C   0  0  0  0  0  0  0  0  0  0  0  0
    9.2744    7.6307  -12.8098 C   0  0  0  0  0  0  0  0  0  0  0  0
    8.0505    6.9805  -12.3760 C   0  0  0  0  0  0  0  0  0  0  0  0
    6.9481    7.7846  -12.3088 C   0  0  0  0  0  0  0  0  0  0  0  0
  1  2  1  0  0  0  0
  2  3  1  0  0  0  0
  2  6  1  0  0  0  0
  3  5  1  0  0  0  0
  3  8  1  0  0  0  0
  3 11  1  0  0  0  0
  4  2  1  1  0  0  0
  4  7  1  0  0  0  0
  4  9  1  0  0  0  0
  7 10  1  0  0  0  0
  7 12  1  6  0  0  0
  7 13  1  0  0  0  0
  9 14  1  6  0  0  0
  9 16  1  0  0  0  0
 10 11  1  0  0  0  0
 14 15  1  0  0  0  0
 14 23  2  0  0  0  0
 15 18  2  0  0  0  0
 16 13  1  1  0  0  0
 16 17  1  0  0  0  0
 17 20  2  3  0  0  0
 17 23  1  0  0  0  0
 18 19  1  0  0  0  0
 19 22  2  0  0  0  0
 20 21  1  0  0  0  0
 21 24  1  0  0  0  0
 22 23  1  0  0  0  0
 24 25  1  0  0  0  0
 25 26  1  0  0  0  0
M  END
$$$$

 OpenBabel10082411353D

 12 13  0  0  0  0  0  0  0  0999 V2000
   11.0135    9.7008   -4.2380 C   0  0  0  0  0  0  0  0  0  0  0  0
   12.0935    9.0253   -3.8315 C   0  0  0  0  0  0  0  0  0  0  0  0
   10.3181    9.0986   -5.3659 O   0  0  0  0  0  0  0  0  0  0  0  0
   11.6655    7.5896   -3.3864 C   0  0  0  0  0  0  0  0  0  0  0  0
   11.7049    6.7042   -4.4755 C   0  0  0  0  0  0  0  0  0  0  0  0
   11.1148    7.2172   -5.6951 C   0  0  1  0  0  0  0  0  0  0  0  0
   10.9971    8.4511   -6.1812 C   0  0  0  0  0  0  0  0  0  0  0  0
   11.5331    8.8978   -7.3819 C   0  0  0  0  0  0  0  0  0  0  0  0
   12.1151    8.1554   -8.3340 C   0  0  0  0  0  0  0  0  0  0  0  0
   12.9473    8.6082   -9.1627 O   0  0  0  0  0  0  0  0  0  0  0  0
   11.5962    6.8484   -8.4667 C   0  0  0  0  0  0  0  0  0  0  0  0
   11.2454    6.2452   -6.9241 C   0  0  0  0  0  0  0  0  0  0  0  0
  1  2  1  0  0  0  0
  1  3  1  0  0  0  0
  2  4  1  0  0  0  0
  3  7  1  0  0  0  0
  4  5  1  0  0  0  0
  6  5  1  1  0  0  0
  6  7  1  0  0  0  0
  6 12  1  0  0  0  0
  7  8  2  0  0  0  0
  8  9  1  0  0  0  0
  9 10  2  0  0  0  0
  9 11  1  0  0  0  0
 11 12  2  0  0  0  0
M  END
$$$$

 OpenBabel10082411353D

 40 45  0  0  0  0  0  0  0  0999 V2000
   11.6836    6.0105   -4.8831 C   0  0  0  0  0  0  0  0  0  0  0  0
   11.1291    7.0732   -5.4395 C   0  0  0  0  0  0  0  0  0  0  0  0
   10.6954    7.0156   -6.8073 C   0  0  0  0  0  0  0  0  0  0  0  0
   10.2502    8.1187   -7.5536 C   0  0  2  0  0  0  0  0  0  0  0  0
   11.1205    8.4712   -4.9629 C   0  0  0  0  0  0  0  0  0  0  0  0
   10.8655    8.3511   -8.7960 C   0  0  0  0  0  0  0  0  0  0  0  0
   10.2922    7.8843   -9.9985 C   0  0  0  0  0  0  0  0  0  0  0  0
   10.4654    9.6993   -5.6120 C   0  0  0  0  0  0  0  0  0  0  0  0
   10.3510    9.5971   -7.0014 C   0  0  0  0  0  0  0  0  0  0  0  0
   12.2462    6.3351   -3.5020 C   0  0  0  0  0  0  0  0  0  0  0  0
   11.0471    7.5309  -11.1063 C   0  0  0  0  0  0  0  0  0  0  0  0
   11.7288    8.6923   -3.6518 C   0  0  0  0  0  0  0  0  0  0  0  0
   12.3991    7.7501  -11.1145 C   0  0  0  0  0  0  0  0  0  0  0  0
   12.3738    7.7580   -2.9599 C   0  0  0  0  0  0  0  0  0  0  0  0
   13.1285    8.5075  -10.1661 O   0  0  0  0  0  0  0  0  0  0  0  0
    9.0407    7.3775  -10.0973 N   0  0  0  0  0  0  0  0  0  0  0  0
    8.9787    6.9473  -11.4664 N   0  0  0  0  0  0  0  0  0  0  0  0
   13.1012    7.4459  -12.3707 C   0  0  0  0  0  0  0  0  0  0  0  0
   12.2395    6.9724  -13.2444 C   0  0  0  0  0  0  0  0  0  0  0  0
   10.2768    7.0170  -11.9799 C   0  0  0  0  0  0  0  0  0  0  0  0
   12.9237    6.5822  -14.5759 O   0  0  0  0  0  0  0  0  0  0  0  0
   10.8906    6.6526  -13.2252 C   0  0  0  0  0  0  0  0  0  0  0  0
   12.2396    6.1290  -15.6916 C   0  0  0  0  0  0  0  0  0  0  0  0
    7.8036    6.1825  -11.9342 C   0  0  0  0  0  0  0  0  0  0  0  0
   12.5015    4.7115  -15.7686 C   0  0  0  0  0  0  0  0  0  0  0  0
    7.1685    6.9992  -12.8245 C   0  0  0  0  0  0  0  0  0  0  0  0
   11.2461    3.8540  -15.4851 C   0  0  0  0  0  0  0  0  0  0  0  0
    7.6237    4.9154  -11.6529 C   0  0  0  0  0  0  0  0  0  0  0  0
    6.6378    4.1960  -12.2267 C   0  0  0  0  0  0  0  0  0  0  0  0
    6.2717    2.7675  -11.9743 C   0  0  0  0  0  0  0  0  0  0  0  0
    6.6569    1.8873  -12.9460 C   0  0  2  0  0  0  0  0  0  0  0  0
    6.2393    0.5737  -12.7991 C   0  0  0  0  0  0  0  0  0  0  0  0
    5.7332    5.0094  -13.0098 C   0  0  0  0  0  0  0  0  0  0  0  0
    8.0694    1.7452  -13.2422 O   0  0  0  0  0  0  0  0  0  0  0  0
   11.4731    2.5511  -15.3619 O   0  0  0  0  0  0  0  0  0  0  0  0
   10.4833    1.8178  -15.6764 C   0  0  0  0  0  0  0  0  0  0  0  0
    8.4843    1.6759  -14.4990 C   0  0  0  0  0  0  0  0  0  0  0  0
    9.8212    1.3012  -14.5021 C   0  0  0  0  0  0  0  0  0  0  0  0
    7.4540    8.4954  -13.1749 C   0  0  0  0  0  0  0  0  0  0  0  0
    6.0494    6.3368  -13.3771 C   0  0  0  0  0  0  0  0  0  0  0  0
  1  2  1  0  0  0  0
  1 10  2  0  0  0  0
  2  3  1  0  0  0  0
  2  5  2  0  0  0  0
  3  4  1  0  0  0  0
  4  6  1  6  0  0  0
  4  9  1  0  0  0  0
  5  8  1  0  0  0  0
  5 12  1  0  0  0  0
  6  7  1  0  0  0  0
  7 11  1  0  0  0  0
  7 16  2  0  0  0  0
  8  9  1  0  0  0  0
 10 14  1  0  0  0  0
 11 13  2  0  0  0  0
 11 20  1  0  0  0  0
 12 14  2  0  0  0  0
 13 15  1  0  0  0  0
 13 18  1  0  0  0  0
 16 17  1  0  0  0  0
 17 20  1  0  0  0  0
 17 24  1  0  0  0  0
 18 19  2  0  0  0  0
 19 21  1  0  0  0  0
 19 22  1  0  0  0  0
 20 22  2  0  0  0  0
 21 23  1  0  0  0  0
 23 25  1  0  0  0  0
 24 26  2  0  0  0  0
 24 28  1  0  0  0  0
 25 27  1  0  0  0  0
 26 39  1  0  0  0  0
 26 40  1  0  0  0  0
 27 35  1  0  0  0  0
 28 29  2  0  0  0  0
 29 30  1  0  0  0  0
 29 33  1  0  0  0  0
 30 31  1  0  0  0  0
 31 32  1  1  0  0  0
 31 34  1  0  0  0  0
 33 40  2  0  0  0  0
 34 37  1  0  0  0  0
 35 36  1  0  0  0  0
 36 38  1  0  0  0  0
 37 38  1  0  0  0  0
M  END
$$$$

 OpenBabel10082411353D

 40 45  0  0  0  0  0  0  0  0999 V2000
   11.6836    6.0105   -4.8831 C   0  0  0  0  0  0  0  0  0  0  0  0
   11.1291    7.0732   -5.4395 C   0  0  0  0  0  0  0  0  0  0  0  0
   10.6954    7.0156   -6.8073 C   0  0  0  0  0  0  0  0  0  0  0  0
   10.2502    8.1187   -7.5536 C   0  0  2  0  0  0  0  0  0  0  0  0
   11.1205    8.4712   -4.9629 C   0  0  0  0  0  0  0  0  0  0  0  0
   10.8655    8.3511   -8.7960 C   0  0  0  0  0  0  0  0  0  0  0  0
   10.2922    7.8843   -9.9985 C   0  0  0  0  0  0  0  0  0  0  0  0
   10.4654    9.6993   -5.6120 C   0  0  0  0  0  0  0  0  0  0  0  0
   10.3510    9.5971   -7.0014 C   0  0  0  0  0  0  0  0  0  0  0  0
   12.2462    6.3351   -3.5020 C   0  0  0  0  0  0  0  0  0  0  0  0
   11.0471    7.5309  -11.1063 C   0  0  0  0  0  0  0  0  0  0  0  0
   11.7288    8.6923   -3.6518 C   0  0  0  0  0  0  0  0  0  0  0  0
   12.3991    7.7501  -11.1145 C   0  0  0  0  0  0  0  0  0  0  0  0
   12.3738    7.7580   -2.9599 C   0  0  0  0  0  0  0  0  0  0  0  0
   13.1285    8.5075  -10.1661 O   0  0  0  0  0  0  0  0  0  0  0  0
    9.0407    7.3775  -10.0973 N   0  0  0  0  0  0  0  0  0  0  0  0
    8.9787    6.9473  -11.4664 N   0  0  0  0  0  0  0  0  0  0  0  0
   13.1012    7.4459  -12.3707 C   0  0  0  0  0  0  0  0  0  0  0  0
   12.2395    6.9724  -13.2444 C   0  0  0  0  0  0  0  0  0  0  0  0
   10.2768    7.0170  -11.9799 C   0  0  0  0  0  0  0  0  0  0  0  0
   12.9237    6.5822  -14.5759 O   0  0  0  0  0  0  0  0  0  0  0  0
   10.8906    6.6526  -13.2252 C   0  0  0  0  0  0  0  0  0  0  0  0
   12.2396    6.1290  -15.6916 C   0  0  0  0  0  0  0  0  0  0  0  0
    7.8036    6.1825  -11.9342 C   0  0  0  0  0  0  0  0  0  0  0  0
   12.5015    4.7115  -15.7686 C   0  0  0  0  0  0  0  0  0  0  0  0
    7.1685    6.9992  -12.8245 C   0  0  0  0  0  0  0  0  0  0  0  0
   11.2461    3.8540  -15.4851 C   0  0  0  0  0  0  0  0  0  0  0  0
    7.6237    4.9154  -11.6529 C   0  0  0  0  0  0  0  0  0  0  0  0
    6.6378    4.1960  -12.2267 C   0  0  0  0  0  0  0  0  0  0  0  0
    6.2717    2.7675  -11.9743 C   0  0  0  0  0  0  0  0  0  0  0  0
    6.6569    1.8873  -12.9460 C   0  0  0  0  0  0  0  0  0  0  0  0
    7.3895    8.4597  -13.1785 C   0  0  0  0  0  0  0  0  0  0  0  0
    6.3114    0.5653  -12.7247 C   0  0  0  0  0  0  0  0  0  0  0  0
    7.7684    2.0327  -13.9055 C   0  0  0  0  0  0  0  0  0  0  0  0
    6.9387   -0.3720  -13.7691 C   0  0  0  0  0  0  0  0  0  0  0  0
    8.3285    1.1433  -14.6815 C   0  0  0  0  0  0  0  0  0  0  0  0
   11.1366    3.2519  -14.4180 O   0  0  0  0  0  0  0  0  0  0  0  0
   10.0435    2.5137  -14.0570 C   0  0  0  0  0  0  0  0  0  0  0  0
    9.4284    1.4895  -15.4430 C   0  0  0  0  0  0  0  0  0  0  0  0
    7.9520   -0.1347  -14.5929 C   0  0  0  0  0  0  0  0  0  0  0  0
  1  2  1  0  0  0  0
  1 10  2  0  0  0  0
  2  3  1  0  0  0  0
  2  5  2  0  0  0  0
  3  4  1  0  0  0  0
  4  6  1  6  0  0  0
  4  9  1  0  0  0  0
  5  8  1  0  0  0  0
  5 12  1  0  0  0  0
  6  7  1  0  0  0  0
  7 11  1  0  0  0  0
  7 16  2  0  0  0  0
  8  9  1  0  0  0  0
 10 14  1  0  0  0  0
 11 13  2  0  0  0  0
 11 20  1  0  0  0  0
 12 14  2  0  0  0  0
 13 15  1  0  0  0  0
 13 18  1  0  0  0  0
 16 17  1  0  0  0  0
 17 20  1  0  0  0  0
 17 24  1  0  0  0  0
 18 19  2  0  0  0  0
 19 21  1  0  0  0  0
 19 22  1  0  0  0  0
 20 22  2  0  0  0  0
 21 23  1  0  0  0  0
 23 25  1  0  0  0  0
 24 26  2  3  0  0  0
 24 28  1  0  0  0  0
 25 27  1  0  0  0  0
 26 32  1  0  0  0  0
 27 37  1  0  0  0  0
 28 29  2  0  0  0  0
 29 30  1  0  0  0  0
 30 31  1  0  0  0  0
 31 33  2  0  0  0  0
 31 34  1  0  0  0  0
 33 35  1  0  0  0  0
 34 36  2  0  0  0  0
 35 40  2  0  0  0  0
 36 39  1  0  0  0  0
 36 40  1  0  0  0  0
 37 38  1  0  0  0  0
 38 39  1  0  0  0  0
M  END
$$$$

 OpenBabel10082411353D

 40 47  0  0  0  0  0  0  0  0999 V2000
   12.7863    7.8241  -14.2109 C   0  0  0  0  0  0  0  0  0  0  0  0
   12.4233    7.7158  -13.0289 C   0  0  0  0  0  0  0  0  0  0  0  0
   11.3194    6.8571  -12.8028 C   0  0  0  0  0  0  0  0  0  0  0  0
   12.3150    7.2021  -15.3582 C   0  0  0  0  0  0  0  0  0  0  0  0
   11.2733    6.2739  -15.1502 C   0  0  0  0  0  0  0  0  0  0  0  0
   10.8099    6.0126  -13.8600 C   0  0  0  0  0  0  0  0  0  0  0  0
    9.6782    5.1428  -13.6488 C   0  0  0  0  0  0  0  0  0  0  0  0
    8.5753    5.3880  -12.9589 N   0  0  0  0  0  0  0  0  0  0  0  0
    8.3226    6.7011  -12.3862 C   0  0  0  0  0  0  0  0  0  0  0  0
    9.8502    3.8578  -14.0728 C   0  0  0  0  0  0  0  0  0  0  0  0
    7.3864    7.4720  -13.0530 C   0  0  0  0  0  0  0  0  0  0  0  0
    6.2412    7.8486  -12.2599 C   0  0  0  0  0  0  0  0  0  0  0  0
    7.6425    4.4186  -12.7943 C   0  0  0  0  0  0  0  0  0  0  0  0
   11.0297    3.2482  -14.8053 C   0  0  0  0  0  0  0  0  0  0  0  0
    8.6802    2.8955  -13.7960 C   0  0  0  0  0  0  0  0  0  0  0  0
    8.8565    1.5917  -14.3582 O   0  0  0  0  0  0  0  0  0  0  0  0
    7.6903    3.2226  -13.1994 N   0  0  0  0  0  0  0  0  0  0  0  0
    6.5724    2.3444  -12.8378 C   0  0  0  0  0  0  0  0  0  0  0  0
    9.0225    7.0353  -11.3259 C   0  0  0  0  0  0  0  0  0  0  0  0
    6.2405    4.8489  -12.4515 C   0  0  0  0  0  0  0  0  0  0  0  0
   10.5875    7.0617  -11.5321 C   0  0  0  0  0  0  0  0  0  0  0  0
   11.0960    7.6093  -10.4100 C   0  0  0  0  0  0  0  0  0  0  0  0
    8.4039    7.3336  -10.1102 C   0  0  0  0  0  0  0  0  0  0  0  0
    5.5911    3.3517  -12.3508 C   0  0  0  0  0  0  0  0  0  0  0  0
   12.6259    7.6530  -10.3901 C   0  0  0  0  0  0  0  0  0  0  0  0
   10.4284    7.7784   -9.2128 C   0  0  1  0  0  0  0  0  0  0  0  0
    9.2236    7.5051   -9.0617 C   0  0  2  0  0  0  0  0  0  0  0  0
    8.7145    7.3063   -7.7135 N   0  0  2  0  0  0  0  0  0  0  0  0
   11.0621    7.5242   -7.8430 C   0  0  1  0  0  0  0  0  0  0  0  0
   12.0213    8.4787   -7.3268 C   0  0  0  0  0  0  0  0  0  0  0  0
   13.1241    8.0749  -11.7293 C   0  0  0  0  0  0  0  0  0  0  0  0
   12.0504    9.6950   -7.9009 O   0  0  0  0  0  0  0  0  0  0  0  0
    9.8858    7.2444   -6.9594 C   0  0  2  0  0  0  0  0  0  0  0  0
    9.9777    5.9996   -6.3117 C   0  0  0  0  0  0  0  0  0  0  0  0
    8.9391    5.1621   -6.4362 C   0  0  2  0  0  0  0  0  0  0  0  0
   12.5667    8.4703   -6.0695 N   0  0  0  0  0  0  0  0  0  0  0  0
   13.2600    9.5871   -5.4885 C   0  0  0  0  0  0  0  0  0  0  0  0
    8.0016    5.9472   -7.2287 C   0  0  0  0  0  0  0  0  0  0  0  0
    8.1996    4.5973   -5.4964 F   0  0  0  0  0  0  0  0  0  0  0  0
    9.2711    4.0504   -7.4227 C   0  0  0  0  0  0  0  0  0  0  0  0
  1  2  2  0  0  0  0
  1  4  1  0  0  0  0
  2  3  1  0  0  0  0
  2 31  1  0  0  0  0
  3  6  2  0  0  0  0
  3 21  1  0  0  0  0
  4  5  2  0  0  0  0
  5  6  1  0  0  0  0
  6  7  1  0  0  0  0
  7  8  1  0  0  0  0
  7 10  2  0  0  0  0
  8  9  1  0  0  0  0
  8 13  1  0  0  0  0
  9 11  1  0  0  0  0
  9 19  2  0  0  0  0
 10 14  1  0  0  0  0
 10 15  1  0  0  0  0
 11 12  1  0  0  0  0
 13 17  1  0  0  0  0
 13 20  2  0  0  0  0
 15 16  2  0  0  0  0
 15 17  1  0  0  0  0
 17 18  1  0  0  0  0
 18 24  1  0  0  0  0
 19 21  1  0  0  0  0
 19 23  1  0  0  0  0
 20 24  1  0  0  0  0
 21 22  2  0  0  0  0
 22 25  1  0  0  0  0
 25 31  2  0  0  0  0
 26 22  1  6  0  0  0
 26 27  1  0  0  0  0
 26 29  1  0  0  0  0
 27 23  1  6  0  0  0
 27 28  1  0  0  0  0
 28 33  1  0  0  0  0
 28 38  1  6  0  0  0
 29 30  1  1  0  0  0
 29 33  1  0  0  0  0
 30 32  2  0  0  0  0
 30 36  1  0  0  0  0
 33 34  1  6  0  0  0
 34 35  1  0  0  0  0
 35 38  1  0  0  0  0
 35 39  1  0  0  0  0
 35 40  1  6  0  0  0
 36 37  1  0  0  0  0
M  END
$$$$

 OpenBabel10082411353D

 40 45  0  0  0  0  0  0  0  0999 V2000
   10.9951    9.9694   -4.9946 C   0  0  0  0  0  0  0  0  0  0  0  0
   11.7938    9.3762   -4.2463 C   0  0  0  0  0  0  0  0  0  0  0  0
   10.8673    9.4548   -6.4276 C   0  0  0  0  0  0  0  0  0  0  0  0
   11.6576    7.9117   -4.2944 C   0  0  0  0  0  0  0  0  0  0  0  0
   10.5498    8.0257   -6.4521 C   0  0  0  0  0  0  0  0  0  0  0  0
   11.4715    7.2752   -5.6166 C   0  0  0  0  0  0  0  0  0  0  0  0
   10.5840    7.5390   -7.9254 C   0  0  0  0  0  0  0  0  0  0  0  0
   11.4612    8.1494   -8.8322 C   0  0  0  0  0  0  0  0  0  0  0  0
   12.6250    8.6294   -8.4338 O   0  0  0  0  0  0  0  0  0  0  0  0
   11.0835    8.4395  -10.0740 O   0  0  0  0  0  0  0  0  0  0  0  0
   11.2938    7.5612  -11.0769 C   0  0  0  0  0  0  0  0  0  0  0  0
   10.1547    7.2525  -11.9492 C   0  0  0  0  0  0  0  0  0  0  0  0
   10.4293    6.5622  -13.1348 C   0  0  0  0  0  0  0  0  0  0  0  0
   11.7295    6.4217  -13.6243 C   0  0  0  0  0  0  0  0  0  0  0  0
    8.8120    7.3918  -11.4649 C   0  0  0  0  0  0  0  0  0  0  0  0
   12.5351    7.8894  -11.6869 C   0  0  0  0  0  0  0  0  0  0  0  0
   13.5778    8.4243  -10.9673 O   0  0  0  0  0  0  0  0  0  0  0  0
    7.7211    7.1761  -12.4323 C   0  0  0  0  0  0  0  0  0  0  0  0
   12.8103    7.0723  -12.8897 C   0  0  0  0  0  0  0  0  0  0  0  0
    7.0543    5.9667  -12.3369 C   0  0  0  0  0  0  0  0  0  0  0  0
    7.2392    8.1844  -13.1320 C   0  0  0  0  0  0  0  0  0  0  0  0
    6.6882    5.3848  -13.5016 O   0  0  0  0  0  0  0  0  0  0  0  0
    6.5103    5.5543  -11.3870 O   0  0  0  0  0  0  0  0  0  0  0  0
    7.4031    4.0506  -13.7852 C   0  0  0  0  0  0  0  0  0  0  0  0
    8.6811    3.9966  -14.1333 C   0  0  0  0  0  0  0  0  0  0  0  0
   12.0732    5.6649  -14.9357 C   0  0  0  0  0  0  0  0  0  0  0  0
    6.5842    3.0104  -13.4449 C   0  0  0  0  0  0  0  0  0  0  0  0
   12.1810    6.3505  -15.9550 C   0  0  0  0  0  0  0  0  0  0  0  0
   12.4422    5.6328  -17.1718 C   0  0  0  0  0  0  0  0  0  0  0  0
    5.1615    3.1639  -12.9487 C   0  0  0  0  0  0  0  0  0  0  0  0
   12.4897    4.2439  -17.0738 C   0  0  0  0  0  0  0  0  0  0  0  0
    7.2322    1.7149  -13.5830 C   0  0  0  0  0  0  0  0  0  0  0  0
   12.1774    3.5293  -15.9456 C   0  0  0  0  0  0  0  0  0  0  0  0
    6.3950    0.6096  -13.2209 C   0  0  0  0  0  0  0  0  0  0  0  0
    8.4431    1.6963  -14.0012 C   0  0  0  0  0  0  0  0  0  0  0  0
    9.2220    2.8237  -14.2367 C   0  0  0  0  0  0  0  0  0  0  0  0
   10.5901    2.5486  -14.6599 N   0  0  0  0  0  0  0  0  0  0  0  0
   11.8593    4.2260  -14.7438 C   0  0  0  0  0  0  0  0  0  0  0  0
   11.4098    2.4264  -15.3157 C   0  0  0  0  0  0  0  0  0  0  0  0
   11.4156    3.3682  -13.6941 C   0  0  0  0  0  0  0  0  0  0  0  0
  1  2  1  0  0  0  0
  1  3  1  0  0  0  0
  2  4  1  0  0  0  0
  3  5  1  0  0  0  0
  4  6  1  0  0  0  0
  5  6  1  0  0  0  0
  5  7  1  0  0  0  0
  7  8  1  0  0  0  0
  8  9  2  0  0  0  0
  8 10  1  0  0  0  0
 10 11  1  0  0  0  0
 11 12  1  0  0  0  0
 11 16  2  0  0  0  0
 12 13  2  0  0  0  0
 12 15  1  0  0  0  0
 13 14  1  0  0  0  0
 14 19  2  0  0  0  0
 14 26  1  0  0  0  0
 15 18  1  0  0  0  0
 16 17  1  0  0  0  0
 16 19  1  0  0  0  0
 18 20  1  0  0  0  0
 18 21  2  0  0  0  0
 20 22  1  0  0  0  0
 20 23  2  0  0  0  0
 22 24  1  0  0  0  0
 24 25  1  0  0  0  0
 24 27  2  0  0  0  0
 25 36  2  0  0  0  0
 26 28  2  0  0  0  0
 26 38  1  0  0  0  0
 27 30  1  0  0  0  0
 27 32  1  0  0  0  0
 28 29  1  0  0  0  0
 29 31  2  0  0  0  0
 31 33  1  0  0  0  0
 32 34  1  0  0  0  0
 32 35  2  0  0  0  0
 33 38  2  0  0  0  0
 33 39  1  0  0  0  0
 35 36  1  0  0  0  0
 36 37  1  0  0  0  0
 37 39  1  0  0  0  0
 37 40  1  0  0  0  0
 38 40  1  0  0  0  0
M  END
$$$$

 OpenBabel10082411353D

 40 45  0  0  0  0  0  0  0  0999 V2000
   11.6836    6.0105   -4.8831 F   0  0  0  0  0  0  0  0  0  0  0  0
   11.2562    7.2206   -5.0294 C   0  0  0  0  0  0  0  0  0  0  0  0
   12.0125    8.2418   -4.4408 C   0  0  0  0  0  0  0  0  0  0  0  0
   11.1918    7.2706   -6.5237 C   0  0  0  0  0  0  0  0  0  0  0  0
   11.6999    8.4488   -3.1704 F   0  0  0  0  0  0  0  0  0  0  0  0
    9.8648    7.0908   -4.5314 F   0  0  0  0  0  0  0  0  0  0  0  0
   11.6831    8.5291   -6.9682 C   0  0  0  0  0  0  0  0  0  0  0  0
   10.4785    6.5189   -7.4033 C   0  0  0  0  0  0  0  0  0  0  0  0
   11.6979    8.6661   -8.4760 C   0  0  0  0  0  0  0  0  0  0  0  0
   11.6248    9.5853   -5.0030 C   0  0  0  0  0  0  0  0  0  0  0  0
   11.8604    9.7907   -6.2903 O   0  0  0  0  0  0  0  0  0  0  0  0
   13.3557    8.1748   -4.5947 F   0  0  0  0  0  0  0  0  0  0  0  0
   10.5427    6.6061   -8.7190 C   0  0  0  0  0  0  0  0  0  0  0  0
   11.1158    7.7103   -9.2540 C   0  0  0  0  0  0  0  0  0  0  0  0
   11.3757    7.6656  -10.5293 N   0  0  0  0  0  0  0  0  0  0  0  0
   10.7153    7.7096  -11.5405 C   0  0  0  0  0  0  0  0  0  0  0  0
   11.2483    7.4711  -12.8542 C   0  0  0  0  0  0  0  0  0  0  0  0
    9.3980    7.7820  -11.5398 C   0  0  0  0  0  0  0  0  0  0  0  0
    8.6055    7.5889  -12.6525 C   0  0  0  0  0  0  0  0  0  0  0  0
   12.7508    7.3705  -13.0162 O   0  0  0  0  0  0  0  0  0  0  0  0
   10.5299    7.1831  -13.9856 C   0  0  0  0  0  0  0  0  0  0  0  0
    7.0533    7.7371  -12.5396 C   0  0  0  0  0  0  0  0  0  0  0  0
   11.2041    6.8490  -15.2304 C   0  0  0  0  0  0  0  0  0  0  0  0
   11.6393    5.5333  -15.3864 C   0  0  0  0  0  0  0  0  0  0  0  0
    9.1955    7.2935  -13.8301 C   0  0  0  0  0  0  0  0  0  0  0  0
   12.5294    5.1116  -16.1609 C   0  0  0  0  0  0  0  0  0  0  0  0
   11.2315    4.4703  -14.3200 C   0  0  0  0  0  0  0  0  0  0  0  0
   10.2844    4.5821  -13.3000 C   0  0  0  0  0  0  0  0  0  0  0  0
   11.6270    3.1866  -14.6052 C   0  0  0  0  0  0  0  0  0  0  0  0
    9.0868    3.8289  -13.3080 C   0  0  0  0  0  0  0  0  0  0  0  0
    8.1007    4.0948  -12.4103 C   0  0  0  0  0  0  0  0  0  0  0  0
    6.8410    3.6347  -12.6829 C   0  0  0  0  0  0  0  0  0  0  0  0
    6.7154    2.6437  -13.7684 C   0  0  0  0  0  0  0  0  0  0  0  0
   11.0823    2.0862  -13.7648 C   0  0  0  0  0  0  0  0  0  0  0  0
   12.4114    2.9184  -15.6196 C   0  0  0  0  0  0  0  0  0  0  0  0
    7.7737    2.1533  -14.3623 C   0  0  0  0  0  0  0  0  0  0  0  0
    9.0828    2.6814  -14.0389 C   0  0  0  0  0  0  0  0  0  0  0  0
   12.9314    6.1800  -17.0811 O   0  0  0  0  0  0  0  0  0  0  0  0
   12.8926    3.9194  -16.3376 C   0  0  0  0  0  0  0  0  0  0  0  0
   10.0715    1.7422  -14.2980 C   0  0  0  0  0  0  0  0  0  0  0  0
  1  2  1  0  0  0  0
  2  3  1  0  0  0  0
  2  4  1  0  0  0  0
  2  6  1  0  0  0  0
  3  5  1  0  0  0  0
  3 10  1  0  0  0  0
  3 12  1  0  0  0  0
  4  7  1  0  0  0  0
  4  8  2  0  0  0  0
  7  9  2  0  0  0  0
  7 11  1  0  0  0  0
  8 13  1  0  0  0  0
  9 14  1  0  0  0  0
 10 11  1  0  0  0  0
 13 14  2  0  0  0  0
 14 15  1  0  0  0  0
 15 16  1  0  0  0  0
 16 17  1  0  0  0  0
 16 18  2  0  0  0  0
 17 20  1  0  0  0  0
 17 21  2  0  0  0  0
 18 19  1  0  0  0  0
 19 22  1  0  0  0  0
 19 25  2  0  0  0  0
 21 23  1  0  0  0  0
 21 25  1  0  0  0  0
 23 24  1  0  0  0  0
 24 26  2  0  0  0  0
 24 27  1  0  0  0  0
 26 38  1  0  0  0  0
 26 39  1  0  0  0  0
 27 28  1  0  0  0  0
 27 29  2  0  0  0  0
 28 30  2  0  0  0  0
 29 34  1  0  0  0  0
 29 35  1  0  0  0  0
 30 31  1  0  0  0  0
 30 37  1  0  0  0  0
 31 32  2  0  0  0  0
 32 33  1  0  0  0  0
 33 36  2  0  0  0  0
 34 40  1  0  0  0  0
 35 39  2  0  0  0  0
 36 37  1  0  0  0  0
 37 40  2  0  0  0  0
M  END
$$$$

 OpenBabel10082411353D

 40 45  0  0  0  0  0  0  0  0999 V2000
   11.6836    6.0105   -4.8831 C   0  0  0  0  0  0  0  0  0  0  0  0
   11.1291    7.0732   -5.4395 C   0  0  0  0  0  0  0  0  0  0  0  0
   10.6954    7.0156   -6.8073 C   0  0  0  0  0  0  0  0  0  0  0  0
   10.2502    8.1187   -7.5536 C   0  0  2  0  0  0  0  0  0  0  0  0
   11.1205    8.4712   -4.9629 C   0  0  0  0  0  0  0  0  0  0  0  0
   10.8655    8.3511   -8.7960 C   0  0  0  0  0  0  0  0  0  0  0  0
   10.2922    7.8843   -9.9985 C   0  0  0  0  0  0  0  0  0  0  0  0
   10.4654    9.6993   -5.6120 C   0  0  0  0  0  0  0  0  0  0  0  0
   10.3510    9.5971   -7.0014 C   0  0  0  0  0  0  0  0  0  0  0  0
   12.2462    6.3351   -3.5020 C   0  0  0  0  0  0  0  0  0  0  0  0
   11.0471    7.5309  -11.1063 C   0  0  0  0  0  0  0  0  0  0  0  0
   11.7288    8.6923   -3.6518 C   0  0  0  0  0  0  0  0  0  0  0  0
   12.3991    7.7501  -11.1145 C   0  0  0  0  0  0  0  0  0  0  0  0
   12.3738    7.7580   -2.9599 C   0  0  0  0  0  0  0  0  0  0  0  0
   13.1285    8.5075  -10.1661 O   0  0  0  0  0  0  0  0  0  0  0  0
    9.0407    7.3775  -10.0973 N   0  0  0  0  0  0  0  0  0  0  0  0
    8.9787    6.9473  -11.4664 N   0  0  0  0  0  0  0  0  0  0  0  0
   13.1012    7.4459  -12.3707 C   0  0  0  0  0  0  0  0  0  0  0  0
   12.2395    6.9724  -13.2444 C   0  0  0  0  0  0  0  0  0  0  0  0
   10.2768    7.0170  -11.9799 C   0  0  0  0  0  0  0  0  0  0  0  0
   12.9237    6.5822  -14.5759 O   0  0  0  0  0  0  0  0  0  0  0  0
   10.8906    6.6526  -13.2252 C   0  0  0  0  0  0  0  0  0  0  0  0
   12.2396    6.1290  -15.6916 C   0  0  0  0  0  0  0  0  0  0  0  0
    7.8036    6.1825  -11.9342 C   0  0  0  0  0  0  0  0  0  0  0  0
   12.5015    4.7115  -15.7686 C   0  0  0  0  0  0  0  0  0  0  0  0
    7.1685    6.9992  -12.8245 C   0  0  0  0  0  0  0  0  0  0  0  0
   11.2461    3.8540  -15.4851 C   0  0  0  0  0  0  0  0  0  0  0  0
    7.6237    4.9154  -11.6529 C   0  0  0  0  0  0  0  0  0  0  0  0
    6.6378    4.1960  -12.2267 C   0  0  0  0  0  0  0  0  0  0  0  0
    6.2717    2.7675  -11.9743 C   0  0  0  0  0  0  0  0  0  0  0  0
    6.6569    1.8873  -12.9460 C   0  0  0  0  0  0  0  0  0  0  0  0
    7.3895    8.4597  -13.1785 C   0  0  0  0  0  0  0  0  0  0  0  0
    6.3114    0.5653  -12.7247 C   0  0  0  0  0  0  0  0  0  0  0  0
    7.7684    2.0327  -13.9055 C   0  0  0  0  0  0  0  0  0  0  0  0
    6.9387   -0.3720  -13.7691 C   0  0  0  0  0  0  0  0  0  0  0  0
    8.4223    3.3339  -14.0264 C   0  0  0  0  0  0  0  0  0  0  0  0
    9.9233    3.2491  -14.0383 C   0  0  0  0  0  0  0  0  0  0  0  0
   10.7554    4.1043  -14.1438 O   0  0  0  0  0  0  0  0  0  0  0  0
   10.4765    2.0710  -14.0060 O   0  0  0  0  0  0  0  0  0  0  0  0
    8.1806    0.9241  -14.5822 C   0  0  0  0  0  0  0  0  0  0  0  0
  1  2  1  0  0  0  0
  1 10  2  0  0  0  0
  2  3  1  0  0  0  0
  2  5  2  0  0  0  0
  3  4  1  0  0  0  0
  4  6  1  6  0  0  0
  4  9  1  0  0  0  0
  5  8  1  0  0  0  0
  5 12  1  0  0  0  0
  6  7  1  0  0  0  0
  7 11  1  0  0  0  0
  7 16  2  0  0  0  0
  8  9  1  0  0  0  0
 10 14  1  0  0  0  0
 11 13  2  0  0  0  0
 11 20  1  0  0  0  0
 12 14  2  0  0  0  0
 13 15  1  0  0  0  0
 13 18  1  0  0  0  0
 16 17  1  0  0  0  0
 17 20  1  0  0  0  0
 17 24  1  0  0  0  0
 18 19  2  0  0  0  0
 19 21  1  0  0  0  0
 19 22  1  0  0  0  0
 20 22  2  0  0  0  0
 21 23  1  0  0  0  0
 23 25  1  0  0  0  0
 24 26  2  3  0  0  0
 24 28  1  0  0  0  0
 25 27  1  0  0  0  0
 26 32  1  0  0  0  0
 27 38  1  0  0  0  0
 28 29  2  0  0  0  0
 29 30  1  0  0  0  0
 30 31  1  0  0  0  0
 31 33  2  0  0  0  0
 31 34  1  0  0  0  0
 33 35  1  0  0  0  0
 34 36  1  0  0  0  0
 34 40  2  0  0  0  0
 35 40  2  0  0  0  0
 36 37  1  0  0  0  0
 37 38  1  0  0  0  0
 37 39  2  0  0  0  0
M  END
$$$$

 OpenBabel10082411353D

 40 44  0  0  0  0  0  0  0  0999 V2000
   11.6836    6.0105   -4.8831 F   0  0  0  0  0  0  0  0  0  0  0  0
   11.2562    7.2206   -5.0294 C   0  0  0  0  0  0  0  0  0  0  0  0
   12.0125    8.2418   -4.4408 C   0  0  0  0  0  0  0  0  0  0  0  0
   11.1918    7.2706   -6.5237 C   0  0  0  0  0  0  0  0  0  0  0  0
   11.6999    8.4488   -3.1704 F   0  0  0  0  0  0  0  0  0  0  0  0
    9.8648    7.0908   -4.5314 F   0  0  0  0  0  0  0  0  0  0  0  0
   11.6831    8.5291   -6.9682 C   0  0  0  0  0  0  0  0  0  0  0  0
   10.4785    6.5189   -7.4033 C   0  0  0  0  0  0  0  0  0  0  0  0
   11.6979    8.6661   -8.4760 C   0  0  0  0  0  0  0  0  0  0  0  0
   11.6248    9.5853   -5.0030 C   0  0  0  0  0  0  0  0  0  0  0  0
   11.8604    9.7907   -6.2903 O   0  0  0  0  0  0  0  0  0  0  0  0
   13.3557    8.1748   -4.5947 F   0  0  0  0  0  0  0  0  0  0  0  0
   10.5427    6.6061   -8.7190 C   0  0  0  0  0  0  0  0  0  0  0  0
   11.1158    7.7103   -9.2540 C   0  0  0  0  0  0  0  0  0  0  0  0
   11.3757    7.6656  -10.5293 N   0  0  0  0  0  0  0  0  0  0  0  0
   10.7153    7.7096  -11.5405 C   0  0  0  0  0  0  0  0  0  0  0  0
   11.2483    7.4711  -12.8542 C   0  0  0  0  0  0  0  0  0  0  0  0
    9.3980    7.7820  -11.5398 C   0  0  0  0  0  0  0  0  0  0  0  0
    8.6055    7.5889  -12.6525 C   0  0  0  0  0  0  0  0  0  0  0  0
   12.7508    7.3705  -13.0162 O   0  0  0  0  0  0  0  0  0  0  0  0
   10.5299    7.1831  -13.9856 C   0  0  0  0  0  0  0  0  0  0  0  0
    7.0533    7.7371  -12.5396 C   0  0  0  0  0  0  0  0  0  0  0  0
   11.2041    6.8490  -15.2304 C   0  0  0  0  0  0  0  0  0  0  0  0
   11.6393    5.5333  -15.3864 C   0  0  0  0  0  0  0  0  0  0  0  0
    9.1955    7.2935  -13.8301 C   0  0  0  0  0  0  0  0  0  0  0  0
   12.5294    5.1116  -16.1609 C   0  0  0  0  0  0  0  0  0  0  0  0
   11.2315    4.4703  -14.3200 C   0  0  0  0  0  0  0  0  0  0  0  0
   13.0194    6.0876  -17.1697 C   0  0  0  0  0  0  0  0  0  0  0  0
   12.9874    3.8316  -16.1456 C   0  0  0  0  0  0  0  0  0  0  0  0
   12.3949    2.9126  -15.4671 C   0  0  0  0  0  0  0  0  0  0  0  0
   10.2274    4.8149  -13.2643 C   0  0  0  0  0  0  0  0  0  0  0  0
    8.9564    4.3798  -13.5553 C   0  0  0  0  0  0  0  0  0  0  0  0
    8.7042    3.2659  -14.2465 C   0  0  0  0  0  0  0  0  0  0  0  0
   11.4148    3.2767  -14.5206 C   0  0  0  0  0  0  0  0  0  0  0  0
    8.0769    4.5652  -12.3451 C   0  0  0  0  0  0  0  0  0  0  0  0
    6.8532    4.1363  -12.5398 C   0  0  0  0  0  0  0  0  0  0  0  0
    5.8046    4.5086  -11.4664 C   0  0  0  0  0  0  0  0  0  0  0  0
    7.4150    2.7802  -14.3527 C   0  0  0  0  0  0  0  0  0  0  0  0
    7.0607    1.7508  -15.3295 C   0  0  0  0  0  0  0  0  0  0  0  0
    6.4485    3.1226  -13.4259 C   0  0  0  0  0  0  0  0  0  0  0  0
  1  2  1  0  0  0  0
  2  3  1  0  0  0  0
  2  4  1  0  0  0  0
  2  6  1  0  0  0  0
  3  5  1  0  0  0  0
  3 10  1  0  0  0  0
  3 12  1  0  0  0  0
  4  7  1  0  0  0  0
  4  8  2  0  0  0  0
  7  9  2  0  0  0  0
  7 11  1  0  0  0  0
  8 13  1  0  0  0  0
  9 14  1  0  0  0  0
 10 11  1  0  0  0  0
 13 14  2  0  0  0  0
 14 15  1  0  0  0  0
 15 16  1  0  0  0  0
 16 17  1  0  0  0  0
 16 18  2  0  0  0  0
 17 20  1  0  0  0  0
 17 21  2  0  0  0  0
 18 19  1  0  0  0  0
 19 22  1  0  0  0  0
 19 25  2  0  0  0  0
 21 23  1  0  0  0  0
 21 25  1  0  0  0  0
 23 24  1  0  0  0  0
 24 26  2  0  0  0  0
 24 27  1  0  0  0  0
 26 28  1  0  0  0  0
 26 29  1  0  0  0  0
 27 31  1  0  0  0  0
 27 34  2  0  0  0  0
 29 30  2  0  0  0  0
 30 34  1  0  0  0  0
 31 32  2  3  0  0  0
 32 33  1  0  0  0  0
 32 35  1  0  0  0  0
 33 38  2  0  0  0  0
 35 36  2  0  0  0  0
 36 37  1  0  0  0  0
 36 40  1  0  0  0  0
 38 39  1  0  0  0  0
 38 40  1  0  0  0  0
M  END
$$$$

 OpenBabel10082411353D

 40 45  0  0  0  0  0  0  0  0999 V2000
   11.6836    6.0105   -4.8831 C   0  0  0  0  0  0  0  0  0  0  0  0
   11.1291    7.0732   -5.4395 C   0  0  0  0  0  0  0  0  0  0  0  0
   10.6954    7.0156   -6.8073 C   0  0  0  0  0  0  0  0  0  0  0  0
   10.2502    8.1187   -7.5536 C   0  0  2  0  0  0  0  0  0  0  0  0
   11.1205    8.4712   -4.9629 C   0  0  0  0  0  0  0  0  0  0  0  0
   10.8655    8.3511   -8.7960 C   0  0  0  0  0  0  0  0  0  0  0  0
   10.2922    7.8843   -9.9985 C   0  0  0  0  0  0  0  0  0  0  0  0
   10.4654    9.6993   -5.6120 C   0  0  0  0  0  0  0  0  0  0  0  0
   10.3510    9.5971   -7.0014 C   0  0  0  0  0  0  0  0  0  0  0  0
   12.2462    6.3351   -3.5020 C   0  0  0  0  0  0  0  0  0  0  0  0
   11.0471    7.5309  -11.1063 C   0  0  0  0  0  0  0  0  0  0  0  0
   11.7288    8.6923   -3.6518 C   0  0  0  0  0  0  0  0  0  0  0  0
   12.3991    7.7501  -11.1145 C   0  0  0  0  0  0  0  0  0  0  0  0
   12.3738    7.7580   -2.9599 C   0  0  0  0  0  0  0  0  0  0  0  0
   13.1285    8.5075  -10.1661 O   0  0  0  0  0  0  0  0  0  0  0  0
    9.0407    7.3775  -10.0973 N   0  0  0  0  0  0  0  0  0  0  0  0
    8.9787    6.9473  -11.4664 N   0  0  0  0  0  0  0  0  0  0  0  0
   13.1012    7.4459  -12.3707 C   0  0  0  0  0  0  0  0  0  0  0  0
   12.2395    6.9724  -13.2444 C   0  0  0  0  0  0  0  0  0  0  0  0
   10.2768    7.0170  -11.9799 C   0  0  0  0  0  0  0  0  0  0  0  0
   12.9237    6.5822  -14.5759 O   0  0  0  0  0  0  0  0  0  0  0  0
   10.8906    6.6526  -13.2252 C   0  0  0  0  0  0  0  0  0  0  0  0
   12.2396    6.1290  -15.6916 C   0  0  0  0  0  0  0  0  0  0  0  0
    7.8036    6.1825  -11.9342 C   0  0  0  0  0  0  0  0  0  0  0  0
   12.5015    4.7115  -15.7686 C   0  0  0  0  0  0  0  0  0  0  0  0
    7.1685    6.9992  -12.8245 C   0  0  0  0  0  0  0  0  0  0  0  0
   11.2461    3.8540  -15.4851 C   0  0  0  0  0  0  0  0  0  0  0  0
    7.6237    4.9154  -11.6529 C   0  0  0  0  0  0  0  0  0  0  0  0
    6.6378    4.1960  -12.2267 C   0  0  0  0  0  0  0  0  0  0  0  0
    6.2717    2.7675  -11.9743 C   0  0  0  0  0  0  0  0  0  0  0  0
    6.6569    1.8873  -12.9460 C   0  0  2  0  0  0  0  0  0  0  0  0
    6.2393    0.5737  -12.7991 C   0  0  0  0  0  0  0  0  0  0  0  0
    5.7332    5.0094  -13.0098 C   0  0  0  0  0  0  0  0  0  0  0  0
    8.0694    1.7452  -13.2422 O   0  0  0  0  0  0  0  0  0  0  0  0
   11.4731    2.5511  -15.3619 O   0  0  0  0  0  0  0  0  0  0  0  0
   10.4833    1.8178  -15.6764 C   0  0  0  0  0  0  0  0  0  0  0  0
    8.4843    1.6759  -14.4990 C   0  0  0  0  0  0  0  0  0  0  0  0
    7.6962    1.5233  -15.4240 O   0  0  0  0  0  0  0  0  0  0  0  0
    6.0439    6.3091  -13.3831 C   0  0  0  0  0  0  0  0  0  0  0  0
    9.8023    1.5407  -14.3785 C   0  0  0  0  0  0  0  0  0  0  0  0
  1  2  1  0  0  0  0
  1 10  2  0  0  0  0
  2  3  1  0  0  0  0
  2  5  2  0  0  0  0
  3  4  1  0  0  0  0
  4  6  1  6  0  0  0
  4  9  1  0  0  0  0
  5  8  1  0  0  0  0
  5 12  1  0  0  0  0
  6  7  1  0  0  0  0
  7 11  1  0  0  0  0
  7 16  2  0  0  0  0
  8  9  1  0  0  0  0
 10 14  1  0  0  0  0
 11 13  2  0  0  0  0
 11 20  1  0  0  0  0
 12 14  2  0  0  0  0
 13 15  1  0  0  0  0
 13 18  1  0  0  0  0
 16 17  1  0  0  0  0
 17 20  1  0  0  0  0
 17 24  1  0  0  0  0
 18 19  2  0  0  0  0
 19 21  1  0  0  0  0
 19 22  1  0  0  0  0
 20 22  2  0  0  0  0
 21 23  1  0  0  0  0
 23 25  1  0  0  0  0
 24 26  2  0  0  0  0
 24 28  1  0  0  0  0
 25 27  1  0  0  0  0
 26 39  1  0  0  0  0
 27 35  1  0  0  0  0
 28 29  2  0  0  0  0
 29 30  1  0  0  0  0
 29 33  1  0  0  0  0
 30 31  1  0  0  0  0
 31 32  1  1  0  0  0
 31 34  1  0  0  0  0
 33 39  2  0  0  0  0
 34 37  1  0  0  0  0
 35 36  1  0  0  0  0
 36 40  1  0  0  0  0
 37 38  2  0  0  0  0
 37 40  1  0  0  0  0
M  END
$$$$

 OpenBabel10082411353D

 40 45  0  0  0  0  0  0  0  0999 V2000
   11.6836    6.0105   -4.8831 C   0  0  0  0  0  0  0  0  0  0  0  0
   11.1291    7.0732   -5.4395 C   0  0  0  0  0  0  0  0  0  0  0  0
   10.6954    7.0156   -6.8073 C   0  0  0  0  0  0  0  0  0  0  0  0
   10.2502    8.1187   -7.5536 C   0  0  2  0  0  0  0  0  0  0  0  0
   11.1205    8.4712   -4.9629 C   0  0  0  0  0  0  0  0  0  0  0  0
   10.8655    8.3511   -8.7960 C   0  0  0  0  0  0  0  0  0  0  0  0
   10.2922    7.8843   -9.9985 C   0  0  0  0  0  0  0  0  0  0  0  0
   10.4654    9.6993   -5.6120 C   0  0  0  0  0  0  0  0  0  0  0  0
   10.3510    9.5971   -7.0014 C   0  0  0  0  0  0  0  0  0  0  0  0
   12.2462    6.3351   -3.5020 C   0  0  0  0  0  0  0  0  0  0  0  0
   11.0471    7.5309  -11.1063 C   0  0  0  0  0  0  0  0  0  0  0  0
   11.7288    8.6923   -3.6518 C   0  0  0  0  0  0  0  0  0  0  0  0
   12.3991    7.7501  -11.1145 C   0  0  0  0  0  0  0  0  0  0  0  0
   12.3738    7.7580   -2.9599 C   0  0  0  0  0  0  0  0  0  0  0  0
   13.1285    8.5075  -10.1661 O   0  0  0  0  0  0  0  0  0  0  0  0
    9.0407    7.3775  -10.0973 N   0  0  0  0  0  0  0  0  0  0  0  0
    8.9787    6.9473  -11.4664 N   0  0  0  0  0  0  0  0  0  0  0  0
   13.1012    7.4459  -12.3707 C   0  0  0  0  0  0  0  0  0  0  0  0
   12.2395    6.9724  -13.2444 C   0  0  0  0  0  0  0  0  0  0  0  0
   10.2768    7.0170  -11.9799 C   0  0  0  0  0  0  0  0  0  0  0  0
   12.9237    6.5822  -14.5759 O   0  0  0  0  0  0  0  0  0  0  0  0
   10.8906    6.6526  -13.2252 C   0  0  0  0  0  0  0  0  0  0  0  0
   12.2396    6.1290  -15.6916 C   0  0  0  0  0  0  0  0  0  0  0  0
    7.8036    6.1825  -11.9342 C   0  0  0  0  0  0  0  0  0  0  0  0
   12.5015    4.7115  -15.7686 C   0  0  0  0  0  0  0  0  0  0  0  0
    7.1685    6.9992  -12.8245 C   0  0  0  0  0  0  0  0  0  0  0  0
   11.2461    3.8540  -15.4851 C   0  0  0  0  0  0  0  0  0  0  0  0
    7.6237    4.9154  -11.6529 C   0  0  0  0  0  0  0  0  0  0  0  0
    6.6378    4.1960  -12.2267 C   0  0  0  0  0  0  0  0  0  0  0  0
    6.2717    2.7675  -11.9743 C   0  0  0  0  0  0  0  0  0  0  0  0
    6.6569    1.8873  -12.9460 C   0  0  2  0  0  0  0  0  0  0  0  0
    6.2393    0.5737  -12.7991 C   0  0  0  0  0  0  0  0  0  0  0  0
    5.7332    5.0094  -13.0098 C   0  0  0  0  0  0  0  0  0  0  0  0
   11.4513    2.5769  -15.3310 O   0  0  0  0  0  0  0  0  0  0  0  0
    5.8943    6.2717  -13.4084 C   0  0  0  0  0  0  0  0  0  0  0  0
   10.1835    4.4428  -14.8841 O   0  0  0  0  0  0  0  0  0  0  0  0
    8.0814    1.7611  -13.1181 O   0  0  0  0  0  0  0  0  0  0  0  0
    8.9507    3.9209  -14.9705 C   0  0  0  0  0  0  0  0  0  0  0  0
    8.5874    1.3928  -14.2668 C   0  0  0  0  0  0  0  0  0  0  0  0
    9.0201    2.3712  -15.2847 C   0  0  0  0  0  0  0  0  0  0  0  0
  1  2  1  0  0  0  0
  1 10  2  0  0  0  0
  2  3  1  0  0  0  0
  2  5  2  0  0  0  0
  3  4  1  0  0  0  0
  4  6  1  6  0  0  0
  4  9  1  0  0  0  0
  5  8  1  0  0  0  0
  5 12  1  0  0  0  0
  6  7  1  0  0  0  0
  7 11  1  0  0  0  0
  7 16  2  0  0  0  0
  8  9  1  0  0  0  0
 10 14  1  0  0  0  0
 11 13  2  0  0  0  0
 11 20  1  0  0  0  0
 12 14  2  0  0  0  0
 13 15  1  0  0  0  0
 13 18  1  0  0  0  0
 16 17  1  0  0  0  0
 17 20  1  0  0  0  0
 17 24  1  0  0  0  0
 18 19  2  0  0  0  0
 19 21  1  0  0  0  0
 19 22  1  0  0  0  0
 20 22  2  0  0  0  0
 21 23  1  0  0  0  0
 23 25  1  0  0  0  0
 24 26  2  0  0  0  0
 24 28  1  0  0  0  0
 25 27  1  0  0  0  0
 26 35  1  0  0  0  0
 27 34  2  0  0  0  0
 27 36  1  0  0  0  0
 28 29  2  0  0  0  0
 29 30  1  0  0  0  0
 29 33  1  0  0  0  0
 30 31  1  0  0  0  0
 31 32  1  1  0  0  0
 31 37  1  0  0  0  0
 33 35  2  0  0  0  0
 36 38  1  0  0  0  0
 37 39  1  0  0  0  0
 38 40  1  0  0  0  0
 39 40  1  0  0  0  0
M  END
$$$$

 OpenBabel10082411353D

 40 44  0  0  0  0  0  0  0  0999 V2000
   11.6836    6.0105   -4.8831 F   0  0  0  0  0  0  0  0  0  0  0  0
   11.2562    7.2206   -5.0294 C   0  0  0  0  0  0  0  0  0  0  0  0
   12.0125    8.2418   -4.4408 C   0  0  0  0  0  0  0  0  0  0  0  0
   11.1918    7.2706   -6.5237 C   0  0  0  0  0  0  0  0  0  0  0  0
   11.6999    8.4488   -3.1704 F   0  0  0  0  0  0  0  0  0  0  0  0
    9.8648    7.0908   -4.5314 F   0  0  0  0  0  0  0  0  0  0  0  0
   11.6831    8.5291   -6.9682 C   0  0  0  0  0  0  0  0  0  0  0  0
   10.4785    6.5189   -7.4033 C   0  0  0  0  0  0  0  0  0  0  0  0
   11.6979    8.6661   -8.4760 C   0  0  0  0  0  0  0  0  0  0  0  0
   11.6248    9.5853   -5.0030 C   0  0  0  0  0  0  0  0  0  0  0  0
   11.8604    9.7907   -6.2903 O   0  0  0  0  0  0  0  0  0  0  0  0
   13.3557    8.1748   -4.5947 F   0  0  0  0  0  0  0  0  0  0  0  0
   10.5427    6.6061   -8.7190 C   0  0  0  0  0  0  0  0  0  0  0  0
   11.1158    7.7103   -9.2540 C   0  0  0  0  0  0  0  0  0  0  0  0
   11.3757    7.6656  -10.5293 N   0  0  0  0  0  0  0  0  0  0  0  0
   10.7153    7.7096  -11.5405 C   0  0  0  0  0  0  0  0  0  0  0  0
   11.2483    7.4711  -12.8542 C   0  0  0  0  0  0  0  0  0  0  0  0
    9.3980    7.7820  -11.5398 C   0  0  0  0  0  0  0  0  0  0  0  0
    8.6055    7.5889  -12.6525 C   0  0  0  0  0  0  0  0  0  0  0  0
   12.7508    7.3705  -13.0162 O   0  0  0  0  0  0  0  0  0  0  0  0
   10.5299    7.1831  -13.9856 C   0  0  0  0  0  0  0  0  0  0  0  0
    7.0533    7.7371  -12.5396 C   0  0  0  0  0  0  0  0  0  0  0  0
   11.2041    6.8490  -15.2304 C   0  0  0  0  0  0  0  0  0  0  0  0
   11.6393    5.5333  -15.3864 C   0  0  0  0  0  0  0  0  0  0  0  0
    9.1955    7.2935  -13.8301 C   0  0  0  0  0  0  0  0  0  0  0  0
   12.5294    5.1116  -16.1609 C   0  0  0  0  0  0  0  0  0  0  0  0
   11.2315    4.4703  -14.3200 C   0  0  0  0  0  0  0  0  0  0  0  0
   13.0194    6.0876  -17.1697 C   0  0  0  0  0  0  0  0  0  0  0  0
   12.3991    7.3271  -17.2011 C   0  0  0  0  0  0  0  0  0  0  0  0
   11.6234    7.7212  -16.1065 C   0  0  0  0  0  0  0  0  0  0  0  0
    6.8111    8.8557  -12.1311 F   0  0  0  0  0  0  0  0  0  0  0  0
   10.0067    4.0539  -14.1822 C   0  0  0  0  0  0  0  0  0  0  0  0
    6.6026    6.8347  -11.5951 F   0  0  0  0  0  0  0  0  0  0  0  0
    9.7932    2.6838  -14.2236 C   0  0  0  0  0  0  0  0  0  0  0  0
    8.9172    4.7456  -13.9387 C   0  0  0  0  0  0  0  0  0  0  0  0
   10.8604    1.7246  -14.4744 F   0  0  0  0  0  0  0  0  0  0  0  0
    8.6405    2.0857  -14.0766 C   0  0  0  0  0  0  0  0  0  0  0  0
    6.4493    7.4930  -13.7144 F   0  0  0  0  0  0  0  0  0  0  0  0
    7.6158    4.1834  -13.7804 C   0  0  0  0  0  0  0  0  0  0  0  0
    7.5024    2.8270  -13.8338 C   0  0  0  0  0  0  0  0  0  0  0  0
  1  2  1  0  0  0  0
  2  3  1  0  0  0  0
  2  4  1  0  0  0  0
  2  6  1  0  0  0  0
  3  5  1  0  0  0  0
  3 10  1  0  0  0  0
  3 12  1  0  0  0  0
  4  7  1  0  0  0  0
  4  8  2  0  0  0  0
  7  9  2  0  0  0  0
  7 11  1  0  0  0  0
  8 13  1  0  0  0  0
  9 14  1  0  0  0  0
 10 11  1  0  0  0  0
 13 14  2  0  0  0  0
 14 15  1  0  0  0  0
 15 16  1  0  0  0  0
 16 17  1  0  0  0  0
 16 18  2  0  0  0  0
 17 20  1  0  0  0  0
 17 21  2  0  0  0  0
 18 19  1  0  0  0  0
 19 22  1  0  0  0  0
 19 25  2  0  0  0  0
 21 23  1  0  0  0  0
 21 25  1  0  0  0  0
 22 31  1  0  0  0  0
 22 33  1  0  0  0  0
 22 38  1  0  0  0  0
 23 24  1  0  0  0  0
 23 30  2  0  0  0  0
 24 26  2  0  0  0  0
 24 27  1  0  0  0  0
 26 28  1  0  0  0  0
 27 32  1  0  0  0  0
 28 29  2  0  0  0  0
 29 30  1  0  0  0  0
 32 34  1  0  0  0  0
 32 35  2  0  0  0  0
 34 36  1  0  0  0  0
 34 37  2  0  0  0  0
 35 39  1  0  0  0  0
 37 40  1  0  0  0  0
 39 40  2  0  0  0  0
M  END
$$$$

 OpenBabel10082411353D

 26 28  0  0  0  0  0  0  0  0999 V2000
   10.7609    9.6228   -4.2714 C   0  0  0  0  0  0  0  0  0  0  0  0
   10.4930    9.4831   -5.5343 C   0  0  0  0  0  0  0  0  0  0  0  0
   11.6139    8.5907   -3.8078 C   0  0  0  0  0  0  0  0  0  0  0  0
   10.6916    8.7185   -6.3306 C   0  0  0  0  0  0  0  0  0  0  0  0
   11.4775    7.4908   -5.9802 C   0  0  0  0  0  0  0  0  0  0  0  0
   10.1045    8.7095   -7.8164 C   0  0  0  0  0  0  0  0  0  0  0  0
   11.8703    7.5203   -4.5985 C   0  0  0  0  0  0  0  0  0  0  0  0
   10.7919    7.9248   -8.8228 C   0  0  2  0  0  0  0  0  0  0  0  0
   11.9364    8.4952   -9.3965 C   0  0  0  0  0  0  0  0  0  0  0  0
    9.8959    7.3469   -9.8494 C   0  0  2  0  0  0  0  0  0  0  0  0
   11.8083    8.5784  -10.7433 C   0  0  0  0  0  0  0  0  0  0  0  0
    9.3505    5.9951   -9.7172 C   0  0  0  0  0  0  0  0  0  0  0  0
   10.8091    7.4604  -11.0835 C   0  0  2  0  0  0  0  0  0  0  0  0
    9.9343    7.6178  -12.3100 C   0  0  0  0  0  0  0  0  0  0  0  0
   10.3319    6.9103  -13.3933 C   0  0  2  0  0  0  0  0  0  0  0  0
    9.7950    5.5865  -13.5861 C   0  0  0  0  0  0  0  0  0  0  0  0
   11.8857    6.7184  -13.4951 C   0  0  0  0  0  0  0  0  0  0  0  0
   12.1839    5.3460  -13.8289 C   0  0  0  0  0  0  0  0  0  0  0  0
    8.8581    8.3042  -12.2694 C   0  0  0  0  0  0  0  0  0  0  0  0
    8.5530    5.4785  -10.5177 O   0  0  0  0  0  0  0  0  0  0  0  0
    9.6959    5.2169   -8.5927 O   0  0  0  0  0  0  0  0  0  0  0  0
    8.9077    5.1597   -7.4722 C   0  0  0  0  0  0  0  0  0  0  0  0
   10.8631    4.6424  -13.8487 C   0  0  0  0  0  0  0  0  0  0  0  0
   10.7170    3.3252  -14.1105 C   0  0  0  0  0  0  0  0  0  0  0  0
   11.5965    2.7979  -15.0597 C   0  0  0  0  0  0  0  0  0  0  0  0
    9.8183    2.6126  -13.4046 C   0  0  0  0  0  0  0  0  0  0  0  0
  1  2  1  0  0  0  0
  1  3  2  0  0  0  0
  2  4  2  0  0  0  0
  3  7  1  0  0  0  0
  4  5  1  0  0  0  0
  4  6  1  0  0  0  0
  5  7  2  0  0  0  0
  8  6  1  6  0  0  0
  8  9  1  0  0  0  0
  8 10  1  0  0  0  0
  9 11  1  0  0  0  0
 10 12  1  1  0  0  0
 10 13  1  0  0  0  0
 11 13  1  0  0  0  0
 12 20  2  0  0  0  0
 12 21  1  0  0  0  0
 13 14  1  6  0  0  0
 14 19  2  0  0  0  0
 15 14  1  1  0  0  0
 15 16  1  0  0  0  0
 15 17  1  0  0  0  0
 16 23  1  0  0  0  0
 17 18  1  0  0  0  0
 18 23  1  0  0  0  0
 21 22  1  0  0  0  0
 23 24  2  0  0  0  0
 24 25  1  0  0  0  0
 24 26  1  0  0  0  0
M  END
$$$$

 OpenBabel10082411353D

 40 50  0  0  0  0  0  0  0  0999 V2000
    8.0806    9.0240  -12.7589 C   0  0  0  0  0  0  0  0  0  0  0  0
    8.6514    7.8645  -12.2948 C   0  0  0  0  0  0  0  0  0  0  0  0
    9.9575    7.9974  -11.8426 C   0  0  0  0  0  0  0  0  0  0  0  0
   10.7657    6.8667  -11.6050 C   0  0  1  0  0  0  0  0  0  0  0  0
   10.7682    5.9590  -12.8271 C   0  0  0  0  0  0  0  0  0  0  0  0
   12.1553    7.3846  -11.2315 C   0  0  0  0  0  0  0  0  0  0  0  0
    8.0676    6.6451  -12.2974 C   0  0  0  0  0  0  0  0  0  0  0  0
   10.1892    6.1240  -10.3860 C   0  0  0  0  0  0  0  0  0  0  0  0
   11.8375    5.4373  -13.3240 O   0  0  0  0  0  0  0  0  0  0  0  0
    8.6785    5.4761  -13.0273 C   0  0  1  0  0  0  0  0  0  0  0  0
    9.1969    5.2405  -10.4969 C   0  0  1  0  0  0  0  0  0  0  0  0
    7.2213    6.2210  -11.3074 C   0  0  1  0  0  0  0  0  0  0  0  0
   12.5590    7.6872   -9.9896 C   0  0  0  0  0  0  0  0  0  0  0  0
    9.7633    5.0333  -12.9720 C   0  0  1  0  0  0  0  0  0  0  0  0
   10.0661    4.0167  -14.0373 N   0  0  0  0  0  0  0  0  0  0  0  0
   13.6906    8.3004   -9.6233 O   0  0  0  0  0  0  0  0  0  0  0  0
    7.6357    4.5123  -12.6317 C   0  0  2  0  0  0  0  0  0  0  0  0
    6.8831    4.9171  -11.7031 C   0  0  1  0  0  0  0  0  0  0  0  0
   10.5937    6.6967   -9.1779 C   0  0  0  0  0  0  0  0  0  0  0  0
    9.5087    4.3263  -11.6925 C   0  0  2  0  0  0  0  0  0  0  0  0
   11.6359    7.4449   -8.9125 C   0  0  0  0  0  0  0  0  0  0  0  0
   11.9716    7.9159   -7.6200 C   0  0  0  0  0  0  0  0  0  0  0  0
    8.4648    3.6122  -12.2840 C   0  0  2  0  0  0  0  0  0  0  0  0
    9.3128    4.5571   -9.1689 C   0  0  0  0  0  0  0  0  0  0  0  0
   10.9557    7.6369   -6.5929 C   0  0  1  0  0  0  0  0  0  0  0  0
    9.6490    2.8108  -13.7776 C   0  0  1  0  0  0  0  0  0  0  0  0
    9.6716    6.1981   -8.0224 C   0  0  2  0  0  0  0  0  0  0  0  0
    8.5511    2.5400  -13.1402 C   0  0  0  0  0  0  0  0  0  0  0  0
    9.7877    2.0302  -15.0383 O   0  0  0  0  0  0  0  0  0  0  0  0
   10.2949    6.3957   -6.8142 C   0  0  0  0  0  0  0  0  0  0  0  0
   11.5672    7.6277   -5.2275 C   0  0  1  0  0  0  0  0  0  0  0  0
    9.0573    5.0713   -8.1077 N   0  0  0  0  0  0  0  0  0  0  0  0
    9.9816    8.7976   -6.5531 C   0  0  0  0  0  0  0  0  0  0  0  0
   11.0000    1.9397  -15.5744 C   0  0  0  0  0  0  0  0  0  0  0  0
    7.9363    5.6537  -10.4961 C   0  0  1  0  0  0  0  0  0  0  0  0
   12.0307    8.8848   -4.6652 C   0  0  0  0  0  0  0  0  0  0  0  0
   10.9126    7.0320   -4.1481 C   0  0  0  0  0  0  0  0  0  0  0  0
   12.3132    9.8861   -5.4591 F   0  0  0  0  0  0  0  0  0  0  0  0
   11.6102    7.6373   -2.9673 C   0  0  0  0  0  0  0  0  0  0  0  0
   12.2247    9.0037   -3.3198 C   0  0  0  0  0  0  0  0  0  0  0  0
  1  2  1  0  0  0  0
  2  3  1  0  0  0  0
  2  7  2  0  0  0  0
  4  3  1  6  0  0  0
  4  5  1  0  0  0  0
  4  6  1  0  0  0  0
  4  8  1  0  0  0  0
  5  9  2  0  0  0  0
  6 13  1  0  0  0  0
  8 11  1  0  0  0  0
  8 19  2  0  0  0  0
 10  7  1  1  0  0  0
 10 14  1  0  0  0  0
 10 17  1  0  0  0  0
 11 20  1  0  0  0  0
 11 24  1  1  0  0  0
 11 35  1  0  0  0  0
 12  7  1  6  0  0  0
 12 18  1  0  0  0  0
 12 35  1  0  0  0  0
 13 16  2  0  0  0  0
 13 21  1  0  0  0  0
 14  5  1  1  0  0  0
 14 15  1  0  0  0  0
 14 20  1  0  0  0  0
 15 26  1  0  0  0  0
 17 18  1  0  0  0  0
 17 23  1  0  0  0  0
 18 35  1  0  0  0  0
 19 21  1  0  0  0  0
 19 27  1  0  0  0  0
 20 23  1  0  0  0  0
 21 22  2  0  0  0  0
 22 25  1  0  0  0  0
 23 28  1  0  0  0  0
 24 32  2  0  0  0  0
 25 30  1  0  0  0  0
 25 31  1  0  0  0  0
 25 33  1  0  0  0  0
 26 28  1  0  0  0  0
 26 29  1  0  0  0  0
 27 30  1  0  0  0  0
 27 32  1  0  0  0  0
 29 34  1  0  0  0  0
 31 36  1  0  0  0  0
 31 37  1  0  0  0  0
 36 38  1  0  0  0  0
 36 40  2  0  0  0  0
 37 39  1  0  0  0  0
 39 40  1  0  0  0  0
M  END
$$$$

 OpenBabel10082411353D

 40 45  0  0  0  0  0  0  0  0999 V2000
   10.9951    9.9694   -4.9946 C   0  0  0  0  0  0  0  0  0  0  0  0
   11.7938    9.3762   -4.2463 C   0  0  0  0  0  0  0  0  0  0  0  0
   10.8673    9.4548   -6.4276 C   0  0  0  0  0  0  0  0  0  0  0  0
   11.6576    7.9117   -4.2944 C   0  0  0  0  0  0  0  0  0  0  0  0
   10.5498    8.0257   -6.4521 C   0  0  0  0  0  0  0  0  0  0  0  0
   11.4715    7.2752   -5.6166 C   0  0  0  0  0  0  0  0  0  0  0  0
   10.5840    7.5390   -7.9254 C   0  0  0  0  0  0  0  0  0  0  0  0
   11.4612    8.1494   -8.8322 C   0  0  0  0  0  0  0  0  0  0  0  0
   12.6250    8.6294   -8.4338 O   0  0  0  0  0  0  0  0  0  0  0  0
   11.0835    8.4395  -10.0740 O   0  0  0  0  0  0  0  0  0  0  0  0
   11.2938    7.5612  -11.0769 C   0  0  0  0  0  0  0  0  0  0  0  0
   10.1547    7.2525  -11.9492 C   0  0  0  0  0  0  0  0  0  0  0  0
   10.4293    6.5622  -13.1348 C   0  0  0  0  0  0  0  0  0  0  0  0
   11.7295    6.4217  -13.6243 C   0  0  0  0  0  0  0  0  0  0  0  0
    8.8120    7.3918  -11.4649 C   0  0  0  0  0  0  0  0  0  0  0  0
   12.5351    7.8894  -11.6869 C   0  0  0  0  0  0  0  0  0  0  0  0
   13.5778    8.4243  -10.9673 O   0  0  0  0  0  0  0  0  0  0  0  0
    7.7211    7.1761  -12.4323 C   0  0  0  0  0  0  0  0  0  0  0  0
   12.8103    7.0723  -12.8897 C   0  0  0  0  0  0  0  0  0  0  0  0
    7.0543    5.9667  -12.3369 C   0  0  0  0  0  0  0  0  0  0  0  0
    7.2392    8.1844  -13.1320 C   0  0  0  0  0  0  0  0  0  0  0  0
    6.6882    5.3848  -13.5016 O   0  0  0  0  0  0  0  0  0  0  0  0
    6.5103    5.5543  -11.3870 O   0  0  0  0  0  0  0  0  0  0  0  0
    7.4031    4.0506  -13.7852 C   0  0  0  0  0  0  0  0  0  0  0  0
    8.6811    3.9966  -14.1333 C   0  0  0  0  0  0  0  0  0  0  0  0
   12.0732    5.6649  -14.9357 C   0  0  0  0  0  0  0  0  0  0  0  0
    6.5842    3.0104  -13.4449 C   0  0  0  0  0  0  0  0  0  0  0  0
   12.1810    6.3505  -15.9550 C   0  0  0  0  0  0  0  0  0  0  0  0
   12.4422    5.6328  -17.1718 C   0  0  0  0  0  0  0  0  0  0  0  0
    5.1615    3.1639  -12.9487 C   0  0  0  0  0  0  0  0  0  0  0  0
   12.4897    4.2439  -17.0738 C   0  0  0  0  0  0  0  0  0  0  0  0
    7.2322    1.7149  -13.5830 C   0  0  0  0  0  0  0  0  0  0  0  0
   12.1774    3.5293  -15.9456 C   0  0  0  0  0  0  0  0  0  0  0  0
    6.3950    0.6096  -13.2209 C   0  0  0  0  0  0  0  0  0  0  0  0
    9.2444    2.7569  -14.2504 C   0  0  0  0  0  0  0  0  0  0  0  0
   10.6485    2.6215  -14.7014 N   0  0  0  0  0  0  0  0  0  0  0  0
   11.8510    4.2990  -14.8237 C   0  0  0  0  0  0  0  0  0  0  0  0
    8.5598    1.5412  -13.8859 C   0  0  0  0  0  0  0  0  0  0  0  0
   11.6573    2.3908  -15.7167 N   0  0  0  0  0  0  0  0  0  0  0  0
   11.2141    3.5644  -13.7619 N   0  0  0  0  0  0  0  0  0  0  0  0
  1  2  1  0  0  0  0
  1  3  1  0  0  0  0
  2  4  1  0  0  0  0
  3  5  1  0  0  0  0
  4  6  1  0  0  0  0
  5  6  1  0  0  0  0
  5  7  1  0  0  0  0
  7  8  1  0  0  0  0
  8  9  2  0  0  0  0
  8 10  1  0  0  0  0
 10 11  1  0  0  0  0
 11 12  1  0  0  0  0
 11 16  2  0  0  0  0
 12 13  2  0  0  0  0
 12 15  1  0  0  0  0
 13 14  1  0  0  0  0
 14 19  2  0  0  0  0
 14 26  1  0  0  0  0
 15 18  1  0  0  0  0
 16 17  1  0  0  0  0
 16 19  1  0  0  0  0
 18 20  1  0  0  0  0
 18 21  2  0  0  0  0
 20 22  1  0  0  0  0
 20 23  2  0  0  0  0
 22 24  1  0  0  0  0
 24 25  1  0  0  0  0
 24 27  2  0  0  0  0
 25 35  2  0  0  0  0
 26 28  2  0  0  0  0
 26 37  1  0  0  0  0
 27 30  1  0  0  0  0
 27 32  1  0  0  0  0
 28 29  1  0  0  0  0
 29 31  2  0  0  0  0
 31 33  1  0  0  0  0
 32 34  1  0  0  0  0
 32 38  2  0  0  0  0
 33 37  2  0  0  0  0
 33 39  1  0  0  0  0
 35 36  1  0  0  0  0
 35 38  1  0  0  0  0
 36 39  1  0  0  0  0
 36 40  1  0  0  0  0
 37 40  1  0  0  0  0
M  END
$$$$

 OpenBabel10082411353D

 40 45  0  0  0  0  0  0  0  0999 V2000
   11.6836    6.0105   -4.8831 C   0  0  0  0  0  0  0  0  0  0  0  0
   11.1291    7.0732   -5.4395 C   0  0  0  0  0  0  0  0  0  0  0  0
   10.6954    7.0156   -6.8073 C   0  0  0  0  0  0  0  0  0  0  0  0
   10.2502    8.1187   -7.5536 C   0  0  2  0  0  0  0  0  0  0  0  0
   11.1205    8.4712   -4.9629 C   0  0  0  0  0  0  0  0  0  0  0  0
   10.8655    8.3511   -8.7960 C   0  0  0  0  0  0  0  0  0  0  0  0
   10.2922    7.8843   -9.9985 C   0  0  0  0  0  0  0  0  0  0  0  0
   10.4654    9.6993   -5.6120 C   0  0  0  0  0  0  0  0  0  0  0  0
   10.3510    9.5971   -7.0014 C   0  0  0  0  0  0  0  0  0  0  0  0
   12.2462    6.3351   -3.5020 C   0  0  0  0  0  0  0  0  0  0  0  0
   11.0471    7.5309  -11.1063 C   0  0  0  0  0  0  0  0  0  0  0  0
   11.7288    8.6923   -3.6518 C   0  0  0  0  0  0  0  0  0  0  0  0
   12.3991    7.7501  -11.1145 C   0  0  0  0  0  0  0  0  0  0  0  0
   12.3738    7.7580   -2.9599 C   0  0  0  0  0  0  0  0  0  0  0  0
   13.1285    8.5075  -10.1661 O   0  0  0  0  0  0  0  0  0  0  0  0
    9.0407    7.3775  -10.0973 N   0  0  0  0  0  0  0  0  0  0  0  0
    8.9787    6.9473  -11.4664 N   0  0  0  0  0  0  0  0  0  0  0  0
   13.1012    7.4459  -12.3707 C   0  0  0  0  0  0  0  0  0  0  0  0
   12.2395    6.9724  -13.2444 C   0  0  0  0  0  0  0  0  0  0  0  0
   10.2768    7.0170  -11.9799 C   0  0  0  0  0  0  0  0  0  0  0  0
   12.9237    6.5822  -14.5759 O   0  0  0  0  0  0  0  0  0  0  0  0
   10.8906    6.6526  -13.2252 C   0  0  0  0  0  0  0  0  0  0  0  0
   12.2396    6.1290  -15.6916 C   0  0  0  0  0  0  0  0  0  0  0  0
    7.8036    6.1825  -11.9342 C   0  0  0  0  0  0  0  0  0  0  0  0
   12.5015    4.7115  -15.7686 C   0  0  0  0  0  0  0  0  0  0  0  0
    7.1685    6.9992  -12.8245 C   0  0  0  0  0  0  0  0  0  0  0  0
   11.2461    3.8540  -15.4851 C   0  0  0  0  0  0  0  0  0  0  0  0
    7.6237    4.9154  -11.6529 C   0  0  0  0  0  0  0  0  0  0  0  0
    6.6378    4.1960  -12.2267 C   0  0  0  0  0  0  0  0  0  0  0  0
    6.2717    2.7675  -11.9743 C   0  0  0  0  0  0  0  0  0  0  0  0
    6.6569    1.8873  -12.9460 C   0  0  0  0  0  0  0  0  0  0  0  0
    7.3895    8.4597  -13.1785 C   0  0  0  0  0  0  0  0  0  0  0  0
    6.3114    0.5653  -12.7247 C   0  0  0  0  0  0  0  0  0  0  0  0
    7.7684    2.0327  -13.9055 C   0  0  0  0  0  0  0  0  0  0  0  0
    8.3733    3.3319  -14.0408 C   0  0  0  0  0  0  0  0  0  0  0  0
    6.7866   -0.4375  -13.6507 C   0  0  0  0  0  0  0  0  0  0  0  0
    9.7818    3.2493  -13.6144 C   0  0  0  0  0  0  0  0  0  0  0  0
   10.8828    3.2959  -14.4776 N   0  0  0  0  0  0  0  0  0  0  0  0
    8.2646    1.0169  -14.5119 C   0  0  0  0  0  0  0  0  0  0  0  0
    7.7171   -0.2726  -14.4536 C   0  0  0  0  0  0  0  0  0  0  0  0
  1  2  1  0  0  0  0
  1 10  2  0  0  0  0
  2  3  1  0  0  0  0
  2  5  2  0  0  0  0
  3  4  1  0  0  0  0
  4  6  1  6  0  0  0
  4  9  1  0  0  0  0
  5  8  1  0  0  0  0
  5 12  1  0  0  0  0
  6  7  1  0  0  0  0
  7 11  1  0  0  0  0
  7 16  2  0  0  0  0
  8  9  1  0  0  0  0
 10 14  1  0  0  0  0
 11 13  2  0  0  0  0
 11 20  1  0  0  0  0
 12 14  2  0  0  0  0
 13 15  1  0  0  0  0
 13 18  1  0  0  0  0
 16 17  1  0  0  0  0
 17 20  1  0  0  0  0
 17 24  1  0  0  0  0
 18 19  2  0  0  0  0
 19 21  1  0  0  0  0
 19 22  1  0  0  0  0
 20 22  2  0  0  0  0
 21 23  1  0  0  0  0
 23 25  1  0  0  0  0
 24 26  2  3  0  0  0
 24 28  1  0  0  0  0
 25 27  1  0  0  0  0
 26 32  1  0  0  0  0
 27 38  1  0  0  0  0
 28 29  2  0  0  0  0
 29 30  1  0  0  0  0
 30 31  1  0  0  0  0
 31 33  2  0  0  0  0
 31 34  1  0  0  0  0
 33 36  1  0  0  0  0
 34 35  1  0  0  0  0
 34 39  2  0  0  0  0
 35 37  1  0  0  0  0
 36 40  2  0  0  0  0
 37 38  2  0  0  0  0
 39 40  1  0  0  0  0
M  END
$$$$

 OpenBabel10082411353D

 40 46  0  0  0  0  0  0  0  0999 V2000
   11.6836    6.0105   -4.8831 C   0  0  0  0  0  0  0  0  0  0  0  0
   11.1291    7.0732   -5.4395 C   0  0  0  0  0  0  0  0  0  0  0  0
   10.6954    7.0156   -6.8073 C   0  0  0  0  0  0  0  0  0  0  0  0
   10.2502    8.1187   -7.5536 C   0  0  2  0  0  0  0  0  0  0  0  0
   11.1205    8.4712   -4.9629 C   0  0  0  0  0  0  0  0  0  0  0  0
   10.8655    8.3511   -8.7960 C   0  0  0  0  0  0  0  0  0  0  0  0
   10.2922    7.8843   -9.9985 C   0  0  0  0  0  0  0  0  0  0  0  0
   10.4654    9.6993   -5.6120 C   0  0  0  0  0  0  0  0  0  0  0  0
   10.3510    9.5971   -7.0014 C   0  0  0  0  0  0  0  0  0  0  0  0
   12.2462    6.3351   -3.5020 C   0  0  0  0  0  0  0  0  0  0  0  0
   11.0471    7.5309  -11.1063 C   0  0  0  0  0  0  0  0  0  0  0  0
   11.7288    8.6923   -3.6518 C   0  0  0  0  0  0  0  0  0  0  0  0
   12.3991    7.7501  -11.1145 C   0  0  0  0  0  0  0  0  0  0  0  0
   12.3738    7.7580   -2.9599 C   0  0  0  0  0  0  0  0  0  0  0  0
   13.1285    8.5075  -10.1661 O   0  0  0  0  0  0  0  0  0  0  0  0
    9.0407    7.3775  -10.0973 N   0  0  0  0  0  0  0  0  0  0  0  0
    8.9787    6.9473  -11.4664 N   0  0  0  0  0  0  0  0  0  0  0  0
   13.1012    7.4459  -12.3707 C   0  0  0  0  0  0  0  0  0  0  0  0
   12.2395    6.9724  -13.2444 C   0  0  0  0  0  0  0  0  0  0  0  0
   10.2768    7.0170  -11.9799 C   0  0  0  0  0  0  0  0  0  0  0  0
   12.9237    6.5822  -14.5759 O   0  0  0  0  0  0  0  0  0  0  0  0
   10.8906    6.6526  -13.2252 C   0  0  0  0  0  0  0  0  0  0  0  0
   12.2396    6.1290  -15.6916 C   0  0  0  0  0  0  0  0  0  0  0  0
    7.8036    6.1825  -11.9342 C   0  0  0  0  0  0  0  0  0  0  0  0
   12.5015    4.7115  -15.7686 C   0  0  0  0  0  0  0  0  0  0  0  0
    7.1685    6.9992  -12.8245 C   0  0  0  0  0  0  0  0  0  0  0  0
   11.2461    3.8540  -15.4851 C   0  0  0  0  0  0  0  0  0  0  0  0
    7.6237    4.9154  -11.6529 C   0  0  0  0  0  0  0  0  0  0  0  0
    6.6378    4.1960  -12.2267 C   0  0  0  0  0  0  0  0  0  0  0  0
    6.2717    2.7675  -11.9743 C   0  0  0  0  0  0  0  0  0  0  0  0
    6.6569    1.8873  -12.9460 C   0  0  0  0  0  0  0  0  0  0  0  0
    6.2393    0.5737  -12.7991 C   0  0  0  0  0  0  0  0  0  0  0  0
    5.8868    6.2205  -13.3605 C   0  0  0  0  0  0  0  0  0  0  0  0
    5.6870    4.9300  -13.0899 C   0  0  0  0  0  0  0  0  0  0  0  0
   10.9648    3.4588  -14.2736 C   0  0  0  0  0  0  0  0  0  0  0  0
    7.5839    2.1963  -13.9850 C   0  0  0  0  0  0  0  0  0  0  0  0
   10.0661    2.5009  -14.0742 C   0  0  0  0  0  0  0  0  0  0  0  0
   10.3196    3.7045  -16.4715 C   0  0  0  0  0  0  0  0  0  0  0  0
    9.0950    3.0434  -16.1514 C   0  0  0  0  0  0  0  0  0  0  0  0
    8.9447    2.4788  -14.8270 C   0  0  0  0  0  0  0  0  0  0  0  0
  1  2  1  0  0  0  0
  1 10  2  0  0  0  0
  2  3  1  0  0  0  0
  2  5  2  0  0  0  0
  3  4  1  0  0  0  0
  4  6  1  6  0  0  0
  4  9  1  0  0  0  0
  5  8  1  0  0  0  0
  5 12  1  0  0  0  0
  6  7  1  0  0  0  0
  7 11  1  0  0  0  0
  7 16  2  0  0  0  0
  8  9  1  0  0  0  0
 10 14  1  0  0  0  0
 11 13  2  0  0  0  0
 11 20  1  0  0  0  0
 12 14  2  0  0  0  0
 13 15  1  0  0  0  0
 13 18  1  0  0  0  0
 16 17  1  0  0  0  0
 17 20  1  0  0  0  0
 17 24  1  0  0  0  0
 18 19  2  0  0  0  0
 19 21  1  0  0  0  0
 19 22  1  0  0  0  0
 20 22  2  0  0  0  0
 21 23  1  0  0  0  0
 23 25  1  0  0  0  0
 24 26  2  0  0  0  0
 24 28  1  0  0  0  0
 25 27  1  0  0  0  0
 26 33  1  0  0  0  0
 27 35  1  0  0  0  0
 27 38  2  0  0  0  0
 28 29  2  0  0  0  0
 29 30  1  0  0  0  0
 29 34  1  0  0  0  0
 30 31  1  0  0  0  0
 31 32  1  0  0  0  0
 31 36  2  0  0  0  0
 33 34  2  0  0  0  0
 35 37  2  0  0  0  0
 36 40  1  0  0  0  0
 37 40  1  0  0  0  0
 38 39  1  0  0  0  0
 39 40  2  0  0  0  0
M  END
$$$$

 OpenBabel10082411353D

 40 45  0  0  0  0  0  0  0  0999 V2000
   11.6836    6.0105   -4.8831 C   0  0  0  0  0  0  0  0  0  0  0  0
   11.1291    7.0732   -5.4395 C   0  0  0  0  0  0  0  0  0  0  0  0
   10.6954    7.0156   -6.8073 C   0  0  0  0  0  0  0  0  0  0  0  0
   10.2502    8.1187   -7.5536 C   0  0  2  0  0  0  0  0  0  0  0  0
   11.1205    8.4712   -4.9629 C   0  0  0  0  0  0  0  0  0  0  0  0
   10.8655    8.3511   -8.7960 C   0  0  0  0  0  0  0  0  0  0  0  0
   10.2922    7.8843   -9.9985 C   0  0  0  0  0  0  0  0  0  0  0  0
   10.4654    9.6993   -5.6120 C   0  0  0  0  0  0  0  0  0  0  0  0
   10.3510    9.5971   -7.0014 C   0  0  0  0  0  0  0  0  0  0  0  0
   12.2462    6.3351   -3.5020 C   0  0  0  0  0  0  0  0  0  0  0  0
   11.0471    7.5309  -11.1063 C   0  0  0  0  0  0  0  0  0  0  0  0
   11.7288    8.6923   -3.6518 C   0  0  0  0  0  0  0  0  0  0  0  0
   12.3991    7.7501  -11.1145 C   0  0  0  0  0  0  0  0  0  0  0  0
   12.3738    7.7580   -2.9599 C   0  0  0  0  0  0  0  0  0  0  0  0
   13.1285    8.5075  -10.1661 O   0  0  0  0  0  0  0  0  0  0  0  0
    9.0407    7.3775  -10.0973 N   0  0  0  0  0  0  0  0  0  0  0  0
    8.9787    6.9473  -11.4664 N   0  0  0  0  0  0  0  0  0  0  0  0
   13.1012    7.4459  -12.3707 C   0  0  0  0  0  0  0  0  0  0  0  0
   12.2395    6.9724  -13.2444 C   0  0  0  0  0  0  0  0  0  0  0  0
   10.2768    7.0170  -11.9799 C   0  0  0  0  0  0  0  0  0  0  0  0
   12.9237    6.5822  -14.5759 O   0  0  0  0  0  0  0  0  0  0  0  0
   10.8906    6.6526  -13.2252 C   0  0  0  0  0  0  0  0  0  0  0  0
   12.2396    6.1290  -15.6916 C   0  0  0  0  0  0  0  0  0  0  0  0
    7.8036    6.1825  -11.9342 C   0  0  0  0  0  0  0  0  0  0  0  0
   12.5015    4.7115  -15.7686 C   0  0  0  0  0  0  0  0  0  0  0  0
    7.1685    6.9992  -12.8245 C   0  0  0  0  0  0  0  0  0  0  0  0
   11.2461    3.8540  -15.4851 C   0  0  0  0  0  0  0  0  0  0  0  0
    7.6237    4.9154  -11.6529 C   0  0  0  0  0  0  0  0  0  0  0  0
    6.6378    4.1960  -12.2267 C   0  0  0  0  0  0  0  0  0  0  0  0
    6.2717    2.7675  -11.9743 C   0  0  0  0  0  0  0  0  0  0  0  0
    6.6569    1.8873  -12.9460 C   0  0  0  0  0  0  0  0  0  0  0  0
    7.3895    8.4597  -13.1785 C   0  0  0  0  0  0  0  0  0  0  0  0
    6.3114    0.5653  -12.7247 C   0  0  0  0  0  0  0  0  0  0  0  0
    7.7684    2.0327  -13.9055 C   0  0  0  0  0  0  0  0  0  0  0  0
    8.3733    3.3319  -14.0408 C   0  0  0  0  0  0  0  0  0  0  0  0
    8.0134    0.8891  -14.4784 C   0  0  0  0  0  0  0  0  0  0  0  0
    7.0228   -0.2847  -13.8654 S   0  0  0  0  0  0  0  0  0  0  0  0
   11.3192    2.6031  -15.6481 O   0  0  0  0  0  0  0  0  0  0  0  0
   10.0990    4.5313  -15.3934 N   0  0  0  0  0  0  0  0  0  0  0  0
    8.8026    3.8389  -15.2112 C   0  0  0  0  0  0  0  0  0  0  0  0
  1  2  1  0  0  0  0
  1 10  2  0  0  0  0
  2  3  1  0  0  0  0
  2  5  2  0  0  0  0
  3  4  1  0  0  0  0
  4  6  1  6  0  0  0
  4  9  1  0  0  0  0
  5  8  1  0  0  0  0
  5 12  1  0  0  0  0
  6  7  1  0  0  0  0
  7 11  1  0  0  0  0
  7 16  2  0  0  0  0
  8  9  1  0  0  0  0
 10 14  1  0  0  0  0
 11 13  2  0  0  0  0
 11 20  1  0  0  0  0
 12 14  2  0  0  0  0
 13 15  1  0  0  0  0
 13 18  1  0  0  0  0
 16 17  1  0  0  0  0
 17 20  1  0  0  0  0
 17 24  1  0  0  0  0
 18 19  2  0  0  0  0
 19 21  1  0  0  0  0
 19 22  1  0  0  0  0
 20 22  2  0  0  0  0
 21 23  1  0  0  0  0
 23 25  1  0  0  0  0
 24 26  2  3  0  0  0
 24 28  1  0  0  0  0
 25 27  1  0  0  0  0
 26 32  1  0  0  0  0
 27 38  2  0  0  0  0
 27 39  1  0  0  0  0
 28 29  2  0  0  0  0
 29 30  1  0  0  0  0
 30 31  1  0  0  0  0
 31 33  2  0  0  0  0
 31 34  1  0  0  0  0
 33 37  1  0  0  0  0
 34 35  1  0  0  0  0
 34 36  2  0  0  0  0
 35 40  1  0  0  0  0
 36 37  1  0  0  0  0
 39 40  1  0  0  0  0
M  END
$$$$

 OpenBabel10082411353D

 40 44  0  0  0  0  0  0  0  0999 V2000
   10.9951    9.9694   -4.9946 C   0  0  0  0  0  0  0  0  0  0  0  0
   11.7938    9.3762   -4.2463 C   0  0  0  0  0  0  0  0  0  0  0  0
   10.8673    9.4548   -6.4276 C   0  0  0  0  0  0  0  0  0  0  0  0
   11.6576    7.9117   -4.2944 C   0  0  0  0  0  0  0  0  0  0  0  0
   10.5498    8.0257   -6.4521 C   0  0  0  0  0  0  0  0  0  0  0  0
   11.4715    7.2752   -5.6166 C   0  0  0  0  0  0  0  0  0  0  0  0
   10.5840    7.5390   -7.9254 C   0  0  0  0  0  0  0  0  0  0  0  0
   11.4612    8.1494   -8.8322 C   0  0  0  0  0  0  0  0  0  0  0  0
   12.6250    8.6294   -8.4338 O   0  0  0  0  0  0  0  0  0  0  0  0
   11.0835    8.4395  -10.0740 O   0  0  0  0  0  0  0  0  0  0  0  0
   11.2938    7.5612  -11.0769 C   0  0  0  0  0  0  0  0  0  0  0  0
   10.1547    7.2525  -11.9492 C   0  0  0  0  0  0  0  0  0  0  0  0
   10.4293    6.5622  -13.1348 C   0  0  0  0  0  0  0  0  0  0  0  0
   11.7295    6.4217  -13.6243 C   0  0  0  0  0  0  0  0  0  0  0  0
    8.8120    7.3918  -11.4649 C   0  0  0  0  0  0  0  0  0  0  0  0
   12.5351    7.8894  -11.6869 C   0  0  0  0  0  0  0  0  0  0  0  0
   13.5778    8.4243  -10.9673 O   0  0  0  0  0  0  0  0  0  0  0  0
    7.7211    7.1761  -12.4323 C   0  0  0  0  0  0  0  0  0  0  0  0
   12.8103    7.0723  -12.8897 C   0  0  0  0  0  0  0  0  0  0  0  0
    7.0543    5.9667  -12.3369 C   0  0  0  0  0  0  0  0  0  0  0  0
    7.2392    8.1844  -13.1320 C   0  0  0  0  0  0  0  0  0  0  0  0
    6.6882    5.3848  -13.5016 O   0  0  0  0  0  0  0  0  0  0  0  0
    6.5103    5.5543  -11.3870 O   0  0  0  0  0  0  0  0  0  0  0  0
    7.4031    4.0506  -13.7852 C   0  0  0  0  0  0  0  0  0  0  0  0
    8.6811    3.9966  -14.1333 C   0  0  0  0  0  0  0  0  0  0  0  0
   12.0732    5.6649  -14.9357 C   0  0  0  0  0  0  0  0  0  0  0  0
    6.5842    3.0104  -13.4449 C   0  0  0  0  0  0  0  0  0  0  0  0
   12.1810    6.3505  -15.9550 C   0  0  0  0  0  0  0  0  0  0  0  0
   12.4265    5.3943  -17.1098 C   0  0  0  0  0  0  0  0  0  0  0  0
   12.0808    4.3115  -14.6805 C   0  0  0  0  0  0  0  0  0  0  0  0
    5.1772    3.2038  -12.9749 C   0  0  0  0  0  0  0  0  0  0  0  0
   11.7401    3.5786  -13.4028 C   0  0  0  0  0  0  0  0  0  0  0  0
   12.6689    6.2031  -18.3172 O   0  0  0  0  0  0  0  0  0  0  0  0
    7.2335    1.7472  -13.7003 C   0  0  0  0  0  0  0  0  0  0  0  0
    6.3457    0.6491  -13.3147 C   0  0  0  0  0  0  0  0  0  0  0  0
    9.2302    2.7981  -14.2905 C   0  0  0  0  0  0  0  0  0  0  0  0
   12.0331    3.5918  -15.8467 C   0  0  0  0  0  0  0  0  0  0  0  0
   12.3095    4.1631  -17.0486 C   0  0  0  0  0  0  0  0  0  0  0  0
    8.5049    1.6778  -14.0141 C   0  0  0  0  0  0  0  0  0  0  0  0
   10.7420    2.4163  -14.1123 C   0  0  0  0  0  0  0  0  0  0  0  0
  1  2  1  0  0  0  0
  1  3  1  0  0  0  0
  2  4  1  0  0  0  0
  3  5  1  0  0  0  0
  4  6  1  0  0  0  0
  5  6  1  0  0  0  0
  5  7  1  0  0  0  0
  7  8  1  0  0  0  0
  8  9  2  0  0  0  0
  8 10  1  0  0  0  0
 10 11  1  0  0  0  0
 11 12  1  0  0  0  0
 11 16  2  0  0  0  0
 12 13  2  0  0  0  0
 12 15  1  0  0  0  0
 13 14  1  0  0  0  0
 14 19  2  0  0  0  0
 14 26  1  0  0  0  0
 15 18  1  0  0  0  0
 16 17  1  0  0  0  0
 16 19  1  0  0  0  0
 18 20  1  0  0  0  0
 18 21  2  0  0  0  0
 20 22  1  0  0  0  0
 20 23  2  0  0  0  0
 22 24  1  0  0  0  0
 24 25  1  0  0  0  0
 24 27  2  0  0  0  0
 25 36  2  0  0  0  0
 26 28  2  0  0  0  0
 26 30  1  0  0  0  0
 27 31  1  0  0  0  0
 27 34  1  0  0  0  0
 28 29  1  0  0  0  0
 29 33  1  0  0  0  0
 29 38  2  0  0  0  0
 30 32  1  0  0  0  0
 30 37  2  0  0  0  0
 32 40  1  0  0  0  0
 34 35  1  0  0  0  0
 34 39  2  0  0  0  0
 36 39  1  0  0  0  0
 36 40  1  0  0  0  0
 37 38  1  0  0  0  0
M  END
$$$$

 OpenBabel10082411353D

 40 45  0  0  0  0  0  0  0  0999 V2000
   11.6836    6.0105   -4.8831 C   0  0  0  0  0  0  0  0  0  0  0  0
   11.1291    7.0732   -5.4395 C   0  0  0  0  0  0  0  0  0  0  0  0
   10.6954    7.0156   -6.8073 C   0  0  0  0  0  0  0  0  0  0  0  0
   10.2502    8.1187   -7.5536 C   0  0  2  0  0  0  0  0  0  0  0  0
   11.1205    8.4712   -4.9629 C   0  0  0  0  0  0  0  0  0  0  0  0
   10.8655    8.3511   -8.7960 C   0  0  0  0  0  0  0  0  0  0  0  0
   10.2922    7.8843   -9.9985 C   0  0  0  0  0  0  0  0  0  0  0  0
   10.4654    9.6993   -5.6120 C   0  0  0  0  0  0  0  0  0  0  0  0
   10.3510    9.5971   -7.0014 C   0  0  0  0  0  0  0  0  0  0  0  0
   12.2462    6.3351   -3.5020 C   0  0  0  0  0  0  0  0  0  0  0  0
   11.0471    7.5309  -11.1063 C   0  0  0  0  0  0  0  0  0  0  0  0
   11.7288    8.6923   -3.6518 C   0  0  0  0  0  0  0  0  0  0  0  0
   12.3991    7.7501  -11.1145 C   0  0  0  0  0  0  0  0  0  0  0  0
   12.3738    7.7580   -2.9599 C   0  0  0  0  0  0  0  0  0  0  0  0
   13.1285    8.5075  -10.1661 O   0  0  0  0  0  0  0  0  0  0  0  0
    9.0407    7.3775  -10.0973 N   0  0  0  0  0  0  0  0  0  0  0  0
    8.9787    6.9473  -11.4664 N   0  0  0  0  0  0  0  0  0  0  0  0
   13.1012    7.4459  -12.3707 C   0  0  0  0  0  0  0  0  0  0  0  0
   12.2395    6.9724  -13.2444 C   0  0  0  0  0  0  0  0  0  0  0  0
   10.2768    7.0170  -11.9799 C   0  0  0  0  0  0  0  0  0  0  0  0
   12.9237    6.5822  -14.5759 O   0  0  0  0  0  0  0  0  0  0  0  0
   10.8906    6.6526  -13.2252 C   0  0  0  0  0  0  0  0  0  0  0  0
   12.2396    6.1290  -15.6916 C   0  0  0  0  0  0  0  0  0  0  0  0
    7.8036    6.1825  -11.9342 C   0  0  0  0  0  0  0  0  0  0  0  0
   12.5015    4.7115  -15.7686 C   0  0  0  0  0  0  0  0  0  0  0  0
    7.1685    6.9992  -12.8245 C   0  0  0  0  0  0  0  0  0  0  0  0
   11.2461    3.8540  -15.4851 C   0  0  0  0  0  0  0  0  0  0  0  0
    7.6237    4.9154  -11.6529 C   0  0  0  0  0  0  0  0  0  0  0  0
    6.6378    4.1960  -12.2267 C   0  0  0  0  0  0  0  0  0  0  0  0
    6.2717    2.7675  -11.9743 C   0  0  0  0  0  0  0  0  0  0  0  0
    6.6569    1.8873  -12.9460 C   0  0  0  0  0  0  0  0  0  0  0  0
    7.3895    8.4597  -13.1785 C   0  0  0  0  0  0  0  0  0  0  0  0
    6.3114    0.5653  -12.7247 C   0  0  0  0  0  0  0  0  0  0  0  0
    7.7684    2.0327  -13.9055 C   0  0  0  0  0  0  0  0  0  0  0  0
    8.3733    3.3319  -14.0408 C   0  0  0  0  0  0  0  0  0  0  0  0
    8.0134    0.8891  -14.4784 C   0  0  0  0  0  0  0  0  0  0  0  0
    7.0228   -0.2847  -13.8654 S   0  0  0  0  0  0  0  0  0  0  0  0
   11.3192    2.6031  -15.6481 O   0  0  0  0  0  0  0  0  0  0  0  0
   10.0990    4.5313  -15.3934 N   0  0  0  0  0  0  0  0  0  0  0  0
    8.9689    3.9458  -14.7773 C   0  0  0  0  0  0  0  0  0  0  0  0
  1  2  1  0  0  0  0
  1 10  2  0  0  0  0
  2  3  1  0  0  0  0
  2  5  2  0  0  0  0
  3  4  1  0  0  0  0
  4  6  1  6  0  0  0
  4  9  1  0  0  0  0
  5  8  1  0  0  0  0
  5 12  1  0  0  0  0
  6  7  1  0  0  0  0
  7 11  1  0  0  0  0
  7 16  2  0  0  0  0
  8  9  1  0  0  0  0
 10 14  1  0  0  0  0
 11 13  2  0  0  0  0
 11 20  1  0  0  0  0
 12 14  2  0  0  0  0
 13 15  1  0  0  0  0
 13 18  1  0  0  0  0
 16 17  1  0  0  0  0
 17 20  1  0  0  0  0
 17 24  1  0  0  0  0
 18 19  2  0  0  0  0
 19 21  1  0  0  0  0
 19 22  1  0  0  0  0
 20 22  2  0  0  0  0
 21 23  1  0  0  0  0
 23 25  1  0  0  0  0
 24 26  2  3  0  0  0
 24 28  1  0  0  0  0
 25 27  1  0  0  0  0
 26 32  1  0  0  0  0
 27 38  2  0  0  0  0
 27 39  1  0  0  0  0
 28 29  2  0  0  0  0
 29 30  1  0  0  0  0
 30 31  1  0  0  0  0
 31 33  2  0  0  0  0
 31 34  1  0  0  0  0
 33 37  1  0  0  0  0
 34 35  1  0  0  0  0
 34 36  2  0  0  0  0
 35 40  2  0  0  0  0
 36 37  1  0  0  0  0
 39 40  1  0  0  0  0
M  END
$$$$

 OpenBabel10082411353D

 40 45  0  0  0  0  0  0  0  0999 V2000
   11.6836    6.0105   -4.8831 F   0  0  0  0  0  0  0  0  0  0  0  0
   11.2562    7.2206   -5.0294 C   0  0  0  0  0  0  0  0  0  0  0  0
   12.0125    8.2418   -4.4408 C   0  0  0  0  0  0  0  0  0  0  0  0
   11.1918    7.2706   -6.5237 C   0  0  0  0  0  0  0  0  0  0  0  0
   11.6999    8.4488   -3.1704 F   0  0  0  0  0  0  0  0  0  0  0  0
    9.8648    7.0908   -4.5314 F   0  0  0  0  0  0  0  0  0  0  0  0
   11.6831    8.5291   -6.9682 C   0  0  0  0  0  0  0  0  0  0  0  0
   10.4785    6.5189   -7.4033 C   0  0  0  0  0  0  0  0  0  0  0  0
   11.6979    8.6661   -8.4760 C   0  0  0  0  0  0  0  0  0  0  0  0
   11.6248    9.5853   -5.0030 C   0  0  0  0  0  0  0  0  0  0  0  0
   11.8604    9.7907   -6.2903 O   0  0  0  0  0  0  0  0  0  0  0  0
   13.3557    8.1748   -4.5947 F   0  0  0  0  0  0  0  0  0  0  0  0
   10.5427    6.6061   -8.7190 C   0  0  0  0  0  0  0  0  0  0  0  0
   11.1158    7.7103   -9.2540 C   0  0  0  0  0  0  0  0  0  0  0  0
   11.3757    7.6656  -10.5293 N   0  0  0  0  0  0  0  0  0  0  0  0
   10.7153    7.7096  -11.5405 C   0  0  0  0  0  0  0  0  0  0  0  0
   11.2483    7.4711  -12.8542 C   0  0  0  0  0  0  0  0  0  0  0  0
    9.3980    7.7820  -11.5398 C   0  0  0  0  0  0  0  0  0  0  0  0
    8.6055    7.5889  -12.6525 C   0  0  0  0  0  0  0  0  0  0  0  0
   12.7508    7.3705  -13.0162 O   0  0  0  0  0  0  0  0  0  0  0  0
   10.5299    7.1831  -13.9856 C   0  0  0  0  0  0  0  0  0  0  0  0
    7.0533    7.7371  -12.5396 C   0  0  0  0  0  0  0  0  0  0  0  0
   11.2041    6.8490  -15.2304 C   0  0  0  0  0  0  0  0  0  0  0  0
   11.6393    5.5333  -15.3864 C   0  0  0  0  0  0  0  0  0  0  0  0
    9.1955    7.2935  -13.8301 C   0  0  0  0  0  0  0  0  0  0  0  0
   12.5294    5.1116  -16.1609 C   0  0  0  0  0  0  0  0  0  0  0  0
   11.2315    4.4703  -14.3200 C   0  0  0  0  0  0  0  0  0  0  0  0
   10.2844    4.5821  -13.3000 C   0  0  0  0  0  0  0  0  0  0  0  0
   11.6270    3.1866  -14.6052 C   0  0  0  0  0  0  0  0  0  0  0  0
    9.0868    3.8289  -13.3080 C   0  0  0  0  0  0  0  0  0  0  0  0
    8.1007    4.0948  -12.4103 C   0  0  0  0  0  0  0  0  0  0  0  0
    6.8410    3.6347  -12.6829 C   0  0  0  0  0  0  0  0  0  0  0  0
    6.7154    2.6437  -13.7684 C   0  0  0  0  0  0  0  0  0  0  0  0
   11.0823    2.0862  -13.7648 C   0  0  0  0  0  0  0  0  0  0  0  0
   12.4114    2.9184  -15.6196 C   0  0  0  0  0  0  0  0  0  0  0  0
    7.7737    2.1533  -14.3623 C   0  0  0  0  0  0  0  0  0  0  0  0
    9.0828    2.6814  -14.0389 C   0  0  0  0  0  0  0  0  0  0  0  0
   12.9314    6.1800  -17.0811 O   0  0  0  0  0  0  0  0  0  0  0  0
   12.8926    3.9194  -16.3376 C   0  0  0  0  0  0  0  0  0  0  0  0
   10.0178    1.7878  -14.1878 N   0  0  0  0  0  0  0  0  0  0  0  0
  1  2  1  0  0  0  0
  2  3  1  0  0  0  0
  2  4  1  0  0  0  0
  2  6  1  0  0  0  0
  3  5  1  0  0  0  0
  3 10  1  0  0  0  0
  3 12  1  0  0  0  0
  4  7  1  0  0  0  0
  4  8  2  0  0  0  0
  7  9  2  0  0  0  0
  7 11  1  0  0  0  0
  8 13  1  0  0  0  0
  9 14  1  0  0  0  0
 10 11  1  0  0  0  0
 13 14  2  0  0  0  0
 14 15  1  0  0  0  0
 15 16  1  0  0  0  0
 16 17  1  0  0  0  0
 16 18  2  0  0  0  0
 17 20  1  0  0  0  0
 17 21  2  0  0  0  0
 18 19  1  0  0  0  0
 19 22  1  0  0  0  0
 19 25  2  0  0  0  0
 21 23  1  0  0  0  0
 21 25  1  0  0  0  0
 23 24  1  0  0  0  0
 24 26  2  0  0  0  0
 24 27  1  0  0  0  0
 26 38  1  0  0  0  0
 26 39  1  0  0  0  0
 27 28  1  0  0  0  0
 27 29  2  0  0  0  0
 28 30  2  0  0  0  0
 29 34  1  0  0  0  0
 29 35  1  0  0  0  0
 30 31  1  0  0  0  0
 30 37  1  0  0  0  0
 31 32  2  0  0  0  0
 32 33  1  0  0  0  0
 33 36  2  0  0  0  0
 34 40  1  0  0  0  0
 35 39  2  0  0  0  0
 36 37  1  0  0  0  0
 37 40  2  0  0  0  0
M  END
$$$$

 OpenBabel10082411353D

 40 47  0  0  0  0  0  0  0  0999 V2000
   12.7863    7.8241  -14.2109 C   0  0  0  0  0  0  0  0  0  0  0  0
   12.4233    7.7158  -13.0289 C   0  0  0  0  0  0  0  0  0  0  0  0
   11.3194    6.8571  -12.8028 C   0  0  0  0  0  0  0  0  0  0  0  0
   12.3150    7.2021  -15.3582 C   0  0  0  0  0  0  0  0  0  0  0  0
   11.2733    6.2739  -15.1502 C   0  0  0  0  0  0  0  0  0  0  0  0
   10.8099    6.0126  -13.8600 C   0  0  0  0  0  0  0  0  0  0  0  0
    9.6782    5.1428  -13.6488 C   0  0  0  0  0  0  0  0  0  0  0  0
    8.5753    5.3880  -12.9589 N   0  0  0  0  0  0  0  0  0  0  0  0
    8.3226    6.7011  -12.3862 C   0  0  0  0  0  0  0  0  0  0  0  0
    9.8502    3.8578  -14.0728 C   0  0  0  0  0  0  0  0  0  0  0  0
    7.3864    7.4720  -13.0530 C   0  0  0  0  0  0  0  0  0  0  0  0
    6.2412    7.8486  -12.2599 C   0  0  0  0  0  0  0  0  0  0  0  0
    7.6425    4.4186  -12.7943 C   0  0  0  0  0  0  0  0  0  0  0  0
   11.0297    3.2482  -14.8053 C   0  0  0  0  0  0  0  0  0  0  0  0
    8.6802    2.8955  -13.7960 C   0  0  0  0  0  0  0  0  0  0  0  0
    8.8565    1.5917  -14.3582 O   0  0  0  0  0  0  0  0  0  0  0  0
    7.6903    3.2226  -13.1994 N   0  0  0  0  0  0  0  0  0  0  0  0
    6.5724    2.3444  -12.8378 C   0  0  0  0  0  0  0  0  0  0  0  0
    9.0225    7.0353  -11.3259 C   0  0  0  0  0  0  0  0  0  0  0  0
    6.2405    4.8489  -12.4515 C   0  0  0  0  0  0  0  0  0  0  0  0
   10.5875    7.0617  -11.5321 C   0  0  0  0  0  0  0  0  0  0  0  0
   11.0960    7.6093  -10.4100 C   0  0  0  0  0  0  0  0  0  0  0  0
    8.4039    7.3336  -10.1102 C   0  0  0  0  0  0  0  0  0  0  0  0
    5.5911    3.3517  -12.3508 C   0  0  0  0  0  0  0  0  0  0  0  0
   12.6259    7.6530  -10.3901 C   0  0  0  0  0  0  0  0  0  0  0  0
   10.4284    7.7784   -9.2128 C   0  0  1  0  0  0  0  0  0  0  0  0
    9.2236    7.5051   -9.0617 C   0  0  2  0  0  0  0  0  0  0  0  0
    8.7145    7.3063   -7.7135 N   0  0  2  0  0  0  0  0  0  0  0  0
   11.0621    7.5242   -7.8430 C   0  0  1  0  0  0  0  0  0  0  0  0
   12.0213    8.4787   -7.3268 C   0  0  0  0  0  0  0  0  0  0  0  0
   13.1241    8.0749  -11.7293 C   0  0  0  0  0  0  0  0  0  0  0  0
   12.0504    9.6950   -7.9009 O   0  0  0  0  0  0  0  0  0  0  0  0
    9.8858    7.2444   -6.9594 C   0  0  2  0  0  0  0  0  0  0  0  0
    9.9777    5.9996   -6.3117 C   0  0  2  0  0  0  0  0  0  0  0  0
    8.9391    5.1621   -6.4362 C   0  0  2  0  0  0  0  0  0  0  0  0
   12.5667    8.4703   -6.0695 N   0  0  0  0  0  0  0  0  0  0  0  0
   13.2600    9.5871   -5.4885 C   0  0  0  0  0  0  0  0  0  0  0  0
   10.2457    6.1760   -4.8811 O   0  0  0  0  0  0  0  0  0  0  0  0
    8.0368    6.0144   -7.2648 C   0  0  0  0  0  0  0  0  0  0  0  0
    8.2038    4.5569   -5.4747 O   0  0  0  0  0  0  0  0  0  0  0  0
  1  2  2  0  0  0  0
  1  4  1  0  0  0  0
  2  3  1  0  0  0  0
  2 31  1  0  0  0  0
  3  6  2  0  0  0  0
  3 21  1  0  0  0  0
  4  5  2  0  0  0  0
  5  6  1  0  0  0  0
  6  7  1  0  0  0  0
  7  8  1  0  0  0  0
  7 10  2  0  0  0  0
  8  9  1  0  0  0  0
  8 13  1  0  0  0  0
  9 11  1  0  0  0  0
  9 19  2  0  0  0  0
 10 14  1  0  0  0  0
 10 15  1  0  0  0  0
 11 12  1  0  0  0  0
 13 17  1  0  0  0  0
 13 20  2  0  0  0  0
 15 16  2  0  0  0  0
 15 17  1  0  0  0  0
 17 18  1  0  0  0  0
 18 24  1  0  0  0  0
 19 21  1  0  0  0  0
 19 23  1  0  0  0  0
 20 24  1  0  0  0  0
 21 22  2  0  0  0  0
 22 25  1  0  0  0  0
 25 31  2  0  0  0  0
 26 22  1  6  0  0  0
 26 27  1  0  0  0  0
 26 29  1  0  0  0  0
 27 23  1  6  0  0  0
 27 28  1  0  0  0  0
 28 33  1  0  0  0  0
 28 39  1  6  0  0  0
 29 30  1  1  0  0  0
 29 33  1  0  0  0  0
 30 32  2  0  0  0  0
 30 36  1  0  0  0  0
 33 34  1  0  0  0  0
 34 35  1  0  0  0  0
 34 38  1  0  0  0  0
 35 39  1  0  0  0  0
 35 40  1  0  0  0  0
 36 37  1  0  0  0  0
M  END
$$$$

 OpenBabel10082411353D

 40 46  0  0  0  0  0  0  0  0999 V2000
   11.6836    6.0105   -4.8831 F   0  0  0  0  0  0  0  0  0  0  0  0
   11.2562    7.2206   -5.0294 C   0  0  0  0  0  0  0  0  0  0  0  0
   12.0125    8.2418   -4.4408 C   0  0  0  0  0  0  0  0  0  0  0  0
   11.1918    7.2706   -6.5237 C   0  0  0  0  0  0  0  0  0  0  0  0
   11.6999    8.4488   -3.1704 F   0  0  0  0  0  0  0  0  0  0  0  0
    9.8648    7.0908   -4.5314 F   0  0  0  0  0  0  0  0  0  0  0  0
   11.6831    8.5291   -6.9682 C   0  0  0  0  0  0  0  0  0  0  0  0
   10.4785    6.5189   -7.4033 C   0  0  0  0  0  0  0  0  0  0  0  0
   11.6979    8.6661   -8.4760 C   0  0  0  0  0  0  0  0  0  0  0  0
   11.6248    9.5853   -5.0030 C   0  0  0  0  0  0  0  0  0  0  0  0
   11.8604    9.7907   -6.2903 O   0  0  0  0  0  0  0  0  0  0  0  0
   13.3557    8.1748   -4.5947 F   0  0  0  0  0  0  0  0  0  0  0  0
   10.5427    6.6061   -8.7190 C   0  0  0  0  0  0  0  0  0  0  0  0
   11.1158    7.7103   -9.2540 C   0  0  0  0  0  0  0  0  0  0  0  0
   11.3757    7.6656  -10.5293 N   0  0  0  0  0  0  0  0  0  0  0  0
   10.7153    7.7096  -11.5405 C   0  0  0  0  0  0  0  0  0  0  0  0
   11.2483    7.4711  -12.8542 C   0  0  0  0  0  0  0  0  0  0  0  0
    9.3980    7.7820  -11.5398 C   0  0  0  0  0  0  0  0  0  0  0  0
    8.6055    7.5889  -12.6525 C   0  0  0  0  0  0  0  0  0  0  0  0
   12.7508    7.3705  -13.0162 O   0  0  0  0  0  0  0  0  0  0  0  0
   10.5299    7.1831  -13.9856 C   0  0  0  0  0  0  0  0  0  0  0  0
    7.0533    7.7371  -12.5396 C   0  0  0  0  0  0  0  0  0  0  0  0
   11.2041    6.8490  -15.2304 C   0  0  0  0  0  0  0  0  0  0  0  0
   11.6393    5.5333  -15.3864 C   0  0  0  0  0  0  0  0  0  0  0  0
    9.1955    7.2935  -13.8301 C   0  0  0  0  0  0  0  0  0  0  0  0
   12.5294    5.1116  -16.1609 C   0  0  0  0  0  0  0  0  0  0  0  0
   11.2315    4.4703  -14.3200 C   0  0  0  0  0  0  0  0  0  0  0  0
   10.2844    4.5821  -13.3000 C   0  0  0  0  0  0  0  0  0  0  0  0
   11.6270    3.1866  -14.6052 C   0  0  0  0  0  0  0  0  0  0  0  0
    9.0868    3.8289  -13.3080 C   0  0  0  0  0  0  0  0  0  0  0  0
   11.3420    2.7039  -15.8535 C   0  0  0  0  0  0  0  0  0  0  0  0
   12.3848    3.5242  -16.4737 C   0  0  0  0  0  0  0  0  0  0  0  0
    8.2189    3.9688  -12.1830 C   0  0  0  0  0  0  0  0  0  0  0  0
    8.4341    4.6700  -11.1010 C   0  0  0  0  0  0  0  0  0  0  0  0
    9.7276    5.5381   -9.3640 C   0  0  0  0  0  0  0  0  0  0  0  0
    9.5735    5.1732  -10.6898 C   0  0  0  0  0  0  0  0  0  0  0  0
   10.5009    5.1757  -11.9313 C   0  0  0  0  0  0  0  0  0  0  0  0
    8.9307    4.7754   -8.5818 N   0  0  0  0  0  0  0  0  0  0  0  0
    7.8314    4.4220   -9.1769 N   0  0  0  0  0  0  0  0  0  0  0  0
    7.6020    4.3493  -10.2837 N   0  0  0  0  0  0  0  0  0  0  0  0
  1  2  1  0  0  0  0
  2  3  1  0  0  0  0
  2  4  1  0  0  0  0
  2  6  1  0  0  0  0
  3  5  1  0  0  0  0
  3 10  1  0  0  0  0
  3 12  1  0  0  0  0
  4  7  1  0  0  0  0
  4  8  2  0  0  0  0
  7  9  2  0  0  0  0
  7 11  1  0  0  0  0
  8 13  1  0  0  0  0
  9 14  1  0  0  0  0
 10 11  1  0  0  0  0
 13 14  2  0  0  0  0
 13 35  1  0  0  0  0
 14 15  1  0  0  0  0
 15 16  1  0  0  0  0
 16 17  1  0  0  0  0
 16 18  2  0  0  0  0
 17 20  1  0  0  0  0
 17 21  2  0  0  0  0
 18 19  1  0  0  0  0
 19 22  1  0  0  0  0
 19 25  2  0  0  0  0
 21 23  1  0  0  0  0
 21 25  1  0  0  0  0
 23 24  1  0  0  0  0
 24 26  2  0  0  0  0
 24 27  1  0  0  0  0
 26 32  1  0  0  0  0
 27 28  1  0  0  0  0
 27 29  2  0  0  0  0
 28 30  2  0  0  0  0
 28 37  1  0  0  0  0
 29 31  1  0  0  0  0
 30 33  1  0  0  0  0
 31 32  1  0  0  0  0
 33 34  2  0  0  0  0
 34 36  1  0  0  0  0
 34 40  1  0  0  0  0
 35 36  1  0  0  0  0
 35 38  2  0  0  0  0
 36 37  2  0  0  0  0
 38 39  1  0  0  0  0
 39 40  2  0  0  0  0
M  END
$$$$

 OpenBabel10082411353D

 26 28  0  0  0  0  0  0  0  0999 V2000
   12.7863    7.8241  -14.2109 C   0  0  0  0  0  0  0  0  0  0  0  0
   12.4233    7.7158  -13.0289 C   0  0  0  0  0  0  0  0  0  0  0  0
   12.9219    8.1949  -11.8668 C   0  0  0  0  0  0  0  0  0  0  0  0
   11.4275    6.6086  -12.7931 C   0  0  0  0  0  0  0  0  0  0  0  0
   10.3411    6.8404  -12.0679 C   0  0  0  0  0  0  0  0  0  0  0  0
   10.7226    7.4332  -10.7281 C   0  0  0  0  0  0  0  0  0  0  0  0
    9.0684    5.8539  -11.9851 C   0  0  0  0  0  0  0  0  0  0  0  0
    9.8080    7.4062   -9.6015 C   0  0  0  0  0  0  0  0  0  0  0  0
   11.9300    8.1400  -10.6702 C   0  0  0  0  0  0  0  0  0  0  0  0
   11.0289    6.0120  -14.2884 C   0  0  0  0  0  0  0  0  0  0  0  0
    9.9681    6.1425   -8.6941 C   0  0  0  0  0  0  0  0  0  0  0  0
    7.9946    6.5885  -12.1474 C   0  0  0  0  0  0  0  0  0  0  0  0
   10.2822    6.4890   -7.2771 C   0  0  0  0  0  0  0  0  0  0  0  0
   11.5540    6.8919   -6.8963 C   0  0  0  0  0  0  0  0  0  0  0  0
   11.8977    7.2299   -5.5785 C   0  0  0  0  0  0  0  0  0  0  0  0
   11.9395    6.5440  -15.2769 C   0  0  0  0  0  0  0  0  0  0  0  0
    6.8195    5.8154  -12.4332 C   0  0  0  0  0  0  0  0  0  0  0  0
    9.1018    4.4928  -12.2349 C   0  0  0  0  0  0  0  0  0  0  0  0
    7.8393    8.0280  -12.0617 O   0  0  0  0  0  0  0  0  0  0  0  0
    7.8880    8.9078  -13.0355 C   0  0  0  0  0  0  0  0  0  0  0  0
    8.0448    3.8189  -12.3786 C   0  0  0  0  0  0  0  0  0  0  0  0
    6.9005    4.4499  -12.5414 C   0  0  0  0  0  0  0  0  0  0  0  0
   12.1246    8.5771   -5.2175 C   0  0  0  0  0  0  0  0  0  0  0  0
    5.5721    3.6497  -12.8085 C   0  0  0  0  0  0  0  0  0  0  0  0
   11.1206    9.2368   -4.5046 C   0  0  0  0  0  0  0  0  0  0  0  0
   13.2607    9.3219   -5.7257 C   0  0  0  0  0  0  0  0  0  0  0  0
  1  2  1  0  0  0  0
  1 16  1  0  0  0  0
  2  3  1  0  0  0  0
  2  4  2  0  0  0  0
  3  9  2  0  0  0  0
  4  5  1  0  0  0  0
  4 10  1  0  0  0  0
  5  6  2  0  0  0  0
  5  7  1  0  0  0  0
  6  8  1  0  0  0  0
  6  9  1  0  0  0  0
  7 12  1  0  0  0  0
  7 18  2  0  0  0  0
  8 11  1  0  0  0  0
 10 16  1  0  0  0  0
 11 13  1  0  0  0  0
 12 17  2  0  0  0  0
 12 19  1  0  0  0  0
 13 14  2  3  0  0  0
 14 15  1  0  0  0  0
 15 23  1  0  0  0  0
 17 22  1  0  0  0  0
 18 21  1  0  0  0  0
 19 20  1  0  0  0  0
 21 22  2  0  0  0  0
 22 24  1  0  0  0  0
 23 25  1  0  0  0  0
 23 26  1  0  0  0  0
M  END
$$$$

 OpenBabel10082411353D

 40 47  0  0  0  0  0  0  0  0999 V2000
   12.7863    7.8241  -14.2109 C   0  0  0  0  0  0  0  0  0  0  0  0
   12.4233    7.7158  -13.0289 C   0  0  0  0  0  0  0  0  0  0  0  0
   11.3194    6.8571  -12.8028 C   0  0  0  0  0  0  0  0  0  0  0  0
   12.3150    7.2021  -15.3582 C   0  0  0  0  0  0  0  0  0  0  0  0
   11.2733    6.2739  -15.1502 C   0  0  0  0  0  0  0  0  0  0  0  0
   10.8099    6.0126  -13.8600 C   0  0  0  0  0  0  0  0  0  0  0  0
    9.6782    5.1428  -13.6488 C   0  0  0  0  0  0  0  0  0  0  0  0
    8.5753    5.3880  -12.9589 N   0  0  0  0  0  0  0  0  0  0  0  0
    8.3226    6.7011  -12.3862 C   0  0  0  0  0  0  0  0  0  0  0  0
    9.8502    3.8578  -14.0728 C   0  0  0  0  0  0  0  0  0  0  0  0
    7.3864    7.4720  -13.0530 C   0  0  0  0  0  0  0  0  0  0  0  0
    6.2412    7.8486  -12.2599 C   0  0  0  0  0  0  0  0  0  0  0  0
    7.6425    4.4186  -12.7943 C   0  0  0  0  0  0  0  0  0  0  0  0
   11.0297    3.2482  -14.8053 C   0  0  0  0  0  0  0  0  0  0  0  0
    8.6802    2.8955  -13.7960 C   0  0  0  0  0  0  0  0  0  0  0  0
    8.8565    1.5917  -14.3582 O   0  0  0  0  0  0  0  0  0  0  0  0
    7.6903    3.2226  -13.1994 N   0  0  0  0  0  0  0  0  0  0  0  0
    6.5724    2.3444  -12.8378 C   0  0  0  0  0  0  0  0  0  0  0  0
    9.0225    7.0353  -11.3259 C   0  0  0  0  0  0  0  0  0  0  0  0
    6.2405    4.8489  -12.4515 C   0  0  0  0  0  0  0  0  0  0  0  0
   10.5875    7.0617  -11.5321 C   0  0  0  0  0  0  0  0  0  0  0  0
   11.0960    7.6093  -10.4100 C   0  0  0  0  0  0  0  0  0  0  0  0
    8.4039    7.3336  -10.1102 C   0  0  0  0  0  0  0  0  0  0  0  0
   10.6086    7.8156   -9.1888 C   0  0  0  0  0  0  0  0  0  0  0  0
    9.3113    7.5527   -9.2022 C   0  0  0  0  0  0  0  0  0  0  0  0
    5.5868    3.4174  -12.3561 C   0  0  0  0  0  0  0  0  0  0  0  0
    8.7252    7.9330   -7.6242 C   0  0  0  0  0  0  0  0  0  0  0  0
   11.1859    8.0862   -7.9601 C   0  0  0  0  0  0  0  0  0  0  0  0
   12.7495    8.2704   -8.0174 C   0  0  0  0  0  0  0  0  0  0  0  0
   10.4493    8.2542   -6.7750 C   0  0  2  0  0  0  0  0  0  0  0  0
    9.2142    8.3462   -6.7539 C   0  0  0  0  0  0  0  0  0  0  0  0
   11.4483    9.0676   -5.7294 C   0  0  1  0  0  0  0  0  0  0  0  0
   10.5479    6.9328   -5.7137 C   0  0  1  0  0  0  0  0  0  0  0  0
   13.0940    9.3998   -7.2782 C   0  0  0  0  0  0  0  0  0  0  0  0
   12.8182    9.2697   -5.8803 C   0  0  0  0  0  0  0  0  0  0  0  0
   10.7663   10.5076   -5.8947 C   0  0  0  0  0  0  0  0  0  0  0  0
   11.4445    5.9218   -5.8343 O   0  0  0  0  0  0  0  0  0  0  0  0
   10.8385    7.3340   -4.4117 O   0  0  0  0  0  0  0  0  0  0  0  0
   11.1366    8.6770   -4.2600 C   0  0  0  0  0  0  0  0  0  0  0  0
   11.5888    9.2191   -3.2887 O   0  0  0  0  0  0  0  0  0  0  0  0
  1  2  2  0  0  0  0
  1  4  1  0  0  0  0
  2  3  1  0  0  0  0
  3  6  2  0  0  0  0
  3 21  1  0  0  0  0
  4  5  2  0  0  0  0
  5  6  1  0  0  0  0
  6  7  1  0  0  0  0
  7  8  1  0  0  0  0
  7 10  2  0  0  0  0
  8  9  1  0  0  0  0
  8 13  1  0  0  0  0
  9 11  1  0  0  0  0
  9 19  2  0  0  0  0
 10 14  1  0  0  0  0
 10 15  1  0  0  0  0
 11 12  1  0  0  0  0
 13 17  1  0  0  0  0
 13 20  2  0  0  0  0
 15 16  2  0  0  0  0
 15 17  1  0  0  0  0
 17 18  1  0  0  0  0
 18 26  2  0  0  0  0
 19 21  1  0  0  0  0
 19 23  1  0  0  0  0
 20 26  1  0  0  0  0
 21 22  2  0  0  0  0
 22 24  1  0  0  0  0
 23 25  2  0  0  0  0
 24 25  1  0  0  0  0
 24 28  2  0  0  0  0
 25 27  1  0  0  0  0
 27 31  2  0  0  0  0
 28 29  1  0  0  0  0
 28 30  1  0  0  0  0
 29 34  1  0  0  0  0
 30 31  1  6  0  0  0
 30 32  1  0  0  0  0
 30 33  1  0  0  0  0
 32 35  1  0  0  0  0
 32 36  1  6  0  0  0
 32 39  1  0  0  0  0
 33 37  1  6  0  0  0
 33 38  1  0  0  0  0
 34 35  1  0  0  0  0
 38 39  1  0  0  0  0
 39 40  2  0  0  0  0
M  END
$$$$

 OpenBabel10082411353D

 40 45  0  0  0  0  0  0  0  0999 V2000
   11.6836    6.0105   -4.8831 C   0  0  0  0  0  0  0  0  0  0  0  0
   11.1291    7.0732   -5.4395 C   0  0  0  0  0  0  0  0  0  0  0  0
   10.6954    7.0156   -6.8073 C   0  0  0  0  0  0  0  0  0  0  0  0
   10.2502    8.1187   -7.5536 C   0  0  2  0  0  0  0  0  0  0  0  0
   11.1205    8.4712   -4.9629 C   0  0  0  0  0  0  0  0  0  0  0  0
   10.8655    8.3511   -8.7960 C   0  0  0  0  0  0  0  0  0  0  0  0
   10.2922    7.8843   -9.9985 C   0  0  0  0  0  0  0  0  0  0  0  0
   10.4654    9.6993   -5.6120 C   0  0  0  0  0  0  0  0  0  0  0  0
   10.3510    9.5971   -7.0014 C   0  0  0  0  0  0  0  0  0  0  0  0
   12.2462    6.3351   -3.5020 C   0  0  0  0  0  0  0  0  0  0  0  0
   11.0471    7.5309  -11.1063 C   0  0  0  0  0  0  0  0  0  0  0  0
   11.7288    8.6923   -3.6518 C   0  0  0  0  0  0  0  0  0  0  0  0
   12.3991    7.7501  -11.1145 C   0  0  0  0  0  0  0  0  0  0  0  0
   12.3738    7.7580   -2.9599 C   0  0  0  0  0  0  0  0  0  0  0  0
   13.1285    8.5075  -10.1661 O   0  0  0  0  0  0  0  0  0  0  0  0
    9.0407    7.3775  -10.0973 N   0  0  0  0  0  0  0  0  0  0  0  0
    8.9787    6.9473  -11.4664 N   0  0  0  0  0  0  0  0  0  0  0  0
   13.1012    7.4459  -12.3707 C   0  0  0  0  0  0  0  0  0  0  0  0
   12.2395    6.9724  -13.2444 C   0  0  0  0  0  0  0  0  0  0  0  0
   10.2768    7.0170  -11.9799 C   0  0  0  0  0  0  0  0  0  0  0  0
   12.9237    6.5822  -14.5759 O   0  0  0  0  0  0  0  0  0  0  0  0
   10.8906    6.6526  -13.2252 C   0  0  0  0  0  0  0  0  0  0  0  0
   12.2396    6.1290  -15.6916 C   0  0  0  0  0  0  0  0  0  0  0  0
    7.8036    6.1825  -11.9342 C   0  0  0  0  0  0  0  0  0  0  0  0
   12.5015    4.7115  -15.7686 C   0  0  0  0  0  0  0  0  0  0  0  0
    7.1685    6.9992  -12.8245 C   0  0  0  0  0  0  0  0  0  0  0  0
   11.2461    3.8540  -15.4851 C   0  0  0  0  0  0  0  0  0  0  0  0
    7.6237    4.9154  -11.6529 C   0  0  0  0  0  0  0  0  0  0  0  0
    6.6378    4.1960  -12.2267 C   0  0  0  0  0  0  0  0  0  0  0  0
    6.2717    2.7675  -11.9743 C   0  0  0  0  0  0  0  0  0  0  0  0
    6.6569    1.8873  -12.9460 C   0  0  0  0  0  0  0  0  0  0  0  0
    7.3895    8.4597  -13.1785 C   0  0  0  0  0  0  0  0  0  0  0  0
    6.3114    0.5653  -12.7247 C   0  0  0  0  0  0  0  0  0  0  0  0
    7.7684    2.0327  -13.9055 C   0  0  0  0  0  0  0  0  0  0  0  0
    6.9387   -0.3720  -13.7691 C   0  0  0  0  0  0  0  0  0  0  0  0
    8.3285    1.1433  -14.6815 C   0  0  0  0  0  0  0  0  0  0  0  0
    7.8536   -0.1990  -14.4998 C   0  0  0  0  0  0  0  0  0  0  0  0
   11.3896    2.5547  -15.5227 O   0  0  0  0  0  0  0  0  0  0  0  0
    9.3911    1.4760  -15.5445 C   0  0  0  0  0  0  0  0  0  0  0  0
   10.3053    2.0077  -14.9557 C   0  0  0  0  0  0  0  0  0  0  0  0
  1  2  1  0  0  0  0
  1 10  2  0  0  0  0
  2  3  1  0  0  0  0
  2  5  2  0  0  0  0
  3  4  1  0  0  0  0
  4  6  1  6  0  0  0
  4  9  1  0  0  0  0
  5  8  1  0  0  0  0
  5 12  1  0  0  0  0
  6  7  1  0  0  0  0
  7 11  1  0  0  0  0
  7 16  2  0  0  0  0
  8  9  1  0  0  0  0
 10 14  1  0  0  0  0
 11 13  2  0  0  0  0
 11 20  1  0  0  0  0
 12 14  2  0  0  0  0
 13 15  1  0  0  0  0
 13 18  1  0  0  0  0
 16 17  1  0  0  0  0
 17 20  1  0  0  0  0
 17 24  1  0  0  0  0
 18 19  2  0  0  0  0
 19 21  1  0  0  0  0
 19 22  1  0  0  0  0
 20 22  2  0  0  0  0
 21 23  1  0  0  0  0
 23 25  1  0  0  0  0
 24 26  2  3  0  0  0
 24 28  1  0  0  0  0
 25 27  1  0  0  0  0
 26 32  1  0  0  0  0
 27 38  1  0  0  0  0
 28 29  2  0  0  0  0
 29 30  1  0  0  0  0
 30 31  1  0  0  0  0
 31 33  2  0  0  0  0
 31 34  1  0  0  0  0
 33 35  1  0  0  0  0
 34 36  2  0  0  0  0
 35 37  2  0  0  0  0
 36 37  1  0  0  0  0
 36 39  1  0  0  0  0
 38 40  1  0  0  0  0
 39 40  2  0  0  0  0
M  END
$$$$

 OpenBabel10082411353D

 41 46  0  0  0  0  0  0  0  0999 V2000
   11.6836    6.0105   -4.8831 C   0  0  0  0  0  0  0  0  0  0  0  0
   11.1291    7.0732   -5.4395 C   0  0  0  0  0  0  0  0  0  0  0  0
   10.6954    7.0156   -6.8073 C   0  0  0  0  0  0  0  0  0  0  0  0
   10.2502    8.1187   -7.5536 C   0  0  2  0  0  0  0  0  0  0  0  0
   11.1205    8.4712   -4.9629 C   0  0  0  0  0  0  0  0  0  0  0  0
   10.8655    8.3511   -8.7960 C   0  0  0  0  0  0  0  0  0  0  0  0
   10.2922    7.8843   -9.9985 C   0  0  0  0  0  0  0  0  0  0  0  0
   10.4654    9.6993   -5.6120 C   0  0  0  0  0  0  0  0  0  0  0  0
   10.3510    9.5971   -7.0014 C   0  0  0  0  0  0  0  0  0  0  0  0
   12.2462    6.3351   -3.5020 C   0  0  0  0  0  0  0  0  0  0  0  0
   11.0471    7.5309  -11.1063 C   0  0  0  0  0  0  0  0  0  0  0  0
   11.7288    8.6923   -3.6518 C   0  0  0  0  0  0  0  0  0  0  0  0
   12.3991    7.7501  -11.1145 C   0  0  0  0  0  0  0  0  0  0  0  0
   12.3738    7.7580   -2.9599 C   0  0  0  0  0  0  0  0  0  0  0  0
   13.1285    8.5075  -10.1661 O   0  0  0  0  0  0  0  0  0  0  0  0
    9.0407    7.3775  -10.0973 N   0  0  0  0  0  0  0  0  0  0  0  0
    8.9787    6.9473  -11.4664 N   0  0  0  0  0  0  0  0  0  0  0  0
   13.1012    7.4459  -12.3707 C   0  0  0  0  0  0  0  0  0  0  0  0
   12.2395    6.9724  -13.2444 C   0  0  0  0  0  0  0  0  0  0  0  0
   10.2768    7.0170  -11.9799 C   0  0  0  0  0  0  0  0  0  0  0  0
   12.9237    6.5822  -14.5759 O   0  0  0  0  0  0  0  0  0  0  0  0
   10.8906    6.6526  -13.2252 C   0  0  0  0  0  0  0  0  0  0  0  0
   12.2396    6.1290  -15.6916 C   0  0  0  0  0  0  0  0  0  0  0  0
    7.8036    6.1825  -11.9342 C   0  0  0  0  0  0  0  0  0  0  0  0
   12.5015    4.7115  -15.7686 C   0  0  0  0  0  0  0  0  0  0  0  0
    7.1685    6.9992  -12.8245 C   0  0  0  0  0  0  0  0  0  0  0  0
   11.2461    3.8540  -15.4851 C   0  0  0  0  0  0  0  0  0  0  0  0
    7.6237    4.9154  -11.6529 C   0  0  0  0  0  0  0  0  0  0  0  0
    6.6378    4.1960  -12.2267 C   0  0  0  0  0  0  0  0  0  0  0  0
    6.2717    2.7675  -11.9743 C   0  0  0  0  0  0  0  0  0  0  0  0
    6.6569    1.8873  -12.9460 C   0  0  1  0  0  0  0  0  0  0  0  0
    6.2393    0.5737  -12.7991 C   0  0  0  0  0  0  0  0  0  0  0  0
    5.7332    5.0094  -13.0098 C   0  0  0  0  0  0  0  0  0  0  0  0
   11.4513    2.5769  -15.3310 O   0  0  0  0  0  0  0  0  0  0  0  0
    7.4197    8.4494  -13.1889 C   0  0  0  0  0  0  0  0  0  0  0  0
    5.9626    6.3199  -13.3932 C   0  0  0  0  0  0  0  0  0  0  0  0
    6.5638    2.4004  -14.2837 C   0  0  0  0  0  0  0  0  0  0  0  0
    7.3493    1.6600  -15.1389 C   0  0  0  0  0  0  0  0  0  0  0  0
    8.5639    2.0426  -15.5234 O   0  0  0  0  0  0  0  0  0  0  0  0
    8.8087    3.3293  -14.9015 C   0  0  0  0  0  0  0  0  0  0  0  0
   10.0437    4.3672  -15.3021 C   0  0  0  0  0  0  0  0  0  0  0  0
  1  2  1  0  0  0  0
  1 10  2  0  0  0  0
  2  3  1  0  0  0  0
  2  5  2  0  0  0  0
  3  4  1  0  0  0  0
  4  6  1  6  0  0  0
  4  9  1  0  0  0  0
  5  8  1  0  0  0  0
  5 12  1  0  0  0  0
  6  7  1  0  0  0  0
  7 11  1  0  0  0  0
  7 16  2  0  0  0  0
  8  9  1  0  0  0  0
 10 14  1  0  0  0  0
 11 13  2  0  0  0  0
 11 20  1  0  0  0  0
 12 14  2  0  0  0  0
 13 15  1  0  0  0  0
 13 18  1  0  0  0  0
 16 17  1  0  0  0  0
 17 20  1  0  0  0  0
 17 24  1  0  0  0  0
 18 19  2  0  0  0  0
 19 21  1  0  0  0  0
 19 22  1  0  0  0  0
 20 22  2  0  0  0  0
 21 23  1  0  0  0  0
 23 25  1  0  0  0  0
 24 26  2  0  0  0  0
 24 28  1  0  0  0  0
 25 27  1  0  0  0  0
 26 35  1  0  0  0  0
 26 36  1  0  0  0  0
 27 34  2  0  0  0  0
 27 41  1  0  0  0  0
 28 29  2  0  0  0  0
 29 30  1  0  0  0  0
 29 33  1  0  0  0  0
 30 31  1  0  0  0  0
 31 32  1  6  0  0  0
 31 37  1  0  0  0  0
 33 36  2  0  0  0  0
 37 38  1  0  0  0  0
 38 39  1  0  0  0  0
 39 40  1  0  0  0  0
 40 41  1  0  0  0  0
M  END
$$$$

 OpenBabel10082411353D

 41 46  0  0  0  0  0  0  0  0999 V2000
   11.6836    6.0105   -4.8831 F   0  0  0  0  0  0  0  0  0  0  0  0
   11.2562    7.2206   -5.0294 C   0  0  0  0  0  0  0  0  0  0  0  0
   12.0125    8.2418   -4.4408 C   0  0  0  0  0  0  0  0  0  0  0  0
   11.1918    7.2706   -6.5237 C   0  0  2  0  0  0  0  0  0  0  0  0
   11.6999    8.4488   -3.1704 F   0  0  0  0  0  0  0  0  0  0  0  0
    9.8648    7.0908   -4.5314 F   0  0  0  0  0  0  0  0  0  0  0  0
   11.6831    8.5291   -6.9682 C   0  0  1  0  0  0  0  0  0  0  0  0
   13.3042    8.0958   -4.5769 F   0  0  0  0  0  0  0  0  0  0  0  0
   10.0051    6.7877   -7.1387 C   0  0  2  0  0  0  0  0  0  0  0  0
   12.1549    9.4036   -6.0698 C   0  0  0  0  0  0  0  0  0  0  0  0
   11.7460    9.5074   -4.8672 O   0  0  0  0  0  0  0  0  0  0  0  0
   12.5684    8.5172   -7.8652 C   0  0  0  0  0  0  0  0  0  0  0  0
   10.4250    8.9412   -7.4869 C   0  0  0  0  0  0  0  0  0  0  0  0
    9.8902    5.4070   -7.8206 C   0  0  1  0  0  0  0  0  0  0  0  0
    8.7348    4.6919   -7.6168 C   0  0  0  0  0  0  0  0  0  0  0  0
    9.5887    7.8633   -8.0188 C   0  0  1  0  0  0  0  0  0  0  0  0
   10.0149    7.4671   -9.3945 C   0  0  0  0  0  0  0  0  0  0  0  0
    8.7013    3.5197   -8.2148 C   0  0  0  0  0  0  0  0  0  0  0  0
    9.3794    3.4628   -9.4166 C   0  0  0  0  0  0  0  0  0  0  0  0
    9.7670    8.0902  -10.5147 C   0  0  0  0  0  0  0  0  0  0  0  0
   10.1630    7.7248  -11.8028 C   0  0  0  0  0  0  0  0  0  0  0  0
   10.1363    4.5235   -9.8811 C   0  0  0  0  0  0  0  0  0  0  0  0
   10.2836    5.8862   -9.1314 C   0  0  2  0  0  0  0  0  0  0  0  0
    9.2642    7.6154  -12.7688 C   0  0  0  0  0  0  0  0  0  0  0  0
    9.7352    7.0429  -13.9890 C   0  0  0  0  0  0  0  0  0  0  0  0
    8.9431    5.9978  -14.4048 C   0  0  0  0  0  0  0  0  0  0  0  0
    8.0476    5.1914  -13.6918 C   0  0  0  0  0  0  0  0  0  0  0  0
    8.1490    3.7734  -13.7660 C   0  0  0  0  0  0  0  0  0  0  0  0
    7.0453    3.1418  -12.9717 C   0  0  0  0  0  0  0  0  0  0  0  0
    6.2338    3.8839  -12.1754 C   0  0  0  0  0  0  0  0  0  0  0  0
   10.8369    7.3431  -14.6932 C   0  0  0  0  0  0  0  0  0  0  0  0
    7.2107    5.8505  -12.7998 C   0  0  0  0  0  0  0  0  0  0  0  0
    5.3001    3.0920  -11.3306 F   0  0  0  0  0  0  0  0  0  0  0  0
    7.8586    7.9143  -12.4857 C   0  0  0  0  0  0  0  0  0  0  0  0
    6.3696    5.0319  -12.1370 C   0  0  0  0  0  0  0  0  0  0  0  0
    6.9659    7.0740  -12.5678 C   0  0  0  0  0  0  0  0  0  0  0  0
   11.6802    6.2859  -15.0974 C   0  0  0  0  0  0  0  0  0  0  0  0
   11.4895    5.0617  -14.5281 C   0  0  0  0  0  0  0  0  0  0  0  0
   11.4332    4.7730  -13.3324 O   0  0  0  0  0  0  0  0  0  0  0  0
   11.5049    3.9464  -15.2976 N   0  0  0  0  0  0  0  0  0  0  0  0
   11.3127    2.6322  -14.8421 C   0  0  0  0  0  0  0  0  0  0  0  0
  1  2  1  0  0  0  0
  2  3  1  0  0  0  0
  2  6  1  0  0  0  0
  3  5  1  0  0  0  0
  3  8  1  0  0  0  0
  3 11  1  0  0  0  0
  4  2  1  1  0  0  0
  4  7  1  0  0  0  0
  4  9  1  0  0  0  0
  7 10  1  0  0  0  0
  7 12  1  6  0  0  0
  7 13  1  0  0  0  0
  9 14  1  0  0  0  0
  9 16  1  0  0  0  0
 10 11  1  0  0  0  0
 13 16  1  0  0  0  0
 14 15  1  0  0  0  0
 14 23  1  0  0  0  0
 15 18  2  0  0  0  0
 16 17  1  0  0  0  0
 17 20  2  3  0  0  0
 17 23  1  0  0  0  0
 18 19  1  0  0  0  0
 19 22  2  0  0  0  0
 20 21  1  0  0  0  0
 21 24  2  3  0  0  0
 22 23  1  0  0  0  0
 24 25  1  0  0  0  0
 24 34  1  0  0  0  0
 25 26  2  0  0  0  0
 25 31  1  0  0  0  0
 26 27  1  0  0  0  0
 27 28  2  0  0  0  0
 27 32  1  0  0  0  0
 28 29  1  0  0  0  0
 29 30  2  0  0  0  0
 30 33  1  0  0  0  0
 30 35  1  0  0  0  0
 31 37  1  0  0  0  0
 32 35  2  0  0  0  0
 32 36  1  0  0  0  0
 34 36  1  0  0  0  0
 37 38  1  0  0  0  0
 38 39  2  0  0  0  0
 38 40  1  0  0  0  0
 40 41  1  0  0  0  0
M  END
$$$$

 OpenBabel10082411353D

 41 49  0  0  0  0  0  0  0  0999 V2000
   12.7863    7.8241  -14.2109 C   0  0  0  0  0  0  0  0  0  0  0  0
   12.4233    7.7158  -13.0289 C   0  0  0  0  0  0  0  0  0  0  0  0
   11.3194    6.8571  -12.8028 C   0  0  0  0  0  0  0  0  0  0  0  0
   12.3150    7.2021  -15.3582 C   0  0  0  0  0  0  0  0  0  0  0  0
   11.2733    6.2739  -15.1502 C   0  0  0  0  0  0  0  0  0  0  0  0
   10.8099    6.0126  -13.8600 C   0  0  0  0  0  0  0  0  0  0  0  0
    9.6782    5.1428  -13.6488 C   0  0  0  0  0  0  0  0  0  0  0  0
    8.5753    5.3880  -12.9589 N   0  0  0  0  0  0  0  0  0  0  0  0
    8.3226    6.7011  -12.3862 C   0  0  0  0  0  0  0  0  0  0  0  0
    9.8502    3.8578  -14.0728 C   0  0  0  0  0  0  0  0  0  0  0  0
    7.3864    7.4720  -13.0530 C   0  0  0  0  0  0  0  0  0  0  0  0
    6.2412    7.8486  -12.2599 C   0  0  0  0  0  0  0  0  0  0  0  0
    7.6425    4.4186  -12.7943 C   0  0  0  0  0  0  0  0  0  0  0  0
   11.0297    3.2482  -14.8053 C   0  0  0  0  0  0  0  0  0  0  0  0
    8.6802    2.8955  -13.7960 C   0  0  0  0  0  0  0  0  0  0  0  0
    8.8565    1.5917  -14.3582 O   0  0  0  0  0  0  0  0  0  0  0  0
    7.6903    3.2226  -13.1994 N   0  0  0  0  0  0  0  0  0  0  0  0
    6.5724    2.3444  -12.8378 C   0  0  0  0  0  0  0  0  0  0  0  0
    9.0225    7.0353  -11.3259 C   0  0  0  0  0  0  0  0  0  0  0  0
    6.2405    4.8489  -12.4515 C   0  0  0  0  0  0  0  0  0  0  0  0
   10.5875    7.0617  -11.5321 C   0  0  0  0  0  0  0  0  0  0  0  0
   11.0960    7.6093  -10.4100 C   0  0  0  0  0  0  0  0  0  0  0  0
    8.4039    7.3336  -10.1102 C   0  0  0  0  0  0  0  0  0  0  0  0
    5.5911    3.3517  -12.3508 C   0  0  0  0  0  0  0  0  0  0  0  0
   12.6259    7.6530  -10.3901 C   0  0  0  0  0  0  0  0  0  0  0  0
   10.4284    7.7784   -9.2128 C   0  0  1  0  0  0  0  0  0  0  0  0
    9.2236    7.5051   -9.0617 C   0  0  2  0  0  0  0  0  0  0  0  0
    8.7145    7.3063   -7.7135 N   0  0  0  0  0  0  0  0  0  0  0  0
   11.0621    7.5242   -7.8430 C   0  0  1  0  0  0  0  0  0  0  0  0
   12.0213    8.4787   -7.3268 C   0  0  0  0  0  0  0  0  0  0  0  0
   13.1241    8.0749  -11.7293 C   0  0  0  0  0  0  0  0  0  0  0  0
    9.9178    7.6308   -6.9884 C   0  0  2  0  0  0  0  0  0  0  0  0
   12.0768    8.3481   -5.8539 C   0  0  0  0  0  0  0  0  0  0  0  0
   10.0351    6.6960   -5.8250 C   0  0  0  0  0  0  0  0  0  0  0  0
   11.2104    7.4471   -5.1985 C   0  0  0  0  0  0  0  0  0  0  0  0
   12.9004    9.3019   -5.1631 C   0  0  0  0  0  0  0  0  0  0  0  0
   11.4590    7.3245   -3.8843 C   0  0  0  0  0  0  0  0  0  0  0  0
   10.7083    6.2477   -3.0781 F   0  0  0  0  0  0  0  0  0  0  0  0
   12.2694    8.0475   -3.0001 C   0  0  0  0  0  0  0  0  0  0  0  0
   13.6301   10.3066   -5.8149 F   0  0  0  0  0  0  0  0  0  0  0  0
   13.0354    9.1648   -3.6499 C   0  0  0  0  0  0  0  0  0  0  0  0
  1  2  2  0  0  0  0
  1  4  1  0  0  0  0
  2  3  1  0  0  0  0
  2 31  1  0  0  0  0
  3  6  2  0  0  0  0
  3 21  1  0  0  0  0
  4  5  2  0  0  0  0
  5  6  1  0  0  0  0
  6  7  1  0  0  0  0
  7  8  1  0  0  0  0
  7 10  2  0  0  0  0
  8  9  1  0  0  0  0
  8 13  1  0  0  0  0
  9 11  1  0  0  0  0
  9 19  2  0  0  0  0
 10 14  1  0  0  0  0
 10 15  1  0  0  0  0
 11 12  1  0  0  0  0
 13 17  1  0  0  0  0
 13 20  2  0  0  0  0
 15 16  2  0  0  0  0
 15 17  1  0  0  0  0
 17 18  1  0  0  0  0
 18 24  1  0  0  0  0
 19 21  1  0  0  0  0
 19 23  1  0  0  0  0
 20 24  1  0  0  0  0
 21 22  2  0  0  0  0
 22 25  1  0  0  0  0
 25 31  2  0  0  0  0
 26 22  1  6  0  0  0
 26 27  1  0  0  0  0
 26 29  1  0  0  0  0
 27 23  1  6  0  0  0
 27 28  1  0  0  0  0
 28 32  1  0  0  0  0
 29 30  1  1  0  0  0
 29 32  1  0  0  0  0
 30 33  1  0  0  0  0
 32 34  1  1  0  0  0
 33 35  1  0  0  0  0
 33 36  2  0  0  0  0
 34 35  1  0  0  0  0
 35 37  2  0  0  0  0
 36 40  1  0  0  0  0
 36 41  1  0  0  0  0
 37 38  1  0  0  0  0
 37 39  1  0  0  0  0
 39 41  2  0  0  0  0
M  END
$$$$

 OpenBabel10082411353D

 41 48  0  0  0  0  0  0  0  0999 V2000
   12.7863    7.8241  -14.2109 C   0  0  0  0  0  0  0  0  0  0  0  0
   12.4233    7.7158  -13.0289 C   0  0  0  0  0  0  0  0  0  0  0  0
   11.3194    6.8571  -12.8028 C   0  0  0  0  0  0  0  0  0  0  0  0
   12.3150    7.2021  -15.3582 C   0  0  0  0  0  0  0  0  0  0  0  0
   11.2733    6.2739  -15.1502 C   0  0  0  0  0  0  0  0  0  0  0  0
   10.8099    6.0126  -13.8600 C   0  0  0  0  0  0  0  0  0  0  0  0
    9.6782    5.1428  -13.6488 C   0  0  0  0  0  0  0  0  0  0  0  0
    8.5753    5.3880  -12.9589 N   0  0  0  0  0  0  0  0  0  0  0  0
    8.3226    6.7011  -12.3862 C   0  0  0  0  0  0  0  0  0  0  0  0
    9.8502    3.8578  -14.0728 C   0  0  0  0  0  0  0  0  0  0  0  0
    7.3864    7.4720  -13.0530 C   0  0  0  0  0  0  0  0  0  0  0  0
    6.2412    7.8486  -12.2599 C   0  0  0  0  0  0  0  0  0  0  0  0
    7.6425    4.4186  -12.7943 C   0  0  0  0  0  0  0  0  0  0  0  0
   11.0297    3.2482  -14.8053 C   0  0  0  0  0  0  0  0  0  0  0  0
    8.6802    2.8955  -13.7960 C   0  0  0  0  0  0  0  0  0  0  0  0
    8.8565    1.5917  -14.3582 O   0  0  0  0  0  0  0  0  0  0  0  0
    7.6903    3.2226  -13.1994 N   0  0  0  0  0  0  0  0  0  0  0  0
    6.5724    2.3444  -12.8378 C   0  0  0  0  0  0  0  0  0  0  0  0
    9.0225    7.0353  -11.3259 C   0  0  0  0  0  0  0  0  0  0  0  0
    6.2405    4.8489  -12.4515 C   0  0  0  0  0  0  0  0  0  0  0  0
   10.5875    7.0617  -11.5321 C   0  0  0  0  0  0  0  0  0  0  0  0
   11.0960    7.6093  -10.4100 C   0  0  0  0  0  0  0  0  0  0  0  0
    8.4039    7.3336  -10.1102 C   0  0  0  0  0  0  0  0  0  0  0  0
    5.5911    3.3517  -12.3508 C   0  0  0  0  0  0  0  0  0  0  0  0
   12.6259    7.6530  -10.3901 C   0  0  0  0  0  0  0  0  0  0  0  0
   10.4284    7.7784   -9.2128 C   0  0  1  0  0  0  0  0  0  0  0  0
    9.2236    7.5051   -9.0617 C   0  0  2  0  0  0  0  0  0  0  0  0
    8.7145    7.3063   -7.7135 N   0  0  2  0  0  0  0  0  0  0  0  0
   11.0621    7.5242   -7.8430 C   0  0  1  0  0  0  0  0  0  0  0  0
   12.0213    8.4787   -7.3268 C   0  0  0  0  0  0  0  0  0  0  0  0
   13.1241    8.0749  -11.7293 C   0  0  0  0  0  0  0  0  0  0  0  0
   12.0504    9.6950   -7.9009 O   0  0  0  0  0  0  0  0  0  0  0  0
    9.8858    7.2444   -6.9594 C   0  0  2  0  0  0  0  0  0  0  0  0
    9.9777    5.9996   -6.3117 C   0  0  0  0  0  0  0  0  0  0  0  0
    8.9391    5.1621   -6.4362 C   0  0  1  0  0  0  0  0  0  0  0  0
   12.5667    8.4703   -6.0695 N   0  0  0  0  0  0  0  0  0  0  0  0
   13.2600    9.5871   -5.4885 C   0  0  0  0  0  0  0  0  0  0  0  0
    8.0016    5.9472   -7.2287 C   0  0  0  0  0  0  0  0  0  0  0  0
    8.9863    3.8194   -6.9458 C   0  0  0  0  0  0  0  0  0  0  0  0
    8.4325    2.8992   -6.6144 O   0  0  0  0  0  0  0  0  0  0  0  0
    9.9738    3.7395   -7.8255 O   0  0  0  0  0  0  0  0  0  0  0  0
  1  2  2  0  0  0  0
  1  4  1  0  0  0  0
  2  3  1  0  0  0  0
  2 31  1  0  0  0  0
  3  6  2  0  0  0  0
  3 21  1  0  0  0  0
  4  5  2  0  0  0  0
  5  6  1  0  0  0  0
  6  7  1  0  0  0  0
  7  8  1  0  0  0  0
  7 10  2  0  0  0  0
  8  9  1  0  0  0  0
  8 13  1  0  0  0  0
  9 11  1  0  0  0  0
  9 19  2  0  0  0  0
 10 14  1  0  0  0  0
 10 15  1  0  0  0  0
 11 12  1  0  0  0  0
 13 17  1  0  0  0  0
 13 20  2  0  0  0  0
 15 16  2  0  0  0  0
 15 17  1  0  0  0  0
 17 18  1  0  0  0  0
 18 24  1  0  0  0  0
 19 21  1  0  0  0  0
 19 23  1  0  0  0  0
 20 24  1  0  0  0  0
 21 22  2  0  0  0  0
 22 25  1  0  0  0  0
 25 31  2  0  0  0  0
 26 22  1  6  0  0  0
 26 27  1  0  0  0  0
 26 29  1  0  0  0  0
 27 23  1  6  0  0  0
 27 28  1  0  0  0  0
 28 33  1  0  0  0  0
 28 38  1  6  0  0  0
 29 30  1  1  0  0  0
 29 33  1  0  0  0  0
 30 32  2  0  0  0  0
 30 36  1  0  0  0  0
 33 34  1  6  0  0  0
 34 35  1  0  0  0  0
 35 38  1  0  0  0  0
 35 39  1  6  0  0  0
 36 37  1  0  0  0  0
 39 40  2  0  0  0  0
 39 41  1  0  0  0  0
M  END
$$$$

 OpenBabel10082411353D

 41 51  0  0  0  0  0  0  0  0999 V2000
    8.0806    9.0240  -12.7589 C   0  0  0  0  0  0  0  0  0  0  0  0
    8.6514    7.8645  -12.2948 C   0  0  0  0  0  0  0  0  0  0  0  0
    9.9575    7.9974  -11.8426 C   0  0  0  0  0  0  0  0  0  0  0  0
   10.7657    6.8667  -11.6050 C   0  0  1  0  0  0  0  0  0  0  0  0
   10.7682    5.9590  -12.8271 C   0  0  0  0  0  0  0  0  0  0  0  0
   12.1553    7.3846  -11.2315 C   0  0  0  0  0  0  0  0  0  0  0  0
    8.0676    6.6451  -12.2974 C   0  0  0  0  0  0  0  0  0  0  0  0
   10.1892    6.1240  -10.3860 C   0  0  0  0  0  0  0  0  0  0  0  0
   11.8375    5.4373  -13.3240 O   0  0  0  0  0  0  0  0  0  0  0  0
    8.6785    5.4761  -13.0273 C   0  0  1  0  0  0  0  0  0  0  0  0
    9.1969    5.2405  -10.4969 C   0  0  2  0  0  0  0  0  0  0  0  0
    7.2213    6.2210  -11.3074 C   0  0  2  0  0  0  0  0  0  0  0  0
   12.5590    7.6872   -9.9896 C   0  0  0  0  0  0  0  0  0  0  0  0
    9.7633    5.0333  -12.9720 C   0  0  1  0  0  0  0  0  0  0  0  0
   10.0661    4.0167  -14.0373 N   0  0  0  0  0  0  0  0  0  0  0  0
   13.6906    8.3004   -9.6233 O   0  0  0  0  0  0  0  0  0  0  0  0
    7.6357    4.5123  -12.6317 C   0  0  2  0  0  0  0  0  0  0  0  0
    6.8831    4.9171  -11.7031 C   0  0  2  0  0  0  0  0  0  0  0  0
   10.5937    6.6967   -9.1779 C   0  0  0  0  0  0  0  0  0  0  0  0
    9.5087    4.3263  -11.6925 C   0  0  2  0  0  0  0  0  0  0  0  0
   11.6359    7.4449   -8.9125 C   0  0  0  0  0  0  0  0  0  0  0  0
   11.9716    7.9159   -7.6200 C   0  0  0  0  0  0  0  0  0  0  0  0
    8.4648    3.6122  -12.2840 C   0  0  1  0  0  0  0  0  0  0  0  0
    7.9253    2.8004  -11.3926 C   0  0  0  0  0  0  0  0  0  0  0  0
    5.6047    4.5059  -11.7589 C   0  0  0  0  0  0  0  0  0  0  0  0
    7.6606    4.1297  -10.5699 C   0  0  0  0  0  0  0  0  0  0  0  0
   10.9559    7.6849   -6.6057 C   0  0  0  0  0  0  0  0  0  0  0  0
    8.0094    4.5092   -9.5664 C   0  0  0  0  0  0  0  0  0  0  0  0
    8.3033    4.0627   -8.4980 C   0  0  0  0  0  0  0  0  0  0  0  0
    6.3587    7.1012  -11.0392 O   0  0  0  0  0  0  0  0  0  0  0  0
   11.0186    3.9598  -14.9226 C   0  0  0  0  0  0  0  0  0  0  0  0
    8.1758    5.8633  -10.2511 C   0  0  1  0  0  0  0  0  0  0  0  0
   11.4648    2.7104  -15.2650 O   0  0  0  0  0  0  0  0  0  0  0  0
    9.9512    6.8220   -6.8436 C   0  0  0  0  0  0  0  0  0  0  0  0
    9.6899    6.3705   -8.1082 C   0  0  2  0  0  0  0  0  0  0  0  0
   11.2597    8.2901   -5.2396 C   0  0  0  0  0  0  0  0  0  0  0  0
   11.6068    9.7354   -5.2006 C   0  0  0  0  0  0  0  0  0  0  0  0
   10.9469    4.9352  -15.8306 C   0  0  0  0  0  0  0  0  0  0  0  0
    9.2417    4.9555   -7.8256 C   0  0  0  0  0  0  0  0  0  0  0  0
   12.5368    9.9949   -4.1314 C   0  0  0  0  0  0  0  0  0  0  0  0
    9.5427    2.7819  -13.2868 C   0  0  0  0  0  0  0  0  0  0  0  0
  1  2  1  0  0  0  0
  2  3  1  0  0  0  0
  2  7  2  0  0  0  0
  4  3  1  6  0  0  0
  4  5  1  0  0  0  0
  4  6  1  0  0  0  0
  4  8  1  0  0  0  0
  5  9  2  0  0  0  0
  6 13  1  0  0  0  0
  7 12  1  0  0  0  0
  8 19  2  0  0  0  0
 10  7  1  1  0  0  0
 10 14  1  0  0  0  0
 10 17  1  0  0  0  0
 11  8  1  6  0  0  0
 11 20  1  0  0  0  0
 11 32  1  0  0  0  0
 12 18  1  0  0  0  0
 12 30  1  1  0  0  0
 12 32  1  0  0  0  0
 13 16  2  0  0  0  0
 13 21  1  0  0  0  0
 14  5  1  1  0  0  0
 14 15  1  0  0  0  0
 14 20  1  0  0  0  0
 15 31  1  0  0  0  0
 15 41  1  0  0  0  0
 17 18  1  0  0  0  0
 17 23  1  0  0  0  0
 18 25  1  0  0  0  0
 18 26  1  0  0  0  0
 19 21  1  0  0  0  0
 19 35  1  0  0  0  0
 20 23  1  0  0  0  0
 21 22  2  0  0  0  0
 22 27  1  0  0  0  0
 23 24  1  0  0  0  0
 23 41  1  0  0  0  0
 24 26  1  0  0  0  0
 26 28  2  0  0  0  0
 27 34  2  0  0  0  0
 27 36  1  0  0  0  0
 28 29  1  0  0  0  0
 28 32  1  0  0  0  0
 29 39  2  0  0  0  0
 31 33  2  0  0  0  0
 31 38  1  0  0  0  0
 34 35  1  0  0  0  0
 35 39  1  0  0  0  0
 36 37  1  0  0  0  0
 37 40  1  0  0  0  0
M  END
$$$$

 OpenBabel10082411353D

 41 48  0  0  0  0  0  0  0  0999 V2000
   11.6836    6.0105   -4.8831 C   0  0  0  0  0  0  0  0  0  0  0  0
   11.1291    7.0732   -5.4395 C   0  0  0  0  0  0  0  0  0  0  0  0
   10.6954    7.0156   -6.8073 C   0  0  0  0  0  0  0  0  0  0  0  0
   10.2502    8.1187   -7.5536 C   0  0  2  0  0  0  0  0  0  0  0  0
   11.1205    8.4712   -4.9629 C   0  0  0  0  0  0  0  0  0  0  0  0
   10.8655    8.3511   -8.7960 C   0  0  0  0  0  0  0  0  0  0  0  0
   10.2922    7.8843   -9.9985 C   0  0  0  0  0  0  0  0  0  0  0  0
   10.4654    9.6993   -5.6120 C   0  0  0  0  0  0  0  0  0  0  0  0
   10.3510    9.5971   -7.0014 C   0  0  0  0  0  0  0  0  0  0  0  0
   12.2462    6.3351   -3.5020 C   0  0  0  0  0  0  0  0  0  0  0  0
   11.0471    7.5309  -11.1063 C   0  0  0  0  0  0  0  0  0  0  0  0
   11.7288    8.6923   -3.6518 C   0  0  0  0  0  0  0  0  0  0  0  0
   12.3991    7.7501  -11.1145 C   0  0  0  0  0  0  0  0  0  0  0  0
   12.3738    7.7580   -2.9599 C   0  0  0  0  0  0  0  0  0  0  0  0
   13.1285    8.5075  -10.1661 O   0  0  0  0  0  0  0  0  0  0  0  0
    9.0407    7.3775  -10.0973 N   0  0  0  0  0  0  0  0  0  0  0  0
    8.9787    6.9473  -11.4664 N   0  0  0  0  0  0  0  0  0  0  0  0
   13.1012    7.4459  -12.3707 C   0  0  0  0  0  0  0  0  0  0  0  0
   12.2395    6.9724  -13.2444 C   0  0  0  0  0  0  0  0  0  0  0  0
   10.2768    7.0170  -11.9799 C   0  0  0  0  0  0  0  0  0  0  0  0
   12.9237    6.5822  -14.5759 O   0  0  0  0  0  0  0  0  0  0  0  0
   10.8906    6.6526  -13.2252 C   0  0  0  0  0  0  0  0  0  0  0  0
   12.2396    6.1290  -15.6916 C   0  0  0  0  0  0  0  0  0  0  0  0
    7.8036    6.1825  -11.9342 C   0  0  0  0  0  0  0  0  0  0  0  0
   12.5015    4.7115  -15.7686 C   0  0  0  0  0  0  0  0  0  0  0  0
    7.1685    6.9992  -12.8245 C   0  0  0  0  0  0  0  0  0  0  0  0
   11.2461    3.8540  -15.4851 C   0  0  0  0  0  0  0  0  0  0  0  0
    7.6237    4.9154  -11.6529 C   0  0  0  0  0  0  0  0  0  0  0  0
    6.6378    4.1960  -12.2267 C   0  0  0  0  0  0  0  0  0  0  0  0
    6.2717    2.7675  -11.9743 C   0  0  0  0  0  0  0  0  0  0  0  0
    6.6569    1.8873  -12.9460 C   0  0  0  0  0  0  0  0  0  0  0  0
    7.3895    8.4597  -13.1785 C   0  0  0  0  0  0  0  0  0  0  0  0
    6.3114    0.5653  -12.7247 C   0  0  0  0  0  0  0  0  0  0  0  0
    7.7684    2.0327  -13.9055 C   0  0  0  0  0  0  0  0  0  0  0  0
    8.3733    3.3319  -14.0408 C   0  0  0  0  0  0  0  0  0  0  0  0
    8.0134    0.8891  -14.4784 C   0  0  0  0  0  0  0  0  0  0  0  0
    7.0228   -0.2847  -13.8654 S   0  0  0  0  0  0  0  0  0  0  0  0
   11.3192    2.6031  -15.6481 O   0  0  0  0  0  0  0  0  0  0  0  0
   10.0990    4.5313  -15.3934 O   0  0  0  0  0  0  0  0  0  0  0  0
    8.9956    3.8772  -14.8073 C   0  0  0  0  0  0  0  0  0  0  0  0
    7.8178    4.2253  -13.0428 C   0  0  0  0  0  0  0  0  0  0  0  0
  1  2  1  0  0  0  0
  1 10  2  0  0  0  0
  2  3  1  0  0  0  0
  2  5  2  0  0  0  0
  3  4  1  0  0  0  0
  4  6  1  6  0  0  0
  4  9  1  0  0  0  0
  5  8  1  0  0  0  0
  5 12  1  0  0  0  0
  6  7  1  0  0  0  0
  7 11  1  0  0  0  0
  7 16  2  0  0  0  0
  8  9  1  0  0  0  0
 10 14  1  0  0  0  0
 11 13  2  0  0  0  0
 11 20  1  0  0  0  0
 12 14  2  0  0  0  0
 13 15  1  0  0  0  0
 13 18  1  0  0  0  0
 16 17  1  0  0  0  0
 17 20  1  0  0  0  0
 17 24  1  0  0  0  0
 18 19  2  0  0  0  0
 19 21  1  0  0  0  0
 19 22  1  0  0  0  0
 20 22  2  0  0  0  0
 21 23  1  0  0  0  0
 23 25  1  0  0  0  0
 24 26  2  3  0  0  0
 24 28  1  0  0  0  0
 25 27  1  0  0  0  0
 26 32  1  0  0  0  0
 27 38  2  0  0  0  0
 27 39  1  0  0  0  0
 28 29  2  3  0  0  0
 28 41  1  0  0  0  0
 29 30  1  0  0  0  0
 29 41  1  0  0  0  0
 30 31  1  0  0  0  0
 31 33  2  0  0  0  0
 31 34  1  0  0  0  0
 33 37  1  0  0  0  0
 34 35  1  0  0  0  0
 34 36  2  0  0  0  0
 35 40  1  0  0  0  0
 35 41  2  3  0  0  0
 36 37  1  0  0  0  0
 39 40  1  0  0  0  0
M  END
$$$$

 OpenBabel10082411353D

 41 45  0  0  0  0  0  0  0  0999 V2000
   11.6836    6.0105   -4.8831 F   0  0  0  0  0  0  0  0  0  0  0  0
   11.2562    7.2206   -5.0294 C   0  0  0  0  0  0  0  0  0  0  0  0
   12.0125    8.2418   -4.4408 C   0  0  0  0  0  0  0  0  0  0  0  0
   11.1918    7.2706   -6.5237 C   0  0  0  0  0  0  0  0  0  0  0  0
   11.6999    8.4488   -3.1704 F   0  0  0  0  0  0  0  0  0  0  0  0
    9.8648    7.0908   -4.5314 F   0  0  0  0  0  0  0  0  0  0  0  0
   11.6831    8.5291   -6.9682 C   0  0  0  0  0  0  0  0  0  0  0  0
   10.4785    6.5189   -7.4033 C   0  0  0  0  0  0  0  0  0  0  0  0
   11.6979    8.6661   -8.4760 C   0  0  0  0  0  0  0  0  0  0  0  0
   11.6248    9.5853   -5.0030 C   0  0  0  0  0  0  0  0  0  0  0  0
   11.8604    9.7907   -6.2903 O   0  0  0  0  0  0  0  0  0  0  0  0
   13.3557    8.1748   -4.5947 F   0  0  0  0  0  0  0  0  0  0  0  0
   10.5427    6.6061   -8.7190 C   0  0  0  0  0  0  0  0  0  0  0  0
   11.1158    7.7103   -9.2540 C   0  0  0  0  0  0  0  0  0  0  0  0
   11.3757    7.6656  -10.5293 N   0  0  0  0  0  0  0  0  0  0  0  0
   10.7153    7.7096  -11.5405 C   0  0  0  0  0  0  0  0  0  0  0  0
   11.2483    7.4711  -12.8542 C   0  0  0  0  0  0  0  0  0  0  0  0
    9.3980    7.7820  -11.5398 C   0  0  0  0  0  0  0  0  0  0  0  0
    8.6055    7.5889  -12.6525 C   0  0  0  0  0  0  0  0  0  0  0  0
   12.7508    7.3705  -13.0162 O   0  0  0  0  0  0  0  0  0  0  0  0
   10.5299    7.1831  -13.9856 C   0  0  0  0  0  0  0  0  0  0  0  0
    7.0533    7.7371  -12.5396 C   0  0  0  0  0  0  0  0  0  0  0  0
   11.2041    6.8490  -15.2304 C   0  0  0  0  0  0  0  0  0  0  0  0
   11.6393    5.5333  -15.3864 C   0  0  0  0  0  0  0  0  0  0  0  0
    9.1955    7.2935  -13.8301 C   0  0  0  0  0  0  0  0  0  0  0  0
   12.5294    5.1116  -16.1609 C   0  0  0  0  0  0  0  0  0  0  0  0
   11.2315    4.4703  -14.3200 C   0  0  0  0  0  0  0  0  0  0  0  0
   13.0194    6.0876  -17.1697 C   0  0  0  0  0  0  0  0  0  0  0  0
   12.3991    7.3271  -17.2011 C   0  0  0  0  0  0  0  0  0  0  0  0
   11.6234    7.7212  -16.1065 C   0  0  0  0  0  0  0  0  0  0  0  0
    6.8111    8.8557  -12.1311 F   0  0  0  0  0  0  0  0  0  0  0  0
   10.0067    4.0539  -14.1822 C   0  0  0  0  0  0  0  0  0  0  0  0
    6.6026    6.8347  -11.5951 F   0  0  0  0  0  0  0  0  0  0  0  0
    9.7932    2.6838  -14.2236 C   0  0  0  0  0  0  0  0  0  0  0  0
    8.9172    4.7456  -13.9387 C   0  0  0  0  0  0  0  0  0  0  0  0
   10.8604    1.7246  -14.4744 F   0  0  0  0  0  0  0  0  0  0  0  0
    8.6405    2.0857  -14.0766 C   0  0  0  0  0  0  0  0  0  0  0  0
    6.4493    7.4930  -13.7144 F   0  0  0  0  0  0  0  0  0  0  0  0
    8.4449    0.6017  -14.1893 F   0  0  0  0  0  0  0  0  0  0  0  0
    7.5045    2.8006  -13.8343 C   0  0  0  0  0  0  0  0  0  0  0  0
    7.6144    4.1861  -13.7420 C   0  0  0  0  0  0  0  0  0  0  0  0
  1  2  1  0  0  0  0
  2  3  1  0  0  0  0
  2  4  1  0  0  0  0
  2  6  1  0  0  0  0
  3  5  1  0  0  0  0
  3 10  1  0  0  0  0
  3 12  1  0  0  0  0
  4  7  1  0  0  0  0
  4  8  2  0  0  0  0
  7  9  2  0  0  0  0
  7 11  1  0  0  0  0
  8 13  1  0  0  0  0
  9 14  1  0  0  0  0
 10 11  1  0  0  0  0
 13 14  2  0  0  0  0
 14 15  1  0  0  0  0
 15 16  1  0  0  0  0
 16 17  1  0  0  0  0
 16 18  2  0  0  0  0
 17 20  1  0  0  0  0
 17 21  2  0  0  0  0
 18 19  1  0  0  0  0
 19 22  1  0  0  0  0
 19 25  2  0  0  0  0
 21 23  1  0  0  0  0
 21 25  1  0  0  0  0
 22 31  1  0  0  0  0
 22 33  1  0  0  0  0
 22 38  1  0  0  0  0
 23 24  1  0  0  0  0
 23 30  2  0  0  0  0
 24 26  2  0  0  0  0
 24 27  1  0  0  0  0
 26 28  1  0  0  0  0
 27 32  1  0  0  0  0
 28 29  2  0  0  0  0
 29 30  1  0  0  0  0
 32 34  1  0  0  0  0
 32 35  2  0  0  0  0
 34 36  1  0  0  0  0
 34 37  2  0  0  0  0
 35 41  1  0  0  0  0
 37 39  1  0  0  0  0
 37 40  1  0  0  0  0
 40 41  2  0  0  0  0
M  END
$$$$

 OpenBabel10082411353D

 41 46  0  0  0  0  0  0  0  0999 V2000
   11.6836    6.0105   -4.8831 C   0  0  0  0  0  0  0  0  0  0  0  0
   11.1291    7.0732   -5.4395 C   0  0  0  0  0  0  0  0  0  0  0  0
   10.6954    7.0156   -6.8073 C   0  0  0  0  0  0  0  0  0  0  0  0
   10.2502    8.1187   -7.5536 C   0  0  2  0  0  0  0  0  0  0  0  0
   11.1205    8.4712   -4.9629 C   0  0  0  0  0  0  0  0  0  0  0  0
   10.8655    8.3511   -8.7960 C   0  0  0  0  0  0  0  0  0  0  0  0
   10.2922    7.8843   -9.9985 C   0  0  0  0  0  0  0  0  0  0  0  0
   10.4654    9.6993   -5.6120 C   0  0  0  0  0  0  0  0  0  0  0  0
   10.3510    9.5971   -7.0014 C   0  0  0  0  0  0  0  0  0  0  0  0
   12.2462    6.3351   -3.5020 C   0  0  0  0  0  0  0  0  0  0  0  0
   11.0471    7.5309  -11.1063 C   0  0  0  0  0  0  0  0  0  0  0  0
   11.7288    8.6923   -3.6518 C   0  0  0  0  0  0  0  0  0  0  0  0
   12.3991    7.7501  -11.1145 C   0  0  0  0  0  0  0  0  0  0  0  0
   12.3738    7.7580   -2.9599 C   0  0  0  0  0  0  0  0  0  0  0  0
   13.1285    8.5075  -10.1661 O   0  0  0  0  0  0  0  0  0  0  0  0
    9.0407    7.3775  -10.0973 N   0  0  0  0  0  0  0  0  0  0  0  0
    8.9787    6.9473  -11.4664 N   0  0  0  0  0  0  0  0  0  0  0  0
   13.1012    7.4459  -12.3707 C   0  0  0  0  0  0  0  0  0  0  0  0
   12.2395    6.9724  -13.2444 C   0  0  0  0  0  0  0  0  0  0  0  0
   10.2768    7.0170  -11.9799 C   0  0  0  0  0  0  0  0  0  0  0  0
   12.9237    6.5822  -14.5759 O   0  0  0  0  0  0  0  0  0  0  0  0
   10.8906    6.6526  -13.2252 C   0  0  0  0  0  0  0  0  0  0  0  0
   12.2396    6.1290  -15.6916 C   0  0  0  0  0  0  0  0  0  0  0  0
    7.8036    6.1825  -11.9342 C   0  0  0  0  0  0  0  0  0  0  0  0
   12.5015    4.7115  -15.7686 C   0  0  0  0  0  0  0  0  0  0  0  0
    7.1685    6.9992  -12.8245 C   0  0  0  0  0  0  0  0  0  0  0  0
   11.2461    3.8540  -15.4851 C   0  0  0  0  0  0  0  0  0  0  0  0
    7.6237    4.9154  -11.6529 C   0  0  0  0  0  0  0  0  0  0  0  0
    6.6378    4.1960  -12.2267 C   0  0  0  0  0  0  0  0  0  0  0  0
    6.2717    2.7675  -11.9743 C   0  0  0  0  0  0  0  0  0  0  0  0
    6.6569    1.8873  -12.9460 C   0  0  0  0  0  0  0  0  0  0  0  0
    6.2393    0.5737  -12.7991 C   0  0  0  0  0  0  0  0  0  0  0  0
    5.7332    5.0094  -13.0098 C   0  0  0  0  0  0  0  0  0  0  0  0
   11.4513    2.5769  -15.3310 O   0  0  0  0  0  0  0  0  0  0  0  0
    7.4197    8.4494  -13.1889 C   0  0  0  0  0  0  0  0  0  0  0  0
    5.9626    6.3199  -13.3932 C   0  0  0  0  0  0  0  0  0  0  0  0
   10.0883    4.4615  -15.2970 O   0  0  0  0  0  0  0  0  0  0  0  0
    7.5717    2.2161  -13.9599 C   0  0  0  0  0  0  0  0  0  0  0  0
    6.8419   -0.3541  -13.5416 C   0  0  0  0  0  0  0  0  0  0  0  0
    8.0924    1.1839  -14.7456 C   0  0  0  0  0  0  0  0  0  0  0  0
    7.6793   -0.1029  -14.5829 C   0  0  0  0  0  0  0  0  0  0  0  0
  1  2  1  0  0  0  0
  1 10  2  0  0  0  0
  2  3  1  0  0  0  0
  2  5  2  0  0  0  0
  3  4  1  0  0  0  0
  4  6  1  6  0  0  0
  4  9  1  0  0  0  0
  5  8  1  0  0  0  0
  5 12  1  0  0  0  0
  6  7  1  0  0  0  0
  7 11  1  0  0  0  0
  7 16  2  0  0  0  0
  8  9  1  0  0  0  0
 10 14  1  0  0  0  0
 11 13  2  0  0  0  0
 11 20  1  0  0  0  0
 12 14  2  0  0  0  0
 13 15  1  0  0  0  0
 13 18  1  0  0  0  0
 16 17  1  0  0  0  0
 17 20  1  0  0  0  0
 17 24  1  0  0  0  0
 18 19  2  0  0  0  0
 19 21  1  0  0  0  0
 19 22  1  0  0  0  0
 20 22  2  0  0  0  0
 21 23  1  0  0  0  0
 23 25  1  0  0  0  0
 24 26  2  0  0  0  0
 24 28  1  0  0  0  0
 25 27  1  0  0  0  0
 26 35  1  0  0  0  0
 26 36  1  0  0  0  0
 27 34  2  0  0  0  0
 27 37  1  0  0  0  0
 28 29  2  0  0  0  0
 29 30  1  0  0  0  0
 29 33  1  0  0  0  0
 30 31  1  0  0  0  0
 31 32  1  0  0  0  0
 31 38  2  0  0  0  0
 32 39  2  0  0  0  0
 33 36  2  0  0  0  0
 38 40  1  0  0  0  0
 39 41  1  0  0  0  0
 40 41  2  0  0  0  0
M  END
$$$$

 OpenBabel10082411353D

 26 28  0  0  0  0  0  0  0  0999 V2000
   12.7863    7.8241  -14.2109 C   0  0  0  0  0  0  0  0  0  0  0  0
   12.4233    7.7158  -13.0289 C   0  0  0  0  0  0  0  0  0  0  0  0
   12.9219    8.1949  -11.8668 C   0  0  0  0  0  0  0  0  0  0  0  0
   11.4275    6.6086  -12.7931 C   0  0  0  0  0  0  0  0  0  0  0  0
   10.3411    6.8404  -12.0679 C   0  0  0  0  0  0  0  0  0  0  0  0
   10.7226    7.4332  -10.7281 C   0  0  0  0  0  0  0  0  0  0  0  0
    9.0684    5.8539  -11.9851 C   0  0  0  0  0  0  0  0  0  0  0  0
    9.8080    7.4062   -9.6015 C   0  0  0  0  0  0  0  0  0  0  0  0
   11.9300    8.1400  -10.6702 C   0  0  0  0  0  0  0  0  0  0  0  0
   11.0289    6.0120  -14.2884 C   0  0  0  0  0  0  0  0  0  0  0  0
    9.9681    6.1425   -8.6941 C   0  0  0  0  0  0  0  0  0  0  0  0
    7.9946    6.5885  -12.1474 C   0  0  0  0  0  0  0  0  0  0  0  0
   10.2822    6.4890   -7.2771 C   0  0  0  0  0  0  0  0  0  0  0  0
   11.5540    6.8919   -6.8963 C   0  0  0  0  0  0  0  0  0  0  0  0
   11.8977    7.2299   -5.5785 C   0  0  0  0  0  0  0  0  0  0  0  0
   11.9395    6.5440  -15.2769 C   0  0  0  0  0  0  0  0  0  0  0  0
    6.8195    5.8154  -12.4332 C   0  0  0  0  0  0  0  0  0  0  0  0
    9.1018    4.4928  -12.2349 C   0  0  0  0  0  0  0  0  0  0  0  0
    7.8393    8.0280  -12.0617 O   0  0  0  0  0  0  0  0  0  0  0  0
    7.8880    8.9078  -13.0355 C   0  0  0  0  0  0  0  0  0  0  0  0
    8.0448    3.8189  -12.3786 C   0  0  0  0  0  0  0  0  0  0  0  0
    6.9005    4.4499  -12.5414 C   0  0  0  0  0  0  0  0  0  0  0  0
   12.1246    8.5771   -5.2175 C   0  0  0  0  0  0  0  0  0  0  0  0
    5.5721    3.6497  -12.8085 C   0  0  0  0  0  0  0  0  0  0  0  0
   11.1206    9.2368   -4.5046 C   0  0  0  0  0  0  0  0  0  0  0  0
   13.2607    9.3219   -5.7257 C   0  0  0  0  0  0  0  0  0  0  0  0
  1  2  1  0  0  0  0
  1 16  1  0  0  0  0
  2  3  1  0  0  0  0
  2  4  2  0  0  0  0
  3  9  2  0  0  0  0
  4  5  1  0  0  0  0
  4 10  1  0  0  0  0
  5  6  2  0  0  0  0
  5  7  1  0  0  0  0
  6  8  1  0  0  0  0
  6  9  1  0  0  0  0
  7 12  1  0  0  0  0
  7 18  2  0  0  0  0
  8 11  1  0  0  0  0
 10 16  1  0  0  0  0
 11 13  1  0  0  0  0
 12 17  2  0  0  0  0
 12 19  1  0  0  0  0
 13 14  2  3  0  0  0
 14 15  1  0  0  0  0
 15 23  1  0  0  0  0
 17 22  1  0  0  0  0
 18 21  1  0  0  0  0
 19 20  1  0  0  0  0
 21 22  2  0  0  0  0
 22 24  1  0  0  0  0
 23 25  1  0  0  0  0
 23 26  2  0  0  0  0
M  END
$$$$

 OpenBabel10082411353D

 41 49  0  0  0  0  0  0  0  0999 V2000
   12.7863    7.8241  -14.2109 C   0  0  0  0  0  0  0  0  0  0  0  0
   12.4233    7.7158  -13.0289 C   0  0  0  0  0  0  0  0  0  0  0  0
   11.3194    6.8571  -12.8028 C   0  0  0  0  0  0  0  0  0  0  0  0
   12.3150    7.2021  -15.3582 C   0  0  0  0  0  0  0  0  0  0  0  0
   11.2733    6.2739  -15.1502 C   0  0  0  0  0  0  0  0  0  0  0  0
   10.8099    6.0126  -13.8600 C   0  0  0  0  0  0  0  0  0  0  0  0
    9.6782    5.1428  -13.6488 C   0  0  0  0  0  0  0  0  0  0  0  0
    8.5753    5.3880  -12.9589 N   0  0  0  0  0  0  0  0  0  0  0  0
    8.3226    6.7011  -12.3862 C   0  0  0  0  0  0  0  0  0  0  0  0
    9.8502    3.8578  -14.0728 C   0  0  0  0  0  0  0  0  0  0  0  0
    7.3864    7.4720  -13.0530 C   0  0  0  0  0  0  0  0  0  0  0  0
    6.2412    7.8486  -12.2599 C   0  0  0  0  0  0  0  0  0  0  0  0
    7.6425    4.4186  -12.7943 C   0  0  0  0  0  0  0  0  0  0  0  0
   11.0297    3.2482  -14.8053 C   0  0  0  0  0  0  0  0  0  0  0  0
    8.6802    2.8955  -13.7960 C   0  0  0  0  0  0  0  0  0  0  0  0
    8.8565    1.5917  -14.3582 O   0  0  0  0  0  0  0  0  0  0  0  0
    7.6903    3.2226  -13.1994 N   0  0  0  0  0  0  0  0  0  0  0  0
    6.5724    2.3444  -12.8378 C   0  0  0  0  0  0  0  0  0  0  0  0
    9.0225    7.0353  -11.3259 C   0  0  0  0  0  0  0  0  0  0  0  0
    6.2405    4.8489  -12.4515 C   0  0  0  0  0  0  0  0  0  0  0  0
   10.5875    7.0617  -11.5321 C   0  0  0  0  0  0  0  0  0  0  0  0
   11.0960    7.6093  -10.4100 C   0  0  0  0  0  0  0  0  0  0  0  0
    8.4039    7.3336  -10.1102 C   0  0  0  0  0  0  0  0  0  0  0  0
    5.5911    3.3517  -12.3508 C   0  0  0  0  0  0  0  0  0  0  0  0
   12.6259    7.6530  -10.3901 C   0  0  0  0  0  0  0  0  0  0  0  0
   10.4284    7.7784   -9.2128 C   0  0  1  0  0  0  0  0  0  0  0  0
    9.2236    7.5051   -9.0617 C   0  0  2  0  0  0  0  0  0  0  0  0
    8.7145    7.3063   -7.7135 N   0  0  2  0  0  0  0  0  0  0  0  0
   11.0621    7.5242   -7.8430 C   0  0  1  0  0  0  0  0  0  0  0  0
   12.0213    8.4787   -7.3268 C   0  0  0  0  0  0  0  0  0  0  0  0
   13.1241    8.0749  -11.7293 C   0  0  0  0  0  0  0  0  0  0  0  0
   12.0504    9.6950   -7.9009 O   0  0  0  0  0  0  0  0  0  0  0  0
    9.8858    7.2444   -6.9594 C   0  0  2  0  0  0  0  0  0  0  0  0
    9.9777    5.9996   -6.3117 C   0  0  2  0  0  0  0  0  0  0  0  0
    8.9391    5.1621   -6.4362 C   0  0  1  0  0  0  0  0  0  0  0  0
   12.5667    8.4703   -6.0695 N   0  0  0  0  0  0  0  0  0  0  0  0
   12.2361    7.4359   -5.1316 C   0  0  0  0  0  0  0  0  0  0  0  0
   11.3239    6.3853   -5.4279 C   0  0  0  0  0  0  0  0  0  0  0  0
    8.0774    5.9107   -7.1787 C   0  0  0  0  0  0  0  0  0  0  0  0
    9.0473    3.8688   -6.7268 O   0  0  0  0  0  0  0  0  0  0  0  0
   13.4052    9.5996   -5.6023 C   0  0  0  0  0  0  0  0  0  0  0  0
  1  2  2  0  0  0  0
  1  4  1  0  0  0  0
  2  3  1  0  0  0  0
  2 31  1  0  0  0  0
  3  6  2  0  0  0  0
  3 21  1  0  0  0  0
  4  5  2  0  0  0  0
  5  6  1  0  0  0  0
  6  7  1  0  0  0  0
  7  8  1  0  0  0  0
  7 10  2  0  0  0  0
  8  9  1  0  0  0  0
  8 13  1  0  0  0  0
  9 11  1  0  0  0  0
  9 19  2  0  0  0  0
 10 14  1  0  0  0  0
 10 15  1  0  0  0  0
 11 12  1  0  0  0  0
 13 17  1  0  0  0  0
 13 20  2  0  0  0  0
 15 16  2  0  0  0  0
 15 17  1  0  0  0  0
 17 18  1  0  0  0  0
 18 24  1  0  0  0  0
 19 21  1  0  0  0  0
 19 23  1  0  0  0  0
 20 24  1  0  0  0  0
 21 22  2  0  0  0  0
 22 25  1  0  0  0  0
 25 31  2  0  0  0  0
 26 22  1  6  0  0  0
 26 27  1  0  0  0  0
 26 29  1  0  0  0  0
 27 23  1  6  0  0  0
 27 28  1  0  0  0  0
 28 33  1  0  0  0  0
 28 39  1  6  0  0  0
 29 30  1  1  0  0  0
 29 33  1  0  0  0  0
 30 32  2  0  0  0  0
 30 36  1  0  0  0  0
 33 34  1  0  0  0  0
 34 35  1  0  0  0  0
 34 38  1  0  0  0  0
 35 39  1  0  0  0  0
 35 40  1  0  0  0  0
 36 37  1  0  0  0  0
 36 41  1  0  0  0  0
 37 38  2  0  0  0  0
M  END
$$$$

 OpenBabel10082411353D

 41 45  0  0  0  0  0  0  0  0999 V2000
   11.6836    6.0105   -4.8831 F   0  0  0  0  0  0  0  0  0  0  0  0
   11.2562    7.2206   -5.0294 C   0  0  0  0  0  0  0  0  0  0  0  0
   12.0125    8.2418   -4.4408 C   0  0  0  0  0  0  0  0  0  0  0  0
   11.1918    7.2706   -6.5237 C   0  0  0  0  0  0  0  0  0  0  0  0
   11.6999    8.4488   -3.1704 F   0  0  0  0  0  0  0  0  0  0  0  0
    9.8648    7.0908   -4.5314 F   0  0  0  0  0  0  0  0  0  0  0  0
   11.6831    8.5291   -6.9682 C   0  0  0  0  0  0  0  0  0  0  0  0
   10.4785    6.5189   -7.4033 C   0  0  0  0  0  0  0  0  0  0  0  0
   11.6979    8.6661   -8.4760 C   0  0  0  0  0  0  0  0  0  0  0  0
   11.6248    9.5853   -5.0030 C   0  0  0  0  0  0  0  0  0  0  0  0
   11.8604    9.7907   -6.2903 O   0  0  0  0  0  0  0  0  0  0  0  0
   13.3557    8.1748   -4.5947 F   0  0  0  0  0  0  0  0  0  0  0  0
   10.5427    6.6061   -8.7190 C   0  0  0  0  0  0  0  0  0  0  0  0
   11.1158    7.7103   -9.2540 C   0  0  0  0  0  0  0  0  0  0  0  0
   11.3757    7.6656  -10.5293 N   0  0  0  0  0  0  0  0  0  0  0  0
   10.7153    7.7096  -11.5405 C   0  0  0  0  0  0  0  0  0  0  0  0
   11.2483    7.4711  -12.8542 C   0  0  0  0  0  0  0  0  0  0  0  0
    9.3980    7.7820  -11.5398 C   0  0  0  0  0  0  0  0  0  0  0  0
    8.6055    7.5889  -12.6525 C   0  0  0  0  0  0  0  0  0  0  0  0
   12.7508    7.3705  -13.0162 O   0  0  0  0  0  0  0  0  0  0  0  0
   10.5299    7.1831  -13.9856 C   0  0  0  0  0  0  0  0  0  0  0  0
    7.0533    7.7371  -12.5396 C   0  0  0  0  0  0  0  0  0  0  0  0
   11.2041    6.8490  -15.2304 C   0  0  0  0  0  0  0  0  0  0  0  0
   11.6393    5.5333  -15.3864 C   0  0  0  0  0  0  0  0  0  0  0  0
    9.1955    7.2935  -13.8301 C   0  0  0  0  0  0  0  0  0  0  0  0
   12.5294    5.1116  -16.1609 C   0  0  0  0  0  0  0  0  0  0  0  0
   11.2315    4.4703  -14.3200 C   0  0  0  0  0  0  0  0  0  0  0  0
   13.0194    6.0876  -17.1697 C   0  0  0  0  0  0  0  0  0  0  0  0
   12.3991    7.3271  -17.2011 C   0  0  0  0  0  0  0  0  0  0  0  0
   11.6234    7.7212  -16.1065 C   0  0  0  0  0  0  0  0  0  0  0  0
    6.8111    8.8557  -12.1311 F   0  0  0  0  0  0  0  0  0  0  0  0
   10.0067    4.0539  -14.1822 C   0  0  0  0  0  0  0  0  0  0  0  0
    6.6026    6.8347  -11.5951 F   0  0  0  0  0  0  0  0  0  0  0  0
    9.7932    2.6838  -14.2236 C   0  0  0  0  0  0  0  0  0  0  0  0
    8.9172    4.7456  -13.9387 C   0  0  0  0  0  0  0  0  0  0  0  0
    8.6274    2.2762  -14.1460 C   0  0  0  0  0  0  0  0  0  0  0  0
    8.3675    0.7515  -14.2475 C   0  0  0  0  0  0  0  0  0  0  0  0
    6.5409    7.4224  -13.7587 F   0  0  0  0  0  0  0  0  0  0  0  0
    7.6177    4.2782  -13.7833 C   0  0  0  0  0  0  0  0  0  0  0  0
    6.5103    5.0668  -13.4733 F   0  0  0  0  0  0  0  0  0  0  0  0
    7.5077    2.9443  -13.8256 C   0  0  0  0  0  0  0  0  0  0  0  0
  1  2  1  0  0  0  0
  2  3  1  0  0  0  0
  2  4  1  0  0  0  0
  2  6  1  0  0  0  0
  3  5  1  0  0  0  0
  3 10  1  0  0  0  0
  3 12  1  0  0  0  0
  4  7  1  0  0  0  0
  4  8  2  0  0  0  0
  7  9  2  0  0  0  0
  7 11  1  0  0  0  0
  8 13  1  0  0  0  0
  9 14  1  0  0  0  0
 10 11  1  0  0  0  0
 13 14  2  0  0  0  0
 14 15  1  0  0  0  0
 15 16  1  0  0  0  0
 16 17  1  0  0  0  0
 16 18  2  0  0  0  0
 17 20  1  0  0  0  0
 17 21  2  0  0  0  0
 18 19  1  0  0  0  0
 19 22  1  0  0  0  0
 19 25  2  0  0  0  0
 21 23  1  0  0  0  0
 21 25  1  0  0  0  0
 22 31  1  0  0  0  0
 22 33  1  0  0  0  0
 22 38  1  0  0  0  0
 23 24  1  0  0  0  0
 23 30  2  0  0  0  0
 24 26  2  0  0  0  0
 24 27  1  0  0  0  0
 26 28  1  0  0  0  0
 27 32  1  0  0  0  0
 28 29  2  0  0  0  0
 29 30  1  0  0  0  0
 32 34  1  0  0  0  0
 32 35  2  0  0  0  0
 34 36  2  0  0  0  0
 35 39  1  0  0  0  0
 36 37  1  0  0  0  0
 36 41  1  0  0  0  0
 39 40  1  0  0  0  0
 39 41  2  0  0  0  0
M  END
$$$$

 OpenBabel10082411353D

 41 48  0  0  0  0  0  0  0  0999 V2000
   12.7863    7.8241  -14.2109 C   0  0  0  0  0  0  0  0  0  0  0  0
   12.4233    7.7158  -13.0289 C   0  0  0  0  0  0  0  0  0  0  0  0
   11.3194    6.8571  -12.8028 C   0  0  0  0  0  0  0  0  0  0  0  0
   12.3150    7.2021  -15.3582 C   0  0  0  0  0  0  0  0  0  0  0  0
   11.2733    6.2739  -15.1502 C   0  0  0  0  0  0  0  0  0  0  0  0
   10.8099    6.0126  -13.8600 C   0  0  0  0  0  0  0  0  0  0  0  0
    9.6782    5.1428  -13.6488 C   0  0  0  0  0  0  0  0  0  0  0  0
    8.5753    5.3880  -12.9589 N   0  0  0  0  0  0  0  0  0  0  0  0
    8.3226    6.7011  -12.3862 C   0  0  0  0  0  0  0  0  0  0  0  0
    9.8502    3.8578  -14.0728 C   0  0  0  0  0  0  0  0  0  0  0  0
    7.3864    7.4720  -13.0530 C   0  0  0  0  0  0  0  0  0  0  0  0
    6.2412    7.8486  -12.2599 C   0  0  0  0  0  0  0  0  0  0  0  0
    7.6425    4.4186  -12.7943 C   0  0  0  0  0  0  0  0  0  0  0  0
   11.0297    3.2482  -14.8053 C   0  0  0  0  0  0  0  0  0  0  0  0
    8.6802    2.8955  -13.7960 C   0  0  0  0  0  0  0  0  0  0  0  0
    8.8565    1.5917  -14.3582 O   0  0  0  0  0  0  0  0  0  0  0  0
    7.6903    3.2226  -13.1994 N   0  0  0  0  0  0  0  0  0  0  0  0
    6.5724    2.3444  -12.8378 C   0  0  0  0  0  0  0  0  0  0  0  0
    9.0225    7.0353  -11.3259 C   0  0  0  0  0  0  0  0  0  0  0  0
    6.2405    4.8489  -12.4515 C   0  0  0  0  0  0  0  0  0  0  0  0
   10.5875    7.0617  -11.5321 C   0  0  0  0  0  0  0  0  0  0  0  0
   11.0960    7.6093  -10.4100 C   0  0  0  0  0  0  0  0  0  0  0  0
    8.4039    7.3336  -10.1102 C   0  0  0  0  0  0  0  0  0  0  0  0
    5.5911    3.3517  -12.3508 C   0  0  0  0  0  0  0  0  0  0  0  0
   12.6259    7.6530  -10.3901 C   0  0  0  0  0  0  0  0  0  0  0  0
   10.4284    7.7784   -9.2128 C   0  0  0  0  0  0  0  0  0  0  0  0
    9.2236    7.5051   -9.0617 C   0  0  2  0  0  0  0  0  0  0  0  0
    8.7145    7.3063   -7.7135 N   0  0  0  0  0  0  0  0  0  0  0  0
    9.3548    8.2125   -6.8305 C   0  0  0  0  0  0  0  0  0  0  0  0
   13.2400    8.3532   -9.3250 C   0  0  0  0  0  0  0  0  0  0  0  0
    8.8718    5.9168   -7.2228 C   0  0  0  0  0  0  0  0  0  0  0  0
   12.5074    8.3587   -8.0386 C   0  0  0  0  0  0  0  0  0  0  0  0
   11.1924    8.1932   -7.9474 C   0  0  0  0  0  0  0  0  0  0  0  0
   10.5178    8.6952   -6.8252 C   0  0  0  0  0  0  0  0  0  0  0  0
   11.2154    9.5775   -5.8394 C   0  0  0  0  0  0  0  0  0  0  0  0
   11.4609    9.0655   -4.4906 C   0  0  0  0  0  0  0  0  0  0  0  0
   12.4935    9.6111   -3.7398 C   0  0  0  0  0  0  0  0  0  0  0  0
   10.9831    7.8342   -4.1450 C   0  0  0  0  0  0  0  0  0  0  0  0
   11.4793    7.1856   -2.9255 C   0  0  0  0  0  0  0  0  0  0  0  0
   12.9298    9.1062   -2.5771 C   0  0  0  0  0  0  0  0  0  0  0  0
   12.3891    7.9128   -2.1378 C   0  0  0  0  0  0  0  0  0  0  0  0
  1  2  2  0  0  0  0
  1  4  1  0  0  0  0
  2  3  1  0  0  0  0
  3  6  2  0  0  0  0
  3 21  1  0  0  0  0
  4  5  2  0  0  0  0
  5  6  1  0  0  0  0
  6  7  1  0  0  0  0
  7  8  1  0  0  0  0
  7 10  2  0  0  0  0
  8  9  1  0  0  0  0
  8 13  1  0  0  0  0
  9 11  1  0  0  0  0
  9 19  2  0  0  0  0
 10 14  1  0  0  0  0
 10 15  1  0  0  0  0
 11 12  1  0  0  0  0
 13 17  1  0  0  0  0
 13 20  2  0  0  0  0
 15 16  2  0  0  0  0
 15 17  1  0  0  0  0
 17 18  1  0  0  0  0
 18 24  1  0  0  0  0
 19 21  1  0  0  0  0
 19 23  1  0  0  0  0
 20 24  1  0  0  0  0
 21 22  2  0  0  0  0
 22 25  1  0  0  0  0
 22 26  1  0  0  0  0
 25 30  1  0  0  0  0
 26 27  1  0  0  0  0
 26 33  2  0  0  0  0
 27 23  1  6  0  0  0
 27 28  1  0  0  0  0
 28 29  1  0  0  0  0
 28 31  1  0  0  0  0
 29 34  2  0  0  0  0
 30 32  1  0  0  0  0
 32 33  1  0  0  0  0
 33 34  1  0  0  0  0
 34 35  1  0  0  0  0
 35 36  1  0  0  0  0
 36 37  1  0  0  0  0
 36 38  2  0  0  0  0
 37 40  2  0  0  0  0
 38 39  1  0  0  0  0
 39 41  2  0  0  0  0
 40 41  1  0  0  0  0
M  END
$$$$

 OpenBabel10082411353D

 41 46  0  0  0  0  0  0  0  0999 V2000
   11.6836    6.0105   -4.8831 C   0  0  0  0  0  0  0  0  0  0  0  0
   11.1291    7.0732   -5.4395 C   0  0  0  0  0  0  0  0  0  0  0  0
   10.6954    7.0156   -6.8073 C   0  0  0  0  0  0  0  0  0  0  0  0
   10.2502    8.1187   -7.5536 C   0  0  2  0  0  0  0  0  0  0  0  0
   11.1205    8.4712   -4.9629 C   0  0  0  0  0  0  0  0  0  0  0  0
   10.8655    8.3511   -8.7960 C   0  0  0  0  0  0  0  0  0  0  0  0
   10.2922    7.8843   -9.9985 C   0  0  0  0  0  0  0  0  0  0  0  0
   10.4654    9.6993   -5.6120 C   0  0  0  0  0  0  0  0  0  0  0  0
   10.3510    9.5971   -7.0014 C   0  0  0  0  0  0  0  0  0  0  0  0
   12.2462    6.3351   -3.5020 C   0  0  0  0  0  0  0  0  0  0  0  0
   11.0471    7.5309  -11.1063 C   0  0  0  0  0  0  0  0  0  0  0  0
   11.7288    8.6923   -3.6518 C   0  0  0  0  0  0  0  0  0  0  0  0
   12.3991    7.7501  -11.1145 C   0  0  0  0  0  0  0  0  0  0  0  0
   12.3738    7.7580   -2.9599 C   0  0  0  0  0  0  0  0  0  0  0  0
   13.1285    8.5075  -10.1661 O   0  0  0  0  0  0  0  0  0  0  0  0
    9.0407    7.3775  -10.0973 N   0  0  0  0  0  0  0  0  0  0  0  0
    8.9787    6.9473  -11.4664 N   0  0  0  0  0  0  0  0  0  0  0  0
   13.1012    7.4459  -12.3707 C   0  0  0  0  0  0  0  0  0  0  0  0
   12.2395    6.9724  -13.2444 C   0  0  0  0  0  0  0  0  0  0  0  0
   10.2768    7.0170  -11.9799 C   0  0  0  0  0  0  0  0  0  0  0  0
   12.9237    6.5822  -14.5759 O   0  0  0  0  0  0  0  0  0  0  0  0
   10.8906    6.6526  -13.2252 C   0  0  0  0  0  0  0  0  0  0  0  0
   12.2396    6.1290  -15.6916 C   0  0  0  0  0  0  0  0  0  0  0  0
    7.8036    6.1825  -11.9342 C   0  0  0  0  0  0  0  0  0  0  0  0
   12.5015    4.7115  -15.7686 C   0  0  0  0  0  0  0  0  0  0  0  0
    7.1685    6.9992  -12.8245 C   0  0  0  0  0  0  0  0  0  0  0  0
   11.2461    3.8540  -15.4851 C   0  0  0  0  0  0  0  0  0  0  0  0
    7.6237    4.9154  -11.6529 C   0  0  0  0  0  0  0  0  0  0  0  0
    6.6378    4.1960  -12.2267 C   0  0  0  0  0  0  0  0  0  0  0  0
    6.2717    2.7675  -11.9743 C   0  0  0  0  0  0  0  0  0  0  0  0
    6.6569    1.8873  -12.9460 C   0  0  0  0  0  0  0  0  0  0  0  0
    7.3895    8.4597  -13.1785 C   0  0  0  0  0  0  0  0  0  0  0  0
    6.3114    0.5653  -12.7247 C   0  0  0  0  0  0  0  0  0  0  0  0
    7.7684    2.0327  -13.9055 C   0  0  0  0  0  0  0  0  0  0  0  0
    8.3733    3.3319  -14.0408 C   0  0  0  0  0  0  0  0  0  0  0  0
    6.7866   -0.4375  -13.6507 C   0  0  0  0  0  0  0  0  0  0  0  0
   11.3491    2.6020  -15.5284 O   0  0  0  0  0  0  0  0  0  0  0  0
   10.0815    4.4913  -15.3913 N   0  0  0  0  0  0  0  0  0  0  0  0
    8.8012    3.7393  -15.2821 C   0  0  0  0  0  0  0  0  0  0  0  0
    7.7795   -0.2309  -14.5007 C   0  0  0  0  0  0  0  0  0  0  0  0
    8.2919    1.0308  -14.6141 C   0  0  0  0  0  0  0  0  0  0  0  0
  1  2  1  0  0  0  0
  1 10  2  0  0  0  0
  2  3  1  0  0  0  0
  2  5  2  0  0  0  0
  3  4  1  0  0  0  0
  4  6  1  6  0  0  0
  4  9  1  0  0  0  0
  5  8  1  0  0  0  0
  5 12  1  0  0  0  0
  6  7  1  0  0  0  0
  7 11  1  0  0  0  0
  7 16  2  0  0  0  0
  8  9  1  0  0  0  0
 10 14  1  0  0  0  0
 11 13  2  0  0  0  0
 11 20  1  0  0  0  0
 12 14  2  0  0  0  0
 13 15  1  0  0  0  0
 13 18  1  0  0  0  0
 16 17  1  0  0  0  0
 17 20  1  0  0  0  0
 17 24  1  0  0  0  0
 18 19  2  0  0  0  0
 19 21  1  0  0  0  0
 19 22  1  0  0  0  0
 20 22  2  0  0  0  0
 21 23  1  0  0  0  0
 23 25  1  0  0  0  0
 24 26  2  3  0  0  0
 24 28  1  0  0  0  0
 25 27  1  0  0  0  0
 26 32  1  0  0  0  0
 27 37  2  0  0  0  0
 27 38  1  0  0  0  0
 28 29  2  0  0  0  0
 29 30  1  0  0  0  0
 30 31  1  0  0  0  0
 31 33  2  0  0  0  0
 31 34  1  0  0  0  0
 33 36  1  0  0  0  0
 34 35  1  0  0  0  0
 34 41  2  0  0  0  0
 35 39  1  0  0  0  0
 36 40  2  0  0  0  0
 38 39  1  0  0  0  0
 40 41  1  0  0  0  0
M  END
$$$$

 OpenBabel10082411353D

 41 46  0  0  0  0  0  0  0  0999 V2000
   11.6836    6.0105   -4.8831 C   0  0  0  0  0  0  0  0  0  0  0  0
   11.1291    7.0732   -5.4395 C   0  0  0  0  0  0  0  0  0  0  0  0
   10.6954    7.0156   -6.8073 C   0  0  0  0  0  0  0  0  0  0  0  0
   10.2502    8.1187   -7.5536 C   0  0  2  0  0  0  0  0  0  0  0  0
   11.1205    8.4712   -4.9629 C   0  0  0  0  0  0  0  0  0  0  0  0
   10.8655    8.3511   -8.7960 C   0  0  0  0  0  0  0  0  0  0  0  0
   10.2922    7.8843   -9.9985 C   0  0  0  0  0  0  0  0  0  0  0  0
   10.4654    9.6993   -5.6120 C   0  0  0  0  0  0  0  0  0  0  0  0
   10.3510    9.5971   -7.0014 C   0  0  0  0  0  0  0  0  0  0  0  0
   12.2462    6.3351   -3.5020 C   0  0  0  0  0  0  0  0  0  0  0  0
   11.0471    7.5309  -11.1063 C   0  0  0  0  0  0  0  0  0  0  0  0
   11.7288    8.6923   -3.6518 C   0  0  0  0  0  0  0  0  0  0  0  0
   12.3991    7.7501  -11.1145 C   0  0  0  0  0  0  0  0  0  0  0  0
   12.3738    7.7580   -2.9599 C   0  0  0  0  0  0  0  0  0  0  0  0
   13.1285    8.5075  -10.1661 O   0  0  0  0  0  0  0  0  0  0  0  0
    9.0407    7.3775  -10.0973 N   0  0  0  0  0  0  0  0  0  0  0  0
    8.9787    6.9473  -11.4664 N   0  0  0  0  0  0  0  0  0  0  0  0
   13.1012    7.4459  -12.3707 C   0  0  0  0  0  0  0  0  0  0  0  0
   12.2395    6.9724  -13.2444 C   0  0  0  0  0  0  0  0  0  0  0  0
   10.2768    7.0170  -11.9799 C   0  0  0  0  0  0  0  0  0  0  0  0
   12.9237    6.5822  -14.5759 O   0  0  0  0  0  0  0  0  0  0  0  0
   10.8906    6.6526  -13.2252 C   0  0  0  0  0  0  0  0  0  0  0  0
   12.2396    6.1290  -15.6916 C   0  0  0  0  0  0  0  0  0  0  0  0
    7.8036    6.1825  -11.9342 C   0  0  0  0  0  0  0  0  0  0  0  0
   12.5015    4.7115  -15.7686 C   0  0  0  0  0  0  0  0  0  0  0  0
    7.1685    6.9992  -12.8245 C   0  0  0  0  0  0  0  0  0  0  0  0
   11.2461    3.8540  -15.4851 C   0  0  0  0  0  0  0  0  0  0  0  0
    7.6237    4.9154  -11.6529 C   0  0  0  0  0  0  0  0  0  0  0  0
    6.6378    4.1960  -12.2267 C   0  0  0  0  0  0  0  0  0  0  0  0
    6.2717    2.7675  -11.9743 C   0  0  0  0  0  0  0  0  0  0  0  0
    6.6569    1.8873  -12.9460 C   0  0  2  0  0  0  0  0  0  0  0  0
    6.2393    0.5737  -12.7991 C   0  0  0  0  0  0  0  0  0  0  0  0
    5.7332    5.0094  -13.0098 C   0  0  0  0  0  0  0  0  0  0  0  0
    8.0694    1.7452  -13.2422 O   0  0  0  0  0  0  0  0  0  0  0  0
   11.4731    2.5511  -15.3619 O   0  0  0  0  0  0  0  0  0  0  0  0
   10.4833    1.8178  -15.6764 C   0  0  0  0  0  0  0  0  0  0  0  0
    8.4843    1.6759  -14.4990 C   0  0  0  0  0  0  0  0  0  0  0  0
    7.6962    1.5233  -15.4240 O   0  0  0  0  0  0  0  0  0  0  0  0
    7.4570    8.4970  -13.1698 C   0  0  0  0  0  0  0  0  0  0  0  0
    6.0486    6.3458  -13.3801 C   0  0  0  0  0  0  0  0  0  0  0  0
    9.8133    1.5419  -14.3841 C   0  0  0  0  0  0  0  0  0  0  0  0
  1  2  1  0  0  0  0
  1 10  2  0  0  0  0
  2  3  1  0  0  0  0
  2  5  2  0  0  0  0
  3  4  1  0  0  0  0
  4  6  1  6  0  0  0
  4  9  1  0  0  0  0
  5  8  1  0  0  0  0
  5 12  1  0  0  0  0
  6  7  1  0  0  0  0
  7 11  1  0  0  0  0
  7 16  2  0  0  0  0
  8  9  1  0  0  0  0
 10 14  1  0  0  0  0
 11 13  2  0  0  0  0
 11 20  1  0  0  0  0
 12 14  2  0  0  0  0
 13 15  1  0  0  0  0
 13 18  1  0  0  0  0
 16 17  1  0  0  0  0
 17 20  1  0  0  0  0
 17 24  1  0  0  0  0
 18 19  2  0  0  0  0
 19 21  1  0  0  0  0
 19 22  1  0  0  0  0
 20 22  2  0  0  0  0
 21 23  1  0  0  0  0
 23 25  1  0  0  0  0
 24 26  2  0  0  0  0
 24 28  1  0  0  0  0
 25 27  1  0  0  0  0
 26 39  1  0  0  0  0
 26 40  1  0  0  0  0
 27 35  1  0  0  0  0
 28 29  2  0  0  0  0
 29 30  1  0  0  0  0
 29 33  1  0  0  0  0
 30 31  1  0  0  0  0
 31 32  1  1  0  0  0
 31 34  1  0  0  0  0
 33 40  2  0  0  0  0
 34 37  1  0  0  0  0
 35 36  1  0  0  0  0
 36 41  1  0  0  0  0
 37 38  2  0  0  0  0
 37 41  1  0  0  0  0
M  END
$$$$

 OpenBabel10082411353D

 41 46  0  0  0  0  0  0  0  0999 V2000
   11.6836    6.0105   -4.8831 F   0  0  0  0  0  0  0  0  0  0  0  0
   11.2562    7.2206   -5.0294 C   0  0  0  0  0  0  0  0  0  0  0  0
   12.0125    8.2418   -4.4408 C   0  0  0  0  0  0  0  0  0  0  0  0
   11.1918    7.2706   -6.5237 C   0  0  0  0  0  0  0  0  0  0  0  0
   11.6999    8.4488   -3.1704 F   0  0  0  0  0  0  0  0  0  0  0  0
    9.8648    7.0908   -4.5314 F   0  0  0  0  0  0  0  0  0  0  0  0
   11.6831    8.5291   -6.9682 C   0  0  0  0  0  0  0  0  0  0  0  0
   10.4785    6.5189   -7.4033 C   0  0  0  0  0  0  0  0  0  0  0  0
   11.6979    8.6661   -8.4760 C   0  0  0  0  0  0  0  0  0  0  0  0
   11.6248    9.5853   -5.0030 C   0  0  0  0  0  0  0  0  0  0  0  0
   11.8604    9.7907   -6.2903 O   0  0  0  0  0  0  0  0  0  0  0  0
   13.3557    8.1748   -4.5947 F   0  0  0  0  0  0  0  0  0  0  0  0
   10.5427    6.6061   -8.7190 C   0  0  0  0  0  0  0  0  0  0  0  0
   11.1158    7.7103   -9.2540 C   0  0  0  0  0  0  0  0  0  0  0  0
   11.3757    7.6656  -10.5293 N   0  0  0  0  0  0  0  0  0  0  0  0
   10.7153    7.7096  -11.5405 C   0  0  0  0  0  0  0  0  0  0  0  0
   11.2483    7.4711  -12.8542 C   0  0  0  0  0  0  0  0  0  0  0  0
    9.3980    7.7820  -11.5398 C   0  0  0  0  0  0  0  0  0  0  0  0
    8.6055    7.5889  -12.6525 C   0  0  0  0  0  0  0  0  0  0  0  0
   12.7508    7.3705  -13.0162 O   0  0  0  0  0  0  0  0  0  0  0  0
   10.5299    7.1831  -13.9856 C   0  0  0  0  0  0  0  0  0  0  0  0
    7.0533    7.7371  -12.5396 C   0  0  0  0  0  0  0  0  0  0  0  0
   11.2041    6.8490  -15.2304 C   0  0  0  0  0  0  0  0  0  0  0  0
   11.6393    5.5333  -15.3864 C   0  0  0  0  0  0  0  0  0  0  0  0
    9.1955    7.2935  -13.8301 C   0  0  0  0  0  0  0  0  0  0  0  0
   12.5294    5.1116  -16.1609 C   0  0  0  0  0  0  0  0  0  0  0  0
   11.2315    4.4703  -14.3200 C   0  0  0  0  0  0  0  0  0  0  0  0
   13.0194    6.0876  -17.1697 C   0  0  0  0  0  0  0  0  0  0  0  0
   12.9874    3.8316  -16.1456 C   0  0  0  0  0  0  0  0  0  0  0  0
   12.3949    2.9126  -15.4671 C   0  0  0  0  0  0  0  0  0  0  0  0
   10.2274    4.8149  -13.2643 C   0  0  0  0  0  0  0  0  0  0  0  0
    8.9564    4.3798  -13.5553 C   0  0  0  0  0  0  0  0  0  0  0  0
    8.7030    2.9995  -13.6113 C   0  0  0  0  0  0  0  0  0  0  0  0
   11.4166    3.2431  -14.5460 C   0  0  0  0  0  0  0  0  0  0  0  0
    7.3695    2.5639  -13.4881 C   0  0  0  0  0  0  0  0  0  0  0  0
   10.5729    2.1979  -13.9272 C   0  0  0  0  0  0  0  0  0  0  0  0
    9.5358    2.1981  -13.9798 C   0  0  0  0  0  0  0  0  0  0  0  0
    6.4075    3.3743  -12.8151 C   0  0  0  0  0  0  0  0  0  0  0  0
    5.3763    2.6754  -12.1448 C   0  0  0  0  0  0  0  0  0  0  0  0
    6.9140    1.3353  -13.7347 C   0  0  0  0  0  0  0  0  0  0  0  0
    5.4941    1.1467  -12.8691 S   0  0  0  0  0  0  0  0  0  0  0  0
  1  2  1  0  0  0  0
  2  3  1  0  0  0  0
  2  4  1  0  0  0  0
  2  6  1  0  0  0  0
  3  5  1  0  0  0  0
  3 10  1  0  0  0  0
  3 12  1  0  0  0  0
  4  7  1  0  0  0  0
  4  8  2  0  0  0  0
  7  9  2  0  0  0  0
  7 11  1  0  0  0  0
  8 13  1  0  0  0  0
  9 14  1  0  0  0  0
 10 11  1  0  0  0  0
 13 14  2  0  0  0  0
 14 15  1  0  0  0  0
 15 16  1  0  0  0  0
 16 17  1  0  0  0  0
 16 18  2  0  0  0  0
 17 20  1  0  0  0  0
 17 21  2  0  0  0  0
 18 19  1  0  0  0  0
 19 22  1  0  0  0  0
 19 25  2  0  0  0  0
 21 23  1  0  0  0  0
 21 25  1  0  0  0  0
 23 24  1  0  0  0  0
 24 26  2  0  0  0  0
 24 27  1  0  0  0  0
 26 28  1  0  0  0  0
 26 29  1  0  0  0  0
 27 31  1  0  0  0  0
 27 34  2  0  0  0  0
 29 30  2  0  0  0  0
 30 34  1  0  0  0  0
 31 32  2  0  0  0  0
 32 33  1  0  0  0  0
 33 35  1  0  0  0  0
 33 37  2  0  0  0  0
 34 36  1  0  0  0  0
 35 38  1  0  0  0  0
 35 40  2  0  0  0  0
 36 37  1  0  0  0  0
 38 39  2  0  0  0  0
 39 41  1  0  0  0  0
 40 41  1  0  0  0  0
M  END
$$$$

 OpenBabel10082411353D

 41 47  0  0  0  0  0  0  0  0999 V2000
   11.6836    6.0105   -4.8831 F   0  0  0  0  0  0  0  0  0  0  0  0
   11.2562    7.2206   -5.0294 C   0  0  0  0  0  0  0  0  0  0  0  0
   12.0125    8.2418   -4.4408 C   0  0  0  0  0  0  0  0  0  0  0  0
   11.1918    7.2706   -6.5237 C   0  0  2  0  0  0  0  0  0  0  0  0
   11.6999    8.4488   -3.1704 F   0  0  0  0  0  0  0  0  0  0  0  0
    9.8648    7.0908   -4.5314 F   0  0  0  0  0  0  0  0  0  0  0  0
   11.6831    8.5291   -6.9682 C   0  0  1  0  0  0  0  0  0  0  0  0
   13.3042    8.0958   -4.5769 F   0  0  0  0  0  0  0  0  0  0  0  0
   10.0051    6.7877   -7.1387 C   0  0  2  0  0  0  0  0  0  0  0  0
   12.1549    9.4036   -6.0698 C   0  0  0  0  0  0  0  0  0  0  0  0
   11.7460    9.5074   -4.8672 O   0  0  0  0  0  0  0  0  0  0  0  0
   12.5684    8.5172   -7.8652 C   0  0  0  0  0  0  0  0  0  0  0  0
   10.4250    8.9412   -7.4869 C   0  0  0  0  0  0  0  0  0  0  0  0
    9.8902    5.4070   -7.8206 C   0  0  1  0  0  0  0  0  0  0  0  0
    8.7348    4.6919   -7.6168 C   0  0  0  0  0  0  0  0  0  0  0  0
    9.5887    7.8633   -8.0188 C   0  0  1  0  0  0  0  0  0  0  0  0
   10.0149    7.4671   -9.3945 C   0  0  0  0  0  0  0  0  0  0  0  0
    8.7013    3.5197   -8.2148 C   0  0  0  0  0  0  0  0  0  0  0  0
    9.3794    3.4628   -9.4166 C   0  0  0  0  0  0  0  0  0  0  0  0
    9.7670    8.0902  -10.5147 C   0  0  0  0  0  0  0  0  0  0  0  0
   10.1630    7.7248  -11.8028 C   0  0  0  0  0  0  0  0  0  0  0  0
   10.1363    4.5235   -9.8811 C   0  0  0  0  0  0  0  0  0  0  0  0
   10.2836    5.8862   -9.1314 C   0  0  2  0  0  0  0  0  0  0  0  0
    9.2642    7.6154  -12.7688 C   0  0  0  0  0  0  0  0  0  0  0  0
   11.5358    7.8029  -12.2540 C   0  0  0  0  0  0  0  0  0  0  0  0
    7.7746    7.5598  -12.4325 C   0  0  1  0  0  0  0  0  0  0  0  0
   11.9538    7.3346  -13.4521 C   0  0  0  0  0  0  0  0  0  0  0  0
   11.1653    6.8126  -14.3816 C   0  0  0  0  0  0  0  0  0  0  0  0
   11.5859    6.2821  -15.5527 C   0  0  0  0  0  0  0  0  0  0  0  0
    7.2622    8.9083  -12.2808 C   0  0  0  0  0  0  0  0  0  0  0  0
   11.7051    4.8886  -15.6933 C   0  0  0  0  0  0  0  0  0  0  0  0
    6.9924    6.7631  -13.2367 C   0  0  0  0  0  0  0  0  0  0  0  0
    9.6766    6.8198  -14.0455 C   0  0  0  0  0  0  0  0  0  0  0  0
   10.6606    4.0819  -15.6259 C   0  0  0  0  0  0  0  0  0  0  0  0
    9.3247    4.5087  -15.1301 C   0  0  0  0  0  0  0  0  0  0  0  0
   10.6491    2.6486  -15.9513 C   0  0  0  0  0  0  0  0  0  0  0  0
    8.8068    5.7835  -14.6277 C   0  0  0  0  0  0  0  0  0  0  0  0
    7.5120    5.6100  -14.0322 C   0  0  0  0  0  0  0  0  0  0  0  0
   10.1006    1.7772  -15.0667 C   0  0  0  0  0  0  0  0  0  0  0  0
    8.9470    1.3955  -15.2425 O   0  0  0  0  0  0  0  0  0  0  0  0
   10.7340    1.2754  -14.0959 O   0  0  0  0  0  0  0  0  0  0  0  0
  1  2  1  0  0  0  0
  2  3  1  0  0  0  0
  2  6  1  0  0  0  0
  3  5  1  0  0  0  0
  3  8  1  0  0  0  0
  3 11  1  0  0  0  0
  4  2  1  1  0  0  0
  4  7  1  0  0  0  0
  4  9  1  0  0  0  0
  7 10  1  0  0  0  0
  7 12  1  6  0  0  0
  7 13  1  0  0  0  0
  9 14  1  0  0  0  0
  9 16  1  0  0  0  0
 10 11  1  0  0  0  0
 13 16  1  0  0  0  0
 14 15  1  0  0  0  0
 14 23  1  0  0  0  0
 15 18  2  0  0  0  0
 16 17  1  0  0  0  0
 17 20  2  3  0  0  0
 17 23  1  0  0  0  0
 18 19  1  0  0  0  0
 19 22  2  0  0  0  0
 20 21  1  0  0  0  0
 21 24  2  0  0  0  0
 21 25  1  0  0  0  0
 22 23  1  0  0  0  0
 24 26  1  0  0  0  0
 24 33  1  0  0  0  0
 25 27  2  0  0  0  0
 26 30  1  0  0  0  0
 26 32  1  0  0  0  0
 27 28  1  0  0  0  0
 28 29  1  0  0  0  0
 28 33  2  0  0  0  0
 29 31  1  0  0  0  0
 31 34  2  0  0  0  0
 32 38  1  0  0  0  0
 33 37  1  0  0  0  0
 34 35  1  0  0  0  0
 34 36  1  0  0  0  0
 35 37  2  0  0  0  0
 36 39  1  0  0  0  0
 37 38  1  0  0  0  0
 39 40  2  0  0  0  0
 39 41  1  0  0  0  0
M  END
$$$$

 OpenBabel10082411353D

 41 50  0  0  0  0  0  0  0  0999 V2000
    8.0806    9.0240  -12.7589 C   0  0  0  0  0  0  0  0  0  0  0  0
    8.6514    7.8645  -12.2948 C   0  0  0  0  0  0  0  0  0  0  0  0
    9.9575    7.9974  -11.8426 C   0  0  0  0  0  0  0  0  0  0  0  0
   10.7657    6.8667  -11.6050 C   0  0  1  0  0  0  0  0  0  0  0  0
   10.7682    5.9590  -12.8271 C   0  0  0  0  0  0  0  0  0  0  0  0
   12.1553    7.3846  -11.2315 C   0  0  0  0  0  0  0  0  0  0  0  0
    8.0676    6.6451  -12.2974 C   0  0  0  0  0  0  0  0  0  0  0  0
   10.1892    6.1240  -10.3860 C   0  0  0  0  0  0  0  0  0  0  0  0
   11.8375    5.4373  -13.3240 O   0  0  0  0  0  0  0  0  0  0  0  0
    8.6785    5.4761  -13.0273 C   0  0  1  0  0  0  0  0  0  0  0  0
    9.1969    5.2405  -10.4969 C   0  0  1  0  0  0  0  0  0  0  0  0
    7.2213    6.2210  -11.3074 C   0  0  0  0  0  0  0  0  0  0  0  0
   12.5590    7.6872   -9.9896 C   0  0  0  0  0  0  0  0  0  0  0  0
    9.7633    5.0333  -12.9720 C   0  0  1  0  0  0  0  0  0  0  0  0
   10.0661    4.0167  -14.0373 N   0  0  0  0  0  0  0  0  0  0  0  0
   13.6906    8.3004   -9.6233 O   0  0  0  0  0  0  0  0  0  0  0  0
    7.6357    4.5123  -12.6317 C   0  0  2  0  0  0  0  0  0  0  0  0
    6.8831    4.9171  -11.7031 C   0  0  0  0  0  0  0  0  0  0  0  0
   10.5937    6.6967   -9.1779 C   0  0  0  0  0  0  0  0  0  0  0  0
    9.5087    4.3263  -11.6925 C   0  0  2  0  0  0  0  0  0  0  0  0
   11.6359    7.4449   -8.9125 C   0  0  0  0  0  0  0  0  0  0  0  0
   11.9716    7.9159   -7.6200 C   0  0  0  0  0  0  0  0  0  0  0  0
    8.4648    3.6122  -12.2840 C   0  0  2  0  0  0  0  0  0  0  0  0
    9.3128    4.5571   -9.1689 C   0  0  0  0  0  0  0  0  0  0  0  0
   10.9557    7.6369   -6.5929 C   0  0  1  0  0  0  0  0  0  0  0  0
    9.6490    2.8108  -13.7776 C   0  0  1  0  0  0  0  0  0  0  0  0
    9.6716    6.1981   -8.0224 C   0  0  2  0  0  0  0  0  0  0  0  0
    8.5511    2.5400  -13.1402 C   0  0  0  0  0  0  0  0  0  0  0  0
    9.7877    2.0302  -15.0383 O   0  0  0  0  0  0  0  0  0  0  0  0
   10.2949    6.3957   -6.8142 C   0  0  1  0  0  0  0  0  0  0  0  0
   11.5672    7.6277   -5.2275 C   0  0  0  0  0  0  0  0  0  0  0  0
    9.9257    8.9082   -6.5228 C   0  0  0  0  0  0  0  0  0  0  0  0
    8.7436    3.1868   -9.1768 O   0  0  0  0  0  0  0  0  0  0  0  0
    9.2453    4.8876   -8.0562 C   0  0  0  0  0  0  0  0  0  0  0  0
   11.6951    6.3147   -4.7202 C   0  0  0  0  0  0  0  0  0  0  0  0
   12.0146    8.7257   -4.5097 C   0  0  0  0  0  0  0  0  0  0  0  0
   12.6485    8.6762   -3.2458 C   0  0  0  0  0  0  0  0  0  0  0  0
   12.7675    7.3847   -2.6655 C   0  0  0  0  0  0  0  0  0  0  0  0
   11.3669    5.2566   -5.3578 C   0  0  0  0  0  0  0  0  0  0  0  0
   10.7805    5.4197   -6.5129 C   0  0  0  0  0  0  0  0  0  0  0  0
   12.3387    6.3114   -3.3552 C   0  0  0  0  0  0  0  0  0  0  0  0
  1  2  1  0  0  0  0
  2  3  1  0  0  0  0
  2  7  2  0  0  0  0
  4  3  1  6  0  0  0
  4  5  1  0  0  0  0
  4  6  1  0  0  0  0
  4  8  1  0  0  0  0
  5  9  2  0  0  0  0
  6 13  1  0  0  0  0
  7 12  1  0  0  0  0
  8 19  2  0  0  0  0
 10  7  1  1  0  0  0
 10 14  1  0  0  0  0
 10 17  1  0  0  0  0
 11  8  1  1  0  0  0
 11 20  1  0  0  0  0
 11 24  1  0  0  0  0
 12 18  1  0  0  0  0
 13 16  2  0  0  0  0
 13 21  1  0  0  0  0
 14  5  1  1  0  0  0
 14 15  1  0  0  0  0
 14 20  1  0  0  0  0
 15 26  1  0  0  0  0
 17 18  1  1  0  0  0
 17 23  1  0  0  0  0
 19 21  1  0  0  0  0
 19 27  1  0  0  0  0
 20 23  1  0  0  0  0
 21 22  2  0  0  0  0
 22 25  1  0  0  0  0
 23 28  1  0  0  0  0
 24 33  2  0  0  0  0
 24 34  1  0  0  0  0
 25 30  1  0  0  0  0
 25 31  1  0  0  0  0
 25 32  1  0  0  0  0
 26 28  1  0  0  0  0
 26 29  1  0  0  0  0
 27 30  1  0  0  0  0
 27 34  1  0  0  0  0
 30 40  1  0  0  0  0
 31 35  1  0  0  0  0
 31 36  2  0  0  0  0
 35 39  1  0  0  0  0
 35 41  2  0  0  0  0
 36 37  1  0  0  0  0
 37 38  2  0  0  0  0
 38 41  1  0  0  0  0
 39 40  1  0  0  0  0
M  END
$$$$

 OpenBabel10082411353D

 41 47  0  0  0  0  0  0  0  0999 V2000
   11.6836    6.0105   -4.8831 C   0  0  0  0  0  0  0  0  0  0  0  0
   11.1291    7.0732   -5.4395 C   0  0  0  0  0  0  0  0  0  0  0  0
   10.6954    7.0156   -6.8073 C   0  0  0  0  0  0  0  0  0  0  0  0
   10.2502    8.1187   -7.5536 C   0  0  2  0  0  0  0  0  0  0  0  0
   11.1205    8.4712   -4.9629 C   0  0  0  0  0  0  0  0  0  0  0  0
   10.8655    8.3511   -8.7960 C   0  0  0  0  0  0  0  0  0  0  0  0
   10.2922    7.8843   -9.9985 C   0  0  0  0  0  0  0  0  0  0  0  0
   10.4654    9.6993   -5.6120 C   0  0  0  0  0  0  0  0  0  0  0  0
   10.3510    9.5971   -7.0014 C   0  0  0  0  0  0  0  0  0  0  0  0
   12.2462    6.3351   -3.5020 C   0  0  0  0  0  0  0  0  0  0  0  0
   11.0471    7.5309  -11.1063 C   0  0  0  0  0  0  0  0  0  0  0  0
   11.7288    8.6923   -3.6518 C   0  0  0  0  0  0  0  0  0  0  0  0
   12.3991    7.7501  -11.1145 C   0  0  0  0  0  0  0  0  0  0  0  0
   12.3738    7.7580   -2.9599 C   0  0  0  0  0  0  0  0  0  0  0  0
   13.1285    8.5075  -10.1661 O   0  0  0  0  0  0  0  0  0  0  0  0
    9.0407    7.3775  -10.0973 N   0  0  0  0  0  0  0  0  0  0  0  0
    8.9787    6.9473  -11.4664 N   0  0  0  0  0  0  0  0  0  0  0  0
   13.1012    7.4459  -12.3707 C   0  0  0  0  0  0  0  0  0  0  0  0
   12.2395    6.9724  -13.2444 C   0  0  0  0  0  0  0  0  0  0  0  0
   10.2768    7.0170  -11.9799 C   0  0  0  0  0  0  0  0  0  0  0  0
   12.9237    6.5822  -14.5759 O   0  0  0  0  0  0  0  0  0  0  0  0
   10.8906    6.6526  -13.2252 C   0  0  0  0  0  0  0  0  0  0  0  0
   12.2396    6.1290  -15.6916 C   0  0  0  0  0  0  0  0  0  0  0  0
    7.8036    6.1825  -11.9342 C   0  0  0  0  0  0  0  0  0  0  0  0
   12.5015    4.7115  -15.7686 C   0  0  0  0  0  0  0  0  0  0  0  0
    7.1685    6.9992  -12.8245 C   0  0  0  0  0  0  0  0  0  0  0  0
   11.2461    3.8540  -15.4851 C   0  0  0  0  0  0  0  0  0  0  0  0
    7.6237    4.9154  -11.6529 C   0  0  0  0  0  0  0  0  0  0  0  0
    6.6378    4.1960  -12.2267 C   0  0  0  0  0  0  0  0  0  0  0  0
    6.2717    2.7675  -11.9743 C   0  0  0  0  0  0  0  0  0  0  0  0
    6.6569    1.8873  -12.9460 C   0  0  0  0  0  0  0  0  0  0  0  0
    7.3895    8.4597  -13.1785 C   0  0  0  0  0  0  0  0  0  0  0  0
    6.3114    0.5653  -12.7247 C   0  0  0  0  0  0  0  0  0  0  0  0
    7.7684    2.0327  -13.9055 C   0  0  0  0  0  0  0  0  0  0  0  0
    6.9387   -0.3720  -13.7691 C   0  0  0  0  0  0  0  0  0  0  0  0
    8.4223    3.3339  -14.0264 C   0  0  0  0  0  0  0  0  0  0  0  0
    8.2908    1.0246  -14.6080 C   0  0  0  0  0  0  0  0  0  0  0  0
    7.8707   -0.1948  -14.5676 C   0  0  0  0  0  0  0  0  0  0  0  0
    9.3178    1.5591  -15.4130 N   0  0  0  0  0  0  0  0  0  0  0  0
    9.4573    2.9129  -15.0818 N   0  0  0  0  0  0  0  0  0  0  0  0
   10.1005    3.8048  -15.9821 C   0  0  0  0  0  0  0  0  0  0  0  0
  1  2  1  0  0  0  0
  1 10  2  0  0  0  0
  2  3  1  0  0  0  0
  2  5  2  0  0  0  0
  3  4  1  0  0  0  0
  4  6  1  6  0  0  0
  4  9  1  0  0  0  0
  5  8  1  0  0  0  0
  5 12  1  0  0  0  0
  6  7  1  0  0  0  0
  7 11  1  0  0  0  0
  7 16  2  0  0  0  0
  8  9  1  0  0  0  0
 10 14  1  0  0  0  0
 11 13  2  0  0  0  0
 11 20  1  0  0  0  0
 12 14  2  0  0  0  0
 13 15  1  0  0  0  0
 13 18  1  0  0  0  0
 16 17  1  0  0  0  0
 17 20  1  0  0  0  0
 17 24  1  0  0  0  0
 18 19  2  0  0  0  0
 19 21  1  0  0  0  0
 19 22  1  0  0  0  0
 20 22  2  0  0  0  0
 21 23  1  0  0  0  0
 23 25  1  0  0  0  0
 24 26  2  3  0  0  0
 24 28  1  0  0  0  0
 25 27  1  0  0  0  0
 26 32  1  0  0  0  0
 27 41  1  0  0  0  0
 28 29  2  0  0  0  0
 29 30  1  0  0  0  0
 30 31  1  0  0  0  0
 31 33  2  0  0  0  0
 31 34  1  0  0  0  0
 33 35  1  0  0  0  0
 34 36  2  0  0  0  0
 34 37  1  0  0  0  0
 35 38  1  0  0  0  0
 36 40  1  0  0  0  0
 37 38  1  0  0  0  0
 37 39  2  0  0  0  0
 39 40  1  0  0  0  0
 40 41  1  0  0  0  0
M  END
$$$$

 OpenBabel10082411353D

 41 47  0  0  0  0  0  0  0  0999 V2000
   13.2379    9.0584   -7.2681 C   0  0  0  0  0  0  0  0  0  0  0  0
   12.9396    9.3022   -5.9810 C   0  0  0  0  0  0  0  0  0  0  0  0
   12.1602    8.6694   -7.9361 C   0  0  0  0  0  0  0  0  0  0  0  0
   14.0320    9.7504   -5.0711 F   0  0  0  0  0  0  0  0  0  0  0  0
   10.9536    8.4526   -7.1212 C   0  0  1  0  0  0  0  0  0  0  0  0
   12.1901    8.3365   -9.3972 C   0  0  0  0  0  0  0  0  0  0  0  0
   11.0443    7.8367  -10.0430 C   0  0  0  0  0  0  0  0  0  0  0  0
   11.0471    8.9348   -5.8250 C   0  0  1  0  0  0  0  0  0  0  0  0
    9.5270    7.9533   -7.4234 C   0  0  2  0  0  0  0  0  0  0  0  0
    9.7802    8.7666   -5.0086 F   0  0  0  0  0  0  0  0  0  0  0  0
   11.9790    9.3452   -5.1373 C   0  0  0  0  0  0  0  0  0  0  0  0
    9.1878    6.9159   -6.7141 C   0  0  0  0  0  0  0  0  0  0  0  0
   11.1576    7.5184  -11.4190 C   0  0  0  0  0  0  0  0  0  0  0  0
    9.8595    7.5543   -8.9986 C   0  0  1  0  0  0  0  0  0  0  0  0
    9.9779    6.9809  -11.9943 C   0  0  0  0  0  0  0  0  0  0  0  0
   10.1471    6.6534  -13.4127 C   0  0  0  0  0  0  0  0  0  0  0  0
   12.3591    7.4352  -12.0563 C   0  0  0  0  0  0  0  0  0  0  0  0
    8.5551    6.8980  -11.2951 C   0  0  1  0  0  0  0  0  0  0  0  0
   12.2421    7.1981  -13.3125 C   0  0  0  0  0  0  0  0  0  0  0  0
   11.2735    6.6870  -13.9872 C   0  0  0  0  0  0  0  0  0  0  0  0
    8.1020    6.3652   -7.0525 O   0  0  0  0  0  0  0  0  0  0  0  0
   11.5320    6.1869  -15.4842 C   0  0  0  0  0  0  0  0  0  0  0  0
   11.6397    4.8187  -15.5947 N   0  0  0  0  0  0  0  0  0  0  0  0
   11.7429    6.9569  -16.3970 O   0  0  0  0  0  0  0  0  0  0  0  0
   11.2928    3.8324  -14.5891 C   0  0  0  0  0  0  0  0  0  0  0  0
    7.5388    6.6719  -11.9871 C   0  0  0  0  0  0  0  0  0  0  0  0
   11.5537    4.1926  -16.9885 C   0  0  0  0  0  0  0  0  0  0  0  0
    6.8943    7.7297  -12.6293 C   0  0  0  0  0  0  0  0  0  0  0  0
   12.4886    3.1529  -17.0211 C   0  0  0  0  0  0  0  0  0  0  0  0
   10.6070    2.6673  -14.9825 C   0  0  0  0  0  0  0  0  0  0  0  0
    7.0671    5.3528  -12.1345 C   0  0  0  0  0  0  0  0  0  0  0  0
    8.8121    6.8590   -9.7791 C   0  0  0  0  0  0  0  0  0  0  0  0
    7.5818    4.1934  -11.6434 C   0  0  0  0  0  0  0  0  0  0  0  0
    7.1593    2.9956  -12.2994 C   0  0  0  0  0  0  0  0  0  0  0  0
   11.6206    2.0274  -16.1494 C   0  0  0  0  0  0  0  0  0  0  0  0
    6.0254    3.2500  -13.2202 C   0  0  0  0  0  0  0  0  0  0  0  0
    5.5735    4.3286  -13.6640 C   0  0  0  0  0  0  0  0  0  0  0  0
    6.1283    5.4219  -13.1409 C   0  0  1  0  0  0  0  0  0  0  0  0
    6.8666    9.0476  -12.6303 O   0  0  0  0  0  0  0  0  0  0  0  0
    6.0066    7.0617  -13.3516 N   0  0  0  0  0  0  0  0  0  0  0  0
    7.8469    9.4667  -11.6536 C   0  0  0  0  0  0  0  0  0  0  0  0
  1  2  1  0  0  0  0
  1  3  2  0  0  0  0
  2  4  1  0  0  0  0
  2 11  2  0  0  0  0
  3  6  1  0  0  0  0
  5  3  1  6  0  0  0
  5  8  1  0  0  0  0
  5  9  1  0  0  0  0
  6  7  2  0  0  0  0
  7 13  1  0  0  0  0
  7 14  1  0  0  0  0
  8 10  1  1  0  0  0
  8 11  1  0  0  0  0
  9 12  1  1  0  0  0
  9 14  1  0  0  0  0
 12 21  1  0  0  0  0
 13 15  2  0  0  0  0
 13 17  1  0  0  0  0
 14 32  1  6  0  0  0
 15 16  1  0  0  0  0
 15 18  1  0  0  0  0
 16 20  2  0  0  0  0
 17 19  2  0  0  0  0
 18 26  1  6  0  0  0
 18 32  1  0  0  0  0
 19 20  1  0  0  0  0
 20 22  1  0  0  0  0
 22 23  1  0  0  0  0
 22 24  2  0  0  0  0
 23 25  1  0  0  0  0
 23 27  1  0  0  0  0
 25 30  1  0  0  0  0
 26 28  1  0  0  0  0
 26 31  2  0  0  0  0
 27 29  1  0  0  0  0
 28 39  1  0  0  0  0
 28 40  2  0  0  0  0
 29 35  1  0  0  0  0
 30 35  1  0  0  0  0
 31 33  1  0  0  0  0
 31 38  1  0  0  0  0
 33 34  2  0  0  0  0
 34 36  1  0  0  0  0
 36 37  2  0  0  0  0
 38 37  1  1  0  0  0
 38 40  1  0  0  0  0
 39 41  1  0  0  0  0
M  END
$$$$

 OpenBabel10082411353D

 26 28  0  0  0  0  0  0  0  0999 V2000
   12.8881    8.7759   -3.5681 C   0  0  0  0  0  0  0  0  0  0  0  0
   11.9416    9.4732   -4.1220 C   0  0  0  0  0  0  0  0  0  0  0  0
   12.3556    7.6012   -2.6527 C   0  0  0  0  0  0  0  0  0  0  0  0
   11.8805    9.3400   -5.6557 C   0  0  0  0  0  0  0  0  0  0  0  0
   11.7716    6.5414   -3.3821 C   0  0  0  0  0  0  0  0  0  0  0  0
   10.8523    8.6585   -6.3310 C   0  0  0  0  0  0  0  0  0  0  0  0
   11.1142    8.2520   -7.7289 C   0  0  0  0  0  0  0  0  0  0  0  0
   10.0478    7.6568   -8.4887 C   0  0  0  0  0  0  0  0  0  0  0  0
   12.3648    8.4339   -8.3703 C   0  0  0  0  0  0  0  0  0  0  0  0
   12.6142    8.1352   -9.7322 C   0  0  0  0  0  0  0  0  0  0  0  0
   10.2852    7.3833   -9.9138 C   0  0  0  0  0  0  0  0  0  0  0  0
   11.5161    7.5808  -10.4860 C   0  0  0  0  0  0  0  0  0  0  0  0
   11.6641    7.2285  -11.8174 O   0  0  0  0  0  0  0  0  0  0  0  0
   10.8624    6.4419  -12.4395 C   0  0  0  0  0  0  0  0  0  0  0  0
   11.2693    5.8267  -13.4966 C   0  0  0  0  0  0  0  0  0  0  0  0
   10.3973    4.9870  -14.3057 C   0  0  0  0  0  0  0  0  0  0  0  0
   12.6295    5.9759  -14.0650 O   0  0  0  0  0  0  0  0  0  0  0  0
   10.8956    4.1934  -15.4489 C   0  0  0  0  0  0  0  0  0  0  0  0
   12.9503    7.1411  -14.6635 C   0  0  0  0  0  0  0  0  0  0  0  0
    9.1347    4.7755  -13.8114 C   0  0  0  0  0  0  0  0  0  0  0  0
   11.7207    3.1419  -15.2532 N   0  0  0  0  0  0  0  0  0  0  0  0
    9.1343    6.9408  -10.7105 C   0  0  0  0  0  0  0  0  0  0  0  0
    8.6348    5.4215  -12.7086 C   0  0  0  0  0  0  0  0  0  0  0  0
    7.2420    5.3042  -12.2365 C   0  0  0  0  0  0  0  0  0  0  0  0
    9.5175    6.3011  -11.9231 C   0  0  0  0  0  0  0  0  0  0  0  0
    6.6855    3.9437  -12.5431 C   0  0  0  0  0  0  0  0  0  0  0  0
  1  2  1  0  0  0  0
  1  3  1  0  0  0  0
  2  4  1  0  0  0  0
  3  5  1  0  0  0  0
  4  6  1  0  0  0  0
  6  7  1  0  0  0  0
  7  8  1  0  0  0  0
  7  9  2  0  0  0  0
  8 11  2  0  0  0  0
  9 10  1  0  0  0  0
 10 12  2  0  0  0  0
 11 12  1  0  0  0  0
 11 22  1  0  0  0  0
 12 13  1  0  0  0  0
 13 14  1  0  0  0  0
 14 15  2  0  0  0  0
 14 25  1  0  0  0  0
 15 16  1  0  0  0  0
 15 17  1  0  0  0  0
 16 18  1  0  0  0  0
 16 20  2  0  0  0  0
 17 19  1  0  0  0  0
 18 21  1  0  0  0  0
 20 23  1  0  0  0  0
 22 25  1  0  0  0  0
 23 24  1  0  0  0  0
 23 25  2  0  0  0  0
 24 26  1  0  0  0  0
M  END
$$$$

 OpenBabel10082411353D

 41 51  0  0  0  0  0  0  0  0999 V2000
    8.0806    9.0240  -12.7589 C   0  0  0  0  0  0  0  0  0  0  0  0
    8.6514    7.8645  -12.2948 C   0  0  0  0  0  0  0  0  0  0  0  0
    9.9575    7.9974  -11.8426 C   0  0  0  0  0  0  0  0  0  0  0  0
   10.7657    6.8667  -11.6050 C   0  0  1  0  0  0  0  0  0  0  0  0
   10.7682    5.9590  -12.8271 C   0  0  0  0  0  0  0  0  0  0  0  0
   12.1553    7.3846  -11.2315 C   0  0  0  0  0  0  0  0  0  0  0  0
    8.0676    6.6451  -12.2974 C   0  0  0  0  0  0  0  0  0  0  0  0
   10.1892    6.1240  -10.3860 C   0  0  0  0  0  0  0  0  0  0  0  0
   11.8375    5.4373  -13.3240 O   0  0  0  0  0  0  0  0  0  0  0  0
    8.6785    5.4761  -13.0273 C   0  0  1  0  0  0  0  0  0  0  0  0
    9.1969    5.2405  -10.4969 C   0  0  2  0  0  0  0  0  0  0  0  0
    7.2213    6.2210  -11.3074 C   0  0  2  0  0  0  0  0  0  0  0  0
   12.5590    7.6872   -9.9896 C   0  0  0  0  0  0  0  0  0  0  0  0
    9.7633    5.0333  -12.9720 C   0  0  1  0  0  0  0  0  0  0  0  0
   10.0661    4.0167  -14.0373 N   0  0  0  0  0  0  0  0  0  0  0  0
   13.6906    8.3004   -9.6233 O   0  0  0  0  0  0  0  0  0  0  0  0
    7.6357    4.5123  -12.6317 C   0  0  2  0  0  0  0  0  0  0  0  0
    6.8831    4.9171  -11.7031 C   0  0  2  0  0  0  0  0  0  0  0  0
   10.5937    6.6967   -9.1779 C   0  0  0  0  0  0  0  0  0  0  0  0
    9.5087    4.3263  -11.6925 C   0  0  2  0  0  0  0  0  0  0  0  0
   11.6359    7.4449   -8.9125 C   0  0  0  0  0  0  0  0  0  0  0  0
   11.9716    7.9159   -7.6200 C   0  0  0  0  0  0  0  0  0  0  0  0
    8.4648    3.6122  -12.2840 C   0  0  1  0  0  0  0  0  0  0  0  0
    7.9253    2.8004  -11.3926 C   0  0  0  0  0  0  0  0  0  0  0  0
    5.6047    4.5059  -11.7589 C   0  0  0  0  0  0  0  0  0  0  0  0
    7.6606    4.1297  -10.5699 C   0  0  0  0  0  0  0  0  0  0  0  0
   10.9559    7.6849   -6.6057 C   0  0  0  0  0  0  0  0  0  0  0  0
    8.0094    4.5092   -9.5664 C   0  0  0  0  0  0  0  0  0  0  0  0
    8.3033    4.0627   -8.4980 C   0  0  0  0  0  0  0  0  0  0  0  0
    6.3587    7.1012  -11.0392 O   0  0  0  0  0  0  0  0  0  0  0  0
   11.0186    3.9598  -14.9226 C   0  0  0  0  0  0  0  0  0  0  0  0
    8.1758    5.8633  -10.2511 C   0  0  1  0  0  0  0  0  0  0  0  0
   11.4648    2.7104  -15.2650 O   0  0  0  0  0  0  0  0  0  0  0  0
    9.9512    6.8220   -6.8436 C   0  0  0  0  0  0  0  0  0  0  0  0
    9.6899    6.3705   -8.1082 C   0  0  2  0  0  0  0  0  0  0  0  0
   11.2597    8.2901   -5.2396 C   0  0  0  0  0  0  0  0  0  0  0  0
   11.6068    9.7354   -5.2006 C   0  0  0  0  0  0  0  0  0  0  0  0
    9.4261    2.7718  -13.6670 C   0  0  0  0  0  0  0  0  0  0  0  0
    9.1568    5.0346   -7.7426 C   0  0  0  0  0  0  0  0  0  0  0  0
   11.5635    4.9451  -15.5137 O   0  0  0  0  0  0  0  0  0  0  0  0
   12.5333    9.9979   -4.1450 C   0  0  0  0  0  0  0  0  0  0  0  0
  1  2  1  0  0  0  0
  2  3  1  0  0  0  0
  2  7  2  0  0  0  0
  4  3  1  6  0  0  0
  4  5  1  0  0  0  0
  4  6  1  0  0  0  0
  4  8  1  0  0  0  0
  5  9  2  0  0  0  0
  6 13  1  0  0  0  0
  7 12  1  0  0  0  0
  8 19  2  0  0  0  0
 10  7  1  1  0  0  0
 10 14  1  0  0  0  0
 10 17  1  0  0  0  0
 11  8  1  6  0  0  0
 11 20  1  0  0  0  0
 11 32  1  0  0  0  0
 12 18  1  0  0  0  0
 12 30  1  1  0  0  0
 12 32  1  0  0  0  0
 13 16  2  0  0  0  0
 13 21  1  0  0  0  0
 14  5  1  1  0  0  0
 14 15  1  0  0  0  0
 14 20  1  0  0  0  0
 15 31  1  0  0  0  0
 15 38  1  0  0  0  0
 17 18  1  0  0  0  0
 17 23  1  0  0  0  0
 18 25  1  0  0  0  0
 18 26  1  0  0  0  0
 19 21  1  0  0  0  0
 19 35  1  0  0  0  0
 20 23  1  0  0  0  0
 21 22  2  0  0  0  0
 22 27  1  0  0  0  0
 23 24  1  0  0  0  0
 23 38  1  0  0  0  0
 24 26  1  0  0  0  0
 26 28  2  0  0  0  0
 27 34  2  0  0  0  0
 27 36  1  0  0  0  0
 28 29  1  0  0  0  0
 28 32  1  0  0  0  0
 29 39  1  0  0  0  0
 31 33  2  0  0  0  0
 31 40  1  0  0  0  0
 34 35  1  0  0  0  0
 35 39  1  0  0  0  0
 36 37  1  0  0  0  0
 37 41  1  0  0  0  0
M  END
$$$$

 OpenBabel10082411353D

 41 49  0  0  0  0  0  0  0  0999 V2000
   12.7863    7.8241  -14.2109 C   0  0  0  0  0  0  0  0  0  0  0  0
   12.4233    7.7158  -13.0289 C   0  0  0  0  0  0  0  0  0  0  0  0
   11.3194    6.8571  -12.8028 C   0  0  0  0  0  0  0  0  0  0  0  0
   12.3150    7.2021  -15.3582 C   0  0  0  0  0  0  0  0  0  0  0  0
   11.2733    6.2739  -15.1502 C   0  0  0  0  0  0  0  0  0  0  0  0
   10.8099    6.0126  -13.8600 C   0  0  0  0  0  0  0  0  0  0  0  0
    9.6782    5.1428  -13.6488 C   0  0  0  0  0  0  0  0  0  0  0  0
    8.5753    5.3880  -12.9589 N   0  0  0  0  0  0  0  0  0  0  0  0
    8.3226    6.7011  -12.3862 C   0  0  0  0  0  0  0  0  0  0  0  0
    9.8502    3.8578  -14.0728 C   0  0  0  0  0  0  0  0  0  0  0  0
    7.3864    7.4720  -13.0530 C   0  0  0  0  0  0  0  0  0  0  0  0
    6.2412    7.8486  -12.2599 C   0  0  0  0  0  0  0  0  0  0  0  0
    7.6425    4.4186  -12.7943 C   0  0  0  0  0  0  0  0  0  0  0  0
   11.0297    3.2482  -14.8053 C   0  0  0  0  0  0  0  0  0  0  0  0
    8.6802    2.8955  -13.7960 C   0  0  0  0  0  0  0  0  0  0  0  0
    8.8565    1.5917  -14.3582 O   0  0  0  0  0  0  0  0  0  0  0  0
    7.6903    3.2226  -13.1994 N   0  0  0  0  0  0  0  0  0  0  0  0
    6.5724    2.3444  -12.8378 C   0  0  0  0  0  0  0  0  0  0  0  0
    9.0225    7.0353  -11.3259 C   0  0  0  0  0  0  0  0  0  0  0  0
    6.2405    4.8489  -12.4515 C   0  0  0  0  0  0  0  0  0  0  0  0
   10.5875    7.0617  -11.5321 C   0  0  0  0  0  0  0  0  0  0  0  0
   11.0960    7.6093  -10.4100 C   0  0  0  0  0  0  0  0  0  0  0  0
    8.4039    7.3336  -10.1102 C   0  0  0  0  0  0  0  0  0  0  0  0
   10.6086    7.8156   -9.1888 C   0  0  0  0  0  0  0  0  0  0  0  0
    9.3113    7.5527   -9.2022 C   0  0  0  0  0  0  0  0  0  0  0  0
    5.5868    3.4174  -12.3561 C   0  0  0  0  0  0  0  0  0  0  0  0
    8.7252    7.9330   -7.6242 C   0  0  0  0  0  0  0  0  0  0  0  0
   11.1859    8.0862   -7.9601 C   0  0  0  0  0  0  0  0  0  0  0  0
   12.7495    8.2704   -8.0174 C   0  0  0  0  0  0  0  0  0  0  0  0
   10.4493    8.2542   -6.7750 C   0  0  2  0  0  0  0  0  0  0  0  0
    9.2142    8.3462   -6.7539 C   0  0  0  0  0  0  0  0  0  0  0  0
   11.4483    9.0676   -5.7294 C   0  0  1  0  0  0  0  0  0  0  0  0
   10.5479    6.9328   -5.7137 C   0  0  1  0  0  0  0  0  0  0  0  0
   13.0940    9.3998   -7.2782 C   0  0  0  0  0  0  0  0  0  0  0  0
   12.8182    9.2697   -5.8803 C   0  0  2  0  0  0  0  0  0  0  0  0
   10.7663   10.5076   -5.8947 C   0  0  0  0  0  0  0  0  0  0  0  0
   11.4445    5.9218   -5.8343 O   0  0  0  0  0  0  0  0  0  0  0  0
   10.8385    7.3340   -4.4117 O   0  0  0  0  0  0  0  0  0  0  0  0
   11.1366    8.6770   -4.2600 C   0  0  1  0  0  0  0  0  0  0  0  0
   12.0746    8.9350   -3.3250 C   0  0  0  0  0  0  0  0  0  0  0  0
   13.3590    9.1999   -4.1452 C   0  0  0  0  0  0  0  0  0  0  0  0
  1  2  2  0  0  0  0
  1  4  1  0  0  0  0
  2  3  1  0  0  0  0
  3  6  2  0  0  0  0
  3 21  1  0  0  0  0
  4  5  2  0  0  0  0
  5  6  1  0  0  0  0
  6  7  1  0  0  0  0
  7  8  1  0  0  0  0
  7 10  2  0  0  0  0
  8  9  1  0  0  0  0
  8 13  1  0  0  0  0
  9 11  1  0  0  0  0
  9 19  2  0  0  0  0
 10 14  1  0  0  0  0
 10 15  1  0  0  0  0
 11 12  1  0  0  0  0
 13 17  1  0  0  0  0
 13 20  2  0  0  0  0
 15 16  2  0  0  0  0
 15 17  1  0  0  0  0
 17 18  1  0  0  0  0
 18 26  2  0  0  0  0
 19 21  1  0  0  0  0
 19 23  1  0  0  0  0
 20 26  1  0  0  0  0
 21 22  2  0  0  0  0
 22 24  1  0  0  0  0
 23 25  2  0  0  0  0
 24 25  1  0  0  0  0
 24 28  2  0  0  0  0
 25 27  1  0  0  0  0
 27 31  2  0  0  0  0
 28 29  1  0  0  0  0
 28 30  1  0  0  0  0
 29 34  1  0  0  0  0
 30 31  1  6  0  0  0
 30 32  1  0  0  0  0
 30 33  1  0  0  0  0
 32 35  1  0  0  0  0
 32 36  1  6  0  0  0
 32 39  1  0  0  0  0
 33 37  1  6  0  0  0
 33 38  1  0  0  0  0
 35 34  1  6  0  0  0
 35 41  1  0  0  0  0
 38 39  1  0  0  0  0
 39 40  1  1  0  0  0
 40 41  1  0  0  0  0
M  END
$$$$

 OpenBabel10082411353D

 41 45  0  0  0  0  0  0  0  0999 V2000
   11.6836    6.0105   -4.8831 F   0  0  0  0  0  0  0  0  0  0  0  0
   11.2562    7.2206   -5.0294 C   0  0  0  0  0  0  0  0  0  0  0  0
   12.0125    8.2418   -4.4408 C   0  0  0  0  0  0  0  0  0  0  0  0
   11.1918    7.2706   -6.5237 C   0  0  0  0  0  0  0  0  0  0  0  0
   11.6999    8.4488   -3.1704 F   0  0  0  0  0  0  0  0  0  0  0  0
    9.8648    7.0908   -4.5314 F   0  0  0  0  0  0  0  0  0  0  0  0
   11.6831    8.5291   -6.9682 C   0  0  0  0  0  0  0  0  0  0  0  0
   10.4785    6.5189   -7.4033 C   0  0  0  0  0  0  0  0  0  0  0  0
   11.6979    8.6661   -8.4760 C   0  0  0  0  0  0  0  0  0  0  0  0
   11.6248    9.5853   -5.0030 C   0  0  0  0  0  0  0  0  0  0  0  0
   11.8604    9.7907   -6.2903 O   0  0  0  0  0  0  0  0  0  0  0  0
   13.3557    8.1748   -4.5947 F   0  0  0  0  0  0  0  0  0  0  0  0
   10.5427    6.6061   -8.7190 C   0  0  0  0  0  0  0  0  0  0  0  0
   11.1158    7.7103   -9.2540 C   0  0  0  0  0  0  0  0  0  0  0  0
   11.3757    7.6656  -10.5293 N   0  0  0  0  0  0  0  0  0  0  0  0
   10.7153    7.7096  -11.5405 C   0  0  0  0  0  0  0  0  0  0  0  0
   11.2483    7.4711  -12.8542 C   0  0  0  0  0  0  0  0  0  0  0  0
    9.3980    7.7820  -11.5398 C   0  0  0  0  0  0  0  0  0  0  0  0
    8.6055    7.5889  -12.6525 C   0  0  0  0  0  0  0  0  0  0  0  0
   12.7508    7.3705  -13.0162 O   0  0  0  0  0  0  0  0  0  0  0  0
   10.5299    7.1831  -13.9856 C   0  0  0  0  0  0  0  0  0  0  0  0
    7.0533    7.7371  -12.5396 C   0  0  0  0  0  0  0  0  0  0  0  0
   11.2041    6.8490  -15.2304 C   0  0  0  0  0  0  0  0  0  0  0  0
   11.6393    5.5333  -15.3864 C   0  0  0  0  0  0  0  0  0  0  0  0
    9.1955    7.2935  -13.8301 C   0  0  0  0  0  0  0  0  0  0  0  0
   12.5294    5.1116  -16.1609 C   0  0  0  0  0  0  0  0  0  0  0  0
   11.2315    4.4703  -14.3200 C   0  0  0  0  0  0  0  0  0  0  0  0
   13.0194    6.0876  -17.1697 C   0  0  0  0  0  0  0  0  0  0  0  0
   12.3991    7.3271  -17.2011 C   0  0  0  0  0  0  0  0  0  0  0  0
   11.6234    7.7212  -16.1065 C   0  0  0  0  0  0  0  0  0  0  0  0
    6.8111    8.8557  -12.1311 F   0  0  0  0  0  0  0  0  0  0  0  0
   10.0067    4.0539  -14.1822 C   0  0  0  0  0  0  0  0  0  0  0  0
    6.6026    6.8347  -11.5951 F   0  0  0  0  0  0  0  0  0  0  0  0
    9.7932    2.6838  -14.2236 C   0  0  0  0  0  0  0  0  0  0  0  0
    8.9172    4.7456  -13.9387 C   0  0  0  0  0  0  0  0  0  0  0  0
    8.6274    2.2762  -14.1460 C   0  0  0  0  0  0  0  0  0  0  0  0
    8.3675    0.7515  -14.2475 C   0  0  0  0  0  0  0  0  0  0  0  0
    6.5409    7.4224  -13.7587 F   0  0  0  0  0  0  0  0  0  0  0  0
    7.4749    3.2069  -13.8758 C   0  0  0  0  0  0  0  0  0  0  0  0
    6.1754    2.5253  -13.6893 C   0  0  0  0  0  0  0  0  0  0  0  0
    7.6914    4.3792  -13.7591 N   0  0  0  0  0  0  0  0  0  0  0  0
  1  2  1  0  0  0  0
  2  3  1  0  0  0  0
  2  4  1  0  0  0  0
  2  6  1  0  0  0  0
  3  5  1  0  0  0  0
  3 10  1  0  0  0  0
  3 12  1  0  0  0  0
  4  7  1  0  0  0  0
  4  8  2  0  0  0  0
  7  9  2  0  0  0  0
  7 11  1  0  0  0  0
  8 13  1  0  0  0  0
  9 14  1  0  0  0  0
 10 11  1  0  0  0  0
 13 14  2  0  0  0  0
 14 15  1  0  0  0  0
 15 16  1  0  0  0  0
 16 17  1  0  0  0  0
 16 18  2  0  0  0  0
 17 20  1  0  0  0  0
 17 21  2  0  0  0  0
 18 19  1  0  0  0  0
 19 22  1  0  0  0  0
 19 25  2  0  0  0  0
 21 23  1  0  0  0  0
 21 25  1  0  0  0  0
 22 31  1  0  0  0  0
 22 33  1  0  0  0  0
 22 38  1  0  0  0  0
 23 24  1  0  0  0  0
 23 30  2  0  0  0  0
 24 26  2  0  0  0  0
 24 27  1  0  0  0  0
 26 28  1  0  0  0  0
 27 32  1  0  0  0  0
 28 29  2  0  0  0  0
 29 30  1  0  0  0  0
 32 34  1  0  0  0  0
 32 35  2  0  0  0  0
 34 36  2  0  0  0  0
 35 41  1  0  0  0  0
 36 37  1  0  0  0  0
 36 39  1  0  0  0  0
 39 40  1  0  0  0  0
 39 41  2  0  0  0  0
M  END
$$$$

 OpenBabel10082411353D

 41 46  0  0  0  0  0  0  0  0999 V2000
   10.9951    9.9694   -4.9946 C   0  0  0  0  0  0  0  0  0  0  0  0
   11.7938    9.3762   -4.2463 C   0  0  0  0  0  0  0  0  0  0  0  0
   10.8673    9.4548   -6.4276 C   0  0  0  0  0  0  0  0  0  0  0  0
   11.6576    7.9117   -4.2944 C   0  0  0  0  0  0  0  0  0  0  0  0
   10.5498    8.0257   -6.4521 C   0  0  0  0  0  0  0  0  0  0  0  0
   11.4715    7.2752   -5.6166 C   0  0  0  0  0  0  0  0  0  0  0  0
   10.5840    7.5390   -7.9254 C   0  0  0  0  0  0  0  0  0  0  0  0
   11.4612    8.1494   -8.8322 C   0  0  0  0  0  0  0  0  0  0  0  0
   12.6250    8.6294   -8.4338 O   0  0  0  0  0  0  0  0  0  0  0  0
   11.0835    8.4395  -10.0740 O   0  0  0  0  0  0  0  0  0  0  0  0
   11.2938    7.5612  -11.0769 C   0  0  0  0  0  0  0  0  0  0  0  0
   10.1547    7.2525  -11.9492 C   0  0  0  0  0  0  0  0  0  0  0  0
   10.4293    6.5622  -13.1348 C   0  0  0  0  0  0  0  0  0  0  0  0
   11.7295    6.4217  -13.6243 C   0  0  0  0  0  0  0  0  0  0  0  0
    8.8120    7.3918  -11.4649 C   0  0  0  0  0  0  0  0  0  0  0  0
   12.5351    7.8894  -11.6869 C   0  0  0  0  0  0  0  0  0  0  0  0
   13.5778    8.4243  -10.9673 O   0  0  0  0  0  0  0  0  0  0  0  0
    7.7211    7.1761  -12.4323 C   0  0  0  0  0  0  0  0  0  0  0  0
   12.8103    7.0723  -12.8897 C   0  0  0  0  0  0  0  0  0  0  0  0
    7.0543    5.9667  -12.3369 C   0  0  0  0  0  0  0  0  0  0  0  0
    7.2392    8.1844  -13.1320 C   0  0  0  0  0  0  0  0  0  0  0  0
    6.6882    5.3848  -13.5016 O   0  0  0  0  0  0  0  0  0  0  0  0
    6.5103    5.5543  -11.3870 O   0  0  0  0  0  0  0  0  0  0  0  0
    7.4031    4.0506  -13.7852 C   0  0  0  0  0  0  0  0  0  0  0  0
    8.6811    3.9966  -14.1333 C   0  0  0  0  0  0  0  0  0  0  0  0
   12.0732    5.6649  -14.9357 C   0  0  0  0  0  0  0  0  0  0  0  0
    6.5842    3.0104  -13.4449 C   0  0  0  0  0  0  0  0  0  0  0  0
   12.1810    6.3505  -15.9550 C   0  0  0  0  0  0  0  0  0  0  0  0
   12.4422    5.6328  -17.1718 C   0  0  0  0  0  0  0  0  0  0  0  0
    5.1615    3.1639  -12.9487 C   0  0  0  0  0  0  0  0  0  0  0  0
   12.4897    4.2439  -17.0738 C   0  0  0  0  0  0  0  0  0  0  0  0
    7.2322    1.7149  -13.5830 C   0  0  0  0  0  0  0  0  0  0  0  0
   12.1774    3.5293  -15.9456 C   0  0  0  0  0  0  0  0  0  0  0  0
    6.3950    0.6096  -13.2209 C   0  0  0  0  0  0  0  0  0  0  0  0
    8.4431    1.6963  -14.0012 C   0  0  0  0  0  0  0  0  0  0  0  0
    9.2220    2.8237  -14.2367 C   0  0  0  0  0  0  0  0  0  0  0  0
   10.5901    2.5486  -14.6599 N   0  0  0  0  0  0  0  0  0  0  0  0
   11.8593    4.2260  -14.7438 C   0  0  0  0  0  0  0  0  0  0  0  0
   11.0665    2.2335  -15.6901 C   0  0  0  0  0  0  0  0  0  0  0  0
   11.4282    3.4135  -13.8137 N   0  0  0  0  0  0  0  0  0  0  0  0
   11.3629    1.3207  -16.3310 O   0  0  0  0  0  0  0  0  0  0  0  0
  1  2  1  0  0  0  0
  1  3  1  0  0  0  0
  2  4  1  0  0  0  0
  3  5  1  0  0  0  0
  4  6  1  0  0  0  0
  5  6  1  0  0  0  0
  5  7  1  0  0  0  0
  7  8  1  0  0  0  0
  8  9  2  0  0  0  0
  8 10  1  0  0  0  0
 10 11  1  0  0  0  0
 11 12  1  0  0  0  0
 11 16  2  0  0  0  0
 12 13  2  0  0  0  0
 12 15  1  0  0  0  0
 13 14  1  0  0  0  0
 14 19  2  0  0  0  0
 14 26  1  0  0  0  0
 15 18  1  0  0  0  0
 16 17  1  0  0  0  0
 16 19  1  0  0  0  0
 18 20  1  0  0  0  0
 18 21  2  0  0  0  0
 20 22  1  0  0  0  0
 20 23  2  0  0  0  0
 22 24  1  0  0  0  0
 24 25  1  0  0  0  0
 24 27  2  0  0  0  0
 25 36  2  0  0  0  0
 26 28  2  0  0  0  0
 26 38  1  0  0  0  0
 27 30  1  0  0  0  0
 27 32  1  0  0  0  0
 28 29  1  0  0  0  0
 29 31  2  0  0  0  0
 31 33  1  0  0  0  0
 32 34  1  0  0  0  0
 32 35  2  0  0  0  0
 33 38  2  0  0  0  0
 33 39  1  0  0  0  0
 35 36  1  0  0  0  0
 36 37  1  0  0  0  0
 37 39  1  0  0  0  0
 37 40  1  0  0  0  0
 38 40  1  0  0  0  0
 39 41  2  0  0  0  0
M  END
$$$$

 OpenBabel10082411353D

 41 45  0  0  0  0  0  0  0  0999 V2000
   11.6836    6.0105   -4.8831 F   0  0  0  0  0  0  0  0  0  0  0  0
   11.2562    7.2206   -5.0294 C   0  0  0  0  0  0  0  0  0  0  0  0
   12.0125    8.2418   -4.4408 C   0  0  0  0  0  0  0  0  0  0  0  0
   11.1918    7.2706   -6.5237 C   0  0  0  0  0  0  0  0  0  0  0  0
   11.6999    8.4488   -3.1704 F   0  0  0  0  0  0  0  0  0  0  0  0
    9.8648    7.0908   -4.5314 F   0  0  0  0  0  0  0  0  0  0  0  0
   11.6831    8.5291   -6.9682 C   0  0  0  0  0  0  0  0  0  0  0  0
   10.4785    6.5189   -7.4033 C   0  0  0  0  0  0  0  0  0  0  0  0
   11.6979    8.6661   -8.4760 C   0  0  0  0  0  0  0  0  0  0  0  0
   11.6248    9.5853   -5.0030 C   0  0  0  0  0  0  0  0  0  0  0  0
   11.8604    9.7907   -6.2903 O   0  0  0  0  0  0  0  0  0  0  0  0
   13.3557    8.1748   -4.5947 F   0  0  0  0  0  0  0  0  0  0  0  0
   10.5427    6.6061   -8.7190 C   0  0  0  0  0  0  0  0  0  0  0  0
   11.1158    7.7103   -9.2540 C   0  0  0  0  0  0  0  0  0  0  0  0
   11.3757    7.6656  -10.5293 N   0  0  0  0  0  0  0  0  0  0  0  0
   10.7153    7.7096  -11.5405 C   0  0  0  0  0  0  0  0  0  0  0  0
   11.2483    7.4711  -12.8542 C   0  0  0  0  0  0  0  0  0  0  0  0
    9.3980    7.7820  -11.5398 C   0  0  0  0  0  0  0  0  0  0  0  0
    8.6055    7.5889  -12.6525 C   0  0  0  0  0  0  0  0  0  0  0  0
   12.7508    7.3705  -13.0162 O   0  0  0  0  0  0  0  0  0  0  0  0
   10.5299    7.1831  -13.9856 C   0  0  0  0  0  0  0  0  0  0  0  0
    7.0533    7.7371  -12.5396 C   0  0  0  0  0  0  0  0  0  0  0  0
   11.2041    6.8490  -15.2304 C   0  0  0  0  0  0  0  0  0  0  0  0
   11.6393    5.5333  -15.3864 C   0  0  0  0  0  0  0  0  0  0  0  0
    9.1955    7.2935  -13.8301 C   0  0  0  0  0  0  0  0  0  0  0  0
   12.5294    5.1116  -16.1609 C   0  0  0  0  0  0  0  0  0  0  0  0
   11.2315    4.4703  -14.3200 C   0  0  0  0  0  0  0  0  0  0  0  0
   13.0194    6.0876  -17.1697 C   0  0  0  0  0  0  0  0  0  0  0  0
   12.3991    7.3271  -17.2011 C   0  0  0  0  0  0  0  0  0  0  0  0
   11.6234    7.7212  -16.1065 C   0  0  0  0  0  0  0  0  0  0  0  0
    6.8111    8.8557  -12.1311 F   0  0  0  0  0  0  0  0  0  0  0  0
   10.0067    4.0539  -14.1822 C   0  0  0  0  0  0  0  0  0  0  0  0
    6.6026    6.8347  -11.5951 F   0  0  0  0  0  0  0  0  0  0  0  0
    9.7932    2.6838  -14.2236 C   0  0  0  0  0  0  0  0  0  0  0  0
    8.9172    4.7456  -13.9387 C   0  0  0  0  0  0  0  0  0  0  0  0
    8.6274    2.2762  -14.1460 C   0  0  0  0  0  0  0  0  0  0  0  0
    8.3675    0.7515  -14.2475 C   0  0  0  0  0  0  0  0  0  0  0  0
    6.5409    7.4224  -13.7587 F   0  0  0  0  0  0  0  0  0  0  0  0
    7.5992    3.2831  -13.8476 C   0  0  0  0  0  0  0  0  0  0  0  0
    6.5223    3.4581  -13.6409 C   0  0  0  0  0  0  0  0  0  0  0  0
    5.6046    2.3652  -13.3250 C   0  0  0  0  0  0  0  0  0  0  0  0
  1  2  1  0  0  0  0
  2  3  1  0  0  0  0
  2  4  1  0  0  0  0
  2  6  1  0  0  0  0
  3  5  1  0  0  0  0
  3 10  1  0  0  0  0
  3 12  1  0  0  0  0
  4  7  1  0  0  0  0
  4  8  2  0  0  0  0
  7  9  2  0  0  0  0
  7 11  1  0  0  0  0
  8 13  1  0  0  0  0
  9 14  1  0  0  0  0
 10 11  1  0  0  0  0
 13 14  2  0  0  0  0
 14 15  1  0  0  0  0
 15 16  1  0  0  0  0
 16 17  1  0  0  0  0
 16 18  2  0  0  0  0
 17 20  1  0  0  0  0
 17 21  2  0  0  0  0
 18 19  1  0  0  0  0
 19 22  1  0  0  0  0
 19 25  2  0  0  0  0
 21 23  1  0  0  0  0
 21 25  1  0  0  0  0
 22 31  1  0  0  0  0
 22 33  1  0  0  0  0
 22 38  1  0  0  0  0
 23 24  1  0  0  0  0
 23 30  2  0  0  0  0
 24 26  2  0  0  0  0
 24 27  1  0  0  0  0
 26 28  1  0  0  0  0
 27 32  1  0  0  0  0
 28 29  2  0  0  0  0
 29 30  1  0  0  0  0
 32 34  1  0  0  0  0
 32 35  2  0  0  0  0
 34 36  2  0  0  0  0
 35 39  1  0  0  0  0
 36 37  1  0  0  0  0
 36 39  1  0  0  0  0
 39 40  2  3  0  0  0
 40 41  1  0  0  0  0
M  END
$$$$

 OpenBabel10082411353D

 41 45  0  0  0  0  0  0  0  0999 V2000
   11.6836    6.0105   -4.8831 F   0  0  0  0  0  0  0  0  0  0  0  0
   11.2562    7.2206   -5.0294 C   0  0  0  0  0  0  0  0  0  0  0  0
   12.0125    8.2418   -4.4408 C   0  0  0  0  0  0  0  0  0  0  0  0
   11.1918    7.2706   -6.5237 C   0  0  0  0  0  0  0  0  0  0  0  0
   11.6999    8.4488   -3.1704 F   0  0  0  0  0  0  0  0  0  0  0  0
    9.8648    7.0908   -4.5314 F   0  0  0  0  0  0  0  0  0  0  0  0
   11.6831    8.5291   -6.9682 C   0  0  0  0  0  0  0  0  0  0  0  0
   10.4785    6.5189   -7.4033 C   0  0  0  0  0  0  0  0  0  0  0  0
   11.6979    8.6661   -8.4760 C   0  0  0  0  0  0  0  0  0  0  0  0
   11.6248    9.5853   -5.0030 C   0  0  0  0  0  0  0  0  0  0  0  0
   11.8604    9.7907   -6.2903 O   0  0  0  0  0  0  0  0  0  0  0  0
   13.3557    8.1748   -4.5947 F   0  0  0  0  0  0  0  0  0  0  0  0
   10.5427    6.6061   -8.7190 C   0  0  0  0  0  0  0  0  0  0  0  0
   11.1158    7.7103   -9.2540 C   0  0  0  0  0  0  0  0  0  0  0  0
   11.3757    7.6656  -10.5293 N   0  0  0  0  0  0  0  0  0  0  0  0
   10.7153    7.7096  -11.5405 C   0  0  0  0  0  0  0  0  0  0  0  0
   11.2483    7.4711  -12.8542 C   0  0  0  0  0  0  0  0  0  0  0  0
    9.3980    7.7820  -11.5398 C   0  0  0  0  0  0  0  0  0  0  0  0
    8.6055    7.5889  -12.6525 C   0  0  0  0  0  0  0  0  0  0  0  0
   12.7508    7.3705  -13.0162 O   0  0  0  0  0  0  0  0  0  0  0  0
   10.5299    7.1831  -13.9856 C   0  0  0  0  0  0  0  0  0  0  0  0
    7.0533    7.7371  -12.5396 C   0  0  0  0  0  0  0  0  0  0  0  0
   11.2041    6.8490  -15.2304 C   0  0  0  0  0  0  0  0  0  0  0  0
   11.6393    5.5333  -15.3864 C   0  0  0  0  0  0  0  0  0  0  0  0
    9.1955    7.2935  -13.8301 C   0  0  0  0  0  0  0  0  0  0  0  0
   12.5294    5.1116  -16.1609 C   0  0  0  0  0  0  0  0  0  0  0  0
   11.2315    4.4703  -14.3200 C   0  0  0  0  0  0  0  0  0  0  0  0
   13.0194    6.0876  -17.1697 C   0  0  0  0  0  0  0  0  0  0  0  0
   12.3991    7.3271  -17.2011 C   0  0  0  0  0  0  0  0  0  0  0  0
   11.6234    7.7212  -16.1065 C   0  0  0  0  0  0  0  0  0  0  0  0
    6.8111    8.8557  -12.1311 F   0  0  0  0  0  0  0  0  0  0  0  0
   10.0067    4.0539  -14.1822 C   0  0  0  0  0  0  0  0  0  0  0  0
    6.6026    6.8347  -11.5951 F   0  0  0  0  0  0  0  0  0  0  0  0
    9.7932    2.6838  -14.2236 C   0  0  0  0  0  0  0  0  0  0  0  0
    8.9172    4.7456  -13.9387 C   0  0  0  0  0  0  0  0  0  0  0  0
   10.8604    1.7246  -14.4744 F   0  0  0  0  0  0  0  0  0  0  0  0
    8.6405    2.0857  -14.0766 C   0  0  0  0  0  0  0  0  0  0  0  0
    6.5088    7.4457  -13.7252 F   0  0  0  0  0  0  0  0  0  0  0  0
    7.4979    2.8086  -13.8582 C   0  0  0  0  0  0  0  0  0  0  0  0
    6.1951    2.2595  -13.6399 C   0  0  0  0  0  0  0  0  0  0  0  0
    7.6351    4.2064  -13.7429 C   0  0  0  0  0  0  0  0  0  0  0  0
  1  2  1  0  0  0  0
  2  3  1  0  0  0  0
  2  4  1  0  0  0  0
  2  6  1  0  0  0  0
  3  5  1  0  0  0  0
  3 10  1  0  0  0  0
  3 12  1  0  0  0  0
  4  7  1  0  0  0  0
  4  8  2  0  0  0  0
  7  9  2  0  0  0  0
  7 11  1  0  0  0  0
  8 13  1  0  0  0  0
  9 14  1  0  0  0  0
 10 11  1  0  0  0  0
 13 14  2  0  0  0  0
 14 15  1  0  0  0  0
 15 16  1  0  0  0  0
 16 17  1  0  0  0  0
 16 18  2  0  0  0  0
 17 20  1  0  0  0  0
 17 21  2  0  0  0  0
 18 19  1  0  0  0  0
 19 22  1  0  0  0  0
 19 25  2  0  0  0  0
 21 23  1  0  0  0  0
 21 25  1  0  0  0  0
 22 31  1  0  0  0  0
 22 33  1  0  0  0  0
 22 38  1  0  0  0  0
 23 24  1  0  0  0  0
 23 30  2  0  0  0  0
 24 26  2  0  0  0  0
 24 27  1  0  0  0  0
 26 28  1  0  0  0  0
 27 32  1  0  0  0  0
 28 29  2  0  0  0  0
 29 30  1  0  0  0  0
 32 34  1  0  0  0  0
 32 35  2  0  0  0  0
 34 36  1  0  0  0  0
 34 37  2  0  0  0  0
 35 41  1  0  0  0  0
 37 39  1  0  0  0  0
 39 40  1  0  0  0  0
 39 41  2  0  0  0  0
M  END
$$$$

 OpenBabel10082411353D

 41 50  0  0  0  0  0  0  0  0999 V2000
    8.0806    9.0240  -12.7589 C   0  0  0  0  0  0  0  0  0  0  0  0
    8.6514    7.8645  -12.2948 C   0  0  0  0  0  0  0  0  0  0  0  0
    9.9575    7.9974  -11.8426 C   0  0  0  0  0  0  0  0  0  0  0  0
   10.7657    6.8667  -11.6050 C   0  0  1  0  0  0  0  0  0  0  0  0
   10.7682    5.9590  -12.8271 C   0  0  0  0  0  0  0  0  0  0  0  0
   12.1553    7.3846  -11.2315 C   0  0  0  0  0  0  0  0  0  0  0  0
    8.0676    6.6451  -12.2974 C   0  0  0  0  0  0  0  0  0  0  0  0
   10.1892    6.1240  -10.3860 C   0  0  0  0  0  0  0  0  0  0  0  0
   11.8375    5.4373  -13.3240 O   0  0  0  0  0  0  0  0  0  0  0  0
    8.6785    5.4761  -13.0273 C   0  0  1  0  0  0  0  0  0  0  0  0
    9.1969    5.2405  -10.4969 C   0  0  1  0  0  0  0  0  0  0  0  0
    7.2213    6.2210  -11.3074 C   0  0  0  0  0  0  0  0  0  0  0  0
   12.5590    7.6872   -9.9896 C   0  0  0  0  0  0  0  0  0  0  0  0
    9.7633    5.0333  -12.9720 C   0  0  1  0  0  0  0  0  0  0  0  0
   10.0661    4.0167  -14.0373 N   0  0  0  0  0  0  0  0  0  0  0  0
   13.6906    8.3004   -9.6233 O   0  0  0  0  0  0  0  0  0  0  0  0
    7.6357    4.5123  -12.6317 C   0  0  2  0  0  0  0  0  0  0  0  0
    6.8831    4.9171  -11.7031 C   0  0  0  0  0  0  0  0  0  0  0  0
   10.5937    6.6967   -9.1779 C   0  0  0  0  0  0  0  0  0  0  0  0
    9.5087    4.3263  -11.6925 C   0  0  2  0  0  0  0  0  0  0  0  0
   11.6359    7.4449   -8.9125 C   0  0  0  0  0  0  0  0  0  0  0  0
   11.9716    7.9159   -7.6200 C   0  0  0  0  0  0  0  0  0  0  0  0
    8.4648    3.6122  -12.2840 C   0  0  2  0  0  0  0  0  0  0  0  0
    9.3128    4.5571   -9.1689 C   0  0  0  0  0  0  0  0  0  0  0  0
   10.9557    7.6369   -6.5929 C   0  0  1  0  0  0  0  0  0  0  0  0
    9.6490    2.8108  -13.7776 C   0  0  1  0  0  0  0  0  0  0  0  0
    9.6716    6.1981   -8.0224 C   0  0  2  0  0  0  0  0  0  0  0  0
    8.5511    2.5400  -13.1402 C   0  0  0  0  0  0  0  0  0  0  0  0
    9.7877    2.0302  -15.0383 O   0  0  0  0  0  0  0  0  0  0  0  0
   10.2949    6.3957   -6.8142 C   0  0  0  0  0  0  0  0  0  0  0  0
   11.5672    7.6277   -5.2275 C   0  0  0  0  0  0  0  0  0  0  0  0
    9.9257    8.9082   -6.5228 C   0  0  0  0  0  0  0  0  0  0  0  0
    8.7436    3.1868   -9.1768 O   0  0  0  0  0  0  0  0  0  0  0  0
    9.2453    4.8876   -8.0562 C   0  0  0  0  0  0  0  0  0  0  0  0
   11.6951    6.3147   -4.7202 C   0  0  0  0  0  0  0  0  0  0  0  0
   12.0146    8.7257   -4.5097 C   0  0  0  0  0  0  0  0  0  0  0  0
   12.6485    8.6762   -3.2458 C   0  0  0  0  0  0  0  0  0  0  0  0
   12.7675    7.3847   -2.6655 C   0  0  0  0  0  0  0  0  0  0  0  0
   11.3669    5.2566   -5.3578 C   0  0  0  0  0  0  0  0  0  0  0  0
   10.6653    5.3307   -6.1963 C   0  0  0  0  0  0  0  0  0  0  0  0
   12.3172    6.2427   -3.2899 C   0  0  0  0  0  0  0  0  0  0  0  0
  1  2  1  0  0  0  0
  2  3  1  0  0  0  0
  2  7  2  0  0  0  0
  4  3  1  6  0  0  0
  4  5  1  0  0  0  0
  4  6  1  0  0  0  0
  4  8  1  0  0  0  0
  5  9  2  0  0  0  0
  6 13  1  0  0  0  0
  7 12  1  0  0  0  0
  8 19  2  0  0  0  0
 10  7  1  1  0  0  0
 10 14  1  0  0  0  0
 10 17  1  0  0  0  0
 11  8  1  1  0  0  0
 11 20  1  0  0  0  0
 11 24  1  0  0  0  0
 12 18  1  0  0  0  0
 13 16  2  0  0  0  0
 13 21  1  0  0  0  0
 14  5  1  1  0  0  0
 14 15  1  0  0  0  0
 14 20  1  0  0  0  0
 15 26  1  0  0  0  0
 17 18  1  1  0  0  0
 17 23  1  0  0  0  0
 19 21  1  0  0  0  0
 19 27  1  0  0  0  0
 20 23  1  0  0  0  0
 21 22  2  0  0  0  0
 22 25  1  0  0  0  0
 23 28  1  0  0  0  0
 24 33  2  0  0  0  0
 24 34  1  0  0  0  0
 25 30  1  0  0  0  0
 25 31  1  0  0  0  0
 25 32  1  0  0  0  0
 26 28  1  0  0  0  0
 26 29  1  0  0  0  0
 27 30  1  0  0  0  0
 27 34  1  0  0  0  0
 30 40  2  0  0  0  0
 31 35  1  0  0  0  0
 31 36  2  0  0  0  0
 35 39  1  0  0  0  0
 35 41  2  0  0  0  0
 36 37  1  0  0  0  0
 37 38  2  0  0  0  0
 38 41  1  0  0  0  0
 39 40  1  0  0  0  0
M  END
$$$$

 OpenBabel10082411353D

 41 52  0  0  0  0  0  0  0  0999 V2000
    8.0806    9.0240  -12.7589 C   0  0  0  0  0  0  0  0  0  0  0  0
    8.6514    7.8645  -12.2948 C   0  0  0  0  0  0  0  0  0  0  0  0
    9.9575    7.9974  -11.8426 C   0  0  0  0  0  0  0  0  0  0  0  0
   10.7657    6.8667  -11.6050 C   0  0  1  0  0  0  0  0  0  0  0  0
   10.7682    5.9590  -12.8271 C   0  0  0  0  0  0  0  0  0  0  0  0
   12.1553    7.3846  -11.2315 C   0  0  0  0  0  0  0  0  0  0  0  0
    8.0676    6.6451  -12.2974 C   0  0  0  0  0  0  0  0  0  0  0  0
   10.1892    6.1240  -10.3860 C   0  0  0  0  0  0  0  0  0  0  0  0
   11.8375    5.4373  -13.3240 O   0  0  0  0  0  0  0  0  0  0  0  0
    8.6785    5.4761  -13.0273 C   0  0  1  0  0  0  0  0  0  0  0  0
    9.1969    5.2405  -10.4969 C   0  0  1  0  0  0  0  0  0  0  0  0
    7.2213    6.2210  -11.3074 C   0  0  1  0  0  0  0  0  0  0  0  0
   12.5590    7.6872   -9.9896 C   0  0  0  0  0  0  0  0  0  0  0  0
    9.7633    5.0333  -12.9720 C   0  0  1  0  0  0  0  0  0  0  0  0
   10.0661    4.0167  -14.0373 N   0  0  0  0  0  0  0  0  0  0  0  0
   13.6906    8.3004   -9.6233 O   0  0  0  0  0  0  0  0  0  0  0  0
    7.6357    4.5123  -12.6317 C   0  0  2  0  0  0  0  0  0  0  0  0
    6.8831    4.9171  -11.7031 C   0  0  1  0  0  0  0  0  0  0  0  0
   10.5937    6.6967   -9.1779 C   0  0  0  0  0  0  0  0  0  0  0  0
    9.5087    4.3263  -11.6925 C   0  0  2  0  0  0  0  0  0  0  0  0
   11.6359    7.4449   -8.9125 C   0  0  0  0  0  0  0  0  0  0  0  0
   11.9716    7.9159   -7.6200 C   0  0  0  0  0  0  0  0  0  0  0  0
    8.4648    3.6122  -12.2840 C   0  0  2  0  0  0  0  0  0  0  0  0
    9.3128    4.5571   -9.1689 C   0  0  0  0  0  0  0  0  0  0  0  0
   10.9557    7.6369   -6.5929 C   0  0  1  0  0  0  0  0  0  0  0  0
    9.6490    2.8108  -13.7776 C   0  0  1  0  0  0  0  0  0  0  0  0
    9.6716    6.1981   -8.0224 C   0  0  2  0  0  0  0  0  0  0  0  0
    8.5511    2.5400  -13.1402 C   0  0  0  0  0  0  0  0  0  0  0  0
    9.7877    2.0302  -15.0383 O   0  0  0  0  0  0  0  0  0  0  0  0
   10.2949    6.3957   -6.8142 C   0  0  0  0  0  0  0  0  0  0  0  0
   11.5442    7.8028   -5.1770 C   0  0  1  0  0  0  0  0  0  0  0  0
    9.3662    4.9454   -8.1688 C   0  0  0  0  0  0  0  0  0  0  0  0
    9.9825    8.6746   -6.2053 C   0  0  0  0  0  0  0  0  0  0  0  0
   11.8670    9.1982   -4.7195 C   0  0  2  0  0  0  0  0  0  0  0  0
   12.7706    9.9232   -5.2633 C   0  0  0  0  0  0  0  0  0  0  0  0
   11.8424    9.4142   -3.2287 C   0  0  0  0  0  0  0  0  0  0  0  0
   10.4235    9.7873   -5.2643 C   0  0  0  0  0  0  0  0  0  0  0  0
    7.9400    5.6479  -10.4916 C   0  0  1  0  0  0  0  0  0  0  0  0
   11.0066    6.9478   -4.1947 C   0  0  0  0  0  0  0  0  0  0  0  0
   11.9148    8.0058   -2.6121 C   0  0  0  0  0  0  0  0  0  0  0  0
   11.2460    7.1557   -2.9805 C   0  0  0  0  0  0  0  0  0  0  0  0
  1  2  1  0  0  0  0
  2  3  1  0  0  0  0
  2  7  2  0  0  0  0
  4  3  1  6  0  0  0
  4  5  1  0  0  0  0
  4  6  1  0  0  0  0
  4  8  1  0  0  0  0
  5  9  2  0  0  0  0
  6 13  1  0  0  0  0
  8 11  1  0  0  0  0
  8 19  2  0  0  0  0
 10  7  1  1  0  0  0
 10 14  1  0  0  0  0
 10 17  1  0  0  0  0
 11 20  1  0  0  0  0
 11 24  1  1  0  0  0
 11 38  1  0  0  0  0
 12  7  1  6  0  0  0
 12 18  1  0  0  0  0
 12 38  1  0  0  0  0
 13 16  2  0  0  0  0
 13 21  1  0  0  0  0
 14  5  1  1  0  0  0
 14 15  1  0  0  0  0
 14 20  1  0  0  0  0
 15 26  1  0  0  0  0
 17 18  1  0  0  0  0
 17 23  1  0  0  0  0
 18 38  1  0  0  0  0
 19 21  1  0  0  0  0
 19 27  1  0  0  0  0
 20 23  1  0  0  0  0
 21 22  2  0  0  0  0
 22 25  1  0  0  0  0
 23 28  1  0  0  0  0
 24 32  2  0  0  0  0
 25 30  1  0  0  0  0
 25 31  1  0  0  0  0
 25 33  1  0  0  0  0
 26 28  1  0  0  0  0
 26 29  1  0  0  0  0
 27 30  1  0  0  0  0
 27 32  1  0  0  0  0
 31 34  1  0  0  0  0
 31 39  1  0  0  0  0
 33 37  1  0  0  0  0
 34 35  1  0  0  0  0
 34 36  1  0  0  0  0
 34 37  1  0  0  0  0
 36 40  1  0  0  0  0
 39 41  1  0  0  0  0
 40 41  1  0  0  0  0
M  END
$$$$

 OpenBabel10082411353D

 41 51  0  0  0  0  0  0  0  0999 V2000
    8.0806    9.0240  -12.7589 C   0  0  0  0  0  0  0  0  0  0  0  0
    8.6514    7.8645  -12.2948 C   0  0  0  0  0  0  0  0  0  0  0  0
    9.9575    7.9974  -11.8426 C   0  0  0  0  0  0  0  0  0  0  0  0
   10.7657    6.8667  -11.6050 C   0  0  1  0  0  0  0  0  0  0  0  0
   10.7682    5.9590  -12.8271 C   0  0  0  0  0  0  0  0  0  0  0  0
   12.1553    7.3846  -11.2315 C   0  0  0  0  0  0  0  0  0  0  0  0
    8.0676    6.6451  -12.2974 C   0  0  0  0  0  0  0  0  0  0  0  0
   10.1892    6.1240  -10.3860 C   0  0  0  0  0  0  0  0  0  0  0  0
   11.8375    5.4373  -13.3240 O   0  0  0  0  0  0  0  0  0  0  0  0
    8.6785    5.4761  -13.0273 C   0  0  1  0  0  0  0  0  0  0  0  0
    9.1969    5.2405  -10.4969 C   0  0  2  0  0  0  0  0  0  0  0  0
    7.2213    6.2210  -11.3074 C   0  0  2  0  0  0  0  0  0  0  0  0
   12.5590    7.6872   -9.9896 C   0  0  0  0  0  0  0  0  0  0  0  0
    9.7633    5.0333  -12.9720 C   0  0  1  0  0  0  0  0  0  0  0  0
   10.0661    4.0167  -14.0373 N   0  0  0  0  0  0  0  0  0  0  0  0
   13.6906    8.3004   -9.6233 O   0  0  0  0  0  0  0  0  0  0  0  0
    7.6357    4.5123  -12.6317 C   0  0  2  0  0  0  0  0  0  0  0  0
    6.8831    4.9171  -11.7031 C   0  0  2  0  0  0  0  0  0  0  0  0
   10.5937    6.6967   -9.1779 C   0  0  0  0  0  0  0  0  0  0  0  0
    9.5087    4.3263  -11.6925 C   0  0  2  0  0  0  0  0  0  0  0  0
   11.6359    7.4449   -8.9125 C   0  0  0  0  0  0  0  0  0  0  0  0
   11.9716    7.9159   -7.6200 C   0  0  0  0  0  0  0  0  0  0  0  0
    8.4648    3.6122  -12.2840 C   0  0  1  0  0  0  0  0  0  0  0  0
    7.9253    2.8004  -11.3926 C   0  0  0  0  0  0  0  0  0  0  0  0
    5.6047    4.5059  -11.7589 C   0  0  0  0  0  0  0  0  0  0  0  0
    7.6606    4.1297  -10.5699 C   0  0  0  0  0  0  0  0  0  0  0  0
   10.9559    7.6849   -6.6057 C   0  0  0  0  0  0  0  0  0  0  0  0
    8.0094    4.5092   -9.5664 C   0  0  0  0  0  0  0  0  0  0  0  0
    8.3033    4.0627   -8.4980 C   0  0  0  0  0  0  0  0  0  0  0  0
    6.3587    7.1012  -11.0392 O   0  0  0  0  0  0  0  0  0  0  0  0
   11.0186    3.9598  -14.9226 C   0  0  0  0  0  0  0  0  0  0  0  0
    8.1758    5.8633  -10.2511 C   0  0  1  0  0  0  0  0  0  0  0  0
   11.4648    2.7104  -15.2650 O   0  0  0  0  0  0  0  0  0  0  0  0
    9.9512    6.8220   -6.8436 C   0  0  0  0  0  0  0  0  0  0  0  0
    9.6899    6.3705   -8.1082 C   0  0  2  0  0  0  0  0  0  0  0  0
   11.2597    8.2901   -5.2396 C   0  0  0  0  0  0  0  0  0  0  0  0
   11.6068    9.7354   -5.2006 C   0  0  0  0  0  0  0  0  0  0  0  0
    9.0563    4.8520   -7.9077 C   0  0  0  0  0  0  0  0  0  0  0  0
   10.9538    4.9317  -15.8311 O   0  0  0  0  0  0  0  0  0  0  0  0
    9.2418    2.8614  -13.6266 C   0  0  0  0  0  0  0  0  0  0  0  0
   12.5194    9.9481   -4.0611 C   0  0  0  0  0  0  0  0  0  0  0  0
  1  2  1  0  0  0  0
  2  3  1  0  0  0  0
  2  7  2  0  0  0  0
  4  3  1  6  0  0  0
  4  5  1  0  0  0  0
  4  6  1  0  0  0  0
  4  8  1  0  0  0  0
  5  9  2  0  0  0  0
  6 13  1  0  0  0  0
  7 12  1  0  0  0  0
  8 19  2  0  0  0  0
 10  7  1  1  0  0  0
 10 14  1  0  0  0  0
 10 17  1  0  0  0  0
 11  8  1  6  0  0  0
 11 20  1  0  0  0  0
 11 32  1  0  0  0  0
 12 18  1  0  0  0  0
 12 30  1  1  0  0  0
 12 32  1  0  0  0  0
 13 16  2  0  0  0  0
 13 21  1  0  0  0  0
 14  5  1  1  0  0  0
 14 15  1  0  0  0  0
 14 20  1  0  0  0  0
 15 31  1  0  0  0  0
 15 40  1  0  0  0  0
 17 18  1  0  0  0  0
 17 23  1  0  0  0  0
 18 25  1  0  0  0  0
 18 26  1  0  0  0  0
 19 21  1  0  0  0  0
 19 35  1  0  0  0  0
 20 23  1  0  0  0  0
 21 22  2  0  0  0  0
 22 27  1  0  0  0  0
 23 24  1  0  0  0  0
 23 40  1  0  0  0  0
 24 26  1  0  0  0  0
 26 28  2  0  0  0  0
 27 34  2  0  0  0  0
 27 36  1  0  0  0  0
 28 29  1  0  0  0  0
 28 32  1  0  0  0  0
 29 38  2  0  0  0  0
 31 33  2  0  0  0  0
 31 39  1  0  0  0  0
 34 35  1  0  0  0  0
 35 38  1  0  0  0  0
 36 37  1  0  0  0  0
 37 41  1  0  0  0  0
M  END
$$$$

 OpenBabel10082411353D

 41 47  0  0  0  0  0  0  0  0999 V2000
   12.7863    7.8241  -14.2109 C   0  0  0  0  0  0  0  0  0  0  0  0
   12.4233    7.7158  -13.0289 C   0  0  0  0  0  0  0  0  0  0  0  0
   11.3194    6.8571  -12.8028 C   0  0  0  0  0  0  0  0  0  0  0  0
   12.3150    7.2021  -15.3582 C   0  0  0  0  0  0  0  0  0  0  0  0
   11.2733    6.2739  -15.1502 C   0  0  0  0  0  0  0  0  0  0  0  0
   10.8099    6.0126  -13.8600 C   0  0  0  0  0  0  0  0  0  0  0  0
    9.6782    5.1428  -13.6488 C   0  0  0  0  0  0  0  0  0  0  0  0
    8.5753    5.3880  -12.9589 N   0  0  0  0  0  0  0  0  0  0  0  0
    8.3226    6.7011  -12.3862 C   0  0  0  0  0  0  0  0  0  0  0  0
    9.8502    3.8578  -14.0728 C   0  0  0  0  0  0  0  0  0  0  0  0
    7.3864    7.4720  -13.0530 C   0  0  0  0  0  0  0  0  0  0  0  0
    6.2412    7.8486  -12.2599 C   0  0  0  0  0  0  0  0  0  0  0  0
    7.6425    4.4186  -12.7943 C   0  0  0  0  0  0  0  0  0  0  0  0
   11.0297    3.2482  -14.8053 C   0  0  0  0  0  0  0  0  0  0  0  0
    8.6802    2.8955  -13.7960 C   0  0  0  0  0  0  0  0  0  0  0  0
    8.8565    1.5917  -14.3582 O   0  0  0  0  0  0  0  0  0  0  0  0
    7.6903    3.2226  -13.1994 N   0  0  0  0  0  0  0  0  0  0  0  0
    6.5724    2.3444  -12.8378 C   0  0  0  0  0  0  0  0  0  0  0  0
    9.0225    7.0353  -11.3259 C   0  0  0  0  0  0  0  0  0  0  0  0
    6.4787    4.7532  -12.1787 O   0  0  0  0  0  0  0  0  0  0  0  0
   10.5868    7.0468  -11.5199 C   0  0  0  0  0  0  0  0  0  0  0  0
   11.2761    7.4007  -10.4131 C   0  0  0  0  0  0  0  0  0  0  0  0
    8.6862    7.4300   -9.9877 C   0  0  0  0  0  0  0  0  0  0  0  0
    9.4326    7.6744   -8.9657 C   0  0  0  0  0  0  0  0  0  0  0  0
   10.6794    7.6568   -9.1312 C   0  0  2  0  0  0  0  0  0  0  0  0
    8.9269    7.9839   -7.6612 C   0  0  0  0  0  0  0  0  0  0  0  0
   11.4232    7.9744   -7.9321 C   0  0  0  0  0  0  0  0  0  0  0  0
   10.9573    8.3184   -6.8885 C   0  0  0  0  0  0  0  0  0  0  0  0
    7.5782    7.8797   -7.5710 F   0  0  0  0  0  0  0  0  0  0  0  0
   11.9524    8.6726   -5.5732 C   0  0  0  0  0  0  0  0  0  0  0  0
   12.5628    9.9251   -5.6215 C   0  0  0  0  0  0  0  0  0  0  0  0
   11.7409    8.0483   -4.4624 C   0  0  0  0  0  0  0  0  0  0  0  0
   13.2690   10.1339   -4.4918 C   0  0  0  0  0  0  0  0  0  0  0  0
    9.4630    8.1816   -6.7271 C   0  0  0  0  0  0  0  0  0  0  0  0
   12.9861    9.0553   -3.3537 S   0  0  0  0  0  0  0  0  0  0  0  0
   12.2132    7.9988   -3.3585 C   0  0  0  0  0  0  0  0  0  0  0  0
   10.8132    6.6288   -4.6870 C   0  0  0  0  0  0  0  0  0  0  0  0
   12.1026    7.1304   -2.2950 C   0  0  0  0  0  0  0  0  0  0  0  0
   12.8044    7.2697   -1.1019 F   0  0  0  0  0  0  0  0  0  0  0  0
   11.3783    5.9913   -2.3977 C   0  0  0  0  0  0  0  0  0  0  0  0
   10.6603    5.8601   -3.5908 C   0  0  0  0  0  0  0  0  0  0  0  0
  1  2  2  0  0  0  0
  1  4  1  0  0  0  0
  2  3  1  0  0  0  0
  3  6  2  0  0  0  0
  3 21  1  0  0  0  0
  4  5  2  0  0  0  0
  5  6  1  0  0  0  0
  6  7  1  0  0  0  0
  7  8  1  0  0  0  0
  7 10  2  0  0  0  0
  8  9  1  0  0  0  0
  8 13  1  0  0  0  0
  9 11  1  0  0  0  0
  9 19  2  0  0  0  0
 10 14  1  0  0  0  0
 10 15  1  0  0  0  0
 11 12  1  0  0  0  0
 13 17  1  0  0  0  0
 13 20  2  0  0  0  0
 15 16  2  0  0  0  0
 15 17  1  0  0  0  0
 17 18  1  0  0  0  0
 19 21  1  0  0  0  0
 19 23  1  0  0  0  0
 21 22  2  0  0  0  0
 23 24  2  0  0  0  0
 24 25  1  0  0  0  0
 24 26  1  0  0  0  0
 25 22  1  6  0  0  0
 25 27  1  0  0  0  0
 26 29  1  0  0  0  0
 26 34  2  0  0  0  0
 27 28  2  0  0  0  0
 28 30  1  0  0  0  0
 28 34  1  0  0  0  0
 30 31  1  0  0  0  0
 30 32  2  0  0  0  0
 31 33  2  0  0  0  0
 32 36  1  0  0  0  0
 32 37  1  0  0  0  0
 33 35  1  0  0  0  0
 35 36  1  0  0  0  0
 36 38  2  0  0  0  0
 37 41  1  0  0  0  0
 38 39  1  0  0  0  0
 38 40  1  0  0  0  0
 40 41  2  0  0  0  0
M  END
$$$$

 OpenBabel10082411353D

 26 27  0  0  0  0  0  0  0  0999 V2000
   13.4846    9.3979   -5.2029 C   0  0  0  0  0  0  0  0  0  0  0  0
   12.7871    9.3913   -6.3118 C   0  0  0  0  0  0  0  0  0  0  0  0
   11.3648    9.1424   -6.2947 C   0  0  0  0  0  0  0  0  0  0  0  0
   10.8726    9.0146   -5.0034 C   0  0  0  0  0  0  0  0  0  0  0  0
    9.3815    8.7865   -5.0373 F   0  0  0  0  0  0  0  0  0  0  0  0
   11.4703    9.0293   -3.8455 C   0  0  0  0  0  0  0  0  0  0  0  0
   10.7697    8.8716   -2.6325 F   0  0  0  0  0  0  0  0  0  0  0  0
   12.8710    9.2169   -3.9429 C   0  0  0  0  0  0  0  0  0  0  0  0
   10.4781    9.1384   -7.6682 C   0  0  0  0  0  0  0  0  0  0  0  0
   11.1390    9.1306   -8.8047 C   0  0  0  0  0  0  0  0  0  0  0  0
   10.8705    7.9638   -9.7397 C   0  0  0  0  0  0  0  0  0  0  0  0
   10.2908    8.0632  -10.8488 C   0  0  0  0  0  0  0  0  0  0  0  0
   10.4238    7.0375  -11.8282 C   0  0  0  0  0  0  0  0  0  0  0  0
    9.2433    8.9518  -11.2558 C   0  0  0  0  0  0  0  0  0  0  0  0
    8.5277    8.8707  -12.4031 C   0  0  0  0  0  0  0  0  0  0  0  0
    7.4469    9.8411  -12.5572 F   0  0  0  0  0  0  0  0  0  0  0  0
    8.5235    7.7173  -13.1606 C   0  0  0  0  0  0  0  0  0  0  0  0
   11.4736    5.9938  -11.5885 F   0  0  0  0  0  0  0  0  0  0  0  0
    9.6094    6.6956  -12.8849 C   0  0  0  0  0  0  0  0  0  0  0  0
    9.6904    5.6572  -13.7565 C   0  0  1  0  0  0  0  0  0  0  0  0
    8.9757    4.4312  -13.4176 C   0  0  1  0  0  0  0  0  0  0  0  0
    9.4032    5.7906  -15.1518 C   0  0  0  0  0  0  0  0  0  0  0  0
    9.3251    3.2277  -14.0581 C   0  0  0  0  0  0  0  0  0  0  0  0
    9.1057    4.2380  -11.9023 C   0  0  0  0  0  0  0  0  0  0  0  0
    8.6111    2.0911  -13.6915 O   0  0  0  0  0  0  0  0  0  0  0  0
   10.0108    3.2370  -15.1826 O   0  0  0  0  0  0  0  0  0  0  0  0
  1  2  1  0  0  0  0
  1  8  2  0  0  0  0
  2  3  2  0  0  0  0
  3  4  1  0  0  0  0
  3  9  1  0  0  0  0
  4  5  1  0  0  0  0
  4  6  2  0  0  0  0
  6  7  1  0  0  0  0
  6  8  1  0  0  0  0
  9 10  1  0  0  0  0
 10 11  1  0  0  0  0
 11 12  1  0  0  0  0
 12 13  2  0  0  0  0
 12 14  1  0  0  0  0
 13 18  1  0  0  0  0
 13 19  1  0  0  0  0
 14 15  2  0  0  0  0
 15 16  1  0  0  0  0
 15 17  1  0  0  0  0
 17 19  2  0  0  0  0
 19 20  1  0  0  0  0
 20 21  1  0  0  0  0
 20 22  1  6  0  0  0
 21 23  1  0  0  0  0
 21 24  1  1  0  0  0
 23 25  1  0  0  0  0
 23 26  2  0  0  0  0
M  END
$$$$

 OpenBabel10082411353D

 41 47  0  0  0  0  0  0  0  0999 V2000
   11.6836    6.0105   -4.8831 C   0  0  0  0  0  0  0  0  0  0  0  0
   11.1291    7.0732   -5.4395 C   0  0  0  0  0  0  0  0  0  0  0  0
   10.6954    7.0156   -6.8073 C   0  0  0  0  0  0  0  0  0  0  0  0
   10.2502    8.1187   -7.5536 C   0  0  2  0  0  0  0  0  0  0  0  0
   11.1205    8.4712   -4.9629 C   0  0  0  0  0  0  0  0  0  0  0  0
   10.8655    8.3511   -8.7960 C   0  0  0  0  0  0  0  0  0  0  0  0
   10.2922    7.8843   -9.9985 C   0  0  0  0  0  0  0  0  0  0  0  0
   10.4654    9.6993   -5.6120 C   0  0  0  0  0  0  0  0  0  0  0  0
   10.3510    9.5971   -7.0014 C   0  0  0  0  0  0  0  0  0  0  0  0
   12.2462    6.3351   -3.5020 C   0  0  0  0  0  0  0  0  0  0  0  0
   11.0471    7.5309  -11.1063 C   0  0  0  0  0  0  0  0  0  0  0  0
   11.7288    8.6923   -3.6518 C   0  0  0  0  0  0  0  0  0  0  0  0
   12.3991    7.7501  -11.1145 C   0  0  0  0  0  0  0  0  0  0  0  0
   12.3738    7.7580   -2.9599 C   0  0  0  0  0  0  0  0  0  0  0  0
   13.1285    8.5075  -10.1661 O   0  0  0  0  0  0  0  0  0  0  0  0
    9.0407    7.3775  -10.0973 N   0  0  0  0  0  0  0  0  0  0  0  0
    8.9787    6.9473  -11.4664 N   0  0  0  0  0  0  0  0  0  0  0  0
   13.1012    7.4459  -12.3707 C   0  0  0  0  0  0  0  0  0  0  0  0
   12.2395    6.9724  -13.2444 C   0  0  0  0  0  0  0  0  0  0  0  0
   10.2768    7.0170  -11.9799 C   0  0  0  0  0  0  0  0  0  0  0  0
   12.9237    6.5822  -14.5759 O   0  0  0  0  0  0  0  0  0  0  0  0
   10.8906    6.6526  -13.2252 C   0  0  0  0  0  0  0  0  0  0  0  0
   12.2396    6.1290  -15.6916 C   0  0  0  0  0  0  0  0  0  0  0  0
    7.7368    6.4514  -12.0707 C   0  0  0  0  0  0  0  0  0  0  0  0
    7.1353    7.2872  -12.8105 C   0  0  0  0  0  0  0  0  0  0  0  0
    7.6622    5.0135  -12.1225 C   0  0  0  0  0  0  0  0  0  0  0  0
   12.5092    4.6950  -15.8147 C   0  0  0  0  0  0  0  0  0  0  0  0
    5.9403    6.5840  -13.2897 C   0  0  0  0  0  0  0  0  0  0  0  0
   11.2738    3.8422  -15.5220 N   0  0  0  0  0  0  0  0  0  0  0  0
    8.7139    4.1736  -11.4601 C   0  0  0  0  0  0  0  0  0  0  0  0
    5.7546    5.3014  -13.2955 C   0  0  0  0  0  0  0  0  0  0  0  0
   10.5665    3.9988  -14.5162 C   0  0  0  0  0  0  0  0  0  0  0  0
    6.6518    4.4534  -12.6459 C   0  0  0  0  0  0  0  0  0  0  0  0
   11.1930    2.6728  -16.3047 C   0  0  0  0  0  0  0  0  0  0  0  0
    9.2470    3.7086  -14.6888 C   0  0  0  0  0  0  0  0  0  0  0  0
   10.0389    2.1274  -16.2175 N   0  0  0  0  0  0  0  0  0  0  0  0
    9.0069    2.5135  -15.3535 C   0  0  0  0  0  0  0  0  0  0  0  0
    7.7229    2.0262  -15.4253 N   0  0  0  0  0  0  0  0  0  0  0  0
    7.1343    2.8255  -14.3968 C   0  0  0  0  0  0  0  0  0  0  0  0
    7.9693    3.7648  -13.8159 N   0  0  0  0  0  0  0  0  0  0  0  0
    6.2514    3.2391  -12.3160 O   0  0  0  0  0  0  0  0  0  0  0  0
  1  2  1  0  0  0  0
  1 10  2  0  0  0  0
  2  3  1  0  0  0  0
  2  5  2  0  0  0  0
  3  4  1  0  0  0  0
  4  6  1  6  0  0  0
  4  9  1  0  0  0  0
  5  8  1  0  0  0  0
  5 12  1  0  0  0  0
  6  7  1  0  0  0  0
  7 11  1  0  0  0  0
  7 16  2  0  0  0  0
  8  9  1  0  0  0  0
 10 14  1  0  0  0  0
 11 13  2  0  0  0  0
 11 20  1  0  0  0  0
 12 14  2  0  0  0  0
 13 15  1  0  0  0  0
 13 18  1  0  0  0  0
 16 17  1  0  0  0  0
 17 20  1  0  0  0  0
 17 24  1  0  0  0  0
 18 19  2  0  0  0  0
 19 21  1  0  0  0  0
 19 22  1  0  0  0  0
 20 22  2  0  0  0  0
 21 23  1  0  0  0  0
 23 27  1  0  0  0  0
 24 25  2  0  0  0  0
 24 26  1  0  0  0  0
 25 28  1  0  0  0  0
 26 30  1  0  0  0  0
 26 33  2  0  0  0  0
 27 29  1  0  0  0  0
 28 31  2  0  0  0  0
 29 32  1  0  0  0  0
 29 34  1  0  0  0  0
 31 33  1  0  0  0  0
 32 35  2  0  0  0  0
 33 41  1  0  0  0  0
 34 36  2  0  0  0  0
 35 37  1  0  0  0  0
 35 40  1  0  0  0  0
 36 37  1  0  0  0  0
 37 38  2  0  0  0  0
 38 39  1  0  0  0  0
 39 40  2  0  0  0  0
M  END
$$$$

 OpenBabel10082411353D

 41 45  0  0  0  0  0  0  0  0999 V2000
   11.6836    6.0105   -4.8831 F   0  0  0  0  0  0  0  0  0  0  0  0
   11.2562    7.2206   -5.0294 C   0  0  0  0  0  0  0  0  0  0  0  0
   12.0125    8.2418   -4.4408 C   0  0  0  0  0  0  0  0  0  0  0  0
   11.1918    7.2706   -6.5237 C   0  0  0  0  0  0  0  0  0  0  0  0
   11.6999    8.4488   -3.1704 F   0  0  0  0  0  0  0  0  0  0  0  0
    9.8648    7.0908   -4.5314 F   0  0  0  0  0  0  0  0  0  0  0  0
   11.6831    8.5291   -6.9682 C   0  0  0  0  0  0  0  0  0  0  0  0
   10.4785    6.5189   -7.4033 C   0  0  0  0  0  0  0  0  0  0  0  0
   11.6979    8.6661   -8.4760 C   0  0  0  0  0  0  0  0  0  0  0  0
   11.6248    9.5853   -5.0030 C   0  0  0  0  0  0  0  0  0  0  0  0
   11.8604    9.7907   -6.2903 O   0  0  0  0  0  0  0  0  0  0  0  0
   13.3557    8.1748   -4.5947 F   0  0  0  0  0  0  0  0  0  0  0  0
   10.5427    6.6061   -8.7190 C   0  0  0  0  0  0  0  0  0  0  0  0
   11.1158    7.7103   -9.2540 C   0  0  0  0  0  0  0  0  0  0  0  0
   11.3757    7.6656  -10.5293 N   0  0  0  0  0  0  0  0  0  0  0  0
   10.7153    7.7096  -11.5405 C   0  0  0  0  0  0  0  0  0  0  0  0
   11.2483    7.4711  -12.8542 C   0  0  0  0  0  0  0  0  0  0  0  0
    9.3980    7.7820  -11.5398 C   0  0  0  0  0  0  0  0  0  0  0  0
    8.6055    7.5889  -12.6525 C   0  0  0  0  0  0  0  0  0  0  0  0
   12.7508    7.3705  -13.0162 O   0  0  0  0  0  0  0  0  0  0  0  0
   10.5299    7.1831  -13.9856 C   0  0  0  0  0  0  0  0  0  0  0  0
    7.0533    7.7371  -12.5396 C   0  0  0  0  0  0  0  0  0  0  0  0
   11.2041    6.8490  -15.2304 C   0  0  0  0  0  0  0  0  0  0  0  0
   11.6393    5.5333  -15.3864 C   0  0  0  0  0  0  0  0  0  0  0  0
    9.1955    7.2935  -13.8301 C   0  0  0  0  0  0  0  0  0  0  0  0
   12.5294    5.1116  -16.1609 C   0  0  0  0  0  0  0  0  0  0  0  0
   11.2315    4.4703  -14.3200 C   0  0  0  0  0  0  0  0  0  0  0  0
   13.0194    6.0876  -17.1697 C   0  0  0  0  0  0  0  0  0  0  0  0
   12.3991    7.3271  -17.2011 C   0  0  0  0  0  0  0  0  0  0  0  0
   11.6234    7.7212  -16.1065 C   0  0  0  0  0  0  0  0  0  0  0  0
    6.8111    8.8557  -12.1311 F   0  0  0  0  0  0  0  0  0  0  0  0
   10.0067    4.0539  -14.1822 C   0  0  0  0  0  0  0  0  0  0  0  0
    6.6026    6.8347  -11.5951 F   0  0  0  0  0  0  0  0  0  0  0  0
    9.7932    2.6838  -14.2236 C   0  0  0  0  0  0  0  0  0  0  0  0
    8.4260    2.1555  -14.1641 C   0  0  0  0  0  0  0  0  0  0  0  0
    8.1864    0.8314  -14.4015 C   0  0  0  0  0  0  0  0  0  0  0  0
    6.5195    7.4566  -13.7380 F   0  0  0  0  0  0  0  0  0  0  0  0
    7.4387    3.0799  -13.8123 C   0  0  0  0  0  0  0  0  0  0  0  0
    8.7447    4.8185  -13.7764 C   0  0  0  0  0  0  0  0  0  0  0  0
    6.0892    2.4888  -13.5801 F   0  0  0  0  0  0  0  0  0  0  0  0
    7.5897    4.2132  -13.5976 C   0  0  0  0  0  0  0  0  0  0  0  0
  1  2  1  0  0  0  0
  2  3  1  0  0  0  0
  2  4  1  0  0  0  0
  2  6  1  0  0  0  0
  3  5  1  0  0  0  0
  3 10  1  0  0  0  0
  3 12  1  0  0  0  0
  4  7  1  0  0  0  0
  4  8  2  0  0  0  0
  7  9  2  0  0  0  0
  7 11  1  0  0  0  0
  8 13  1  0  0  0  0
  9 14  1  0  0  0  0
 10 11  1  0  0  0  0
 13 14  2  0  0  0  0
 14 15  1  0  0  0  0
 15 16  1  0  0  0  0
 16 17  1  0  0  0  0
 16 18  2  0  0  0  0
 17 20  1  0  0  0  0
 17 21  2  0  0  0  0
 18 19  1  0  0  0  0
 19 22  1  0  0  0  0
 19 25  2  0  0  0  0
 21 23  1  0  0  0  0
 21 25  1  0  0  0  0
 22 31  1  0  0  0  0
 22 33  1  0  0  0  0
 22 37  1  0  0  0  0
 23 24  1  0  0  0  0
 23 30  2  0  0  0  0
 24 26  2  0  0  0  0
 24 27  1  0  0  0  0
 26 28  1  0  0  0  0
 27 32  1  0  0  0  0
 28 29  2  0  0  0  0
 29 30  1  0  0  0  0
 32 34  2  0  0  0  0
 32 39  1  0  0  0  0
 34 35  1  0  0  0  0
 35 36  1  0  0  0  0
 35 38  2  0  0  0  0
 38 40  1  0  0  0  0
 38 41  1  0  0  0  0
 39 41  2  0  0  0  0
M  END
$$$$

 OpenBabel10082411353D

 41 48  0  0  0  0  0  0  0  0999 V2000
   11.6836    6.0105   -4.8831 C   0  0  0  0  0  0  0  0  0  0  0  0
   11.1291    7.0732   -5.4395 C   0  0  0  0  0  0  0  0  0  0  0  0
   10.6954    7.0156   -6.8073 C   0  0  0  0  0  0  0  0  0  0  0  0
   10.2502    8.1187   -7.5536 C   0  0  2  0  0  0  0  0  0  0  0  0
   11.1205    8.4712   -4.9629 C   0  0  0  0  0  0  0  0  0  0  0  0
   10.8655    8.3511   -8.7960 C   0  0  0  0  0  0  0  0  0  0  0  0
   10.2922    7.8843   -9.9985 C   0  0  0  0  0  0  0  0  0  0  0  0
   10.4654    9.6993   -5.6120 C   0  0  0  0  0  0  0  0  0  0  0  0
   10.3510    9.5971   -7.0014 C   0  0  0  0  0  0  0  0  0  0  0  0
   12.2462    6.3351   -3.5020 C   0  0  0  0  0  0  0  0  0  0  0  0
   11.0471    7.5309  -11.1063 C   0  0  0  0  0  0  0  0  0  0  0  0
   11.7288    8.6923   -3.6518 C   0  0  0  0  0  0  0  0  0  0  0  0
   12.3991    7.7501  -11.1145 C   0  0  0  0  0  0  0  0  0  0  0  0
   12.3738    7.7580   -2.9599 C   0  0  0  0  0  0  0  0  0  0  0  0
   13.1285    8.5075  -10.1661 O   0  0  0  0  0  0  0  0  0  0  0  0
    9.0407    7.3775  -10.0973 N   0  0  0  0  0  0  0  0  0  0  0  0
    8.9787    6.9473  -11.4664 N   0  0  0  0  0  0  0  0  0  0  0  0
   13.1012    7.4459  -12.3707 C   0  0  0  0  0  0  0  0  0  0  0  0
   12.2395    6.9724  -13.2444 C   0  0  0  0  0  0  0  0  0  0  0  0
   10.2768    7.0170  -11.9799 C   0  0  0  0  0  0  0  0  0  0  0  0
   12.9237    6.5822  -14.5759 O   0  0  0  0  0  0  0  0  0  0  0  0
   10.8906    6.6526  -13.2252 C   0  0  0  0  0  0  0  0  0  0  0  0
   12.2396    6.1290  -15.6916 C   0  0  0  0  0  0  0  0  0  0  0  0
    7.7368    6.4514  -12.0707 C   0  0  0  0  0  0  0  0  0  0  0  0
    7.1353    7.2872  -12.8105 C   0  0  0  0  0  0  0  0  0  0  0  0
    7.6622    5.0135  -12.1225 C   0  0  0  0  0  0  0  0  0  0  0  0
   12.5092    4.6950  -15.8147 C   0  0  0  0  0  0  0  0  0  0  0  0
    5.9403    6.5840  -13.2897 C   0  0  0  0  0  0  0  0  0  0  0  0
   11.2738    3.8422  -15.5220 N   0  0  0  0  0  0  0  0  0  0  0  0
    8.7139    4.1736  -11.4601 C   0  0  0  0  0  0  0  0  0  0  0  0
    5.7546    5.3014  -13.2955 C   0  0  0  0  0  0  0  0  0  0  0  0
   10.5665    3.9988  -14.5162 C   0  0  0  0  0  0  0  0  0  0  0  0
    6.6518    4.4534  -12.6459 C   0  0  0  0  0  0  0  0  0  0  0  0
   11.1930    2.6728  -16.3047 C   0  0  0  0  0  0  0  0  0  0  0  0
    9.3666    3.2067  -14.4637 C   0  0  0  0  0  0  0  0  0  0  0  0
   10.1774    1.9143  -16.2256 C   0  0  0  0  0  0  0  0  0  0  0  0
    9.2103    2.1178  -15.1869 C   0  0  0  0  0  0  0  0  0  0  0  0
    8.0342    1.3838  -15.0380 C   0  0  0  0  0  0  0  0  0  0  0  0
    8.2064    3.1957  -13.3499 N   0  0  0  0  0  0  0  0  0  0  0  0
    6.9796    3.1636  -13.0011 C   0  0  0  0  0  0  0  0  0  0  0  0
    9.1220    2.9850  -12.1208 C   0  0  0  0  0  0  0  0  0  0  0  0
  1  2  1  0  0  0  0
  1 10  2  0  0  0  0
  2  3  1  0  0  0  0
  2  5  2  0  0  0  0
  3  4  1  0  0  0  0
  4  6  1  6  0  0  0
  4  9  1  0  0  0  0
  5  8  1  0  0  0  0
  5 12  1  0  0  0  0
  6  7  1  0  0  0  0
  7 11  1  0  0  0  0
  7 16  2  0  0  0  0
  8  9  1  0  0  0  0
 10 14  1  0  0  0  0
 11 13  2  0  0  0  0
 11 20  1  0  0  0  0
 12 14  2  0  0  0  0
 13 15  1  0  0  0  0
 13 18  1  0  0  0  0
 16 17  1  0  0  0  0
 17 20  1  0  0  0  0
 17 24  1  0  0  0  0
 18 19  2  0  0  0  0
 19 21  1  0  0  0  0
 19 22  1  0  0  0  0
 20 22  2  0  0  0  0
 21 23  1  0  0  0  0
 23 27  1  0  0  0  0
 24 25  2  0  0  0  0
 24 26  1  0  0  0  0
 25 28  1  0  0  0  0
 26 30  1  0  0  0  0
 26 33  2  0  0  0  0
 27 29  1  0  0  0  0
 28 31  2  0  0  0  0
 29 32  1  0  0  0  0
 29 34  1  0  0  0  0
 30 41  1  0  0  0  0
 31 33  1  0  0  0  0
 32 35  2  0  0  0  0
 33 40  1  0  0  0  0
 34 36  2  0  0  0  0
 35 37  1  0  0  0  0
 35 39  1  0  0  0  0
 36 37  1  0  0  0  0
 37 38  2  0  0  0  0
 39 40  1  0  0  0  0
 39 41  1  0  0  0  0
M  END
$$$$

 OpenBabel10082411353D

 41 47  0  0  0  0  0  0  0  0999 V2000
   11.6836    6.0105   -4.8831 F   0  0  0  0  0  0  0  0  0  0  0  0
   11.2562    7.2206   -5.0294 C   0  0  0  0  0  0  0  0  0  0  0  0
   12.0125    8.2418   -4.4408 C   0  0  0  0  0  0  0  0  0  0  0  0
   11.1918    7.2706   -6.5237 C   0  0  0  0  0  0  0  0  0  0  0  0
   11.6999    8.4488   -3.1704 F   0  0  0  0  0  0  0  0  0  0  0  0
    9.8648    7.0908   -4.5314 F   0  0  0  0  0  0  0  0  0  0  0  0
   11.6831    8.5291   -6.9682 C   0  0  0  0  0  0  0  0  0  0  0  0
   10.4785    6.5189   -7.4033 C   0  0  0  0  0  0  0  0  0  0  0  0
   11.6979    8.6661   -8.4760 C   0  0  0  0  0  0  0  0  0  0  0  0
   11.6248    9.5853   -5.0030 C   0  0  0  0  0  0  0  0  0  0  0  0
   11.8604    9.7907   -6.2903 O   0  0  0  0  0  0  0  0  0  0  0  0
   13.3557    8.1748   -4.5947 F   0  0  0  0  0  0  0  0  0  0  0  0
   10.5427    6.6061   -8.7190 C   0  0  0  0  0  0  0  0  0  0  0  0
   11.1158    7.7103   -9.2540 C   0  0  0  0  0  0  0  0  0  0  0  0
   11.3757    7.6656  -10.5293 N   0  0  0  0  0  0  0  0  0  0  0  0
   10.7153    7.7096  -11.5405 C   0  0  0  0  0  0  0  0  0  0  0  0
   11.2483    7.4711  -12.8542 C   0  0  0  0  0  0  0  0  0  0  0  0
    9.3980    7.7820  -11.5398 C   0  0  0  0  0  0  0  0  0  0  0  0
    8.6055    7.5889  -12.6525 C   0  0  0  0  0  0  0  0  0  0  0  0
   12.7508    7.3705  -13.0162 O   0  0  0  0  0  0  0  0  0  0  0  0
   10.5299    7.1831  -13.9856 C   0  0  0  0  0  0  0  0  0  0  0  0
    7.0533    7.7371  -12.5396 C   0  0  0  0  0  0  0  0  0  0  0  0
   11.2041    6.8490  -15.2304 C   0  0  0  0  0  0  0  0  0  0  0  0
   11.6393    5.5333  -15.3864 C   0  0  0  0  0  0  0  0  0  0  0  0
    9.1955    7.2935  -13.8301 C   0  0  0  0  0  0  0  0  0  0  0  0
   12.5294    5.1116  -16.1609 C   0  0  0  0  0  0  0  0  0  0  0  0
   11.2315    4.4703  -14.3200 C   0  0  0  0  0  0  0  0  0  0  0  0
   10.2844    4.5821  -13.3000 C   0  0  0  0  0  0  0  0  0  0  0  0
   11.6270    3.1866  -14.6052 C   0  0  0  0  0  0  0  0  0  0  0  0
    9.0868    3.8289  -13.3080 C   0  0  0  0  0  0  0  0  0  0  0  0
   11.3420    2.7039  -15.8535 C   0  0  0  0  0  0  0  0  0  0  0  0
   12.3848    3.5242  -16.4737 C   0  0  0  0  0  0  0  0  0  0  0  0
    8.2189    3.9688  -12.1830 C   0  0  0  0  0  0  0  0  0  0  0  0
    8.4341    4.6700  -11.1010 C   0  0  0  0  0  0  0  0  0  0  0  0
    9.7276    5.5381   -9.3640 C   0  0  0  0  0  0  0  0  0  0  0  0
    9.6377    4.9464  -10.6789 C   0  0  0  0  0  0  0  0  0  0  0  0
   10.5112    5.2362  -11.9176 C   0  0  0  0  0  0  0  0  0  0  0  0
    8.5229    5.1118   -8.7912 N   0  0  0  0  0  0  0  0  0  0  0  0
    7.3648    4.8044  -10.0573 S   0  0  0  0  0  0  0  0  0  0  0  0
    6.6519    3.5342  -10.2049 O   0  0  0  0  0  0  0  0  0  0  0  0
    6.5594    5.9108  -10.5248 O   0  0  0  0  0  0  0  0  0  0  0  0
  1  2  1  0  0  0  0
  2  3  1  0  0  0  0
  2  4  1  0  0  0  0
  2  6  1  0  0  0  0
  3  5  1  0  0  0  0
  3 10  1  0  0  0  0
  3 12  1  0  0  0  0
  4  7  1  0  0  0  0
  4  8  2  0  0  0  0
  7  9  2  0  0  0  0
  7 11  1  0  0  0  0
  8 13  1  0  0  0  0
  9 14  1  0  0  0  0
 10 11  1  0  0  0  0
 13 14  2  0  0  0  0
 13 35  1  0  0  0  0
 14 15  1  0  0  0  0
 15 16  1  0  0  0  0
 16 17  1  0  0  0  0
 16 18  2  0  0  0  0
 17 20  1  0  0  0  0
 17 21  2  0  0  0  0
 18 19  1  0  0  0  0
 19 22  1  0  0  0  0
 19 25  2  0  0  0  0
 21 23  1  0  0  0  0
 21 25  1  0  0  0  0
 23 24  1  0  0  0  0
 24 26  2  0  0  0  0
 24 27  1  0  0  0  0
 26 32  1  0  0  0  0
 27 28  1  0  0  0  0
 27 29  2  0  0  0  0
 28 30  2  0  0  0  0
 28 37  1  0  0  0  0
 29 31  1  0  0  0  0
 30 33  1  0  0  0  0
 31 32  1  0  0  0  0
 33 34  2  0  0  0  0
 34 36  1  0  0  0  0
 34 39  1  0  0  0  0
 35 36  1  0  0  0  0
 35 38  2  0  0  0  0
 36 37  2  0  0  0  0
 38 39  1  0  0  0  0
 39 40  2  0  0  0  0
 39 41  2  0  0  0  0
M  END
$$$$

 OpenBabel10082411353D

 41 46  0  0  0  0  0  0  0  0999 V2000
   11.6836    6.0105   -4.8831 C   0  0  0  0  0  0  0  0  0  0  0  0
   11.1291    7.0732   -5.4395 C   0  0  0  0  0  0  0  0  0  0  0  0
   10.6954    7.0156   -6.8073 C   0  0  0  0  0  0  0  0  0  0  0  0
   10.2502    8.1187   -7.5536 C   0  0  2  0  0  0  0  0  0  0  0  0
   11.1205    8.4712   -4.9629 C   0  0  0  0  0  0  0  0  0  0  0  0
   10.8655    8.3511   -8.7960 C   0  0  0  0  0  0  0  0  0  0  0  0
   10.2922    7.8843   -9.9985 C   0  0  0  0  0  0  0  0  0  0  0  0
   10.4654    9.6993   -5.6120 C   0  0  0  0  0  0  0  0  0  0  0  0
   10.3510    9.5971   -7.0014 C   0  0  0  0  0  0  0  0  0  0  0  0
   12.2462    6.3351   -3.5020 C   0  0  0  0  0  0  0  0  0  0  0  0
   11.0471    7.5309  -11.1063 C   0  0  0  0  0  0  0  0  0  0  0  0
   11.7288    8.6923   -3.6518 C   0  0  0  0  0  0  0  0  0  0  0  0
   12.3991    7.7501  -11.1145 C   0  0  0  0  0  0  0  0  0  0  0  0
   12.3738    7.7580   -2.9599 C   0  0  0  0  0  0  0  0  0  0  0  0
   13.1285    8.5075  -10.1661 O   0  0  0  0  0  0  0  0  0  0  0  0
    9.0407    7.3775  -10.0973 N   0  0  0  0  0  0  0  0  0  0  0  0
    8.9787    6.9473  -11.4664 N   0  0  0  0  0  0  0  0  0  0  0  0
   13.1012    7.4459  -12.3707 C   0  0  0  0  0  0  0  0  0  0  0  0
   12.2395    6.9724  -13.2444 C   0  0  0  0  0  0  0  0  0  0  0  0
   10.2768    7.0170  -11.9799 C   0  0  0  0  0  0  0  0  0  0  0  0
   12.9237    6.5822  -14.5759 O   0  0  0  0  0  0  0  0  0  0  0  0
   10.8906    6.6526  -13.2252 C   0  0  0  0  0  0  0  0  0  0  0  0
   12.2396    6.1290  -15.6916 C   0  0  0  0  0  0  0  0  0  0  0  0
    7.8036    6.1825  -11.9342 C   0  0  0  0  0  0  0  0  0  0  0  0
   12.5015    4.7115  -15.7686 C   0  0  0  0  0  0  0  0  0  0  0  0
    7.1685    6.9992  -12.8245 C   0  0  0  0  0  0  0  0  0  0  0  0
   11.2461    3.8540  -15.4851 C   0  0  0  0  0  0  0  0  0  0  0  0
    7.6237    4.9154  -11.6529 C   0  0  0  0  0  0  0  0  0  0  0  0
    6.6378    4.1960  -12.2267 C   0  0  0  0  0  0  0  0  0  0  0  0
    6.2717    2.7675  -11.9743 C   0  0  0  0  0  0  0  0  0  0  0  0
    6.6569    1.8873  -12.9460 C   0  0  1  0  0  0  0  0  0  0  0  0
    6.2393    0.5737  -12.7991 C   0  0  0  0  0  0  0  0  0  0  0  0
    5.7332    5.0094  -13.0098 C   0  0  0  0  0  0  0  0  0  0  0  0
   11.4513    2.5769  -15.3310 O   0  0  0  0  0  0  0  0  0  0  0  0
    7.4197    8.4494  -13.1889 C   0  0  0  0  0  0  0  0  0  0  0  0
    5.9626    6.3199  -13.3932 C   0  0  0  0  0  0  0  0  0  0  0  0
    6.5638    2.4004  -14.2837 C   0  0  0  0  0  0  0  0  0  0  0  0
    7.3493    1.6600  -15.1389 C   0  0  0  0  0  0  0  0  0  0  0  0
    8.5639    2.0426  -15.5234 O   0  0  0  0  0  0  0  0  0  0  0  0
    8.8087    3.3293  -14.9015 C   0  0  0  0  0  0  0  0  0  0  0  0
    9.9267    4.1975  -15.3740 C   0  0  0  0  0  0  0  0  0  0  0  0
  1  2  1  0  0  0  0
  1 10  2  0  0  0  0
  2  3  1  0  0  0  0
  2  5  2  0  0  0  0
  3  4  1  0  0  0  0
  4  6  1  6  0  0  0
  4  9  1  0  0  0  0
  5  8  1  0  0  0  0
  5 12  1  0  0  0  0
  6  7  1  0  0  0  0
  7 11  1  0  0  0  0
  7 16  2  0  0  0  0
  8  9  1  0  0  0  0
 10 14  1  0  0  0  0
 11 13  2  0  0  0  0
 11 20  1  0  0  0  0
 12 14  2  0  0  0  0
 13 15  1  0  0  0  0
 13 18  1  0  0  0  0
 16 17  1  0  0  0  0
 17 20  1  0  0  0  0
 17 24  1  0  0  0  0
 18 19  2  0  0  0  0
 19 21  1  0  0  0  0
 19 22  1  0  0  0  0
 20 22  2  0  0  0  0
 21 23  1  0  0  0  0
 23 25  1  0  0  0  0
 24 26  2  0  0  0  0
 24 28  1  0  0  0  0
 25 27  1  0  0  0  0
 26 35  1  0  0  0  0
 26 36  1  0  0  0  0
 27 34  2  0  0  0  0
 27 41  1  0  0  0  0
 28 29  2  0  0  0  0
 29 30  1  0  0  0  0
 29 33  1  0  0  0  0
 30 31  1  0  0  0  0
 31 32  1  6  0  0  0
 31 37  1  0  0  0  0
 33 36  2  0  0  0  0
 37 38  1  0  0  0  0
 38 39  1  0  0  0  0
 39 40  1  0  0  0  0
 40 41  2  0  0  0  0
M  END
$$$$

 OpenBabel10082411353D

 41 46  0  0  0  0  0  0  0  0999 V2000
   10.9951    9.9694   -4.9946 C   0  0  0  0  0  0  0  0  0  0  0  0
   11.7938    9.3762   -4.2463 C   0  0  0  0  0  0  0  0  0  0  0  0
   10.8673    9.4548   -6.4276 C   0  0  0  0  0  0  0  0  0  0  0  0
   11.6576    7.9117   -4.2944 C   0  0  0  0  0  0  0  0  0  0  0  0
   10.5498    8.0257   -6.4521 C   0  0  0  0  0  0  0  0  0  0  0  0
   11.4715    7.2752   -5.6166 C   0  0  0  0  0  0  0  0  0  0  0  0
   10.5840    7.5390   -7.9254 C   0  0  0  0  0  0  0  0  0  0  0  0
   11.4612    8.1494   -8.8322 C   0  0  0  0  0  0  0  0  0  0  0  0
   12.6250    8.6294   -8.4338 O   0  0  0  0  0  0  0  0  0  0  0  0
   11.0835    8.4395  -10.0740 O   0  0  0  0  0  0  0  0  0  0  0  0
   11.2938    7.5612  -11.0769 C   0  0  0  0  0  0  0  0  0  0  0  0
   10.1547    7.2525  -11.9492 C   0  0  0  0  0  0  0  0  0  0  0  0
   10.4293    6.5622  -13.1348 C   0  0  0  0  0  0  0  0  0  0  0  0
   11.7295    6.4217  -13.6243 C   0  0  0  0  0  0  0  0  0  0  0  0
    8.8120    7.3918  -11.4649 C   0  0  0  0  0  0  0  0  0  0  0  0
   12.5351    7.8894  -11.6869 C   0  0  0  0  0  0  0  0  0  0  0  0
   13.5778    8.4243  -10.9673 O   0  0  0  0  0  0  0  0  0  0  0  0
    7.7211    7.1761  -12.4323 C   0  0  0  0  0  0  0  0  0  0  0  0
   12.8103    7.0723  -12.8897 C   0  0  0  0  0  0  0  0  0  0  0  0
    7.0543    5.9667  -12.3369 C   0  0  0  0  0  0  0  0  0  0  0  0
    7.2392    8.1844  -13.1320 C   0  0  0  0  0  0  0  0  0  0  0  0
    6.6882    5.3848  -13.5016 O   0  0  0  0  0  0  0  0  0  0  0  0
    6.5103    5.5543  -11.3870 O   0  0  0  0  0  0  0  0  0  0  0  0
    7.4031    4.0506  -13.7852 C   0  0  0  0  0  0  0  0  0  0  0  0
    8.6811    3.9966  -14.1333 C   0  0  0  0  0  0  0  0  0  0  0  0
   12.0732    5.6649  -14.9357 C   0  0  0  0  0  0  0  0  0  0  0  0
    6.5842    3.0104  -13.4449 C   0  0  0  0  0  0  0  0  0  0  0  0
   12.1810    6.3505  -15.9550 C   0  0  0  0  0  0  0  0  0  0  0  0
   12.4265    5.3943  -17.1098 C   0  0  0  0  0  0  0  0  0  0  0  0
   12.0808    4.3115  -14.6805 C   0  0  0  0  0  0  0  0  0  0  0  0
    5.1772    3.2038  -12.9749 C   0  0  0  0  0  0  0  0  0  0  0  0
   11.7401    3.5786  -13.4028 C   0  0  0  0  0  0  0  0  0  0  0  0
   12.6689    6.2031  -18.3172 O   0  0  0  0  0  0  0  0  0  0  0  0
    7.2335    1.7472  -13.7003 C   0  0  0  0  0  0  0  0  0  0  0  0
    6.3457    0.6491  -13.3147 C   0  0  0  0  0  0  0  0  0  0  0  0
    9.2302    2.7981  -14.2905 C   0  0  0  0  0  0  0  0  0  0  0  0
   12.0331    3.5918  -15.8467 C   0  0  0  0  0  0  0  0  0  0  0  0
   12.3095    4.1631  -17.0486 C   0  0  0  0  0  0  0  0  0  0  0  0
    8.5049    1.6778  -14.0141 C   0  0  0  0  0  0  0  0  0  0  0  0
   10.7996    2.4788  -14.1938 C   0  0  1  0  0  0  0  0  0  0  0  0
   11.3459    2.4863  -15.3601 N   0  0  0  0  0  0  0  0  0  0  0  0
  1  2  1  0  0  0  0
  1  3  1  0  0  0  0
  2  4  1  0  0  0  0
  3  5  1  0  0  0  0
  4  6  1  0  0  0  0
  5  6  1  0  0  0  0
  5  7  1  0  0  0  0
  7  8  1  0  0  0  0
  8  9  2  0  0  0  0
  8 10  1  0  0  0  0
 10 11  1  0  0  0  0
 11 12  1  0  0  0  0
 11 16  2  0  0  0  0
 12 13  2  0  0  0  0
 12 15  1  0  0  0  0
 13 14  1  0  0  0  0
 14 19  2  0  0  0  0
 14 26  1  0  0  0  0
 15 18  1  0  0  0  0
 16 17  1  0  0  0  0
 16 19  1  0  0  0  0
 18 20  1  0  0  0  0
 18 21  2  0  0  0  0
 20 22  1  0  0  0  0
 20 23  2  0  0  0  0
 22 24  1  0  0  0  0
 24 25  1  0  0  0  0
 24 27  2  0  0  0  0
 25 36  2  0  0  0  0
 26 28  2  0  0  0  0
 26 30  1  0  0  0  0
 27 31  1  0  0  0  0
 27 34  1  0  0  0  0
 28 29  1  0  0  0  0
 29 33  1  0  0  0  0
 29 38  2  0  0  0  0
 30 32  1  0  0  0  0
 30 37  2  0  0  0  0
 34 35  1  0  0  0  0
 34 39  2  0  0  0  0
 36 39  1  0  0  0  0
 36 40  1  0  0  0  0
 37 38  1  0  0  0  0
 37 41  1  0  0  0  0
 40 32  1  1  0  0  0
 40 41  1  0  0  0  0
M  END
$$$$

 OpenBabel10082411353D

 41 46  0  0  0  0  0  0  0  0999 V2000
   11.6836    6.0105   -4.8831 C   0  0  0  0  0  0  0  0  0  0  0  0
   11.1291    7.0732   -5.4395 C   0  0  0  0  0  0  0  0  0  0  0  0
   10.6954    7.0156   -6.8073 C   0  0  0  0  0  0  0  0  0  0  0  0
   10.2502    8.1187   -7.5536 C   0  0  2  0  0  0  0  0  0  0  0  0
   11.1205    8.4712   -4.9629 C   0  0  0  0  0  0  0  0  0  0  0  0
   10.8655    8.3511   -8.7960 C   0  0  0  0  0  0  0  0  0  0  0  0
   10.2922    7.8843   -9.9985 C   0  0  0  0  0  0  0  0  0  0  0  0
   10.4654    9.6993   -5.6120 C   0  0  0  0  0  0  0  0  0  0  0  0
   10.3510    9.5971   -7.0014 C   0  0  0  0  0  0  0  0  0  0  0  0
   12.2462    6.3351   -3.5020 C   0  0  0  0  0  0  0  0  0  0  0  0
   11.0471    7.5309  -11.1063 C   0  0  0  0  0  0  0  0  0  0  0  0
   11.7288    8.6923   -3.6518 C   0  0  0  0  0  0  0  0  0  0  0  0
   12.3991    7.7501  -11.1145 C   0  0  0  0  0  0  0  0  0  0  0  0
   12.3738    7.7580   -2.9599 C   0  0  0  0  0  0  0  0  0  0  0  0
   13.1285    8.5075  -10.1661 O   0  0  0  0  0  0  0  0  0  0  0  0
    9.0407    7.3775  -10.0973 N   0  0  0  0  0  0  0  0  0  0  0  0
    8.9787    6.9473  -11.4664 N   0  0  0  0  0  0  0  0  0  0  0  0
   13.1012    7.4459  -12.3707 C   0  0  0  0  0  0  0  0  0  0  0  0
   12.2395    6.9724  -13.2444 C   0  0  0  0  0  0  0  0  0  0  0  0
   10.2768    7.0170  -11.9799 C   0  0  0  0  0  0  0  0  0  0  0  0
   12.9237    6.5822  -14.5759 O   0  0  0  0  0  0  0  0  0  0  0  0
   10.8906    6.6526  -13.2252 C   0  0  0  0  0  0  0  0  0  0  0  0
   12.2396    6.1290  -15.6916 C   0  0  0  0  0  0  0  0  0  0  0  0
    7.8036    6.1825  -11.9342 C   0  0  0  0  0  0  0  0  0  0  0  0
   12.5015    4.7115  -15.7686 C   0  0  0  0  0  0  0  0  0  0  0  0
    7.1685    6.9992  -12.8245 C   0  0  0  0  0  0  0  0  0  0  0  0
   11.2461    3.8540  -15.4851 C   0  0  0  0  0  0  0  0  0  0  0  0
    7.6237    4.9154  -11.6529 C   0  0  0  0  0  0  0  0  0  0  0  0
    6.6378    4.1960  -12.2267 C   0  0  0  0  0  0  0  0  0  0  0  0
    6.2717    2.7675  -11.9743 C   0  0  0  0  0  0  0  0  0  0  0  0
    6.6569    1.8873  -12.9460 C   0  0  0  0  0  0  0  0  0  0  0  0
    7.3895    8.4597  -13.1785 C   0  0  0  0  0  0  0  0  0  0  0  0
    6.3114    0.5653  -12.7247 C   0  0  0  0  0  0  0  0  0  0  0  0
    7.7684    2.0327  -13.9055 C   0  0  0  0  0  0  0  0  0  0  0  0
    8.3733    3.3319  -14.0408 C   0  0  0  0  0  0  0  0  0  0  0  0
    6.7866   -0.4375  -13.6507 C   0  0  0  0  0  0  0  0  0  0  0  0
   11.3491    2.6020  -15.5284 O   0  0  0  0  0  0  0  0  0  0  0  0
   10.0815    4.4913  -15.3913 N   0  0  0  0  0  0  0  0  0  0  0  0
    8.2290    1.0343  -14.5878 C   0  0  0  0  0  0  0  0  0  0  0  0
    8.9786    3.9223  -14.7453 C   0  0  0  0  0  0  0  0  0  0  0  0
    7.7378   -0.2434  -14.4774 C   0  0  0  0  0  0  0  0  0  0  0  0
  1  2  1  0  0  0  0
  1 10  2  0  0  0  0
  2  3  1  0  0  0  0
  2  5  2  0  0  0  0
  3  4  1  0  0  0  0
  4  6  1  6  0  0  0
  4  9  1  0  0  0  0
  5  8  1  0  0  0  0
  5 12  1  0  0  0  0
  6  7  1  0  0  0  0
  7 11  1  0  0  0  0
  7 16  2  0  0  0  0
  8  9  1  0  0  0  0
 10 14  1  0  0  0  0
 11 13  2  0  0  0  0
 11 20  1  0  0  0  0
 12 14  2  0  0  0  0
 13 15  1  0  0  0  0
 13 18  1  0  0  0  0
 16 17  1  0  0  0  0
 17 20  1  0  0  0  0
 17 24  1  0  0  0  0
 18 19  2  0  0  0  0
 19 21  1  0  0  0  0
 19 22  1  0  0  0  0
 20 22  2  0  0  0  0
 21 23  1  0  0  0  0
 23 25  1  0  0  0  0
 24 26  2  3  0  0  0
 24 28  1  0  0  0  0
 25 27  1  0  0  0  0
 26 32  1  0  0  0  0
 27 37  2  0  0  0  0
 27 38  1  0  0  0  0
 28 29  2  0  0  0  0
 29 30  1  0  0  0  0
 30 31  1  0  0  0  0
 31 33  2  0  0  0  0
 31 34  1  0  0  0  0
 33 36  1  0  0  0  0
 34 35  1  0  0  0  0
 34 39  2  0  0  0  0
 35 40  2  0  0  0  0
 36 41  2  0  0  0  0
 38 40  1  0  0  0  0
 39 41  1  0  0  0  0
M  END
$$$$

 OpenBabel10082411353D

 41 46  0  0  0  0  0  0  0  0999 V2000
   11.6836    6.0105   -4.8831 C   0  0  0  0  0  0  0  0  0  0  0  0
   11.1291    7.0732   -5.4395 C   0  0  0  0  0  0  0  0  0  0  0  0
   10.6954    7.0156   -6.8073 C   0  0  0  0  0  0  0  0  0  0  0  0
   10.2502    8.1187   -7.5536 C   0  0  2  0  0  0  0  0  0  0  0  0
   11.1205    8.4712   -4.9629 C   0  0  0  0  0  0  0  0  0  0  0  0
   10.8655    8.3511   -8.7960 C   0  0  0  0  0  0  0  0  0  0  0  0
   10.2922    7.8843   -9.9985 C   0  0  0  0  0  0  0  0  0  0  0  0
   10.4654    9.6993   -5.6120 C   0  0  0  0  0  0  0  0  0  0  0  0
   10.3510    9.5971   -7.0014 C   0  0  0  0  0  0  0  0  0  0  0  0
   12.2462    6.3351   -3.5020 C   0  0  0  0  0  0  0  0  0  0  0  0
   11.0471    7.5309  -11.1063 C   0  0  0  0  0  0  0  0  0  0  0  0
   11.7288    8.6923   -3.6518 C   0  0  0  0  0  0  0  0  0  0  0  0
   12.3991    7.7501  -11.1145 C   0  0  0  0  0  0  0  0  0  0  0  0
   12.3738    7.7580   -2.9599 C   0  0  0  0  0  0  0  0  0  0  0  0
   13.1285    8.5075  -10.1661 O   0  0  0  0  0  0  0  0  0  0  0  0
    9.0407    7.3775  -10.0973 N   0  0  0  0  0  0  0  0  0  0  0  0
    8.9787    6.9473  -11.4664 N   0  0  0  0  0  0  0  0  0  0  0  0
   13.1012    7.4459  -12.3707 C   0  0  0  0  0  0  0  0  0  0  0  0
   12.2395    6.9724  -13.2444 C   0  0  0  0  0  0  0  0  0  0  0  0
   10.2768    7.0170  -11.9799 C   0  0  0  0  0  0  0  0  0  0  0  0
   12.9237    6.5822  -14.5759 O   0  0  0  0  0  0  0  0  0  0  0  0
   10.8906    6.6526  -13.2252 C   0  0  0  0  0  0  0  0  0  0  0  0
   12.2396    6.1290  -15.6916 C   0  0  0  0  0  0  0  0  0  0  0  0
    7.8036    6.1825  -11.9342 C   0  0  0  0  0  0  0  0  0  0  0  0
   12.5015    4.7115  -15.7686 C   0  0  0  0  0  0  0  0  0  0  0  0
    7.1685    6.9992  -12.8245 C   0  0  0  0  0  0  0  0  0  0  0  0
   11.2461    3.8540  -15.4851 C   0  0  0  0  0  0  0  0  0  0  0  0
    7.6237    4.9154  -11.6529 C   0  0  0  0  0  0  0  0  0  0  0  0
    6.6378    4.1960  -12.2267 C   0  0  0  0  0  0  0  0  0  0  0  0
    6.2717    2.7675  -11.9743 C   0  0  0  0  0  0  0  0  0  0  0  0
    6.6569    1.8873  -12.9460 C   0  0  0  0  0  0  0  0  0  0  0  0
    7.3895    8.4597  -13.1785 C   0  0  0  0  0  0  0  0  0  0  0  0
    6.3114    0.5653  -12.7247 C   0  0  0  0  0  0  0  0  0  0  0  0
    7.7684    2.0327  -13.9055 C   0  0  0  0  0  0  0  0  0  0  0  0
    6.9387   -0.3720  -13.7691 C   0  0  0  0  0  0  0  0  0  0  0  0
    8.4223    3.3339  -14.0264 C   0  0  0  0  0  0  0  0  0  0  0  0
    9.9233    3.2491  -14.0383 C   0  0  0  0  0  0  0  0  0  0  0  0
   10.7554    4.1043  -14.1438 O   0  0  0  0  0  0  0  0  0  0  0  0
    7.8881   -0.1105  -14.6109 C   0  0  0  0  0  0  0  0  0  0  0  0
    8.3571    1.1667  -14.6508 C   0  0  0  0  0  0  0  0  0  0  0  0
   10.5042    2.0830  -14.0925 O   0  0  0  0  0  0  0  0  0  0  0  0
  1  2  1  0  0  0  0
  1 10  2  0  0  0  0
  2  3  1  0  0  0  0
  2  5  2  0  0  0  0
  3  4  1  0  0  0  0
  4  6  1  6  0  0  0
  4  9  1  0  0  0  0
  5  8  1  0  0  0  0
  5 12  1  0  0  0  0
  6  7  1  0  0  0  0
  7 11  1  0  0  0  0
  7 16  2  0  0  0  0
  8  9  1  0  0  0  0
 10 14  1  0  0  0  0
 11 13  2  0  0  0  0
 11 20  1  0  0  0  0
 12 14  2  0  0  0  0
 13 15  1  0  0  0  0
 13 18  1  0  0  0  0
 16 17  1  0  0  0  0
 17 20  1  0  0  0  0
 17 24  1  0  0  0  0
 18 19  2  0  0  0  0
 19 21  1  0  0  0  0
 19 22  1  0  0  0  0
 20 22  2  0  0  0  0
 21 23  1  0  0  0  0
 23 25  1  0  0  0  0
 24 26  2  3  0  0  0
 24 28  1  0  0  0  0
 25 27  1  0  0  0  0
 26 32  1  0  0  0  0
 27 38  1  0  0  0  0
 28 29  2  0  0  0  0
 29 30  1  0  0  0  0
 30 31  1  0  0  0  0
 31 33  2  0  0  0  0
 31 34  1  0  0  0  0
 33 35  1  0  0  0  0
 34 36  1  0  0  0  0
 34 40  2  0  0  0  0
 35 39  2  0  0  0  0
 36 37  1  0  0  0  0
 37 38  1  0  0  0  0
 37 41  2  0  0  0  0
 39 40  1  0  0  0  0
M  END
$$$$

 OpenBabel10082411353D

 41 51  0  0  0  0  0  0  0  0999 V2000
    8.0806    9.0240  -12.7589 C   0  0  0  0  0  0  0  0  0  0  0  0
    8.6514    7.8645  -12.2948 C   0  0  0  0  0  0  0  0  0  0  0  0
    9.9575    7.9974  -11.8426 C   0  0  0  0  0  0  0  0  0  0  0  0
   10.7657    6.8667  -11.6050 C   0  0  1  0  0  0  0  0  0  0  0  0
   10.7682    5.9590  -12.8271 C   0  0  0  0  0  0  0  0  0  0  0  0
   12.1553    7.3846  -11.2315 C   0  0  0  0  0  0  0  0  0  0  0  0
    8.0676    6.6451  -12.2974 C   0  0  0  0  0  0  0  0  0  0  0  0
   10.1892    6.1240  -10.3860 C   0  0  0  0  0  0  0  0  0  0  0  0
   11.8375    5.4373  -13.3240 O   0  0  0  0  0  0  0  0  0  0  0  0
    8.6785    5.4761  -13.0273 C   0  0  1  0  0  0  0  0  0  0  0  0
    9.1969    5.2405  -10.4969 C   0  0  2  0  0  0  0  0  0  0  0  0
    7.2213    6.2210  -11.3074 C   0  0  2  0  0  0  0  0  0  0  0  0
   12.5590    7.6872   -9.9896 C   0  0  0  0  0  0  0  0  0  0  0  0
    9.7633    5.0333  -12.9720 C   0  0  1  0  0  0  0  0  0  0  0  0
   10.0661    4.0167  -14.0373 N   0  0  0  0  0  0  0  0  0  0  0  0
   13.6906    8.3004   -9.6233 O   0  0  0  0  0  0  0  0  0  0  0  0
    7.6357    4.5123  -12.6317 C   0  0  2  0  0  0  0  0  0  0  0  0
    6.8831    4.9171  -11.7031 C   0  0  2  0  0  0  0  0  0  0  0  0
   10.5937    6.6967   -9.1779 C   0  0  0  0  0  0  0  0  0  0  0  0
    9.5087    4.3263  -11.6925 C   0  0  2  0  0  0  0  0  0  0  0  0
   11.6359    7.4449   -8.9125 C   0  0  0  0  0  0  0  0  0  0  0  0
   11.9716    7.9159   -7.6200 C   0  0  0  0  0  0  0  0  0  0  0  0
    8.4648    3.6122  -12.2840 C   0  0  1  0  0  0  0  0  0  0  0  0
    7.9253    2.8004  -11.3926 C   0  0  0  0  0  0  0  0  0  0  0  0
    5.6047    4.5059  -11.7589 C   0  0  0  0  0  0  0  0  0  0  0  0
    7.6606    4.1297  -10.5699 C   0  0  0  0  0  0  0  0  0  0  0  0
   10.9559    7.6849   -6.6057 C   0  0  0  0  0  0  0  0  0  0  0  0
    8.0094    4.5092   -9.5664 C   0  0  0  0  0  0  0  0  0  0  0  0
    8.3033    4.0627   -8.4980 C   0  0  0  0  0  0  0  0  0  0  0  0
    6.3587    7.1012  -11.0392 O   0  0  0  0  0  0  0  0  0  0  0  0
   11.0186    3.9598  -14.9226 C   0  0  1  0  0  0  0  0  0  0  0  0
    8.1758    5.8633  -10.2511 C   0  0  1  0  0  0  0  0  0  0  0  0
    9.4315    2.8557  -13.5931 C   0  0  0  0  0  0  0  0  0  0  0  0
   11.5906    2.6986  -15.1672 C   0  0  0  0  0  0  0  0  0  0  0  0
    9.9783    6.7760   -6.8364 C   0  0  0  0  0  0  0  0  0  0  0  0
    9.7446    6.4267   -8.0721 C   0  0  2  0  0  0  0  0  0  0  0  0
   10.2617    4.4120  -16.0135 O   0  0  0  0  0  0  0  0  0  0  0  0
    8.5934    5.3848   -7.9294 C   0  0  0  0  0  0  0  0  0  0  0  0
   11.2863    8.3074   -5.2449 C   0  0  0  0  0  0  0  0  0  0  0  0
   11.7134    9.7565   -5.2413 C   0  0  0  0  0  0  0  0  0  0  0  0
   12.6380   10.0028   -4.2201 C   0  0  0  0  0  0  0  0  0  0  0  0
  1  2  1  0  0  0  0
  2  3  1  0  0  0  0
  2  7  2  0  0  0  0
  4  3  1  6  0  0  0
  4  5  1  0  0  0  0
  4  6  1  0  0  0  0
  4  8  1  0  0  0  0
  5  9  2  0  0  0  0
  6 13  1  0  0  0  0
  7 12  1  0  0  0  0
  8 19  2  0  0  0  0
 10  7  1  1  0  0  0
 10 14  1  0  0  0  0
 10 17  1  0  0  0  0
 11  8  1  6  0  0  0
 11 20  1  0  0  0  0
 11 32  1  0  0  0  0
 12 18  1  0  0  0  0
 12 30  1  1  0  0  0
 12 32  1  0  0  0  0
 13 16  2  0  0  0  0
 13 21  1  0  0  0  0
 14  5  1  1  0  0  0
 14 15  1  0  0  0  0
 14 20  1  0  0  0  0
 15 31  1  0  0  0  0
 15 33  1  0  0  0  0
 17 18  1  0  0  0  0
 17 23  1  0  0  0  0
 18 25  1  0  0  0  0
 18 26  1  0  0  0  0
 19 21  1  0  0  0  0
 19 36  1  0  0  0  0
 20 23  1  0  0  0  0
 21 22  2  0  0  0  0
 22 27  1  0  0  0  0
 23 24  1  0  0  0  0
 23 33  1  0  0  0  0
 24 26  1  0  0  0  0
 26 28  2  0  0  0  0
 27 35  2  0  0  0  0
 27 39  1  0  0  0  0
 28 29  1  0  0  0  0
 28 32  1  0  0  0  0
 29 38  1  0  0  0  0
 31 34  1  0  0  0  0
 31 37  1  0  0  0  0
 35 36  1  0  0  0  0
 36 38  1  0  0  0  0
 39 40  1  0  0  0  0
 40 41  1  0  0  0  0
M  END
$$$$

 OpenBabel10082411353D

 41 49  0  0  0  0  0  0  0  0999 V2000
   11.6836    6.0105   -4.8831 C   0  0  0  0  0  0  0  0  0  0  0  0
   11.1291    7.0732   -5.4395 C   0  0  0  0  0  0  0  0  0  0  0  0
   10.6954    7.0156   -6.8073 C   0  0  0  0  0  0  0  0  0  0  0  0
   10.2502    8.1187   -7.5536 C   0  0  2  0  0  0  0  0  0  0  0  0
   11.1205    8.4712   -4.9629 C   0  0  0  0  0  0  0  0  0  0  0  0
   10.8655    8.3511   -8.7960 C   0  0  0  0  0  0  0  0  0  0  0  0
   10.2922    7.8843   -9.9985 C   0  0  0  0  0  0  0  0  0  0  0  0
   10.4654    9.6993   -5.6120 C   0  0  0  0  0  0  0  0  0  0  0  0
   10.3510    9.5971   -7.0014 C   0  0  0  0  0  0  0  0  0  0  0  0
   12.2462    6.3351   -3.5020 C   0  0  0  0  0  0  0  0  0  0  0  0
   11.0471    7.5309  -11.1063 C   0  0  0  0  0  0  0  0  0  0  0  0
   11.7288    8.6923   -3.6518 C   0  0  0  0  0  0  0  0  0  0  0  0
   12.3991    7.7501  -11.1145 C   0  0  0  0  0  0  0  0  0  0  0  0
   12.3738    7.7580   -2.9599 C   0  0  0  0  0  0  0  0  0  0  0  0
   13.1285    8.5075  -10.1661 O   0  0  0  0  0  0  0  0  0  0  0  0
    9.0407    7.3775  -10.0973 N   0  0  0  0  0  0  0  0  0  0  0  0
    8.9787    6.9473  -11.4664 N   0  0  0  0  0  0  0  0  0  0  0  0
   13.1012    7.4459  -12.3707 C   0  0  0  0  0  0  0  0  0  0  0  0
   12.2395    6.9724  -13.2444 C   0  0  0  0  0  0  0  0  0  0  0  0
   10.2768    7.0170  -11.9799 C   0  0  0  0  0  0  0  0  0  0  0  0
   12.9237    6.5822  -14.5759 O   0  0  0  0  0  0  0  0  0  0  0  0
   10.8906    6.6526  -13.2252 C   0  0  0  0  0  0  0  0  0  0  0  0
   12.2396    6.1290  -15.6916 C   0  0  0  0  0  0  0  0  0  0  0  0
    7.7368    6.4514  -12.0707 C   0  0  0  0  0  0  0  0  0  0  0  0
    7.1353    7.2872  -12.8105 C   0  0  0  0  0  0  0  0  0  0  0  0
    7.6622    5.0135  -12.1225 C   0  0  0  0  0  0  0  0  0  0  0  0
   12.5092    4.6950  -15.8147 C   0  0  0  0  0  0  0  0  0  0  0  0
    5.9403    6.5840  -13.2897 C   0  0  0  0  0  0  0  0  0  0  0  0
   11.2738    3.8422  -15.5220 N   0  0  0  0  0  0  0  0  0  0  0  0
    8.7139    4.1736  -11.4601 C   0  0  0  0  0  0  0  0  0  0  0  0
    5.7546    5.3014  -13.2955 C   0  0  0  0  0  0  0  0  0  0  0  0
   10.5665    3.9988  -14.5162 C   0  0  0  0  0  0  0  0  0  0  0  0
    6.6518    4.4534  -12.6459 C   0  0  0  0  0  0  0  0  0  0  0  0
   11.1930    2.6728  -16.3047 C   0  0  0  0  0  0  0  0  0  0  0  0
    9.2470    3.7086  -14.6888 C   0  0  0  0  0  0  0  0  0  0  0  0
   10.0389    2.1274  -16.2175 N   0  0  0  0  0  0  0  0  0  0  0  0
    9.0069    2.5135  -15.3535 C   0  0  0  0  0  0  0  0  0  0  0  0
    7.7229    2.0262  -15.4253 N   0  0  0  0  0  0  0  0  0  0  0  0
    7.1343    2.8255  -14.3968 C   0  0  0  0  0  0  0  0  0  0  0  0
    7.9693    3.7648  -13.8159 C   0  0  0  0  0  0  0  0  0  0  0  0
    7.1729    3.3702  -13.1859 N   0  0  0  0  0  0  0  0  0  0  0  0
  1  2  1  0  0  0  0
  1 10  2  0  0  0  0
  2  3  1  0  0  0  0
  2  5  2  0  0  0  0
  3  4  1  0  0  0  0
  4  6  1  6  0  0  0
  4  9  1  0  0  0  0
  5  8  1  0  0  0  0
  5 12  1  0  0  0  0
  6  7  1  0  0  0  0
  7 11  1  0  0  0  0
  7 16  2  0  0  0  0
  8  9  1  0  0  0  0
 10 14  1  0  0  0  0
 11 13  2  0  0  0  0
 11 20  1  0  0  0  0
 12 14  2  0  0  0  0
 13 15  1  0  0  0  0
 13 18  1  0  0  0  0
 16 17  1  0  0  0  0
 17 20  1  0  0  0  0
 17 24  1  0  0  0  0
 18 19  2  0  0  0  0
 19 21  1  0  0  0  0
 19 22  1  0  0  0  0
 20 22  2  0  0  0  0
 21 23  1  0  0  0  0
 23 27  1  0  0  0  0
 24 25  2  0  0  0  0
 24 26  1  0  0  0  0
 25 28  1  0  0  0  0
 26 30  1  0  0  0  0
 26 33  2  0  0  0  0
 27 29  1  0  0  0  0
 28 31  2  0  0  0  0
 29 32  1  0  0  0  0
 29 34  1  0  0  0  0
 31 33  1  0  0  0  0
 32 35  2  0  0  0  0
 33 41  1  0  0  0  0
 34 36  2  0  0  0  0
 35 37  1  0  0  0  0
 35 40  1  0  0  0  0
 36 37  1  0  0  0  0
 37 38  2  0  0  0  0
 38 39  1  0  0  0  0
 39 40  2  0  0  0  0
 39 41  1  0  0  0  0
 40 41  1  0  0  0  0
M  END
$$$$

 OpenBabel10082411353D

 26 29  0  0  0  0  0  0  0  0999 V2000
   10.5338    9.5630   -5.0683 C   0  0  0  0  0  0  0  0  0  0  0  0
   11.6326    9.3232   -4.4343 C   0  0  0  0  0  0  0  0  0  0  0  0
   10.1175    8.4558   -5.9583 O   0  0  0  0  0  0  0  0  0  0  0  0
   11.2137    7.9307   -6.4519 C   0  0  1  0  0  0  0  0  0  0  0  0
   12.3805    8.4362   -5.4668 C   0  0  0  0  0  0  0  0  0  0  0  0
   11.1829    6.4410   -6.3835 C   0  0  0  0  0  0  0  0  0  0  0  0
   11.5307    8.4278   -7.8431 C   0  0  0  0  0  0  0  0  0  0  0  0
   10.9695    7.6928   -8.9182 C   0  0  0  0  0  0  0  0  0  0  0  0
   10.6724    8.2768  -10.0336 C   0  0  0  0  0  0  0  0  0  0  0  0
   10.0385    7.4564  -11.1366 C   0  0  0  0  0  0  0  0  0  0  0  0
   10.1397    6.1099  -11.1838 C   0  0  0  0  0  0  0  0  0  0  0  0
    9.3255    8.2273  -12.2243 C   0  0  0  0  0  0  0  0  0  0  0  0
    8.1145    8.9106  -11.7538 C   0  0  0  0  0  0  0  0  0  0  0  0
   10.4444    5.4278  -10.0118 C   0  0  0  0  0  0  0  0  0  0  0  0
   10.9789    6.1875   -8.8320 C   0  0  0  0  0  0  0  0  0  0  0  0
   11.2250    5.6168   -7.5866 C   0  0  0  0  0  0  0  0  0  0  0  0
    9.5926    5.1489  -12.1900 C   0  0  0  0  0  0  0  0  0  0  0  0
    8.3818    4.7973  -12.4219 C   0  0  0  0  0  0  0  0  0  0  0  0
   10.6536    4.7130  -13.0933 C   0  0  0  0  0  0  0  0  0  0  0  0
    8.0296    3.9055  -13.3975 C   0  0  0  0  0  0  0  0  0  0  0  0
    9.1812    3.4174  -14.2394 C   0  0  0  0  0  0  0  0  0  0  0  0
   10.2972    3.7157  -14.1238 C   0  0  0  0  0  0  0  0  0  0  0  0
    8.8001    2.5154  -15.2864 O   0  0  0  0  0  0  0  0  0  0  0  0
   11.4173    3.3004  -14.9234 O   0  0  0  0  0  0  0  0  0  0  0  0
   11.8513    4.0132  -15.9339 C   0  0  0  0  0  0  0  0  0  0  0  0
    8.7386    1.1183  -14.9023 C   0  0  0  0  0  0  0  0  0  0  0  0
  1  2  1  0  0  0  0
  1  3  1  0  0  0  0
  2  5  1  0  0  0  0
  3  4  1  0  0  0  0
  4  5  1  1  0  0  0
  4  6  1  0  0  0  0
  4  7  1  0  0  0  0
  6 16  1  0  0  0  0
  7  8  1  0  0  0  0
  8  9  2  0  0  0  0
  8 15  1  0  0  0  0
  9 10  1  0  0  0  0
 10 11  2  0  0  0  0
 10 12  1  0  0  0  0
 11 14  1  0  0  0  0
 11 17  1  0  0  0  0
 12 13  1  0  0  0  0
 14 15  2  0  0  0  0
 15 16  1  0  0  0  0
 17 18  1  0  0  0  0
 17 19  2  0  0  0  0
 18 20  2  0  0  0  0
 19 22  1  0  0  0  0
 20 21  1  0  0  0  0
 21 22  2  0  0  0  0
 21 23  1  0  0  0  0
 22 24  1  0  0  0  0
 23 26  1  0  0  0  0
 24 25  1  0  0  0  0
M  END
$$$$

 OpenBabel10082411353D

 41 46  0  0  0  0  0  0  0  0999 V2000
   11.6836    6.0105   -4.8831 F   0  0  0  0  0  0  0  0  0  0  0  0
   11.2562    7.2206   -5.0294 C   0  0  0  0  0  0  0  0  0  0  0  0
   12.0125    8.2418   -4.4408 C   0  0  0  0  0  0  0  0  0  0  0  0
   11.1918    7.2706   -6.5237 C   0  0  0  0  0  0  0  0  0  0  0  0
   11.6999    8.4488   -3.1704 F   0  0  0  0  0  0  0  0  0  0  0  0
    9.8648    7.0908   -4.5314 F   0  0  0  0  0  0  0  0  0  0  0  0
   11.6831    8.5291   -6.9682 C   0  0  0  0  0  0  0  0  0  0  0  0
   10.4785    6.5189   -7.4033 C   0  0  0  0  0  0  0  0  0  0  0  0
   11.6979    8.6661   -8.4760 C   0  0  0  0  0  0  0  0  0  0  0  0
   11.6248    9.5853   -5.0030 C   0  0  0  0  0  0  0  0  0  0  0  0
   11.8604    9.7907   -6.2903 O   0  0  0  0  0  0  0  0  0  0  0  0
   13.3557    8.1748   -4.5947 F   0  0  0  0  0  0  0  0  0  0  0  0
   10.5427    6.6061   -8.7190 C   0  0  0  0  0  0  0  0  0  0  0  0
   11.1158    7.7103   -9.2540 C   0  0  0  0  0  0  0  0  0  0  0  0
   11.3757    7.6656  -10.5293 N   0  0  0  0  0  0  0  0  0  0  0  0
   10.7153    7.7096  -11.5405 C   0  0  0  0  0  0  0  0  0  0  0  0
   11.2483    7.4711  -12.8542 C   0  0  0  0  0  0  0  0  0  0  0  0
    9.3980    7.7820  -11.5398 C   0  0  0  0  0  0  0  0  0  0  0  0
    8.6055    7.5889  -12.6525 C   0  0  0  0  0  0  0  0  0  0  0  0
   12.7508    7.3705  -13.0162 O   0  0  0  0  0  0  0  0  0  0  0  0
   10.5299    7.1831  -13.9856 C   0  0  0  0  0  0  0  0  0  0  0  0
    7.0533    7.7371  -12.5396 C   0  0  0  0  0  0  0  0  0  0  0  0
   11.2041    6.8490  -15.2304 C   0  0  0  0  0  0  0  0  0  0  0  0
   11.6393    5.5333  -15.3864 C   0  0  0  0  0  0  0  0  0  0  0  0
    9.1955    7.2935  -13.8301 C   0  0  0  0  0  0  0  0  0  0  0  0
   12.5294    5.1116  -16.1609 C   0  0  0  0  0  0  0  0  0  0  0  0
   11.2315    4.4703  -14.3200 C   0  0  0  0  0  0  0  0  0  0  0  0
   13.0194    6.0876  -17.1697 C   0  0  0  0  0  0  0  0  0  0  0  0
   12.9874    3.8316  -16.1456 C   0  0  0  0  0  0  0  0  0  0  0  0
   12.3949    2.9126  -15.4671 C   0  0  0  0  0  0  0  0  0  0  0  0
   10.2274    4.8149  -13.2643 C   0  0  0  0  0  0  0  0  0  0  0  0
    8.9564    4.3798  -13.5553 C   0  0  0  0  0  0  0  0  0  0  0  0
    8.7030    2.9995  -13.6113 C   0  0  0  0  0  0  0  0  0  0  0  0
   11.4166    3.2431  -14.5460 C   0  0  0  0  0  0  0  0  0  0  0  0
    7.3695    2.5639  -13.4881 C   0  0  2  0  0  0  0  0  0  0  0  0
   10.5729    2.1979  -13.9272 C   0  0  0  0  0  0  0  0  0  0  0  0
    9.5358    2.1981  -13.9798 C   0  0  0  0  0  0  0  0  0  0  0  0
    6.4075    3.3743  -12.8151 C   0  0  0  0  0  0  0  0  0  0  0  0
    5.3763    2.6754  -12.1448 C   0  0  0  0  0  0  0  0  0  0  0  0
    5.6143    1.2131  -12.4458 C   0  0  0  0  0  0  0  0  0  0  0  0
    6.8027    1.0086  -13.1590 C   0  0  0  0  0  0  0  0  0  0  0  0
  1  2  1  0  0  0  0
  2  3  1  0  0  0  0
  2  4  1  0  0  0  0
  2  6  1  0  0  0  0
  3  5  1  0  0  0  0
  3 10  1  0  0  0  0
  3 12  1  0  0  0  0
  4  7  1  0  0  0  0
  4  8  2  0  0  0  0
  7  9  2  0  0  0  0
  7 11  1  0  0  0  0
  8 13  1  0  0  0  0
  9 14  1  0  0  0  0
 10 11  1  0  0  0  0
 13 14  2  0  0  0  0
 14 15  1  0  0  0  0
 15 16  1  0  0  0  0
 16 17  1  0  0  0  0
 16 18  2  0  0  0  0
 17 20  1  0  0  0  0
 17 21  2  0  0  0  0
 18 19  1  0  0  0  0
 19 22  1  0  0  0  0
 19 25  2  0  0  0  0
 21 23  1  0  0  0  0
 21 25  1  0  0  0  0
 23 24  1  0  0  0  0
 24 26  2  0  0  0  0
 24 27  1  0  0  0  0
 26 28  1  0  0  0  0
 26 29  1  0  0  0  0
 27 31  1  0  0  0  0
 27 34  2  0  0  0  0
 29 30  2  0  0  0  0
 30 34  1  0  0  0  0
 31 32  2  0  0  0  0
 32 33  1  0  0  0  0
 33 37  2  0  0  0  0
 34 36  1  0  0  0  0
 35 33  1  1  0  0  0
 35 38  1  0  0  0  0
 35 41  1  0  0  0  0
 36 37  1  0  0  0  0
 38 39  2  0  0  0  0
 39 40  1  0  0  0  0
 40 41  1  0  0  0  0
M  END
$$$$

 OpenBabel10082411353D

 41 46  0  0  0  0  0  0  0  0999 V2000
   11.6836    6.0105   -4.8831 F   0  0  0  0  0  0  0  0  0  0  0  0
   11.2562    7.2206   -5.0294 C   0  0  0  0  0  0  0  0  0  0  0  0
   12.0125    8.2418   -4.4408 C   0  0  0  0  0  0  0  0  0  0  0  0
   11.1918    7.2706   -6.5237 C   0  0  2  0  0  0  0  0  0  0  0  0
   11.6999    8.4488   -3.1704 F   0  0  0  0  0  0  0  0  0  0  0  0
    9.8648    7.0908   -4.5314 F   0  0  0  0  0  0  0  0  0  0  0  0
   11.6831    8.5291   -6.9682 C   0  0  1  0  0  0  0  0  0  0  0  0
   13.3042    8.0958   -4.5769 F   0  0  0  0  0  0  0  0  0  0  0  0
   10.0051    6.7877   -7.1387 C   0  0  2  0  0  0  0  0  0  0  0  0
   12.1549    9.4036   -6.0698 C   0  0  0  0  0  0  0  0  0  0  0  0
   11.7460    9.5074   -4.8672 O   0  0  0  0  0  0  0  0  0  0  0  0
   12.5684    8.5172   -7.8652 C   0  0  0  0  0  0  0  0  0  0  0  0
   10.4250    8.9412   -7.4869 C   0  0  0  0  0  0  0  0  0  0  0  0
    9.8902    5.4070   -7.8206 C   0  0  1  0  0  0  0  0  0  0  0  0
    8.7348    4.6919   -7.6168 C   0  0  0  0  0  0  0  0  0  0  0  0
    9.5887    7.8633   -8.0188 C   0  0  1  0  0  0  0  0  0  0  0  0
   10.0149    7.4671   -9.3945 C   0  0  0  0  0  0  0  0  0  0  0  0
    8.7013    3.5197   -8.2148 C   0  0  0  0  0  0  0  0  0  0  0  0
    9.3794    3.4628   -9.4166 C   0  0  0  0  0  0  0  0  0  0  0  0
    9.7670    8.0902  -10.5147 C   0  0  0  0  0  0  0  0  0  0  0  0
   10.1630    7.7248  -11.8028 C   0  0  0  0  0  0  0  0  0  0  0  0
   10.1363    4.5235   -9.8811 C   0  0  0  0  0  0  0  0  0  0  0  0
   10.2836    5.8862   -9.1314 C   0  0  2  0  0  0  0  0  0  0  0  0
    9.2642    7.6154  -12.7688 C   0  0  0  0  0  0  0  0  0  0  0  0
    9.7352    7.0429  -13.9890 C   0  0  0  0  0  0  0  0  0  0  0  0
    8.9431    5.9978  -14.4048 C   0  0  0  0  0  0  0  0  0  0  0  0
    8.0476    5.1914  -13.6918 C   0  0  0  0  0  0  0  0  0  0  0  0
    8.1490    3.7734  -13.7660 C   0  0  0  0  0  0  0  0  0  0  0  0
    7.0453    3.1418  -12.9717 C   0  0  0  0  0  0  0  0  0  0  0  0
    6.2338    3.8839  -12.1754 C   0  0  0  0  0  0  0  0  0  0  0  0
   10.8369    7.3431  -14.6932 C   0  0  0  0  0  0  0  0  0  0  0  0
    7.2107    5.8505  -12.7998 C   0  0  0  0  0  0  0  0  0  0  0  0
    5.3001    3.0920  -11.3306 F   0  0  0  0  0  0  0  0  0  0  0  0
    7.8586    7.9143  -12.4857 C   0  0  0  0  0  0  0  0  0  0  0  0
    6.3696    5.0319  -12.1370 C   0  0  0  0  0  0  0  0  0  0  0  0
    6.9659    7.0740  -12.5678 C   0  0  0  0  0  0  0  0  0  0  0  0
   11.6802    6.2859  -15.0974 C   0  0  0  0  0  0  0  0  0  0  0  0
   11.4895    5.0617  -14.5281 C   0  0  0  0  0  0  0  0  0  0  0  0
   11.4332    4.7730  -13.3324 O   0  0  0  0  0  0  0  0  0  0  0  0
   11.9796    3.9587  -15.2451 O   0  0  0  0  0  0  0  0  0  0  0  0
   11.0435    2.7864  -15.1832 C   0  0  0  0  0  0  0  0  0  0  0  0
  1  2  1  0  0  0  0
  2  3  1  0  0  0  0
  2  6  1  0  0  0  0
  3  5  1  0  0  0  0
  3  8  1  0  0  0  0
  3 11  1  0  0  0  0
  4  2  1  1  0  0  0
  4  7  1  0  0  0  0
  4  9  1  0  0  0  0
  7 10  1  0  0  0  0
  7 12  1  6  0  0  0
  7 13  1  0  0  0  0
  9 14  1  0  0  0  0
  9 16  1  0  0  0  0
 10 11  1  0  0  0  0
 13 16  1  0  0  0  0
 14 15  1  0  0  0  0
 14 23  1  0  0  0  0
 15 18  2  0  0  0  0
 16 17  1  0  0  0  0
 17 20  2  3  0  0  0
 17 23  1  0  0  0  0
 18 19  1  0  0  0  0
 19 22  2  0  0  0  0
 20 21  1  0  0  0  0
 21 24  2  3  0  0  0
 22 23  1  0  0  0  0
 24 25  1  0  0  0  0
 24 34  1  0  0  0  0
 25 26  2  0  0  0  0
 25 31  1  0  0  0  0
 26 27  1  0  0  0  0
 27 28  2  0  0  0  0
 27 32  1  0  0  0  0
 28 29  1  0  0  0  0
 29 30  2  0  0  0  0
 30 33  1  0  0  0  0
 30 35  1  0  0  0  0
 31 37  1  0  0  0  0
 32 35  2  0  0  0  0
 32 36  1  0  0  0  0
 34 36  1  0  0  0  0
 37 38  1  0  0  0  0
 38 39  2  0  0  0  0
 38 40  1  0  0  0  0
 40 41  1  0  0  0  0
M  END
$$$$

 OpenBabel10082411353D

 41 52  0  0  0  0  0  0  0  0999 V2000
    8.0806    9.0240  -12.7589 C   0  0  0  0  0  0  0  0  0  0  0  0
    8.6514    7.8645  -12.2948 C   0  0  0  0  0  0  0  0  0  0  0  0
    9.9575    7.9974  -11.8426 C   0  0  0  0  0  0  0  0  0  0  0  0
   10.7657    6.8667  -11.6050 C   0  0  1  0  0  0  0  0  0  0  0  0
   10.7682    5.9590  -12.8271 C   0  0  0  0  0  0  0  0  0  0  0  0
   12.1553    7.3846  -11.2315 C   0  0  0  0  0  0  0  0  0  0  0  0
    8.0676    6.6451  -12.2974 C   0  0  0  0  0  0  0  0  0  0  0  0
   10.1892    6.1240  -10.3860 C   0  0  0  0  0  0  0  0  0  0  0  0
   11.8375    5.4373  -13.3240 O   0  0  0  0  0  0  0  0  0  0  0  0
    8.6785    5.4761  -13.0273 C   0  0  1  0  0  0  0  0  0  0  0  0
    9.1969    5.2405  -10.4969 C   0  0  1  0  0  0  0  0  0  0  0  0
    7.2213    6.2210  -11.3074 C   0  0  1  0  0  0  0  0  0  0  0  0
   12.5590    7.6872   -9.9896 C   0  0  0  0  0  0  0  0  0  0  0  0
    9.7633    5.0333  -12.9720 C   0  0  1  0  0  0  0  0  0  0  0  0
   10.0661    4.0167  -14.0373 N   0  0  0  0  0  0  0  0  0  0  0  0
   13.6906    8.3004   -9.6233 O   0  0  0  0  0  0  0  0  0  0  0  0
    7.6357    4.5123  -12.6317 C   0  0  2  0  0  0  0  0  0  0  0  0
    6.8831    4.9171  -11.7031 C   0  0  1  0  0  0  0  0  0  0  0  0
   10.5937    6.6967   -9.1779 C   0  0  0  0  0  0  0  0  0  0  0  0
    9.5087    4.3263  -11.6925 C   0  0  2  0  0  0  0  0  0  0  0  0
   11.6359    7.4449   -8.9125 C   0  0  0  0  0  0  0  0  0  0  0  0
   11.9716    7.9159   -7.6200 C   0  0  0  0  0  0  0  0  0  0  0  0
    8.4648    3.6122  -12.2840 C   0  0  2  0  0  0  0  0  0  0  0  0
    9.3128    4.5571   -9.1689 C   0  0  0  0  0  0  0  0  0  0  0  0
   10.9557    7.6369   -6.5929 C   0  0  1  0  0  0  0  0  0  0  0  0
    9.6490    2.8108  -13.7776 C   0  0  1  0  0  0  0  0  0  0  0  0
    9.6716    6.1981   -8.0224 C   0  0  2  0  0  0  0  0  0  0  0  0
    8.5511    2.5400  -13.1402 C   0  0  0  0  0  0  0  0  0  0  0  0
    9.7877    2.0302  -15.0383 O   0  0  0  0  0  0  0  0  0  0  0  0
   10.2949    6.3957   -6.8142 C   0  0  0  0  0  0  0  0  0  0  0  0
   11.5442    7.8028   -5.1770 C   0  0  1  0  0  0  0  0  0  0  0  0
    9.3662    4.9454   -8.1688 C   0  0  0  0  0  0  0  0  0  0  0  0
    9.9825    8.6746   -6.2053 C   0  0  0  0  0  0  0  0  0  0  0  0
   11.8670    9.1982   -4.7195 C   0  0  2  0  0  0  0  0  0  0  0  0
   12.7706    9.9232   -5.2633 C   0  0  0  0  0  0  0  0  0  0  0  0
   11.8424    9.4142   -3.2287 C   0  0  0  0  0  0  0  0  0  0  0  0
   10.4235    9.7873   -5.2643 C   0  0  0  0  0  0  0  0  0  0  0  0
    7.9400    5.6479  -10.4916 C   0  0  1  0  0  0  0  0  0  0  0  0
   11.0066    6.9478   -4.1947 C   0  0  0  0  0  0  0  0  0  0  0  0
   11.9148    8.0058   -2.6121 C   0  0  0  0  0  0  0  0  0  0  0  0
   11.2460    7.1557   -2.9805 C   0  0  0  0  0  0  0  0  0  0  0  0
  1  2  1  0  0  0  0
  2  3  1  0  0  0  0
  2  7  2  0  0  0  0
  4  3  1  6  0  0  0
  4  5  1  0  0  0  0
  4  6  1  0  0  0  0
  4  8  1  0  0  0  0
  5  9  2  0  0  0  0
  6 13  1  0  0  0  0
  8 11  1  0  0  0  0
  8 19  2  0  0  0  0
 10  7  1  1  0  0  0
 10 14  1  0  0  0  0
 10 17  1  0  0  0  0
 11 20  1  0  0  0  0
 11 24  1  1  0  0  0
 11 38  1  0  0  0  0
 12  7  1  6  0  0  0
 12 18  1  0  0  0  0
 12 38  1  0  0  0  0
 13 16  2  0  0  0  0
 13 21  1  0  0  0  0
 14  5  1  1  0  0  0
 14 15  1  0  0  0  0
 14 20  1  0  0  0  0
 15 26  1  0  0  0  0
 17 18  1  0  0  0  0
 17 23  1  0  0  0  0
 18 38  1  0  0  0  0
 19 21  1  0  0  0  0
 19 27  1  0  0  0  0
 20 23  1  0  0  0  0
 21 22  2  0  0  0  0
 22 25  1  0  0  0  0
 23 28  1  0  0  0  0
 24 32  2  0  0  0  0
 25 30  1  0  0  0  0
 25 31  1  0  0  0  0
 25 33  1  0  0  0  0
 26 28  1  0  0  0  0
 26 29  1  0  0  0  0
 27 30  1  0  0  0  0
 27 32  1  0  0  0  0
 31 34  1  0  0  0  0
 31 39  1  0  0  0  0
 33 37  1  0  0  0  0
 34 35  1  0  0  0  0
 34 36  1  0  0  0  0
 34 37  1  0  0  0  0
 36 40  1  0  0  0  0
 39 41  2  0  0  0  0
 40 41  1  0  0  0  0
M  END
$$$$

 OpenBabel10082411353D

 41 45  0  0  0  0  0  0  0  0999 V2000
   10.9951    9.9694   -4.9946 C   0  0  0  0  0  0  0  0  0  0  0  0
   11.7938    9.3762   -4.2463 C   0  0  0  0  0  0  0  0  0  0  0  0
   10.8673    9.4548   -6.4276 C   0  0  0  0  0  0  0  0  0  0  0  0
   11.6576    7.9117   -4.2944 C   0  0  0  0  0  0  0  0  0  0  0  0
   10.5498    8.0257   -6.4521 C   0  0  0  0  0  0  0  0  0  0  0  0
   11.4715    7.2752   -5.6166 C   0  0  0  0  0  0  0  0  0  0  0  0
   10.5840    7.5390   -7.9254 C   0  0  0  0  0  0  0  0  0  0  0  0
   11.4612    8.1494   -8.8322 C   0  0  0  0  0  0  0  0  0  0  0  0
   12.6250    8.6294   -8.4338 O   0  0  0  0  0  0  0  0  0  0  0  0
   11.0835    8.4395  -10.0740 O   0  0  0  0  0  0  0  0  0  0  0  0
   11.2938    7.5612  -11.0769 C   0  0  0  0  0  0  0  0  0  0  0  0
   10.1547    7.2525  -11.9492 C   0  0  0  0  0  0  0  0  0  0  0  0
   10.4293    6.5622  -13.1348 C   0  0  0  0  0  0  0  0  0  0  0  0
   11.7295    6.4217  -13.6243 C   0  0  0  0  0  0  0  0  0  0  0  0
    8.8120    7.3918  -11.4649 C   0  0  0  0  0  0  0  0  0  0  0  0
   12.5351    7.8894  -11.6869 C   0  0  0  0  0  0  0  0  0  0  0  0
   13.5778    8.4243  -10.9673 O   0  0  0  0  0  0  0  0  0  0  0  0
    7.7211    7.1761  -12.4323 C   0  0  0  0  0  0  0  0  0  0  0  0
   12.8103    7.0723  -12.8897 C   0  0  0  0  0  0  0  0  0  0  0  0
    7.0543    5.9667  -12.3369 C   0  0  0  0  0  0  0  0  0  0  0  0
    7.2392    8.1844  -13.1320 C   0  0  0  0  0  0  0  0  0  0  0  0
    6.6882    5.3848  -13.5016 O   0  0  0  0  0  0  0  0  0  0  0  0
    6.5103    5.5543  -11.3870 O   0  0  0  0  0  0  0  0  0  0  0  0
    7.4031    4.0506  -13.7852 C   0  0  0  0  0  0  0  0  0  0  0  0
    8.6811    3.9966  -14.1333 C   0  0  0  0  0  0  0  0  0  0  0  0
   12.0732    5.6649  -14.9357 C   0  0  0  0  0  0  0  0  0  0  0  0
    6.5842    3.0104  -13.4449 C   0  0  0  0  0  0  0  0  0  0  0  0
   12.1810    6.3505  -15.9550 C   0  0  0  0  0  0  0  0  0  0  0  0
   12.4265    5.3943  -17.1098 C   0  0  0  0  0  0  0  0  0  0  0  0
   12.0808    4.3115  -14.6805 C   0  0  0  0  0  0  0  0  0  0  0  0
    5.1772    3.2038  -12.9749 C   0  0  0  0  0  0  0  0  0  0  0  0
   11.7401    3.5786  -13.4028 C   0  0  0  0  0  0  0  0  0  0  0  0
   12.6689    6.2031  -18.3172 O   0  0  0  0  0  0  0  0  0  0  0  0
    7.2335    1.7472  -13.7003 C   0  0  0  0  0  0  0  0  0  0  0  0
    6.3457    0.6491  -13.3147 C   0  0  0  0  0  0  0  0  0  0  0  0
    9.2302    2.7981  -14.2905 C   0  0  0  0  0  0  0  0  0  0  0  0
    8.5023    1.6740  -14.0227 C   0  0  0  0  0  0  0  0  0  0  0  0
   12.2192    4.2346  -17.1265 C   0  0  0  0  0  0  0  0  0  0  0  0
   12.3387    3.5030  -18.2833 O   0  0  0  0  0  0  0  0  0  0  0  0
   10.7574    2.5246  -14.0214 C   0  0  0  0  0  0  0  0  0  0  0  0
   12.0598    3.5087  -15.8494 C   0  0  0  0  0  0  0  0  0  0  0  0
  1  2  1  0  0  0  0
  1  3  1  0  0  0  0
  2  4  1  0  0  0  0
  3  5  1  0  0  0  0
  4  6  1  0  0  0  0
  5  6  1  0  0  0  0
  5  7  1  0  0  0  0
  7  8  1  0  0  0  0
  8  9  2  0  0  0  0
  8 10  1  0  0  0  0
 10 11  1  0  0  0  0
 11 12  1  0  0  0  0
 11 16  2  0  0  0  0
 12 13  2  0  0  0  0
 12 15  1  0  0  0  0
 13 14  1  0  0  0  0
 14 19  2  0  0  0  0
 14 26  1  0  0  0  0
 15 18  1  0  0  0  0
 16 17  1  0  0  0  0
 16 19  1  0  0  0  0
 18 20  1  0  0  0  0
 18 21  2  0  0  0  0
 20 22  1  0  0  0  0
 20 23  2  0  0  0  0
 22 24  1  0  0  0  0
 24 25  1  0  0  0  0
 24 27  2  0  0  0  0
 25 36  2  0  0  0  0
 26 28  2  0  0  0  0
 26 30  1  0  0  0  0
 27 31  1  0  0  0  0
 27 34  1  0  0  0  0
 28 29  1  0  0  0  0
 29 33  1  0  0  0  0
 29 38  2  0  0  0  0
 30 32  1  0  0  0  0
 30 41  2  0  0  0  0
 32 40  1  0  0  0  0
 34 35  1  0  0  0  0
 34 37  2  0  0  0  0
 36 37  1  0  0  0  0
 36 40  1  0  0  0  0
 38 39  1  0  0  0  0
 38 41  1  0  0  0  0
M  END
$$$$

 OpenBabel10082411353D

 41 49  0  0  0  0  0  0  0  0999 V2000
   12.7863    7.8241  -14.2109 C   0  0  0  0  0  0  0  0  0  0  0  0
   12.4233    7.7158  -13.0289 C   0  0  0  0  0  0  0  0  0  0  0  0
   11.3194    6.8571  -12.8028 C   0  0  0  0  0  0  0  0  0  0  0  0
   12.3150    7.2021  -15.3582 C   0  0  0  0  0  0  0  0  0  0  0  0
   11.2733    6.2739  -15.1502 C   0  0  0  0  0  0  0  0  0  0  0  0
   10.8099    6.0126  -13.8600 C   0  0  0  0  0  0  0  0  0  0  0  0
    9.6782    5.1428  -13.6488 C   0  0  0  0  0  0  0  0  0  0  0  0
    8.5753    5.3880  -12.9589 N   0  0  0  0  0  0  0  0  0  0  0  0
    8.3226    6.7011  -12.3862 C   0  0  0  0  0  0  0  0  0  0  0  0
    9.8502    3.8578  -14.0728 C   0  0  0  0  0  0  0  0  0  0  0  0
    7.3864    7.4720  -13.0530 C   0  0  0  0  0  0  0  0  0  0  0  0
    6.2412    7.8486  -12.2599 C   0  0  0  0  0  0  0  0  0  0  0  0
    7.6425    4.4186  -12.7943 C   0  0  0  0  0  0  0  0  0  0  0  0
   11.0297    3.2482  -14.8053 C   0  0  0  0  0  0  0  0  0  0  0  0
    8.6802    2.8955  -13.7960 C   0  0  0  0  0  0  0  0  0  0  0  0
    8.8565    1.5917  -14.3582 O   0  0  0  0  0  0  0  0  0  0  0  0
    7.6903    3.2226  -13.1994 N   0  0  0  0  0  0  0  0  0  0  0  0
    6.5724    2.3444  -12.8378 C   0  0  0  0  0  0  0  0  0  0  0  0
    9.0225    7.0353  -11.3259 C   0  0  0  0  0  0  0  0  0  0  0  0
    6.2405    4.8489  -12.4515 C   0  0  0  0  0  0  0  0  0  0  0  0
   10.5875    7.0617  -11.5321 C   0  0  0  0  0  0  0  0  0  0  0  0
   11.0960    7.6093  -10.4100 C   0  0  0  0  0  0  0  0  0  0  0  0
    8.4039    7.3336  -10.1102 C   0  0  0  0  0  0  0  0  0  0  0  0
    5.5911    3.3517  -12.3508 C   0  0  0  0  0  0  0  0  0  0  0  0
   12.6259    7.6530  -10.3901 C   0  0  0  0  0  0  0  0  0  0  0  0
   10.4284    7.7784   -9.2128 C   0  0  1  0  0  0  0  0  0  0  0  0
    9.2236    7.5051   -9.0617 C   0  0  2  0  0  0  0  0  0  0  0  0
    8.7145    7.3063   -7.7135 N   0  0  0  0  0  0  0  0  0  0  0  0
   11.0621    7.5242   -7.8430 C   0  0  1  0  0  0  0  0  0  0  0  0
   12.0213    8.4787   -7.3268 C   0  0  0  0  0  0  0  0  0  0  0  0
   13.1241    8.0749  -11.7293 C   0  0  0  0  0  0  0  0  0  0  0  0
    9.9178    7.6308   -6.9884 C   0  0  2  0  0  0  0  0  0  0  0  0
   12.0768    8.3481   -5.8539 C   0  0  0  0  0  0  0  0  0  0  0  0
   10.0351    6.6960   -5.8250 C   0  0  0  0  0  0  0  0  0  0  0  0
   11.2104    7.4471   -5.1985 C   0  0  0  0  0  0  0  0  0  0  0  0
   12.9004    9.3019   -5.1631 C   0  0  0  0  0  0  0  0  0  0  0  0
   11.4590    7.3245   -3.8843 C   0  0  0  0  0  0  0  0  0  0  0  0
   10.7083    6.2477   -3.0781 F   0  0  0  0  0  0  0  0  0  0  0  0
   12.2694    8.0475   -3.0001 C   0  0  0  0  0  0  0  0  0  0  0  0
   12.4021    7.9020   -1.5860 C   0  0  0  0  0  0  0  0  0  0  0  0
   12.9785    9.0868   -3.7235 C   0  0  0  0  0  0  0  0  0  0  0  0
  1  2  2  0  0  0  0
  1  4  1  0  0  0  0
  2  3  1  0  0  0  0
  2 31  1  0  0  0  0
  3  6  2  0  0  0  0
  3 21  1  0  0  0  0
  4  5  2  0  0  0  0
  5  6  1  0  0  0  0
  6  7  1  0  0  0  0
  7  8  1  0  0  0  0
  7 10  2  0  0  0  0
  8  9  1  0  0  0  0
  8 13  1  0  0  0  0
  9 11  1  0  0  0  0
  9 19  2  0  0  0  0
 10 14  1  0  0  0  0
 10 15  1  0  0  0  0
 11 12  1  0  0  0  0
 13 17  1  0  0  0  0
 13 20  2  0  0  0  0
 15 16  2  0  0  0  0
 15 17  1  0  0  0  0
 17 18  1  0  0  0  0
 18 24  1  0  0  0  0
 19 21  1  0  0  0  0
 19 23  1  0  0  0  0
 20 24  1  0  0  0  0
 21 22  2  0  0  0  0
 22 25  1  0  0  0  0
 25 31  2  0  0  0  0
 26 22  1  6  0  0  0
 26 27  1  0  0  0  0
 26 29  1  0  0  0  0
 27 23  1  6  0  0  0
 27 28  1  0  0  0  0
 28 32  1  0  0  0  0
 29 30  1  1  0  0  0
 29 32  1  0  0  0  0
 30 33  1  0  0  0  0
 32 34  1  1  0  0  0
 33 35  1  0  0  0  0
 33 36  2  0  0  0  0
 34 35  1  0  0  0  0
 35 37  2  0  0  0  0
 36 41  1  0  0  0  0
 37 38  1  0  0  0  0
 37 39  1  0  0  0  0
 39 40  1  0  0  0  0
 39 41  2  0  0  0  0
M  END
$$$$

 OpenBabel10082411353D

 41 51  0  0  0  0  0  0  0  0999 V2000
    8.0806    9.0240  -12.7589 C   0  0  0  0  0  0  0  0  0  0  0  0
    8.6514    7.8645  -12.2948 C   0  0  0  0  0  0  0  0  0  0  0  0
    9.9575    7.9974  -11.8426 C   0  0  0  0  0  0  0  0  0  0  0  0
   10.7657    6.8667  -11.6050 C   0  0  1  0  0  0  0  0  0  0  0  0
   10.7682    5.9590  -12.8271 C   0  0  0  0  0  0  0  0  0  0  0  0
   12.1553    7.3846  -11.2315 C   0  0  0  0  0  0  0  0  0  0  0  0
    8.0676    6.6451  -12.2974 C   0  0  0  0  0  0  0  0  0  0  0  0
   10.1892    6.1240  -10.3860 C   0  0  0  0  0  0  0  0  0  0  0  0
   11.8375    5.4373  -13.3240 O   0  0  0  0  0  0  0  0  0  0  0  0
    8.6785    5.4761  -13.0273 C   0  0  1  0  0  0  0  0  0  0  0  0
    9.1969    5.2405  -10.4969 C   0  0  2  0  0  0  0  0  0  0  0  0
    7.2213    6.2210  -11.3074 C   0  0  2  0  0  0  0  0  0  0  0  0
   12.5590    7.6872   -9.9896 C   0  0  0  0  0  0  0  0  0  0  0  0
    9.7633    5.0333  -12.9720 C   0  0  1  0  0  0  0  0  0  0  0  0
   10.0661    4.0167  -14.0373 N   0  0  0  0  0  0  0  0  0  0  0  0
   13.6906    8.3004   -9.6233 O   0  0  0  0  0  0  0  0  0  0  0  0
    7.6357    4.5123  -12.6317 C   0  0  2  0  0  0  0  0  0  0  0  0
    6.8831    4.9171  -11.7031 C   0  0  2  0  0  0  0  0  0  0  0  0
   10.5937    6.6967   -9.1779 C   0  0  0  0  0  0  0  0  0  0  0  0
    9.5087    4.3263  -11.6925 C   0  0  2  0  0  0  0  0  0  0  0  0
   11.6359    7.4449   -8.9125 C   0  0  0  0  0  0  0  0  0  0  0  0
   11.9716    7.9159   -7.6200 C   0  0  0  0  0  0  0  0  0  0  0  0
    8.4648    3.6122  -12.2840 C   0  0  1  0  0  0  0  0  0  0  0  0
    7.9253    2.8004  -11.3926 C   0  0  0  0  0  0  0  0  0  0  0  0
    5.6047    4.5059  -11.7589 C   0  0  0  0  0  0  0  0  0  0  0  0
    7.6606    4.1297  -10.5699 C   0  0  0  0  0  0  0  0  0  0  0  0
   10.9559    7.6849   -6.6057 C   0  0  0  0  0  0  0  0  0  0  0  0
    8.0094    4.5092   -9.5664 C   0  0  0  0  0  0  0  0  0  0  0  0
    8.3033    4.0627   -8.4980 C   0  0  0  0  0  0  0  0  0  0  0  0
    6.3587    7.1012  -11.0392 O   0  0  0  0  0  0  0  0  0  0  0  0
   11.0186    3.9598  -14.9226 C   0  0  0  0  0  0  0  0  0  0  0  0
    8.1758    5.8633  -10.2511 C   0  0  1  0  0  0  0  0  0  0  0  0
   11.4648    2.7104  -15.2650 O   0  0  0  0  0  0  0  0  0  0  0  0
    9.9512    6.8220   -6.8436 C   0  0  0  0  0  0  0  0  0  0  0  0
    9.6899    6.3705   -8.1082 C   0  0  2  0  0  0  0  0  0  0  0  0
   11.2597    8.2901   -5.2396 C   0  0  0  0  0  0  0  0  0  0  0  0
   10.9483    4.9354  -15.8312 C   0  0  0  0  0  0  0  0  0  0  0  0
    9.2428    4.9682   -7.8294 C   0  0  0  0  0  0  0  0  0  0  0  0
   11.6794    9.7539   -5.2342 C   0  0  0  0  0  0  0  0  0  0  0  0
    9.5799    2.7796  -13.2673 C   0  0  0  0  0  0  0  0  0  0  0  0
   12.6304    9.9997   -4.2114 C   0  0  0  0  0  0  0  0  0  0  0  0
  1  2  1  0  0  0  0
  2  3  1  0  0  0  0
  2  7  2  0  0  0  0
  4  3  1  6  0  0  0
  4  5  1  0  0  0  0
  4  6  1  0  0  0  0
  4  8  1  0  0  0  0
  5  9  2  0  0  0  0
  6 13  1  0  0  0  0
  7 12  1  0  0  0  0
  8 19  2  0  0  0  0
 10  7  1  1  0  0  0
 10 14  1  0  0  0  0
 10 17  1  0  0  0  0
 11  8  1  6  0  0  0
 11 20  1  0  0  0  0
 11 32  1  0  0  0  0
 12 18  1  0  0  0  0
 12 30  1  1  0  0  0
 12 32  1  0  0  0  0
 13 16  2  0  0  0  0
 13 21  1  0  0  0  0
 14  5  1  1  0  0  0
 14 15  1  0  0  0  0
 14 20  1  0  0  0  0
 15 31  1  0  0  0  0
 15 40  1  0  0  0  0
 17 18  1  0  0  0  0
 17 23  1  0  0  0  0
 18 25  1  0  0  0  0
 18 26  1  0  0  0  0
 19 21  1  0  0  0  0
 19 35  1  0  0  0  0
 20 23  1  0  0  0  0
 21 22  2  0  0  0  0
 22 27  1  0  0  0  0
 23 24  1  0  0  0  0
 23 40  1  0  0  0  0
 24 26  1  0  0  0  0
 26 28  2  0  0  0  0
 27 34  2  0  0  0  0
 27 36  1  0  0  0  0
 28 29  1  0  0  0  0
 28 32  1  0  0  0  0
 29 38  1  0  0  0  0
 31 33  2  0  0  0  0
 31 37  1  0  0  0  0
 34 35  1  0  0  0  0
 35 38  1  0  0  0  0
 36 39  1  0  0  0  0
 39 41  1  0  0  0  0
M  END
$$$$

 OpenBabel10082411353D

 41 46  0  0  0  0  0  0  0  0999 V2000
   10.9951    9.9694   -4.9946 C   0  0  0  0  0  0  0  0  0  0  0  0
   11.7938    9.3762   -4.2463 C   0  0  0  0  0  0  0  0  0  0  0  0
   10.8673    9.4548   -6.4276 C   0  0  0  0  0  0  0  0  0  0  0  0
   11.6576    7.9117   -4.2944 C   0  0  0  0  0  0  0  0  0  0  0  0
   10.5498    8.0257   -6.4521 C   0  0  0  0  0  0  0  0  0  0  0  0
   11.4715    7.2752   -5.6166 C   0  0  0  0  0  0  0  0  0  0  0  0
   10.5840    7.5390   -7.9254 C   0  0  0  0  0  0  0  0  0  0  0  0
   11.4612    8.1494   -8.8322 C   0  0  0  0  0  0  0  0  0  0  0  0
   12.6250    8.6294   -8.4338 O   0  0  0  0  0  0  0  0  0  0  0  0
   11.0835    8.4395  -10.0740 O   0  0  0  0  0  0  0  0  0  0  0  0
   11.2938    7.5612  -11.0769 C   0  0  0  0  0  0  0  0  0  0  0  0
   10.1547    7.2525  -11.9492 C   0  0  0  0  0  0  0  0  0  0  0  0
   10.4293    6.5622  -13.1348 C   0  0  0  0  0  0  0  0  0  0  0  0
   11.7295    6.4217  -13.6243 C   0  0  0  0  0  0  0  0  0  0  0  0
    8.8120    7.3918  -11.4649 C   0  0  0  0  0  0  0  0  0  0  0  0
   12.5351    7.8894  -11.6869 C   0  0  0  0  0  0  0  0  0  0  0  0
   13.5778    8.4243  -10.9673 O   0  0  0  0  0  0  0  0  0  0  0  0
    7.7211    7.1761  -12.4323 C   0  0  0  0  0  0  0  0  0  0  0  0
   12.8103    7.0723  -12.8897 C   0  0  0  0  0  0  0  0  0  0  0  0
    7.0543    5.9667  -12.3369 C   0  0  0  0  0  0  0  0  0  0  0  0
    7.2392    8.1844  -13.1320 C   0  0  0  0  0  0  0  0  0  0  0  0
    6.6882    5.3848  -13.5016 O   0  0  0  0  0  0  0  0  0  0  0  0
    6.5103    5.5543  -11.3870 O   0  0  0  0  0  0  0  0  0  0  0  0
    7.4031    4.0506  -13.7852 C   0  0  0  0  0  0  0  0  0  0  0  0
    8.6811    3.9966  -14.1333 C   0  0  0  0  0  0  0  0  0  0  0  0
   12.0732    5.6649  -14.9357 C   0  0  0  0  0  0  0  0  0  0  0  0
    6.5842    3.0104  -13.4449 C   0  0  0  0  0  0  0  0  0  0  0  0
   12.1810    6.3505  -15.9550 C   0  0  0  0  0  0  0  0  0  0  0  0
   12.4265    5.3943  -17.1098 C   0  0  0  0  0  0  0  0  0  0  0  0
   12.0808    4.3115  -14.6805 C   0  0  0  0  0  0  0  0  0  0  0  0
    5.1772    3.2038  -12.9749 C   0  0  0  0  0  0  0  0  0  0  0  0
   11.7401    3.5786  -13.4028 C   0  0  0  0  0  0  0  0  0  0  0  0
   12.6689    6.2031  -18.3172 O   0  0  0  0  0  0  0  0  0  0  0  0
    7.2335    1.7472  -13.7003 C   0  0  0  0  0  0  0  0  0  0  0  0
    6.3457    0.6491  -13.3147 C   0  0  0  0  0  0  0  0  0  0  0  0
    9.2302    2.7981  -14.2905 C   0  0  0  0  0  0  0  0  0  0  0  0
   12.0331    3.5918  -15.8467 C   0  0  0  0  0  0  0  0  0  0  0  0
   12.3095    4.1631  -17.0486 C   0  0  0  0  0  0  0  0  0  0  0  0
    8.5049    1.6778  -14.0141 C   0  0  0  0  0  0  0  0  0  0  0  0
   10.6369    2.6252  -14.5877 N   0  0  0  0  0  0  0  0  0  0  0  0
   11.4202    2.3718  -15.4956 N   0  0  0  0  0  0  0  0  0  0  0  0
  1  2  1  0  0  0  0
  1  3  1  0  0  0  0
  2  4  1  0  0  0  0
  3  5  1  0  0  0  0
  4  6  1  0  0  0  0
  5  6  1  0  0  0  0
  5  7  1  0  0  0  0
  7  8  1  0  0  0  0
  8  9  2  0  0  0  0
  8 10  1  0  0  0  0
 10 11  1  0  0  0  0
 11 12  1  0  0  0  0
 11 16  2  0  0  0  0
 12 13  2  0  0  0  0
 12 15  1  0  0  0  0
 13 14  1  0  0  0  0
 14 19  2  0  0  0  0
 14 26  1  0  0  0  0
 15 18  1  0  0  0  0
 16 17  1  0  0  0  0
 16 19  1  0  0  0  0
 18 20  1  0  0  0  0
 18 21  2  0  0  0  0
 20 22  1  0  0  0  0
 20 23  2  0  0  0  0
 22 24  1  0  0  0  0
 24 25  1  0  0  0  0
 24 27  2  0  0  0  0
 25 36  2  0  0  0  0
 26 28  2  0  0  0  0
 26 30  1  0  0  0  0
 27 31  1  0  0  0  0
 27 34  1  0  0  0  0
 28 29  1  0  0  0  0
 29 33  1  0  0  0  0
 29 38  2  0  0  0  0
 30 32  1  0  0  0  0
 30 37  2  0  0  0  0
 32 40  1  0  0  0  0
 34 35  1  0  0  0  0
 34 39  2  0  0  0  0
 36 39  1  0  0  0  0
 36 40  1  0  0  0  0
 37 38  1  0  0  0  0
 37 41  1  0  0  0  0
 40 41  1  0  0  0  0
M  END
$$$$

 OpenBabel10082411353D

 41 46  0  0  0  0  0  0  0  0999 V2000
   11.6836    6.0105   -4.8831 C   0  0  0  0  0  0  0  0  0  0  0  0
   11.1291    7.0732   -5.4395 C   0  0  0  0  0  0  0  0  0  0  0  0
   10.6954    7.0156   -6.8073 C   0  0  0  0  0  0  0  0  0  0  0  0
   10.2502    8.1187   -7.5536 C   0  0  2  0  0  0  0  0  0  0  0  0
   11.1205    8.4712   -4.9629 C   0  0  0  0  0  0  0  0  0  0  0  0
   10.8655    8.3511   -8.7960 C   0  0  0  0  0  0  0  0  0  0  0  0
   10.2922    7.8843   -9.9985 C   0  0  0  0  0  0  0  0  0  0  0  0
   10.4654    9.6993   -5.6120 C   0  0  0  0  0  0  0  0  0  0  0  0
   10.3510    9.5971   -7.0014 C   0  0  0  0  0  0  0  0  0  0  0  0
   12.2462    6.3351   -3.5020 C   0  0  0  0  0  0  0  0  0  0  0  0
   11.0471    7.5309  -11.1063 C   0  0  0  0  0  0  0  0  0  0  0  0
   11.7288    8.6923   -3.6518 C   0  0  0  0  0  0  0  0  0  0  0  0
   12.3991    7.7501  -11.1145 C   0  0  0  0  0  0  0  0  0  0  0  0
   12.3738    7.7580   -2.9599 C   0  0  0  0  0  0  0  0  0  0  0  0
   13.1285    8.5075  -10.1661 O   0  0  0  0  0  0  0  0  0  0  0  0
    9.0407    7.3775  -10.0973 N   0  0  0  0  0  0  0  0  0  0  0  0
    8.9787    6.9473  -11.4664 N   0  0  0  0  0  0  0  0  0  0  0  0
   13.1012    7.4459  -12.3707 C   0  0  0  0  0  0  0  0  0  0  0  0
   12.2395    6.9724  -13.2444 C   0  0  0  0  0  0  0  0  0  0  0  0
   10.2768    7.0170  -11.9799 C   0  0  0  0  0  0  0  0  0  0  0  0
   12.9237    6.5822  -14.5759 O   0  0  0  0  0  0  0  0  0  0  0  0
   10.8906    6.6526  -13.2252 C   0  0  0  0  0  0  0  0  0  0  0  0
   12.2396    6.1290  -15.6916 C   0  0  0  0  0  0  0  0  0  0  0  0
    7.8036    6.1825  -11.9342 C   0  0  0  0  0  0  0  0  0  0  0  0
   12.5015    4.7115  -15.7686 C   0  0  0  0  0  0  0  0  0  0  0  0
    7.1685    6.9992  -12.8245 C   0  0  0  0  0  0  0  0  0  0  0  0
   11.2461    3.8540  -15.4851 C   0  0  0  0  0  0  0  0  0  0  0  0
    7.6237    4.9154  -11.6529 C   0  0  0  0  0  0  0  0  0  0  0  0
    6.6378    4.1960  -12.2267 C   0  0  0  0  0  0  0  0  0  0  0  0
    6.2717    2.7675  -11.9743 C   0  0  0  0  0  0  0  0  0  0  0  0
    6.6569    1.8873  -12.9460 C   0  0  0  0  0  0  0  0  0  0  0  0
    7.3895    8.4597  -13.1785 C   0  0  0  0  0  0  0  0  0  0  0  0
    6.3114    0.5653  -12.7247 C   0  0  0  0  0  0  0  0  0  0  0  0
    7.7684    2.0327  -13.9055 C   0  0  0  0  0  0  0  0  0  0  0  0
    8.3733    3.3319  -14.0408 C   0  0  0  0  0  0  0  0  0  0  0  0
    6.7866   -0.4375  -13.6507 C   0  0  0  0  0  0  0  0  0  0  0  0
   11.3491    2.6020  -15.5284 O   0  0  0  0  0  0  0  0  0  0  0  0
   10.0815    4.4913  -15.3913 N   0  0  0  0  0  0  0  0  0  0  0  0
    7.8171   -0.1866  -14.5140 C   0  0  0  0  0  0  0  0  0  0  0  0
    8.2703    1.0253  -14.5896 C   0  0  0  0  0  0  0  0  0  0  0  0
    8.9462    3.9420  -14.8217 N   0  0  0  0  0  0  0  0  0  0  0  0
  1  2  1  0  0  0  0
  1 10  2  0  0  0  0
  2  3  1  0  0  0  0
  2  5  2  0  0  0  0
  3  4  1  0  0  0  0
  4  6  1  6  0  0  0
  4  9  1  0  0  0  0
  5  8  1  0  0  0  0
  5 12  1  0  0  0  0
  6  7  1  0  0  0  0
  7 11  1  0  0  0  0
  7 16  2  0  0  0  0
  8  9  1  0  0  0  0
 10 14  1  0  0  0  0
 11 13  2  0  0  0  0
 11 20  1  0  0  0  0
 12 14  2  0  0  0  0
 13 15  1  0  0  0  0
 13 18  1  0  0  0  0
 16 17  1  0  0  0  0
 17 20  1  0  0  0  0
 17 24  1  0  0  0  0
 18 19  2  0  0  0  0
 19 21  1  0  0  0  0
 19 22  1  0  0  0  0
 20 22  2  0  0  0  0
 21 23  1  0  0  0  0
 23 25  1  0  0  0  0
 24 26  2  3  0  0  0
 24 28  1  0  0  0  0
 25 27  1  0  0  0  0
 26 32  1  0  0  0  0
 27 37  2  0  0  0  0
 27 38  1  0  0  0  0
 28 29  2  0  0  0  0
 29 30  1  0  0  0  0
 30 31  1  0  0  0  0
 31 33  2  0  0  0  0
 31 34  1  0  0  0  0
 33 36  1  0  0  0  0
 34 35  1  0  0  0  0
 34 40  2  0  0  0  0
 35 41  2  0  0  0  0
 36 39  2  0  0  0  0
 38 41  1  0  0  0  0
 39 40  1  0  0  0  0
M  END
$$$$

 OpenBabel10082411353D

 41 46  0  0  0  0  0  0  0  0999 V2000
   10.9951    9.9694   -4.9946 C   0  0  0  0  0  0  0  0  0  0  0  0
   11.7938    9.3762   -4.2463 C   0  0  0  0  0  0  0  0  0  0  0  0
   10.8673    9.4548   -6.4276 C   0  0  0  0  0  0  0  0  0  0  0  0
   11.6576    7.9117   -4.2944 C   0  0  0  0  0  0  0  0  0  0  0  0
   10.5498    8.0257   -6.4521 C   0  0  0  0  0  0  0  0  0  0  0  0
   11.4715    7.2752   -5.6166 C   0  0  0  0  0  0  0  0  0  0  0  0
   10.5840    7.5390   -7.9254 C   0  0  0  0  0  0  0  0  0  0  0  0
   11.4612    8.1494   -8.8322 C   0  0  0  0  0  0  0  0  0  0  0  0
   12.6250    8.6294   -8.4338 O   0  0  0  0  0  0  0  0  0  0  0  0
   11.0835    8.4395  -10.0740 O   0  0  0  0  0  0  0  0  0  0  0  0
   11.2938    7.5612  -11.0769 C   0  0  0  0  0  0  0  0  0  0  0  0
   10.1547    7.2525  -11.9492 C   0  0  0  0  0  0  0  0  0  0  0  0
   10.4293    6.5622  -13.1348 C   0  0  0  0  0  0  0  0  0  0  0  0
   11.7295    6.4217  -13.6243 C   0  0  0  0  0  0  0  0  0  0  0  0
    8.8120    7.3918  -11.4649 C   0  0  0  0  0  0  0  0  0  0  0  0
   12.5351    7.8894  -11.6869 C   0  0  0  0  0  0  0  0  0  0  0  0
   13.5778    8.4243  -10.9673 O   0  0  0  0  0  0  0  0  0  0  0  0
    7.7211    7.1761  -12.4323 C   0  0  0  0  0  0  0  0  0  0  0  0
   12.8103    7.0723  -12.8897 C   0  0  0  0  0  0  0  0  0  0  0  0
    7.0543    5.9667  -12.3369 C   0  0  0  0  0  0  0  0  0  0  0  0
    7.2392    8.1844  -13.1320 C   0  0  0  0  0  0  0  0  0  0  0  0
    6.6882    5.3848  -13.5016 O   0  0  0  0  0  0  0  0  0  0  0  0
    6.5103    5.5543  -11.3870 O   0  0  0  0  0  0  0  0  0  0  0  0
    7.4031    4.0506  -13.7852 C   0  0  0  0  0  0  0  0  0  0  0  0
    8.6811    3.9966  -14.1333 C   0  0  0  0  0  0  0  0  0  0  0  0
   12.0732    5.6649  -14.9357 C   0  0  0  0  0  0  0  0  0  0  0  0
    6.5842    3.0104  -13.4449 C   0  0  0  0  0  0  0  0  0  0  0  0
   12.1810    6.3505  -15.9550 C   0  0  0  0  0  0  0  0  0  0  0  0
   12.4265    5.3943  -17.1098 C   0  0  0  0  0  0  0  0  0  0  0  0
   12.0808    4.3115  -14.6805 C   0  0  0  0  0  0  0  0  0  0  0  0
    5.1772    3.2038  -12.9749 C   0  0  0  0  0  0  0  0  0  0  0  0
   11.7401    3.5786  -13.4028 C   0  0  0  0  0  0  0  0  0  0  0  0
   12.6689    6.2031  -18.3172 O   0  0  0  0  0  0  0  0  0  0  0  0
    7.2335    1.7472  -13.7003 C   0  0  0  0  0  0  0  0  0  0  0  0
    6.3457    0.6491  -13.3147 C   0  0  0  0  0  0  0  0  0  0  0  0
    9.2302    2.7981  -14.2905 C   0  0  0  0  0  0  0  0  0  0  0  0
   12.0331    3.5918  -15.8467 C   0  0  0  0  0  0  0  0  0  0  0  0
   12.3095    4.1631  -17.0486 C   0  0  0  0  0  0  0  0  0  0  0  0
    8.5049    1.6778  -14.0141 C   0  0  0  0  0  0  0  0  0  0  0  0
   10.6369    2.6252  -14.5877 N   0  0  0  0  0  0  0  0  0  0  0  0
   11.5400    2.2900  -15.5500 C   0  0  0  0  0  0  0  0  0  0  0  0
  1  2  1  0  0  0  0
  1  3  1  0  0  0  0
  2  4  1  0  0  0  0
  3  5  1  0  0  0  0
  4  6  1  0  0  0  0
  5  6  1  0  0  0  0
  5  7  1  0  0  0  0
  7  8  1  0  0  0  0
  8  9  2  0  0  0  0
  8 10  1  0  0  0  0
 10 11  1  0  0  0  0
 11 12  1  0  0  0  0
 11 16  2  0  0  0  0
 12 13  2  0  0  0  0
 12 15  1  0  0  0  0
 13 14  1  0  0  0  0
 14 19  2  0  0  0  0
 14 26  1  0  0  0  0
 15 18  1  0  0  0  0
 16 17  1  0  0  0  0
 16 19  1  0  0  0  0
 18 20  1  0  0  0  0
 18 21  2  0  0  0  0
 20 22  1  0  0  0  0
 20 23  2  0  0  0  0
 22 24  1  0  0  0  0
 24 25  1  0  0  0  0
 24 27  2  0  0  0  0
 25 36  2  0  0  0  0
 26 28  2  0  0  0  0
 26 30  1  0  0  0  0
 27 31  1  0  0  0  0
 27 34  1  0  0  0  0
 28 29  1  0  0  0  0
 29 33  1  0  0  0  0
 29 38  2  0  0  0  0
 30 32  1  0  0  0  0
 30 37  2  0  0  0  0
 32 40  1  0  0  0  0
 34 35  1  0  0  0  0
 34 39  2  0  0  0  0
 36 39  1  0  0  0  0
 36 40  1  0  0  0  0
 37 38  1  0  0  0  0
 37 41  1  0  0  0  0
 40 41  1  0  0  0  0
M  END
$$$$

 OpenBabel10082411353D

 42 53  0  0  0  0  0  0  0  0999 V2000
    8.0806    9.0240  -12.7589 C   0  0  0  0  0  0  0  0  0  0  0  0
    8.6514    7.8645  -12.2948 C   0  0  0  0  0  0  0  0  0  0  0  0
    9.9575    7.9974  -11.8426 C   0  0  0  0  0  0  0  0  0  0  0  0
   10.7657    6.8667  -11.6050 C   0  0  1  0  0  0  0  0  0  0  0  0
   10.7682    5.9590  -12.8271 C   0  0  0  0  0  0  0  0  0  0  0  0
   12.1553    7.3846  -11.2315 C   0  0  0  0  0  0  0  0  0  0  0  0
    8.0676    6.6451  -12.2974 C   0  0  0  0  0  0  0  0  0  0  0  0
   10.1892    6.1240  -10.3860 C   0  0  0  0  0  0  0  0  0  0  0  0
   11.8375    5.4373  -13.3240 O   0  0  0  0  0  0  0  0  0  0  0  0
    8.6785    5.4761  -13.0273 C   0  0  1  0  0  0  0  0  0  0  0  0
    9.1969    5.2405  -10.4969 C   0  0  1  0  0  0  0  0  0  0  0  0
    7.2213    6.2210  -11.3074 C   0  0  1  0  0  0  0  0  0  0  0  0
   12.5590    7.6872   -9.9896 C   0  0  0  0  0  0  0  0  0  0  0  0
    9.7633    5.0333  -12.9720 C   0  0  1  0  0  0  0  0  0  0  0  0
   10.0661    4.0167  -14.0373 N   0  0  0  0  0  0  0  0  0  0  0  0
   13.6906    8.3004   -9.6233 O   0  0  0  0  0  0  0  0  0  0  0  0
    7.6357    4.5123  -12.6317 C   0  0  2  0  0  0  0  0  0  0  0  0
    6.8831    4.9171  -11.7031 C   0  0  1  0  0  0  0  0  0  0  0  0
   10.5937    6.6967   -9.1779 C   0  0  0  0  0  0  0  0  0  0  0  0
    9.5087    4.3263  -11.6925 C   0  0  2  0  0  0  0  0  0  0  0  0
   11.6359    7.4449   -8.9125 C   0  0  0  0  0  0  0  0  0  0  0  0
   11.9716    7.9159   -7.6200 C   0  0  0  0  0  0  0  0  0  0  0  0
    8.4648    3.6122  -12.2840 C   0  0  2  0  0  0  0  0  0  0  0  0
    9.3128    4.5571   -9.1689 C   0  0  0  0  0  0  0  0  0  0  0  0
   10.9557    7.6369   -6.5929 C   0  0  1  0  0  0  0  0  0  0  0  0
    9.6490    2.8108  -13.7776 C   0  0  1  0  0  0  0  0  0  0  0  0
    9.6716    6.1981   -8.0224 C   0  0  2  0  0  0  0  0  0  0  0  0
    8.5511    2.5400  -13.1402 C   0  0  0  0  0  0  0  0  0  0  0  0
    9.7877    2.0302  -15.0383 O   0  0  0  0  0  0  0  0  0  0  0  0
   10.2949    6.3957   -6.8142 C   0  0  0  0  0  0  0  0  0  0  0  0
   11.5672    7.6277   -5.2275 C   0  0  0  0  0  0  0  0  0  0  0  0
    9.0573    5.0713   -8.1077 N   0  0  0  0  0  0  0  0  0  0  0  0
    9.9816    8.7976   -6.5531 C   0  0  0  0  0  0  0  0  0  0  0  0
   11.0000    1.9397  -15.5744 C   0  0  0  0  0  0  0  0  0  0  0  0
   11.6850    6.4911   -4.5753 C   0  0  0  0  0  0  0  0  0  0  0  0
   12.3660    6.6379   -3.1994 C   0  0  0  0  0  0  0  0  0  0  0  0
    7.9290    5.6263  -10.5234 C   0  0  1  0  0  0  0  0  0  0  0  0
   11.9420    8.9383   -4.7539 C   0  0  0  0  0  0  0  0  0  0  0  0
   11.6917   10.2188   -5.5374 C   0  0  0  0  0  0  0  0  0  0  0  0
   12.6819    7.8651   -2.7098 C   0  0  0  0  0  0  0  0  0  0  0  0
   12.4666    9.0384   -3.3994 C   0  0  0  0  0  0  0  0  0  0  0  0
   10.8385    9.9708   -6.6122 C   0  0  0  0  0  0  0  0  0  0  0  0
  1  2  1  0  0  0  0
  2  3  1  0  0  0  0
  2  7  2  0  0  0  0
  4  3  1  6  0  0  0
  4  5  1  0  0  0  0
  4  6  1  0  0  0  0
  4  8  1  0  0  0  0
  5  9  2  0  0  0  0
  6 13  1  0  0  0  0
  8 11  1  0  0  0  0
  8 19  2  0  0  0  0
 10  7  1  1  0  0  0
 10 14  1  0  0  0  0
 10 17  1  0  0  0  0
 11 20  1  0  0  0  0
 11 24  1  1  0  0  0
 11 37  1  0  0  0  0
 12  7  1  6  0  0  0
 12 18  1  0  0  0  0
 12 37  1  0  0  0  0
 13 16  2  0  0  0  0
 13 21  1  0  0  0  0
 14  5  1  1  0  0  0
 14 15  1  0  0  0  0
 14 20  1  0  0  0  0
 15 26  1  0  0  0  0
 17 18  1  0  0  0  0
 17 23  1  0  0  0  0
 18 37  1  0  0  0  0
 19 21  1  0  0  0  0
 19 27  1  0  0  0  0
 20 23  1  0  0  0  0
 21 22  2  0  0  0  0
 22 25  1  0  0  0  0
 23 28  1  0  0  0  0
 24 32  2  0  0  0  0
 25 30  1  0  0  0  0
 25 31  1  0  0  0  0
 25 33  1  0  0  0  0
 26 28  1  0  0  0  0
 26 29  1  0  0  0  0
 27 30  1  0  0  0  0
 27 32  1  0  0  0  0
 29 34  1  0  0  0  0
 31 35  2  0  0  0  0
 31 38  1  0  0  0  0
 33 42  1  0  0  0  0
 35 36  1  0  0  0  0
 36 40  2  0  0  0  0
 38 39  1  0  0  0  0
 38 41  2  0  0  0  0
 39 42  2  0  0  0  0
 40 41  1  0  0  0  0
M  END
$$$$

 OpenBabel10082411353D

 26 26  0  0  0  0  0  0  0  0999 V2000
    8.0839    8.8860  -12.2561 C   0  0  0  0  0  0  0  0  0  0  0  0
    8.8273    7.7579  -12.2078 C   0  0  1  0  0  0  0  0  0  0  0  0
   10.1224    7.6608  -11.7635 C   0  0  0  0  0  0  0  0  0  0  0  0
    8.0207    6.6286  -11.5139 C   0  0  0  0  0  0  0  0  0  0  0  0
   10.3983    7.6617  -10.4085 C   0  0  0  0  0  0  0  0  0  0  0  0
   11.1796    7.3921  -12.6684 C   0  0  0  0  0  0  0  0  0  0  0  0
   11.7852    7.6560   -9.9808 C   0  0  0  0  0  0  0  0  0  0  0  0
    7.6417    5.4729  -12.5527 C   0  0  0  0  0  0  0  0  0  0  0  0
    6.4084    5.1570  -12.4330 C   0  0  0  0  0  0  0  0  0  0  0  0
   12.5068    7.3608  -12.2820 C   0  0  0  0  0  0  0  0  0  0  0  0
   12.0871    7.7355   -8.5565 C   0  0  0  0  0  0  0  0  0  0  0  0
    6.2013    3.7420  -13.0865 C   0  0  0  0  0  0  0  0  0  0  0  0
   12.7831    7.4995  -10.9693 C   0  0  0  0  0  0  0  0  0  0  0  0
   10.9919    8.0814   -7.6989 C   0  0  1  0  0  0  0  0  0  0  0  0
   10.7921    7.0977   -6.6776 C   0  0  0  0  0  0  0  0  0  0  0  0
    9.5590    6.7400   -6.3045 C   0  0  0  0  0  0  0  0  0  0  0  0
   11.1719    9.4660   -6.9685 C   0  0  0  0  0  0  0  0  0  0  0  0
   12.1622    9.5625   -6.0056 C   0  0  0  0  0  0  0  0  0  0  0  0
    8.6886    6.3030   -7.3751 N   0  0  0  0  0  0  0  0  0  0  0  0
    8.9930    5.0375   -7.8851 C   0  0  0  0  0  0  0  0  0  0  0  0
    7.4976    3.0033  -13.1519 C   0  0  0  0  0  0  0  0  0  0  0  0
    7.6938    2.2315  -14.2015 C   0  0  0  0  0  0  0  0  0  0  0  0
    9.0718    1.9944  -14.6332 C   0  0  0  0  0  0  0  0  0  0  0  0
   10.0579    2.6856  -13.8983 C   0  0  0  0  0  0  0  0  0  0  0  0
   11.2278    3.2022  -14.5244 C   0  0  0  0  0  0  0  0  0  0  0  0
   11.8538    4.3452  -13.9289 C   0  0  0  0  0  0  0  0  0  0  0  0
  2  1  1  1  0  0  0
  2  3  1  0  0  0  0
  2  4  1  0  0  0  0
  3  5  1  0  0  0  0
  3  6  2  0  0  0  0
  4  8  1  0  0  0  0
  5  7  2  0  0  0  0
  6 10  1  0  0  0  0
  7 11  1  0  0  0  0
  7 13  1  0  0  0  0
  8  9  1  0  0  0  0
  9 12  1  0  0  0  0
 10 13  2  0  0  0  0
 12 21  1  0  0  0  0
 14 11  1  1  0  0  0
 14 15  1  0  0  0  0
 14 17  1  0  0  0  0
 15 16  1  0  0  0  0
 16 19  1  0  0  0  0
 17 18  1  0  0  0  0
 19 20  1  0  0  0  0
 21 22  1  0  0  0  0
 22 23  1  0  0  0  0
 23 24  1  0  0  0  0
 24 25  1  0  0  0  0
 25 26  1  0  0  0  0
M  END
$$$$

 OpenBabel10082411353D

 42 52  0  0  0  0  0  0  0  0999 V2000
    8.0806    9.0240  -12.7589 C   0  0  0  0  0  0  0  0  0  0  0  0
    8.6514    7.8645  -12.2948 C   0  0  0  0  0  0  0  0  0  0  0  0
    9.9575    7.9974  -11.8426 C   0  0  0  0  0  0  0  0  0  0  0  0
   10.7657    6.8667  -11.6050 C   0  0  1  0  0  0  0  0  0  0  0  0
   10.7682    5.9590  -12.8271 C   0  0  0  0  0  0  0  0  0  0  0  0
   12.1553    7.3846  -11.2315 C   0  0  0  0  0  0  0  0  0  0  0  0
    8.0676    6.6451  -12.2974 C   0  0  0  0  0  0  0  0  0  0  0  0
   10.1892    6.1240  -10.3860 C   0  0  0  0  0  0  0  0  0  0  0  0
   11.8375    5.4373  -13.3240 O   0  0  0  0  0  0  0  0  0  0  0  0
    8.6785    5.4761  -13.0273 C   0  0  1  0  0  0  0  0  0  0  0  0
    9.1969    5.2405  -10.4969 C   0  0  2  0  0  0  0  0  0  0  0  0
    7.2213    6.2210  -11.3074 C   0  0  2  0  0  0  0  0  0  0  0  0
   12.5590    7.6872   -9.9896 C   0  0  0  0  0  0  0  0  0  0  0  0
    9.7633    5.0333  -12.9720 C   0  0  1  0  0  0  0  0  0  0  0  0
   10.0661    4.0167  -14.0373 N   0  0  0  0  0  0  0  0  0  0  0  0
   13.6906    8.3004   -9.6233 O   0  0  0  0  0  0  0  0  0  0  0  0
    7.6357    4.5123  -12.6317 C   0  0  2  0  0  0  0  0  0  0  0  0
    6.8831    4.9171  -11.7031 C   0  0  2  0  0  0  0  0  0  0  0  0
   10.5937    6.6967   -9.1779 C   0  0  0  0  0  0  0  0  0  0  0  0
    9.5087    4.3263  -11.6925 C   0  0  2  0  0  0  0  0  0  0  0  0
   11.6359    7.4449   -8.9125 C   0  0  0  0  0  0  0  0  0  0  0  0
   11.9716    7.9159   -7.6200 C   0  0  0  0  0  0  0  0  0  0  0  0
    8.4648    3.6122  -12.2840 C   0  0  1  0  0  0  0  0  0  0  0  0
    7.9253    2.8004  -11.3926 C   0  0  0  0  0  0  0  0  0  0  0  0
    5.6047    4.5059  -11.7589 C   0  0  0  0  0  0  0  0  0  0  0  0
    7.6606    4.1297  -10.5699 C   0  0  0  0  0  0  0  0  0  0  0  0
   10.9559    7.6849   -6.6057 C   0  0  0  0  0  0  0  0  0  0  0  0
    8.0094    4.5092   -9.5664 C   0  0  0  0  0  0  0  0  0  0  0  0
    8.3033    4.0627   -8.4980 C   0  0  0  0  0  0  0  0  0  0  0  0
    6.3587    7.1012  -11.0392 O   0  0  0  0  0  0  0  0  0  0  0  0
   11.0186    3.9598  -14.9226 C   0  0  1  0  0  0  0  0  0  0  0  0
    8.1758    5.8633  -10.2511 C   0  0  1  0  0  0  0  0  0  0  0  0
    9.4315    2.8557  -13.5931 C   0  0  0  0  0  0  0  0  0  0  0  0
   11.5906    2.6986  -15.1672 C   0  0  0  0  0  0  0  0  0  0  0  0
    9.9783    6.7760   -6.8364 C   0  0  0  0  0  0  0  0  0  0  0  0
    9.7446    6.4267   -8.0721 C   0  0  2  0  0  0  0  0  0  0  0  0
   10.2617    4.4120  -16.0135 O   0  0  0  0  0  0  0  0  0  0  0  0
    8.5934    5.3848   -7.9294 C   0  0  0  0  0  0  0  0  0  0  0  0
   11.2863    8.3074   -5.2449 C   0  0  0  0  0  0  0  0  0  0  0  0
   11.7134    9.7565   -5.2413 C   0  0  0  0  0  0  0  0  0  0  0  0
   12.3294    7.6661   -4.5098 C   0  0  0  0  0  0  0  0  0  0  0  0
   10.1644    8.3367   -4.4217 C   0  0  0  0  0  0  0  0  0  0  0  0
  1  2  1  0  0  0  0
  2  3  1  0  0  0  0
  2  7  2  0  0  0  0
  4  3  1  6  0  0  0
  4  5  1  0  0  0  0
  4  6  1  0  0  0  0
  4  8  1  0  0  0  0
  5  9  2  0  0  0  0
  6 13  1  0  0  0  0
  7 12  1  0  0  0  0
  8 19  2  0  0  0  0
 10  7  1  1  0  0  0
 10 14  1  0  0  0  0
 10 17  1  0  0  0  0
 11  8  1  6  0  0  0
 11 20  1  0  0  0  0
 11 32  1  0  0  0  0
 12 18  1  0  0  0  0
 12 30  1  1  0  0  0
 12 32  1  0  0  0  0
 13 16  2  0  0  0  0
 13 21  1  0  0  0  0
 14  5  1  1  0  0  0
 14 15  1  0  0  0  0
 14 20  1  0  0  0  0
 15 31  1  0  0  0  0
 15 33  1  0  0  0  0
 17 18  1  0  0  0  0
 17 23  1  0  0  0  0
 18 25  1  0  0  0  0
 18 26  1  0  0  0  0
 19 21  1  0  0  0  0
 19 36  1  0  0  0  0
 20 23  1  0  0  0  0
 21 22  2  0  0  0  0
 22 27  1  0  0  0  0
 23 24  1  0  0  0  0
 23 33  1  0  0  0  0
 24 26  1  0  0  0  0
 26 28  2  0  0  0  0
 27 35  2  0  0  0  0
 27 39  1  0  0  0  0
 28 29  1  0  0  0  0
 28 32  1  0  0  0  0
 29 38  1  0  0  0  0
 31 34  1  0  0  0  0
 31 37  1  0  0  0  0
 35 36  1  0  0  0  0
 36 38  1  0  0  0  0
 39 40  1  0  0  0  0
 39 41  1  0  0  0  0
 39 42  1  0  0  0  0
M  END
$$$$

 OpenBabel10082411353D

 42 48  0  0  0  0  0  0  0  0999 V2000
   11.6836    6.0105   -4.8831 F   0  0  0  0  0  0  0  0  0  0  0  0
   11.2562    7.2206   -5.0294 C   0  0  0  0  0  0  0  0  0  0  0  0
   12.0125    8.2418   -4.4408 C   0  0  0  0  0  0  0  0  0  0  0  0
   11.1918    7.2706   -6.5237 C   0  0  2  0  0  0  0  0  0  0  0  0
   11.6999    8.4488   -3.1704 F   0  0  0  0  0  0  0  0  0  0  0  0
    9.8648    7.0908   -4.5314 F   0  0  0  0  0  0  0  0  0  0  0  0
   11.6831    8.5291   -6.9682 C   0  0  1  0  0  0  0  0  0  0  0  0
   13.3042    8.0958   -4.5769 F   0  0  0  0  0  0  0  0  0  0  0  0
   10.0051    6.7877   -7.1387 C   0  0  2  0  0  0  0  0  0  0  0  0
   12.1549    9.4036   -6.0698 C   0  0  0  0  0  0  0  0  0  0  0  0
   11.7460    9.5074   -4.8672 O   0  0  0  0  0  0  0  0  0  0  0  0
   12.5684    8.5172   -7.8652 C   0  0  0  0  0  0  0  0  0  0  0  0
   10.4250    8.9412   -7.4869 C   0  0  0  0  0  0  0  0  0  0  0  0
    9.8902    5.4070   -7.8206 C   0  0  1  0  0  0  0  0  0  0  0  0
    8.7348    4.6919   -7.6168 C   0  0  0  0  0  0  0  0  0  0  0  0
    9.5887    7.8633   -8.0188 C   0  0  1  0  0  0  0  0  0  0  0  0
   10.0149    7.4671   -9.3945 C   0  0  0  0  0  0  0  0  0  0  0  0
    8.7013    3.5197   -8.2148 C   0  0  0  0  0  0  0  0  0  0  0  0
    9.3794    3.4628   -9.4166 C   0  0  0  0  0  0  0  0  0  0  0  0
    9.7670    8.0902  -10.5147 C   0  0  0  0  0  0  0  0  0  0  0  0
   10.1630    7.7248  -11.8028 C   0  0  0  0  0  0  0  0  0  0  0  0
   10.1363    4.5235   -9.8811 C   0  0  0  0  0  0  0  0  0  0  0  0
   10.2836    5.8862   -9.1314 C   0  0  2  0  0  0  0  0  0  0  0  0
    9.2642    7.6154  -12.7688 C   0  0  0  0  0  0  0  0  0  0  0  0
    9.7352    7.0429  -13.9890 C   0  0  0  0  0  0  0  0  0  0  0  0
    8.9431    5.9978  -14.4048 C   0  0  0  0  0  0  0  0  0  0  0  0
    8.0476    5.1914  -13.6918 C   0  0  0  0  0  0  0  0  0  0  0  0
    8.1490    3.7734  -13.7660 C   0  0  0  0  0  0  0  0  0  0  0  0
    7.0453    3.1418  -12.9717 C   0  0  0  0  0  0  0  0  0  0  0  0
    6.2338    3.8839  -12.1754 C   0  0  0  0  0  0  0  0  0  0  0  0
   10.8369    7.3431  -14.6932 C   0  0  0  0  0  0  0  0  0  0  0  0
    7.2107    5.8505  -12.7998 C   0  0  0  0  0  0  0  0  0  0  0  0
    5.3001    3.0920  -11.3306 F   0  0  0  0  0  0  0  0  0  0  0  0
    7.8586    7.9143  -12.4857 C   0  0  0  0  0  0  0  0  0  0  0  0
    6.3696    5.0319  -12.1370 C   0  0  0  0  0  0  0  0  0  0  0  0
    6.9659    7.0740  -12.5678 C   0  0  0  0  0  0  0  0  0  0  0  0
   11.6802    6.2859  -15.0974 C   0  0  0  0  0  0  0  0  0  0  0  0
   11.4895    5.0617  -14.5281 C   0  0  0  0  0  0  0  0  0  0  0  0
   11.6883    3.9380  -15.1014 C   0  0  0  0  0  0  0  0  0  0  0  0
   12.5714    6.3735  -16.0141 C   0  0  0  0  0  0  0  0  0  0  0  0
   13.1579    5.2527  -16.5458 C   0  0  0  0  0  0  0  0  0  0  0  0
   12.7980    3.9862  -16.0599 C   0  0  0  0  0  0  0  0  0  0  0  0
  1  2  1  0  0  0  0
  2  3  1  0  0  0  0
  2  6  1  0  0  0  0
  3  5  1  0  0  0  0
  3  8  1  0  0  0  0
  3 11  1  0  0  0  0
  4  2  1  1  0  0  0
  4  7  1  0  0  0  0
  4  9  1  0  0  0  0
  7 10  1  0  0  0  0
  7 12  1  6  0  0  0
  7 13  1  0  0  0  0
  9 14  1  0  0  0  0
  9 16  1  0  0  0  0
 10 11  1  0  0  0  0
 13 16  1  0  0  0  0
 14 15  1  0  0  0  0
 14 23  1  0  0  0  0
 15 18  2  0  0  0  0
 16 17  1  0  0  0  0
 17 20  2  3  0  0  0
 17 23  1  0  0  0  0
 18 19  1  0  0  0  0
 19 22  2  0  0  0  0
 20 21  1  0  0  0  0
 21 24  2  3  0  0  0
 22 23  1  0  0  0  0
 24 25  1  0  0  0  0
 24 34  1  0  0  0  0
 25 26  2  0  0  0  0
 25 31  1  0  0  0  0
 26 27  1  0  0  0  0
 27 28  2  0  0  0  0
 27 32  1  0  0  0  0
 28 29  1  0  0  0  0
 29 30  2  0  0  0  0
 30 33  1  0  0  0  0
 30 35  1  0  0  0  0
 31 37  1  0  0  0  0
 32 35  2  0  0  0  0
 32 36  1  0  0  0  0
 34 36  1  0  0  0  0
 37 38  1  0  0  0  0
 37 40  2  0  0  0  0
 38 39  2  0  0  0  0
 39 42  1  0  0  0  0
 40 41  1  0  0  0  0
 41 42  2  0  0  0  0
M  END
$$$$

 OpenBabel10082411353D

 42 52  0  0  0  0  0  0  0  0999 V2000
    8.0806    9.0240  -12.7589 C   0  0  0  0  0  0  0  0  0  0  0  0
    8.6514    7.8645  -12.2948 C   0  0  0  0  0  0  0  0  0  0  0  0
    9.9575    7.9974  -11.8426 C   0  0  0  0  0  0  0  0  0  0  0  0
   10.7657    6.8667  -11.6050 C   0  0  1  0  0  0  0  0  0  0  0  0
   10.7682    5.9590  -12.8271 C   0  0  0  0  0  0  0  0  0  0  0  0
   12.1553    7.3846  -11.2315 C   0  0  0  0  0  0  0  0  0  0  0  0
    8.0676    6.6451  -12.2974 C   0  0  0  0  0  0  0  0  0  0  0  0
   10.1892    6.1240  -10.3860 C   0  0  0  0  0  0  0  0  0  0  0  0
   11.8375    5.4373  -13.3240 O   0  0  0  0  0  0  0  0  0  0  0  0
    8.6785    5.4761  -13.0273 C   0  0  1  0  0  0  0  0  0  0  0  0
    9.1969    5.2405  -10.4969 C   0  0  2  0  0  0  0  0  0  0  0  0
    7.2213    6.2210  -11.3074 C   0  0  2  0  0  0  0  0  0  0  0  0
   12.5590    7.6872   -9.9896 C   0  0  0  0  0  0  0  0  0  0  0  0
    9.7633    5.0333  -12.9720 C   0  0  1  0  0  0  0  0  0  0  0  0
   10.0661    4.0167  -14.0373 N   0  0  0  0  0  0  0  0  0  0  0  0
   13.6906    8.3004   -9.6233 O   0  0  0  0  0  0  0  0  0  0  0  0
    7.6357    4.5123  -12.6317 C   0  0  2  0  0  0  0  0  0  0  0  0
    6.8831    4.9171  -11.7031 C   0  0  2  0  0  0  0  0  0  0  0  0
   10.5937    6.6967   -9.1779 C   0  0  0  0  0  0  0  0  0  0  0  0
    9.5087    4.3263  -11.6925 C   0  0  2  0  0  0  0  0  0  0  0  0
   11.6359    7.4449   -8.9125 C   0  0  0  0  0  0  0  0  0  0  0  0
   11.9716    7.9159   -7.6200 C   0  0  0  0  0  0  0  0  0  0  0  0
    8.4648    3.6122  -12.2840 C   0  0  1  0  0  0  0  0  0  0  0  0
    7.9253    2.8004  -11.3926 C   0  0  0  0  0  0  0  0  0  0  0  0
    5.6047    4.5059  -11.7589 C   0  0  0  0  0  0  0  0  0  0  0  0
    7.6606    4.1297  -10.5699 C   0  0  0  0  0  0  0  0  0  0  0  0
   10.9559    7.6849   -6.6057 C   0  0  0  0  0  0  0  0  0  0  0  0
    8.0094    4.5092   -9.5664 C   0  0  0  0  0  0  0  0  0  0  0  0
    8.3033    4.0627   -8.4980 C   0  0  0  0  0  0  0  0  0  0  0  0
    6.3587    7.1012  -11.0392 O   0  0  0  0  0  0  0  0  0  0  0  0
   11.0186    3.9598  -14.9226 C   0  0  0  0  0  0  0  0  0  0  0  0
    8.1758    5.8633  -10.2511 C   0  0  1  0  0  0  0  0  0  0  0  0
   11.4648    2.7104  -15.2650 O   0  0  0  0  0  0  0  0  0  0  0  0
    9.9512    6.8220   -6.8436 C   0  0  0  0  0  0  0  0  0  0  0  0
    9.6899    6.3705   -8.1082 C   0  0  2  0  0  0  0  0  0  0  0  0
   11.2597    8.2901   -5.2396 C   0  0  0  0  0  0  0  0  0  0  0  0
   11.6068    9.7354   -5.2006 C   0  0  0  0  0  0  0  0  0  0  0  0
   10.9469    4.9352  -15.8306 C   0  0  0  0  0  0  0  0  0  0  0  0
    9.2417    4.9555   -7.8256 C   0  0  0  0  0  0  0  0  0  0  0  0
   12.3456    7.6829   -4.5493 C   0  0  0  0  0  0  0  0  0  0  0  0
    9.9295    8.2490   -4.4104 C   0  0  0  0  0  0  0  0  0  0  0  0
    9.5489    2.7804  -13.2844 C   0  0  0  0  0  0  0  0  0  0  0  0
  1  2  1  0  0  0  0
  2  3  1  0  0  0  0
  2  7  2  0  0  0  0
  4  3  1  6  0  0  0
  4  5  1  0  0  0  0
  4  6  1  0  0  0  0
  4  8  1  0  0  0  0
  5  9  2  0  0  0  0
  6 13  1  0  0  0  0
  7 12  1  0  0  0  0
  8 19  2  0  0  0  0
 10  7  1  1  0  0  0
 10 14  1  0  0  0  0
 10 17  1  0  0  0  0
 11  8  1  6  0  0  0
 11 20  1  0  0  0  0
 11 32  1  0  0  0  0
 12 18  1  0  0  0  0
 12 30  1  1  0  0  0
 12 32  1  0  0  0  0
 13 16  2  0  0  0  0
 13 21  1  0  0  0  0
 14  5  1  1  0  0  0
 14 15  1  0  0  0  0
 14 20  1  0  0  0  0
 15 31  1  0  0  0  0
 15 42  1  0  0  0  0
 17 18  1  0  0  0  0
 17 23  1  0  0  0  0
 18 25  1  0  0  0  0
 18 26  1  0  0  0  0
 19 21  1  0  0  0  0
 19 35  1  0  0  0  0
 20 23  1  0  0  0  0
 21 22  2  0  0  0  0
 22 27  1  0  0  0  0
 23 24  1  0  0  0  0
 23 42  1  0  0  0  0
 24 26  1  0  0  0  0
 26 28  2  0  0  0  0
 27 34  2  0  0  0  0
 27 36  1  0  0  0  0
 28 29  1  0  0  0  0
 28 32  1  0  0  0  0
 29 39  2  0  0  0  0
 31 33  2  0  0  0  0
 31 38  1  0  0  0  0
 34 35  1  0  0  0  0
 35 39  1  0  0  0  0
 36 37  1  0  0  0  0
 36 40  1  0  0  0  0
 36 41  1  0  0  0  0
M  END
$$$$

 OpenBabel10082411353D

 42 52  0  0  0  0  0  0  0  0999 V2000
    8.0806    9.0240  -12.7589 C   0  0  0  0  0  0  0  0  0  0  0  0
    8.6514    7.8645  -12.2948 C   0  0  0  0  0  0  0  0  0  0  0  0
    9.9575    7.9974  -11.8426 C   0  0  0  0  0  0  0  0  0  0  0  0
   10.7657    6.8667  -11.6050 C   0  0  1  0  0  0  0  0  0  0  0  0
   10.7682    5.9590  -12.8271 C   0  0  0  0  0  0  0  0  0  0  0  0
   12.1553    7.3846  -11.2315 C   0  0  0  0  0  0  0  0  0  0  0  0
    8.0676    6.6451  -12.2974 C   0  0  0  0  0  0  0  0  0  0  0  0
   10.1892    6.1240  -10.3860 C   0  0  0  0  0  0  0  0  0  0  0  0
   11.8375    5.4373  -13.3240 O   0  0  0  0  0  0  0  0  0  0  0  0
    8.6785    5.4761  -13.0273 C   0  0  1  0  0  0  0  0  0  0  0  0
    9.1969    5.2405  -10.4969 C   0  0  2  0  0  0  0  0  0  0  0  0
    7.2213    6.2210  -11.3074 C   0  0  2  0  0  0  0  0  0  0  0  0
   12.5590    7.6872   -9.9896 C   0  0  0  0  0  0  0  0  0  0  0  0
    9.7633    5.0333  -12.9720 C   0  0  1  0  0  0  0  0  0  0  0  0
   10.0661    4.0167  -14.0373 N   0  0  0  0  0  0  0  0  0  0  0  0
   13.6906    8.3004   -9.6233 O   0  0  0  0  0  0  0  0  0  0  0  0
    7.6357    4.5123  -12.6317 C   0  0  2  0  0  0  0  0  0  0  0  0
    6.8831    4.9171  -11.7031 C   0  0  2  0  0  0  0  0  0  0  0  0
   10.5937    6.6967   -9.1779 C   0  0  0  0  0  0  0  0  0  0  0  0
    9.5087    4.3263  -11.6925 C   0  0  2  0  0  0  0  0  0  0  0  0
   11.6359    7.4449   -8.9125 C   0  0  0  0  0  0  0  0  0  0  0  0
   11.9716    7.9159   -7.6200 C   0  0  0  0  0  0  0  0  0  0  0  0
    8.4648    3.6122  -12.2840 C   0  0  1  0  0  0  0  0  0  0  0  0
    7.9253    2.8004  -11.3926 C   0  0  0  0  0  0  0  0  0  0  0  0
    5.6047    4.5059  -11.7589 C   0  0  0  0  0  0  0  0  0  0  0  0
    7.6606    4.1297  -10.5699 C   0  0  0  0  0  0  0  0  0  0  0  0
   10.9559    7.6849   -6.6057 C   0  0  0  0  0  0  0  0  0  0  0  0
    8.0094    4.5092   -9.5664 C   0  0  0  0  0  0  0  0  0  0  0  0
    8.3033    4.0627   -8.4980 C   0  0  0  0  0  0  0  0  0  0  0  0
    6.3587    7.1012  -11.0392 O   0  0  0  0  0  0  0  0  0  0  0  0
   11.0186    3.9598  -14.9226 C   0  0  0  0  0  0  0  0  0  0  0  0
    8.1758    5.8633  -10.2511 C   0  0  1  0  0  0  0  0  0  0  0  0
    9.4315    2.8557  -13.5931 C   0  0  0  0  0  0  0  0  0  0  0  0
   11.5906    2.6986  -15.1672 C   0  0  0  0  0  0  0  0  0  0  0  0
    9.9783    6.7760   -6.8364 C   0  0  0  0  0  0  0  0  0  0  0  0
    9.7446    6.4267   -8.0721 C   0  0  2  0  0  0  0  0  0  0  0  0
   11.2061    4.8269  -15.6646 O   0  0  0  0  0  0  0  0  0  0  0  0
   11.3653    8.3625   -5.0455 S   0  0  0  0  0  0  0  0  0  0  0  0
   12.1511    7.4667   -4.3093 O   0  0  0  0  0  0  0  0  0  0  0  0
    9.0190    5.1422   -7.7959 C   0  0  0  0  0  0  0  0  0  0  0  0
   10.0609    8.7703   -4.3596 O   0  0  0  0  0  0  0  0  0  0  0  0
   12.1624    9.8360   -5.1028 O   0  0  0  0  0  0  0  0  0  0  0  0
  1  2  1  0  0  0  0
  2  3  1  0  0  0  0
  2  7  2  0  0  0  0
  4  3  1  6  0  0  0
  4  5  1  0  0  0  0
  4  6  1  0  0  0  0
  4  8  1  0  0  0  0
  5  9  2  0  0  0  0
  6 13  1  0  0  0  0
  7 12  1  0  0  0  0
  8 19  2  0  0  0  0
 10  7  1  1  0  0  0
 10 14  1  0  0  0  0
 10 17  1  0  0  0  0
 11  8  1  6  0  0  0
 11 20  1  0  0  0  0
 11 32  1  0  0  0  0
 12 18  1  0  0  0  0
 12 30  1  1  0  0  0
 12 32  1  0  0  0  0
 13 16  2  0  0  0  0
 13 21  1  0  0  0  0
 14  5  1  1  0  0  0
 14 15  1  0  0  0  0
 14 20  1  0  0  0  0
 15 31  1  0  0  0  0
 15 33  1  0  0  0  0
 17 18  1  0  0  0  0
 17 23  1  0  0  0  0
 18 25  1  0  0  0  0
 18 26  1  0  0  0  0
 19 21  1  0  0  0  0
 19 36  1  0  0  0  0
 20 23  1  0  0  0  0
 21 22  2  0  0  0  0
 22 27  1  0  0  0  0
 23 24  1  0  0  0  0
 23 33  1  0  0  0  0
 24 26  1  0  0  0  0
 26 28  2  0  0  0  0
 27 35  2  0  0  0  0
 27 38  1  0  0  0  0
 28 29  1  0  0  0  0
 28 32  1  0  0  0  0
 29 40  1  0  0  0  0
 31 34  1  0  0  0  0
 31 37  2  0  0  0  0
 35 36  1  0  0  0  0
 36 40  1  0  0  0  0
 38 39  2  0  0  0  0
 38 41  1  0  0  0  0
 38 42  2  0  0  0  0
M  END
$$$$

 OpenBabel10082411353D

 42 52  0  0  0  0  0  0  0  0999 V2000
    8.0806    9.0240  -12.7589 C   0  0  0  0  0  0  0  0  0  0  0  0
    8.6514    7.8645  -12.2948 C   0  0  0  0  0  0  0  0  0  0  0  0
    9.9575    7.9974  -11.8426 C   0  0  0  0  0  0  0  0  0  0  0  0
   10.7657    6.8667  -11.6050 C   0  0  1  0  0  0  0  0  0  0  0  0
   10.7682    5.9590  -12.8271 C   0  0  0  0  0  0  0  0  0  0  0  0
   12.1553    7.3846  -11.2315 C   0  0  0  0  0  0  0  0  0  0  0  0
    8.0676    6.6451  -12.2974 C   0  0  0  0  0  0  0  0  0  0  0  0
   10.1892    6.1240  -10.3860 C   0  0  0  0  0  0  0  0  0  0  0  0
   11.8375    5.4373  -13.3240 O   0  0  0  0  0  0  0  0  0  0  0  0
    8.6785    5.4761  -13.0273 C   0  0  1  0  0  0  0  0  0  0  0  0
    9.1969    5.2405  -10.4969 C   0  0  2  0  0  0  0  0  0  0  0  0
    7.2213    6.2210  -11.3074 C   0  0  2  0  0  0  0  0  0  0  0  0
   12.5590    7.6872   -9.9896 C   0  0  0  0  0  0  0  0  0  0  0  0
    9.7633    5.0333  -12.9720 C   0  0  1  0  0  0  0  0  0  0  0  0
   10.0661    4.0167  -14.0373 N   0  0  0  0  0  0  0  0  0  0  0  0
   13.6906    8.3004   -9.6233 O   0  0  0  0  0  0  0  0  0  0  0  0
    7.6357    4.5123  -12.6317 C   0  0  2  0  0  0  0  0  0  0  0  0
    6.8831    4.9171  -11.7031 C   0  0  2  0  0  0  0  0  0  0  0  0
   10.5937    6.6967   -9.1779 C   0  0  0  0  0  0  0  0  0  0  0  0
    9.5087    4.3263  -11.6925 C   0  0  2  0  0  0  0  0  0  0  0  0
   11.6359    7.4449   -8.9125 C   0  0  0  0  0  0  0  0  0  0  0  0
   11.9716    7.9159   -7.6200 C   0  0  0  0  0  0  0  0  0  0  0  0
    8.4648    3.6122  -12.2840 C   0  0  1  0  0  0  0  0  0  0  0  0
    7.9253    2.8004  -11.3926 C   0  0  0  0  0  0  0  0  0  0  0  0
    5.6047    4.5059  -11.7589 C   0  0  0  0  0  0  0  0  0  0  0  0
    7.6606    4.1297  -10.5699 C   0  0  0  0  0  0  0  0  0  0  0  0
   10.9559    7.6849   -6.6057 C   0  0  0  0  0  0  0  0  0  0  0  0
    8.0094    4.5092   -9.5664 C   0  0  0  0  0  0  0  0  0  0  0  0
    8.3033    4.0627   -8.4980 C   0  0  0  0  0  0  0  0  0  0  0  0
    6.3587    7.1012  -11.0392 O   0  0  0  0  0  0  0  0  0  0  0  0
   11.0186    3.9598  -14.9226 C   0  0  0  0  0  0  0  0  0  0  0  0
    8.1758    5.8633  -10.2511 C   0  0  1  0  0  0  0  0  0  0  0  0
   11.4648    2.7104  -15.2650 O   0  0  0  0  0  0  0  0  0  0  0  0
    9.9512    6.8220   -6.8436 C   0  0  0  0  0  0  0  0  0  0  0  0
    9.6899    6.3705   -8.1082 C   0  0  2  0  0  0  0  0  0  0  0  0
   11.2597    8.2901   -5.2396 C   0  0  0  0  0  0  0  0  0  0  0  0
   11.6068    9.7354   -5.2006 C   0  0  0  0  0  0  0  0  0  0  0  0
    9.0563    4.8520   -7.9077 C   0  0  0  0  0  0  0  0  0  0  0  0
   10.9538    4.9317  -15.8311 O   0  0  0  0  0  0  0  0  0  0  0  0
   12.3223    7.6598   -4.5499 C   0  0  0  0  0  0  0  0  0  0  0  0
    9.9168    8.2927   -4.4307 C   0  0  0  0  0  0  0  0  0  0  0  0
    9.4648    2.8122  -13.3425 C   0  0  0  0  0  0  0  0  0  0  0  0
  1  2  1  0  0  0  0
  2  3  1  0  0  0  0
  2  7  2  0  0  0  0
  4  3  1  6  0  0  0
  4  5  1  0  0  0  0
  4  6  1  0  0  0  0
  4  8  1  0  0  0  0
  5  9  2  0  0  0  0
  6 13  1  0  0  0  0
  7 12  1  0  0  0  0
  8 19  2  0  0  0  0
 10  7  1  1  0  0  0
 10 14  1  0  0  0  0
 10 17  1  0  0  0  0
 11  8  1  6  0  0  0
 11 20  1  0  0  0  0
 11 32  1  0  0  0  0
 12 18  1  0  0  0  0
 12 30  1  1  0  0  0
 12 32  1  0  0  0  0
 13 16  2  0  0  0  0
 13 21  1  0  0  0  0
 14  5  1  1  0  0  0
 14 15  1  0  0  0  0
 14 20  1  0  0  0  0
 15 31  1  0  0  0  0
 15 42  1  0  0  0  0
 17 18  1  0  0  0  0
 17 23  1  0  0  0  0
 18 25  1  0  0  0  0
 18 26  1  0  0  0  0
 19 21  1  0  0  0  0
 19 35  1  0  0  0  0
 20 23  1  0  0  0  0
 21 22  2  0  0  0  0
 22 27  1  0  0  0  0
 23 24  1  0  0  0  0
 23 42  1  0  0  0  0
 24 26  1  0  0  0  0
 26 28  2  0  0  0  0
 27 34  2  0  0  0  0
 27 36  1  0  0  0  0
 28 29  1  0  0  0  0
 28 32  1  0  0  0  0
 29 38  2  0  0  0  0
 31 33  2  0  0  0  0
 31 39  1  0  0  0  0
 34 35  1  0  0  0  0
 35 38  1  0  0  0  0
 36 37  1  0  0  0  0
 36 40  1  0  0  0  0
 36 41  1  0  0  0  0
M  END
$$$$

 OpenBabel10082411353D

 42 51  0  0  0  0  0  0  0  0999 V2000
    8.0806    9.0240  -12.7589 C   0  0  0  0  0  0  0  0  0  0  0  0
    8.6514    7.8645  -12.2948 C   0  0  0  0  0  0  0  0  0  0  0  0
    9.9575    7.9974  -11.8426 C   0  0  0  0  0  0  0  0  0  0  0  0
   10.7657    6.8667  -11.6050 C   0  0  1  0  0  0  0  0  0  0  0  0
   10.7682    5.9590  -12.8271 C   0  0  0  0  0  0  0  0  0  0  0  0
   12.1553    7.3846  -11.2315 C   0  0  0  0  0  0  0  0  0  0  0  0
    8.0676    6.6451  -12.2974 C   0  0  0  0  0  0  0  0  0  0  0  0
   10.1892    6.1240  -10.3860 C   0  0  0  0  0  0  0  0  0  0  0  0
   11.8375    5.4373  -13.3240 O   0  0  0  0  0  0  0  0  0  0  0  0
    8.6785    5.4761  -13.0273 C   0  0  1  0  0  0  0  0  0  0  0  0
    9.1969    5.2405  -10.4969 C   0  0  2  0  0  0  0  0  0  0  0  0
    7.2213    6.2210  -11.3074 C   0  0  2  0  0  0  0  0  0  0  0  0
   12.5590    7.6872   -9.9896 C   0  0  0  0  0  0  0  0  0  0  0  0
    9.7633    5.0333  -12.9720 C   0  0  1  0  0  0  0  0  0  0  0  0
   10.0661    4.0167  -14.0373 N   0  0  0  0  0  0  0  0  0  0  0  0
   13.6906    8.3004   -9.6233 O   0  0  0  0  0  0  0  0  0  0  0  0
    7.6357    4.5123  -12.6317 C   0  0  2  0  0  0  0  0  0  0  0  0
    6.8831    4.9171  -11.7031 C   0  0  2  0  0  0  0  0  0  0  0  0
   10.5937    6.6967   -9.1779 C   0  0  0  0  0  0  0  0  0  0  0  0
    9.5087    4.3263  -11.6925 C   0  0  2  0  0  0  0  0  0  0  0  0
   11.6359    7.4449   -8.9125 C   0  0  0  0  0  0  0  0  0  0  0  0
   11.9716    7.9159   -7.6200 C   0  0  0  0  0  0  0  0  0  0  0  0
    8.4648    3.6122  -12.2840 C   0  0  1  0  0  0  0  0  0  0  0  0
    7.9253    2.8004  -11.3926 C   0  0  0  0  0  0  0  0  0  0  0  0
    5.6047    4.5059  -11.7589 C   0  0  0  0  0  0  0  0  0  0  0  0
    7.6606    4.1297  -10.5699 C   0  0  0  0  0  0  0  0  0  0  0  0
   10.9559    7.6849   -6.6057 C   0  0  0  0  0  0  0  0  0  0  0  0
    8.0094    4.5092   -9.5664 C   0  0  0  0  0  0  0  0  0  0  0  0
    8.3033    4.0627   -8.4980 C   0  0  0  0  0  0  0  0  0  0  0  0
    6.3587    7.1012  -11.0392 O   0  0  0  0  0  0  0  0  0  0  0  0
   11.1885    8.2709   -5.2029 C   0  0  0  0  0  0  0  0  0  0  0  0
    8.1551    5.8688  -10.2415 C   0  0  0  0  0  0  0  0  0  0  0  0
    9.3562    2.8931  -13.4173 C   0  0  0  0  0  0  0  0  0  0  0  0
    9.4006    1.8057  -13.6789 O   0  0  0  0  0  0  0  0  0  0  0  0
   10.6448    3.9324  -15.2556 C   0  0  0  0  0  0  0  0  0  0  0  0
    9.9004    6.8953   -6.7235 C   0  0  0  0  0  0  0  0  0  0  0  0
    8.1584    4.7418   -7.5351 O   0  0  0  0  0  0  0  0  0  0  0  0
    8.5999    2.9050   -8.2804 O   0  0  0  0  0  0  0  0  0  0  0  0
    9.6754    6.3854   -8.0858 C   0  0  1  0  0  0  0  0  0  0  0  0
   11.6213    9.7477   -5.1821 C   0  0  0  0  0  0  0  0  0  0  0  0
   12.6772    9.8805   -4.1285 C   0  0  0  0  0  0  0  0  0  0  0  0
    8.3197    6.0753   -8.0533 C   0  0  0  0  0  0  0  0  0  0  0  0
  1  2  1  0  0  0  0
  2  3  1  0  0  0  0
  2  7  2  0  0  0  0
  4  3  1  6  0  0  0
  4  5  1  0  0  0  0
  4  6  1  0  0  0  0
  4  8  1  0  0  0  0
  5  9  2  0  0  0  0
  6 13  1  0  0  0  0
  7 12  1  0  0  0  0
  8 11  1  0  0  0  0
  8 19  2  0  0  0  0
 10  7  1  1  0  0  0
 10 14  1  0  0  0  0
 10 17  1  0  0  0  0
 11 20  1  0  0  0  0
 11 32  1  6  0  0  0
 12 18  1  0  0  0  0
 12 30  1  6  0  0  0
 13 16  2  0  0  0  0
 13 21  1  0  0  0  0
 14  5  1  1  0  0  0
 14 15  1  0  0  0  0
 14 20  1  0  0  0  0
 15 33  1  0  0  0  0
 15 35  1  0  0  0  0
 17 18  1  0  0  0  0
 17 23  1  0  0  0  0
 18 25  1  0  0  0  0
 18 26  1  0  0  0  0
 19 21  1  0  0  0  0
 19 39  1  0  0  0  0
 20 23  1  0  0  0  0
 21 22  2  0  0  0  0
 22 27  1  0  0  0  0
 23 24  1  0  0  0  0
 23 33  1  0  0  0  0
 24 26  1  0  0  0  0
 26 28  2  0  0  0  0
 27 31  1  0  0  0  0
 27 36  2  0  0  0  0
 28 29  1  0  0  0  0
 28 32  1  0  0  0  0
 29 37  1  0  0  0  0
 29 38  2  0  0  0  0
 31 40  1  0  0  0  0
 33 34  2  0  0  0  0
 36 39  1  0  0  0  0
 37 42  1  0  0  0  0
 39 42  1  0  0  0  0
 40 41  1  0  0  0  0
M  END
$$$$

 OpenBabel10082411353D

 42 50  0  0  0  0  0  0  0  0999 V2000
   12.7863    7.8241  -14.2109 C   0  0  0  0  0  0  0  0  0  0  0  0
   12.4233    7.7158  -13.0289 C   0  0  0  0  0  0  0  0  0  0  0  0
   11.3194    6.8571  -12.8028 C   0  0  0  0  0  0  0  0  0  0  0  0
   12.3150    7.2021  -15.3582 C   0  0  0  0  0  0  0  0  0  0  0  0
   11.2733    6.2739  -15.1502 C   0  0  0  0  0  0  0  0  0  0  0  0
   10.8099    6.0126  -13.8600 C   0  0  0  0  0  0  0  0  0  0  0  0
    9.6782    5.1428  -13.6488 C   0  0  0  0  0  0  0  0  0  0  0  0
    8.5753    5.3880  -12.9589 N   0  0  0  0  0  0  0  0  0  0  0  0
    8.3226    6.7011  -12.3862 C   0  0  0  0  0  0  0  0  0  0  0  0
    9.8502    3.8578  -14.0728 C   0  0  0  0  0  0  0  0  0  0  0  0
    7.3864    7.4720  -13.0530 C   0  0  0  0  0  0  0  0  0  0  0  0
    6.2412    7.8486  -12.2599 C   0  0  0  0  0  0  0  0  0  0  0  0
    7.6425    4.4186  -12.7943 C   0  0  0  0  0  0  0  0  0  0  0  0
   11.0297    3.2482  -14.8053 C   0  0  0  0  0  0  0  0  0  0  0  0
    8.6802    2.8955  -13.7960 C   0  0  0  0  0  0  0  0  0  0  0  0
    8.8565    1.5917  -14.3582 O   0  0  0  0  0  0  0  0  0  0  0  0
    7.6903    3.2226  -13.1994 N   0  0  0  0  0  0  0  0  0  0  0  0
    6.5724    2.3444  -12.8378 C   0  0  0  0  0  0  0  0  0  0  0  0
    9.0225    7.0353  -11.3259 C   0  0  0  0  0  0  0  0  0  0  0  0
    6.2405    4.8489  -12.4515 C   0  0  0  0  0  0  0  0  0  0  0  0
   10.5875    7.0617  -11.5321 C   0  0  0  0  0  0  0  0  0  0  0  0
   11.0960    7.6093  -10.4100 C   0  0  0  0  0  0  0  0  0  0  0  0
    8.4039    7.3336  -10.1102 C   0  0  0  0  0  0  0  0  0  0  0  0
    5.5911    3.3517  -12.3508 C   0  0  0  0  0  0  0  0  0  0  0  0
   12.6259    7.6530  -10.3901 C   0  0  0  0  0  0  0  0  0  0  0  0
   10.4284    7.7784   -9.2128 C   0  0  1  0  0  0  0  0  0  0  0  0
    9.2236    7.5051   -9.0617 C   0  0  2  0  0  0  0  0  0  0  0  0
    8.7145    7.3063   -7.7135 N   0  0  0  0  0  0  0  0  0  0  0  0
   11.0621    7.5242   -7.8430 C   0  0  1  0  0  0  0  0  0  0  0  0
   12.0213    8.4787   -7.3268 C   0  0  0  0  0  0  0  0  0  0  0  0
   13.1241    8.0749  -11.7293 C   0  0  0  0  0  0  0  0  0  0  0  0
    9.9178    7.6308   -6.9884 C   0  0  2  0  0  0  0  0  0  0  0  0
   12.0768    8.3481   -5.8539 C   0  0  0  0  0  0  0  0  0  0  0  0
   10.0351    6.6960   -5.8250 C   0  0  0  0  0  0  0  0  0  0  0  0
   11.2104    7.4471   -5.1985 C   0  0  0  0  0  0  0  0  0  0  0  0
   12.9004    9.3019   -5.1631 C   0  0  0  0  0  0  0  0  0  0  0  0
   11.4590    7.3245   -3.8843 C   0  0  0  0  0  0  0  0  0  0  0  0
   10.7083    6.2477   -3.0781 F   0  0  0  0  0  0  0  0  0  0  0  0
   12.2694    8.0475   -3.0001 C   0  0  0  0  0  0  0  0  0  0  0  0
   12.4021    7.9020   -1.5860 C   0  0  0  0  0  0  0  0  0  0  0  0
   13.6227   10.3166   -5.7749 F   0  0  0  0  0  0  0  0  0  0  0  0
   13.0208    9.1605   -3.6531 C   0  0  0  0  0  0  0  0  0  0  0  0
  1  2  2  0  0  0  0
  1  4  1  0  0  0  0
  2  3  1  0  0  0  0
  2 31  1  0  0  0  0
  3  6  2  0  0  0  0
  3 21  1  0  0  0  0
  4  5  2  0  0  0  0
  5  6  1  0  0  0  0
  6  7  1  0  0  0  0
  7  8  1  0  0  0  0
  7 10  2  0  0  0  0
  8  9  1  0  0  0  0
  8 13  1  0  0  0  0
  9 11  1  0  0  0  0
  9 19  2  0  0  0  0
 10 14  1  0  0  0  0
 10 15  1  0  0  0  0
 11 12  1  0  0  0  0
 13 17  1  0  0  0  0
 13 20  2  0  0  0  0
 15 16  2  0  0  0  0
 15 17  1  0  0  0  0
 17 18  1  0  0  0  0
 18 24  1  0  0  0  0
 19 21  1  0  0  0  0
 19 23  1  0  0  0  0
 20 24  1  0  0  0  0
 21 22  2  0  0  0  0
 22 25  1  0  0  0  0
 25 31  2  0  0  0  0
 26 22  1  6  0  0  0
 26 27  1  0  0  0  0
 26 29  1  0  0  0  0
 27 23  1  6  0  0  0
 27 28  1  0  0  0  0
 28 32  1  0  0  0  0
 29 30  1  1  0  0  0
 29 32  1  0  0  0  0
 30 33  1  0  0  0  0
 32 34  1  1  0  0  0
 33 35  1  0  0  0  0
 33 36  2  0  0  0  0
 34 35  1  0  0  0  0
 35 37  2  0  0  0  0
 36 41  1  0  0  0  0
 36 42  1  0  0  0  0
 37 38  1  0  0  0  0
 37 39  1  0  0  0  0
 39 40  1  0  0  0  0
 39 42  2  0  0  0  0
M  END
$$$$

 OpenBabel10082411353D

 42 47  0  0  0  0  0  0  0  0999 V2000
   11.6836    6.0105   -4.8831 C   0  0  0  0  0  0  0  0  0  0  0  0
   11.1291    7.0732   -5.4395 C   0  0  0  0  0  0  0  0  0  0  0  0
   10.6954    7.0156   -6.8073 C   0  0  0  0  0  0  0  0  0  0  0  0
   10.2502    8.1187   -7.5536 C   0  0  2  0  0  0  0  0  0  0  0  0
   11.1205    8.4712   -4.9629 C   0  0  0  0  0  0  0  0  0  0  0  0
   10.8655    8.3511   -8.7960 C   0  0  0  0  0  0  0  0  0  0  0  0
   10.2922    7.8843   -9.9985 C   0  0  0  0  0  0  0  0  0  0  0  0
   10.4654    9.6993   -5.6120 C   0  0  0  0  0  0  0  0  0  0  0  0
   10.3510    9.5971   -7.0014 C   0  0  0  0  0  0  0  0  0  0  0  0
   12.2462    6.3351   -3.5020 C   0  0  0  0  0  0  0  0  0  0  0  0
   11.0471    7.5309  -11.1063 C   0  0  0  0  0  0  0  0  0  0  0  0
   11.7288    8.6923   -3.6518 C   0  0  0  0  0  0  0  0  0  0  0  0
   12.3991    7.7501  -11.1145 C   0  0  0  0  0  0  0  0  0  0  0  0
   12.3738    7.7580   -2.9599 C   0  0  0  0  0  0  0  0  0  0  0  0
   13.1285    8.5075  -10.1661 O   0  0  0  0  0  0  0  0  0  0  0  0
    9.0407    7.3775  -10.0973 N   0  0  0  0  0  0  0  0  0  0  0  0
    8.9787    6.9473  -11.4664 N   0  0  0  0  0  0  0  0  0  0  0  0
   13.1012    7.4459  -12.3707 C   0  0  0  0  0  0  0  0  0  0  0  0
   12.2395    6.9724  -13.2444 C   0  0  0  0  0  0  0  0  0  0  0  0
   10.2768    7.0170  -11.9799 C   0  0  0  0  0  0  0  0  0  0  0  0
   12.9237    6.5822  -14.5759 O   0  0  0  0  0  0  0  0  0  0  0  0
   10.8906    6.6526  -13.2252 C   0  0  0  0  0  0  0  0  0  0  0  0
   12.2396    6.1290  -15.6916 C   0  0  0  0  0  0  0  0  0  0  0  0
    7.8036    6.1825  -11.9342 C   0  0  0  0  0  0  0  0  0  0  0  0
   12.5015    4.7115  -15.7686 C   0  0  0  0  0  0  0  0  0  0  0  0
    7.1685    6.9992  -12.8245 C   0  0  0  0  0  0  0  0  0  0  0  0
   11.2461    3.8540  -15.4851 C   0  0  0  0  0  0  0  0  0  0  0  0
    7.6237    4.9154  -11.6529 C   0  0  0  0  0  0  0  0  0  0  0  0
    6.6378    4.1960  -12.2267 C   0  0  0  0  0  0  0  0  0  0  0  0
    6.2717    2.7675  -11.9743 C   0  0  0  0  0  0  0  0  0  0  0  0
    6.6569    1.8873  -12.9460 C   0  0  0  0  0  0  0  0  0  0  0  0
    6.2393    0.5737  -12.7991 C   0  0  0  0  0  0  0  0  0  0  0  0
    5.7332    5.0094  -13.0098 C   0  0  0  0  0  0  0  0  0  0  0  0
   11.4513    2.5769  -15.3310 O   0  0  0  0  0  0  0  0  0  0  0  0
    7.4197    8.4494  -13.1889 C   0  0  0  0  0  0  0  0  0  0  0  0
    5.9626    6.3199  -13.3932 C   0  0  0  0  0  0  0  0  0  0  0  0
   10.0883    4.4615  -15.2970 O   0  0  0  0  0  0  0  0  0  0  0  0
    7.5717    2.2161  -13.9599 C   0  0  0  0  0  0  0  0  0  0  0  0
    6.8419   -0.3541  -13.5416 C   0  0  0  0  0  0  0  0  0  0  0  0
    8.0924    1.1839  -14.7456 C   0  0  0  0  0  0  0  0  0  0  0  0
    9.0562    1.5294  -15.8005 O   0  0  0  0  0  0  0  0  0  0  0  0
    7.7079   -0.1186  -14.5782 C   0  0  0  0  0  0  0  0  0  0  0  0
  1  2  1  0  0  0  0
  1 10  2  0  0  0  0
  2  3  1  0  0  0  0
  2  5  2  0  0  0  0
  3  4  1  0  0  0  0
  4  6  1  6  0  0  0
  4  9  1  0  0  0  0
  5  8  1  0  0  0  0
  5 12  1  0  0  0  0
  6  7  1  0  0  0  0
  7 11  1  0  0  0  0
  7 16  2  0  0  0  0
  8  9  1  0  0  0  0
 10 14  1  0  0  0  0
 11 13  2  0  0  0  0
 11 20  1  0  0  0  0
 12 14  2  0  0  0  0
 13 15  1  0  0  0  0
 13 18  1  0  0  0  0
 16 17  1  0  0  0  0
 17 20  1  0  0  0  0
 17 24  1  0  0  0  0
 18 19  2  0  0  0  0
 19 21  1  0  0  0  0
 19 22  1  0  0  0  0
 20 22  2  0  0  0  0
 21 23  1  0  0  0  0
 23 25  1  0  0  0  0
 24 26  2  0  0  0  0
 24 28  1  0  0  0  0
 25 27  1  0  0  0  0
 26 35  1  0  0  0  0
 26 36  1  0  0  0  0
 27 34  2  0  0  0  0
 27 37  1  0  0  0  0
 28 29  2  0  0  0  0
 29 30  1  0  0  0  0
 29 33  1  0  0  0  0
 30 31  1  0  0  0  0
 31 32  1  0  0  0  0
 31 38  2  0  0  0  0
 32 39  2  0  0  0  0
 33 36  2  0  0  0  0
 38 40  1  0  0  0  0
 39 42  1  0  0  0  0
 40 41  1  0  0  0  0
 40 42  2  0  0  0  0
M  END
$$$$

 OpenBabel10082411353D

 42 52  0  0  0  0  0  0  0  0999 V2000
    8.0806    9.0240  -12.7589 C   0  0  0  0  0  0  0  0  0  0  0  0
    8.6514    7.8645  -12.2948 C   0  0  0  0  0  0  0  0  0  0  0  0
    9.9575    7.9974  -11.8426 C   0  0  0  0  0  0  0  0  0  0  0  0
   10.7657    6.8667  -11.6050 C   0  0  1  0  0  0  0  0  0  0  0  0
   10.7682    5.9590  -12.8271 C   0  0  0  0  0  0  0  0  0  0  0  0
   12.1553    7.3846  -11.2315 C   0  0  0  0  0  0  0  0  0  0  0  0
    8.0676    6.6451  -12.2974 C   0  0  0  0  0  0  0  0  0  0  0  0
   10.1892    6.1240  -10.3860 C   0  0  0  0  0  0  0  0  0  0  0  0
   11.8375    5.4373  -13.3240 O   0  0  0  0  0  0  0  0  0  0  0  0
    8.6785    5.4761  -13.0273 C   0  0  1  0  0  0  0  0  0  0  0  0
    9.1969    5.2405  -10.4969 C   0  0  2  0  0  0  0  0  0  0  0  0
    7.2213    6.2210  -11.3074 C   0  0  2  0  0  0  0  0  0  0  0  0
   12.5590    7.6872   -9.9896 C   0  0  0  0  0  0  0  0  0  0  0  0
    9.7633    5.0333  -12.9720 C   0  0  1  0  0  0  0  0  0  0  0  0
   10.0661    4.0167  -14.0373 N   0  0  0  0  0  0  0  0  0  0  0  0
   13.6906    8.3004   -9.6233 O   0  0  0  0  0  0  0  0  0  0  0  0
    7.6357    4.5123  -12.6317 C   0  0  2  0  0  0  0  0  0  0  0  0
    6.8831    4.9171  -11.7031 C   0  0  2  0  0  0  0  0  0  0  0  0
   10.5937    6.6967   -9.1779 C   0  0  0  0  0  0  0  0  0  0  0  0
    9.5087    4.3263  -11.6925 C   0  0  2  0  0  0  0  0  0  0  0  0
   11.6359    7.4449   -8.9125 C   0  0  0  0  0  0  0  0  0  0  0  0
   11.9716    7.9159   -7.6200 C   0  0  0  0  0  0  0  0  0  0  0  0
    8.4648    3.6122  -12.2840 C   0  0  1  0  0  0  0  0  0  0  0  0
    7.9253    2.8004  -11.3926 C   0  0  0  0  0  0  0  0  0  0  0  0
    5.6047    4.5059  -11.7589 C   0  0  0  0  0  0  0  0  0  0  0  0
    7.6606    4.1297  -10.5699 C   0  0  0  0  0  0  0  0  0  0  0  0
   10.9559    7.6849   -6.6057 C   0  0  0  0  0  0  0  0  0  0  0  0
    8.0094    4.5092   -9.5664 C   0  0  0  0  0  0  0  0  0  0  0  0
    8.3033    4.0627   -8.4980 C   0  0  0  0  0  0  0  0  0  0  0  0
    6.3587    7.1012  -11.0392 O   0  0  0  0  0  0  0  0  0  0  0  0
   11.0186    3.9598  -14.9226 C   0  0  0  0  0  0  0  0  0  0  0  0
    8.1758    5.8633  -10.2511 C   0  0  1  0  0  0  0  0  0  0  0  0
   11.4648    2.7104  -15.2650 O   0  0  0  0  0  0  0  0  0  0  0  0
    9.9512    6.8220   -6.8436 C   0  0  0  0  0  0  0  0  0  0  0  0
    9.6899    6.3705   -8.1082 C   0  0  2  0  0  0  0  0  0  0  0  0
   11.2597    8.2901   -5.2396 C   0  0  0  0  0  0  0  0  0  0  0  0
   11.6068    9.7354   -5.2006 C   0  0  0  0  0  0  0  0  0  0  0  0
    9.4261    2.7718  -13.6670 C   0  0  0  0  0  0  0  0  0  0  0  0
    9.1568    5.0346   -7.7426 C   0  0  0  0  0  0  0  0  0  0  0  0
   11.2083    4.9304  -15.6781 O   0  0  0  0  0  0  0  0  0  0  0  0
   12.3571    7.6644   -4.5780 C   0  0  0  0  0  0  0  0  0  0  0  0
   10.2454    8.2171   -4.3825 O   0  0  0  0  0  0  0  0  0  0  0  0
  1  2  1  0  0  0  0
  2  3  1  0  0  0  0
  2  7  2  0  0  0  0
  4  3  1  6  0  0  0
  4  5  1  0  0  0  0
  4  6  1  0  0  0  0
  4  8  1  0  0  0  0
  5  9  2  0  0  0  0
  6 13  1  0  0  0  0
  7 12  1  0  0  0  0
  8 19  2  0  0  0  0
 10  7  1  1  0  0  0
 10 14  1  0  0  0  0
 10 17  1  0  0  0  0
 11  8  1  6  0  0  0
 11 20  1  0  0  0  0
 11 32  1  0  0  0  0
 12 18  1  0  0  0  0
 12 30  1  1  0  0  0
 12 32  1  0  0  0  0
 13 16  2  0  0  0  0
 13 21  1  0  0  0  0
 14  5  1  1  0  0  0
 14 15  1  0  0  0  0
 14 20  1  0  0  0  0
 15 31  1  0  0  0  0
 15 38  1  0  0  0  0
 17 18  1  0  0  0  0
 17 23  1  0  0  0  0
 18 25  1  0  0  0  0
 18 26  1  0  0  0  0
 19 21  1  0  0  0  0
 19 35  1  0  0  0  0
 20 23  1  0  0  0  0
 21 22  2  0  0  0  0
 22 27  1  0  0  0  0
 23 24  1  0  0  0  0
 23 38  1  0  0  0  0
 24 26  1  0  0  0  0
 26 28  2  0  0  0  0
 27 34  2  0  0  0  0
 27 36  1  0  0  0  0
 28 29  1  0  0  0  0
 28 32  1  0  0  0  0
 29 39  1  0  0  0  0
 31 33  2  0  0  0  0
 31 40  1  0  0  0  0
 34 35  1  0  0  0  0
 35 39  1  0  0  0  0
 36 37  1  0  0  0  0
 36 41  1  0  0  0  0
 36 42  1  0  0  0  0
M  END
$$$$

 OpenBabel10082411353D

 42 52  0  0  0  0  0  0  0  0999 V2000
    8.0806    9.0240  -12.7589 C   0  0  0  0  0  0  0  0  0  0  0  0
    8.6514    7.8645  -12.2948 C   0  0  0  0  0  0  0  0  0  0  0  0
    9.9575    7.9974  -11.8426 C   0  0  0  0  0  0  0  0  0  0  0  0
   10.7657    6.8667  -11.6050 C   0  0  1  0  0  0  0  0  0  0  0  0
   10.7682    5.9590  -12.8271 C   0  0  0  0  0  0  0  0  0  0  0  0
   12.1553    7.3846  -11.2315 C   0  0  0  0  0  0  0  0  0  0  0  0
    8.0676    6.6451  -12.2974 C   0  0  0  0  0  0  0  0  0  0  0  0
   10.1892    6.1240  -10.3860 C   0  0  0  0  0  0  0  0  0  0  0  0
   11.8375    5.4373  -13.3240 O   0  0  0  0  0  0  0  0  0  0  0  0
    8.6785    5.4761  -13.0273 C   0  0  1  0  0  0  0  0  0  0  0  0
    9.1969    5.2405  -10.4969 C   0  0  2  0  0  0  0  0  0  0  0  0
    7.2213    6.2210  -11.3074 C   0  0  2  0  0  0  0  0  0  0  0  0
   12.5590    7.6872   -9.9896 C   0  0  0  0  0  0  0  0  0  0  0  0
    9.7633    5.0333  -12.9720 C   0  0  1  0  0  0  0  0  0  0  0  0
   10.0661    4.0167  -14.0373 N   0  0  0  0  0  0  0  0  0  0  0  0
   13.6906    8.3004   -9.6233 O   0  0  0  0  0  0  0  0  0  0  0  0
    7.6357    4.5123  -12.6317 C   0  0  2  0  0  0  0  0  0  0  0  0
    6.8831    4.9171  -11.7031 C   0  0  2  0  0  0  0  0  0  0  0  0
   10.5937    6.6967   -9.1779 C   0  0  0  0  0  0  0  0  0  0  0  0
    9.5087    4.3263  -11.6925 C   0  0  2  0  0  0  0  0  0  0  0  0
   11.6359    7.4449   -8.9125 C   0  0  0  0  0  0  0  0  0  0  0  0
   11.9716    7.9159   -7.6200 C   0  0  0  0  0  0  0  0  0  0  0  0
    8.4648    3.6122  -12.2840 C   0  0  1  0  0  0  0  0  0  0  0  0
    7.9253    2.8004  -11.3926 C   0  0  0  0  0  0  0  0  0  0  0  0
    5.6047    4.5059  -11.7589 C   0  0  0  0  0  0  0  0  0  0  0  0
    7.6606    4.1297  -10.5699 C   0  0  0  0  0  0  0  0  0  0  0  0
   10.9559    7.6849   -6.6057 C   0  0  0  0  0  0  0  0  0  0  0  0
    8.0094    4.5092   -9.5664 C   0  0  0  0  0  0  0  0  0  0  0  0
    8.3033    4.0627   -8.4980 C   0  0  0  0  0  0  0  0  0  0  0  0
    6.3587    7.1012  -11.0392 O   0  0  0  0  0  0  0  0  0  0  0  0
   11.0186    3.9598  -14.9226 C   0  0  0  0  0  0  0  0  0  0  0  0
    8.1758    5.8633  -10.2511 C   0  0  1  0  0  0  0  0  0  0  0  0
   11.4648    2.7104  -15.2650 O   0  0  0  0  0  0  0  0  0  0  0  0
    9.9512    6.8220   -6.8436 C   0  0  0  0  0  0  0  0  0  0  0  0
    9.6899    6.3705   -8.1082 C   0  0  2  0  0  0  0  0  0  0  0  0
   11.2597    8.2901   -5.2396 C   0  0  0  0  0  0  0  0  0  0  0  0
   11.6068    9.7354   -5.2006 C   0  0  0  0  0  0  0  0  0  0  0  0
    9.4261    2.7718  -13.6670 C   0  0  0  0  0  0  0  0  0  0  0  0
    9.1568    5.0346   -7.7426 C   0  0  0  0  0  0  0  0  0  0  0  0
   11.5635    4.9451  -15.5137 O   0  0  0  0  0  0  0  0  0  0  0  0
   12.3566    7.6642   -4.5769 C   0  0  0  0  0  0  0  0  0  0  0  0
    9.9494    8.2392   -4.3865 C   0  0  0  0  0  0  0  0  0  0  0  0
  1  2  1  0  0  0  0
  2  3  1  0  0  0  0
  2  7  2  0  0  0  0
  4  3  1  6  0  0  0
  4  5  1  0  0  0  0
  4  6  1  0  0  0  0
  4  8  1  0  0  0  0
  5  9  2  0  0  0  0
  6 13  1  0  0  0  0
  7 12  1  0  0  0  0
  8 19  2  0  0  0  0
 10  7  1  1  0  0  0
 10 14  1  0  0  0  0
 10 17  1  0  0  0  0
 11  8  1  6  0  0  0
 11 20  1  0  0  0  0
 11 32  1  0  0  0  0
 12 18  1  0  0  0  0
 12 30  1  1  0  0  0
 12 32  1  0  0  0  0
 13 16  2  0  0  0  0
 13 21  1  0  0  0  0
 14  5  1  1  0  0  0
 14 15  1  0  0  0  0
 14 20  1  0  0  0  0
 15 31  1  0  0  0  0
 15 38  1  0  0  0  0
 17 18  1  0  0  0  0
 17 23  1  0  0  0  0
 18 25  1  0  0  0  0
 18 26  1  0  0  0  0
 19 21  1  0  0  0  0
 19 35  1  0  0  0  0
 20 23  1  0  0  0  0
 21 22  2  0  0  0  0
 22 27  1  0  0  0  0
 23 24  1  0  0  0  0
 23 38  1  0  0  0  0
 24 26  1  0  0  0  0
 26 28  2  0  0  0  0
 27 34  2  0  0  0  0
 27 36  1  0  0  0  0
 28 29  1  0  0  0  0
 28 32  1  0  0  0  0
 29 39  1  0  0  0  0
 31 33  2  0  0  0  0
 31 40  1  0  0  0  0
 34 35  1  0  0  0  0
 35 39  1  0  0  0  0
 36 37  1  0  0  0  0
 36 41  1  0  0  0  0
 36 42  1  0  0  0  0
M  END
$$$$

 OpenBabel10082411353D

 26 28  0  0  0  0  0  0  0  0999 V2000
   13.4846    9.3979   -5.2029 C   0  0  0  0  0  0  0  0  0  0  0  0
   12.7871    9.3913   -6.3118 C   0  0  0  0  0  0  0  0  0  0  0  0
   11.3648    9.1424   -6.2947 C   0  0  0  0  0  0  0  0  0  0  0  0
   10.8726    9.0146   -5.0034 C   0  0  0  0  0  0  0  0  0  0  0  0
    9.3815    8.7865   -5.0373 F   0  0  0  0  0  0  0  0  0  0  0  0
   11.4703    9.0293   -3.8455 C   0  0  0  0  0  0  0  0  0  0  0  0
   10.7697    8.8716   -2.6325 F   0  0  0  0  0  0  0  0  0  0  0  0
   12.8710    9.2169   -3.9429 C   0  0  0  0  0  0  0  0  0  0  0  0
   10.4781    9.1384   -7.6682 C   0  0  0  0  0  0  0  0  0  0  0  0
   11.1390    9.1306   -8.8047 C   0  0  0  0  0  0  0  0  0  0  0  0
   10.8705    7.9638   -9.7397 C   0  0  0  0  0  0  0  0  0  0  0  0
   10.2908    8.0632  -10.8488 C   0  0  0  0  0  0  0  0  0  0  0  0
   10.4238    7.0375  -11.8282 C   0  0  0  0  0  0  0  0  0  0  0  0
    9.2433    8.9518  -11.2558 C   0  0  0  0  0  0  0  0  0  0  0  0
    8.5277    8.8707  -12.4031 C   0  0  0  0  0  0  0  0  0  0  0  0
    7.4469    9.8411  -12.5572 F   0  0  0  0  0  0  0  0  0  0  0  0
    8.5235    7.7173  -13.1606 C   0  0  0  0  0  0  0  0  0  0  0  0
   11.3830    6.8673   -9.1997 O   0  0  0  0  0  0  0  0  0  0  0  0
    9.5899    6.8335  -12.9487 C   0  0  0  0  0  0  0  0  0  0  0  0
    9.7937    5.6972  -13.8884 C   0  0  0  0  0  0  0  0  0  0  0  0
    9.2954    4.5094  -13.5229 C   0  0  0  0  0  0  0  0  0  0  0  0
    9.5277    3.2996  -14.2292 C   0  0  0  0  0  0  0  0  0  0  0  0
   10.9179    5.6355  -14.6892 C   0  0  0  0  0  0  0  0  0  0  0  0
   10.7142    3.3449  -15.1059 C   0  0  0  0  0  0  0  0  0  0  0  0
   11.0450    2.0826  -15.6252 F   0  0  0  0  0  0  0  0  0  0  0  0
   11.3584    4.4694  -15.2928 C   0  0  0  0  0  0  0  0  0  0  0  0
  1  2  1  0  0  0  0
  1  8  2  0  0  0  0
  2  3  2  0  0  0  0
  3  4  1  0  0  0  0
  3  9  1  0  0  0  0
  4  5  1  0  0  0  0
  4  6  2  0  0  0  0
  6  7  1  0  0  0  0
  6  8  1  0  0  0  0
  9 10  1  0  0  0  0
 10 11  1  0  0  0  0
 11 12  1  0  0  0  0
 11 18  2  0  0  0  0
 12 13  2  0  0  0  0
 12 14  1  0  0  0  0
 13 19  1  0  0  0  0
 14 15  2  0  0  0  0
 15 16  1  0  0  0  0
 15 17  1  0  0  0  0
 17 19  2  0  0  0  0
 19 20  1  0  0  0  0
 20 21  1  0  0  0  0
 20 23  2  0  0  0  0
 21 22  2  0  0  0  0
 22 24  1  0  0  0  0
 23 26  1  0  0  0  0
 24 25  1  0  0  0  0
 24 26  2  0  0  0  0
M  END
$$$$

 OpenBabel10082411353D

 42 48  0  0  0  0  0  0  0  0999 V2000
   11.6836    6.0105   -4.8831 C   0  0  0  0  0  0  0  0  0  0  0  0
   11.1291    7.0732   -5.4395 C   0  0  0  0  0  0  0  0  0  0  0  0
   10.6954    7.0156   -6.8073 C   0  0  0  0  0  0  0  0  0  0  0  0
   10.2502    8.1187   -7.5536 C   0  0  2  0  0  0  0  0  0  0  0  0
   11.1205    8.4712   -4.9629 C   0  0  0  0  0  0  0  0  0  0  0  0
   10.8655    8.3511   -8.7960 C   0  0  0  0  0  0  0  0  0  0  0  0
   10.2922    7.8843   -9.9985 C   0  0  0  0  0  0  0  0  0  0  0  0
   10.4654    9.6993   -5.6120 C   0  0  0  0  0  0  0  0  0  0  0  0
   10.3510    9.5971   -7.0014 C   0  0  0  0  0  0  0  0  0  0  0  0
   12.2462    6.3351   -3.5020 C   0  0  0  0  0  0  0  0  0  0  0  0
   11.0471    7.5309  -11.1063 C   0  0  0  0  0  0  0  0  0  0  0  0
   11.7288    8.6923   -3.6518 C   0  0  0  0  0  0  0  0  0  0  0  0
   12.3991    7.7501  -11.1145 C   0  0  0  0  0  0  0  0  0  0  0  0
   12.3738    7.7580   -2.9599 C   0  0  0  0  0  0  0  0  0  0  0  0
   13.1285    8.5075  -10.1661 O   0  0  0  0  0  0  0  0  0  0  0  0
    9.0407    7.3775  -10.0973 N   0  0  0  0  0  0  0  0  0  0  0  0
    8.9787    6.9473  -11.4664 N   0  0  0  0  0  0  0  0  0  0  0  0
   13.1012    7.4459  -12.3707 C   0  0  0  0  0  0  0  0  0  0  0  0
   12.2395    6.9724  -13.2444 C   0  0  0  0  0  0  0  0  0  0  0  0
   10.2768    7.0170  -11.9799 C   0  0  0  0  0  0  0  0  0  0  0  0
   12.9237    6.5822  -14.5759 O   0  0  0  0  0  0  0  0  0  0  0  0
   10.8906    6.6526  -13.2252 C   0  0  0  0  0  0  0  0  0  0  0  0
   12.2396    6.1290  -15.6916 C   0  0  0  0  0  0  0  0  0  0  0  0
    7.8036    6.1825  -11.9342 C   0  0  0  0  0  0  0  0  0  0  0  0
   12.5015    4.7115  -15.7686 C   0  0  0  0  0  0  0  0  0  0  0  0
    7.1685    6.9992  -12.8245 C   0  0  0  0  0  0  0  0  0  0  0  0
   11.2461    3.8540  -15.4851 C   0  0  0  0  0  0  0  0  0  0  0  0
    7.6237    4.9154  -11.6529 C   0  0  0  0  0  0  0  0  0  0  0  0
    6.6378    4.1960  -12.2267 C   0  0  0  0  0  0  0  0  0  0  0  0
    6.2717    2.7675  -11.9743 C   0  0  0  0  0  0  0  0  0  0  0  0
    6.6569    1.8873  -12.9460 C   0  0  0  0  0  0  0  0  0  0  0  0
    7.3895    8.4597  -13.1785 C   0  0  0  0  0  0  0  0  0  0  0  0
    6.3114    0.5653  -12.7247 C   0  0  0  0  0  0  0  0  0  0  0  0
    7.7684    2.0327  -13.9055 C   0  0  0  0  0  0  0  0  0  0  0  0
    6.9387   -0.3720  -13.7691 C   0  0  0  0  0  0  0  0  0  0  0  0
    8.4223    3.3339  -14.0264 C   0  0  0  0  0  0  0  0  0  0  0  0
    8.2908    1.0246  -14.6080 C   0  0  2  0  0  0  0  0  0  0  0  0
    7.8743   -0.1809  -14.5479 C   0  0  0  0  0  0  0  0  0  0  0  0
   11.2492    2.9669  -14.5753 C   0  0  0  0  0  0  0  0  0  0  0  0
   10.1365    2.0979  -14.2259 C   0  0  2  0  0  0  0  0  0  0  0  0
    9.8617    0.9985  -14.9664 C   0  0  0  0  0  0  0  0  0  0  0  0
    9.7013    3.0361  -13.7241 C   0  0  0  0  0  0  0  0  0  0  0  0
  1  2  1  0  0  0  0
  1 10  2  0  0  0  0
  2  3  1  0  0  0  0
  2  5  2  0  0  0  0
  3  4  1  0  0  0  0
  4  6  1  6  0  0  0
  4  9  1  0  0  0  0
  5  8  1  0  0  0  0
  5 12  1  0  0  0  0
  6  7  1  0  0  0  0
  7 11  1  0  0  0  0
  7 16  2  0  0  0  0
  8  9  1  0  0  0  0
 10 14  1  0  0  0  0
 11 13  2  0  0  0  0
 11 20  1  0  0  0  0
 12 14  2  0  0  0  0
 13 15  1  0  0  0  0
 13 18  1  0  0  0  0
 16 17  1  0  0  0  0
 17 20  1  0  0  0  0
 17 24  1  0  0  0  0
 18 19  2  0  0  0  0
 19 21  1  0  0  0  0
 19 22  1  0  0  0  0
 20 22  2  0  0  0  0
 21 23  1  0  0  0  0
 23 25  1  0  0  0  0
 24 26  2  3  0  0  0
 24 28  1  0  0  0  0
 25 27  1  0  0  0  0
 26 32  1  0  0  0  0
 27 39  2  0  0  0  0
 28 29  2  0  0  0  0
 29 30  1  0  0  0  0
 30 31  1  0  0  0  0
 31 33  2  0  0  0  0
 31 34  1  0  0  0  0
 33 35  1  0  0  0  0
 34 36  2  0  0  0  0
 34 37  1  0  0  0  0
 35 38  1  0  0  0  0
 36 42  1  0  0  0  0
 37 38  1  1  0  0  0
 37 41  1  0  0  0  0
 40 39  1  6  0  0  0
 40 41  1  0  0  0  0
 40 42  1  0  0  0  0
M  END
$$$$

 OpenBabel10082411353D

 42 49  0  0  0  0  0  0  0  0999 V2000
   11.6836    6.0105   -4.8831 C   0  0  0  0  0  0  0  0  0  0  0  0
   11.1291    7.0732   -5.4395 C   0  0  0  0  0  0  0  0  0  0  0  0
   10.6954    7.0156   -6.8073 C   0  0  0  0  0  0  0  0  0  0  0  0
   10.2502    8.1187   -7.5536 C   0  0  2  0  0  0  0  0  0  0  0  0
   11.1205    8.4712   -4.9629 C   0  0  0  0  0  0  0  0  0  0  0  0
   10.8655    8.3511   -8.7960 C   0  0  0  0  0  0  0  0  0  0  0  0
   10.2922    7.8843   -9.9985 C   0  0  0  0  0  0  0  0  0  0  0  0
   10.4654    9.6993   -5.6120 C   0  0  0  0  0  0  0  0  0  0  0  0
   10.3510    9.5971   -7.0014 C   0  0  0  0  0  0  0  0  0  0  0  0
   12.2462    6.3351   -3.5020 C   0  0  0  0  0  0  0  0  0  0  0  0
   11.0471    7.5309  -11.1063 C   0  0  0  0  0  0  0  0  0  0  0  0
   11.7288    8.6923   -3.6518 C   0  0  0  0  0  0  0  0  0  0  0  0
   12.3991    7.7501  -11.1145 C   0  0  0  0  0  0  0  0  0  0  0  0
   12.3738    7.7580   -2.9599 C   0  0  0  0  0  0  0  0  0  0  0  0
   13.1285    8.5075  -10.1661 O   0  0  0  0  0  0  0  0  0  0  0  0
    9.0407    7.3775  -10.0973 N   0  0  0  0  0  0  0  0  0  0  0  0
    8.9787    6.9473  -11.4664 N   0  0  0  0  0  0  0  0  0  0  0  0
   13.1012    7.4459  -12.3707 C   0  0  0  0  0  0  0  0  0  0  0  0
   12.2395    6.9724  -13.2444 C   0  0  0  0  0  0  0  0  0  0  0  0
   10.2768    7.0170  -11.9799 C   0  0  0  0  0  0  0  0  0  0  0  0
   12.9237    6.5822  -14.5759 O   0  0  0  0  0  0  0  0  0  0  0  0
   10.8906    6.6526  -13.2252 C   0  0  0  0  0  0  0  0  0  0  0  0
   12.2396    6.1290  -15.6916 C   0  0  0  0  0  0  0  0  0  0  0  0
    7.8036    6.1825  -11.9342 C   0  0  0  0  0  0  0  0  0  0  0  0
   12.5015    4.7115  -15.7686 C   0  0  0  0  0  0  0  0  0  0  0  0
    7.1685    6.9992  -12.8245 C   0  0  0  0  0  0  0  0  0  0  0  0
   11.2461    3.8540  -15.4851 C   0  0  0  0  0  0  0  0  0  0  0  0
    7.6237    4.9154  -11.6529 C   0  0  0  0  0  0  0  0  0  0  0  0
    6.6378    4.1960  -12.2267 C   0  0  0  0  0  0  0  0  0  0  0  0
    6.2717    2.7675  -11.9743 C   0  0  0  0  0  0  0  0  0  0  0  0
    6.6569    1.8873  -12.9460 C   0  0  0  0  0  0  0  0  0  0  0  0
    7.3895    8.4597  -13.1785 C   0  0  0  0  0  0  0  0  0  0  0  0
    6.3114    0.5653  -12.7247 C   0  0  0  0  0  0  0  0  0  0  0  0
    7.7684    2.0327  -13.9055 C   0  0  0  0  0  0  0  0  0  0  0  0
    6.9387   -0.3720  -13.7691 C   0  0  0  0  0  0  0  0  0  0  0  0
    8.4223    3.3339  -14.0264 C   0  0  0  0  0  0  0  0  0  0  0  0
    8.2908    1.0246  -14.6080 C   0  0  2  0  0  0  0  0  0  0  0  0
    7.8743   -0.1809  -14.5479 C   0  0  0  0  0  0  0  0  0  0  0  0
   11.2492    2.9669  -14.5753 C   0  0  0  0  0  0  0  0  0  0  0  0
   10.1365    2.0979  -14.2259 C   0  0  2  0  0  0  0  0  0  0  0  0
    9.4984    1.4692  -15.0730 N   0  0  0  0  0  0  0  0  0  0  0  0
    9.6573    3.1721  -14.0305 C   0  0  2  0  0  0  0  0  0  0  0  0
  1  2  1  0  0  0  0
  1 10  2  0  0  0  0
  2  3  1  0  0  0  0
  2  5  2  0  0  0  0
  3  4  1  0  0  0  0
  4  6  1  6  0  0  0
  4  9  1  0  0  0  0
  5  8  1  0  0  0  0
  5 12  1  0  0  0  0
  6  7  1  0  0  0  0
  7 11  1  0  0  0  0
  7 16  2  0  0  0  0
  8  9  1  0  0  0  0
 10 14  1  0  0  0  0
 11 13  2  0  0  0  0
 11 20  1  0  0  0  0
 12 14  2  0  0  0  0
 13 15  1  0  0  0  0
 13 18  1  0  0  0  0
 16 17  1  0  0  0  0
 17 20  1  0  0  0  0
 17 24  1  0  0  0  0
 18 19  2  0  0  0  0
 19 21  1  0  0  0  0
 19 22  1  0  0  0  0
 20 22  2  0  0  0  0
 21 23  1  0  0  0  0
 23 25  1  0  0  0  0
 24 26  2  3  0  0  0
 24 28  1  0  0  0  0
 25 27  1  0  0  0  0
 26 32  1  0  0  0  0
 27 39  2  3  0  0  0
 28 29  2  0  0  0  0
 29 30  1  0  0  0  0
 30 31  1  0  0  0  0
 31 33  2  0  0  0  0
 31 34  1  0  0  0  0
 33 35  1  0  0  0  0
 34 36  2  0  0  0  0
 34 37  1  0  0  0  0
 35 38  1  0  0  0  0
 37 38  1  1  0  0  0
 37 41  1  0  0  0  0
 39 42  1  0  0  0  0
 40 39  1  6  0  0  0
 40 41  1  0  0  0  0
 40 42  1  0  0  0  0
 42 36  1  6  0  0  0
M  END
$$$$

 OpenBabel10082411353D

 42 52  0  0  0  0  0  0  0  0999 V2000
    8.0806    9.0240  -12.7589 C   0  0  0  0  0  0  0  0  0  0  0  0
    8.6514    7.8645  -12.2948 C   0  0  0  0  0  0  0  0  0  0  0  0
    9.9575    7.9974  -11.8426 C   0  0  0  0  0  0  0  0  0  0  0  0
   10.7657    6.8667  -11.6050 C   0  0  1  0  0  0  0  0  0  0  0  0
   10.7682    5.9590  -12.8271 C   0  0  0  0  0  0  0  0  0  0  0  0
   12.1553    7.3846  -11.2315 C   0  0  0  0  0  0  0  0  0  0  0  0
    8.0676    6.6451  -12.2974 C   0  0  0  0  0  0  0  0  0  0  0  0
   10.1892    6.1240  -10.3860 C   0  0  0  0  0  0  0  0  0  0  0  0
   11.8375    5.4373  -13.3240 O   0  0  0  0  0  0  0  0  0  0  0  0
    8.6785    5.4761  -13.0273 C   0  0  1  0  0  0  0  0  0  0  0  0
    9.1969    5.2405  -10.4969 C   0  0  2  0  0  0  0  0  0  0  0  0
    7.2213    6.2210  -11.3074 C   0  0  2  0  0  0  0  0  0  0  0  0
   12.5590    7.6872   -9.9896 C   0  0  0  0  0  0  0  0  0  0  0  0
    9.7633    5.0333  -12.9720 C   0  0  1  0  0  0  0  0  0  0  0  0
   10.0661    4.0167  -14.0373 N   0  0  0  0  0  0  0  0  0  0  0  0
   13.6906    8.3004   -9.6233 O   0  0  0  0  0  0  0  0  0  0  0  0
    7.6357    4.5123  -12.6317 C   0  0  2  0  0  0  0  0  0  0  0  0
    6.8831    4.9171  -11.7031 C   0  0  2  0  0  0  0  0  0  0  0  0
   10.5937    6.6967   -9.1779 C   0  0  0  0  0  0  0  0  0  0  0  0
    9.5087    4.3263  -11.6925 C   0  0  2  0  0  0  0  0  0  0  0  0
   11.6359    7.4449   -8.9125 C   0  0  0  0  0  0  0  0  0  0  0  0
   11.9716    7.9159   -7.6200 C   0  0  0  0  0  0  0  0  0  0  0  0
    8.4648    3.6122  -12.2840 C   0  0  1  0  0  0  0  0  0  0  0  0
    7.9253    2.8004  -11.3926 C   0  0  0  0  0  0  0  0  0  0  0  0
    5.6047    4.5059  -11.7589 C   0  0  0  0  0  0  0  0  0  0  0  0
    7.6606    4.1297  -10.5699 C   0  0  0  0  0  0  0  0  0  0  0  0
   10.9559    7.6849   -6.6057 C   0  0  0  0  0  0  0  0  0  0  0  0
    8.0094    4.5092   -9.5664 C   0  0  0  0  0  0  0  0  0  0  0  0
    8.3033    4.0627   -8.4980 C   0  0  0  0  0  0  0  0  0  0  0  0
    6.3587    7.1012  -11.0392 O   0  0  0  0  0  0  0  0  0  0  0  0
   11.0186    3.9598  -14.9226 C   0  0  1  0  0  0  0  0  0  0  0  0
    8.1758    5.8633  -10.2511 C   0  0  1  0  0  0  0  0  0  0  0  0
    9.4315    2.8557  -13.5931 C   0  0  0  0  0  0  0  0  0  0  0  0
   11.5906    2.6986  -15.1672 C   0  0  0  0  0  0  0  0  0  0  0  0
    9.9783    6.7760   -6.8364 C   0  0  0  0  0  0  0  0  0  0  0  0
    9.7446    6.4267   -8.0721 C   0  0  0  0  0  0  0  0  0  0  0  0
   10.2617    4.4120  -16.0135 O   0  0  0  0  0  0  0  0  0  0  0  0
   11.3635    8.3622   -5.0463 S   0  0  0  0  0  0  0  0  0  0  0  0
   12.1504    7.4660   -4.3096 O   0  0  0  0  0  0  0  0  0  0  0  0
   10.0996    8.7422   -4.2973 N   0  0  0  0  0  0  0  0  0  0  0  0
   12.1924    9.7997   -5.1348 O   0  0  0  0  0  0  0  0  0  0  0  0
    9.0276    5.1675   -7.9261 C   0  0  0  0  0  0  0  0  0  0  0  0
  1  2  1  0  0  0  0
  2  3  1  0  0  0  0
  2  7  2  0  0  0  0
  4  3  1  6  0  0  0
  4  5  1  0  0  0  0
  4  6  1  0  0  0  0
  4  8  1  0  0  0  0
  5  9  2  0  0  0  0
  6 13  1  0  0  0  0
  7 12  1  0  0  0  0
  8 19  2  0  0  0  0
 10  7  1  1  0  0  0
 10 14  1  0  0  0  0
 10 17  1  0  0  0  0
 11  8  1  6  0  0  0
 11 20  1  0  0  0  0
 11 32  1  0  0  0  0
 12 18  1  0  0  0  0
 12 30  1  1  0  0  0
 12 32  1  0  0  0  0
 13 16  2  0  0  0  0
 13 21  1  0  0  0  0
 14  5  1  1  0  0  0
 14 15  1  0  0  0  0
 14 20  1  0  0  0  0
 15 31  1  0  0  0  0
 15 33  1  0  0  0  0
 17 18  1  0  0  0  0
 17 23  1  0  0  0  0
 18 25  1  0  0  0  0
 18 26  1  0  0  0  0
 19 21  1  0  0  0  0
 19 36  1  0  0  0  0
 20 23  1  0  0  0  0
 21 22  2  0  0  0  0
 22 27  1  0  0  0  0
 23 24  1  0  0  0  0
 23 33  1  0  0  0  0
 24 26  1  0  0  0  0
 26 28  2  0  0  0  0
 27 35  2  0  0  0  0
 27 38  1  0  0  0  0
 28 29  1  0  0  0  0
 28 32  1  0  0  0  0
 29 42  1  0  0  0  0
 31 34  1  0  0  0  0
 31 37  1  0  0  0  0
 35 36  1  0  0  0  0
 36 42  2  0  0  0  0
 38 39  2  0  0  0  0
 38 40  1  0  0  0  0
 38 41  2  0  0  0  0
M  END
$$$$

 OpenBabel10082411353D

 42 48  0  0  0  0  0  0  0  0999 V2000
   11.6836    6.0105   -4.8831 C   0  0  0  0  0  0  0  0  0  0  0  0
   11.1291    7.0732   -5.4395 C   0  0  0  0  0  0  0  0  0  0  0  0
   10.6954    7.0156   -6.8073 C   0  0  0  0  0  0  0  0  0  0  0  0
   10.2502    8.1187   -7.5536 C   0  0  2  0  0  0  0  0  0  0  0  0
   11.1205    8.4712   -4.9629 C   0  0  0  0  0  0  0  0  0  0  0  0
   10.8655    8.3511   -8.7960 C   0  0  0  0  0  0  0  0  0  0  0  0
   10.2922    7.8843   -9.9985 C   0  0  0  0  0  0  0  0  0  0  0  0
   10.4654    9.6993   -5.6120 C   0  0  0  0  0  0  0  0  0  0  0  0
   10.3510    9.5971   -7.0014 C   0  0  0  0  0  0  0  0  0  0  0  0
   12.2462    6.3351   -3.5020 C   0  0  0  0  0  0  0  0  0  0  0  0
   11.0471    7.5309  -11.1063 C   0  0  0  0  0  0  0  0  0  0  0  0
   11.7288    8.6923   -3.6518 C   0  0  0  0  0  0  0  0  0  0  0  0
   12.3991    7.7501  -11.1145 C   0  0  0  0  0  0  0  0  0  0  0  0
   12.3738    7.7580   -2.9599 C   0  0  0  0  0  0  0  0  0  0  0  0
   13.1285    8.5075  -10.1661 O   0  0  0  0  0  0  0  0  0  0  0  0
    9.0407    7.3775  -10.0973 N   0  0  0  0  0  0  0  0  0  0  0  0
    8.9787    6.9473  -11.4664 N   0  0  0  0  0  0  0  0  0  0  0  0
   13.1012    7.4459  -12.3707 C   0  0  0  0  0  0  0  0  0  0  0  0
   12.2395    6.9724  -13.2444 C   0  0  0  0  0  0  0  0  0  0  0  0
   10.2768    7.0170  -11.9799 C   0  0  0  0  0  0  0  0  0  0  0  0
   12.9237    6.5822  -14.5759 O   0  0  0  0  0  0  0  0  0  0  0  0
   10.8906    6.6526  -13.2252 C   0  0  0  0  0  0  0  0  0  0  0  0
   12.2396    6.1290  -15.6916 C   0  0  0  0  0  0  0  0  0  0  0  0
    7.8036    6.1825  -11.9342 C   0  0  0  0  0  0  0  0  0  0  0  0
   12.5015    4.7115  -15.7686 C   0  0  0  0  0  0  0  0  0  0  0  0
    7.1685    6.9992  -12.8245 C   0  0  0  0  0  0  0  0  0  0  0  0
   11.2461    3.8540  -15.4851 C   0  0  0  0  0  0  0  0  0  0  0  0
    7.6237    4.9154  -11.6529 C   0  0  0  0  0  0  0  0  0  0  0  0
    6.6378    4.1960  -12.2267 C   0  0  0  0  0  0  0  0  0  0  0  0
    6.2717    2.7675  -11.9743 C   0  0  0  0  0  0  0  0  0  0  0  0
    6.6569    1.8873  -12.9460 C   0  0  0  0  0  0  0  0  0  0  0  0
    7.3895    8.4597  -13.1785 C   0  0  0  0  0  0  0  0  0  0  0  0
    6.3114    0.5653  -12.7247 C   0  0  0  0  0  0  0  0  0  0  0  0
    7.7684    2.0327  -13.9055 C   0  0  0  0  0  0  0  0  0  0  0  0
    8.3733    3.3319  -14.0408 C   0  0  1  0  0  0  0  0  0  0  0  0
    6.7866   -0.4375  -13.6507 C   0  0  0  0  0  0  0  0  0  0  0  0
    7.8338   -0.2012  -14.4625 C   0  0  0  0  0  0  0  0  0  0  0  0
    8.3543    1.0623  -14.5600 C   0  0  0  0  0  0  0  0  0  0  0  0
   11.2619    2.5645  -15.7759 O   0  0  0  0  0  0  0  0  0  0  0  0
   10.1397    4.4600  -15.1770 N   0  0  0  0  0  0  0  0  0  0  0  0
    8.8871    3.7549  -15.0039 O   0  0  0  0  0  0  0  0  0  0  0  0
    7.3273    4.1651  -13.4582 C   0  0  0  0  0  0  0  0  0  0  0  0
  1  2  1  0  0  0  0
  1 10  2  0  0  0  0
  2  3  1  0  0  0  0
  2  5  2  0  0  0  0
  3  4  1  0  0  0  0
  4  6  1  6  0  0  0
  4  9  1  0  0  0  0
  5  8  1  0  0  0  0
  5 12  1  0  0  0  0
  6  7  1  0  0  0  0
  7 11  1  0  0  0  0
  7 16  2  0  0  0  0
  8  9  1  0  0  0  0
 10 14  1  0  0  0  0
 11 13  2  0  0  0  0
 11 20  1  0  0  0  0
 12 14  2  0  0  0  0
 13 15  1  0  0  0  0
 13 18  1  0  0  0  0
 16 17  1  0  0  0  0
 17 20  1  0  0  0  0
 17 24  1  0  0  0  0
 18 19  2  0  0  0  0
 19 21  1  0  0  0  0
 19 22  1  0  0  0  0
 20 22  2  0  0  0  0
 21 23  1  0  0  0  0
 23 25  1  0  0  0  0
 24 26  2  3  0  0  0
 24 28  1  0  0  0  0
 25 27  1  0  0  0  0
 26 32  1  0  0  0  0
 27 39  2  0  0  0  0
 27 40  1  0  0  0  0
 28 29  2  0  0  0  0
 29 30  1  0  0  0  0
 29 42  1  0  0  0  0
 30 31  1  0  0  0  0
 31 33  2  0  0  0  0
 31 34  1  0  0  0  0
 33 36  1  0  0  0  0
 34 35  1  0  0  0  0
 34 38  2  0  0  0  0
 35 41  1  0  0  0  0
 35 42  1  6  0  0  0
 36 37  2  0  0  0  0
 37 38  1  0  0  0  0
 40 41  1  0  0  0  0
M  END
$$$$

 OpenBabel10082411353D

 42 48  0  0  0  0  0  0  0  0999 V2000
   11.6836    6.0105   -4.8831 C   0  0  0  0  0  0  0  0  0  0  0  0
   11.1291    7.0732   -5.4395 C   0  0  0  0  0  0  0  0  0  0  0  0
   10.6954    7.0156   -6.8073 C   0  0  0  0  0  0  0  0  0  0  0  0
   10.2502    8.1187   -7.5536 C   0  0  2  0  0  0  0  0  0  0  0  0
   11.1205    8.4712   -4.9629 C   0  0  0  0  0  0  0  0  0  0  0  0
   10.8655    8.3511   -8.7960 C   0  0  0  0  0  0  0  0  0  0  0  0
   10.2922    7.8843   -9.9985 C   0  0  0  0  0  0  0  0  0  0  0  0
   10.4654    9.6993   -5.6120 C   0  0  0  0  0  0  0  0  0  0  0  0
   10.3510    9.5971   -7.0014 C   0  0  0  0  0  0  0  0  0  0  0  0
   12.2462    6.3351   -3.5020 C   0  0  0  0  0  0  0  0  0  0  0  0
   11.0471    7.5309  -11.1063 C   0  0  0  0  0  0  0  0  0  0  0  0
   11.7288    8.6923   -3.6518 C   0  0  0  0  0  0  0  0  0  0  0  0
   12.3991    7.7501  -11.1145 C   0  0  0  0  0  0  0  0  0  0  0  0
   12.3738    7.7580   -2.9599 C   0  0  0  0  0  0  0  0  0  0  0  0
   13.1285    8.5075  -10.1661 O   0  0  0  0  0  0  0  0  0  0  0  0
    9.0407    7.3775  -10.0973 N   0  0  0  0  0  0  0  0  0  0  0  0
    8.9787    6.9473  -11.4664 N   0  0  0  0  0  0  0  0  0  0  0  0
   13.1012    7.4459  -12.3707 C   0  0  0  0  0  0  0  0  0  0  0  0
   12.2395    6.9724  -13.2444 C   0  0  0  0  0  0  0  0  0  0  0  0
   10.2768    7.0170  -11.9799 C   0  0  0  0  0  0  0  0  0  0  0  0
   12.9237    6.5822  -14.5759 O   0  0  0  0  0  0  0  0  0  0  0  0
   10.8906    6.6526  -13.2252 C   0  0  0  0  0  0  0  0  0  0  0  0
   12.2396    6.1290  -15.6916 C   0  0  0  0  0  0  0  0  0  0  0  0
    7.8036    6.1825  -11.9342 C   0  0  0  0  0  0  0  0  0  0  0  0
   12.5015    4.7115  -15.7686 C   0  0  0  0  0  0  0  0  0  0  0  0
    7.1685    6.9992  -12.8245 C   0  0  0  0  0  0  0  0  0  0  0  0
   11.2461    3.8540  -15.4851 C   0  0  0  0  0  0  0  0  0  0  0  0
    7.6237    4.9154  -11.6529 C   0  0  0  0  0  0  0  0  0  0  0  0
    6.6378    4.1960  -12.2267 C   0  0  0  0  0  0  0  0  0  0  0  0
    6.2717    2.7675  -11.9743 C   0  0  0  0  0  0  0  0  0  0  0  0
    6.6569    1.8873  -12.9460 C   0  0  0  0  0  0  0  0  0  0  0  0
    7.3895    8.4597  -13.1785 C   0  0  0  0  0  0  0  0  0  0  0  0
    6.3114    0.5653  -12.7247 C   0  0  0  0  0  0  0  0  0  0  0  0
    7.7684    2.0327  -13.9055 C   0  0  0  0  0  0  0  0  0  0  0  0
    8.3733    3.3319  -14.0408 C   0  0  1  0  0  0  0  0  0  0  0  0
    6.7866   -0.4375  -13.6507 C   0  0  0  0  0  0  0  0  0  0  0  0
   11.3491    2.6020  -15.5284 O   0  0  0  0  0  0  0  0  0  0  0  0
   10.0815    4.4913  -15.3913 N   0  0  0  0  0  0  0  0  0  0  0  0
    8.2781    1.1143  -14.4231 C   0  0  0  0  0  0  0  0  0  0  0  0
    8.9752    3.9158  -14.7584 C   0  0  0  0  0  0  0  0  0  0  0  0
    7.7892   -0.1640  -14.4698 C   0  0  0  0  0  0  0  0  0  0  0  0
    7.2199    4.1302  -13.4561 C   0  0  0  0  0  0  0  0  0  0  0  0
  1  2  1  0  0  0  0
  1 10  2  0  0  0  0
  2  3  1  0  0  0  0
  2  5  2  0  0  0  0
  3  4  1  0  0  0  0
  4  6  1  6  0  0  0
  4  9  1  0  0  0  0
  5  8  1  0  0  0  0
  5 12  1  0  0  0  0
  6  7  1  0  0  0  0
  7 11  1  0  0  0  0
  7 16  2  0  0  0  0
  8  9  1  0  0  0  0
 10 14  1  0  0  0  0
 11 13  2  0  0  0  0
 11 20  1  0  0  0  0
 12 14  2  0  0  0  0
 13 15  1  0  0  0  0
 13 18  1  0  0  0  0
 16 17  1  0  0  0  0
 17 20  1  0  0  0  0
 17 24  1  0  0  0  0
 18 19  2  0  0  0  0
 19 21  1  0  0  0  0
 19 22  1  0  0  0  0
 20 22  2  0  0  0  0
 21 23  1  0  0  0  0
 23 25  1  0  0  0  0
 24 26  2  3  0  0  0
 24 28  1  0  0  0  0
 25 27  1  0  0  0  0
 26 32  1  0  0  0  0
 27 37  2  0  0  0  0
 27 38  1  0  0  0  0
 28 29  2  0  0  0  0
 29 30  1  0  0  0  0
 29 42  1  0  0  0  0
 30 31  1  0  0  0  0
 31 33  2  0  0  0  0
 31 34  1  0  0  0  0
 33 36  1  0  0  0  0
 34 35  1  0  0  0  0
 34 39  2  0  0  0  0
 35 40  1  6  0  0  0
 35 42  1  0  0  0  0
 36 41  2  0  0  0  0
 38 40  1  0  0  0  0
 39 41  1  0  0  0  0
M  END
$$$$

 OpenBabel10082411353D

 42 52  0  0  0  0  0  0  0  0999 V2000
    8.0806    9.0240  -12.7589 C   0  0  0  0  0  0  0  0  0  0  0  0
    8.6514    7.8645  -12.2948 C   0  0  0  0  0  0  0  0  0  0  0  0
    9.9575    7.9974  -11.8426 C   0  0  0  0  0  0  0  0  0  0  0  0
   10.7657    6.8667  -11.6050 C   0  0  1  0  0  0  0  0  0  0  0  0
   10.7682    5.9590  -12.8271 C   0  0  0  0  0  0  0  0  0  0  0  0
   12.1553    7.3846  -11.2315 C   0  0  0  0  0  0  0  0  0  0  0  0
    8.0676    6.6451  -12.2974 C   0  0  0  0  0  0  0  0  0  0  0  0
   10.1892    6.1240  -10.3860 C   0  0  0  0  0  0  0  0  0  0  0  0
   11.8375    5.4373  -13.3240 O   0  0  0  0  0  0  0  0  0  0  0  0
    8.6785    5.4761  -13.0273 C   0  0  1  0  0  0  0  0  0  0  0  0
    9.1969    5.2405  -10.4969 C   0  0  2  0  0  0  0  0  0  0  0  0
    7.2213    6.2210  -11.3074 C   0  0  2  0  0  0  0  0  0  0  0  0
   12.5590    7.6872   -9.9896 C   0  0  0  0  0  0  0  0  0  0  0  0
    9.7633    5.0333  -12.9720 C   0  0  1  0  0  0  0  0  0  0  0  0
   10.0661    4.0167  -14.0373 N   0  0  0  0  0  0  0  0  0  0  0  0
   13.6906    8.3004   -9.6233 O   0  0  0  0  0  0  0  0  0  0  0  0
    7.6357    4.5123  -12.6317 C   0  0  2  0  0  0  0  0  0  0  0  0
    6.8831    4.9171  -11.7031 C   0  0  2  0  0  0  0  0  0  0  0  0
   10.5937    6.6967   -9.1779 C   0  0  0  0  0  0  0  0  0  0  0  0
    9.5087    4.3263  -11.6925 C   0  0  2  0  0  0  0  0  0  0  0  0
   11.6359    7.4449   -8.9125 C   0  0  0  0  0  0  0  0  0  0  0  0
   11.9716    7.9159   -7.6200 C   0  0  0  0  0  0  0  0  0  0  0  0
    8.4648    3.6122  -12.2840 C   0  0  1  0  0  0  0  0  0  0  0  0
    7.9253    2.8004  -11.3926 C   0  0  0  0  0  0  0  0  0  0  0  0
    5.6047    4.5059  -11.7589 C   0  0  0  0  0  0  0  0  0  0  0  0
    7.6606    4.1297  -10.5699 C   0  0  0  0  0  0  0  0  0  0  0  0
   10.9559    7.6849   -6.6057 C   0  0  0  0  0  0  0  0  0  0  0  0
    8.0094    4.5092   -9.5664 C   0  0  0  0  0  0  0  0  0  0  0  0
    8.3033    4.0627   -8.4980 C   0  0  0  0  0  0  0  0  0  0  0  0
    6.3587    7.1012  -11.0392 O   0  0  0  0  0  0  0  0  0  0  0  0
   11.0186    3.9598  -14.9226 C   0  0  1  0  0  0  0  0  0  0  0  0
    8.1758    5.8633  -10.2511 C   0  0  1  0  0  0  0  0  0  0  0  0
    9.4315    2.8557  -13.5931 C   0  0  0  0  0  0  0  0  0  0  0  0
   11.5906    2.6986  -15.1672 C   0  0  0  0  0  0  0  0  0  0  0  0
    9.9783    6.7760   -6.8364 C   0  0  0  0  0  0  0  0  0  0  0  0
    9.7446    6.4267   -8.0721 C   0  0  2  0  0  0  0  0  0  0  0  0
   10.2617    4.4120  -16.0135 O   0  0  0  0  0  0  0  0  0  0  0  0
   11.3635    8.3622   -5.0463 S   0  0  0  0  0  0  0  0  0  0  0  0
    8.5854    5.3620   -7.9736 C   0  0  0  0  0  0  0  0  0  0  0  0
   10.2750    8.8364   -4.4773 O   0  0  0  0  0  0  0  0  0  0  0  0
   12.4469    9.5521   -5.1989 O   0  0  0  0  0  0  0  0  0  0  0  0
   11.9711    7.5169   -3.8810 O   0  0  0  0  0  0  0  0  0  0  0  0
  1  2  1  0  0  0  0
  2  3  1  0  0  0  0
  2  7  2  0  0  0  0
  4  3  1  6  0  0  0
  4  5  1  0  0  0  0
  4  6  1  0  0  0  0
  4  8  1  0  0  0  0
  5  9  2  0  0  0  0
  6 13  1  0  0  0  0
  7 12  1  0  0  0  0
  8 19  2  0  0  0  0
 10  7  1  1  0  0  0
 10 14  1  0  0  0  0
 10 17  1  0  0  0  0
 11  8  1  6  0  0  0
 11 20  1  0  0  0  0
 11 32  1  0  0  0  0
 12 18  1  0  0  0  0
 12 30  1  1  0  0  0
 12 32  1  0  0  0  0
 13 16  2  0  0  0  0
 13 21  1  0  0  0  0
 14  5  1  1  0  0  0
 14 15  1  0  0  0  0
 14 20  1  0  0  0  0
 15 31  1  0  0  0  0
 15 33  1  0  0  0  0
 17 18  1  0  0  0  0
 17 23  1  0  0  0  0
 18 25  1  0  0  0  0
 18 26  1  0  0  0  0
 19 21  1  0  0  0  0
 19 36  1  0  0  0  0
 20 23  1  0  0  0  0
 21 22  2  0  0  0  0
 22 27  1  0  0  0  0
 23 24  1  0  0  0  0
 23 33  1  0  0  0  0
 24 26  1  0  0  0  0
 26 28  2  0  0  0  0
 27 35  2  0  0  0  0
 27 38  1  0  0  0  0
 28 29  1  0  0  0  0
 28 32  1  0  0  0  0
 29 39  1  0  0  0  0
 31 34  1  0  0  0  0
 31 37  1  0  0  0  0
 35 36  1  0  0  0  0
 36 39  1  0  0  0  0
 38 40  2  0  0  0  0
 38 41  1  0  0  0  0
 38 42  2  0  0  0  0
M  END
$$$$

 OpenBabel10082411353D

 42 52  0  0  0  0  0  0  0  0999 V2000
    8.0806    9.0240  -12.7589 C   0  0  0  0  0  0  0  0  0  0  0  0
    8.6514    7.8645  -12.2948 C   0  0  0  0  0  0  0  0  0  0  0  0
    9.9575    7.9974  -11.8426 C   0  0  0  0  0  0  0  0  0  0  0  0
   10.7657    6.8667  -11.6050 C   0  0  1  0  0  0  0  0  0  0  0  0
   10.7682    5.9590  -12.8271 C   0  0  0  0  0  0  0  0  0  0  0  0
   12.1553    7.3846  -11.2315 C   0  0  0  0  0  0  0  0  0  0  0  0
    8.0676    6.6451  -12.2974 C   0  0  0  0  0  0  0  0  0  0  0  0
   10.1892    6.1240  -10.3860 C   0  0  0  0  0  0  0  0  0  0  0  0
   11.8375    5.4373  -13.3240 O   0  0  0  0  0  0  0  0  0  0  0  0
    8.6785    5.4761  -13.0273 C   0  0  1  0  0  0  0  0  0  0  0  0
    9.1969    5.2405  -10.4969 C   0  0  2  0  0  0  0  0  0  0  0  0
    7.2213    6.2210  -11.3074 C   0  0  2  0  0  0  0  0  0  0  0  0
   12.5590    7.6872   -9.9896 C   0  0  0  0  0  0  0  0  0  0  0  0
    9.7633    5.0333  -12.9720 C   0  0  1  0  0  0  0  0  0  0  0  0
   10.0661    4.0167  -14.0373 N   0  0  0  0  0  0  0  0  0  0  0  0
   13.6906    8.3004   -9.6233 O   0  0  0  0  0  0  0  0  0  0  0  0
    7.6357    4.5123  -12.6317 C   0  0  2  0  0  0  0  0  0  0  0  0
    6.8831    4.9171  -11.7031 C   0  0  2  0  0  0  0  0  0  0  0  0
   10.5937    6.6967   -9.1779 C   0  0  0  0  0  0  0  0  0  0  0  0
    9.5087    4.3263  -11.6925 C   0  0  2  0  0  0  0  0  0  0  0  0
   11.6359    7.4449   -8.9125 C   0  0  0  0  0  0  0  0  0  0  0  0
   11.9716    7.9159   -7.6200 C   0  0  0  0  0  0  0  0  0  0  0  0
    8.4648    3.6122  -12.2840 C   0  0  1  0  0  0  0  0  0  0  0  0
    7.9253    2.8004  -11.3926 C   0  0  0  0  0  0  0  0  0  0  0  0
    5.6047    4.5059  -11.7589 C   0  0  0  0  0  0  0  0  0  0  0  0
    7.6606    4.1297  -10.5699 C   0  0  0  0  0  0  0  0  0  0  0  0
   10.9559    7.6849   -6.6057 C   0  0  0  0  0  0  0  0  0  0  0  0
    8.0094    4.5092   -9.5664 C   0  0  0  0  0  0  0  0  0  0  0  0
    8.3033    4.0627   -8.4980 C   0  0  0  0  0  0  0  0  0  0  0  0
    6.3587    7.1012  -11.0392 O   0  0  0  0  0  0  0  0  0  0  0  0
   11.0186    3.9598  -14.9226 C   0  0  0  0  0  0  0  0  0  0  0  0
    8.1758    5.8633  -10.2511 C   0  0  1  0  0  0  0  0  0  0  0  0
   11.4648    2.7104  -15.2650 O   0  0  0  0  0  0  0  0  0  0  0  0
    9.9512    6.8220   -6.8436 C   0  0  0  0  0  0  0  0  0  0  0  0
    9.6899    6.3705   -8.1082 C   0  0  2  0  0  0  0  0  0  0  0  0
   11.2597    8.2901   -5.2396 C   0  0  0  0  0  0  0  0  0  0  0  0
   10.9483    4.9354  -15.8312 C   0  0  0  0  0  0  0  0  0  0  0  0
    9.2428    4.9682   -7.8294 C   0  0  0  0  0  0  0  0  0  0  0  0
   11.9211    7.5870   -4.3303 C   0  0  0  0  0  0  0  0  0  0  0  0
    9.5730    2.7786  -13.2723 C   0  0  0  0  0  0  0  0  0  0  0  0
   10.1520    8.9022   -4.5857 C   0  0  0  0  0  0  0  0  0  0  0  0
   12.1657    9.4645   -5.3107 C   0  0  0  0  0  0  0  0  0  0  0  0
  1  2  1  0  0  0  0
  2  3  1  0  0  0  0
  2  7  2  0  0  0  0
  4  3  1  6  0  0  0
  4  5  1  0  0  0  0
  4  6  1  0  0  0  0
  4  8  1  0  0  0  0
  5  9  2  0  0  0  0
  6 13  1  0  0  0  0
  7 12  1  0  0  0  0
  8 19  2  0  0  0  0
 10  7  1  1  0  0  0
 10 14  1  0  0  0  0
 10 17  1  0  0  0  0
 11  8  1  6  0  0  0
 11 20  1  0  0  0  0
 11 32  1  0  0  0  0
 12 18  1  0  0  0  0
 12 30  1  1  0  0  0
 12 32  1  0  0  0  0
 13 16  2  0  0  0  0
 13 21  1  0  0  0  0
 14  5  1  1  0  0  0
 14 15  1  0  0  0  0
 14 20  1  0  0  0  0
 15 31  1  0  0  0  0
 15 40  1  0  0  0  0
 17 18  1  0  0  0  0
 17 23  1  0  0  0  0
 18 25  1  0  0  0  0
 18 26  1  0  0  0  0
 19 21  1  0  0  0  0
 19 35  1  0  0  0  0
 20 23  1  0  0  0  0
 21 22  2  0  0  0  0
 22 27  1  0  0  0  0
 23 24  1  0  0  0  0
 23 40  1  0  0  0  0
 24 26  1  0  0  0  0
 26 28  2  0  0  0  0
 27 34  2  0  0  0  0
 27 36  1  0  0  0  0
 28 29  1  0  0  0  0
 28 32  1  0  0  0  0
 29 38  1  0  0  0  0
 31 33  2  0  0  0  0
 31 37  1  0  0  0  0
 34 35  1  0  0  0  0
 35 38  1  0  0  0  0
 36 39  1  0  0  0  0
 36 41  1  0  0  0  0
 36 42  1  0  0  0  0
M  END
$$$$

 OpenBabel10082411353D

 42 47  0  0  0  0  0  0  0  0999 V2000
   11.6836    6.0105   -4.8831 C   0  0  0  0  0  0  0  0  0  0  0  0
   11.1291    7.0732   -5.4395 C   0  0  0  0  0  0  0  0  0  0  0  0
   10.6954    7.0156   -6.8073 C   0  0  0  0  0  0  0  0  0  0  0  0
   10.2502    8.1187   -7.5536 C   0  0  2  0  0  0  0  0  0  0  0  0
   11.1205    8.4712   -4.9629 C   0  0  0  0  0  0  0  0  0  0  0  0
   10.8655    8.3511   -8.7960 C   0  0  0  0  0  0  0  0  0  0  0  0
   10.2922    7.8843   -9.9985 C   0  0  0  0  0  0  0  0  0  0  0  0
   10.4654    9.6993   -5.6120 C   0  0  0  0  0  0  0  0  0  0  0  0
   10.3510    9.5971   -7.0014 C   0  0  0  0  0  0  0  0  0  0  0  0
   12.2462    6.3351   -3.5020 C   0  0  0  0  0  0  0  0  0  0  0  0
   11.0471    7.5309  -11.1063 C   0  0  0  0  0  0  0  0  0  0  0  0
   11.7288    8.6923   -3.6518 C   0  0  0  0  0  0  0  0  0  0  0  0
   12.3991    7.7501  -11.1145 C   0  0  0  0  0  0  0  0  0  0  0  0
   12.3738    7.7580   -2.9599 C   0  0  0  0  0  0  0  0  0  0  0  0
   13.1285    8.5075  -10.1661 O   0  0  0  0  0  0  0  0  0  0  0  0
    9.0407    7.3775  -10.0973 N   0  0  0  0  0  0  0  0  0  0  0  0
    8.9787    6.9473  -11.4664 N   0  0  0  0  0  0  0  0  0  0  0  0
   13.1012    7.4459  -12.3707 C   0  0  0  0  0  0  0  0  0  0  0  0
   12.2395    6.9724  -13.2444 C   0  0  0  0  0  0  0  0  0  0  0  0
   10.2768    7.0170  -11.9799 C   0  0  0  0  0  0  0  0  0  0  0  0
   12.9237    6.5822  -14.5759 O   0  0  0  0  0  0  0  0  0  0  0  0
   10.8906    6.6526  -13.2252 C   0  0  0  0  0  0  0  0  0  0  0  0
   12.2396    6.1290  -15.6916 C   0  0  0  0  0  0  0  0  0  0  0  0
    7.8036    6.1825  -11.9342 C   0  0  0  0  0  0  0  0  0  0  0  0
   12.5015    4.7115  -15.7686 C   0  0  0  0  0  0  0  0  0  0  0  0
    7.1685    6.9992  -12.8245 C   0  0  0  0  0  0  0  0  0  0  0  0
   11.2461    3.8540  -15.4851 C   0  0  0  0  0  0  0  0  0  0  0  0
    7.6237    4.9154  -11.6529 C   0  0  0  0  0  0  0  0  0  0  0  0
    6.6378    4.1960  -12.2267 C   0  0  0  0  0  0  0  0  0  0  0  0
    6.2717    2.7675  -11.9743 C   0  0  0  0  0  0  0  0  0  0  0  0
    6.6569    1.8873  -12.9460 C   0  0  0  0  0  0  0  0  0  0  0  0
    7.3895    8.4597  -13.1785 C   0  0  0  0  0  0  0  0  0  0  0  0
    6.3114    0.5653  -12.7247 C   0  0  0  0  0  0  0  0  0  0  0  0
    7.7684    2.0327  -13.9055 C   0  0  0  0  0  0  0  0  0  0  0  0
    8.3733    3.3319  -14.0408 C   0  0  0  0  0  0  0  0  0  0  0  0
    6.7866   -0.4375  -13.6507 C   0  0  0  0  0  0  0  0  0  0  0  0
   11.3491    2.6020  -15.5284 O   0  0  0  0  0  0  0  0  0  0  0  0
   10.0815    4.4913  -15.3913 N   0  0  0  0  0  0  0  0  0  0  0  0
    8.2781    1.1143  -14.4231 C   0  0  0  0  0  0  0  0  0  0  0  0
    9.3799    1.3491  -15.4573 C   0  0  0  0  0  0  0  0  0  0  0  0
    8.8810    3.7858  -14.9053 C   0  0  0  0  0  0  0  0  0  0  0  0
    7.7973   -0.1789  -14.5146 C   0  0  0  0  0  0  0  0  0  0  0  0
  1  2  1  0  0  0  0
  1 10  2  0  0  0  0
  2  3  1  0  0  0  0
  2  5  2  0  0  0  0
  3  4  1  0  0  0  0
  4  6  1  6  0  0  0
  4  9  1  0  0  0  0
  5  8  1  0  0  0  0
  5 12  1  0  0  0  0
  6  7  1  0  0  0  0
  7 11  1  0  0  0  0
  7 16  2  0  0  0  0
  8  9  1  0  0  0  0
 10 14  1  0  0  0  0
 11 13  2  0  0  0  0
 11 20  1  0  0  0  0
 12 14  2  0  0  0  0
 13 15  1  0  0  0  0
 13 18  1  0  0  0  0
 16 17  1  0  0  0  0
 17 20  1  0  0  0  0
 17 24  1  0  0  0  0
 18 19  2  0  0  0  0
 19 21  1  0  0  0  0
 19 22  1  0  0  0  0
 20 22  2  0  0  0  0
 21 23  1  0  0  0  0
 23 25  1  0  0  0  0
 24 26  2  3  0  0  0
 24 28  1  0  0  0  0
 25 27  1  0  0  0  0
 26 32  1  0  0  0  0
 27 37  2  0  0  0  0
 27 38  1  0  0  0  0
 28 29  2  0  0  0  0
 29 30  1  0  0  0  0
 30 31  1  0  0  0  0
 31 33  2  0  0  0  0
 31 34  1  0  0  0  0
 33 36  1  0  0  0  0
 34 35  1  0  0  0  0
 34 39  2  0  0  0  0
 35 41  2  0  0  0  0
 36 42  2  0  0  0  0
 38 41  1  0  0  0  0
 39 40  1  0  0  0  0
 39 42  1  0  0  0  0
M  END
$$$$

 OpenBabel10082411353D

 42 47  0  0  0  0  0  0  0  0999 V2000
   11.6836    6.0105   -4.8831 F   0  0  0  0  0  0  0  0  0  0  0  0
   11.2562    7.2206   -5.0294 C   0  0  0  0  0  0  0  0  0  0  0  0
   12.0125    8.2418   -4.4408 C   0  0  0  0  0  0  0  0  0  0  0  0
   11.1918    7.2706   -6.5237 C   0  0  0  0  0  0  0  0  0  0  0  0
   11.6999    8.4488   -3.1704 F   0  0  0  0  0  0  0  0  0  0  0  0
    9.8648    7.0908   -4.5314 F   0  0  0  0  0  0  0  0  0  0  0  0
   11.6831    8.5291   -6.9682 C   0  0  0  0  0  0  0  0  0  0  0  0
   10.4785    6.5189   -7.4033 C   0  0  0  0  0  0  0  0  0  0  0  0
   11.6979    8.6661   -8.4760 C   0  0  0  0  0  0  0  0  0  0  0  0
   11.6248    9.5853   -5.0030 C   0  0  0  0  0  0  0  0  0  0  0  0
   11.8604    9.7907   -6.2903 O   0  0  0  0  0  0  0  0  0  0  0  0
   13.3557    8.1748   -4.5947 F   0  0  0  0  0  0  0  0  0  0  0  0
   10.5427    6.6061   -8.7190 C   0  0  0  0  0  0  0  0  0  0  0  0
   11.1158    7.7103   -9.2540 C   0  0  0  0  0  0  0  0  0  0  0  0
   11.3757    7.6656  -10.5293 N   0  0  0  0  0  0  0  0  0  0  0  0
   10.7153    7.7096  -11.5405 C   0  0  0  0  0  0  0  0  0  0  0  0
   11.2483    7.4711  -12.8542 C   0  0  0  0  0  0  0  0  0  0  0  0
    9.3980    7.7820  -11.5398 C   0  0  0  0  0  0  0  0  0  0  0  0
    8.6055    7.5889  -12.6525 C   0  0  0  0  0  0  0  0  0  0  0  0
   12.7508    7.3705  -13.0162 O   0  0  0  0  0  0  0  0  0  0  0  0
   10.5299    7.1831  -13.9856 C   0  0  0  0  0  0  0  0  0  0  0  0
    7.0533    7.7371  -12.5396 C   0  0  0  0  0  0  0  0  0  0  0  0
   11.2041    6.8490  -15.2304 C   0  0  0  0  0  0  0  0  0  0  0  0
   11.6393    5.5333  -15.3864 C   0  0  0  0  0  0  0  0  0  0  0  0
    9.1955    7.2935  -13.8301 C   0  0  0  0  0  0  0  0  0  0  0  0
   12.5294    5.1116  -16.1609 C   0  0  0  0  0  0  0  0  0  0  0  0
   11.2315    4.4703  -14.3200 C   0  0  0  0  0  0  0  0  0  0  0  0
   10.2844    4.5821  -13.3000 C   0  0  0  0  0  0  0  0  0  0  0  0
   11.6270    3.1866  -14.6052 C   0  0  0  0  0  0  0  0  0  0  0  0
    9.0868    3.8289  -13.3080 C   0  0  0  0  0  0  0  0  0  0  0  0
   11.3420    2.7039  -15.8535 C   0  0  0  0  0  0  0  0  0  0  0  0
    8.3582    4.0400  -12.0395 C   0  0  0  0  0  0  0  0  0  0  0  0
   13.0053    6.2224  -17.1322 C   0  0  0  0  0  0  0  0  0  0  0  0
   12.3338    3.1792  -16.8738 C   0  0  0  0  0  0  0  0  0  0  0  0
   12.9709    3.9849  -16.5221 O   0  0  0  0  0  0  0  0  0  0  0  0
    6.9893    3.6862  -12.1936 C   0  0  0  0  0  0  0  0  0  0  0  0
    6.0529    4.0659  -11.1662 F   0  0  0  0  0  0  0  0  0  0  0  0
   12.3817    7.3820  -16.9825 C   0  0  0  0  0  0  0  0  0  0  0  0
    6.5646    2.9642  -13.2598 C   0  0  0  0  0  0  0  0  0  0  0  0
    8.3043    3.2070  -14.2764 C   0  0  0  0  0  0  0  0  0  0  0  0
    7.2067    2.7852  -14.3014 C   0  0  0  0  0  0  0  0  0  0  0  0
   11.5632    7.7277  -15.9858 C   0  0  0  0  0  0  0  0  0  0  0  0
  1  2  1  0  0  0  0
  2  3  1  0  0  0  0
  2  4  1  0  0  0  0
  2  6  1  0  0  0  0
  3  5  1  0  0  0  0
  3 10  1  0  0  0  0
  3 12  1  0  0  0  0
  4  7  1  0  0  0  0
  4  8  2  0  0  0  0
  7  9  2  0  0  0  0
  7 11  1  0  0  0  0
  8 13  1  0  0  0  0
  9 14  1  0  0  0  0
 10 11  1  0  0  0  0
 13 14  2  0  0  0  0
 14 15  1  0  0  0  0
 15 16  1  0  0  0  0
 16 17  1  0  0  0  0
 16 18  2  0  0  0  0
 17 20  1  0  0  0  0
 17 21  2  0  0  0  0
 18 19  1  0  0  0  0
 19 22  1  0  0  0  0
 19 25  2  0  0  0  0
 21 23  1  0  0  0  0
 21 25  1  0  0  0  0
 23 24  1  0  0  0  0
 23 42  2  0  0  0  0
 24 26  2  0  0  0  0
 24 27  1  0  0  0  0
 26 33  1  0  0  0  0
 26 35  1  0  0  0  0
 27 28  1  0  0  0  0
 27 29  2  0  0  0  0
 28 30  2  3  0  0  0
 29 31  1  0  0  0  0
 30 32  1  0  0  0  0
 30 40  1  0  0  0  0
 31 34  1  0  0  0  0
 32 36  2  0  0  0  0
 33 38  2  0  0  0  0
 34 35  1  0  0  0  0
 36 37  1  0  0  0  0
 36 39  1  0  0  0  0
 38 42  1  0  0  0  0
 39 41  2  0  0  0  0
 40 41  1  0  0  0  0
M  END
$$$$

 OpenBabel10082411353D

 42 47  0  0  0  0  0  0  0  0999 V2000
   11.6836    6.0105   -4.8831 F   0  0  0  0  0  0  0  0  0  0  0  0
   11.2562    7.2206   -5.0294 C   0  0  0  0  0  0  0  0  0  0  0  0
   12.0125    8.2418   -4.4408 C   0  0  0  0  0  0  0  0  0  0  0  0
   11.1918    7.2706   -6.5237 C   0  0  0  0  0  0  0  0  0  0  0  0
   11.6999    8.4488   -3.1704 F   0  0  0  0  0  0  0  0  0  0  0  0
    9.8648    7.0908   -4.5314 F   0  0  0  0  0  0  0  0  0  0  0  0
   11.6831    8.5291   -6.9682 C   0  0  0  0  0  0  0  0  0  0  0  0
   10.4785    6.5189   -7.4033 C   0  0  0  0  0  0  0  0  0  0  0  0
   11.6979    8.6661   -8.4760 C   0  0  0  0  0  0  0  0  0  0  0  0
   11.6248    9.5853   -5.0030 C   0  0  0  0  0  0  0  0  0  0  0  0
   11.8604    9.7907   -6.2903 O   0  0  0  0  0  0  0  0  0  0  0  0
   13.3557    8.1748   -4.5947 F   0  0  0  0  0  0  0  0  0  0  0  0
   10.5427    6.6061   -8.7190 C   0  0  0  0  0  0  0  0  0  0  0  0
   11.1158    7.7103   -9.2540 C   0  0  0  0  0  0  0  0  0  0  0  0
   11.3757    7.6656  -10.5293 N   0  0  0  0  0  0  0  0  0  0  0  0
   10.7153    7.7096  -11.5405 C   0  0  0  0  0  0  0  0  0  0  0  0
   11.2483    7.4711  -12.8542 C   0  0  0  0  0  0  0  0  0  0  0  0
    9.3980    7.7820  -11.5398 C   0  0  0  0  0  0  0  0  0  0  0  0
    8.6055    7.5889  -12.6525 C   0  0  0  0  0  0  0  0  0  0  0  0
   12.7508    7.3705  -13.0162 O   0  0  0  0  0  0  0  0  0  0  0  0
   10.5299    7.1831  -13.9856 C   0  0  0  0  0  0  0  0  0  0  0  0
    7.0533    7.7371  -12.5396 C   0  0  0  0  0  0  0  0  0  0  0  0
   11.2041    6.8490  -15.2304 C   0  0  0  0  0  0  0  0  0  0  0  0
   11.6393    5.5333  -15.3864 C   0  0  0  0  0  0  0  0  0  0  0  0
    9.1955    7.2935  -13.8301 C   0  0  0  0  0  0  0  0  0  0  0  0
   12.5294    5.1116  -16.1609 C   0  0  0  0  0  0  0  0  0  0  0  0
   11.2315    4.4703  -14.3200 C   0  0  0  0  0  0  0  0  0  0  0  0
   10.2844    4.5821  -13.3000 C   0  0  0  0  0  0  0  0  0  0  0  0
   11.6270    3.1866  -14.6052 C   0  0  0  0  0  0  0  0  0  0  0  0
    9.0868    3.8289  -13.3080 C   0  0  0  0  0  0  0  0  0  0  0  0
   11.3420    2.7039  -15.8535 C   0  0  0  0  0  0  0  0  0  0  0  0
    8.3582    4.0400  -12.0395 C   0  0  0  0  0  0  0  0  0  0  0  0
   13.0053    6.2224  -17.1322 C   0  0  0  0  0  0  0  0  0  0  0  0
   12.3338    3.1792  -16.8738 C   0  0  0  0  0  0  0  0  0  0  0  0
   12.9709    3.9849  -16.5221 O   0  0  0  0  0  0  0  0  0  0  0  0
    6.9893    3.6862  -12.1936 C   0  0  0  0  0  0  0  0  0  0  0  0
    6.0529    4.0659  -11.1662 F   0  0  0  0  0  0  0  0  0  0  0  0
   12.3817    7.3820  -16.9825 C   0  0  0  0  0  0  0  0  0  0  0  0
    6.5646    2.9642  -13.2598 C   0  0  0  0  0  0  0  0  0  0  0  0
    8.3043    3.2070  -14.2764 C   0  0  0  0  0  0  0  0  0  0  0  0
   11.5220    7.7383  -15.9604 C   0  0  0  0  0  0  0  0  0  0  0  0
    7.2239    2.8061  -14.2981 C   0  0  0  0  0  0  0  0  0  0  0  0
  1  2  1  0  0  0  0
  2  3  1  0  0  0  0
  2  4  1  0  0  0  0
  2  6  1  0  0  0  0
  3  5  1  0  0  0  0
  3 10  1  0  0  0  0
  3 12  1  0  0  0  0
  4  7  1  0  0  0  0
  4  8  2  0  0  0  0
  7  9  2  0  0  0  0
  7 11  1  0  0  0  0
  8 13  1  0  0  0  0
  9 14  1  0  0  0  0
 10 11  1  0  0  0  0
 13 14  2  0  0  0  0
 14 15  1  0  0  0  0
 15 16  1  0  0  0  0
 16 17  1  0  0  0  0
 16 18  2  0  0  0  0
 17 20  1  0  0  0  0
 17 21  2  0  0  0  0
 18 19  1  0  0  0  0
 19 22  1  0  0  0  0
 19 25  2  0  0  0  0
 21 23  1  0  0  0  0
 21 25  1  0  0  0  0
 23 24  1  0  0  0  0
 23 41  2  0  0  0  0
 24 26  2  0  0  0  0
 24 27  1  0  0  0  0
 26 33  1  0  0  0  0
 26 35  1  0  0  0  0
 27 28  1  0  0  0  0
 27 29  2  0  0  0  0
 28 30  2  3  0  0  0
 29 31  1  0  0  0  0
 30 32  1  0  0  0  0
 30 40  1  0  0  0  0
 31 34  1  0  0  0  0
 32 36  2  0  0  0  0
 33 38  2  0  0  0  0
 34 35  1  0  0  0  0
 36 37  1  0  0  0  0
 36 39  1  0  0  0  0
 38 41  1  0  0  0  0
 39 42  2  0  0  0  0
 40 42  2  0  0  0  0
M  END
$$$$

 OpenBabel10082411353D

 26 29  0  0  0  0  0  0  0  0999 V2000
   10.7609    9.6228   -4.2714 C   0  0  0  0  0  0  0  0  0  0  0  0
   10.4930    9.4831   -5.5343 C   0  0  0  0  0  0  0  0  0  0  0  0
   11.6139    8.5907   -3.8078 C   0  0  0  0  0  0  0  0  0  0  0  0
   10.6916    8.7185   -6.3306 C   0  0  0  0  0  0  0  0  0  0  0  0
   11.4775    7.4908   -5.9802 C   0  0  0  0  0  0  0  0  0  0  0  0
   10.1045    8.7095   -7.8164 C   0  0  0  0  0  0  0  0  0  0  0  0
   11.8703    7.5203   -4.5985 C   0  0  0  0  0  0  0  0  0  0  0  0
   10.7919    7.9248   -8.8228 C   0  0  2  0  0  0  0  0  0  0  0  0
   11.9364    8.4952   -9.3965 C   0  0  0  0  0  0  0  0  0  0  0  0
    9.8959    7.3469   -9.8494 C   0  0  0  0  0  0  0  0  0  0  0  0
   12.2659    8.0794  -10.7080 C   0  0  0  0  0  0  0  0  0  0  0  0
   10.4408    6.8044  -11.0562 C   0  0  2  0  0  0  0  0  0  0  0  0
   11.4386    7.6856  -11.6482 N   0  0  0  0  0  0  0  0  0  0  0  0
    9.4200    6.2781  -12.0473 C   0  0  2  0  0  0  0  0  0  0  0  0
   11.6788    7.6359  -13.0249 C   0  0  0  0  0  0  0  0  0  0  0  0
   12.6986    7.8374  -13.5514 O   0  0  0  0  0  0  0  0  0  0  0  0
    8.6050    5.1568  -11.5138 C   0  0  0  0  0  0  0  0  0  0  0  0
    9.9990    5.8712  -13.2928 C   0  0  1  0  0  0  0  0  0  0  0  0
   10.5693    7.3889  -13.8893 C   0  0  0  0  0  0  0  0  0  0  0  0
   11.1361    4.9366  -13.2042 C   0  0  0  0  0  0  0  0  0  0  0  0
   10.5789    3.5233  -13.7057 C   0  0  0  0  0  0  0  0  0  0  0  0
   11.3177    2.5330  -14.0069 O   0  0  0  0  0  0  0  0  0  0  0  0
    7.4254    4.8214  -12.2512 C   0  0  2  0  0  0  0  0  0  0  0  0
    9.3391    3.3769  -13.5668 O   0  0  0  0  0  0  0  0  0  0  0  0
    6.2740    4.7863  -11.7220 O   0  0  0  0  0  0  0  0  0  0  0  0
    7.8016    3.6630  -13.3024 C   0  0  0  0  0  0  0  0  0  0  0  0
  1  2  1  0  0  0  0
  1  3  2  0  0  0  0
  2  4  2  0  0  0  0
  3  7  1  0  0  0  0
  4  5  1  0  0  0  0
  4  6  1  0  0  0  0
  5  7  2  0  0  0  0
  8  6  1  6  0  0  0
  8  9  1  0  0  0  0
  8 10  1  0  0  0  0
  9 11  1  0  0  0  0
 11 13  1  0  0  0  0
 12 10  1  1  0  0  0
 12 13  1  0  0  0  0
 12 14  1  0  0  0  0
 13 15  1  0  0  0  0
 14 17  1  1  0  0  0
 14 18  1  0  0  0  0
 15 16  2  0  0  0  0
 15 19  1  0  0  0  0
 17 23  1  0  0  0  0
 18 19  1  1  0  0  0
 18 20  1  0  0  0  0
 20 21  1  0  0  0  0
 21 22  2  0  0  0  0
 21 24  1  0  0  0  0
 23 25  1  1  0  0  0
 23 26  1  0  0  0  0
 24 26  1  0  0  0  0
M  END
$$$$

 OpenBabel10082411353D

 42 52  0  0  0  0  0  0  0  0999 V2000
    8.0806    9.0240  -12.7589 C   0  0  0  0  0  0  0  0  0  0  0  0
    8.6514    7.8645  -12.2948 C   0  0  0  0  0  0  0  0  0  0  0  0
    9.9575    7.9974  -11.8426 C   0  0  0  0  0  0  0  0  0  0  0  0
   10.7657    6.8667  -11.6050 C   0  0  1  0  0  0  0  0  0  0  0  0
   10.7682    5.9590  -12.8271 C   0  0  0  0  0  0  0  0  0  0  0  0
   12.1553    7.3846  -11.2315 C   0  0  0  0  0  0  0  0  0  0  0  0
    8.0676    6.6451  -12.2974 C   0  0  0  0  0  0  0  0  0  0  0  0
   10.1892    6.1240  -10.3860 C   0  0  0  0  0  0  0  0  0  0  0  0
   11.8375    5.4373  -13.3240 O   0  0  0  0  0  0  0  0  0  0  0  0
    8.6785    5.4761  -13.0273 C   0  0  1  0  0  0  0  0  0  0  0  0
    9.1969    5.2405  -10.4969 C   0  0  2  0  0  0  0  0  0  0  0  0
    7.2213    6.2210  -11.3074 C   0  0  2  0  0  0  0  0  0  0  0  0
   12.5590    7.6872   -9.9896 C   0  0  0  0  0  0  0  0  0  0  0  0
    9.7633    5.0333  -12.9720 C   0  0  1  0  0  0  0  0  0  0  0  0
   10.0661    4.0167  -14.0373 N   0  0  0  0  0  0  0  0  0  0  0  0
   13.6906    8.3004   -9.6233 O   0  0  0  0  0  0  0  0  0  0  0  0
    7.6357    4.5123  -12.6317 C   0  0  2  0  0  0  0  0  0  0  0  0
    6.8831    4.9171  -11.7031 C   0  0  2  0  0  0  0  0  0  0  0  0
   10.5937    6.6967   -9.1779 C   0  0  0  0  0  0  0  0  0  0  0  0
    9.5087    4.3263  -11.6925 C   0  0  2  0  0  0  0  0  0  0  0  0
   11.6359    7.4449   -8.9125 C   0  0  0  0  0  0  0  0  0  0  0  0
   11.9716    7.9159   -7.6200 C   0  0  0  0  0  0  0  0  0  0  0  0
    8.4648    3.6122  -12.2840 C   0  0  1  0  0  0  0  0  0  0  0  0
    7.9253    2.8004  -11.3926 C   0  0  0  0  0  0  0  0  0  0  0  0
    5.6047    4.5059  -11.7589 C   0  0  0  0  0  0  0  0  0  0  0  0
    7.6606    4.1297  -10.5699 C   0  0  0  0  0  0  0  0  0  0  0  0
   10.9559    7.6849   -6.6057 C   0  0  0  0  0  0  0  0  0  0  0  0
    8.0094    4.5092   -9.5664 C   0  0  0  0  0  0  0  0  0  0  0  0
    8.3033    4.0627   -8.4980 C   0  0  0  0  0  0  0  0  0  0  0  0
    6.3587    7.1012  -11.0392 O   0  0  0  0  0  0  0  0  0  0  0  0
   11.0186    3.9598  -14.9226 C   0  0  0  0  0  0  0  0  0  0  0  0
    8.1758    5.8633  -10.2511 C   0  0  1  0  0  0  0  0  0  0  0  0
    9.4315    2.8557  -13.5931 C   0  0  0  0  0  0  0  0  0  0  0  0
   11.5906    2.6986  -15.1672 C   0  0  0  0  0  0  0  0  0  0  0  0
    9.9783    6.7760   -6.8364 C   0  0  0  0  0  0  0  0  0  0  0  0
    9.7446    6.4267   -8.0721 C   0  0  2  0  0  0  0  0  0  0  0  0
   11.2061    4.8269  -15.6646 O   0  0  0  0  0  0  0  0  0  0  0  0
   11.3653    8.3625   -5.0455 S   0  0  0  0  0  0  0  0  0  0  0  0
   12.1511    7.4667   -4.3093 O   0  0  0  0  0  0  0  0  0  0  0  0
    9.0190    5.1422   -7.7959 C   0  0  0  0  0  0  0  0  0  0  0  0
   12.2214    9.7595   -5.3352 N   0  0  0  0  0  0  0  0  0  0  0  0
   10.1307    8.9579   -4.3050 O   0  0  0  0  0  0  0  0  0  0  0  0
  1  2  1  0  0  0  0
  2  3  1  0  0  0  0
  2  7  2  0  0  0  0
  4  3  1  6  0  0  0
  4  5  1  0  0  0  0
  4  6  1  0  0  0  0
  4  8  1  0  0  0  0
  5  9  2  0  0  0  0
  6 13  1  0  0  0  0
  7 12  1  0  0  0  0
  8 19  2  0  0  0  0
 10  7  1  1  0  0  0
 10 14  1  0  0  0  0
 10 17  1  0  0  0  0
 11  8  1  6  0  0  0
 11 20  1  0  0  0  0
 11 32  1  0  0  0  0
 12 18  1  0  0  0  0
 12 30  1  1  0  0  0
 12 32  1  0  0  0  0
 13 16  2  0  0  0  0
 13 21  1  0  0  0  0
 14  5  1  1  0  0  0
 14 15  1  0  0  0  0
 14 20  1  0  0  0  0
 15 31  1  0  0  0  0
 15 33  1  0  0  0  0
 17 18  1  0  0  0  0
 17 23  1  0  0  0  0
 18 25  1  0  0  0  0
 18 26  1  0  0  0  0
 19 21  1  0  0  0  0
 19 36  1  0  0  0  0
 20 23  1  0  0  0  0
 21 22  2  0  0  0  0
 22 27  1  0  0  0  0
 23 24  1  0  0  0  0
 23 33  1  0  0  0  0
 24 26  1  0  0  0  0
 26 28  2  0  0  0  0
 27 35  2  0  0  0  0
 27 38  1  0  0  0  0
 28 29  1  0  0  0  0
 28 32  1  0  0  0  0
 29 40  1  0  0  0  0
 31 34  1  0  0  0  0
 31 37  2  0  0  0  0
 35 36  1  0  0  0  0
 36 40  1  0  0  0  0
 38 39  2  0  0  0  0
 38 41  1  0  0  0  0
 38 42  2  0  0  0  0
M  END
$$$$

 OpenBabel10082411353D

 42 53  0  0  0  0  0  0  0  0999 V2000
    8.0806    9.0240  -12.7589 C   0  0  0  0  0  0  0  0  0  0  0  0
    8.6514    7.8645  -12.2948 C   0  0  0  0  0  0  0  0  0  0  0  0
    9.9575    7.9974  -11.8426 C   0  0  0  0  0  0  0  0  0  0  0  0
   10.7657    6.8667  -11.6050 C   0  0  1  0  0  0  0  0  0  0  0  0
   10.7682    5.9590  -12.8271 C   0  0  0  0  0  0  0  0  0  0  0  0
   12.1553    7.3846  -11.2315 C   0  0  0  0  0  0  0  0  0  0  0  0
    8.0676    6.6451  -12.2974 C   0  0  0  0  0  0  0  0  0  0  0  0
   10.1892    6.1240  -10.3860 C   0  0  0  0  0  0  0  0  0  0  0  0
   11.8375    5.4373  -13.3240 O   0  0  0  0  0  0  0  0  0  0  0  0
    8.6785    5.4761  -13.0273 C   0  0  1  0  0  0  0  0  0  0  0  0
    9.1969    5.2405  -10.4969 C   0  0  1  0  0  0  0  0  0  0  0  0
    7.2213    6.2210  -11.3074 C   0  0  1  0  0  0  0  0  0  0  0  0
   12.5590    7.6872   -9.9896 C   0  0  0  0  0  0  0  0  0  0  0  0
    9.7633    5.0333  -12.9720 C   0  0  1  0  0  0  0  0  0  0  0  0
   10.0661    4.0167  -14.0373 N   0  0  0  0  0  0  0  0  0  0  0  0
   13.6906    8.3004   -9.6233 O   0  0  0  0  0  0  0  0  0  0  0  0
    7.6357    4.5123  -12.6317 C   0  0  2  0  0  0  0  0  0  0  0  0
    6.8831    4.9171  -11.7031 C   0  0  1  0  0  0  0  0  0  0  0  0
   10.5937    6.6967   -9.1779 C   0  0  0  0  0  0  0  0  0  0  0  0
    9.5087    4.3263  -11.6925 C   0  0  2  0  0  0  0  0  0  0  0  0
   11.6359    7.4449   -8.9125 C   0  0  0  0  0  0  0  0  0  0  0  0
   11.9716    7.9159   -7.6200 C   0  0  0  0  0  0  0  0  0  0  0  0
    8.4648    3.6122  -12.2840 C   0  0  2  0  0  0  0  0  0  0  0  0
    9.3128    4.5571   -9.1689 C   0  0  0  0  0  0  0  0  0  0  0  0
   10.9557    7.6369   -6.5929 C   0  0  1  0  0  0  0  0  0  0  0  0
    9.6490    2.8108  -13.7776 C   0  0  1  0  0  0  0  0  0  0  0  0
    9.6716    6.1981   -8.0224 C   0  0  2  0  0  0  0  0  0  0  0  0
    8.5511    2.5400  -13.1402 C   0  0  0  0  0  0  0  0  0  0  0  0
    9.7877    2.0302  -15.0383 O   0  0  0  0  0  0  0  0  0  0  0  0
   10.2949    6.3957   -6.8142 C   0  0  0  0  0  0  0  0  0  0  0  0
   11.5672    7.6277   -5.2275 C   0  0  0  0  0  0  0  0  0  0  0  0
    9.0573    5.0713   -8.1077 N   0  0  0  0  0  0  0  0  0  0  0  0
    9.9816    8.7976   -6.5531 C   0  0  0  0  0  0  0  0  0  0  0  0
   11.0000    1.9397  -15.5744 C   0  0  0  0  0  0  0  0  0  0  0  0
   11.6850    6.4911   -4.5753 C   0  0  0  0  0  0  0  0  0  0  0  0
   12.3660    6.6379   -3.1994 C   0  0  0  0  0  0  0  0  0  0  0  0
    7.9290    5.6263  -10.5234 C   0  0  1  0  0  0  0  0  0  0  0  0
   11.9420    8.9383   -4.7539 C   0  0  0  0  0  0  0  0  0  0  0  0
   11.6917   10.2188   -5.5374 C   0  0  0  0  0  0  0  0  0  0  0  0
   12.5318    7.9102   -2.8380 C   0  0  0  0  0  0  0  0  0  0  0  0
   10.2243   10.1430   -5.9958 C   0  0  0  0  0  0  0  0  0  0  0  0
   12.4440    9.0273   -3.4087 C   0  0  0  0  0  0  0  0  0  0  0  0
  1  2  1  0  0  0  0
  2  3  1  0  0  0  0
  2  7  2  0  0  0  0
  4  3  1  6  0  0  0
  4  5  1  0  0  0  0
  4  6  1  0  0  0  0
  4  8  1  0  0  0  0
  5  9  2  0  0  0  0
  6 13  1  0  0  0  0
  8 11  1  0  0  0  0
  8 19  2  0  0  0  0
 10  7  1  1  0  0  0
 10 14  1  0  0  0  0
 10 17  1  0  0  0  0
 11 20  1  0  0  0  0
 11 24  1  1  0  0  0
 11 37  1  0  0  0  0
 12  7  1  6  0  0  0
 12 18  1  0  0  0  0
 12 37  1  0  0  0  0
 13 16  2  0  0  0  0
 13 21  1  0  0  0  0
 14  5  1  1  0  0  0
 14 15  1  0  0  0  0
 14 20  1  0  0  0  0
 15 26  1  0  0  0  0
 17 18  1  0  0  0  0
 17 23  1  0  0  0  0
 18 37  1  0  0  0  0
 19 21  1  0  0  0  0
 19 27  1  0  0  0  0
 20 23  1  0  0  0  0
 21 22  2  0  0  0  0
 22 25  1  0  0  0  0
 23 28  1  0  0  0  0
 24 32  2  0  0  0  0
 25 30  1  0  0  0  0
 25 31  1  0  0  0  0
 25 33  1  0  0  0  0
 26 28  1  0  0  0  0
 26 29  1  0  0  0  0
 27 30  1  0  0  0  0
 27 32  1  0  0  0  0
 29 34  1  0  0  0  0
 31 35  2  0  0  0  0
 31 38  1  0  0  0  0
 33 41  1  0  0  0  0
 35 36  1  0  0  0  0
 36 40  2  0  0  0  0
 38 39  1  0  0  0  0
 38 42  2  0  0  0  0
 39 41  1  0  0  0  0
 40 42  1  0  0  0  0
M  END
$$$$

 OpenBabel10082411353D

 42 48  0  0  0  0  0  0  0  0999 V2000
   11.6836    6.0105   -4.8831 C   0  0  0  0  0  0  0  0  0  0  0  0
   11.1291    7.0732   -5.4395 C   0  0  0  0  0  0  0  0  0  0  0  0
   10.6954    7.0156   -6.8073 C   0  0  0  0  0  0  0  0  0  0  0  0
   10.2502    8.1187   -7.5536 C   0  0  2  0  0  0  0  0  0  0  0  0
   11.1205    8.4712   -4.9629 C   0  0  0  0  0  0  0  0  0  0  0  0
   10.8655    8.3511   -8.7960 C   0  0  0  0  0  0  0  0  0  0  0  0
   10.2922    7.8843   -9.9985 C   0  0  0  0  0  0  0  0  0  0  0  0
   10.4654    9.6993   -5.6120 C   0  0  0  0  0  0  0  0  0  0  0  0
   10.3510    9.5971   -7.0014 C   0  0  0  0  0  0  0  0  0  0  0  0
   12.2462    6.3351   -3.5020 C   0  0  0  0  0  0  0  0  0  0  0  0
   11.0471    7.5309  -11.1063 C   0  0  0  0  0  0  0  0  0  0  0  0
   11.7288    8.6923   -3.6518 C   0  0  0  0  0  0  0  0  0  0  0  0
   12.3991    7.7501  -11.1145 C   0  0  0  0  0  0  0  0  0  0  0  0
   12.3738    7.7580   -2.9599 C   0  0  0  0  0  0  0  0  0  0  0  0
   13.1285    8.5075  -10.1661 O   0  0  0  0  0  0  0  0  0  0  0  0
    9.0407    7.3775  -10.0973 N   0  0  0  0  0  0  0  0  0  0  0  0
    8.9787    6.9473  -11.4664 N   0  0  0  0  0  0  0  0  0  0  0  0
   13.1012    7.4459  -12.3707 C   0  0  0  0  0  0  0  0  0  0  0  0
   12.2395    6.9724  -13.2444 C   0  0  0  0  0  0  0  0  0  0  0  0
   10.2768    7.0170  -11.9799 C   0  0  0  0  0  0  0  0  0  0  0  0
   12.9237    6.5822  -14.5759 O   0  0  0  0  0  0  0  0  0  0  0  0
   10.8906    6.6526  -13.2252 C   0  0  0  0  0  0  0  0  0  0  0  0
   12.2396    6.1290  -15.6916 C   0  0  0  0  0  0  0  0  0  0  0  0
    7.8036    6.1825  -11.9342 C   0  0  0  0  0  0  0  0  0  0  0  0
   12.5015    4.7115  -15.7686 C   0  0  0  0  0  0  0  0  0  0  0  0
    7.1685    6.9992  -12.8245 C   0  0  0  0  0  0  0  0  0  0  0  0
   11.2461    3.8540  -15.4851 C   0  0  0  0  0  0  0  0  0  0  0  0
    7.6237    4.9154  -11.6529 C   0  0  0  0  0  0  0  0  0  0  0  0
    6.6378    4.1960  -12.2267 C   0  0  0  0  0  0  0  0  0  0  0  0
    6.2717    2.7675  -11.9743 C   0  0  0  0  0  0  0  0  0  0  0  0
    6.6569    1.8873  -12.9460 C   0  0  0  0  0  0  0  0  0  0  0  0
    7.3895    8.4597  -13.1785 C   0  0  0  0  0  0  0  0  0  0  0  0
    6.3114    0.5653  -12.7247 C   0  0  0  0  0  0  0  0  0  0  0  0
    7.7684    2.0327  -13.9055 C   0  0  0  0  0  0  0  0  0  0  0  0
    6.9387   -0.3720  -13.7691 C   0  0  0  0  0  0  0  0  0  0  0  0
    8.3285    1.1433  -14.6815 C   0  0  0  0  0  0  0  0  0  0  0  0
   11.1366    3.2519  -14.4180 O   0  0  0  0  0  0  0  0  0  0  0  0
    7.8526   -0.2094  -14.5021 C   0  0  0  0  0  0  0  0  0  0  0  0
   10.0170    4.3035  -15.7976 C   0  0  0  0  0  0  0  0  0  0  0  0
    9.9554    2.7038  -14.1564 C   0  0  0  0  0  0  0  0  0  0  0  0
    8.6320    3.1920  -14.1940 C   0  0  1  0  0  0  0  0  0  0  0  0
    8.8850    3.9750  -15.0627 C   0  0  0  0  0  0  0  0  0  0  0  0
  1  2  1  0  0  0  0
  1 10  2  0  0  0  0
  2  3  1  0  0  0  0
  2  5  2  0  0  0  0
  3  4  1  0  0  0  0
  4  6  1  6  0  0  0
  4  9  1  0  0  0  0
  5  8  1  0  0  0  0
  5 12  1  0  0  0  0
  6  7  1  0  0  0  0
  7 11  1  0  0  0  0
  7 16  2  0  0  0  0
  8  9  1  0  0  0  0
 10 14  1  0  0  0  0
 11 13  2  0  0  0  0
 11 20  1  0  0  0  0
 12 14  2  0  0  0  0
 13 15  1  0  0  0  0
 13 18  1  0  0  0  0
 16 17  1  0  0  0  0
 17 20  1  0  0  0  0
 17 24  1  0  0  0  0
 18 19  2  0  0  0  0
 19 21  1  0  0  0  0
 19 22  1  0  0  0  0
 20 22  2  0  0  0  0
 21 23  1  0  0  0  0
 23 25  1  0  0  0  0
 24 26  2  3  0  0  0
 24 28  1  0  0  0  0
 25 27  1  0  0  0  0
 26 32  1  0  0  0  0
 27 37  1  0  0  0  0
 27 39  2  0  0  0  0
 28 29  2  0  0  0  0
 29 30  1  0  0  0  0
 30 31  1  0  0  0  0
 31 33  2  0  0  0  0
 31 34  1  0  0  0  0
 33 35  1  0  0  0  0
 34 36  2  0  0  0  0
 34 41  1  0  0  0  0
 35 38  2  0  0  0  0
 36 38  1  0  0  0  0
 37 40  1  0  0  0  0
 39 42  1  0  0  0  0
 41 40  1  6  0  0  0
 41 42  1  0  0  0  0
M  END
$$$$

 OpenBabel10082411353D

 42 53  0  0  0  0  0  0  0  0999 V2000
    8.0806    9.0240  -12.7589 C   0  0  0  0  0  0  0  0  0  0  0  0
    8.6514    7.8645  -12.2948 C   0  0  0  0  0  0  0  0  0  0  0  0
    9.9575    7.9974  -11.8426 C   0  0  0  0  0  0  0  0  0  0  0  0
   10.7657    6.8667  -11.6050 C   0  0  1  0  0  0  0  0  0  0  0  0
   10.7682    5.9590  -12.8271 C   0  0  0  0  0  0  0  0  0  0  0  0
   12.1553    7.3846  -11.2315 C   0  0  0  0  0  0  0  0  0  0  0  0
    8.0676    6.6451  -12.2974 C   0  0  0  0  0  0  0  0  0  0  0  0
   10.1892    6.1240  -10.3860 C   0  0  0  0  0  0  0  0  0  0  0  0
   11.8375    5.4373  -13.3240 O   0  0  0  0  0  0  0  0  0  0  0  0
    8.6785    5.4761  -13.0273 C   0  0  1  0  0  0  0  0  0  0  0  0
    9.1969    5.2405  -10.4969 C   0  0  2  0  0  0  0  0  0  0  0  0
    7.2213    6.2210  -11.3074 C   0  0  2  0  0  0  0  0  0  0  0  0
   12.5590    7.6872   -9.9896 C   0  0  0  0  0  0  0  0  0  0  0  0
    9.7633    5.0333  -12.9720 C   0  0  1  0  0  0  0  0  0  0  0  0
   10.0661    4.0167  -14.0373 N   0  0  0  0  0  0  0  0  0  0  0  0
   13.6906    8.3004   -9.6233 O   0  0  0  0  0  0  0  0  0  0  0  0
    7.6357    4.5123  -12.6317 C   0  0  2  0  0  0  0  0  0  0  0  0
    6.8831    4.9171  -11.7031 C   0  0  2  0  0  0  0  0  0  0  0  0
   10.5937    6.6967   -9.1779 C   0  0  0  0  0  0  0  0  0  0  0  0
    9.5087    4.3263  -11.6925 C   0  0  2  0  0  0  0  0  0  0  0  0
   11.6359    7.4449   -8.9125 C   0  0  0  0  0  0  0  0  0  0  0  0
   11.9716    7.9159   -7.6200 C   0  0  0  0  0  0  0  0  0  0  0  0
    8.4648    3.6122  -12.2840 C   0  0  1  0  0  0  0  0  0  0  0  0
    7.9253    2.8004  -11.3926 C   0  0  2  0  0  0  0  0  0  0  0  0
    5.6047    4.5059  -11.7589 C   0  0  0  0  0  0  0  0  0  0  0  0
    7.6606    4.1297  -10.5699 C   0  0  0  0  0  0  0  0  0  0  0  0
   10.9559    7.6849   -6.6057 C   0  0  0  0  0  0  0  0  0  0  0  0
    8.0094    4.5092   -9.5664 C   0  0  0  0  0  0  0  0  0  0  0  0
    8.3033    4.0627   -8.4980 C   0  0  0  0  0  0  0  0  0  0  0  0
    6.3587    7.1012  -11.0392 O   0  0  0  0  0  0  0  0  0  0  0  0
   11.0186    3.9598  -14.9226 C   0  0  0  0  0  0  0  0  0  0  0  0
    8.1758    5.8633  -10.2511 C   0  0  1  0  0  0  0  0  0  0  0  0
   11.4648    2.7104  -15.2650 O   0  0  0  0  0  0  0  0  0  0  0  0
    9.9512    6.8220   -6.8436 C   0  0  0  0  0  0  0  0  0  0  0  0
    9.6899    6.3705   -8.1082 C   0  0  2  0  0  0  0  0  0  0  0  0
    9.1306    2.9610  -13.9685 C   0  0  0  0  0  0  0  0  0  0  0  0
    8.8414    5.0113   -7.7726 C   0  0  0  0  0  0  0  0  0  0  0  0
   11.6944    4.9031  -15.4200 O   0  0  0  0  0  0  0  0  0  0  0  0
   11.2282    8.3639   -5.2721 C   0  0  0  0  0  0  0  0  0  0  0  0
   11.7377    9.7620   -5.2848 C   0  0  0  0  0  0  0  0  0  0  0  0
    8.7016    2.4230  -12.9159 C   0  0  1  0  0  0  0  0  0  0  0  0
   12.8034    9.8584   -4.2624 C   0  0  0  0  0  0  0  0  0  0  0  0
  1  2  1  0  0  0  0
  2  3  1  0  0  0  0
  2  7  2  0  0  0  0
  4  3  1  6  0  0  0
  4  5  1  0  0  0  0
  4  6  1  0  0  0  0
  4  8  1  0  0  0  0
  5  9  2  0  0  0  0
  6 13  1  0  0  0  0
  7 12  1  0  0  0  0
  8 19  2  0  0  0  0
 10  7  1  1  0  0  0
 10 14  1  0  0  0  0
 10 17  1  0  0  0  0
 11  8  1  6  0  0  0
 11 20  1  0  0  0  0
 11 32  1  0  0  0  0
 12 18  1  0  0  0  0
 12 30  1  1  0  0  0
 12 32  1  0  0  0  0
 13 16  2  0  0  0  0
 13 21  1  0  0  0  0
 14  5  1  1  0  0  0
 14 15  1  0  0  0  0
 14 20  1  0  0  0  0
 15 31  1  0  0  0  0
 15 36  1  0  0  0  0
 17 18  1  0  0  0  0
 17 23  1  0  0  0  0
 18 25  1  0  0  0  0
 18 26  1  0  0  0  0
 19 21  1  0  0  0  0
 19 35  1  0  0  0  0
 20 23  1  0  0  0  0
 21 22  2  0  0  0  0
 22 27  1  0  0  0  0
 23 24  1  0  0  0  0
 23 41  1  0  0  0  0
 24 26  1  0  0  0  0
 24 41  1  0  0  0  0
 26 28  2  0  0  0  0
 27 34  2  0  0  0  0
 27 39  1  0  0  0  0
 28 29  1  0  0  0  0
 28 32  1  0  0  0  0
 29 37  2  0  0  0  0
 31 33  2  0  0  0  0
 31 38  1  0  0  0  0
 34 35  1  0  0  0  0
 35 37  1  0  0  0  0
 36 41  1  0  0  0  0
 39 40  1  0  0  0  0
 40 42  1  0  0  0  0
M  END
$$$$

 OpenBabel10082411353D

 42 52  0  0  0  0  0  0  0  0999 V2000
    8.0806    9.0240  -12.7589 C   0  0  0  0  0  0  0  0  0  0  0  0
    8.6514    7.8645  -12.2948 C   0  0  0  0  0  0  0  0  0  0  0  0
    9.9575    7.9974  -11.8426 C   0  0  0  0  0  0  0  0  0  0  0  0
   10.7657    6.8667  -11.6050 C   0  0  1  0  0  0  0  0  0  0  0  0
   10.7682    5.9590  -12.8271 C   0  0  0  0  0  0  0  0  0  0  0  0
   12.1553    7.3846  -11.2315 C   0  0  0  0  0  0  0  0  0  0  0  0
    8.0676    6.6451  -12.2974 C   0  0  0  0  0  0  0  0  0  0  0  0
   10.1892    6.1240  -10.3860 C   0  0  0  0  0  0  0  0  0  0  0  0
   11.8375    5.4373  -13.3240 O   0  0  0  0  0  0  0  0  0  0  0  0
    8.6785    5.4761  -13.0273 C   0  0  1  0  0  0  0  0  0  0  0  0
    9.1969    5.2405  -10.4969 C   0  0  2  0  0  0  0  0  0  0  0  0
    7.2213    6.2210  -11.3074 C   0  0  2  0  0  0  0  0  0  0  0  0
   12.5590    7.6872   -9.9896 C   0  0  0  0  0  0  0  0  0  0  0  0
    9.7633    5.0333  -12.9720 C   0  0  1  0  0  0  0  0  0  0  0  0
   10.0661    4.0167  -14.0373 N   0  0  0  0  0  0  0  0  0  0  0  0
   13.6906    8.3004   -9.6233 O   0  0  0  0  0  0  0  0  0  0  0  0
    7.6357    4.5123  -12.6317 C   0  0  2  0  0  0  0  0  0  0  0  0
    6.8831    4.9171  -11.7031 C   0  0  2  0  0  0  0  0  0  0  0  0
   10.5937    6.6967   -9.1779 C   0  0  0  0  0  0  0  0  0  0  0  0
    9.5087    4.3263  -11.6925 C   0  0  2  0  0  0  0  0  0  0  0  0
   11.6359    7.4449   -8.9125 C   0  0  0  0  0  0  0  0  0  0  0  0
   11.9716    7.9159   -7.6200 C   0  0  0  0  0  0  0  0  0  0  0  0
    8.4648    3.6122  -12.2840 C   0  0  1  0  0  0  0  0  0  0  0  0
    7.9253    2.8004  -11.3926 C   0  0  0  0  0  0  0  0  0  0  0  0
    5.6047    4.5059  -11.7589 C   0  0  0  0  0  0  0  0  0  0  0  0
    7.6606    4.1297  -10.5699 C   0  0  0  0  0  0  0  0  0  0  0  0
   10.9559    7.6849   -6.6057 C   0  0  0  0  0  0  0  0  0  0  0  0
    8.0094    4.5092   -9.5664 C   0  0  0  0  0  0  0  0  0  0  0  0
    8.3033    4.0627   -8.4980 C   0  0  0  0  0  0  0  0  0  0  0  0
    6.3587    7.1012  -11.0392 O   0  0  0  0  0  0  0  0  0  0  0  0
   11.0186    3.9598  -14.9226 C   0  0  0  0  0  0  0  0  0  0  0  0
    8.1758    5.8633  -10.2511 C   0  0  1  0  0  0  0  0  0  0  0  0
   11.4648    2.7104  -15.2650 O   0  0  0  0  0  0  0  0  0  0  0  0
    9.9512    6.8220   -6.8436 C   0  0  0  0  0  0  0  0  0  0  0  0
    9.6899    6.3705   -8.1082 C   0  0  2  0  0  0  0  0  0  0  0  0
   11.2597    8.2901   -5.2396 C   0  0  0  0  0  0  0  0  0  0  0  0
   11.7295    4.9426  -15.4284 O   0  0  0  0  0  0  0  0  0  0  0  0
    9.0704    4.8312   -7.8318 C   0  0  0  0  0  0  0  0  0  0  0  0
    9.2457    2.8662  -13.7297 C   0  0  0  0  0  0  0  0  0  0  0  0
   11.9322    7.5886   -4.3410 C   0  0  0  0  0  0  0  0  0  0  0  0
   12.3837    8.1911   -3.0498 C   0  0  0  0  0  0  0  0  0  0  0  0
   11.2847    6.3443   -3.9325 C   0  0  0  0  0  0  0  0  0  0  0  0
  1  2  1  0  0  0  0
  2  3  1  0  0  0  0
  2  7  2  0  0  0  0
  4  3  1  6  0  0  0
  4  5  1  0  0  0  0
  4  6  1  0  0  0  0
  4  8  1  0  0  0  0
  5  9  2  0  0  0  0
  6 13  1  0  0  0  0
  7 12  1  0  0  0  0
  8 19  2  0  0  0  0
 10  7  1  1  0  0  0
 10 14  1  0  0  0  0
 10 17  1  0  0  0  0
 11  8  1  6  0  0  0
 11 20  1  0  0  0  0
 11 32  1  0  0  0  0
 12 18  1  0  0  0  0
 12 30  1  1  0  0  0
 12 32  1  0  0  0  0
 13 16  2  0  0  0  0
 13 21  1  0  0  0  0
 14  5  1  1  0  0  0
 14 15  1  0  0  0  0
 14 20  1  0  0  0  0
 15 31  1  0  0  0  0
 15 39  1  0  0  0  0
 17 18  1  0  0  0  0
 17 23  1  0  0  0  0
 18 25  1  0  0  0  0
 18 26  1  0  0  0  0
 19 21  1  0  0  0  0
 19 35  1  0  0  0  0
 20 23  1  0  0  0  0
 21 22  2  0  0  0  0
 22 27  1  0  0  0  0
 23 24  1  0  0  0  0
 23 39  1  0  0  0  0
 24 26  1  0  0  0  0
 26 28  2  0  0  0  0
 27 34  2  0  0  0  0
 27 36  1  0  0  0  0
 28 29  1  0  0  0  0
 28 32  1  0  0  0  0
 29 38  2  0  0  0  0
 31 33  2  0  0  0  0
 31 37  1  0  0  0  0
 34 35  1  0  0  0  0
 35 38  1  0  0  0  0
 36 40  1  0  0  0  0
 40 41  1  0  0  0  0
 40 42  1  0  0  0  0
M  END
$$$$

 OpenBabel10082411353D

 42 49  0  0  0  0  0  0  0  0999 V2000
   11.6836    6.0105   -4.8831 C   0  0  0  0  0  0  0  0  0  0  0  0
   11.1291    7.0732   -5.4395 C   0  0  0  0  0  0  0  0  0  0  0  0
   10.6954    7.0156   -6.8073 C   0  0  0  0  0  0  0  0  0  0  0  0
   10.2502    8.1187   -7.5536 C   0  0  2  0  0  0  0  0  0  0  0  0
   11.1205    8.4712   -4.9629 C   0  0  0  0  0  0  0  0  0  0  0  0
   10.8655    8.3511   -8.7960 C   0  0  0  0  0  0  0  0  0  0  0  0
   10.2922    7.8843   -9.9985 C   0  0  0  0  0  0  0  0  0  0  0  0
   10.4654    9.6993   -5.6120 C   0  0  0  0  0  0  0  0  0  0  0  0
   10.3510    9.5971   -7.0014 C   0  0  0  0  0  0  0  0  0  0  0  0
   12.2462    6.3351   -3.5020 C   0  0  0  0  0  0  0  0  0  0  0  0
   11.0471    7.5309  -11.1063 C   0  0  0  0  0  0  0  0  0  0  0  0
   11.7288    8.6923   -3.6518 C   0  0  0  0  0  0  0  0  0  0  0  0
   12.3991    7.7501  -11.1145 C   0  0  0  0  0  0  0  0  0  0  0  0
   12.3738    7.7580   -2.9599 C   0  0  0  0  0  0  0  0  0  0  0  0
   13.1285    8.5075  -10.1661 O   0  0  0  0  0  0  0  0  0  0  0  0
    9.0407    7.3775  -10.0973 N   0  0  0  0  0  0  0  0  0  0  0  0
    8.9787    6.9473  -11.4664 N   0  0  0  0  0  0  0  0  0  0  0  0
   13.1012    7.4459  -12.3707 C   0  0  0  0  0  0  0  0  0  0  0  0
   12.2395    6.9724  -13.2444 C   0  0  0  0  0  0  0  0  0  0  0  0
   10.2768    7.0170  -11.9799 C   0  0  0  0  0  0  0  0  0  0  0  0
   12.9237    6.5822  -14.5759 O   0  0  0  0  0  0  0  0  0  0  0  0
   10.8906    6.6526  -13.2252 C   0  0  0  0  0  0  0  0  0  0  0  0
   12.2396    6.1290  -15.6916 C   0  0  0  0  0  0  0  0  0  0  0  0
    7.7368    6.4514  -12.0707 C   0  0  0  0  0  0  0  0  0  0  0  0
    7.1353    7.2872  -12.8105 C   0  0  0  0  0  0  0  0  0  0  0  0
    7.6622    5.0135  -12.1225 C   0  0  0  0  0  0  0  0  0  0  0  0
   12.5092    4.6950  -15.8147 C   0  0  0  0  0  0  0  0  0  0  0  0
    5.9403    6.5840  -13.2897 C   0  0  0  0  0  0  0  0  0  0  0  0
   11.2738    3.8422  -15.5220 N   0  0  0  0  0  0  0  0  0  0  0  0
    8.7139    4.1736  -11.4601 C   0  0  0  0  0  0  0  0  0  0  0  0
    5.7546    5.3014  -13.2955 C   0  0  0  0  0  0  0  0  0  0  0  0
   10.5665    3.9988  -14.5162 C   0  0  0  0  0  0  0  0  0  0  0  0
    6.6518    4.4534  -12.6459 C   0  0  0  0  0  0  0  0  0  0  0  0
   11.1930    2.6728  -16.3047 C   0  0  0  0  0  0  0  0  0  0  0  0
    9.2470    3.7086  -14.6888 C   0  0  0  0  0  0  0  0  0  0  0  0
   10.0389    2.1274  -16.2175 N   0  0  0  0  0  0  0  0  0  0  0  0
    9.0069    2.5135  -15.3535 C   0  0  0  0  0  0  0  0  0  0  0  0
    7.7229    2.0262  -15.4253 N   0  0  0  0  0  0  0  0  0  0  0  0
    7.1343    2.8255  -14.3968 C   0  0  0  0  0  0  0  0  0  0  0  0
    5.9026    2.5849  -13.7249 C   0  0  0  0  0  0  0  0  0  0  0  0
    6.0184    3.0927  -12.5690 N   0  0  0  0  0  0  0  0  0  0  0  0
    8.1183    3.7632  -14.0204 N   0  0  0  0  0  0  0  0  0  0  0  0
  1  2  1  0  0  0  0
  1 10  2  0  0  0  0
  2  3  1  0  0  0  0
  2  5  2  0  0  0  0
  3  4  1  0  0  0  0
  4  6  1  6  0  0  0
  4  9  1  0  0  0  0
  5  8  1  0  0  0  0
  5 12  1  0  0  0  0
  6  7  1  0  0  0  0
  7 11  1  0  0  0  0
  7 16  2  0  0  0  0
  8  9  1  0  0  0  0
 10 14  1  0  0  0  0
 11 13  2  0  0  0  0
 11 20  1  0  0  0  0
 12 14  2  0  0  0  0
 13 15  1  0  0  0  0
 13 18  1  0  0  0  0
 16 17  1  0  0  0  0
 17 20  1  0  0  0  0
 17 24  1  0  0  0  0
 18 19  2  0  0  0  0
 19 21  1  0  0  0  0
 19 22  1  0  0  0  0
 20 22  2  0  0  0  0
 21 23  1  0  0  0  0
 23 27  1  0  0  0  0
 24 25  2  0  0  0  0
 24 26  1  0  0  0  0
 25 28  1  0  0  0  0
 26 30  1  0  0  0  0
 26 33  2  0  0  0  0
 27 29  1  0  0  0  0
 28 31  2  0  0  0  0
 29 32  1  0  0  0  0
 29 34  1  0  0  0  0
 31 33  1  0  0  0  0
 32 35  2  0  0  0  0
 33 41  1  0  0  0  0
 34 36  2  0  0  0  0
 35 37  1  0  0  0  0
 35 42  1  0  0  0  0
 36 37  1  0  0  0  0
 37 38  2  0  0  0  0
 38 39  1  0  0  0  0
 39 40  1  0  0  0  0
 39 42  2  0  0  0  0
 40 41  1  0  0  0  0
M  END
$$$$

 OpenBabel10082411353D

 42 48  0  0  0  0  0  0  0  0999 V2000
   11.6836    6.0105   -4.8831 C   0  0  0  0  0  0  0  0  0  0  0  0
   11.1291    7.0732   -5.4395 C   0  0  0  0  0  0  0  0  0  0  0  0
   10.6954    7.0156   -6.8073 C   0  0  0  0  0  0  0  0  0  0  0  0
   10.2502    8.1187   -7.5536 C   0  0  2  0  0  0  0  0  0  0  0  0
   11.1205    8.4712   -4.9629 C   0  0  0  0  0  0  0  0  0  0  0  0
   10.8655    8.3511   -8.7960 C   0  0  0  0  0  0  0  0  0  0  0  0
   10.2922    7.8843   -9.9985 C   0  0  0  0  0  0  0  0  0  0  0  0
   10.4654    9.6993   -5.6120 C   0  0  0  0  0  0  0  0  0  0  0  0
   10.3510    9.5971   -7.0014 C   0  0  0  0  0  0  0  0  0  0  0  0
   12.2462    6.3351   -3.5020 C   0  0  0  0  0  0  0  0  0  0  0  0
   11.0471    7.5309  -11.1063 C   0  0  0  0  0  0  0  0  0  0  0  0
   11.7288    8.6923   -3.6518 C   0  0  0  0  0  0  0  0  0  0  0  0
   12.3991    7.7501  -11.1145 C   0  0  0  0  0  0  0  0  0  0  0  0
   12.3738    7.7580   -2.9599 C   0  0  0  0  0  0  0  0  0  0  0  0
   13.1285    8.5075  -10.1661 O   0  0  0  0  0  0  0  0  0  0  0  0
    9.0407    7.3775  -10.0973 N   0  0  0  0  0  0  0  0  0  0  0  0
    8.9787    6.9473  -11.4664 N   0  0  0  0  0  0  0  0  0  0  0  0
   13.1012    7.4459  -12.3707 C   0  0  0  0  0  0  0  0  0  0  0  0
   12.2395    6.9724  -13.2444 C   0  0  0  0  0  0  0  0  0  0  0  0
   10.2768    7.0170  -11.9799 C   0  0  0  0  0  0  0  0  0  0  0  0
   12.9237    6.5822  -14.5759 O   0  0  0  0  0  0  0  0  0  0  0  0
   10.8906    6.6526  -13.2252 C   0  0  0  0  0  0  0  0  0  0  0  0
   12.2396    6.1290  -15.6916 C   0  0  0  0  0  0  0  0  0  0  0  0
    7.8036    6.1825  -11.9342 C   0  0  0  0  0  0  0  0  0  0  0  0
   12.5015    4.7115  -15.7686 C   0  0  0  0  0  0  0  0  0  0  0  0
    7.1685    6.9992  -12.8245 C   0  0  0  0  0  0  0  0  0  0  0  0
   11.2461    3.8540  -15.4851 C   0  0  0  0  0  0  0  0  0  0  0  0
    7.6237    4.9154  -11.6529 C   0  0  0  0  0  0  0  0  0  0  0  0
    6.6378    4.1960  -12.2267 C   0  0  0  0  0  0  0  0  0  0  0  0
    6.2717    2.7675  -11.9743 C   0  0  0  0  0  0  0  0  0  0  0  0
    6.6569    1.8873  -12.9460 C   0  0  0  0  0  0  0  0  0  0  0  0
    7.3895    8.4597  -13.1785 C   0  0  0  0  0  0  0  0  0  0  0  0
    6.3114    0.5653  -12.7247 C   0  0  0  0  0  0  0  0  0  0  0  0
    7.7684    2.0327  -13.9055 C   0  0  0  0  0  0  0  0  0  0  0  0
    6.9387   -0.3720  -13.7691 C   0  0  0  0  0  0  0  0  0  0  0  0
    8.4223    3.3339  -14.0264 C   0  0  0  0  0  0  0  0  0  0  0  0
    9.9233    3.2491  -14.0383 C   0  0  0  0  0  0  0  0  0  0  0  0
   10.7554    4.1043  -14.1438 O   0  0  0  0  0  0  0  0  0  0  0  0
    7.8881   -0.1105  -14.6109 C   0  0  0  0  0  0  0  0  0  0  0  0
    8.3571    1.1667  -14.6508 C   0  0  0  0  0  0  0  0  0  0  0  0
   10.5042    2.0830  -14.0925 C   0  0  0  0  0  0  0  0  0  0  0  0
    9.6857    0.9923  -14.6989 C   0  0  0  0  0  0  0  0  0  0  0  0
  1  2  1  0  0  0  0
  1 10  2  0  0  0  0
  2  3  1  0  0  0  0
  2  5  2  0  0  0  0
  3  4  1  0  0  0  0
  4  6  1  6  0  0  0
  4  9  1  0  0  0  0
  5  8  1  0  0  0  0
  5 12  1  0  0  0  0
  6  7  1  0  0  0  0
  7 11  1  0  0  0  0
  7 16  2  0  0  0  0
  8  9  1  0  0  0  0
 10 14  1  0  0  0  0
 11 13  2  0  0  0  0
 11 20  1  0  0  0  0
 12 14  2  0  0  0  0
 13 15  1  0  0  0  0
 13 18  1  0  0  0  0
 16 17  1  0  0  0  0
 17 20  1  0  0  0  0
 17 24  1  0  0  0  0
 18 19  2  0  0  0  0
 19 21  1  0  0  0  0
 19 22  1  0  0  0  0
 20 22  2  0  0  0  0
 21 23  1  0  0  0  0
 23 25  1  0  0  0  0
 24 26  2  3  0  0  0
 24 28  1  0  0  0  0
 25 27  1  0  0  0  0
 26 32  1  0  0  0  0
 27 38  1  0  0  0  0
 28 29  2  0  0  0  0
 29 30  1  0  0  0  0
 30 31  1  0  0  0  0
 31 33  2  0  0  0  0
 31 34  1  0  0  0  0
 33 35  1  0  0  0  0
 34 36  1  0  0  0  0
 34 40  2  0  0  0  0
 35 39  2  0  0  0  0
 36 37  1  0  0  0  0
 37 38  1  0  0  0  0
 37 41  2  0  0  0  0
 39 40  1  0  0  0  0
 40 42  1  0  0  0  0
 41 42  1  0  0  0  0
M  END
$$$$

 OpenBabel10082411353D

 42 52  0  0  0  0  0  0  0  0999 V2000
    8.0806    9.0240  -12.7589 C   0  0  0  0  0  0  0  0  0  0  0  0
    8.6514    7.8645  -12.2948 C   0  0  0  0  0  0  0  0  0  0  0  0
    9.9575    7.9974  -11.8426 C   0  0  0  0  0  0  0  0  0  0  0  0
   10.7657    6.8667  -11.6050 C   0  0  1  0  0  0  0  0  0  0  0  0
   10.7682    5.9590  -12.8271 C   0  0  0  0  0  0  0  0  0  0  0  0
   12.1553    7.3846  -11.2315 C   0  0  0  0  0  0  0  0  0  0  0  0
    8.0676    6.6451  -12.2974 C   0  0  0  0  0  0  0  0  0  0  0  0
   10.1892    6.1240  -10.3860 C   0  0  0  0  0  0  0  0  0  0  0  0
   11.8375    5.4373  -13.3240 O   0  0  0  0  0  0  0  0  0  0  0  0
    8.6785    5.4761  -13.0273 C   0  0  1  0  0  0  0  0  0  0  0  0
    9.1969    5.2405  -10.4969 C   0  0  2  0  0  0  0  0  0  0  0  0
    7.2213    6.2210  -11.3074 C   0  0  2  0  0  0  0  0  0  0  0  0
   12.5590    7.6872   -9.9896 C   0  0  0  0  0  0  0  0  0  0  0  0
    9.7633    5.0333  -12.9720 C   0  0  1  0  0  0  0  0  0  0  0  0
   10.0661    4.0167  -14.0373 N   0  0  0  0  0  0  0  0  0  0  0  0
   13.6906    8.3004   -9.6233 O   0  0  0  0  0  0  0  0  0  0  0  0
    7.6357    4.5123  -12.6317 C   0  0  2  0  0  0  0  0  0  0  0  0
    6.8831    4.9171  -11.7031 C   0  0  2  0  0  0  0  0  0  0  0  0
   10.5937    6.6967   -9.1779 C   0  0  0  0  0  0  0  0  0  0  0  0
    9.5087    4.3263  -11.6925 C   0  0  2  0  0  0  0  0  0  0  0  0
   11.6359    7.4449   -8.9125 C   0  0  0  0  0  0  0  0  0  0  0  0
   11.9716    7.9159   -7.6200 C   0  0  0  0  0  0  0  0  0  0  0  0
    8.4648    3.6122  -12.2840 C   0  0  1  0  0  0  0  0  0  0  0  0
    7.9253    2.8004  -11.3926 C   0  0  0  0  0  0  0  0  0  0  0  0
    5.6047    4.5059  -11.7589 C   0  0  0  0  0  0  0  0  0  0  0  0
    7.6606    4.1297  -10.5699 C   0  0  0  0  0  0  0  0  0  0  0  0
   10.9559    7.6849   -6.6057 C   0  0  0  0  0  0  0  0  0  0  0  0
    8.0094    4.5092   -9.5664 C   0  0  0  0  0  0  0  0  0  0  0  0
    8.3033    4.0627   -8.4980 C   0  0  0  0  0  0  0  0  0  0  0  0
    6.3587    7.1012  -11.0392 O   0  0  0  0  0  0  0  0  0  0  0  0
   11.0186    3.9598  -14.9226 C   0  0  1  0  0  0  0  0  0  0  0  0
    8.1758    5.8633  -10.2511 C   0  0  1  0  0  0  0  0  0  0  0  0
    9.4315    2.8557  -13.5931 C   0  0  0  0  0  0  0  0  0  0  0  0
   11.5906    2.6986  -15.1672 C   0  0  0  0  0  0  0  0  0  0  0  0
    9.9783    6.7760   -6.8364 C   0  0  0  0  0  0  0  0  0  0  0  0
    9.7446    6.4267   -8.0721 C   0  0  2  0  0  0  0  0  0  0  0  0
   10.2617    4.4120  -16.0135 O   0  0  0  0  0  0  0  0  0  0  0  0
    9.0735    5.1195   -7.7383 C   0  0  0  0  0  0  0  0  0  0  0  0
   11.2251    8.4722   -5.2278 C   0  0  0  0  0  0  0  0  0  0  0  0
   11.9468    7.8061   -4.3433 C   0  0  0  0  0  0  0  0  0  0  0  0
   12.7137    8.6623   -3.3499 C   0  0  0  0  0  0  0  0  0  0  0  0
   11.8699    6.4235   -3.9850 C   0  0  0  0  0  0  0  0  0  0  0  0
  1  2  1  0  0  0  0
  2  3  1  0  0  0  0
  2  7  2  0  0  0  0
  4  3  1  6  0  0  0
  4  5  1  0  0  0  0
  4  6  1  0  0  0  0
  4  8  1  0  0  0  0
  5  9  2  0  0  0  0
  6 13  1  0  0  0  0
  7 12  1  0  0  0  0
  8 19  2  0  0  0  0
 10  7  1  1  0  0  0
 10 14  1  0  0  0  0
 10 17  1  0  0  0  0
 11  8  1  6  0  0  0
 11 20  1  0  0  0  0
 11 32  1  0  0  0  0
 12 18  1  0  0  0  0
 12 30  1  1  0  0  0
 12 32  1  0  0  0  0
 13 16  2  0  0  0  0
 13 21  1  0  0  0  0
 14  5  1  1  0  0  0
 14 15  1  0  0  0  0
 14 20  1  0  0  0  0
 15 31  1  0  0  0  0
 15 33  1  0  0  0  0
 17 18  1  0  0  0  0
 17 23  1  0  0  0  0
 18 25  1  0  0  0  0
 18 26  1  0  0  0  0
 19 21  1  0  0  0  0
 19 36  1  0  0  0  0
 20 23  1  0  0  0  0
 21 22  2  0  0  0  0
 22 27  1  0  0  0  0
 23 24  1  0  0  0  0
 23 33  1  0  0  0  0
 24 26  1  0  0  0  0
 26 28  2  0  0  0  0
 27 35  2  0  0  0  0
 27 39  1  0  0  0  0
 28 29  1  0  0  0  0
 28 32  1  0  0  0  0
 29 38  2  0  0  0  0
 31 34  1  0  0  0  0
 31 37  1  0  0  0  0
 35 36  1  0  0  0  0
 36 38  1  0  0  0  0
 39 40  1  0  0  0  0
 40 41  1  0  0  0  0
 40 42  2  0  0  0  0
M  END
$$$$

 OpenBabel10082411353D

 42 52  0  0  0  0  0  0  0  0999 V2000
    8.0806    9.0240  -12.7589 C   0  0  0  0  0  0  0  0  0  0  0  0
    8.6514    7.8645  -12.2948 C   0  0  0  0  0  0  0  0  0  0  0  0
    9.9575    7.9974  -11.8426 C   0  0  0  0  0  0  0  0  0  0  0  0
   10.7657    6.8667  -11.6050 C   0  0  1  0  0  0  0  0  0  0  0  0
   10.7682    5.9590  -12.8271 C   0  0  0  0  0  0  0  0  0  0  0  0
   12.1553    7.3846  -11.2315 C   0  0  0  0  0  0  0  0  0  0  0  0
    8.0676    6.6451  -12.2974 C   0  0  0  0  0  0  0  0  0  0  0  0
   10.1892    6.1240  -10.3860 C   0  0  0  0  0  0  0  0  0  0  0  0
   11.8375    5.4373  -13.3240 O   0  0  0  0  0  0  0  0  0  0  0  0
    8.6785    5.4761  -13.0273 C   0  0  1  0  0  0  0  0  0  0  0  0
    9.1969    5.2405  -10.4969 C   0  0  2  0  0  0  0  0  0  0  0  0
    7.2213    6.2210  -11.3074 C   0  0  2  0  0  0  0  0  0  0  0  0
   12.5590    7.6872   -9.9896 C   0  0  0  0  0  0  0  0  0  0  0  0
    9.7633    5.0333  -12.9720 C   0  0  1  0  0  0  0  0  0  0  0  0
   10.0661    4.0167  -14.0373 N   0  0  0  0  0  0  0  0  0  0  0  0
   13.6906    8.3004   -9.6233 O   0  0  0  0  0  0  0  0  0  0  0  0
    7.6357    4.5123  -12.6317 C   0  0  2  0  0  0  0  0  0  0  0  0
    6.8831    4.9171  -11.7031 C   0  0  2  0  0  0  0  0  0  0  0  0
   10.5937    6.6967   -9.1779 C   0  0  0  0  0  0  0  0  0  0  0  0
    9.5087    4.3263  -11.6925 C   0  0  2  0  0  0  0  0  0  0  0  0
   11.6359    7.4449   -8.9125 C   0  0  0  0  0  0  0  0  0  0  0  0
   11.9716    7.9159   -7.6200 C   0  0  0  0  0  0  0  0  0  0  0  0
    8.4648    3.6122  -12.2840 C   0  0  1  0  0  0  0  0  0  0  0  0
    7.9253    2.8004  -11.3926 C   0  0  0  0  0  0  0  0  0  0  0  0
    5.6047    4.5059  -11.7589 C   0  0  0  0  0  0  0  0  0  0  0  0
    7.6606    4.1297  -10.5699 C   0  0  0  0  0  0  0  0  0  0  0  0
   10.9559    7.6849   -6.6057 C   0  0  0  0  0  0  0  0  0  0  0  0
    8.0094    4.5092   -9.5664 C   0  0  0  0  0  0  0  0  0  0  0  0
    8.3033    4.0627   -8.4980 C   0  0  0  0  0  0  0  0  0  0  0  0
    6.3587    7.1012  -11.0392 O   0  0  0  0  0  0  0  0  0  0  0  0
   11.0186    3.9598  -14.9226 C   0  0  1  0  0  0  0  0  0  0  0  0
    8.1758    5.8633  -10.2511 C   0  0  1  0  0  0  0  0  0  0  0  0
    9.4315    2.8557  -13.5931 C   0  0  0  0  0  0  0  0  0  0  0  0
   11.5906    2.6986  -15.1672 C   0  0  0  0  0  0  0  0  0  0  0  0
    9.9783    6.7760   -6.8364 C   0  0  0  0  0  0  0  0  0  0  0  0
    9.7446    6.4267   -8.0721 C   0  0  2  0  0  0  0  0  0  0  0  0
   10.2617    4.4120  -16.0135 O   0  0  0  0  0  0  0  0  0  0  0  0
   11.3635    8.3622   -5.0463 S   0  0  1  0  0  0  0  0  0  0  0  0
    8.5854    5.3620   -7.9736 C   0  0  0  0  0  0  0  0  0  0  0  0
   10.2750    8.8364   -4.4773 O   0  0  0  0  0  0  0  0  0  0  0  0
   11.9172    7.2255   -4.1813 C   0  0  0  0  0  0  0  0  0  0  0  0
   12.4492    9.5435   -5.0848 N   0  0  0  0  0  0  0  0  0  0  0  0
  1  2  1  0  0  0  0
  2  3  1  0  0  0  0
  2  7  2  0  0  0  0
  4  3  1  6  0  0  0
  4  5  1  0  0  0  0
  4  6  1  0  0  0  0
  4  8  1  0  0  0  0
  5  9  2  0  0  0  0
  6 13  1  0  0  0  0
  7 12  1  0  0  0  0
  8 19  2  0  0  0  0
 10  7  1  1  0  0  0
 10 14  1  0  0  0  0
 10 17  1  0  0  0  0
 11  8  1  6  0  0  0
 11 20  1  0  0  0  0
 11 32  1  0  0  0  0
 12 18  1  0  0  0  0
 12 30  1  1  0  0  0
 12 32  1  0  0  0  0
 13 16  2  0  0  0  0
 13 21  1  0  0  0  0
 14  5  1  1  0  0  0
 14 15  1  0  0  0  0
 14 20  1  0  0  0  0
 15 31  1  0  0  0  0
 15 33  1  0  0  0  0
 17 18  1  0  0  0  0
 17 23  1  0  0  0  0
 18 25  1  0  0  0  0
 18 26  1  0  0  0  0
 19 21  1  0  0  0  0
 19 36  1  0  0  0  0
 20 23  1  0  0  0  0
 21 22  2  0  0  0  0
 22 27  1  0  0  0  0
 23 24  1  0  0  0  0
 23 33  1  0  0  0  0
 24 26  1  0  0  0  0
 26 28  2  0  0  0  0
 27 35  2  0  0  0  0
 27 38  1  0  0  0  0
 28 29  1  0  0  0  0
 28 32  1  0  0  0  0
 29 39  1  0  0  0  0
 31 34  1  0  0  0  0
 31 37  1  0  0  0  0
 35 36  1  0  0  0  0
 36 39  1  0  0  0  0
 38 40  2  0  0  0  0
 38 41  1  0  0  0  0
 38 42  2  0  0  0  0
M  END
$$$$

 OpenBabel10082411353D

 42 52  0  0  0  0  0  0  0  0999 V2000
    8.0806    9.0240  -12.7589 C   0  0  0  0  0  0  0  0  0  0  0  0
    8.6514    7.8645  -12.2948 C   0  0  0  0  0  0  0  0  0  0  0  0
    9.9575    7.9974  -11.8426 C   0  0  0  0  0  0  0  0  0  0  0  0
   10.7657    6.8667  -11.6050 C   0  0  1  0  0  0  0  0  0  0  0  0
   10.7682    5.9590  -12.8271 C   0  0  0  0  0  0  0  0  0  0  0  0
   12.1553    7.3846  -11.2315 C   0  0  0  0  0  0  0  0  0  0  0  0
    8.0676    6.6451  -12.2974 C   0  0  0  0  0  0  0  0  0  0  0  0
   10.1892    6.1240  -10.3860 C   0  0  0  0  0  0  0  0  0  0  0  0
   11.8375    5.4373  -13.3240 O   0  0  0  0  0  0  0  0  0  0  0  0
    8.6785    5.4761  -13.0273 C   0  0  1  0  0  0  0  0  0  0  0  0
    9.1969    5.2405  -10.4969 C   0  0  2  0  0  0  0  0  0  0  0  0
    7.2213    6.2210  -11.3074 C   0  0  2  0  0  0  0  0  0  0  0  0
   12.5590    7.6872   -9.9896 C   0  0  0  0  0  0  0  0  0  0  0  0
    9.7633    5.0333  -12.9720 C   0  0  1  0  0  0  0  0  0  0  0  0
   10.0661    4.0167  -14.0373 N   0  0  0  0  0  0  0  0  0  0  0  0
   13.6906    8.3004   -9.6233 O   0  0  0  0  0  0  0  0  0  0  0  0
    7.6357    4.5123  -12.6317 C   0  0  2  0  0  0  0  0  0  0  0  0
    6.8831    4.9171  -11.7031 C   0  0  2  0  0  0  0  0  0  0  0  0
   10.5937    6.6967   -9.1779 C   0  0  0  0  0  0  0  0  0  0  0  0
    9.5087    4.3263  -11.6925 C   0  0  2  0  0  0  0  0  0  0  0  0
   11.6359    7.4449   -8.9125 C   0  0  0  0  0  0  0  0  0  0  0  0
   11.9716    7.9159   -7.6200 C   0  0  0  0  0  0  0  0  0  0  0  0
    8.4648    3.6122  -12.2840 C   0  0  1  0  0  0  0  0  0  0  0  0
    7.9253    2.8004  -11.3926 C   0  0  0  0  0  0  0  0  0  0  0  0
    5.6047    4.5059  -11.7589 C   0  0  0  0  0  0  0  0  0  0  0  0
    7.6606    4.1297  -10.5699 C   0  0  0  0  0  0  0  0  0  0  0  0
   10.9559    7.6849   -6.6057 C   0  0  0  0  0  0  0  0  0  0  0  0
    8.0094    4.5092   -9.5664 C   0  0  0  0  0  0  0  0  0  0  0  0
    8.3033    4.0627   -8.4980 C   0  0  0  0  0  0  0  0  0  0  0  0
    6.3587    7.1012  -11.0392 O   0  0  0  0  0  0  0  0  0  0  0  0
   11.0186    3.9598  -14.9226 C   0  0  0  0  0  0  0  0  0  0  0  0
    8.1758    5.8633  -10.2511 C   0  0  1  0  0  0  0  0  0  0  0  0
   11.4648    2.7104  -15.2650 O   0  0  0  0  0  0  0  0  0  0  0  0
    9.9512    6.8220   -6.8436 C   0  0  0  0  0  0  0  0  0  0  0  0
    9.6899    6.3705   -8.1082 C   0  0  2  0  0  0  0  0  0  0  0  0
   11.2597    8.2901   -5.2396 C   0  0  0  0  0  0  0  0  0  0  0  0
    9.3070    4.9405   -7.8220 C   0  0  0  0  0  0  0  0  0  0  0  0
   11.7134    4.9471  -15.4359 O   0  0  0  0  0  0  0  0  0  0  0  0
    9.1768    2.9285  -13.7535 C   0  0  0  0  0  0  0  0  0  0  0  0
   11.9188    7.5853   -4.3301 C   0  0  0  0  0  0  0  0  0  0  0  0
   12.4433    8.2314   -3.0579 C   0  0  0  0  0  0  0  0  0  0  0  0
   11.2794    6.3742   -3.8383 C   0  0  0  0  0  0  0  0  0  0  0  0
  1  2  1  0  0  0  0
  2  3  1  0  0  0  0
  2  7  2  0  0  0  0
  4  3  1  6  0  0  0
  4  5  1  0  0  0  0
  4  6  1  0  0  0  0
  4  8  1  0  0  0  0
  5  9  2  0  0  0  0
  6 13  1  0  0  0  0
  7 12  1  0  0  0  0
  8 19  2  0  0  0  0
 10  7  1  1  0  0  0
 10 14  1  0  0  0  0
 10 17  1  0  0  0  0
 11  8  1  6  0  0  0
 11 20  1  0  0  0  0
 11 32  1  0  0  0  0
 12 18  1  0  0  0  0
 12 30  1  1  0  0  0
 12 32  1  0  0  0  0
 13 16  2  0  0  0  0
 13 21  1  0  0  0  0
 14  5  1  1  0  0  0
 14 15  1  0  0  0  0
 14 20  1  0  0  0  0
 15 31  1  0  0  0  0
 15 39  1  0  0  0  0
 17 18  1  0  0  0  0
 17 23  1  0  0  0  0
 18 25  1  0  0  0  0
 18 26  1  0  0  0  0
 19 21  1  0  0  0  0
 19 35  1  0  0  0  0
 20 23  1  0  0  0  0
 21 22  2  0  0  0  0
 22 27  1  0  0  0  0
 23 24  1  0  0  0  0
 23 39  1  0  0  0  0
 24 26  1  0  0  0  0
 26 28  2  0  0  0  0
 27 34  2  0  0  0  0
 27 36  1  0  0  0  0
 28 29  1  0  0  0  0
 28 32  1  0  0  0  0
 29 37  1  0  0  0  0
 31 33  2  0  0  0  0
 31 38  1  0  0  0  0
 34 35  1  0  0  0  0
 35 37  1  0  0  0  0
 36 40  1  0  0  0  0
 40 41  1  0  0  0  0
 40 42  1  0  0  0  0
M  END
$$$$

 OpenBabel10082411353D

 26 28  0  0  0  0  0  0  0  0999 V2000
   10.7609    9.6228   -4.2714 C   0  0  0  0  0  0  0  0  0  0  0  0
   10.4930    9.4831   -5.5343 C   0  0  0  0  0  0  0  0  0  0  0  0
   11.6139    8.5907   -3.8078 C   0  0  0  0  0  0  0  0  0  0  0  0
   10.6916    8.7185   -6.3306 C   0  0  0  0  0  0  0  0  0  0  0  0
   11.4775    7.4908   -5.9802 C   0  0  0  0  0  0  0  0  0  0  0  0
   10.1045    8.7095   -7.8164 C   0  0  0  0  0  0  0  0  0  0  0  0
   11.8703    7.5203   -4.5985 C   0  0  0  0  0  0  0  0  0  0  0  0
   10.7919    7.9248   -8.8228 C   0  0  2  0  0  0  0  0  0  0  0  0
   11.9364    8.4952   -9.3965 C   0  0  0  0  0  0  0  0  0  0  0  0
    9.8959    7.3469   -9.8494 C   0  0  0  0  0  0  0  0  0  0  0  0
   12.2659    8.0794  -10.7080 C   0  0  0  0  0  0  0  0  0  0  0  0
   10.4408    6.8044  -11.0562 C   0  0  2  0  0  0  0  0  0  0  0  0
   11.4386    7.6856  -11.6482 N   0  0  0  0  0  0  0  0  0  0  0  0
    9.4200    6.2781  -12.0473 C   0  0  2  0  0  0  0  0  0  0  0  0
   11.6788    7.6359  -13.0249 C   0  0  0  0  0  0  0  0  0  0  0  0
   12.6986    7.8374  -13.5514 O   0  0  0  0  0  0  0  0  0  0  0  0
    8.6050    5.1568  -11.5138 C   0  0  0  0  0  0  0  0  0  0  0  0
    9.9990    5.8712  -13.2928 C   0  0  1  0  0  0  0  0  0  0  0  0
   10.5693    7.3889  -13.8893 C   0  0  0  0  0  0  0  0  0  0  0  0
   11.1361    4.9366  -13.2042 C   0  0  0  0  0  0  0  0  0  0  0  0
    7.3604    4.9908  -12.1976 C   0  0  0  0  0  0  0  0  0  0  0  0
    6.4342    5.7882  -11.8304 C   0  0  0  0  0  0  0  0  0  0  0  0
   11.1693    3.8225  -14.2727 C   0  0  0  0  0  0  0  0  0  0  0  0
    6.8478    3.5462  -12.2744 C   0  0  0  0  0  0  0  0  0  0  0  0
   10.4745    2.7571  -13.9358 O   0  0  0  0  0  0  0  0  0  0  0  0
   11.8154    3.8967  -15.2491 O   0  0  0  0  0  0  0  0  0  0  0  0
  1  2  1  0  0  0  0
  1  3  2  0  0  0  0
  2  4  2  0  0  0  0
  3  7  1  0  0  0  0
  4  5  1  0  0  0  0
  4  6  1  0  0  0  0
  5  7  2  0  0  0  0
  8  6  1  6  0  0  0
  8  9  1  0  0  0  0
  8 10  1  0  0  0  0
  9 11  1  0  0  0  0
 11 13  1  0  0  0  0
 12 10  1  1  0  0  0
 12 13  1  0  0  0  0
 12 14  1  0  0  0  0
 13 15  1  0  0  0  0
 14 17  1  1  0  0  0
 14 18  1  0  0  0  0
 15 16  2  0  0  0  0
 15 19  1  0  0  0  0
 17 21  1  0  0  0  0
 18 19  1  0  0  0  0
 18 20  1  1  0  0  0
 20 23  1  0  0  0  0
 21 22  1  0  0  0  0
 21 24  1  0  0  0  0
 23 25  1  0  0  0  0
 23 26  2  0  0  0  0
M  END
$$$$

 OpenBabel10082411353D

 12 12  0  0  0  0  0  0  0  0999 V2000
   11.6849    3.3051  -14.7886 C   0  0  0  0  0  0  0  0  0  0  0  0
   11.9222    4.4917  -14.7896 C   0  0  0  0  0  0  0  0  0  0  0  0
   10.3475    2.8975  -14.7327 C   0  0  0  0  0  0  0  0  0  0  0  0
    9.9836    1.5088  -14.6745 C   0  0  0  0  0  0  0  0  0  0  0  0
   10.4685    0.7445  -15.3652 O   0  0  0  0  0  0  0  0  0  0  0  0
    8.7710    1.3065  -14.1473 N   0  0  0  0  0  0  0  0  0  0  0  0
   11.1261    5.5698  -14.5296 C   0  0  0  0  0  0  0  0  0  0  0  0
    9.4164    3.9389  -14.4284 C   0  0  0  0  0  0  0  0  0  0  0  0
   11.5852    6.9489  -14.4527 C   0  0  0  0  0  0  0  0  0  0  0  0
    9.8431    5.2861  -14.3346 C   0  0  0  0  0  0  0  0  0  0  0  0
   11.9407    7.3904  -13.2973 C   0  0  0  0  0  0  0  0  0  0  0  0
   12.9361    6.9494  -15.2205 C   0  0  0  0  0  0  0  0  0  0  0  0
  1  2  2  0  0  0  0
  1  3  1  0  0  0  0
  2  7  1  0  0  0  0
  3  4  1  0  0  0  0
  3  8  2  0  0  0  0
  4  5  2  0  0  0  0
  4  6  1  0  0  0  0
  7  9  1  0  0  0  0
  7 10  2  0  0  0  0
  8 10  1  0  0  0  0
  9 11  1  0  0  0  0
  9 12  1  0  0  0  0
M  END
$$$$

 OpenBabel10082411353D

 42 47  0  0  0  0  0  0  0  0999 V2000
   11.6836    6.0105   -4.8831 F   0  0  0  0  0  0  0  0  0  0  0  0
   11.2562    7.2206   -5.0294 C   0  0  0  0  0  0  0  0  0  0  0  0
   12.0125    8.2418   -4.4408 C   0  0  0  0  0  0  0  0  0  0  0  0
   11.1918    7.2706   -6.5237 C   0  0  0  0  0  0  0  0  0  0  0  0
   11.6999    8.4488   -3.1704 F   0  0  0  0  0  0  0  0  0  0  0  0
    9.8648    7.0908   -4.5314 F   0  0  0  0  0  0  0  0  0  0  0  0
   11.6831    8.5291   -6.9682 C   0  0  0  0  0  0  0  0  0  0  0  0
   10.4785    6.5189   -7.4033 C   0  0  0  0  0  0  0  0  0  0  0  0
   11.6979    8.6661   -8.4760 C   0  0  0  0  0  0  0  0  0  0  0  0
   11.6248    9.5853   -5.0030 C   0  0  0  0  0  0  0  0  0  0  0  0
   11.8604    9.7907   -6.2903 O   0  0  0  0  0  0  0  0  0  0  0  0
   13.3557    8.1748   -4.5947 F   0  0  0  0  0  0  0  0  0  0  0  0
   10.5427    6.6061   -8.7190 C   0  0  0  0  0  0  0  0  0  0  0  0
   11.1158    7.7103   -9.2540 C   0  0  0  0  0  0  0  0  0  0  0  0
   11.3757    7.6656  -10.5293 N   0  0  0  0  0  0  0  0  0  0  0  0
   10.7153    7.7096  -11.5405 C   0  0  0  0  0  0  0  0  0  0  0  0
   11.2483    7.4711  -12.8542 C   0  0  0  0  0  0  0  0  0  0  0  0
    9.3980    7.7820  -11.5398 C   0  0  0  0  0  0  0  0  0  0  0  0
    8.6055    7.5889  -12.6525 C   0  0  0  0  0  0  0  0  0  0  0  0
   12.7508    7.3705  -13.0162 O   0  0  0  0  0  0  0  0  0  0  0  0
   10.5299    7.1831  -13.9856 C   0  0  0  0  0  0  0  0  0  0  0  0
    7.0533    7.7371  -12.5396 C   0  0  0  0  0  0  0  0  0  0  0  0
   11.2041    6.8490  -15.2304 C   0  0  0  0  0  0  0  0  0  0  0  0
   11.6393    5.5333  -15.3864 C   0  0  0  0  0  0  0  0  0  0  0  0
    9.1955    7.2935  -13.8301 C   0  0  0  0  0  0  0  0  0  0  0  0
   12.5294    5.1116  -16.1609 C   0  0  0  0  0  0  0  0  0  0  0  0
   11.2315    4.4703  -14.3200 C   0  0  0  0  0  0  0  0  0  0  0  0
   13.0194    6.0876  -17.1697 C   0  0  0  0  0  0  0  0  0  0  0  0
   12.9874    3.8316  -16.1456 C   0  0  0  0  0  0  0  0  0  0  0  0
   12.3949    2.9126  -15.4671 C   0  0  0  0  0  0  0  0  0  0  0  0
   10.2274    4.8149  -13.2643 C   0  0  0  0  0  0  0  0  0  0  0  0
    8.9564    4.3798  -13.5553 C   0  0  0  0  0  0  0  0  0  0  0  0
    8.7030    2.9995  -13.6113 C   0  0  0  0  0  0  0  0  0  0  0  0
   11.4166    3.2431  -14.5460 C   0  0  0  0  0  0  0  0  0  0  0  0
    7.3695    2.5639  -13.4881 C   0  0  0  0  0  0  0  0  0  0  0  0
   10.5729    2.1979  -13.9272 C   0  0  0  0  0  0  0  0  0  0  0  0
    9.5358    2.1981  -13.9798 C   0  0  0  0  0  0  0  0  0  0  0  0
    6.4075    3.3743  -12.8151 C   0  0  0  0  0  0  0  0  0  0  0  0
    5.3763    2.6754  -12.1448 C   0  0  0  0  0  0  0  0  0  0  0  0
    5.6143    1.2131  -12.4458 C   0  0  0  0  0  0  0  0  0  0  0  0
    7.0190    1.2475  -13.9077 C   0  0  0  0  0  0  0  0  0  0  0  0
    6.0340    0.7164  -13.1787 C   0  0  0  0  0  0  0  0  0  0  0  0
  1  2  1  0  0  0  0
  2  3  1  0  0  0  0
  2  4  1  0  0  0  0
  2  6  1  0  0  0  0
  3  5  1  0  0  0  0
  3 10  1  0  0  0  0
  3 12  1  0  0  0  0
  4  7  1  0  0  0  0
  4  8  2  0  0  0  0
  7  9  2  0  0  0  0
  7 11  1  0  0  0  0
  8 13  1  0  0  0  0
  9 14  1  0  0  0  0
 10 11  1  0  0  0  0
 13 14  2  0  0  0  0
 14 15  1  0  0  0  0
 15 16  1  0  0  0  0
 16 17  1  0  0  0  0
 16 18  2  0  0  0  0
 17 20  1  0  0  0  0
 17 21  2  0  0  0  0
 18 19  1  0  0  0  0
 19 22  1  0  0  0  0
 19 25  2  0  0  0  0
 21 23  1  0  0  0  0
 21 25  1  0  0  0  0
 23 24  1  0  0  0  0
 24 26  2  0  0  0  0
 24 27  1  0  0  0  0
 26 28  1  0  0  0  0
 26 29  1  0  0  0  0
 27 31  1  0  0  0  0
 27 34  2  0  0  0  0
 29 30  2  0  0  0  0
 30 34  1  0  0  0  0
 31 32  2  0  0  0  0
 32 33  1  0  0  0  0
 33 35  1  0  0  0  0
 33 37  2  0  0  0  0
 34 36  1  0  0  0  0
 35 38  1  0  0  0  0
 35 41  2  0  0  0  0
 36 37  1  0  0  0  0
 38 39  2  0  0  0  0
 39 40  1  0  0  0  0
 40 42  2  0  0  0  0
 41 42  1  0  0  0  0
M  END
$$$$

 OpenBabel10082411353D

 42 47  0  0  0  0  0  0  0  0999 V2000
   11.6836    6.0105   -4.8831 C   0  0  0  0  0  0  0  0  0  0  0  0
   11.1291    7.0732   -5.4395 C   0  0  0  0  0  0  0  0  0  0  0  0
   10.6954    7.0156   -6.8073 C   0  0  0  0  0  0  0  0  0  0  0  0
   10.2502    8.1187   -7.5536 C   0  0  2  0  0  0  0  0  0  0  0  0
   11.1205    8.4712   -4.9629 C   0  0  0  0  0  0  0  0  0  0  0  0
   10.8655    8.3511   -8.7960 C   0  0  0  0  0  0  0  0  0  0  0  0
   10.2922    7.8843   -9.9985 C   0  0  0  0  0  0  0  0  0  0  0  0
   10.4654    9.6993   -5.6120 C   0  0  0  0  0  0  0  0  0  0  0  0
   10.3510    9.5971   -7.0014 C   0  0  0  0  0  0  0  0  0  0  0  0
   12.2462    6.3351   -3.5020 C   0  0  0  0  0  0  0  0  0  0  0  0
   11.0471    7.5309  -11.1063 C   0  0  0  0  0  0  0  0  0  0  0  0
   11.7288    8.6923   -3.6518 C   0  0  0  0  0  0  0  0  0  0  0  0
   12.3991    7.7501  -11.1145 C   0  0  0  0  0  0  0  0  0  0  0  0
   12.3738    7.7580   -2.9599 C   0  0  0  0  0  0  0  0  0  0  0  0
   13.1285    8.5075  -10.1661 O   0  0  0  0  0  0  0  0  0  0  0  0
    9.0407    7.3775  -10.0973 N   0  0  0  0  0  0  0  0  0  0  0  0
    8.9787    6.9473  -11.4664 N   0  0  0  0  0  0  0  0  0  0  0  0
   13.1012    7.4459  -12.3707 C   0  0  0  0  0  0  0  0  0  0  0  0
   12.2395    6.9724  -13.2444 C   0  0  0  0  0  0  0  0  0  0  0  0
   10.2768    7.0170  -11.9799 C   0  0  0  0  0  0  0  0  0  0  0  0
   12.9237    6.5822  -14.5759 O   0  0  0  0  0  0  0  0  0  0  0  0
   10.8906    6.6526  -13.2252 C   0  0  0  0  0  0  0  0  0  0  0  0
   12.2396    6.1290  -15.6916 C   0  0  0  0  0  0  0  0  0  0  0  0
    7.8036    6.1825  -11.9342 C   0  0  0  0  0  0  0  0  0  0  0  0
   12.5015    4.7115  -15.7686 C   0  0  0  0  0  0  0  0  0  0  0  0
    7.1685    6.9992  -12.8245 C   0  0  0  0  0  0  0  0  0  0  0  0
   11.2461    3.8540  -15.4851 C   0  0  0  0  0  0  0  0  0  0  0  0
    7.6237    4.9154  -11.6529 C   0  0  0  0  0  0  0  0  0  0  0  0
    6.6378    4.1960  -12.2267 C   0  0  0  0  0  0  0  0  0  0  0  0
    6.2717    2.7675  -11.9743 C   0  0  0  0  0  0  0  0  0  0  0  0
    6.6569    1.8873  -12.9460 C   0  0  0  0  0  0  0  0  0  0  0  0
    7.3895    8.4597  -13.1785 C   0  0  0  0  0  0  0  0  0  0  0  0
    6.3114    0.5653  -12.7247 C   0  0  0  0  0  0  0  0  0  0  0  0
    7.7684    2.0327  -13.9055 C   0  0  0  0  0  0  0  0  0  0  0  0
    8.3733    3.3319  -14.0408 C   0  0  0  0  0  0  0  0  0  0  0  0
    6.7866   -0.4375  -13.6507 C   0  0  0  0  0  0  0  0  0  0  0  0
   11.3491    2.6020  -15.5284 O   0  0  0  0  0  0  0  0  0  0  0  0
   10.0815    4.4913  -15.3913 N   0  0  0  0  0  0  0  0  0  0  0  0
    8.2290    1.0343  -14.5878 C   0  0  0  0  0  0  0  0  0  0  0  0
    8.9786    3.9223  -14.7453 C   0  0  0  0  0  0  0  0  0  0  0  0
    9.3147    1.1877  -15.5716 O   0  0  0  0  0  0  0  0  0  0  0  0
    7.7487   -0.2359  -14.5166 C   0  0  0  0  0  0  0  0  0  0  0  0
  1  2  1  0  0  0  0
  1 10  2  0  0  0  0
  2  3  1  0  0  0  0
  2  5  2  0  0  0  0
  3  4  1  0  0  0  0
  4  6  1  6  0  0  0
  4  9  1  0  0  0  0
  5  8  1  0  0  0  0
  5 12  1  0  0  0  0
  6  7  1  0  0  0  0
  7 11  1  0  0  0  0
  7 16  2  0  0  0  0
  8  9  1  0  0  0  0
 10 14  1  0  0  0  0
 11 13  2  0  0  0  0
 11 20  1  0  0  0  0
 12 14  2  0  0  0  0
 13 15  1  0  0  0  0
 13 18  1  0  0  0  0
 16 17  1  0  0  0  0
 17 20  1  0  0  0  0
 17 24  1  0  0  0  0
 18 19  2  0  0  0  0
 19 21  1  0  0  0  0
 19 22  1  0  0  0  0
 20 22  2  0  0  0  0
 21 23  1  0  0  0  0
 23 25  1  0  0  0  0
 24 26  2  3  0  0  0
 24 28  1  0  0  0  0
 25 27  1  0  0  0  0
 26 32  1  0  0  0  0
 27 37  2  0  0  0  0
 27 38  1  0  0  0  0
 28 29  2  0  0  0  0
 29 30  1  0  0  0  0
 30 31  1  0  0  0  0
 31 33  2  0  0  0  0
 31 34  1  0  0  0  0
 33 36  1  0  0  0  0
 34 35  1  0  0  0  0
 34 39  2  0  0  0  0
 35 40  2  0  0  0  0
 36 42  2  0  0  0  0
 38 40  1  0  0  0  0
 39 41  1  0  0  0  0
 39 42  1  0  0  0  0
M  END
$$$$

 OpenBabel10082411353D

 42 50  0  0  0  0  0  0  0  0999 V2000
   12.7863    7.8241  -14.2109 C   0  0  0  0  0  0  0  0  0  0  0  0
   12.4233    7.7158  -13.0289 C   0  0  0  0  0  0  0  0  0  0  0  0
   11.3194    6.8571  -12.8028 C   0  0  0  0  0  0  0  0  0  0  0  0
   12.3150    7.2021  -15.3582 C   0  0  0  0  0  0  0  0  0  0  0  0
   11.2733    6.2739  -15.1502 C   0  0  0  0  0  0  0  0  0  0  0  0
   10.8099    6.0126  -13.8600 C   0  0  0  0  0  0  0  0  0  0  0  0
    9.6782    5.1428  -13.6488 C   0  0  0  0  0  0  0  0  0  0  0  0
    8.5753    5.3880  -12.9589 N   0  0  0  0  0  0  0  0  0  0  0  0
    8.3226    6.7011  -12.3862 C   0  0  0  0  0  0  0  0  0  0  0  0
    9.8502    3.8578  -14.0728 C   0  0  0  0  0  0  0  0  0  0  0  0
    7.3864    7.4720  -13.0530 C   0  0  0  0  0  0  0  0  0  0  0  0
    6.2412    7.8486  -12.2599 C   0  0  0  0  0  0  0  0  0  0  0  0
    7.6425    4.4186  -12.7943 C   0  0  0  0  0  0  0  0  0  0  0  0
   11.0297    3.2482  -14.8053 C   0  0  0  0  0  0  0  0  0  0  0  0
    8.6802    2.8955  -13.7960 C   0  0  0  0  0  0  0  0  0  0  0  0
    8.8565    1.5917  -14.3582 O   0  0  0  0  0  0  0  0  0  0  0  0
    7.6903    3.2226  -13.1994 N   0  0  0  0  0  0  0  0  0  0  0  0
    6.5724    2.3444  -12.8378 C   0  0  0  0  0  0  0  0  0  0  0  0
    9.0225    7.0353  -11.3259 C   0  0  0  0  0  0  0  0  0  0  0  0
    6.2405    4.8489  -12.4515 C   0  0  0  0  0  0  0  0  0  0  0  0
   10.5875    7.0617  -11.5321 C   0  0  0  0  0  0  0  0  0  0  0  0
   11.0960    7.6093  -10.4100 C   0  0  0  0  0  0  0  0  0  0  0  0
    8.4039    7.3336  -10.1102 C   0  0  0  0  0  0  0  0  0  0  0  0
    5.5911    3.3517  -12.3508 C   0  0  0  0  0  0  0  0  0  0  0  0
   12.6259    7.6530  -10.3901 C   0  0  0  0  0  0  0  0  0  0  0  0
   10.4284    7.7784   -9.2128 C   0  0  1  0  0  0  0  0  0  0  0  0
    9.2236    7.5051   -9.0617 C   0  0  2  0  0  0  0  0  0  0  0  0
    8.7145    7.3063   -7.7135 N   0  0  2  0  0  0  0  0  0  0  0  0
   11.0621    7.5242   -7.8430 C   0  0  1  0  0  0  0  0  0  0  0  0
   12.0213    8.4787   -7.3268 C   0  0  0  0  0  0  0  0  0  0  0  0
   13.1241    8.0749  -11.7293 C   0  0  0  0  0  0  0  0  0  0  0  0
   12.0504    9.6950   -7.9009 O   0  0  0  0  0  0  0  0  0  0  0  0
    9.8858    7.2444   -6.9594 C   0  0  2  0  0  0  0  0  0  0  0  0
    9.9777    5.9996   -6.3117 C   0  0  2  0  0  0  0  0  0  0  0  0
    8.9391    5.1621   -6.4362 C   0  0  1  0  0  0  0  0  0  0  0  0
   12.5667    8.4703   -6.0695 N   0  0  0  0  0  0  0  0  0  0  0  0
   12.2361    7.4359   -5.1316 C   0  0  0  0  0  0  0  0  0  0  0  0
   11.3239    6.3853   -5.4279 C   0  0  0  0  0  0  0  0  0  0  0  0
    8.0774    5.9107   -7.1787 C   0  0  0  0  0  0  0  0  0  0  0  0
    9.3621    3.9251   -7.1122 C   0  0  0  0  0  0  0  0  0  0  0  0
   13.3870    9.5476   -5.5800 C   0  0  0  0  0  0  0  0  0  0  0  0
    9.0780    3.0262   -7.2722 O   0  0  0  0  0  0  0  0  0  0  0  0
  1  2  2  0  0  0  0
  1  4  1  0  0  0  0
  2  3  1  0  0  0  0
  2 31  1  0  0  0  0
  3  6  2  0  0  0  0
  3 21  1  0  0  0  0
  4  5  2  0  0  0  0
  5  6  1  0  0  0  0
  6  7  1  0  0  0  0
  7  8  1  0  0  0  0
  7 10  2  0  0  0  0
  8  9  1  0  0  0  0
  8 13  1  0  0  0  0
  9 11  1  0  0  0  0
  9 19  2  0  0  0  0
 10 14  1  0  0  0  0
 10 15  1  0  0  0  0
 11 12  1  0  0  0  0
 13 17  1  0  0  0  0
 13 20  2  0  0  0  0
 15 16  2  0  0  0  0
 15 17  1  0  0  0  0
 17 18  1  0  0  0  0
 18 24  1  0  0  0  0
 19 21  1  0  0  0  0
 19 23  1  0  0  0  0
 20 24  1  0  0  0  0
 21 22  2  0  0  0  0
 22 25  1  0  0  0  0
 25 31  2  0  0  0  0
 26 22  1  6  0  0  0
 26 27  1  0  0  0  0
 26 29  1  0  0  0  0
 27 23  1  6  0  0  0
 27 28  1  0  0  0  0
 28 33  1  0  0  0  0
 28 39  1  6  0  0  0
 29 30  1  1  0  0  0
 29 33  1  0  0  0  0
 30 32  2  0  0  0  0
 30 36  1  0  0  0  0
 33 34  1  0  0  0  0
 34 35  1  0  0  0  0
 34 38  1  0  0  0  0
 35 39  1  0  0  0  0
 35 40  1  0  0  0  0
 36 37  1  0  0  0  0
 36 41  1  0  0  0  0
 37 38  2  0  0  0  0
 40 42  2  0  0  0  0
M  END
$$$$

 OpenBabel10082411353D

 42 48  0  0  0  0  0  0  0  0999 V2000
   11.6836    6.0105   -4.8831 C   0  0  0  0  0  0  0  0  0  0  0  0
   11.1291    7.0732   -5.4395 C   0  0  0  0  0  0  0  0  0  0  0  0
   10.6954    7.0156   -6.8073 C   0  0  0  0  0  0  0  0  0  0  0  0
   10.2502    8.1187   -7.5536 C   0  0  2  0  0  0  0  0  0  0  0  0
   11.1205    8.4712   -4.9629 C   0  0  0  0  0  0  0  0  0  0  0  0
   10.8655    8.3511   -8.7960 C   0  0  0  0  0  0  0  0  0  0  0  0
   10.2922    7.8843   -9.9985 C   0  0  0  0  0  0  0  0  0  0  0  0
   10.4654    9.6993   -5.6120 C   0  0  0  0  0  0  0  0  0  0  0  0
   10.3510    9.5971   -7.0014 C   0  0  0  0  0  0  0  0  0  0  0  0
   12.2462    6.3351   -3.5020 C   0  0  0  0  0  0  0  0  0  0  0  0
   11.0471    7.5309  -11.1063 C   0  0  0  0  0  0  0  0  0  0  0  0
   11.7288    8.6923   -3.6518 C   0  0  0  0  0  0  0  0  0  0  0  0
   12.3991    7.7501  -11.1145 C   0  0  0  0  0  0  0  0  0  0  0  0
   12.3738    7.7580   -2.9599 C   0  0  0  0  0  0  0  0  0  0  0  0
   13.1285    8.5075  -10.1661 O   0  0  0  0  0  0  0  0  0  0  0  0
    9.0407    7.3775  -10.0973 N   0  0  0  0  0  0  0  0  0  0  0  0
    8.9787    6.9473  -11.4664 N   0  0  0  0  0  0  0  0  0  0  0  0
   13.1012    7.4459  -12.3707 C   0  0  0  0  0  0  0  0  0  0  0  0
   12.2395    6.9724  -13.2444 C   0  0  0  0  0  0  0  0  0  0  0  0
   10.2768    7.0170  -11.9799 C   0  0  0  0  0  0  0  0  0  0  0  0
   12.9237    6.5822  -14.5759 O   0  0  0  0  0  0  0  0  0  0  0  0
   10.8906    6.6526  -13.2252 C   0  0  0  0  0  0  0  0  0  0  0  0
   12.2396    6.1290  -15.6916 C   0  0  0  0  0  0  0  0  0  0  0  0
    7.8036    6.1825  -11.9342 C   0  0  0  0  0  0  0  0  0  0  0  0
   12.5015    4.7115  -15.7686 C   0  0  0  0  0  0  0  0  0  0  0  0
    7.1685    6.9992  -12.8245 C   0  0  0  0  0  0  0  0  0  0  0  0
   11.2461    3.8540  -15.4851 C   0  0  0  0  0  0  0  0  0  0  0  0
    7.6237    4.9154  -11.6529 C   0  0  0  0  0  0  0  0  0  0  0  0
    6.6378    4.1960  -12.2267 C   0  0  0  0  0  0  0  0  0  0  0  0
    6.2717    2.7675  -11.9743 C   0  0  0  0  0  0  0  0  0  0  0  0
    6.6569    1.8873  -12.9460 C   0  0  0  0  0  0  0  0  0  0  0  0
    7.3895    8.4597  -13.1785 C   0  0  0  0  0  0  0  0  0  0  0  0
    6.3114    0.5653  -12.7247 C   0  0  0  0  0  0  0  0  0  0  0  0
   11.3885    2.5830  -15.4863 O   0  0  0  0  0  0  0  0  0  0  0  0
    7.4815    2.1853  -14.0878 C   0  0  0  0  0  0  0  0  0  0  0  0
   10.0671    4.4249  -15.4648 O   0  0  0  0  0  0  0  0  0  0  0  0
    6.9068   -0.3393  -13.8429 C   0  0  0  0  0  0  0  0  0  0  0  0
    7.9156    3.5885  -14.2394 C   0  0  0  0  0  0  0  0  0  0  0  0
    8.8150    3.6631  -15.5267 C   0  0  0  0  0  0  0  0  0  0  0  0
    7.6631    0.0195  -14.8035 C   0  0  0  0  0  0  0  0  0  0  0  0
    7.2538    4.4980  -13.5319 C   0  0  0  0  0  0  0  0  0  0  0  0
    7.9668    1.3579  -14.9420 C   0  0  0  0  0  0  0  0  0  0  0  0
  1  2  1  0  0  0  0
  1 10  2  0  0  0  0
  2  3  1  0  0  0  0
  2  5  2  0  0  0  0
  3  4  1  0  0  0  0
  4  6  1  6  0  0  0
  4  9  1  0  0  0  0
  5  8  1  0  0  0  0
  5 12  1  0  0  0  0
  6  7  1  0  0  0  0
  7 11  1  0  0  0  0
  7 16  2  0  0  0  0
  8  9  1  0  0  0  0
 10 14  1  0  0  0  0
 11 13  2  0  0  0  0
 11 20  1  0  0  0  0
 12 14  2  0  0  0  0
 13 15  1  0  0  0  0
 13 18  1  0  0  0  0
 16 17  1  0  0  0  0
 17 20  1  0  0  0  0
 17 24  1  0  0  0  0
 18 19  2  0  0  0  0
 19 21  1  0  0  0  0
 19 22  1  0  0  0  0
 20 22  2  0  0  0  0
 21 23  1  0  0  0  0
 23 25  1  0  0  0  0
 24 26  2  3  0  0  0
 24 28  1  0  0  0  0
 25 27  1  0  0  0  0
 26 32  1  0  0  0  0
 27 34  2  0  0  0  0
 27 36  1  0  0  0  0
 28 29  2  0  0  0  0
 29 30  1  0  0  0  0
 29 41  1  0  0  0  0
 30 31  1  0  0  0  0
 31 33  2  0  0  0  0
 31 35  1  0  0  0  0
 33 37  1  0  0  0  0
 35 38  1  0  0  0  0
 35 42  2  0  0  0  0
 36 39  1  0  0  0  0
 37 40  2  0  0  0  0
 38 39  1  0  0  0  0
 38 41  2  0  0  0  0
 40 42  1  0  0  0  0
M  END
$$$$

 OpenBabel10082411353D

 42 48  0  0  0  0  0  0  0  0999 V2000
   11.6836    6.0105   -4.8831 C   0  0  0  0  0  0  0  0  0  0  0  0
   11.1291    7.0732   -5.4395 C   0  0  0  0  0  0  0  0  0  0  0  0
   10.6954    7.0156   -6.8073 C   0  0  0  0  0  0  0  0  0  0  0  0
   10.2502    8.1187   -7.5536 C   0  0  2  0  0  0  0  0  0  0  0  0
   11.1205    8.4712   -4.9629 C   0  0  0  0  0  0  0  0  0  0  0  0
   10.8655    8.3511   -8.7960 C   0  0  0  0  0  0  0  0  0  0  0  0
   10.2922    7.8843   -9.9985 C   0  0  0  0  0  0  0  0  0  0  0  0
   10.4654    9.6993   -5.6120 C   0  0  0  0  0  0  0  0  0  0  0  0
   10.3510    9.5971   -7.0014 C   0  0  0  0  0  0  0  0  0  0  0  0
   12.2462    6.3351   -3.5020 C   0  0  0  0  0  0  0  0  0  0  0  0
   11.0471    7.5309  -11.1063 C   0  0  0  0  0  0  0  0  0  0  0  0
   11.7288    8.6923   -3.6518 C   0  0  0  0  0  0  0  0  0  0  0  0
   12.3991    7.7501  -11.1145 C   0  0  0  0  0  0  0  0  0  0  0  0
   12.3738    7.7580   -2.9599 C   0  0  0  0  0  0  0  0  0  0  0  0
   13.1285    8.5075  -10.1661 O   0  0  0  0  0  0  0  0  0  0  0  0
    9.0407    7.3775  -10.0973 N   0  0  0  0  0  0  0  0  0  0  0  0
    8.9787    6.9473  -11.4664 N   0  0  0  0  0  0  0  0  0  0  0  0
   13.1012    7.4459  -12.3707 C   0  0  0  0  0  0  0  0  0  0  0  0
   12.2395    6.9724  -13.2444 C   0  0  0  0  0  0  0  0  0  0  0  0
   10.2768    7.0170  -11.9799 C   0  0  0  0  0  0  0  0  0  0  0  0
   12.9237    6.5822  -14.5759 O   0  0  0  0  0  0  0  0  0  0  0  0
   10.8906    6.6526  -13.2252 C   0  0  0  0  0  0  0  0  0  0  0  0
   12.2396    6.1290  -15.6916 C   0  0  0  0  0  0  0  0  0  0  0  0
    7.8036    6.1825  -11.9342 C   0  0  0  0  0  0  0  0  0  0  0  0
   12.5015    4.7115  -15.7686 C   0  0  0  0  0  0  0  0  0  0  0  0
    7.1685    6.9992  -12.8245 C   0  0  0  0  0  0  0  0  0  0  0  0
   11.2461    3.8540  -15.4851 C   0  0  0  0  0  0  0  0  0  0  0  0
    7.6237    4.9154  -11.6529 C   0  0  0  0  0  0  0  0  0  0  0  0
    6.6378    4.1960  -12.2267 C   0  0  0  0  0  0  0  0  0  0  0  0
    6.2717    2.7675  -11.9743 C   0  0  0  0  0  0  0  0  0  0  0  0
    6.6569    1.8873  -12.9460 C   0  0  0  0  0  0  0  0  0  0  0  0
    7.3895    8.4597  -13.1785 C   0  0  0  0  0  0  0  0  0  0  0  0
    6.3114    0.5653  -12.7247 C   0  0  0  0  0  0  0  0  0  0  0  0
    7.7684    2.0327  -13.9055 C   0  0  0  0  0  0  0  0  0  0  0  0
    6.9387   -0.3720  -13.7691 C   0  0  0  0  0  0  0  0  0  0  0  0
    8.4223    3.3339  -14.0264 C   0  0  0  0  0  0  0  0  0  0  0  0
    8.2908    1.0246  -14.6080 C   0  0  0  0  0  0  0  0  0  0  0  0
    7.8707   -0.1948  -14.5676 C   0  0  0  0  0  0  0  0  0  0  0  0
    9.4626    1.2359  -15.4581 C   0  0  0  0  0  0  0  0  0  0  0  0
    9.5078    3.5700  -14.8275 C   0  0  0  0  0  0  0  0  0  0  0  0
   10.0311    0.2230  -16.1860 C   0  0  0  0  0  0  0  0  0  0  0  0
   10.1034    2.5448  -15.5150 C   0  0  0  0  0  0  0  0  0  0  0  0
  1  2  1  0  0  0  0
  1 10  2  0  0  0  0
  2  3  1  0  0  0  0
  2  5  2  0  0  0  0
  3  4  1  0  0  0  0
  4  6  1  6  0  0  0
  4  9  1  0  0  0  0
  5  8  1  0  0  0  0
  5 12  1  0  0  0  0
  6  7  1  0  0  0  0
  7 11  1  0  0  0  0
  7 16  2  0  0  0  0
  8  9  1  0  0  0  0
 10 14  1  0  0  0  0
 11 13  2  0  0  0  0
 11 20  1  0  0  0  0
 12 14  2  0  0  0  0
 13 15  1  0  0  0  0
 13 18  1  0  0  0  0
 16 17  1  0  0  0  0
 17 20  1  0  0  0  0
 17 24  1  0  0  0  0
 18 19  2  0  0  0  0
 19 21  1  0  0  0  0
 19 22  1  0  0  0  0
 20 22  2  0  0  0  0
 21 23  1  0  0  0  0
 23 25  1  0  0  0  0
 24 26  2  3  0  0  0
 24 28  1  0  0  0  0
 25 27  1  0  0  0  0
 26 32  1  0  0  0  0
 27 42  1  0  0  0  0
 28 29  2  0  0  0  0
 29 30  1  0  0  0  0
 30 31  1  0  0  0  0
 31 33  2  0  0  0  0
 31 34  1  0  0  0  0
 33 35  1  0  0  0  0
 34 36  2  0  0  0  0
 34 37  1  0  0  0  0
 35 38  1  0  0  0  0
 36 40  1  0  0  0  0
 37 38  1  0  0  0  0
 37 39  2  0  0  0  0
 39 41  1  0  0  0  0
 39 42  1  0  0  0  0
 40 42  2  0  0  0  0
M  END
$$$$

 OpenBabel10082411353D

 42 52  0  0  0  0  0  0  0  0999 V2000
    8.0806    9.0240  -12.7589 C   0  0  0  0  0  0  0  0  0  0  0  0
    8.6514    7.8645  -12.2948 C   0  0  0  0  0  0  0  0  0  0  0  0
    9.9575    7.9974  -11.8426 C   0  0  0  0  0  0  0  0  0  0  0  0
   10.7657    6.8667  -11.6050 C   0  0  1  0  0  0  0  0  0  0  0  0
   10.7682    5.9590  -12.8271 C   0  0  0  0  0  0  0  0  0  0  0  0
   12.1553    7.3846  -11.2315 C   0  0  0  0  0  0  0  0  0  0  0  0
    8.0676    6.6451  -12.2974 C   0  0  0  0  0  0  0  0  0  0  0  0
   10.1892    6.1240  -10.3860 C   0  0  0  0  0  0  0  0  0  0  0  0
   11.8375    5.4373  -13.3240 O   0  0  0  0  0  0  0  0  0  0  0  0
    8.6785    5.4761  -13.0273 C   0  0  1  0  0  0  0  0  0  0  0  0
    9.1969    5.2405  -10.4969 C   0  0  2  0  0  0  0  0  0  0  0  0
    7.2213    6.2210  -11.3074 C   0  0  2  0  0  0  0  0  0  0  0  0
   12.5590    7.6872   -9.9896 C   0  0  0  0  0  0  0  0  0  0  0  0
    9.7633    5.0333  -12.9720 C   0  0  1  0  0  0  0  0  0  0  0  0
   10.0661    4.0167  -14.0373 N   0  0  0  0  0  0  0  0  0  0  0  0
   13.6906    8.3004   -9.6233 O   0  0  0  0  0  0  0  0  0  0  0  0
    7.6357    4.5123  -12.6317 C   0  0  2  0  0  0  0  0  0  0  0  0
    6.8831    4.9171  -11.7031 C   0  0  2  0  0  0  0  0  0  0  0  0
   10.5937    6.6967   -9.1779 C   0  0  0  0  0  0  0  0  0  0  0  0
    9.5087    4.3263  -11.6925 C   0  0  2  0  0  0  0  0  0  0  0  0
   11.6359    7.4449   -8.9125 C   0  0  0  0  0  0  0  0  0  0  0  0
   11.9716    7.9159   -7.6200 C   0  0  0  0  0  0  0  0  0  0  0  0
    8.4648    3.6122  -12.2840 C   0  0  1  0  0  0  0  0  0  0  0  0
    7.9253    2.8004  -11.3926 C   0  0  0  0  0  0  0  0  0  0  0  0
    5.6047    4.5059  -11.7589 C   0  0  0  0  0  0  0  0  0  0  0  0
    7.6606    4.1297  -10.5699 C   0  0  0  0  0  0  0  0  0  0  0  0
   10.9559    7.6849   -6.6057 C   0  0  0  0  0  0  0  0  0  0  0  0
    8.0094    4.5092   -9.5664 C   0  0  0  0  0  0  0  0  0  0  0  0
    8.3033    4.0627   -8.4980 C   0  0  0  0  0  0  0  0  0  0  0  0
    6.3587    7.1012  -11.0392 O   0  0  0  0  0  0  0  0  0  0  0  0
   11.0186    3.9598  -14.9226 C   0  0  1  0  0  0  0  0  0  0  0  0
    8.1758    5.8633  -10.2511 C   0  0  1  0  0  0  0  0  0  0  0  0
    9.4315    2.8557  -13.5931 C   0  0  0  0  0  0  0  0  0  0  0  0
   11.5906    2.6986  -15.1672 C   0  0  0  0  0  0  0  0  0  0  0  0
    9.9783    6.7760   -6.8364 C   0  0  0  0  0  0  0  0  0  0  0  0
    9.7446    6.4267   -8.0721 C   0  0  2  0  0  0  0  0  0  0  0  0
   10.2617    4.4120  -16.0135 O   0  0  0  0  0  0  0  0  0  0  0  0
    9.0735    5.1195   -7.7383 C   0  0  0  0  0  0  0  0  0  0  0  0
   11.3061    8.4855   -5.0856 C   0  0  0  0  0  0  0  0  0  0  0  0
   12.1778    7.7657   -4.3416 C   0  0  0  0  0  0  0  0  0  0  0  0
   11.5718    6.4584   -3.9167 C   0  0  0  0  0  0  0  0  0  0  0  0
   12.4769    8.8449   -3.2097 C   0  0  0  0  0  0  0  0  0  0  0  0
  1  2  1  0  0  0  0
  2  3  1  0  0  0  0
  2  7  2  0  0  0  0
  4  3  1  6  0  0  0
  4  5  1  0  0  0  0
  4  6  1  0  0  0  0
  4  8  1  0  0  0  0
  5  9  2  0  0  0  0
  6 13  1  0  0  0  0
  7 12  1  0  0  0  0
  8 19  2  0  0  0  0
 10  7  1  1  0  0  0
 10 14  1  0  0  0  0
 10 17  1  0  0  0  0
 11  8  1  6  0  0  0
 11 20  1  0  0  0  0
 11 32  1  0  0  0  0
 12 18  1  0  0  0  0
 12 30  1  1  0  0  0
 12 32  1  0  0  0  0
 13 16  2  0  0  0  0
 13 21  1  0  0  0  0
 14  5  1  1  0  0  0
 14 15  1  0  0  0  0
 14 20  1  0  0  0  0
 15 31  1  0  0  0  0
 15 33  1  0  0  0  0
 17 18  1  0  0  0  0
 17 23  1  0  0  0  0
 18 25  1  0  0  0  0
 18 26  1  0  0  0  0
 19 21  1  0  0  0  0
 19 36  1  0  0  0  0
 20 23  1  0  0  0  0
 21 22  2  0  0  0  0
 22 27  1  0  0  0  0
 23 24  1  0  0  0  0
 23 33  1  0  0  0  0
 24 26  1  0  0  0  0
 26 28  2  0  0  0  0
 27 35  2  0  0  0  0
 27 39  1  0  0  0  0
 28 29  1  0  0  0  0
 28 32  1  0  0  0  0
 29 38  2  0  0  0  0
 31 34  1  0  0  0  0
 31 37  1  0  0  0  0
 35 36  1  0  0  0  0
 36 38  1  0  0  0  0
 39 40  1  0  0  0  0
 40 41  1  0  0  0  0
 40 42  1  0  0  0  0
M  END
$$$$

 OpenBabel10082411353D

 42 46  0  0  0  0  0  0  0  0999 V2000
   11.6836    6.0105   -4.8831 F   0  0  0  0  0  0  0  0  0  0  0  0
   11.2562    7.2206   -5.0294 C   0  0  0  0  0  0  0  0  0  0  0  0
   12.0125    8.2418   -4.4408 C   0  0  0  0  0  0  0  0  0  0  0  0
   11.1918    7.2706   -6.5237 C   0  0  0  0  0  0  0  0  0  0  0  0
   11.6999    8.4488   -3.1704 F   0  0  0  0  0  0  0  0  0  0  0  0
    9.8648    7.0908   -4.5314 F   0  0  0  0  0  0  0  0  0  0  0  0
   11.6831    8.5291   -6.9682 C   0  0  0  0  0  0  0  0  0  0  0  0
   10.4785    6.5189   -7.4033 C   0  0  0  0  0  0  0  0  0  0  0  0
   11.6979    8.6661   -8.4760 C   0  0  0  0  0  0  0  0  0  0  0  0
   11.6248    9.5853   -5.0030 C   0  0  0  0  0  0  0  0  0  0  0  0
   11.8604    9.7907   -6.2903 O   0  0  0  0  0  0  0  0  0  0  0  0
   13.3557    8.1748   -4.5947 F   0  0  0  0  0  0  0  0  0  0  0  0
   10.5427    6.6061   -8.7190 C   0  0  0  0  0  0  0  0  0  0  0  0
   11.1158    7.7103   -9.2540 C   0  0  0  0  0  0  0  0  0  0  0  0
   11.3757    7.6656  -10.5293 N   0  0  0  0  0  0  0  0  0  0  0  0
   10.7153    7.7096  -11.5405 C   0  0  0  0  0  0  0  0  0  0  0  0
   11.2483    7.4711  -12.8542 C   0  0  0  0  0  0  0  0  0  0  0  0
    9.3980    7.7820  -11.5398 C   0  0  0  0  0  0  0  0  0  0  0  0
    8.6055    7.5889  -12.6525 C   0  0  0  0  0  0  0  0  0  0  0  0
   12.7508    7.3705  -13.0162 O   0  0  0  0  0  0  0  0  0  0  0  0
   10.5299    7.1831  -13.9856 C   0  0  0  0  0  0  0  0  0  0  0  0
    7.0533    7.7371  -12.5396 C   0  0  0  0  0  0  0  0  0  0  0  0
   11.2041    6.8490  -15.2304 C   0  0  0  0  0  0  0  0  0  0  0  0
   11.6393    5.5333  -15.3864 C   0  0  0  0  0  0  0  0  0  0  0  0
    9.1955    7.2935  -13.8301 C   0  0  0  0  0  0  0  0  0  0  0  0
   12.5294    5.1116  -16.1609 C   0  0  0  0  0  0  0  0  0  0  0  0
   11.2315    4.4703  -14.3200 C   0  0  0  0  0  0  0  0  0  0  0  0
   10.2844    4.5821  -13.3000 C   0  0  0  0  0  0  0  0  0  0  0  0
   11.6270    3.1866  -14.6052 C   0  0  0  0  0  0  0  0  0  0  0  0
    9.0868    3.8289  -13.3080 C   0  0  0  0  0  0  0  0  0  0  0  0
   11.3420    2.7039  -15.8535 C   0  0  0  0  0  0  0  0  0  0  0  0
    8.3582    4.0400  -12.0395 C   0  0  0  0  0  0  0  0  0  0  0  0
   13.0053    6.2224  -17.1322 C   0  0  0  0  0  0  0  0  0  0  0  0
   12.3338    3.1792  -16.8738 C   0  0  0  0  0  0  0  0  0  0  0  0
   12.9752    4.2391  -16.7963 C   0  0  0  0  0  0  0  0  0  0  0  0
    8.6667    4.6191  -11.0038 C   0  0  0  0  0  0  0  0  0  0  0  0
    6.9922    3.7682  -12.3260 C   0  0  0  0  0  0  0  0  0  0  0  0
    6.4307    2.8867  -13.0001 C   0  0  0  0  0  0  0  0  0  0  0  0
    8.0215    5.4463  -10.2325 O   0  0  0  0  0  0  0  0  0  0  0  0
    7.2669    2.6562  -14.1993 C   0  0  0  0  0  0  0  0  0  0  0  0
    9.9193    4.3456  -10.4648 F   0  0  0  0  0  0  0  0  0  0  0  0
    8.5624    3.1199  -14.2555 C   0  0  0  0  0  0  0  0  0  0  0  0
  1  2  1  0  0  0  0
  2  3  1  0  0  0  0
  2  4  1  0  0  0  0
  2  6  1  0  0  0  0
  3  5  1  0  0  0  0
  3 10  1  0  0  0  0
  3 12  1  0  0  0  0
  4  7  1  0  0  0  0
  4  8  2  0  0  0  0
  7  9  2  0  0  0  0
  7 11  1  0  0  0  0
  8 13  1  0  0  0  0
  9 14  1  0  0  0  0
 10 11  1  0  0  0  0
 13 14  2  0  0  0  0
 14 15  1  0  0  0  0
 15 16  1  0  0  0  0
 16 17  1  0  0  0  0
 16 18  2  0  0  0  0
 17 20  1  0  0  0  0
 17 21  2  0  0  0  0
 18 19  1  0  0  0  0
 19 22  1  0  0  0  0
 19 25  2  0  0  0  0
 21 23  1  0  0  0  0
 21 25  1  0  0  0  0
 23 24  1  0  0  0  0
 24 26  2  0  0  0  0
 24 27  1  0  0  0  0
 26 33  1  0  0  0  0
 26 35  1  0  0  0  0
 27 28  1  0  0  0  0
 27 29  2  0  0  0  0
 28 30  2  3  0  0  0
 29 31  1  0  0  0  0
 30 32  1  0  0  0  0
 30 42  1  0  0  0  0
 31 34  1  0  0  0  0
 32 36  1  0  0  0  0
 32 37  2  0  0  0  0
 34 35  1  0  0  0  0
 36 39  2  0  0  0  0
 36 41  1  0  0  0  0
 37 38  1  0  0  0  0
 38 40  2  0  0  0  0
 40 42  1  0  0  0  0
M  END
$$$$

 OpenBabel10082411353D

 42 52  0  0  0  0  0  0  0  0999 V2000
    8.0806    9.0240  -12.7589 C   0  0  0  0  0  0  0  0  0  0  0  0
    8.6514    7.8645  -12.2948 C   0  0  0  0  0  0  0  0  0  0  0  0
    9.9575    7.9974  -11.8426 C   0  0  0  0  0  0  0  0  0  0  0  0
   10.7657    6.8667  -11.6050 C   0  0  1  0  0  0  0  0  0  0  0  0
   10.7682    5.9590  -12.8271 C   0  0  0  0  0  0  0  0  0  0  0  0
   12.1553    7.3846  -11.2315 C   0  0  0  0  0  0  0  0  0  0  0  0
    8.0676    6.6451  -12.2974 C   0  0  0  0  0  0  0  0  0  0  0  0
   10.1892    6.1240  -10.3860 C   0  0  0  0  0  0  0  0  0  0  0  0
   11.8375    5.4373  -13.3240 O   0  0  0  0  0  0  0  0  0  0  0  0
    8.6785    5.4761  -13.0273 C   0  0  1  0  0  0  0  0  0  0  0  0
    9.1969    5.2405  -10.4969 C   0  0  2  0  0  0  0  0  0  0  0  0
    7.2213    6.2210  -11.3074 C   0  0  2  0  0  0  0  0  0  0  0  0
   12.5590    7.6872   -9.9896 C   0  0  0  0  0  0  0  0  0  0  0  0
    9.7633    5.0333  -12.9720 C   0  0  1  0  0  0  0  0  0  0  0  0
   10.0661    4.0167  -14.0373 N   0  0  0  0  0  0  0  0  0  0  0  0
   13.6906    8.3004   -9.6233 O   0  0  0  0  0  0  0  0  0  0  0  0
    7.6357    4.5123  -12.6317 C   0  0  2  0  0  0  0  0  0  0  0  0
    6.8831    4.9171  -11.7031 C   0  0  2  0  0  0  0  0  0  0  0  0
   10.5937    6.6967   -9.1779 C   0  0  0  0  0  0  0  0  0  0  0  0
    9.5087    4.3263  -11.6925 C   0  0  2  0  0  0  0  0  0  0  0  0
   11.6359    7.4449   -8.9125 C   0  0  0  0  0  0  0  0  0  0  0  0
   11.9716    7.9159   -7.6200 C   0  0  0  0  0  0  0  0  0  0  0  0
    8.4648    3.6122  -12.2840 C   0  0  1  0  0  0  0  0  0  0  0  0
    7.9253    2.8004  -11.3926 C   0  0  0  0  0  0  0  0  0  0  0  0
    5.6047    4.5059  -11.7589 C   0  0  0  0  0  0  0  0  0  0  0  0
    7.6606    4.1297  -10.5699 C   0  0  0  0  0  0  0  0  0  0  0  0
   10.9559    7.6849   -6.6057 C   0  0  0  0  0  0  0  0  0  0  0  0
    8.0094    4.5092   -9.5664 C   0  0  0  0  0  0  0  0  0  0  0  0
    8.3033    4.0627   -8.4980 C   0  0  0  0  0  0  0  0  0  0  0  0
    6.3587    7.1012  -11.0392 O   0  0  0  0  0  0  0  0  0  0  0  0
   11.0186    3.9598  -14.9226 C   0  0  1  0  0  0  0  0  0  0  0  0
    8.1758    5.8633  -10.2511 C   0  0  1  0  0  0  0  0  0  0  0  0
    9.4315    2.8557  -13.5931 C   0  0  0  0  0  0  0  0  0  0  0  0
   11.5906    2.6986  -15.1672 C   0  0  0  0  0  0  0  0  0  0  0  0
    9.9783    6.7760   -6.8364 C   0  0  0  0  0  0  0  0  0  0  0  0
    9.7446    6.4267   -8.0721 C   0  0  2  0  0  0  0  0  0  0  0  0
   10.2617    4.4120  -16.0135 O   0  0  0  0  0  0  0  0  0  0  0  0
   11.3635    8.3622   -5.0463 S   0  0  0  0  0  0  0  0  0  0  0  0
   12.1504    7.4660   -4.3096 O   0  0  0  0  0  0  0  0  0  0  0  0
   10.0996    8.7422   -4.2973 N   0  0  0  0  0  0  0  0  0  0  0  0
    9.0637    5.0785   -7.8154 C   0  0  0  0  0  0  0  0  0  0  0  0
   12.1871    9.8175   -5.1476 O   0  0  0  0  0  0  0  0  0  0  0  0
  1  2  1  0  0  0  0
  2  3  1  0  0  0  0
  2  7  2  0  0  0  0
  4  3  1  6  0  0  0
  4  5  1  0  0  0  0
  4  6  1  0  0  0  0
  4  8  1  0  0  0  0
  5  9  2  0  0  0  0
  6 13  1  0  0  0  0
  7 12  1  0  0  0  0
  8 19  2  0  0  0  0
 10  7  1  1  0  0  0
 10 14  1  0  0  0  0
 10 17  1  0  0  0  0
 11  8  1  6  0  0  0
 11 20  1  0  0  0  0
 11 32  1  0  0  0  0
 12 18  1  0  0  0  0
 12 30  1  1  0  0  0
 12 32  1  0  0  0  0
 13 16  2  0  0  0  0
 13 21  1  0  0  0  0
 14  5  1  1  0  0  0
 14 15  1  0  0  0  0
 14 20  1  0  0  0  0
 15 31  1  0  0  0  0
 15 33  1  0  0  0  0
 17 18  1  0  0  0  0
 17 23  1  0  0  0  0
 18 25  1  0  0  0  0
 18 26  1  0  0  0  0
 19 21  1  0  0  0  0
 19 36  1  0  0  0  0
 20 23  1  0  0  0  0
 21 22  2  0  0  0  0
 22 27  1  0  0  0  0
 23 24  1  0  0  0  0
 23 33  1  0  0  0  0
 24 26  1  0  0  0  0
 26 28  2  0  0  0  0
 27 35  2  0  0  0  0
 27 38  1  0  0  0  0
 28 29  1  0  0  0  0
 28 32  1  0  0  0  0
 29 41  1  0  0  0  0
 31 34  1  0  0  0  0
 31 37  1  0  0  0  0
 35 36  1  0  0  0  0
 36 41  1  0  0  0  0
 38 39  2  0  0  0  0
 38 40  1  0  0  0  0
 38 42  2  0  0  0  0
M  END
$$$$

 OpenBabel10082411353D

 42 52  0  0  0  0  0  0  0  0999 V2000
    8.0806    9.0240  -12.7589 C   0  0  0  0  0  0  0  0  0  0  0  0
    8.6514    7.8645  -12.2948 C   0  0  0  0  0  0  0  0  0  0  0  0
    9.9575    7.9974  -11.8426 C   0  0  0  0  0  0  0  0  0  0  0  0
   10.7657    6.8667  -11.6050 C   0  0  1  0  0  0  0  0  0  0  0  0
   10.7682    5.9590  -12.8271 C   0  0  0  0  0  0  0  0  0  0  0  0
   12.1553    7.3846  -11.2315 C   0  0  0  0  0  0  0  0  0  0  0  0
    8.0676    6.6451  -12.2974 C   0  0  0  0  0  0  0  0  0  0  0  0
   10.1892    6.1240  -10.3860 C   0  0  0  0  0  0  0  0  0  0  0  0
   11.8375    5.4373  -13.3240 O   0  0  0  0  0  0  0  0  0  0  0  0
    8.6785    5.4761  -13.0273 C   0  0  1  0  0  0  0  0  0  0  0  0
    9.1969    5.2405  -10.4969 C   0  0  2  0  0  0  0  0  0  0  0  0
    7.2213    6.2210  -11.3074 C   0  0  2  0  0  0  0  0  0  0  0  0
   12.5590    7.6872   -9.9896 C   0  0  0  0  0  0  0  0  0  0  0  0
    9.7633    5.0333  -12.9720 C   0  0  1  0  0  0  0  0  0  0  0  0
   10.0661    4.0167  -14.0373 N   0  0  0  0  0  0  0  0  0  0  0  0
   13.6906    8.3004   -9.6233 O   0  0  0  0  0  0  0  0  0  0  0  0
    7.6357    4.5123  -12.6317 C   0  0  2  0  0  0  0  0  0  0  0  0
    6.8831    4.9171  -11.7031 C   0  0  2  0  0  0  0  0  0  0  0  0
   10.5937    6.6967   -9.1779 C   0  0  0  0  0  0  0  0  0  0  0  0
    9.5087    4.3263  -11.6925 C   0  0  2  0  0  0  0  0  0  0  0  0
   11.6359    7.4449   -8.9125 C   0  0  0  0  0  0  0  0  0  0  0  0
   11.9716    7.9159   -7.6200 C   0  0  0  0  0  0  0  0  0  0  0  0
    8.4648    3.6122  -12.2840 C   0  0  1  0  0  0  0  0  0  0  0  0
    7.9253    2.8004  -11.3926 C   0  0  0  0  0  0  0  0  0  0  0  0
    5.6047    4.5059  -11.7589 C   0  0  0  0  0  0  0  0  0  0  0  0
    7.6606    4.1297  -10.5699 C   0  0  0  0  0  0  0  0  0  0  0  0
   10.9559    7.6849   -6.6057 C   0  0  0  0  0  0  0  0  0  0  0  0
    8.0094    4.5092   -9.5664 C   0  0  0  0  0  0  0  0  0  0  0  0
    8.3033    4.0627   -8.4980 C   0  0  0  0  0  0  0  0  0  0  0  0
    6.3587    7.1012  -11.0392 O   0  0  0  0  0  0  0  0  0  0  0  0
   11.0186    3.9598  -14.9226 C   0  0  1  0  0  0  0  0  0  0  0  0
    8.1758    5.8633  -10.2511 C   0  0  1  0  0  0  0  0  0  0  0  0
    9.4315    2.8557  -13.5931 C   0  0  0  0  0  0  0  0  0  0  0  0
   11.5906    2.6986  -15.1672 C   0  0  0  0  0  0  0  0  0  0  0  0
    9.9783    6.7760   -6.8364 C   0  0  0  0  0  0  0  0  0  0  0  0
    9.7446    6.4267   -8.0721 C   0  0  2  0  0  0  0  0  0  0  0  0
   10.2617    4.4120  -16.0135 O   0  0  0  0  0  0  0  0  0  0  0  0
   11.3635    8.3622   -5.0463 S   0  0  0  0  0  0  0  0  0  0  0  0
    8.5854    5.3620   -7.9736 C   0  0  0  0  0  0  0  0  0  0  0  0
   10.2750    8.8364   -4.4773 O   0  0  0  0  0  0  0  0  0  0  0  0
   11.9172    7.2255   -4.1813 C   0  0  0  0  0  0  0  0  0  0  0  0
   12.4115    9.5160   -5.3839 O   0  0  0  0  0  0  0  0  0  0  0  0
  1  2  1  0  0  0  0
  2  3  1  0  0  0  0
  2  7  2  0  0  0  0
  4  3  1  6  0  0  0
  4  5  1  0  0  0  0
  4  6  1  0  0  0  0
  4  8  1  0  0  0  0
  5  9  2  0  0  0  0
  6 13  1  0  0  0  0
  7 12  1  0  0  0  0
  8 19  2  0  0  0  0
 10  7  1  1  0  0  0
 10 14  1  0  0  0  0
 10 17  1  0  0  0  0
 11  8  1  6  0  0  0
 11 20  1  0  0  0  0
 11 32  1  0  0  0  0
 12 18  1  0  0  0  0
 12 30  1  1  0  0  0
 12 32  1  0  0  0  0
 13 16  2  0  0  0  0
 13 21  1  0  0  0  0
 14  5  1  1  0  0  0
 14 15  1  0  0  0  0
 14 20  1  0  0  0  0
 15 31  1  0  0  0  0
 15 33  1  0  0  0  0
 17 18  1  0  0  0  0
 17 23  1  0  0  0  0
 18 25  1  0  0  0  0
 18 26  1  0  0  0  0
 19 21  1  0  0  0  0
 19 36  1  0  0  0  0
 20 23  1  0  0  0  0
 21 22  2  0  0  0  0
 22 27  1  0  0  0  0
 23 24  1  0  0  0  0
 23 33  1  0  0  0  0
 24 26  1  0  0  0  0
 26 28  2  0  0  0  0
 27 35  2  0  0  0  0
 27 38  1  0  0  0  0
 28 29  1  0  0  0  0
 28 32  1  0  0  0  0
 29 39  1  0  0  0  0
 31 34  1  0  0  0  0
 31 37  1  0  0  0  0
 35 36  1  0  0  0  0
 36 39  1  0  0  0  0
 38 40  2  0  0  0  0
 38 41  1  0  0  0  0
 38 42  2  0  0  0  0
M  END
$$$$

 OpenBabel10082411353D

 42 48  0  0  0  0  0  0  0  0999 V2000
   11.6836    6.0105   -4.8831 C   0  0  0  0  0  0  0  0  0  0  0  0
   11.1291    7.0732   -5.4395 C   0  0  0  0  0  0  0  0  0  0  0  0
   10.6954    7.0156   -6.8073 C   0  0  0  0  0  0  0  0  0  0  0  0
   10.2502    8.1187   -7.5536 C   0  0  2  0  0  0  0  0  0  0  0  0
   11.1205    8.4712   -4.9629 C   0  0  0  0  0  0  0  0  0  0  0  0
   10.8655    8.3511   -8.7960 C   0  0  0  0  0  0  0  0  0  0  0  0
   10.2922    7.8843   -9.9985 C   0  0  0  0  0  0  0  0  0  0  0  0
   10.4654    9.6993   -5.6120 C   0  0  0  0  0  0  0  0  0  0  0  0
   10.3510    9.5971   -7.0014 C   0  0  0  0  0  0  0  0  0  0  0  0
   12.2462    6.3351   -3.5020 C   0  0  0  0  0  0  0  0  0  0  0  0
   11.0471    7.5309  -11.1063 C   0  0  0  0  0  0  0  0  0  0  0  0
   11.7288    8.6923   -3.6518 C   0  0  0  0  0  0  0  0  0  0  0  0
   12.3991    7.7501  -11.1145 C   0  0  0  0  0  0  0  0  0  0  0  0
   12.3738    7.7580   -2.9599 C   0  0  0  0  0  0  0  0  0  0  0  0
   13.1285    8.5075  -10.1661 O   0  0  0  0  0  0  0  0  0  0  0  0
    9.0407    7.3775  -10.0973 N   0  0  0  0  0  0  0  0  0  0  0  0
    8.9787    6.9473  -11.4664 N   0  0  0  0  0  0  0  0  0  0  0  0
   13.1012    7.4459  -12.3707 C   0  0  0  0  0  0  0  0  0  0  0  0
   12.2395    6.9724  -13.2444 C   0  0  0  0  0  0  0  0  0  0  0  0
   10.2768    7.0170  -11.9799 C   0  0  0  0  0  0  0  0  0  0  0  0
   12.9237    6.5822  -14.5759 O   0  0  0  0  0  0  0  0  0  0  0  0
   10.8906    6.6526  -13.2252 C   0  0  0  0  0  0  0  0  0  0  0  0
   12.2396    6.1290  -15.6916 C   0  0  0  0  0  0  0  0  0  0  0  0
    7.8036    6.1825  -11.9342 C   0  0  0  0  0  0  0  0  0  0  0  0
   12.5015    4.7115  -15.7686 C   0  0  0  0  0  0  0  0  0  0  0  0
    7.1685    6.9992  -12.8245 C   0  0  0  0  0  0  0  0  0  0  0  0
   11.2461    3.8540  -15.4851 C   0  0  0  0  0  0  0  0  0  0  0  0
    7.6237    4.9154  -11.6529 C   0  0  0  0  0  0  0  0  0  0  0  0
    6.6378    4.1960  -12.2267 C   0  0  0  0  0  0  0  0  0  0  0  0
    6.2717    2.7675  -11.9743 C   0  0  0  0  0  0  0  0  0  0  0  0
    6.6569    1.8873  -12.9460 C   0  0  0  0  0  0  0  0  0  0  0  0
    7.3895    8.4597  -13.1785 C   0  0  0  0  0  0  0  0  0  0  0  0
    6.3114    0.5653  -12.7247 C   0  0  0  0  0  0  0  0  0  0  0  0
   11.3885    2.5830  -15.4863 O   0  0  0  0  0  0  0  0  0  0  0  0
    7.4815    2.1853  -14.0878 C   0  0  0  0  0  0  0  0  0  0  0  0
   10.0671    4.4249  -15.4648 O   0  0  0  0  0  0  0  0  0  0  0  0
    6.9068   -0.3393  -13.8429 C   0  0  0  0  0  0  0  0  0  0  0  0
    7.9156    3.5885  -14.2394 C   0  0  1  0  0  0  0  0  0  0  0  0
    8.8150    3.6631  -15.5267 C   0  0  0  0  0  0  0  0  0  0  0  0
    7.7743    1.1763  -14.8079 C   0  0  0  0  0  0  0  0  0  0  0  0
    7.5211   -0.1310  -14.6096 C   0  0  0  0  0  0  0  0  0  0  0  0
    6.7560    4.1587  -13.6735 C   0  0  0  0  0  0  0  0  0  0  0  0
  1  2  1  0  0  0  0
  1 10  2  0  0  0  0
  2  3  1  0  0  0  0
  2  5  2  0  0  0  0
  3  4  1  0  0  0  0
  4  6  1  6  0  0  0
  4  9  1  0  0  0  0
  5  8  1  0  0  0  0
  5 12  1  0  0  0  0
  6  7  1  0  0  0  0
  7 11  1  0  0  0  0
  7 16  2  0  0  0  0
  8  9  1  0  0  0  0
 10 14  1  0  0  0  0
 11 13  2  0  0  0  0
 11 20  1  0  0  0  0
 12 14  2  0  0  0  0
 13 15  1  0  0  0  0
 13 18  1  0  0  0  0
 16 17  1  0  0  0  0
 17 20  1  0  0  0  0
 17 24  1  0  0  0  0
 18 19  2  0  0  0  0
 19 21  1  0  0  0  0
 19 22  1  0  0  0  0
 20 22  2  0  0  0  0
 21 23  1  0  0  0  0
 23 25  1  0  0  0  0
 24 26  2  3  0  0  0
 24 28  1  0  0  0  0
 25 27  1  0  0  0  0
 26 32  1  0  0  0  0
 27 34  2  0  0  0  0
 27 36  1  0  0  0  0
 28 29  2  0  0  0  0
 29 30  1  0  0  0  0
 29 42  1  0  0  0  0
 30 31  1  0  0  0  0
 31 33  2  0  0  0  0
 31 35  1  0  0  0  0
 33 37  1  0  0  0  0
 35 38  1  0  0  0  0
 35 40  2  0  0  0  0
 36 39  1  0  0  0  0
 37 41  2  0  0  0  0
 38 39  1  6  0  0  0
 38 42  1  0  0  0  0
 40 41  1  0  0  0  0
M  END
$$$$

 OpenBabel10082411353D

 26 28  0  0  0  0  0  0  0  0999 V2000
   10.7609    9.6228   -4.2714 C   0  0  0  0  0  0  0  0  0  0  0  0
   10.4930    9.4831   -5.5343 C   0  0  0  0  0  0  0  0  0  0  0  0
   11.6139    8.5907   -3.8078 C   0  0  0  0  0  0  0  0  0  0  0  0
   10.6916    8.7185   -6.3306 C   0  0  0  0  0  0  0  0  0  0  0  0
   11.4775    7.4908   -5.9802 C   0  0  0  0  0  0  0  0  0  0  0  0
   10.1045    8.7095   -7.8164 C   0  0  0  0  0  0  0  0  0  0  0  0
   11.8703    7.5203   -4.5985 C   0  0  0  0  0  0  0  0  0  0  0  0
   10.7919    7.9248   -8.8228 C   0  0  2  0  0  0  0  0  0  0  0  0
   11.9364    8.4952   -9.3965 C   0  0  0  0  0  0  0  0  0  0  0  0
    9.8959    7.3469   -9.8494 C   0  0  0  0  0  0  0  0  0  0  0  0
   12.2659    8.0794  -10.7080 C   0  0  0  0  0  0  0  0  0  0  0  0
   10.4408    6.8044  -11.0562 C   0  0  2  0  0  0  0  0  0  0  0  0
   11.4386    7.6856  -11.6482 N   0  0  0  0  0  0  0  0  0  0  0  0
    9.4200    6.2781  -12.0473 C   0  0  2  0  0  0  0  0  0  0  0  0
   11.6788    7.6359  -13.0249 C   0  0  0  0  0  0  0  0  0  0  0  0
   12.6986    7.8374  -13.5514 O   0  0  0  0  0  0  0  0  0  0  0  0
    8.6050    5.1568  -11.5138 C   0  0  0  0  0  0  0  0  0  0  0  0
    9.9990    5.8712  -13.2928 C   0  0  1  0  0  0  0  0  0  0  0  0
   10.5693    7.3889  -13.8893 C   0  0  0  0  0  0  0  0  0  0  0  0
   11.1361    4.9366  -13.2042 C   0  0  0  0  0  0  0  0  0  0  0  0
   10.9712    3.7479  -14.2147 C   0  0  0  0  0  0  0  0  0  0  0  0
    7.2750    5.0810  -11.9818 C   0  0  0  0  0  0  0  0  0  0  0  0
   11.8122    3.5910  -15.0977 O   0  0  0  0  0  0  0  0  0  0  0  0
    6.4296    5.8775  -11.4180 O   0  0  0  0  0  0  0  0  0  0  0  0
    7.1173    4.6868  -13.2745 O   0  0  0  0  0  0  0  0  0  0  0  0
    9.9316    3.1557  -14.1072 O   0  0  0  0  0  0  0  0  0  0  0  0
  1  2  1  0  0  0  0
  1  3  2  0  0  0  0
  2  4  2  0  0  0  0
  3  7  1  0  0  0  0
  4  5  1  0  0  0  0
  4  6  1  0  0  0  0
  5  7  2  0  0  0  0
  8  6  1  6  0  0  0
  8  9  1  0  0  0  0
  8 10  1  0  0  0  0
  9 11  1  0  0  0  0
 11 13  1  0  0  0  0
 12 10  1  1  0  0  0
 12 13  1  0  0  0  0
 12 14  1  0  0  0  0
 13 15  1  0  0  0  0
 14 17  1  1  0  0  0
 14 18  1  0  0  0  0
 15 16  2  0  0  0  0
 15 19  1  0  0  0  0
 17 22  1  0  0  0  0
 18 19  1  0  0  0  0
 18 20  1  1  0  0  0
 20 21  1  0  0  0  0
 21 23  2  0  0  0  0
 21 26  1  0  0  0  0
 22 24  1  0  0  0  0
 22 25  1  0  0  0  0
M  END
$$$$

 OpenBabel10082411353D

 42 48  0  0  0  0  0  0  0  0999 V2000
   11.6836    6.0105   -4.8831 C   0  0  0  0  0  0  0  0  0  0  0  0
   11.1291    7.0732   -5.4395 C   0  0  0  0  0  0  0  0  0  0  0  0
   10.6954    7.0156   -6.8073 C   0  0  0  0  0  0  0  0  0  0  0  0
   10.2502    8.1187   -7.5536 C   0  0  2  0  0  0  0  0  0  0  0  0
   11.1205    8.4712   -4.9629 C   0  0  0  0  0  0  0  0  0  0  0  0
   10.8655    8.3511   -8.7960 C   0  0  0  0  0  0  0  0  0  0  0  0
   10.2922    7.8843   -9.9985 C   0  0  0  0  0  0  0  0  0  0  0  0
   10.4654    9.6993   -5.6120 C   0  0  0  0  0  0  0  0  0  0  0  0
   10.3510    9.5971   -7.0014 C   0  0  0  0  0  0  0  0  0  0  0  0
   12.2462    6.3351   -3.5020 C   0  0  0  0  0  0  0  0  0  0  0  0
   11.0471    7.5309  -11.1063 C   0  0  0  0  0  0  0  0  0  0  0  0
   11.7288    8.6923   -3.6518 C   0  0  0  0  0  0  0  0  0  0  0  0
   12.3991    7.7501  -11.1145 C   0  0  0  0  0  0  0  0  0  0  0  0
   12.3738    7.7580   -2.9599 C   0  0  0  0  0  0  0  0  0  0  0  0
   13.1285    8.5075  -10.1661 O   0  0  0  0  0  0  0  0  0  0  0  0
    9.0407    7.3775  -10.0973 N   0  0  0  0  0  0  0  0  0  0  0  0
    8.9787    6.9473  -11.4664 N   0  0  0  0  0  0  0  0  0  0  0  0
   13.1012    7.4459  -12.3707 C   0  0  0  0  0  0  0  0  0  0  0  0
   12.2395    6.9724  -13.2444 C   0  0  0  0  0  0  0  0  0  0  0  0
   10.2768    7.0170  -11.9799 C   0  0  0  0  0  0  0  0  0  0  0  0
   12.9237    6.5822  -14.5759 O   0  0  0  0  0  0  0  0  0  0  0  0
   10.8906    6.6526  -13.2252 C   0  0  0  0  0  0  0  0  0  0  0  0
   12.2396    6.1290  -15.6916 C   0  0  0  0  0  0  0  0  0  0  0  0
    7.8036    6.1825  -11.9342 C   0  0  0  0  0  0  0  0  0  0  0  0
   12.5015    4.7115  -15.7686 C   0  0  0  0  0  0  0  0  0  0  0  0
    7.1685    6.9992  -12.8245 C   0  0  0  0  0  0  0  0  0  0  0  0
   11.2461    3.8540  -15.4851 C   0  0  0  0  0  0  0  0  0  0  0  0
    7.6237    4.9154  -11.6529 C   0  0  0  0  0  0  0  0  0  0  0  0
    6.6378    4.1960  -12.2267 C   0  0  0  0  0  0  0  0  0  0  0  0
    6.2717    2.7675  -11.9743 C   0  0  0  0  0  0  0  0  0  0  0  0
    6.6569    1.8873  -12.9460 C   0  0  0  0  0  0  0  0  0  0  0  0
    7.3895    8.4597  -13.1785 C   0  0  0  0  0  0  0  0  0  0  0  0
    6.3114    0.5653  -12.7247 C   0  0  0  0  0  0  0  0  0  0  0  0
   11.3885    2.5830  -15.4863 O   0  0  0  0  0  0  0  0  0  0  0  0
    7.4815    2.1853  -14.0878 C   0  0  0  0  0  0  0  0  0  0  0  0
   10.0671    4.4249  -15.4648 O   0  0  0  0  0  0  0  0  0  0  0  0
    6.9068   -0.3393  -13.8429 C   0  0  0  0  0  0  0  0  0  0  0  0
    7.9156    3.5885  -14.2394 C   0  0  2  0  0  0  0  0  0  0  0  0
    7.9792    1.3984  -14.7530 C   0  0  0  0  0  0  0  0  0  0  0  0
    7.7139    0.1005  -14.7460 C   0  0  0  0  0  0  0  0  0  0  0  0
    6.7900    4.3570  -13.5664 O   0  0  0  0  0  0  0  0  0  0  0  0
    8.7608    3.6715  -15.3982 C   0  0  0  0  0  0  0  0  0  0  0  0
  1  2  1  0  0  0  0
  1 10  2  0  0  0  0
  2  3  1  0  0  0  0
  2  5  2  0  0  0  0
  3  4  1  0  0  0  0
  4  6  1  6  0  0  0
  4  9  1  0  0  0  0
  5  8  1  0  0  0  0
  5 12  1  0  0  0  0
  6  7  1  0  0  0  0
  7 11  1  0  0  0  0
  7 16  2  0  0  0  0
  8  9  1  0  0  0  0
 10 14  1  0  0  0  0
 11 13  2  0  0  0  0
 11 20  1  0  0  0  0
 12 14  2  0  0  0  0
 13 15  1  0  0  0  0
 13 18  1  0  0  0  0
 16 17  1  0  0  0  0
 17 20  1  0  0  0  0
 17 24  1  0  0  0  0
 18 19  2  0  0  0  0
 19 21  1  0  0  0  0
 19 22  1  0  0  0  0
 20 22  2  0  0  0  0
 21 23  1  0  0  0  0
 23 25  1  0  0  0  0
 24 26  2  3  0  0  0
 24 28  1  0  0  0  0
 25 27  1  0  0  0  0
 26 32  1  0  0  0  0
 27 34  2  0  0  0  0
 27 36  1  0  0  0  0
 28 29  2  0  0  0  0
 29 30  1  0  0  0  0
 29 41  1  0  0  0  0
 30 31  1  0  0  0  0
 31 33  2  0  0  0  0
 31 35  1  0  0  0  0
 33 37  1  0  0  0  0
 35 38  1  0  0  0  0
 35 39  2  0  0  0  0
 36 42  1  0  0  0  0
 37 40  2  0  0  0  0
 38 41  1  0  0  0  0
 38 42  1  6  0  0  0
 39 40  1  0  0  0  0
M  END
$$$$

 OpenBabel10082411353D

 42 49  0  0  0  0  0  0  0  0999 V2000
   11.6836    6.0105   -4.8831 C   0  0  0  0  0  0  0  0  0  0  0  0
   11.1291    7.0732   -5.4395 C   0  0  0  0  0  0  0  0  0  0  0  0
   10.6954    7.0156   -6.8073 C   0  0  0  0  0  0  0  0  0  0  0  0
   10.2502    8.1187   -7.5536 C   0  0  2  0  0  0  0  0  0  0  0  0
   11.1205    8.4712   -4.9629 C   0  0  0  0  0  0  0  0  0  0  0  0
   10.8655    8.3511   -8.7960 C   0  0  0  0  0  0  0  0  0  0  0  0
   10.2922    7.8843   -9.9985 C   0  0  0  0  0  0  0  0  0  0  0  0
   10.4654    9.6993   -5.6120 C   0  0  0  0  0  0  0  0  0  0  0  0
   10.3510    9.5971   -7.0014 C   0  0  0  0  0  0  0  0  0  0  0  0
   12.2462    6.3351   -3.5020 C   0  0  0  0  0  0  0  0  0  0  0  0
   11.0471    7.5309  -11.1063 C   0  0  0  0  0  0  0  0  0  0  0  0
   11.7288    8.6923   -3.6518 C   0  0  0  0  0  0  0  0  0  0  0  0
   12.3991    7.7501  -11.1145 C   0  0  0  0  0  0  0  0  0  0  0  0
   12.3738    7.7580   -2.9599 C   0  0  0  0  0  0  0  0  0  0  0  0
   13.1285    8.5075  -10.1661 O   0  0  0  0  0  0  0  0  0  0  0  0
    9.0407    7.3775  -10.0973 N   0  0  0  0  0  0  0  0  0  0  0  0
    8.9787    6.9473  -11.4664 N   0  0  0  0  0  0  0  0  0  0  0  0
   13.1012    7.4459  -12.3707 C   0  0  0  0  0  0  0  0  0  0  0  0
   12.2395    6.9724  -13.2444 C   0  0  0  0  0  0  0  0  0  0  0  0
   10.2768    7.0170  -11.9799 C   0  0  0  0  0  0  0  0  0  0  0  0
   12.9237    6.5822  -14.5759 O   0  0  0  0  0  0  0  0  0  0  0  0
   10.8906    6.6526  -13.2252 C   0  0  0  0  0  0  0  0  0  0  0  0
   12.2396    6.1290  -15.6916 C   0  0  0  0  0  0  0  0  0  0  0  0
    7.7368    6.4514  -12.0707 C   0  0  0  0  0  0  0  0  0  0  0  0
    7.1353    7.2872  -12.8105 C   0  0  0  0  0  0  0  0  0  0  0  0
    7.6622    5.0135  -12.1225 C   0  0  0  0  0  0  0  0  0  0  0  0
   12.5092    4.6950  -15.8147 C   0  0  0  0  0  0  0  0  0  0  0  0
    5.9403    6.5840  -13.2897 C   0  0  0  0  0  0  0  0  0  0  0  0
   11.2738    3.8422  -15.5220 N   0  0  0  0  0  0  0  0  0  0  0  0
    8.7139    4.1736  -11.4601 C   0  0  0  0  0  0  0  0  0  0  0  0
    5.7546    5.3014  -13.2955 C   0  0  0  0  0  0  0  0  0  0  0  0
   10.5665    3.9988  -14.5162 C   0  0  0  0  0  0  0  0  0  0  0  0
    6.6518    4.4534  -12.6459 C   0  0  0  0  0  0  0  0  0  0  0  0
   11.1930    2.6728  -16.3047 C   0  0  0  0  0  0  0  0  0  0  0  0
    9.2470    3.7086  -14.6888 C   0  0  0  0  0  0  0  0  0  0  0  0
   10.0389    2.1274  -16.2175 N   0  0  0  0  0  0  0  0  0  0  0  0
    9.0069    2.5135  -15.3535 C   0  0  0  0  0  0  0  0  0  0  0  0
    7.7229    2.0262  -15.4253 N   0  0  0  0  0  0  0  0  0  0  0  0
    7.1343    2.8255  -14.3968 C   0  0  0  0  0  0  0  0  0  0  0  0
    5.9026    2.5849  -13.7249 C   0  0  0  0  0  0  0  0  0  0  0  0
    7.9846    3.7281  -13.7665 N   0  0  0  0  0  0  0  0  0  0  0  0
    6.4241    3.0758  -12.4547 O   0  0  0  0  0  0  0  0  0  0  0  0
  1  2  1  0  0  0  0
  1 10  2  0  0  0  0
  2  3  1  0  0  0  0
  2  5  2  0  0  0  0
  3  4  1  0  0  0  0
  4  6  1  6  0  0  0
  4  9  1  0  0  0  0
  5  8  1  0  0  0  0
  5 12  1  0  0  0  0
  6  7  1  0  0  0  0
  7 11  1  0  0  0  0
  7 16  2  0  0  0  0
  8  9  1  0  0  0  0
 10 14  1  0  0  0  0
 11 13  2  0  0  0  0
 11 20  1  0  0  0  0
 12 14  2  0  0  0  0
 13 15  1  0  0  0  0
 13 18  1  0  0  0  0
 16 17  1  0  0  0  0
 17 20  1  0  0  0  0
 17 24  1  0  0  0  0
 18 19  2  0  0  0  0
 19 21  1  0  0  0  0
 19 22  1  0  0  0  0
 20 22  2  0  0  0  0
 21 23  1  0  0  0  0
 23 27  1  0  0  0  0
 24 25  2  0  0  0  0
 24 26  1  0  0  0  0
 25 28  1  0  0  0  0
 26 30  1  0  0  0  0
 26 33  2  0  0  0  0
 27 29  1  0  0  0  0
 28 31  2  0  0  0  0
 29 32  1  0  0  0  0
 29 34  1  0  0  0  0
 31 33  1  0  0  0  0
 32 35  2  0  0  0  0
 33 42  1  0  0  0  0
 34 36  2  0  0  0  0
 35 37  1  0  0  0  0
 35 41  1  0  0  0  0
 36 37  1  0  0  0  0
 37 38  2  0  0  0  0
 38 39  1  0  0  0  0
 39 40  1  0  0  0  0
 39 41  2  0  0  0  0
 40 42  1  0  0  0  0
M  END
$$$$

 OpenBabel10082411353D

 42 49  0  0  0  0  0  0  0  0999 V2000
   12.7863    7.8241  -14.2109 C   0  0  0  0  0  0  0  0  0  0  0  0
   12.4233    7.7158  -13.0289 C   0  0  0  0  0  0  0  0  0  0  0  0
   11.3194    6.8571  -12.8028 C   0  0  0  0  0  0  0  0  0  0  0  0
   12.3150    7.2021  -15.3582 C   0  0  0  0  0  0  0  0  0  0  0  0
   11.2733    6.2739  -15.1502 C   0  0  0  0  0  0  0  0  0  0  0  0
   10.8099    6.0126  -13.8600 C   0  0  0  0  0  0  0  0  0  0  0  0
    9.6782    5.1428  -13.6488 C   0  0  0  0  0  0  0  0  0  0  0  0
    8.5753    5.3880  -12.9589 N   0  0  0  0  0  0  0  0  0  0  0  0
    8.3226    6.7011  -12.3862 C   0  0  0  0  0  0  0  0  0  0  0  0
    9.8502    3.8578  -14.0728 C   0  0  0  0  0  0  0  0  0  0  0  0
    7.3864    7.4720  -13.0530 C   0  0  0  0  0  0  0  0  0  0  0  0
    6.2412    7.8486  -12.2599 C   0  0  0  0  0  0  0  0  0  0  0  0
    7.6425    4.4186  -12.7943 C   0  0  0  0  0  0  0  0  0  0  0  0
   11.0297    3.2482  -14.8053 C   0  0  0  0  0  0  0  0  0  0  0  0
    8.6802    2.8955  -13.7960 C   0  0  0  0  0  0  0  0  0  0  0  0
    8.8565    1.5917  -14.3582 O   0  0  0  0  0  0  0  0  0  0  0  0
    7.6903    3.2226  -13.1994 N   0  0  0  0  0  0  0  0  0  0  0  0
    6.5724    2.3444  -12.8378 C   0  0  0  0  0  0  0  0  0  0  0  0
    9.0225    7.0353  -11.3259 C   0  0  0  0  0  0  0  0  0  0  0  0
    6.2405    4.8489  -12.4515 C   0  0  0  0  0  0  0  0  0  0  0  0
   10.5875    7.0617  -11.5321 C   0  0  0  0  0  0  0  0  0  0  0  0
   11.0960    7.6093  -10.4100 C   0  0  0  0  0  0  0  0  0  0  0  0
    8.4039    7.3336  -10.1102 C   0  0  0  0  0  0  0  0  0  0  0  0
    5.5911    3.3517  -12.3508 C   0  0  0  0  0  0  0  0  0  0  0  0
   12.6259    7.6530  -10.3901 C   0  0  0  0  0  0  0  0  0  0  0  0
   10.4284    7.7784   -9.2128 C   0  0  0  0  0  0  0  0  0  0  0  0
    9.2236    7.5051   -9.0617 C   0  0  2  0  0  0  0  0  0  0  0  0
    8.7145    7.3063   -7.7135 N   0  0  0  0  0  0  0  0  0  0  0  0
    9.3548    8.2125   -6.8305 C   0  0  0  0  0  0  0  0  0  0  0  0
   13.2400    8.3532   -9.3250 C   0  0  0  0  0  0  0  0  0  0  0  0
    8.8718    5.9168   -7.2228 C   0  0  0  0  0  0  0  0  0  0  0  0
   12.5074    8.3587   -8.0386 C   0  0  0  0  0  0  0  0  0  0  0  0
   11.1924    8.1932   -7.9474 C   0  0  0  0  0  0  0  0  0  0  0  0
   10.5178    8.6952   -6.8252 C   0  0  0  0  0  0  0  0  0  0  0  0
   11.2154    9.5775   -5.8394 C   0  0  0  0  0  0  0  0  0  0  0  0
   11.4609    9.0655   -4.4906 C   0  0  0  0  0  0  0  0  0  0  0  0
   12.4935    9.6111   -3.7398 C   0  0  0  0  0  0  0  0  0  0  0  0
   10.9831    7.8342   -4.1450 C   0  0  0  0  0  0  0  0  0  0  0  0
   11.4793    7.1856   -2.9255 C   0  0  0  0  0  0  0  0  0  0  0  0
   12.9298    9.1062   -2.5771 C   0  0  0  0  0  0  0  0  0  0  0  0
   10.9849    6.0156   -2.4848 F   0  0  0  0  0  0  0  0  0  0  0  0
   12.4019    7.8910   -2.0420 C   0  0  0  0  0  0  0  0  0  0  0  0
  1  2  2  0  0  0  0
  1  4  1  0  0  0  0
  2  3  1  0  0  0  0
  3  6  2  0  0  0  0
  3 21  1  0  0  0  0
  4  5  2  0  0  0  0
  5  6  1  0  0  0  0
  6  7  1  0  0  0  0
  7  8  1  0  0  0  0
  7 10  2  0  0  0  0
  8  9  1  0  0  0  0
  8 13  1  0  0  0  0
  9 11  1  0  0  0  0
  9 19  2  0  0  0  0
 10 14  1  0  0  0  0
 10 15  1  0  0  0  0
 11 12  1  0  0  0  0
 13 17  1  0  0  0  0
 13 20  2  0  0  0  0
 15 16  2  0  0  0  0
 15 17  1  0  0  0  0
 17 18  1  0  0  0  0
 18 24  1  0  0  0  0
 19 21  1  0  0  0  0
 19 23  1  0  0  0  0
 20 24  1  0  0  0  0
 21 22  2  0  0  0  0
 22 25  1  0  0  0  0
 22 26  1  0  0  0  0
 25 30  1  0  0  0  0
 26 27  1  0  0  0  0
 26 33  2  0  0  0  0
 27 23  1  6  0  0  0
 27 28  1  0  0  0  0
 28 29  1  0  0  0  0
 28 31  1  0  0  0  0
 29 34  2  0  0  0  0
 30 32  1  0  0  0  0
 32 33  1  0  0  0  0
 33 34  1  0  0  0  0
 34 35  1  0  0  0  0
 35 36  1  0  0  0  0
 36 37  1  0  0  0  0
 36 38  2  0  0  0  0
 37 40  2  0  0  0  0
 38 39  1  0  0  0  0
 39 41  1  0  0  0  0
 39 42  2  0  0  0  0
 40 42  1  0  0  0  0
M  END
$$$$

 OpenBabel10082411353D

 42 49  0  0  0  0  0  0  0  0999 V2000
   12.7863    7.8241  -14.2109 C   0  0  0  0  0  0  0  0  0  0  0  0
   12.4233    7.7158  -13.0289 C   0  0  0  0  0  0  0  0  0  0  0  0
   11.3194    6.8571  -12.8028 C   0  0  0  0  0  0  0  0  0  0  0  0
   12.3150    7.2021  -15.3582 C   0  0  0  0  0  0  0  0  0  0  0  0
   11.2733    6.2739  -15.1502 C   0  0  0  0  0  0  0  0  0  0  0  0
   10.8099    6.0126  -13.8600 C   0  0  0  0  0  0  0  0  0  0  0  0
    9.6782    5.1428  -13.6488 C   0  0  0  0  0  0  0  0  0  0  0  0
    8.5753    5.3880  -12.9589 N   0  0  0  0  0  0  0  0  0  0  0  0
    8.3226    6.7011  -12.3862 C   0  0  0  0  0  0  0  0  0  0  0  0
    9.8502    3.8578  -14.0728 C   0  0  0  0  0  0  0  0  0  0  0  0
    7.3864    7.4720  -13.0530 C   0  0  0  0  0  0  0  0  0  0  0  0
    6.2412    7.8486  -12.2599 C   0  0  0  0  0  0  0  0  0  0  0  0
    7.6425    4.4186  -12.7943 C   0  0  0  0  0  0  0  0  0  0  0  0
   11.0297    3.2482  -14.8053 C   0  0  0  0  0  0  0  0  0  0  0  0
    8.6802    2.8955  -13.7960 C   0  0  0  0  0  0  0  0  0  0  0  0
    8.8565    1.5917  -14.3582 O   0  0  0  0  0  0  0  0  0  0  0  0
    7.6903    3.2226  -13.1994 N   0  0  0  0  0  0  0  0  0  0  0  0
    6.5724    2.3444  -12.8378 C   0  0  0  0  0  0  0  0  0  0  0  0
    9.0225    7.0353  -11.3259 C   0  0  0  0  0  0  0  0  0  0  0  0
    6.2405    4.8489  -12.4515 C   0  0  0  0  0  0  0  0  0  0  0  0
   10.5875    7.0617  -11.5321 C   0  0  0  0  0  0  0  0  0  0  0  0
   11.0960    7.6093  -10.4100 C   0  0  0  0  0  0  0  0  0  0  0  0
    8.4039    7.3336  -10.1102 C   0  0  0  0  0  0  0  0  0  0  0  0
    5.5911    3.3517  -12.3508 C   0  0  0  0  0  0  0  0  0  0  0  0
   12.6259    7.6530  -10.3901 C   0  0  0  0  0  0  0  0  0  0  0  0
   10.4284    7.7784   -9.2128 C   0  0  0  0  0  0  0  0  0  0  0  0
    9.2236    7.5051   -9.0617 C   0  0  2  0  0  0  0  0  0  0  0  0
    8.7145    7.3063   -7.7135 N   0  0  0  0  0  0  0  0  0  0  0  0
    9.3548    8.2125   -6.8305 C   0  0  0  0  0  0  0  0  0  0  0  0
   13.2400    8.3532   -9.3250 C   0  0  0  0  0  0  0  0  0  0  0  0
    8.8718    5.9168   -7.2228 C   0  0  0  0  0  0  0  0  0  0  0  0
   12.5074    8.3587   -8.0386 C   0  0  0  0  0  0  0  0  0  0  0  0
   11.1924    8.1932   -7.9474 C   0  0  0  0  0  0  0  0  0  0  0  0
   10.5178    8.6952   -6.8252 C   0  0  0  0  0  0  0  0  0  0  0  0
   11.2154    9.5775   -5.8394 C   0  0  0  0  0  0  0  0  0  0  0  0
   11.4609    9.0655   -4.4906 C   0  0  0  0  0  0  0  0  0  0  0  0
   12.4935    9.6111   -3.7398 C   0  0  0  0  0  0  0  0  0  0  0  0
   10.9831    7.8342   -4.1450 C   0  0  0  0  0  0  0  0  0  0  0  0
   11.4793    7.1856   -2.9255 C   0  0  0  0  0  0  0  0  0  0  0  0
   12.3980    7.8903   -2.1078 C   0  0  0  0  0  0  0  0  0  0  0  0
   12.9472    7.2663   -0.9374 F   0  0  0  0  0  0  0  0  0  0  0  0
   12.9196    9.0668   -2.5829 C   0  0  0  0  0  0  0  0  0  0  0  0
  1  2  2  0  0  0  0
  1  4  1  0  0  0  0
  2  3  1  0  0  0  0
  3  6  2  0  0  0  0
  3 21  1  0  0  0  0
  4  5  2  0  0  0  0
  5  6  1  0  0  0  0
  6  7  1  0  0  0  0
  7  8  1  0  0  0  0
  7 10  2  0  0  0  0
  8  9  1  0  0  0  0
  8 13  1  0  0  0  0
  9 11  1  0  0  0  0
  9 19  2  0  0  0  0
 10 14  1  0  0  0  0
 10 15  1  0  0  0  0
 11 12  1  0  0  0  0
 13 17  1  0  0  0  0
 13 20  2  0  0  0  0
 15 16  2  0  0  0  0
 15 17  1  0  0  0  0
 17 18  1  0  0  0  0
 18 24  1  0  0  0  0
 19 21  1  0  0  0  0
 19 23  1  0  0  0  0
 20 24  1  0  0  0  0
 21 22  2  0  0  0  0
 22 25  1  0  0  0  0
 22 26  1  0  0  0  0
 25 30  1  0  0  0  0
 26 27  1  0  0  0  0
 26 33  2  0  0  0  0
 27 23  1  6  0  0  0
 27 28  1  0  0  0  0
 28 29  1  0  0  0  0
 28 31  1  0  0  0  0
 29 34  2  0  0  0  0
 30 32  1  0  0  0  0
 32 33  1  0  0  0  0
 33 34  1  0  0  0  0
 34 35  1  0  0  0  0
 35 36  1  0  0  0  0
 36 37  1  0  0  0  0
 36 38  2  0  0  0  0
 37 42  2  0  0  0  0
 38 39  1  0  0  0  0
 39 40  2  0  0  0  0
 40 41  1  0  0  0  0
 40 42  1  0  0  0  0
M  END
$$$$

 OpenBabel10082411353D

 42 49  0  0  0  0  0  0  0  0999 V2000
   11.6836    6.0105   -4.8831 C   0  0  0  0  0  0  0  0  0  0  0  0
   11.1291    7.0732   -5.4395 C   0  0  0  0  0  0  0  0  0  0  0  0
   10.6954    7.0156   -6.8073 C   0  0  0  0  0  0  0  0  0  0  0  0
   10.2502    8.1187   -7.5536 C   0  0  2  0  0  0  0  0  0  0  0  0
   11.1205    8.4712   -4.9629 C   0  0  0  0  0  0  0  0  0  0  0  0
   10.8655    8.3511   -8.7960 C   0  0  0  0  0  0  0  0  0  0  0  0
   10.2922    7.8843   -9.9985 C   0  0  0  0  0  0  0  0  0  0  0  0
   10.4654    9.6993   -5.6120 C   0  0  0  0  0  0  0  0  0  0  0  0
   10.3510    9.5971   -7.0014 C   0  0  0  0  0  0  0  0  0  0  0  0
   12.2462    6.3351   -3.5020 C   0  0  0  0  0  0  0  0  0  0  0  0
   11.0471    7.5309  -11.1063 C   0  0  0  0  0  0  0  0  0  0  0  0
   11.7288    8.6923   -3.6518 C   0  0  0  0  0  0  0  0  0  0  0  0
   12.3991    7.7501  -11.1145 C   0  0  0  0  0  0  0  0  0  0  0  0
   12.3738    7.7580   -2.9599 C   0  0  0  0  0  0  0  0  0  0  0  0
   13.1285    8.5075  -10.1661 O   0  0  0  0  0  0  0  0  0  0  0  0
    9.0407    7.3775  -10.0973 N   0  0  0  0  0  0  0  0  0  0  0  0
    8.9787    6.9473  -11.4664 N   0  0  0  0  0  0  0  0  0  0  0  0
   13.1012    7.4459  -12.3707 C   0  0  0  0  0  0  0  0  0  0  0  0
   12.2395    6.9724  -13.2444 C   0  0  0  0  0  0  0  0  0  0  0  0
   10.2768    7.0170  -11.9799 C   0  0  0  0  0  0  0  0  0  0  0  0
   12.9237    6.5822  -14.5759 O   0  0  0  0  0  0  0  0  0  0  0  0
   10.8906    6.6526  -13.2252 C   0  0  0  0  0  0  0  0  0  0  0  0
   12.2396    6.1290  -15.6916 C   0  0  0  0  0  0  0  0  0  0  0  0
    7.8036    6.1825  -11.9342 C   0  0  0  0  0  0  0  0  0  0  0  0
   12.5015    4.7115  -15.7686 C   0  0  0  0  0  0  0  0  0  0  0  0
    7.1685    6.9992  -12.8245 C   0  0  0  0  0  0  0  0  0  0  0  0
   11.2461    3.8540  -15.4851 C   0  0  1  0  0  0  0  0  0  0  0  0
    7.6237    4.9154  -11.6529 C   0  0  0  0  0  0  0  0  0  0  0  0
    6.6378    4.1960  -12.2267 C   0  0  0  0  0  0  0  0  0  0  0  0
    6.2717    2.7675  -11.9743 C   0  0  0  0  0  0  0  0  0  0  0  0
    6.6569    1.8873  -12.9460 C   0  0  0  0  0  0  0  0  0  0  0  0
    7.3895    8.4597  -13.1785 C   0  0  0  0  0  0  0  0  0  0  0  0
    6.3114    0.5653  -12.7247 C   0  0  0  0  0  0  0  0  0  0  0  0
    7.7684    2.0327  -13.9055 C   0  0  0  0  0  0  0  0  0  0  0  0
    6.9387   -0.3720  -13.7691 C   0  0  0  0  0  0  0  0  0  0  0  0
    8.4223    3.3339  -14.0264 C   0  0  0  0  0  0  0  0  0  0  0  0
    8.2908    1.0246  -14.6080 C   0  0  0  0  0  0  0  0  0  0  0  0
    7.8707   -0.1948  -14.5676 C   0  0  0  0  0  0  0  0  0  0  0  0
    9.4626    1.2359  -15.4581 C   0  0  0  0  0  0  0  0  0  0  0  0
   10.0048    0.2317  -16.1412 C   0  0  0  0  0  0  0  0  0  0  0  0
   10.1224    2.5414  -15.4707 C   0  0  0  0  0  0  0  0  0  0  0  0
    9.5784    3.5547  -14.7020 C   0  0  0  0  0  0  0  0  0  0  0  0
  1  2  1  0  0  0  0
  1 10  2  0  0  0  0
  2  3  1  0  0  0  0
  2  5  2  0  0  0  0
  3  4  1  0  0  0  0
  4  6  1  6  0  0  0
  4  9  1  0  0  0  0
  5  8  1  0  0  0  0
  5 12  1  0  0  0  0
  6  7  1  0  0  0  0
  7 11  1  0  0  0  0
  7 16  2  0  0  0  0
  8  9  1  0  0  0  0
 10 14  1  0  0  0  0
 11 13  2  0  0  0  0
 11 20  1  0  0  0  0
 12 14  2  0  0  0  0
 13 15  1  0  0  0  0
 13 18  1  0  0  0  0
 16 17  1  0  0  0  0
 17 20  1  0  0  0  0
 17 24  1  0  0  0  0
 18 19  2  0  0  0  0
 19 21  1  0  0  0  0
 19 22  1  0  0  0  0
 20 22  2  0  0  0  0
 21 23  1  0  0  0  0
 23 25  1  0  0  0  0
 24 26  2  3  0  0  0
 24 28  1  0  0  0  0
 26 32  1  0  0  0  0
 27 25  1  1  0  0  0
 27 41  1  0  0  0  0
 27 42  1  0  0  0  0
 28 29  2  0  0  0  0
 29 30  1  0  0  0  0
 30 31  1  0  0  0  0
 31 33  2  0  0  0  0
 31 34  1  0  0  0  0
 33 35  1  0  0  0  0
 34 36  2  0  0  0  0
 34 37  1  0  0  0  0
 35 38  1  0  0  0  0
 36 42  1  0  0  0  0
 37 38  1  0  0  0  0
 37 39  2  0  0  0  0
 39 40  1  0  0  0  0
 39 41  1  0  0  0  0
 41 42  2  0  0  0  0
M  END
$$$$

 OpenBabel10082411353D

 42 48  0  0  0  0  0  0  0  0999 V2000
   11.6836    6.0105   -4.8831 C   0  0  0  0  0  0  0  0  0  0  0  0
   11.1291    7.0732   -5.4395 C   0  0  0  0  0  0  0  0  0  0  0  0
   10.6954    7.0156   -6.8073 C   0  0  0  0  0  0  0  0  0  0  0  0
   10.2502    8.1187   -7.5536 C   0  0  2  0  0  0  0  0  0  0  0  0
   11.1205    8.4712   -4.9629 C   0  0  0  0  0  0  0  0  0  0  0  0
   10.8655    8.3511   -8.7960 C   0  0  0  0  0  0  0  0  0  0  0  0
   10.2922    7.8843   -9.9985 C   0  0  0  0  0  0  0  0  0  0  0  0
   10.4654    9.6993   -5.6120 C   0  0  0  0  0  0  0  0  0  0  0  0
   10.3510    9.5971   -7.0014 C   0  0  0  0  0  0  0  0  0  0  0  0
   12.2462    6.3351   -3.5020 C   0  0  0  0  0  0  0  0  0  0  0  0
   11.0471    7.5309  -11.1063 C   0  0  0  0  0  0  0  0  0  0  0  0
   11.7288    8.6923   -3.6518 C   0  0  0  0  0  0  0  0  0  0  0  0
   12.3991    7.7501  -11.1145 C   0  0  0  0  0  0  0  0  0  0  0  0
   12.3738    7.7580   -2.9599 C   0  0  0  0  0  0  0  0  0  0  0  0
   13.1285    8.5075  -10.1661 O   0  0  0  0  0  0  0  0  0  0  0  0
    9.0407    7.3775  -10.0973 N   0  0  0  0  0  0  0  0  0  0  0  0
    8.9787    6.9473  -11.4664 N   0  0  0  0  0  0  0  0  0  0  0  0
   13.1012    7.4459  -12.3707 C   0  0  0  0  0  0  0  0  0  0  0  0
   12.2395    6.9724  -13.2444 C   0  0  0  0  0  0  0  0  0  0  0  0
   10.2768    7.0170  -11.9799 C   0  0  0  0  0  0  0  0  0  0  0  0
   12.9237    6.5822  -14.5759 O   0  0  0  0  0  0  0  0  0  0  0  0
   10.8906    6.6526  -13.2252 C   0  0  0  0  0  0  0  0  0  0  0  0
   12.2396    6.1290  -15.6916 C   0  0  0  0  0  0  0  0  0  0  0  0
    7.8036    6.1825  -11.9342 C   0  0  0  0  0  0  0  0  0  0  0  0
   12.5015    4.7115  -15.7686 C   0  0  0  0  0  0  0  0  0  0  0  0
    7.1685    6.9992  -12.8245 C   0  0  0  0  0  0  0  0  0  0  0  0
   11.2461    3.8540  -15.4851 C   0  0  0  0  0  0  0  0  0  0  0  0
    7.6237    4.9154  -11.6529 C   0  0  0  0  0  0  0  0  0  0  0  0
    6.6378    4.1960  -12.2267 C   0  0  0  0  0  0  0  0  0  0  0  0
    6.2717    2.7675  -11.9743 C   0  0  0  0  0  0  0  0  0  0  0  0
    6.6569    1.8873  -12.9460 C   0  0  0  0  0  0  0  0  0  0  0  0
    7.3895    8.4597  -13.1785 C   0  0  0  0  0  0  0  0  0  0  0  0
    6.3114    0.5653  -12.7247 C   0  0  0  0  0  0  0  0  0  0  0  0
    7.7684    2.0327  -13.9055 C   0  0  0  0  0  0  0  0  0  0  0  0
    8.3733    3.3319  -14.0408 C   0  0  0  0  0  0  0  0  0  0  0  0
    6.7866   -0.4375  -13.6507 C   0  0  0  0  0  0  0  0  0  0  0  0
    7.8338   -0.2012  -14.4625 C   0  0  0  0  0  0  0  0  0  0  0  0
    8.3543    1.0623  -14.5600 C   0  0  0  0  0  0  0  0  0  0  0  0
   11.2619    2.5645  -15.7759 O   0  0  0  0  0  0  0  0  0  0  0  0
   10.2366    4.4063  -14.8626 N   0  0  0  0  0  0  0  0  0  0  0  0
    9.6968    3.5895  -14.4326 N   0  0  0  0  0  0  0  0  0  0  0  0
    7.4712    4.3629  -13.5915 C   0  0  0  0  0  0  0  0  0  0  0  0
  1  2  1  0  0  0  0
  1 10  2  0  0  0  0
  2  3  1  0  0  0  0
  2  5  2  0  0  0  0
  3  4  1  0  0  0  0
  4  6  1  6  0  0  0
  4  9  1  0  0  0  0
  5  8  1  0  0  0  0
  5 12  1  0  0  0  0
  6  7  1  0  0  0  0
  7 11  1  0  0  0  0
  7 16  2  0  0  0  0
  8  9  1  0  0  0  0
 10 14  1  0  0  0  0
 11 13  2  0  0  0  0
 11 20  1  0  0  0  0
 12 14  2  0  0  0  0
 13 15  1  0  0  0  0
 13 18  1  0  0  0  0
 16 17  1  0  0  0  0
 17 20  1  0  0  0  0
 17 24  1  0  0  0  0
 18 19  2  0  0  0  0
 19 21  1  0  0  0  0
 19 22  1  0  0  0  0
 20 22  2  0  0  0  0
 21 23  1  0  0  0  0
 23 25  1  0  0  0  0
 24 26  2  3  0  0  0
 24 28  1  0  0  0  0
 25 27  1  0  0  0  0
 26 32  1  0  0  0  0
 27 39  2  0  0  0  0
 27 40  1  0  0  0  0
 28 29  2  0  0  0  0
 29 30  1  0  0  0  0
 29 42  1  0  0  0  0
 30 31  1  0  0  0  0
 31 33  2  0  0  0  0
 31 34  1  0  0  0  0
 33 36  1  0  0  0  0
 34 35  1  0  0  0  0
 34 38  2  0  0  0  0
 35 41  1  0  0  0  0
 35 42  2  0  0  0  0
 36 37  2  0  0  0  0
 37 38  1  0  0  0  0
 40 41  1  0  0  0  0
M  END
$$$$

 OpenBabel10082411353D

 42 48  0  0  0  0  0  0  0  0999 V2000
   11.6836    6.0105   -4.8831 C   0  0  0  0  0  0  0  0  0  0  0  0
   11.1291    7.0732   -5.4395 C   0  0  0  0  0  0  0  0  0  0  0  0
   10.6954    7.0156   -6.8073 C   0  0  0  0  0  0  0  0  0  0  0  0
   10.2502    8.1187   -7.5536 C   0  0  2  0  0  0  0  0  0  0  0  0
   11.1205    8.4712   -4.9629 C   0  0  0  0  0  0  0  0  0  0  0  0
   10.8655    8.3511   -8.7960 C   0  0  0  0  0  0  0  0  0  0  0  0
   10.2922    7.8843   -9.9985 C   0  0  0  0  0  0  0  0  0  0  0  0
   10.4654    9.6993   -5.6120 C   0  0  0  0  0  0  0  0  0  0  0  0
   10.3510    9.5971   -7.0014 C   0  0  0  0  0  0  0  0  0  0  0  0
   12.2462    6.3351   -3.5020 C   0  0  0  0  0  0  0  0  0  0  0  0
   11.0471    7.5309  -11.1063 C   0  0  0  0  0  0  0  0  0  0  0  0
   11.7288    8.6923   -3.6518 C   0  0  0  0  0  0  0  0  0  0  0  0
   12.3991    7.7501  -11.1145 C   0  0  0  0  0  0  0  0  0  0  0  0
   12.3738    7.7580   -2.9599 C   0  0  0  0  0  0  0  0  0  0  0  0
   13.1285    8.5075  -10.1661 O   0  0  0  0  0  0  0  0  0  0  0  0
    9.0407    7.3775  -10.0973 N   0  0  0  0  0  0  0  0  0  0  0  0
    8.9787    6.9473  -11.4664 N   0  0  0  0  0  0  0  0  0  0  0  0
   13.1012    7.4459  -12.3707 C   0  0  0  0  0  0  0  0  0  0  0  0
   12.2395    6.9724  -13.2444 C   0  0  0  0  0  0  0  0  0  0  0  0
   10.2768    7.0170  -11.9799 C   0  0  0  0  0  0  0  0  0  0  0  0
   12.9237    6.5822  -14.5759 O   0  0  0  0  0  0  0  0  0  0  0  0
   10.8906    6.6526  -13.2252 C   0  0  0  0  0  0  0  0  0  0  0  0
   12.2396    6.1290  -15.6916 C   0  0  0  0  0  0  0  0  0  0  0  0
    7.8036    6.1825  -11.9342 C   0  0  0  0  0  0  0  0  0  0  0  0
   12.5015    4.7115  -15.7686 C   0  0  0  0  0  0  0  0  0  0  0  0
    7.1685    6.9992  -12.8245 C   0  0  0  0  0  0  0  0  0  0  0  0
   11.2461    3.8540  -15.4851 C   0  0  0  0  0  0  0  0  0  0  0  0
    7.6237    4.9154  -11.6529 C   0  0  0  0  0  0  0  0  0  0  0  0
    6.6378    4.1960  -12.2267 C   0  0  0  0  0  0  0  0  0  0  0  0
    6.2717    2.7675  -11.9743 C   0  0  0  0  0  0  0  0  0  0  0  0
    6.6569    1.8873  -12.9460 C   0  0  0  0  0  0  0  0  0  0  0  0
    7.3895    8.4597  -13.1785 C   0  0  0  0  0  0  0  0  0  0  0  0
    6.3114    0.5653  -12.7247 C   0  0  0  0  0  0  0  0  0  0  0  0
    7.7684    2.0327  -13.9055 C   0  0  0  0  0  0  0  0  0  0  0  0
    8.3733    3.3319  -14.0408 C   0  0  1  0  0  0  0  0  0  0  0  0
    6.7866   -0.4375  -13.6507 C   0  0  0  0  0  0  0  0  0  0  0  0
   11.3491    2.6020  -15.5284 O   0  0  0  0  0  0  0  0  0  0  0  0
   10.0815    4.4913  -15.3913 N   0  0  0  0  0  0  0  0  0  0  0  0
    8.2781    1.1143  -14.4231 C   0  0  0  0  0  0  0  0  0  0  0  0
    8.9752    3.9158  -14.7584 C   0  0  0  0  0  0  0  0  0  0  0  0
    7.7892   -0.1640  -14.4698 C   0  0  0  0  0  0  0  0  0  0  0  0
    7.2199    4.1302  -13.4561 O   0  0  0  0  0  0  0  0  0  0  0  0
  1  2  1  0  0  0  0
  1 10  2  0  0  0  0
  2  3  1  0  0  0  0
  2  5  2  0  0  0  0
  3  4  1  0  0  0  0
  4  6  1  6  0  0  0
  4  9  1  0  0  0  0
  5  8  1  0  0  0  0
  5 12  1  0  0  0  0
  6  7  1  0  0  0  0
  7 11  1  0  0  0  0
  7 16  2  0  0  0  0
  8  9  1  0  0  0  0
 10 14  1  0  0  0  0
 11 13  2  0  0  0  0
 11 20  1  0  0  0  0
 12 14  2  0  0  0  0
 13 15  1  0  0  0  0
 13 18  1  0  0  0  0
 16 17  1  0  0  0  0
 17 20  1  0  0  0  0
 17 24  1  0  0  0  0
 18 19  2  0  0  0  0
 19 21  1  0  0  0  0
 19 22  1  0  0  0  0
 20 22  2  0  0  0  0
 21 23  1  0  0  0  0
 23 25  1  0  0  0  0
 24 26  2  3  0  0  0
 24 28  1  0  0  0  0
 25 27  1  0  0  0  0
 26 32  1  0  0  0  0
 27 37  2  0  0  0  0
 27 38  1  0  0  0  0
 28 29  2  0  0  0  0
 29 30  1  0  0  0  0
 29 42  1  0  0  0  0
 30 31  1  0  0  0  0
 31 33  2  0  0  0  0
 31 34  1  0  0  0  0
 33 36  1  0  0  0  0
 34 35  1  0  0  0  0
 34 39  2  0  0  0  0
 35 40  1  6  0  0  0
 35 42  1  0  0  0  0
 36 41  2  0  0  0  0
 38 40  1  0  0  0  0
 39 41  1  0  0  0  0
M  END
$$$$

 OpenBabel10082411353D

 42 51  0  0  0  0  0  0  0  0999 V2000
    8.0806    9.0240  -12.7589 C   0  0  0  0  0  0  0  0  0  0  0  0
    8.6514    7.8645  -12.2948 C   0  0  0  0  0  0  0  0  0  0  0  0
    9.9575    7.9974  -11.8426 C   0  0  0  0  0  0  0  0  0  0  0  0
   10.7657    6.8667  -11.6050 C   0  0  1  0  0  0  0  0  0  0  0  0
   10.7682    5.9590  -12.8271 C   0  0  0  0  0  0  0  0  0  0  0  0
   12.1553    7.3846  -11.2315 C   0  0  0  0  0  0  0  0  0  0  0  0
    8.0676    6.6451  -12.2974 C   0  0  0  0  0  0  0  0  0  0  0  0
   10.1892    6.1240  -10.3860 C   0  0  0  0  0  0  0  0  0  0  0  0
   11.8375    5.4373  -13.3240 O   0  0  0  0  0  0  0  0  0  0  0  0
    8.6785    5.4761  -13.0273 C   0  0  1  0  0  0  0  0  0  0  0  0
    9.1969    5.2405  -10.4969 C   0  0  2  0  0  0  0  0  0  0  0  0
    7.2213    6.2210  -11.3074 C   0  0  2  0  0  0  0  0  0  0  0  0
   12.5590    7.6872   -9.9896 C   0  0  0  0  0  0  0  0  0  0  0  0
    9.7633    5.0333  -12.9720 C   0  0  1  0  0  0  0  0  0  0  0  0
   10.0661    4.0167  -14.0373 N   0  0  0  0  0  0  0  0  0  0  0  0
   13.6906    8.3004   -9.6233 O   0  0  0  0  0  0  0  0  0  0  0  0
    7.6357    4.5123  -12.6317 C   0  0  2  0  0  0  0  0  0  0  0  0
    6.8831    4.9171  -11.7031 C   0  0  2  0  0  0  0  0  0  0  0  0
   10.5937    6.6967   -9.1779 C   0  0  0  0  0  0  0  0  0  0  0  0
    9.5087    4.3263  -11.6925 C   0  0  2  0  0  0  0  0  0  0  0  0
   11.6359    7.4449   -8.9125 C   0  0  0  0  0  0  0  0  0  0  0  0
   11.9716    7.9159   -7.6200 C   0  0  0  0  0  0  0  0  0  0  0  0
    8.4648    3.6122  -12.2840 C   0  0  1  0  0  0  0  0  0  0  0  0
    7.9253    2.8004  -11.3926 C   0  0  0  0  0  0  0  0  0  0  0  0
    5.6047    4.5059  -11.7589 C   0  0  0  0  0  0  0  0  0  0  0  0
    7.6606    4.1297  -10.5699 C   0  0  0  0  0  0  0  0  0  0  0  0
   10.9559    7.6849   -6.6057 C   0  0  0  0  0  0  0  0  0  0  0  0
    8.0094    4.5092   -9.5664 C   0  0  0  0  0  0  0  0  0  0  0  0
    8.3033    4.0627   -8.4980 C   0  0  0  0  0  0  0  0  0  0  0  0
    6.3587    7.1012  -11.0392 O   0  0  0  0  0  0  0  0  0  0  0  0
   11.1885    8.2709   -5.2029 C   0  0  0  0  0  0  0  0  0  0  0  0
    8.1551    5.8688  -10.2415 C   0  0  0  0  0  0  0  0  0  0  0  0
    9.3562    2.8931  -13.4173 C   0  0  0  0  0  0  0  0  0  0  0  0
    9.4006    1.8057  -13.6789 O   0  0  0  0  0  0  0  0  0  0  0  0
   10.6448    3.9324  -15.2556 C   0  0  0  0  0  0  0  0  0  0  0  0
    9.9004    6.8953   -6.7235 C   0  0  0  0  0  0  0  0  0  0  0  0
    8.1584    4.7418   -7.5351 O   0  0  0  0  0  0  0  0  0  0  0  0
    8.5999    2.9050   -8.2804 O   0  0  0  0  0  0  0  0  0  0  0  0
    9.6754    6.3854   -8.0858 C   0  0  1  0  0  0  0  0  0  0  0  0
   11.6213    9.7477   -5.1821 C   0  0  0  0  0  0  0  0  0  0  0  0
    8.3277    6.0766   -8.1341 C   0  0  0  0  0  0  0  0  0  0  0  0
   12.2497    7.6659   -4.4503 C   0  0  0  0  0  0  0  0  0  0  0  0
  1  2  1  0  0  0  0
  2  3  1  0  0  0  0
  2  7  2  0  0  0  0
  4  3  1  6  0  0  0
  4  5  1  0  0  0  0
  4  6  1  0  0  0  0
  4  8  1  0  0  0  0
  5  9  2  0  0  0  0
  6 13  1  0  0  0  0
  7 12  1  0  0  0  0
  8 11  1  0  0  0  0
  8 19  2  0  0  0  0
 10  7  1  1  0  0  0
 10 14  1  0  0  0  0
 10 17  1  0  0  0  0
 11 20  1  0  0  0  0
 11 32  1  6  0  0  0
 12 18  1  0  0  0  0
 12 30  1  6  0  0  0
 13 16  2  0  0  0  0
 13 21  1  0  0  0  0
 14  5  1  1  0  0  0
 14 15  1  0  0  0  0
 14 20  1  0  0  0  0
 15 33  1  0  0  0  0
 15 35  1  0  0  0  0
 17 18  1  0  0  0  0
 17 23  1  0  0  0  0
 18 25  1  0  0  0  0
 18 26  1  0  0  0  0
 19 21  1  0  0  0  0
 19 39  1  0  0  0  0
 20 23  1  0  0  0  0
 21 22  2  0  0  0  0
 22 27  1  0  0  0  0
 23 24  1  0  0  0  0
 23 33  1  0  0  0  0
 24 26  1  0  0  0  0
 26 28  2  0  0  0  0
 27 31  1  0  0  0  0
 27 36  2  0  0  0  0
 28 29  1  0  0  0  0
 28 32  1  0  0  0  0
 29 37  1  0  0  0  0
 29 38  2  0  0  0  0
 31 40  1  0  0  0  0
 31 42  1  0  0  0  0
 33 34  2  0  0  0  0
 36 39  1  0  0  0  0
 37 41  1  0  0  0  0
 39 41  1  0  0  0  0
M  END
$$$$

 OpenBabel10082411353D

 42 47  0  0  0  0  0  0  0  0999 V2000
   11.6836    6.0105   -4.8831 F   0  0  0  0  0  0  0  0  0  0  0  0
   11.2562    7.2206   -5.0294 C   0  0  0  0  0  0  0  0  0  0  0  0
   12.0125    8.2418   -4.4408 C   0  0  0  0  0  0  0  0  0  0  0  0
   11.1918    7.2706   -6.5237 C   0  0  0  0  0  0  0  0  0  0  0  0
   11.6999    8.4488   -3.1704 F   0  0  0  0  0  0  0  0  0  0  0  0
    9.8648    7.0908   -4.5314 F   0  0  0  0  0  0  0  0  0  0  0  0
   11.6831    8.5291   -6.9682 C   0  0  0  0  0  0  0  0  0  0  0  0
   10.4785    6.5189   -7.4033 C   0  0  0  0  0  0  0  0  0  0  0  0
   11.6979    8.6661   -8.4760 C   0  0  0  0  0  0  0  0  0  0  0  0
   11.6248    9.5853   -5.0030 C   0  0  0  0  0  0  0  0  0  0  0  0
   11.8604    9.7907   -6.2903 O   0  0  0  0  0  0  0  0  0  0  0  0
   13.3557    8.1748   -4.5947 F   0  0  0  0  0  0  0  0  0  0  0  0
   10.5427    6.6061   -8.7190 C   0  0  0  0  0  0  0  0  0  0  0  0
   11.1158    7.7103   -9.2540 C   0  0  0  0  0  0  0  0  0  0  0  0
   11.3757    7.6656  -10.5293 N   0  0  0  0  0  0  0  0  0  0  0  0
   10.7153    7.7096  -11.5405 C   0  0  0  0  0  0  0  0  0  0  0  0
   11.2483    7.4711  -12.8542 C   0  0  0  0  0  0  0  0  0  0  0  0
    9.3980    7.7820  -11.5398 C   0  0  0  0  0  0  0  0  0  0  0  0
    8.6055    7.5889  -12.6525 C   0  0  0  0  0  0  0  0  0  0  0  0
   12.7508    7.3705  -13.0162 O   0  0  0  0  0  0  0  0  0  0  0  0
   10.5299    7.1831  -13.9856 C   0  0  0  0  0  0  0  0  0  0  0  0
    7.0533    7.7371  -12.5396 C   0  0  0  0  0  0  0  0  0  0  0  0
   11.2041    6.8490  -15.2304 C   0  0  0  0  0  0  0  0  0  0  0  0
   11.6393    5.5333  -15.3864 C   0  0  0  0  0  0  0  0  0  0  0  0
    9.1955    7.2935  -13.8301 C   0  0  0  0  0  0  0  0  0  0  0  0
   12.5294    5.1116  -16.1609 C   0  0  0  0  0  0  0  0  0  0  0  0
   11.2315    4.4703  -14.3200 C   0  0  0  0  0  0  0  0  0  0  0  0
   10.2844    4.5821  -13.3000 C   0  0  0  0  0  0  0  0  0  0  0  0
   11.6270    3.1866  -14.6052 C   0  0  0  0  0  0  0  0  0  0  0  0
    9.0868    3.8289  -13.3080 C   0  0  0  0  0  0  0  0  0  0  0  0
   11.3420    2.7039  -15.8535 C   0  0  0  0  0  0  0  0  0  0  0  0
    8.3582    4.0400  -12.0395 C   0  0  0  0  0  0  0  0  0  0  0  0
   13.0053    6.2224  -17.1322 C   0  0  0  0  0  0  0  0  0  0  0  0
   12.3338    3.1792  -16.8738 C   0  0  0  0  0  0  0  0  0  0  0  0
   12.9709    3.9849  -16.5221 O   0  0  0  0  0  0  0  0  0  0  0  0
    6.9893    3.6862  -12.1936 C   0  0  0  0  0  0  0  0  0  0  0  0
    6.0529    4.0659  -11.1662 F   0  0  0  0  0  0  0  0  0  0  0  0
   12.3817    7.3820  -16.9825 C   0  0  0  0  0  0  0  0  0  0  0  0
    8.7716    2.9048  -14.2648 C   0  0  0  0  0  0  0  0  0  0  0  0
   11.5872    7.7310  -15.9717 C   0  0  0  0  0  0  0  0  0  0  0  0
    7.4377    2.4111  -14.2123 C   0  0  0  0  0  0  0  0  0  0  0  0
    6.6159    2.8778  -13.0311 C   0  0  0  0  0  0  0  0  0  0  0  0
  1  2  1  0  0  0  0
  2  3  1  0  0  0  0
  2  4  1  0  0  0  0
  2  6  1  0  0  0  0
  3  5  1  0  0  0  0
  3 10  1  0  0  0  0
  3 12  1  0  0  0  0
  4  7  1  0  0  0  0
  4  8  2  0  0  0  0
  7  9  2  0  0  0  0
  7 11  1  0  0  0  0
  8 13  1  0  0  0  0
  9 14  1  0  0  0  0
 10 11  1  0  0  0  0
 13 14  2  0  0  0  0
 14 15  1  0  0  0  0
 15 16  1  0  0  0  0
 16 17  1  0  0  0  0
 16 18  2  0  0  0  0
 17 20  1  0  0  0  0
 17 21  2  0  0  0  0
 18 19  1  0  0  0  0
 19 22  1  0  0  0  0
 19 25  2  0  0  0  0
 21 23  1  0  0  0  0
 21 25  1  0  0  0  0
 23 24  1  0  0  0  0
 23 40  2  0  0  0  0
 24 26  2  0  0  0  0
 24 27  1  0  0  0  0
 26 33  1  0  0  0  0
 26 35  1  0  0  0  0
 27 28  1  0  0  0  0
 27 29  2  0  0  0  0
 28 30  2  3  0  0  0
 29 31  1  0  0  0  0
 30 32  1  0  0  0  0
 30 39  1  0  0  0  0
 31 34  1  0  0  0  0
 32 36  2  0  0  0  0
 33 38  2  0  0  0  0
 34 35  1  0  0  0  0
 36 37  1  0  0  0  0
 36 42  1  0  0  0  0
 38 40  1  0  0  0  0
 39 41  2  0  0  0  0
 41 42  1  0  0  0  0
M  END
$$$$

 OpenBabel10082411353D

 42 52  0  0  0  0  0  0  0  0999 V2000
    8.0806    9.0240  -12.7589 C   0  0  0  0  0  0  0  0  0  0  0  0
    8.6514    7.8645  -12.2948 C   0  0  0  0  0  0  0  0  0  0  0  0
    9.9575    7.9974  -11.8426 C   0  0  0  0  0  0  0  0  0  0  0  0
   10.7657    6.8667  -11.6050 C   0  0  1  0  0  0  0  0  0  0  0  0
   10.7682    5.9590  -12.8271 C   0  0  0  0  0  0  0  0  0  0  0  0
   12.1553    7.3846  -11.2315 C   0  0  0  0  0  0  0  0  0  0  0  0
    8.0676    6.6451  -12.2974 C   0  0  0  0  0  0  0  0  0  0  0  0
   10.1892    6.1240  -10.3860 C   0  0  0  0  0  0  0  0  0  0  0  0
   11.8375    5.4373  -13.3240 O   0  0  0  0  0  0  0  0  0  0  0  0
    8.6785    5.4761  -13.0273 C   0  0  1  0  0  0  0  0  0  0  0  0
    9.1969    5.2405  -10.4969 C   0  0  2  0  0  0  0  0  0  0  0  0
    7.2213    6.2210  -11.3074 C   0  0  2  0  0  0  0  0  0  0  0  0
   12.5590    7.6872   -9.9896 C   0  0  0  0  0  0  0  0  0  0  0  0
    9.7633    5.0333  -12.9720 C   0  0  1  0  0  0  0  0  0  0  0  0
   10.0661    4.0167  -14.0373 N   0  0  0  0  0  0  0  0  0  0  0  0
   13.6906    8.3004   -9.6233 O   0  0  0  0  0  0  0  0  0  0  0  0
    7.6357    4.5123  -12.6317 C   0  0  2  0  0  0  0  0  0  0  0  0
    6.8831    4.9171  -11.7031 C   0  0  2  0  0  0  0  0  0  0  0  0
   10.5937    6.6967   -9.1779 C   0  0  0  0  0  0  0  0  0  0  0  0
    9.5087    4.3263  -11.6925 C   0  0  2  0  0  0  0  0  0  0  0  0
   11.6359    7.4449   -8.9125 C   0  0  0  0  0  0  0  0  0  0  0  0
   11.9716    7.9159   -7.6200 C   0  0  0  0  0  0  0  0  0  0  0  0
    8.4648    3.6122  -12.2840 C   0  0  1  0  0  0  0  0  0  0  0  0
    7.9253    2.8004  -11.3926 C   0  0  0  0  0  0  0  0  0  0  0  0
    5.6047    4.5059  -11.7589 C   0  0  0  0  0  0  0  0  0  0  0  0
    7.6606    4.1297  -10.5699 C   0  0  0  0  0  0  0  0  0  0  0  0
   10.9559    7.6849   -6.6057 C   0  0  0  0  0  0  0  0  0  0  0  0
    8.0094    4.5092   -9.5664 C   0  0  0  0  0  0  0  0  0  0  0  0
    8.3033    4.0627   -8.4980 C   0  0  0  0  0  0  0  0  0  0  0  0
    6.3587    7.1012  -11.0392 O   0  0  0  0  0  0  0  0  0  0  0  0
   11.0186    3.9598  -14.9226 C   0  0  0  0  0  0  0  0  0  0  0  0
    8.1758    5.8633  -10.2511 C   0  0  1  0  0  0  0  0  0  0  0  0
   11.4648    2.7104  -15.2650 O   0  0  0  0  0  0  0  0  0  0  0  0
    9.9512    6.8220   -6.8436 C   0  0  0  0  0  0  0  0  0  0  0  0
    9.6899    6.3705   -8.1082 C   0  0  2  0  0  0  0  0  0  0  0  0
   11.2597    8.2901   -5.2396 C   0  0  0  0  0  0  0  0  0  0  0  0
   11.7295    4.9426  -15.4284 O   0  0  0  0  0  0  0  0  0  0  0  0
    9.0704    4.8312   -7.8318 C   0  0  0  0  0  0  0  0  0  0  0  0
    9.2457    2.8662  -13.7297 C   0  0  0  0  0  0  0  0  0  0  0  0
   11.6809    9.7568   -5.2561 C   0  0  0  0  0  0  0  0  0  0  0  0
   12.3026    7.6360   -4.4884 C   0  0  0  0  0  0  0  0  0  0  0  0
   10.1528    8.4028   -4.4434 O   0  0  0  0  0  0  0  0  0  0  0  0
  1  2  1  0  0  0  0
  2  3  1  0  0  0  0
  2  7  2  0  0  0  0
  4  3  1  6  0  0  0
  4  5  1  0  0  0  0
  4  6  1  0  0  0  0
  4  8  1  0  0  0  0
  5  9  2  0  0  0  0
  6 13  1  0  0  0  0
  7 12  1  0  0  0  0
  8 19  2  0  0  0  0
 10  7  1  1  0  0  0
 10 14  1  0  0  0  0
 10 17  1  0  0  0  0
 11  8  1  6  0  0  0
 11 20  1  0  0  0  0
 11 32  1  0  0  0  0
 12 18  1  0  0  0  0
 12 30  1  1  0  0  0
 12 32  1  0  0  0  0
 13 16  2  0  0  0  0
 13 21  1  0  0  0  0
 14  5  1  1  0  0  0
 14 15  1  0  0  0  0
 14 20  1  0  0  0  0
 15 31  1  0  0  0  0
 15 39  1  0  0  0  0
 17 18  1  0  0  0  0
 17 23  1  0  0  0  0
 18 25  1  0  0  0  0
 18 26  1  0  0  0  0
 19 21  1  0  0  0  0
 19 35  1  0  0  0  0
 20 23  1  0  0  0  0
 21 22  2  0  0  0  0
 22 27  1  0  0  0  0
 23 24  1  0  0  0  0
 23 39  1  0  0  0  0
 24 26  1  0  0  0  0
 26 28  2  0  0  0  0
 27 34  2  0  0  0  0
 27 36  1  0  0  0  0
 28 29  1  0  0  0  0
 28 32  1  0  0  0  0
 29 38  2  0  0  0  0
 31 33  2  0  0  0  0
 31 37  1  0  0  0  0
 34 35  1  0  0  0  0
 35 38  1  0  0  0  0
 36 40  1  0  0  0  0
 36 41  1  0  0  0  0
 36 42  1  0  0  0  0
M  END
$$$$

 OpenBabel10082411353D

 26 27  0  0  0  0  0  0  0  0999 V2000
   10.9951    9.9694   -4.9946 C   0  0  0  0  0  0  0  0  0  0  0  0
   11.7938    9.3762   -4.2463 C   0  0  0  0  0  0  0  0  0  0  0  0
   10.8673    9.4548   -6.4276 C   0  0  0  0  0  0  0  0  0  0  0  0
   11.6576    7.9117   -4.2944 C   0  0  0  0  0  0  0  0  0  0  0  0
   10.5498    8.0257   -6.4521 C   0  0  0  0  0  0  0  0  0  0  0  0
   11.4715    7.2752   -5.6166 C   0  0  0  0  0  0  0  0  0  0  0  0
   10.5840    7.5390   -7.9254 C   0  0  0  0  0  0  0  0  0  0  0  0
   11.4612    8.1494   -8.8322 C   0  0  0  0  0  0  0  0  0  0  0  0
   12.6250    8.6294   -8.4338 O   0  0  0  0  0  0  0  0  0  0  0  0
   11.0835    8.4395  -10.0740 O   0  0  0  0  0  0  0  0  0  0  0  0
   11.2938    7.5612  -11.0769 C   0  0  0  0  0  0  0  0  0  0  0  0
   10.1547    7.2525  -11.9492 C   0  0  0  0  0  0  0  0  0  0  0  0
   10.4293    6.5622  -13.1348 C   0  0  0  0  0  0  0  0  0  0  0  0
   11.7295    6.4217  -13.6243 C   0  0  0  0  0  0  0  0  0  0  0  0
    8.8120    7.3918  -11.4649 C   0  0  0  0  0  0  0  0  0  0  0  0
   12.5351    7.8894  -11.6869 C   0  0  0  0  0  0  0  0  0  0  0  0
   13.5778    8.4243  -10.9673 O   0  0  0  0  0  0  0  0  0  0  0  0
    7.7211    7.1761  -12.4323 C   0  0  0  0  0  0  0  0  0  0  0  0
   12.8103    7.0723  -12.8897 C   0  0  0  0  0  0  0  0  0  0  0  0
   12.0436    5.6071  -14.9340 C   0  0  0  0  0  0  0  0  0  0  0  0
    7.0836    5.9395  -12.4265 C   0  0  0  0  0  0  0  0  0  0  0  0
    7.6394    4.9077  -13.1036 C   0  0  0  0  0  0  0  0  0  0  0  0
    8.5758    4.8018  -13.8326 O   0  0  0  0  0  0  0  0  0  0  0  0
    7.2208    3.6431  -12.6027 O   0  0  0  0  0  0  0  0  0  0  0  0
    7.0433    2.5795  -13.5835 C   0  0  0  0  0  0  0  0  0  0  0  0
   12.0823    4.3124  -14.8511 C   0  0  0  0  0  0  0  0  0  0  0  0
  1  2  1  0  0  0  0
  1  3  1  0  0  0  0
  2  4  1  0  0  0  0
  3  5  1  0  0  0  0
  4  6  1  0  0  0  0
  5  6  1  0  0  0  0
  5  7  1  0  0  0  0
  7  8  1  0  0  0  0
  8  9  2  0  0  0  0
  8 10  1  0  0  0  0
 10 11  1  0  0  0  0
 11 12  1  0  0  0  0
 11 16  2  0  0  0  0
 12 13  2  0  0  0  0
 12 15  1  0  0  0  0
 13 14  1  0  0  0  0
 14 19  2  0  0  0  0
 14 20  1  0  0  0  0
 15 18  1  0  0  0  0
 16 17  1  0  0  0  0
 16 19  1  0  0  0  0
 18 21  1  0  0  0  0
 20 26  1  0  0  0  0
 21 22  1  0  0  0  0
 22 23  2  0  0  0  0
 22 24  1  0  0  0  0
 24 25  1  0  0  0  0
M  END
$$$$

 OpenBabel10082411353D

 42 52  0  0  0  0  0  0  0  0999 V2000
    8.0806    9.0240  -12.7589 C   0  0  0  0  0  0  0  0  0  0  0  0
    8.6514    7.8645  -12.2948 C   0  0  0  0  0  0  0  0  0  0  0  0
    9.9575    7.9974  -11.8426 C   0  0  0  0  0  0  0  0  0  0  0  0
   10.7657    6.8667  -11.6050 C   0  0  1  0  0  0  0  0  0  0  0  0
   10.7682    5.9590  -12.8271 C   0  0  0  0  0  0  0  0  0  0  0  0
   12.1553    7.3846  -11.2315 C   0  0  0  0  0  0  0  0  0  0  0  0
    8.0676    6.6451  -12.2974 C   0  0  0  0  0  0  0  0  0  0  0  0
   10.1892    6.1240  -10.3860 C   0  0  0  0  0  0  0  0  0  0  0  0
   11.8375    5.4373  -13.3240 O   0  0  0  0  0  0  0  0  0  0  0  0
    8.6785    5.4761  -13.0273 C   0  0  1  0  0  0  0  0  0  0  0  0
    9.1969    5.2405  -10.4969 C   0  0  2  0  0  0  0  0  0  0  0  0
    7.2213    6.2210  -11.3074 C   0  0  2  0  0  0  0  0  0  0  0  0
   12.5590    7.6872   -9.9896 C   0  0  0  0  0  0  0  0  0  0  0  0
    9.7633    5.0333  -12.9720 C   0  0  1  0  0  0  0  0  0  0  0  0
   10.0661    4.0167  -14.0373 N   0  0  0  0  0  0  0  0  0  0  0  0
   13.6906    8.3004   -9.6233 O   0  0  0  0  0  0  0  0  0  0  0  0
    7.6357    4.5123  -12.6317 C   0  0  2  0  0  0  0  0  0  0  0  0
    6.8831    4.9171  -11.7031 C   0  0  2  0  0  0  0  0  0  0  0  0
   10.5937    6.6967   -9.1779 C   0  0  0  0  0  0  0  0  0  0  0  0
    9.5087    4.3263  -11.6925 C   0  0  2  0  0  0  0  0  0  0  0  0
   11.6359    7.4449   -8.9125 C   0  0  0  0  0  0  0  0  0  0  0  0
   11.9716    7.9159   -7.6200 C   0  0  0  0  0  0  0  0  0  0  0  0
    8.4648    3.6122  -12.2840 C   0  0  1  0  0  0  0  0  0  0  0  0
    7.9253    2.8004  -11.3926 C   0  0  0  0  0  0  0  0  0  0  0  0
    5.6047    4.5059  -11.7589 C   0  0  0  0  0  0  0  0  0  0  0  0
    7.6606    4.1297  -10.5699 C   0  0  0  0  0  0  0  0  0  0  0  0
   10.9559    7.6849   -6.6057 C   0  0  0  0  0  0  0  0  0  0  0  0
    8.0094    4.5092   -9.5664 C   0  0  0  0  0  0  0  0  0  0  0  0
    8.3033    4.0627   -8.4980 C   0  0  0  0  0  0  0  0  0  0  0  0
    6.3587    7.1012  -11.0392 O   0  0  0  0  0  0  0  0  0  0  0  0
   11.0186    3.9598  -14.9226 C   0  0  1  0  0  0  0  0  0  0  0  0
    8.1758    5.8633  -10.2511 C   0  0  1  0  0  0  0  0  0  0  0  0
    9.4315    2.8557  -13.5931 C   0  0  0  0  0  0  0  0  0  0  0  0
   11.5906    2.6986  -15.1672 C   0  0  0  0  0  0  0  0  0  0  0  0
    9.9783    6.7760   -6.8364 C   0  0  0  0  0  0  0  0  0  0  0  0
    9.7446    6.4267   -8.0721 C   0  0  2  0  0  0  0  0  0  0  0  0
   10.2617    4.4120  -16.0135 O   0  0  0  0  0  0  0  0  0  0  0  0
    9.0735    5.1195   -7.7383 C   0  0  0  0  0  0  0  0  0  0  0  0
   11.3061    8.4855   -5.0856 C   0  0  0  0  0  0  0  0  0  0  0  0
   12.1778    7.7657   -4.3416 C   0  0  0  0  0  0  0  0  0  0  0  0
   11.8968    9.8340   -5.4375 C   0  0  0  0  0  0  0  0  0  0  0  0
    9.8917    8.7256   -4.5135 C   0  0  0  0  0  0  0  0  0  0  0  0
  1  2  1  0  0  0  0
  2  3  1  0  0  0  0
  2  7  2  0  0  0  0
  4  3  1  6  0  0  0
  4  5  1  0  0  0  0
  4  6  1  0  0  0  0
  4  8  1  0  0  0  0
  5  9  2  0  0  0  0
  6 13  1  0  0  0  0
  7 12  1  0  0  0  0
  8 19  2  0  0  0  0
 10  7  1  1  0  0  0
 10 14  1  0  0  0  0
 10 17  1  0  0  0  0
 11  8  1  6  0  0  0
 11 20  1  0  0  0  0
 11 32  1  0  0  0  0
 12 18  1  0  0  0  0
 12 30  1  1  0  0  0
 12 32  1  0  0  0  0
 13 16  2  0  0  0  0
 13 21  1  0  0  0  0
 14  5  1  1  0  0  0
 14 15  1  0  0  0  0
 14 20  1  0  0  0  0
 15 31  1  0  0  0  0
 15 33  1  0  0  0  0
 17 18  1  0  0  0  0
 17 23  1  0  0  0  0
 18 25  1  0  0  0  0
 18 26  1  0  0  0  0
 19 21  1  0  0  0  0
 19 36  1  0  0  0  0
 20 23  1  0  0  0  0
 21 22  2  0  0  0  0
 22 27  1  0  0  0  0
 23 24  1  0  0  0  0
 23 33  1  0  0  0  0
 24 26  1  0  0  0  0
 26 28  2  0  0  0  0
 27 35  2  0  0  0  0
 27 39  1  0  0  0  0
 28 29  1  0  0  0  0
 28 32  1  0  0  0  0
 29 38  2  0  0  0  0
 31 34  1  0  0  0  0
 31 37  1  0  0  0  0
 35 36  1  0  0  0  0
 36 38  1  0  0  0  0
 39 40  1  0  0  0  0
 39 41  1  0  0  0  0
 39 42  1  0  0  0  0
M  END
$$$$

 OpenBabel10082411353D

 42 52  0  0  0  0  0  0  0  0999 V2000
    8.0806    9.0240  -12.7589 C   0  0  0  0  0  0  0  0  0  0  0  0
    8.6514    7.8645  -12.2948 C   0  0  0  0  0  0  0  0  0  0  0  0
    9.9575    7.9974  -11.8426 C   0  0  0  0  0  0  0  0  0  0  0  0
   10.7657    6.8667  -11.6050 C   0  0  1  0  0  0  0  0  0  0  0  0
   10.7682    5.9590  -12.8271 C   0  0  0  0  0  0  0  0  0  0  0  0
   12.1553    7.3846  -11.2315 C   0  0  0  0  0  0  0  0  0  0  0  0
    8.0676    6.6451  -12.2974 C   0  0  0  0  0  0  0  0  0  0  0  0
   10.1892    6.1240  -10.3860 C   0  0  0  0  0  0  0  0  0  0  0  0
   11.8375    5.4373  -13.3240 O   0  0  0  0  0  0  0  0  0  0  0  0
    8.6785    5.4761  -13.0273 C   0  0  1  0  0  0  0  0  0  0  0  0
    9.1969    5.2405  -10.4969 C   0  0  2  0  0  0  0  0  0  0  0  0
    7.2213    6.2210  -11.3074 C   0  0  2  0  0  0  0  0  0  0  0  0
   12.5590    7.6872   -9.9896 C   0  0  0  0  0  0  0  0  0  0  0  0
    9.7633    5.0333  -12.9720 C   0  0  1  0  0  0  0  0  0  0  0  0
   10.0661    4.0167  -14.0373 N   0  0  0  0  0  0  0  0  0  0  0  0
   13.6906    8.3004   -9.6233 O   0  0  0  0  0  0  0  0  0  0  0  0
    7.6357    4.5123  -12.6317 C   0  0  2  0  0  0  0  0  0  0  0  0
    6.8831    4.9171  -11.7031 C   0  0  2  0  0  0  0  0  0  0  0  0
   10.5937    6.6967   -9.1779 C   0  0  0  0  0  0  0  0  0  0  0  0
    9.5087    4.3263  -11.6925 C   0  0  2  0  0  0  0  0  0  0  0  0
   11.6359    7.4449   -8.9125 C   0  0  0  0  0  0  0  0  0  0  0  0
   11.9716    7.9159   -7.6200 C   0  0  0  0  0  0  0  0  0  0  0  0
    8.4648    3.6122  -12.2840 C   0  0  1  0  0  0  0  0  0  0  0  0
    7.9253    2.8004  -11.3926 C   0  0  0  0  0  0  0  0  0  0  0  0
    5.6047    4.5059  -11.7589 C   0  0  0  0  0  0  0  0  0  0  0  0
    7.6606    4.1297  -10.5699 C   0  0  0  0  0  0  0  0  0  0  0  0
   10.9559    7.6849   -6.6057 C   0  0  0  0  0  0  0  0  0  0  0  0
    8.0094    4.5092   -9.5664 C   0  0  0  0  0  0  0  0  0  0  0  0
    8.3033    4.0627   -8.4980 C   0  0  0  0  0  0  0  0  0  0  0  0
    6.3587    7.1012  -11.0392 O   0  0  0  0  0  0  0  0  0  0  0  0
   11.0186    3.9598  -14.9226 C   0  0  0  0  0  0  0  0  0  0  0  0
    8.1758    5.8633  -10.2511 C   0  0  1  0  0  0  0  0  0  0  0  0
   11.4648    2.7104  -15.2650 O   0  0  0  0  0  0  0  0  0  0  0  0
    9.9512    6.8220   -6.8436 C   0  0  0  0  0  0  0  0  0  0  0  0
    9.6899    6.3705   -8.1082 C   0  0  2  0  0  0  0  0  0  0  0  0
   11.2597    8.2901   -5.2396 C   0  0  0  0  0  0  0  0  0  0  0  0
   10.9483    4.9354  -15.8312 C   0  0  0  0  0  0  0  0  0  0  0  0
    9.2428    4.9682   -7.8294 C   0  0  0  0  0  0  0  0  0  0  0  0
   11.9211    7.5870   -4.3303 C   0  0  0  0  0  0  0  0  0  0  0  0
    9.5730    2.7786  -13.2723 C   0  0  0  0  0  0  0  0  0  0  0  0
   12.4043    8.2063   -3.0501 C   0  0  0  0  0  0  0  0  0  0  0  0
   11.2827    6.3481   -3.9052 C   0  0  0  0  0  0  0  0  0  0  0  0
  1  2  1  0  0  0  0
  2  3  1  0  0  0  0
  2  7  2  0  0  0  0
  4  3  1  6  0  0  0
  4  5  1  0  0  0  0
  4  6  1  0  0  0  0
  4  8  1  0  0  0  0
  5  9  2  0  0  0  0
  6 13  1  0  0  0  0
  7 12  1  0  0  0  0
  8 19  2  0  0  0  0
 10  7  1  1  0  0  0
 10 14  1  0  0  0  0
 10 17  1  0  0  0  0
 11  8  1  6  0  0  0
 11 20  1  0  0  0  0
 11 32  1  0  0  0  0
 12 18  1  0  0  0  0
 12 30  1  1  0  0  0
 12 32  1  0  0  0  0
 13 16  2  0  0  0  0
 13 21  1  0  0  0  0
 14  5  1  1  0  0  0
 14 15  1  0  0  0  0
 14 20  1  0  0  0  0
 15 31  1  0  0  0  0
 15 40  1  0  0  0  0
 17 18  1  0  0  0  0
 17 23  1  0  0  0  0
 18 25  1  0  0  0  0
 18 26  1  0  0  0  0
 19 21  1  0  0  0  0
 19 35  1  0  0  0  0
 20 23  1  0  0  0  0
 21 22  2  0  0  0  0
 22 27  1  0  0  0  0
 23 24  1  0  0  0  0
 23 40  1  0  0  0  0
 24 26  1  0  0  0  0
 26 28  2  0  0  0  0
 27 34  2  0  0  0  0
 27 36  1  0  0  0  0
 28 29  1  0  0  0  0
 28 32  1  0  0  0  0
 29 38  1  0  0  0  0
 31 33  2  0  0  0  0
 31 37  1  0  0  0  0
 34 35  1  0  0  0  0
 35 38  1  0  0  0  0
 36 39  1  0  0  0  0
 39 41  1  0  0  0  0
 39 42  1  0  0  0  0
M  END
$$$$

 OpenBabel10082411353D

 43 49  0  0  0  0  0  0  0  0999 V2000
   11.6836    6.0105   -4.8831 F   0  0  0  0  0  0  0  0  0  0  0  0
   11.2562    7.2206   -5.0294 C   0  0  0  0  0  0  0  0  0  0  0  0
   12.0125    8.2418   -4.4408 C   0  0  0  0  0  0  0  0  0  0  0  0
   11.1918    7.2706   -6.5237 C   0  0  2  0  0  0  0  0  0  0  0  0
   11.6999    8.4488   -3.1704 F   0  0  0  0  0  0  0  0  0  0  0  0
    9.8648    7.0908   -4.5314 F   0  0  0  0  0  0  0  0  0  0  0  0
   11.6831    8.5291   -6.9682 C   0  0  1  0  0  0  0  0  0  0  0  0
   13.3042    8.0958   -4.5769 F   0  0  0  0  0  0  0  0  0  0  0  0
   10.0051    6.7877   -7.1387 C   0  0  2  0  0  0  0  0  0  0  0  0
   12.1549    9.4036   -6.0698 C   0  0  0  0  0  0  0  0  0  0  0  0
   11.7460    9.5074   -4.8672 O   0  0  0  0  0  0  0  0  0  0  0  0
   12.5684    8.5172   -7.8652 C   0  0  0  0  0  0  0  0  0  0  0  0
   10.4250    8.9412   -7.4869 C   0  0  0  0  0  0  0  0  0  0  0  0
    9.8902    5.4070   -7.8206 C   0  0  1  0  0  0  0  0  0  0  0  0
    8.7348    4.6919   -7.6168 C   0  0  0  0  0  0  0  0  0  0  0  0
    9.5887    7.8633   -8.0188 C   0  0  1  0  0  0  0  0  0  0  0  0
   10.0149    7.4671   -9.3945 C   0  0  0  0  0  0  0  0  0  0  0  0
    8.7013    3.5197   -8.2148 C   0  0  0  0  0  0  0  0  0  0  0  0
    9.3794    3.4628   -9.4166 C   0  0  0  0  0  0  0  0  0  0  0  0
    9.7670    8.0902  -10.5147 C   0  0  0  0  0  0  0  0  0  0  0  0
   10.1630    7.7248  -11.8028 C   0  0  0  0  0  0  0  0  0  0  0  0
   10.1363    4.5235   -9.8811 C   0  0  0  0  0  0  0  0  0  0  0  0
   10.2836    5.8862   -9.1314 C   0  0  2  0  0  0  0  0  0  0  0  0
    9.2642    7.6154  -12.7688 C   0  0  0  0  0  0  0  0  0  0  0  0
    9.7352    7.0429  -13.9890 C   0  0  0  0  0  0  0  0  0  0  0  0
    8.9431    5.9978  -14.4048 C   0  0  0  0  0  0  0  0  0  0  0  0
    8.0476    5.1914  -13.6918 C   0  0  0  0  0  0  0  0  0  0  0  0
    8.1490    3.7734  -13.7660 C   0  0  0  0  0  0  0  0  0  0  0  0
    7.0453    3.1418  -12.9717 C   0  0  0  0  0  0  0  0  0  0  0  0
    6.2338    3.8839  -12.1754 C   0  0  0  0  0  0  0  0  0  0  0  0
   10.8369    7.3431  -14.6932 C   0  0  0  0  0  0  0  0  0  0  0  0
    7.2107    5.8505  -12.7998 C   0  0  0  0  0  0  0  0  0  0  0  0
    5.3001    3.0920  -11.3306 F   0  0  0  0  0  0  0  0  0  0  0  0
    7.8586    7.9143  -12.4857 C   0  0  0  0  0  0  0  0  0  0  0  0
    6.3696    5.0319  -12.1370 C   0  0  0  0  0  0  0  0  0  0  0  0
    6.9659    7.0740  -12.5678 C   0  0  0  0  0  0  0  0  0  0  0  0
   11.6802    6.2859  -15.0974 C   0  0  0  0  0  0  0  0  0  0  0  0
   11.4895    5.0617  -14.5281 C   0  0  0  0  0  0  0  0  0  0  0  0
   11.6883    3.9380  -15.1014 C   0  0  0  0  0  0  0  0  0  0  0  0
   12.5714    6.3735  -16.0141 C   0  0  0  0  0  0  0  0  0  0  0  0
   12.9306    7.6873  -16.5160 O   0  0  0  0  0  0  0  0  0  0  0  0
   13.1454    5.2400  -16.5258 C   0  0  0  0  0  0  0  0  0  0  0  0
   12.7858    3.9743  -16.0448 C   0  0  0  0  0  0  0  0  0  0  0  0
  1  2  1  0  0  0  0
  2  3  1  0  0  0  0
  2  6  1  0  0  0  0
  3  5  1  0  0  0  0
  3  8  1  0  0  0  0
  3 11  1  0  0  0  0
  4  2  1  1  0  0  0
  4  7  1  0  0  0  0
  4  9  1  0  0  0  0
  7 10  1  0  0  0  0
  7 12  1  6  0  0  0
  7 13  1  0  0  0  0
  9 14  1  0  0  0  0
  9 16  1  0  0  0  0
 10 11  1  0  0  0  0
 13 16  1  0  0  0  0
 14 15  1  0  0  0  0
 14 23  1  0  0  0  0
 15 18  2  0  0  0  0
 16 17  1  0  0  0  0
 17 20  2  3  0  0  0
 17 23  1  0  0  0  0
 18 19  1  0  0  0  0
 19 22  2  0  0  0  0
 20 21  1  0  0  0  0
 21 24  2  3  0  0  0
 22 23  1  0  0  0  0
 24 25  1  0  0  0  0
 24 34  1  0  0  0  0
 25 26  2  0  0  0  0
 25 31  1  0  0  0  0
 26 27  1  0  0  0  0
 27 28  2  0  0  0  0
 27 32  1  0  0  0  0
 28 29  1  0  0  0  0
 29 30  2  0  0  0  0
 30 33  1  0  0  0  0
 30 35  1  0  0  0  0
 31 37  1  0  0  0  0
 32 35  2  0  0  0  0
 32 36  1  0  0  0  0
 34 36  1  0  0  0  0
 37 38  1  0  0  0  0
 37 40  2  0  0  0  0
 38 39  2  0  0  0  0
 39 43  1  0  0  0  0
 40 41  1  0  0  0  0
 40 42  1  0  0  0  0
 42 43  2  0  0  0  0
M  END
$$$$

 OpenBabel10082411353D

 43 54  0  0  0  0  0  0  0  0999 V2000
    8.0806    9.0240  -12.7589 C   0  0  0  0  0  0  0  0  0  0  0  0
    8.6514    7.8645  -12.2948 C   0  0  0  0  0  0  0  0  0  0  0  0
    9.9575    7.9974  -11.8426 C   0  0  0  0  0  0  0  0  0  0  0  0
   10.7657    6.8667  -11.6050 C   0  0  1  0  0  0  0  0  0  0  0  0
   10.7682    5.9590  -12.8271 C   0  0  0  0  0  0  0  0  0  0  0  0
   12.1553    7.3846  -11.2315 C   0  0  0  0  0  0  0  0  0  0  0  0
    8.0676    6.6451  -12.2974 C   0  0  0  0  0  0  0  0  0  0  0  0
   10.1892    6.1240  -10.3860 C   0  0  0  0  0  0  0  0  0  0  0  0
   11.8375    5.4373  -13.3240 O   0  0  0  0  0  0  0  0  0  0  0  0
    8.6785    5.4761  -13.0273 C   0  0  1  0  0  0  0  0  0  0  0  0
    9.1969    5.2405  -10.4969 C   0  0  1  0  0  0  0  0  0  0  0  0
    7.2213    6.2210  -11.3074 C   0  0  1  0  0  0  0  0  0  0  0  0
   12.5590    7.6872   -9.9896 C   0  0  0  0  0  0  0  0  0  0  0  0
    9.7633    5.0333  -12.9720 C   0  0  1  0  0  0  0  0  0  0  0  0
   10.0661    4.0167  -14.0373 N   0  0  0  0  0  0  0  0  0  0  0  0
   13.6906    8.3004   -9.6233 O   0  0  0  0  0  0  0  0  0  0  0  0
    7.6357    4.5123  -12.6317 C   0  0  2  0  0  0  0  0  0  0  0  0
    6.8831    4.9171  -11.7031 C   0  0  1  0  0  0  0  0  0  0  0  0
   10.5937    6.6967   -9.1779 C   0  0  0  0  0  0  0  0  0  0  0  0
    9.5087    4.3263  -11.6925 C   0  0  2  0  0  0  0  0  0  0  0  0
   11.6359    7.4449   -8.9125 C   0  0  0  0  0  0  0  0  0  0  0  0
   11.9716    7.9159   -7.6200 C   0  0  0  0  0  0  0  0  0  0  0  0
    8.4648    3.6122  -12.2840 C   0  0  2  0  0  0  0  0  0  0  0  0
    9.3128    4.5571   -9.1689 C   0  0  0  0  0  0  0  0  0  0  0  0
   10.9557    7.6369   -6.5929 C   0  0  1  0  0  0  0  0  0  0  0  0
    9.6490    2.8108  -13.7776 C   0  0  1  0  0  0  0  0  0  0  0  0
    9.6716    6.1981   -8.0224 C   0  0  2  0  0  0  0  0  0  0  0  0
    8.5511    2.5400  -13.1402 C   0  0  0  0  0  0  0  0  0  0  0  0
    9.7877    2.0302  -15.0383 O   0  0  0  0  0  0  0  0  0  0  0  0
   10.2949    6.3957   -6.8142 C   0  0  1  0  0  0  0  0  0  0  0  0
   11.5672    7.6277   -5.2275 C   0  0  0  0  0  0  0  0  0  0  0  0
    9.0573    5.0713   -8.1077 N   0  0  0  0  0  0  0  0  0  0  0  0
    9.9816    8.7976   -6.5531 C   0  0  0  0  0  0  0  0  0  0  0  0
   11.0000    1.9397  -15.5744 C   0  0  0  0  0  0  0  0  0  0  0  0
    7.9363    5.6537  -10.4961 C   0  0  1  0  0  0  0  0  0  0  0  0
   11.7094    6.5344   -4.5880 C   0  0  0  0  0  0  0  0  0  0  0  0
   11.4771    5.4017   -5.2557 C   0  0  0  0  0  0  0  0  0  0  0  0
   10.9774    5.3782   -6.4193 C   0  0  0  0  0  0  0  0  0  0  0  0
   11.7702    8.9891   -4.6113 C   0  0  1  0  0  0  0  0  0  0  0  0
   10.6199    9.7777   -4.4950 C   0  0  0  0  0  0  0  0  0  0  0  0
    9.0166    8.8358   -7.5687 O   0  0  0  0  0  0  0  0  0  0  0  0
   10.0601    9.9680   -5.9239 C   0  0  0  0  0  0  0  0  0  0  0  0
   12.3801    8.7564   -3.3010 C   0  0  0  0  0  0  0  0  0  0  0  0
  1  2  1  0  0  0  0
  2  3  1  0  0  0  0
  2  7  2  0  0  0  0
  4  3  1  6  0  0  0
  4  5  1  0  0  0  0
  4  6  1  0  0  0  0
  4  8  1  0  0  0  0
  5  9  2  0  0  0  0
  6 13  1  0  0  0  0
  8 11  1  0  0  0  0
  8 19  2  0  0  0  0
 10  7  1  1  0  0  0
 10 14  1  0  0  0  0
 10 17  1  0  0  0  0
 11 20  1  0  0  0  0
 11 24  1  1  0  0  0
 11 35  1  0  0  0  0
 12  7  1  6  0  0  0
 12 18  1  0  0  0  0
 12 35  1  0  0  0  0
 13 16  2  0  0  0  0
 13 21  1  0  0  0  0
 14  5  1  1  0  0  0
 14 15  1  0  0  0  0
 14 20  1  0  0  0  0
 15 26  1  0  0  0  0
 17 18  1  0  0  0  0
 17 23  1  0  0  0  0
 18 35  1  0  0  0  0
 19 21  1  0  0  0  0
 19 27  1  0  0  0  0
 20 23  1  0  0  0  0
 21 22  2  0  0  0  0
 22 25  1  0  0  0  0
 23 28  1  0  0  0  0
 24 32  2  0  0  0  0
 25 30  1  0  0  0  0
 25 31  1  0  0  0  0
 25 33  1  0  0  0  0
 26 28  1  0  0  0  0
 26 29  1  0  0  0  0
 27 30  1  0  0  0  0
 27 32  1  0  0  0  0
 29 34  1  0  0  0  0
 30 38  1  0  0  0  0
 31 36  2  0  0  0  0
 31 39  1  0  0  0  0
 33 41  1  0  0  0  0
 33 42  2  0  0  0  0
 36 37  1  0  0  0  0
 37 38  2  0  0  0  0
 39 40  1  0  0  0  0
 39 43  1  0  0  0  0
 40 42  1  0  0  0  0
M  END
$$$$

 OpenBabel10082411353D

 43 50  0  0  0  0  0  0  0  0999 V2000
   11.6836    6.0105   -4.8831 C   0  0  0  0  0  0  0  0  0  0  0  0
   11.1291    7.0732   -5.4395 C   0  0  0  0  0  0  0  0  0  0  0  0
   10.6954    7.0156   -6.8073 C   0  0  0  0  0  0  0  0  0  0  0  0
   10.2502    8.1187   -7.5536 C   0  0  2  0  0  0  0  0  0  0  0  0
   11.1205    8.4712   -4.9629 C   0  0  0  0  0  0  0  0  0  0  0  0
   10.8655    8.3511   -8.7960 C   0  0  0  0  0  0  0  0  0  0  0  0
   10.2922    7.8843   -9.9985 C   0  0  0  0  0  0  0  0  0  0  0  0
   10.4654    9.6993   -5.6120 C   0  0  0  0  0  0  0  0  0  0  0  0
   10.3510    9.5971   -7.0014 C   0  0  0  0  0  0  0  0  0  0  0  0
   12.2462    6.3351   -3.5020 C   0  0  0  0  0  0  0  0  0  0  0  0
   11.0471    7.5309  -11.1063 C   0  0  0  0  0  0  0  0  0  0  0  0
   11.7288    8.6923   -3.6518 C   0  0  0  0  0  0  0  0  0  0  0  0
   12.3991    7.7501  -11.1145 C   0  0  0  0  0  0  0  0  0  0  0  0
   12.3738    7.7580   -2.9599 C   0  0  0  0  0  0  0  0  0  0  0  0
   13.1285    8.5075  -10.1661 O   0  0  0  0  0  0  0  0  0  0  0  0
    9.0407    7.3775  -10.0973 N   0  0  0  0  0  0  0  0  0  0  0  0
    8.9787    6.9473  -11.4664 N   0  0  0  0  0  0  0  0  0  0  0  0
   13.1012    7.4459  -12.3707 C   0  0  0  0  0  0  0  0  0  0  0  0
   12.2395    6.9724  -13.2444 C   0  0  0  0  0  0  0  0  0  0  0  0
   10.2768    7.0170  -11.9799 C   0  0  0  0  0  0  0  0  0  0  0  0
   12.9237    6.5822  -14.5759 O   0  0  0  0  0  0  0  0  0  0  0  0
   10.8906    6.6526  -13.2252 C   0  0  0  0  0  0  0  0  0  0  0  0
   12.2396    6.1290  -15.6916 C   0  0  0  0  0  0  0  0  0  0  0  0
    7.8036    6.1825  -11.9342 C   0  0  0  0  0  0  0  0  0  0  0  0
   12.5015    4.7115  -15.7686 C   0  0  0  0  0  0  0  0  0  0  0  0
    7.1685    6.9992  -12.8245 C   0  0  0  0  0  0  0  0  0  0  0  0
   11.2461    3.8540  -15.4851 C   0  0  0  0  0  0  0  0  0  0  0  0
    7.6237    4.9154  -11.6529 C   0  0  0  0  0  0  0  0  0  0  0  0
    6.6378    4.1960  -12.2267 C   0  0  0  0  0  0  0  0  0  0  0  0
    6.2717    2.7675  -11.9743 C   0  0  0  0  0  0  0  0  0  0  0  0
    6.6569    1.8873  -12.9460 C   0  0  0  0  0  0  0  0  0  0  0  0
    7.3895    8.4597  -13.1785 C   0  0  0  0  0  0  0  0  0  0  0  0
    6.3114    0.5653  -12.7247 C   0  0  0  0  0  0  0  0  0  0  0  0
   11.3885    2.5830  -15.4863 O   0  0  0  0  0  0  0  0  0  0  0  0
    7.4815    2.1853  -14.0878 C   0  0  0  0  0  0  0  0  0  0  0  0
   10.0671    4.4249  -15.4648 O   0  0  0  0  0  0  0  0  0  0  0  0
    6.9068   -0.3393  -13.8429 C   0  0  0  0  0  0  0  0  0  0  0  0
    7.9156    3.5885  -14.2394 C   0  0  0  0  0  0  0  0  0  0  0  0
    7.9792    1.3984  -14.7530 C   0  0  0  0  0  0  0  0  0  0  0  0
    7.7139    0.1005  -14.7460 C   0  0  0  0  0  0  0  0  0  0  0  0
    6.7900    4.3570  -13.5664 O   0  0  0  0  0  0  0  0  0  0  0  0
    8.8438    3.7138  -15.0060 C   0  0  0  0  0  0  0  0  0  0  0  0
    9.0852    1.9206  -15.7775 O   0  0  0  0  0  0  0  0  0  0  0  0
  1  2  1  0  0  0  0
  1 10  2  0  0  0  0
  2  3  1  0  0  0  0
  2  5  2  0  0  0  0
  3  4  1  0  0  0  0
  4  6  1  6  0  0  0
  4  9  1  0  0  0  0
  5  8  1  0  0  0  0
  5 12  1  0  0  0  0
  6  7  1  0  0  0  0
  7 11  1  0  0  0  0
  7 16  2  0  0  0  0
  8  9  1  0  0  0  0
 10 14  1  0  0  0  0
 11 13  2  0  0  0  0
 11 20  1  0  0  0  0
 12 14  2  0  0  0  0
 13 15  1  0  0  0  0
 13 18  1  0  0  0  0
 16 17  1  0  0  0  0
 17 20  1  0  0  0  0
 17 24  1  0  0  0  0
 18 19  2  0  0  0  0
 19 21  1  0  0  0  0
 19 22  1  0  0  0  0
 20 22  2  0  0  0  0
 21 23  1  0  0  0  0
 23 25  1  0  0  0  0
 24 26  2  3  0  0  0
 24 28  1  0  0  0  0
 25 27  1  0  0  0  0
 26 32  1  0  0  0  0
 27 34  2  0  0  0  0
 27 36  1  0  0  0  0
 28 29  2  0  0  0  0
 29 30  1  0  0  0  0
 29 41  1  0  0  0  0
 30 31  1  0  0  0  0
 31 33  2  0  0  0  0
 31 35  1  0  0  0  0
 33 37  1  0  0  0  0
 35 38  1  0  0  0  0
 35 39  2  0  0  0  0
 36 42  1  0  0  0  0
 37 40  2  0  0  0  0
 38 41  1  0  0  0  0
 38 42  2  0  0  0  0
 39 40  1  0  0  0  0
 39 43  1  0  0  0  0
 42 43  1  0  0  0  0
M  END
$$$$

 OpenBabel10082411353D

 43 49  0  0  0  0  0  0  0  0999 V2000
   11.6836    6.0105   -4.8831 F   0  0  0  0  0  0  0  0  0  0  0  0
   11.2562    7.2206   -5.0294 C   0  0  0  0  0  0  0  0  0  0  0  0
   12.0125    8.2418   -4.4408 C   0  0  0  0  0  0  0  0  0  0  0  0
   11.1918    7.2706   -6.5237 C   0  0  2  0  0  0  0  0  0  0  0  0
   11.6999    8.4488   -3.1704 F   0  0  0  0  0  0  0  0  0  0  0  0
    9.8648    7.0908   -4.5314 F   0  0  0  0  0  0  0  0  0  0  0  0
   11.6831    8.5291   -6.9682 C   0  0  1  0  0  0  0  0  0  0  0  0
   13.3042    8.0958   -4.5769 F   0  0  0  0  0  0  0  0  0  0  0  0
   10.0051    6.7877   -7.1387 C   0  0  2  0  0  0  0  0  0  0  0  0
   12.1549    9.4036   -6.0698 C   0  0  0  0  0  0  0  0  0  0  0  0
   11.7460    9.5074   -4.8672 O   0  0  0  0  0  0  0  0  0  0  0  0
   12.5684    8.5172   -7.8652 C   0  0  0  0  0  0  0  0  0  0  0  0
   10.4250    8.9412   -7.4869 C   0  0  0  0  0  0  0  0  0  0  0  0
    9.8902    5.4070   -7.8206 C   0  0  1  0  0  0  0  0  0  0  0  0
    8.7348    4.6919   -7.6168 C   0  0  0  0  0  0  0  0  0  0  0  0
    9.5887    7.8633   -8.0188 C   0  0  1  0  0  0  0  0  0  0  0  0
   10.0149    7.4671   -9.3945 C   0  0  0  0  0  0  0  0  0  0  0  0
    8.7013    3.5197   -8.2148 C   0  0  0  0  0  0  0  0  0  0  0  0
    9.3794    3.4628   -9.4166 C   0  0  0  0  0  0  0  0  0  0  0  0
    9.7670    8.0902  -10.5147 C   0  0  0  0  0  0  0  0  0  0  0  0
   10.1630    7.7248  -11.8028 C   0  0  0  0  0  0  0  0  0  0  0  0
   10.1363    4.5235   -9.8811 C   0  0  0  0  0  0  0  0  0  0  0  0
   10.2836    5.8862   -9.1314 C   0  0  2  0  0  0  0  0  0  0  0  0
    9.2642    7.6154  -12.7688 C   0  0  0  0  0  0  0  0  0  0  0  0
    9.7352    7.0429  -13.9890 C   0  0  0  0  0  0  0  0  0  0  0  0
    8.9431    5.9978  -14.4048 C   0  0  0  0  0  0  0  0  0  0  0  0
    8.0476    5.1914  -13.6918 C   0  0  0  0  0  0  0  0  0  0  0  0
    8.1490    3.7734  -13.7660 C   0  0  0  0  0  0  0  0  0  0  0  0
    7.0453    3.1418  -12.9717 C   0  0  0  0  0  0  0  0  0  0  0  0
    6.2338    3.8839  -12.1754 C   0  0  0  0  0  0  0  0  0  0  0  0
   10.8369    7.3431  -14.6932 C   0  0  0  0  0  0  0  0  0  0  0  0
    7.2107    5.8505  -12.7998 C   0  0  0  0  0  0  0  0  0  0  0  0
    5.3001    3.0920  -11.3306 F   0  0  0  0  0  0  0  0  0  0  0  0
    7.8586    7.9143  -12.4857 C   0  0  0  0  0  0  0  0  0  0  0  0
    6.3696    5.0319  -12.1370 C   0  0  0  0  0  0  0  0  0  0  0  0
    6.9659    7.0740  -12.5678 C   0  0  0  0  0  0  0  0  0  0  0  0
   11.6802    6.2859  -15.0974 C   0  0  0  0  0  0  0  0  0  0  0  0
   11.4895    5.0617  -14.5281 C   0  0  0  0  0  0  0  0  0  0  0  0
   11.6883    3.9380  -15.1014 C   0  0  0  0  0  0  0  0  0  0  0  0
   11.4745    2.5827  -14.5535 C   0  0  0  0  0  0  0  0  0  0  0  0
   12.6629    6.4155  -15.9530 C   0  0  0  0  0  0  0  0  0  0  0  0
   13.2409    5.1352  -16.4321 C   0  0  0  0  0  0  0  0  0  0  0  0
   12.8943    3.9916  -15.9848 C   0  0  0  0  0  0  0  0  0  0  0  0
  1  2  1  0  0  0  0
  2  3  1  0  0  0  0
  2  6  1  0  0  0  0
  3  5  1  0  0  0  0
  3  8  1  0  0  0  0
  3 11  1  0  0  0  0
  4  2  1  1  0  0  0
  4  7  1  0  0  0  0
  4  9  1  0  0  0  0
  7 10  1  0  0  0  0
  7 12  1  6  0  0  0
  7 13  1  0  0  0  0
  9 14  1  0  0  0  0
  9 16  1  0  0  0  0
 10 11  1  0  0  0  0
 13 16  1  0  0  0  0
 14 15  1  0  0  0  0
 14 23  1  0  0  0  0
 15 18  2  0  0  0  0
 16 17  1  0  0  0  0
 17 20  2  3  0  0  0
 17 23  1  0  0  0  0
 18 19  1  0  0  0  0
 19 22  2  0  0  0  0
 20 21  1  0  0  0  0
 21 24  2  3  0  0  0
 22 23  1  0  0  0  0
 24 25  1  0  0  0  0
 24 34  1  0  0  0  0
 25 26  2  0  0  0  0
 25 31  1  0  0  0  0
 26 27  1  0  0  0  0
 27 28  2  0  0  0  0
 27 32  1  0  0  0  0
 28 29  1  0  0  0  0
 29 30  2  0  0  0  0
 30 33  1  0  0  0  0
 30 35  1  0  0  0  0
 31 37  1  0  0  0  0
 32 35  2  0  0  0  0
 32 36  1  0  0  0  0
 34 36  1  0  0  0  0
 37 38  1  0  0  0  0
 37 41  2  0  0  0  0
 38 39  2  0  0  0  0
 39 40  1  0  0  0  0
 39 43  1  0  0  0  0
 41 42  1  0  0  0  0
 42 43  2  0  0  0  0
M  END
$$$$

 OpenBabel10082411353D

 43 54  0  0  0  0  0  0  0  0999 V2000
    8.0806    9.0240  -12.7589 C   0  0  0  0  0  0  0  0  0  0  0  0
    8.6514    7.8645  -12.2948 C   0  0  0  0  0  0  0  0  0  0  0  0
    9.9575    7.9974  -11.8426 C   0  0  0  0  0  0  0  0  0  0  0  0
   10.7657    6.8667  -11.6050 C   0  0  1  0  0  0  0  0  0  0  0  0
   10.7682    5.9590  -12.8271 C   0  0  0  0  0  0  0  0  0  0  0  0
   12.1553    7.3846  -11.2315 C   0  0  0  0  0  0  0  0  0  0  0  0
    8.0676    6.6451  -12.2974 C   0  0  0  0  0  0  0  0  0  0  0  0
   10.1892    6.1240  -10.3860 C   0  0  0  0  0  0  0  0  0  0  0  0
   11.8375    5.4373  -13.3240 O   0  0  0  0  0  0  0  0  0  0  0  0
    8.6785    5.4761  -13.0273 C   0  0  1  0  0  0  0  0  0  0  0  0
    9.1969    5.2405  -10.4969 C   0  0  1  0  0  0  0  0  0  0  0  0
    7.2213    6.2210  -11.3074 C   0  0  1  0  0  0  0  0  0  0  0  0
   12.5590    7.6872   -9.9896 C   0  0  0  0  0  0  0  0  0  0  0  0
    9.7633    5.0333  -12.9720 C   0  0  1  0  0  0  0  0  0  0  0  0
   10.0661    4.0167  -14.0373 N   0  0  0  0  0  0  0  0  0  0  0  0
   13.6906    8.3004   -9.6233 O   0  0  0  0  0  0  0  0  0  0  0  0
    7.6357    4.5123  -12.6317 C   0  0  2  0  0  0  0  0  0  0  0  0
    6.8831    4.9171  -11.7031 C   0  0  1  0  0  0  0  0  0  0  0  0
   10.5937    6.6967   -9.1779 C   0  0  0  0  0  0  0  0  0  0  0  0
    9.5087    4.3263  -11.6925 C   0  0  2  0  0  0  0  0  0  0  0  0
   11.6359    7.4449   -8.9125 C   0  0  0  0  0  0  0  0  0  0  0  0
   11.9716    7.9159   -7.6200 C   0  0  0  0  0  0  0  0  0  0  0  0
    8.4648    3.6122  -12.2840 C   0  0  2  0  0  0  0  0  0  0  0  0
    9.3128    4.5571   -9.1689 C   0  0  0  0  0  0  0  0  0  0  0  0
   10.9557    7.6369   -6.5929 C   0  0  1  0  0  0  0  0  0  0  0  0
    9.6490    2.8108  -13.7776 C   0  0  1  0  0  0  0  0  0  0  0  0
    9.6716    6.1981   -8.0224 C   0  0  2  0  0  0  0  0  0  0  0  0
    8.5511    2.5400  -13.1402 C   0  0  0  0  0  0  0  0  0  0  0  0
    9.7877    2.0302  -15.0383 O   0  0  0  0  0  0  0  0  0  0  0  0
   10.2949    6.3957   -6.8142 C   0  0  0  0  0  0  0  0  0  0  0  0
   11.5672    7.6277   -5.2275 C   0  0  0  0  0  0  0  0  0  0  0  0
    9.0573    5.0713   -8.1077 N   0  0  0  0  0  0  0  0  0  0  0  0
    9.9816    8.7976   -6.5531 C   0  0  0  0  0  0  0  0  0  0  0  0
   11.0000    1.9397  -15.5744 C   0  0  0  0  0  0  0  0  0  0  0  0
   11.6850    6.4911   -4.5753 C   0  0  0  0  0  0  0  0  0  0  0  0
   11.8127    8.9028   -4.4278 C   0  0  0  0  0  0  0  0  0  0  0  0
   12.3065    8.8808   -3.1994 C   0  0  0  0  0  0  0  0  0  0  0  0
   11.5476    5.2724   -5.2775 C   0  0  0  0  0  0  0  0  0  0  0  0
    7.9401    5.6396  -10.5288 C   0  0  1  0  0  0  0  0  0  0  0  0
   12.4720   10.0679   -2.4394 O   0  0  0  0  0  0  0  0  0  0  0  0
   12.3703    7.5600   -2.4050 C   0  0  0  0  0  0  0  0  0  0  0  0
   12.2044    6.4523   -3.1779 C   0  0  0  0  0  0  0  0  0  0  0  0
   10.6332    5.4828   -6.1381 C   0  0  0  0  0  0  0  0  0  0  0  0
  1  2  1  0  0  0  0
  2  3  1  0  0  0  0
  2  7  2  0  0  0  0
  4  3  1  6  0  0  0
  4  5  1  0  0  0  0
  4  6  1  0  0  0  0
  4  8  1  0  0  0  0
  5  9  2  0  0  0  0
  6 13  1  0  0  0  0
  8 11  1  0  0  0  0
  8 19  2  0  0  0  0
 10  7  1  1  0  0  0
 10 14  1  0  0  0  0
 10 17  1  0  0  0  0
 11 20  1  0  0  0  0
 11 24  1  1  0  0  0
 11 39  1  0  0  0  0
 12  7  1  6  0  0  0
 12 18  1  0  0  0  0
 12 39  1  0  0  0  0
 13 16  2  0  0  0  0
 13 21  1  0  0  0  0
 14  5  1  1  0  0  0
 14 15  1  0  0  0  0
 14 20  1  0  0  0  0
 15 26  1  0  0  0  0
 17 18  1  0  0  0  0
 17 23  1  0  0  0  0
 18 39  1  0  0  0  0
 19 21  1  0  0  0  0
 19 27  1  0  0  0  0
 20 23  1  0  0  0  0
 21 22  2  0  0  0  0
 22 25  1  0  0  0  0
 23 28  1  0  0  0  0
 24 32  2  0  0  0  0
 25 30  1  0  0  0  0
 25 31  1  0  0  0  0
 25 33  1  0  0  0  0
 26 28  1  0  0  0  0
 26 29  1  0  0  0  0
 27 30  1  0  0  0  0
 27 32  1  0  0  0  0
 29 34  1  0  0  0  0
 30 43  2  0  0  0  0
 31 35  2  0  0  0  0
 31 36  1  0  0  0  0
 35 38  1  0  0  0  0
 35 42  1  0  0  0  0
 36 37  2  0  0  0  0
 37 40  1  0  0  0  0
 37 41  1  0  0  0  0
 38 43  1  0  0  0  0
 41 42  2  0  0  0  0
M  END
$$$$

 OpenBabel10082411353D

 43 54  0  0  0  0  0  0  0  0999 V2000
    8.0806    9.0240  -12.7589 C   0  0  0  0  0  0  0  0  0  0  0  0
    8.6514    7.8645  -12.2948 C   0  0  0  0  0  0  0  0  0  0  0  0
    9.9575    7.9974  -11.8426 C   0  0  0  0  0  0  0  0  0  0  0  0
   10.7657    6.8667  -11.6050 C   0  0  1  0  0  0  0  0  0  0  0  0
   10.7682    5.9590  -12.8271 C   0  0  0  0  0  0  0  0  0  0  0  0
   12.1553    7.3846  -11.2315 C   0  0  0  0  0  0  0  0  0  0  0  0
    8.0676    6.6451  -12.2974 C   0  0  0  0  0  0  0  0  0  0  0  0
   10.1892    6.1240  -10.3860 C   0  0  0  0  0  0  0  0  0  0  0  0
   11.8375    5.4373  -13.3240 O   0  0  0  0  0  0  0  0  0  0  0  0
    8.6785    5.4761  -13.0273 C   0  0  1  0  0  0  0  0  0  0  0  0
    9.1969    5.2405  -10.4969 C   0  0  1  0  0  0  0  0  0  0  0  0
    7.2213    6.2210  -11.3074 C   0  0  1  0  0  0  0  0  0  0  0  0
   12.5590    7.6872   -9.9896 C   0  0  0  0  0  0  0  0  0  0  0  0
    9.7633    5.0333  -12.9720 C   0  0  1  0  0  0  0  0  0  0  0  0
   10.0661    4.0167  -14.0373 N   0  0  0  0  0  0  0  0  0  0  0  0
   13.6906    8.3004   -9.6233 O   0  0  0  0  0  0  0  0  0  0  0  0
    7.6357    4.5123  -12.6317 C   0  0  2  0  0  0  0  0  0  0  0  0
    6.8831    4.9171  -11.7031 C   0  0  1  0  0  0  0  0  0  0  0  0
   10.5937    6.6967   -9.1779 C   0  0  0  0  0  0  0  0  0  0  0  0
    9.5087    4.3263  -11.6925 C   0  0  2  0  0  0  0  0  0  0  0  0
   11.6359    7.4449   -8.9125 C   0  0  0  0  0  0  0  0  0  0  0  0
   11.9716    7.9159   -7.6200 C   0  0  0  0  0  0  0  0  0  0  0  0
    8.4648    3.6122  -12.2840 C   0  0  2  0  0  0  0  0  0  0  0  0
    9.3128    4.5571   -9.1689 C   0  0  0  0  0  0  0  0  0  0  0  0
   10.9557    7.6369   -6.5929 C   0  0  1  0  0  0  0  0  0  0  0  0
    9.6490    2.8108  -13.7776 C   0  0  1  0  0  0  0  0  0  0  0  0
    9.6716    6.1981   -8.0224 C   0  0  2  0  0  0  0  0  0  0  0  0
    8.5511    2.5400  -13.1402 C   0  0  0  0  0  0  0  0  0  0  0  0
    9.7877    2.0302  -15.0383 O   0  0  0  0  0  0  0  0  0  0  0  0
   10.2949    6.3957   -6.8142 C   0  0  1  0  0  0  0  0  0  0  0  0
   11.5672    7.6277   -5.2275 C   0  0  0  0  0  0  0  0  0  0  0  0
    9.0573    5.0713   -8.1077 N   0  0  0  0  0  0  0  0  0  0  0  0
    9.9816    8.7976   -6.5531 C   0  0  0  0  0  0  0  0  0  0  0  0
   11.0000    1.9397  -15.5744 C   0  0  0  0  0  0  0  0  0  0  0  0
    7.9363    5.6537  -10.4961 C   0  0  1  0  0  0  0  0  0  0  0  0
   11.7094    6.5344   -4.5880 C   0  0  0  0  0  0  0  0  0  0  0  0
   11.4771    5.4017   -5.2557 C   0  0  0  0  0  0  0  0  0  0  0  0
   10.9774    5.3782   -6.4193 C   0  0  0  0  0  0  0  0  0  0  0  0
   11.7702    8.9891   -4.6113 C   0  0  0  0  0  0  0  0  0  0  0  0
   10.6199    9.7777   -4.4950 C   0  0  0  0  0  0  0  0  0  0  0  0
    9.0166    8.8358   -7.5687 O   0  0  0  0  0  0  0  0  0  0  0  0
   10.0601    9.9680   -5.9239 C   0  0  0  0  0  0  0  0  0  0  0  0
   12.8223    9.1291   -3.8347 O   0  0  0  0  0  0  0  0  0  0  0  0
  1  2  1  0  0  0  0
  2  3  1  0  0  0  0
  2  7  2  0  0  0  0
  4  3  1  6  0  0  0
  4  5  1  0  0  0  0
  4  6  1  0  0  0  0
  4  8  1  0  0  0  0
  5  9  2  0  0  0  0
  6 13  1  0  0  0  0
  8 11  1  0  0  0  0
  8 19  2  0  0  0  0
 10  7  1  1  0  0  0
 10 14  1  0  0  0  0
 10 17  1  0  0  0  0
 11 20  1  0  0  0  0
 11 24  1  1  0  0  0
 11 35  1  0  0  0  0
 12  7  1  6  0  0  0
 12 18  1  0  0  0  0
 12 35  1  0  0  0  0
 13 16  2  0  0  0  0
 13 21  1  0  0  0  0
 14  5  1  1  0  0  0
 14 15  1  0  0  0  0
 14 20  1  0  0  0  0
 15 26  1  0  0  0  0
 17 18  1  0  0  0  0
 17 23  1  0  0  0  0
 18 35  1  0  0  0  0
 19 21  1  0  0  0  0
 19 27  1  0  0  0  0
 20 23  1  0  0  0  0
 21 22  2  0  0  0  0
 22 25  1  0  0  0  0
 23 28  1  0  0  0  0
 24 32  2  0  0  0  0
 25 30  1  0  0  0  0
 25 31  1  0  0  0  0
 25 33  1  0  0  0  0
 26 28  1  0  0  0  0
 26 29  1  0  0  0  0
 27 30  1  0  0  0  0
 27 32  1  0  0  0  0
 29 34  1  0  0  0  0
 30 38  1  0  0  0  0
 31 36  2  0  0  0  0
 31 39  1  0  0  0  0
 33 41  1  0  0  0  0
 33 42  2  0  0  0  0
 36 37  1  0  0  0  0
 37 38  2  0  0  0  0
 39 40  1  0  0  0  0
 39 43  2  0  0  0  0
 40 42  1  0  0  0  0
M  END
$$$$

 OpenBabel10082411353D

 43 53  0  0  0  0  0  0  0  0999 V2000
    8.0806    9.0240  -12.7589 C   0  0  0  0  0  0  0  0  0  0  0  0
    8.6514    7.8645  -12.2948 C   0  0  0  0  0  0  0  0  0  0  0  0
    9.9575    7.9974  -11.8426 C   0  0  0  0  0  0  0  0  0  0  0  0
   10.7657    6.8667  -11.6050 C   0  0  1  0  0  0  0  0  0  0  0  0
   10.7682    5.9590  -12.8271 C   0  0  0  0  0  0  0  0  0  0  0  0
   12.1553    7.3846  -11.2315 C   0  0  0  0  0  0  0  0  0  0  0  0
    8.0676    6.6451  -12.2974 C   0  0  0  0  0  0  0  0  0  0  0  0
   10.1892    6.1240  -10.3860 C   0  0  0  0  0  0  0  0  0  0  0  0
   11.8375    5.4373  -13.3240 O   0  0  0  0  0  0  0  0  0  0  0  0
    8.6785    5.4761  -13.0273 C   0  0  1  0  0  0  0  0  0  0  0  0
    9.1969    5.2405  -10.4969 C   0  0  2  0  0  0  0  0  0  0  0  0
    7.2213    6.2210  -11.3074 C   0  0  2  0  0  0  0  0  0  0  0  0
   12.5590    7.6872   -9.9896 C   0  0  0  0  0  0  0  0  0  0  0  0
    9.7633    5.0333  -12.9720 C   0  0  1  0  0  0  0  0  0  0  0  0
   10.0661    4.0167  -14.0373 N   0  0  0  0  0  0  0  0  0  0  0  0
   13.6906    8.3004   -9.6233 O   0  0  0  0  0  0  0  0  0  0  0  0
    7.6357    4.5123  -12.6317 C   0  0  2  0  0  0  0  0  0  0  0  0
    6.8831    4.9171  -11.7031 C   0  0  2  0  0  0  0  0  0  0  0  0
   10.5937    6.6967   -9.1779 C   0  0  0  0  0  0  0  0  0  0  0  0
    9.5087    4.3263  -11.6925 C   0  0  2  0  0  0  0  0  0  0  0  0
   11.6359    7.4449   -8.9125 C   0  0  0  0  0  0  0  0  0  0  0  0
   11.9716    7.9159   -7.6200 C   0  0  0  0  0  0  0  0  0  0  0  0
    8.4648    3.6122  -12.2840 C   0  0  1  0  0  0  0  0  0  0  0  0
    7.9253    2.8004  -11.3926 C   0  0  0  0  0  0  0  0  0  0  0  0
    5.6047    4.5059  -11.7589 C   0  0  0  0  0  0  0  0  0  0  0  0
    7.6606    4.1297  -10.5699 C   0  0  0  0  0  0  0  0  0  0  0  0
   10.9559    7.6849   -6.6057 C   0  0  0  0  0  0  0  0  0  0  0  0
    8.0094    4.5092   -9.5664 C   0  0  0  0  0  0  0  0  0  0  0  0
    8.3033    4.0627   -8.4980 C   0  0  0  0  0  0  0  0  0  0  0  0
    6.3587    7.1012  -11.0392 O   0  0  0  0  0  0  0  0  0  0  0  0
   11.0186    3.9598  -14.9226 C   0  0  0  0  0  0  0  0  0  0  0  0
    8.1758    5.8633  -10.2511 C   0  0  1  0  0  0  0  0  0  0  0  0
   11.4648    2.7104  -15.2650 O   0  0  0  0  0  0  0  0  0  0  0  0
    9.9512    6.8220   -6.8436 C   0  0  0  0  0  0  0  0  0  0  0  0
    9.6899    6.3705   -8.1082 C   0  0  2  0  0  0  0  0  0  0  0  0
   11.2597    8.2901   -5.2396 C   0  0  1  0  0  0  0  0  0  0  0  0
   11.7295    4.9426  -15.4284 O   0  0  0  0  0  0  0  0  0  0  0  0
    9.2745    4.9481   -7.8103 C   0  0  0  0  0  0  0  0  0  0  0  0
    9.2182    2.8872  -13.7570 C   0  0  0  0  0  0  0  0  0  0  0  0
   11.9188    7.5853   -4.3293 C   0  0  0  0  0  0  0  0  0  0  0  0
   12.4318    8.2238   -3.0545 C   0  0  0  0  0  0  0  0  0  0  0  0
   12.0711    6.1970   -4.3595 C   0  0  0  0  0  0  0  0  0  0  0  0
   12.0409    9.5243   -5.5176 C   0  0  0  0  0  0  0  0  0  0  0  0
  1  2  1  0  0  0  0
  2  3  1  0  0  0  0
  2  7  2  0  0  0  0
  4  3  1  6  0  0  0
  4  5  1  0  0  0  0
  4  6  1  0  0  0  0
  4  8  1  0  0  0  0
  5  9  2  0  0  0  0
  6 13  1  0  0  0  0
  7 12  1  0  0  0  0
  8 19  2  0  0  0  0
 10  7  1  1  0  0  0
 10 14  1  0  0  0  0
 10 17  1  0  0  0  0
 11  8  1  6  0  0  0
 11 20  1  0  0  0  0
 11 32  1  0  0  0  0
 12 18  1  0  0  0  0
 12 30  1  1  0  0  0
 12 32  1  0  0  0  0
 13 16  2  0  0  0  0
 13 21  1  0  0  0  0
 14  5  1  1  0  0  0
 14 15  1  0  0  0  0
 14 20  1  0  0  0  0
 15 31  1  0  0  0  0
 15 39  1  0  0  0  0
 17 18  1  0  0  0  0
 17 23  1  0  0  0  0
 18 25  1  0  0  0  0
 18 26  1  0  0  0  0
 19 21  1  0  0  0  0
 19 35  1  0  0  0  0
 20 23  1  0  0  0  0
 21 22  2  0  0  0  0
 22 27  1  0  0  0  0
 23 24  1  0  0  0  0
 23 39  1  0  0  0  0
 24 26  1  0  0  0  0
 26 28  2  0  0  0  0
 27 34  2  0  0  0  0
 27 36  1  0  0  0  0
 28 29  1  0  0  0  0
 28 32  1  0  0  0  0
 29 38  1  0  0  0  0
 31 33  2  0  0  0  0
 31 37  1  0  0  0  0
 34 35  1  0  0  0  0
 35 38  1  0  0  0  0
 36 40  1  0  0  0  0
 36 43  1  0  0  0  0
 40 41  1  0  0  0  0
 40 42  2  0  0  0  0
M  END
$$$$

 OpenBabel10082411353D

 43 49  0  0  0  0  0  0  0  0999 V2000
   11.6836    6.0105   -4.8831 C   0  0  0  0  0  0  0  0  0  0  0  0
   11.1291    7.0732   -5.4395 C   0  0  0  0  0  0  0  0  0  0  0  0
   10.6954    7.0156   -6.8073 C   0  0  0  0  0  0  0  0  0  0  0  0
   10.2502    8.1187   -7.5536 C   0  0  2  0  0  0  0  0  0  0  0  0
   11.1205    8.4712   -4.9629 C   0  0  0  0  0  0  0  0  0  0  0  0
   10.8655    8.3511   -8.7960 C   0  0  0  0  0  0  0  0  0  0  0  0
   10.2922    7.8843   -9.9985 C   0  0  0  0  0  0  0  0  0  0  0  0
   10.4654    9.6993   -5.6120 C   0  0  0  0  0  0  0  0  0  0  0  0
   10.3510    9.5971   -7.0014 C   0  0  0  0  0  0  0  0  0  0  0  0
   12.2462    6.3351   -3.5020 C   0  0  0  0  0  0  0  0  0  0  0  0
   11.0471    7.5309  -11.1063 C   0  0  0  0  0  0  0  0  0  0  0  0
   11.7288    8.6923   -3.6518 C   0  0  0  0  0  0  0  0  0  0  0  0
   12.3991    7.7501  -11.1145 C   0  0  0  0  0  0  0  0  0  0  0  0
   12.3738    7.7580   -2.9599 C   0  0  0  0  0  0  0  0  0  0  0  0
   13.1285    8.5075  -10.1661 O   0  0  0  0  0  0  0  0  0  0  0  0
    9.0407    7.3775  -10.0973 N   0  0  0  0  0  0  0  0  0  0  0  0
    8.9787    6.9473  -11.4664 N   0  0  0  0  0  0  0  0  0  0  0  0
   13.1012    7.4459  -12.3707 C   0  0  0  0  0  0  0  0  0  0  0  0
   12.2395    6.9724  -13.2444 C   0  0  0  0  0  0  0  0  0  0  0  0
   10.2768    7.0170  -11.9799 C   0  0  0  0  0  0  0  0  0  0  0  0
   12.9237    6.5822  -14.5759 O   0  0  0  0  0  0  0  0  0  0  0  0
   10.8906    6.6526  -13.2252 C   0  0  0  0  0  0  0  0  0  0  0  0
   12.2396    6.1290  -15.6916 C   0  0  0  0  0  0  0  0  0  0  0  0
    7.8036    6.1825  -11.9342 C   0  0  0  0  0  0  0  0  0  0  0  0
   12.5015    4.7115  -15.7686 C   0  0  0  0  0  0  0  0  0  0  0  0
    7.1685    6.9992  -12.8245 C   0  0  0  0  0  0  0  0  0  0  0  0
   11.2461    3.8540  -15.4851 C   0  0  0  0  0  0  0  0  0  0  0  0
    7.6237    4.9154  -11.6529 C   0  0  0  0  0  0  0  0  0  0  0  0
    6.6378    4.1960  -12.2267 C   0  0  0  0  0  0  0  0  0  0  0  0
    6.2717    2.7675  -11.9743 C   0  0  0  0  0  0  0  0  0  0  0  0
    6.6569    1.8873  -12.9460 C   0  0  0  0  0  0  0  0  0  0  0  0
    6.2393    0.5737  -12.7991 C   0  0  0  0  0  0  0  0  0  0  0  0
    5.7332    5.0094  -13.0098 C   0  0  0  0  0  0  0  0  0  0  0  0
   11.4513    2.5769  -15.3310 O   0  0  0  0  0  0  0  0  0  0  0  0
    7.4197    8.4494  -13.1889 C   0  0  0  0  0  0  0  0  0  0  0  0
    5.9626    6.3199  -13.3932 C   0  0  0  0  0  0  0  0  0  0  0  0
   10.0883    4.4615  -15.2970 O   0  0  0  0  0  0  0  0  0  0  0  0
    7.5717    2.2161  -13.9599 C   0  0  0  0  0  0  0  0  0  0  0  0
    6.8419   -0.3541  -13.5416 C   0  0  0  0  0  0  0  0  0  0  0  0
    8.0867    3.4925  -14.1410 O   0  0  0  0  0  0  0  0  0  0  0  0
    7.6843   -0.0873  -14.6040 C   0  0  0  0  0  0  0  0  0  0  0  0
    8.0864    1.2436  -14.8171 C   0  0  0  0  0  0  0  0  0  0  0  0
    8.7106    3.7392  -15.3854 C   0  0  0  0  0  0  0  0  0  0  0  0
  1  2  1  0  0  0  0
  1 10  2  0  0  0  0
  2  3  1  0  0  0  0
  2  5  2  0  0  0  0
  3  4  1  0  0  0  0
  4  6  1  6  0  0  0
  4  9  1  0  0  0  0
  5  8  1  0  0  0  0
  5 12  1  0  0  0  0
  6  7  1  0  0  0  0
  7 11  1  0  0  0  0
  7 16  2  0  0  0  0
  8  9  1  0  0  0  0
 10 14  1  0  0  0  0
 11 13  2  0  0  0  0
 11 20  1  0  0  0  0
 12 14  2  0  0  0  0
 13 15  1  0  0  0  0
 13 18  1  0  0  0  0
 16 17  1  0  0  0  0
 17 20  1  0  0  0  0
 17 24  1  0  0  0  0
 18 19  2  0  0  0  0
 19 21  1  0  0  0  0
 19 22  1  0  0  0  0
 20 22  2  0  0  0  0
 21 23  1  0  0  0  0
 23 25  1  0  0  0  0
 24 26  2  0  0  0  0
 24 28  1  0  0  0  0
 25 27  1  0  0  0  0
 26 35  1  0  0  0  0
 26 36  1  0  0  0  0
 27 34  2  0  0  0  0
 27 37  1  0  0  0  0
 28 29  2  0  0  0  0
 29 30  1  0  0  0  0
 29 33  1  0  0  0  0
 30 31  1  0  0  0  0
 31 32  1  0  0  0  0
 31 38  2  0  0  0  0
 32 39  2  0  0  0  0
 33 36  2  0  0  0  0
 37 43  1  0  0  0  0
 38 40  1  0  0  0  0
 38 42  1  0  0  0  0
 39 41  1  0  0  0  0
 40 43  1  0  0  0  0
 41 42  2  0  0  0  0
M  END
$$$$

 OpenBabel10082411353D

 27 30  0  0  0  0  0  0  0  0999 V2000
   11.9925    6.6083   -4.7728 C   0  0  0  0  0  0  0  0  0  0  0  0
   11.4477    7.7141   -5.2577 C   0  0  0  0  0  0  0  0  0  0  0  0
   12.2896    6.5964   -3.2881 C   0  0  0  0  0  0  0  0  0  0  0  0
   11.4087    8.9270   -4.5689 C   0  0  0  0  0  0  0  0  0  0  0  0
   11.0700    7.6482   -6.7180 C   0  0  0  0  0  0  0  0  0  0  0  0
   11.9031    8.9562   -3.1377 C   0  0  0  0  0  0  0  0  0  0  0  0
   12.3774    7.8477   -2.5217 C   0  0  0  0  0  0  0  0  0  0  0  0
   10.4761    6.5776   -7.2169 C   0  0  0  0  0  0  0  0  0  0  0  0
   10.6681    8.9492   -7.1472 C   0  0  0  0  0  0  0  0  0  0  0  0
   10.1085    6.6234   -8.6282 C   0  0  0  0  0  0  0  0  0  0  0  0
   10.4500    9.0125   -8.6924 C   0  0  0  0  0  0  0  0  0  0  0  0
    9.6601    7.9334   -9.1481 N   0  0  0  0  0  0  0  0  0  0  0  0
    9.4452    7.9310  -10.5569 C   0  0  0  0  0  0  0  0  0  0  0  0
    9.6484    6.9783  -11.2444 C   0  0  0  0  0  0  0  0  0  0  0  0
    9.2204    9.1620  -11.1118 O   0  0  0  0  0  0  0  0  0  0  0  0
    8.7362    5.9509  -11.2837 C   0  0  0  0  0  0  0  0  0  0  0  0
    8.8536    4.7666  -12.1368 C   0  0  0  0  0  0  0  0  0  0  0  0
   10.6809    6.9310  -12.3353 C   0  0  0  0  0  0  0  0  0  0  0  0
    9.8671    4.6993  -13.0577 C   0  0  0  0  0  0  0  0  0  0  0  0
   11.5765    7.9772  -12.5141 O   0  0  0  0  0  0  0  0  0  0  0  0
   10.8020    5.8254  -13.2017 C   0  0  0  0  0  0  0  0  0  0  0  0
   10.0433    3.8155  -13.8024 N   0  0  0  0  0  0  0  0  0  0  0  0
    9.3779    2.5500  -13.8153 N   0  0  0  0  0  0  0  0  0  0  0  0
    9.7949    1.6901  -14.6819 C   0  0  0  0  0  0  0  0  0  0  0  0
   10.9792    3.6456  -14.8747 C   0  0  0  0  0  0  0  0  0  0  0  0
   10.9162    2.3918  -15.3524 C   0  0  0  0  0  0  0  0  0  0  0  0
   12.5022    7.8732  -13.6355 C   0  0  0  0  0  0  0  0  0  0  0  0
  1  2  1  0  0  0  0
  1  3  2  0  0  0  0
  2  4  2  0  0  0  0
  2  5  1  0  0  0  0
  3  7  1  0  0  0  0
  4  6  1  0  0  0  0
  5  8  1  0  0  0  0
  5  9  1  0  0  0  0
  6  7  2  0  0  0  0
  8 10  1  0  0  0  0
  9 11  1  0  0  0  0
 10 12  1  0  0  0  0
 11 12  1  0  0  0  0
 12 13  1  0  0  0  0
 13 14  1  0  0  0  0
 13 15  2  0  0  0  0
 14 16  2  0  0  0  0
 14 18  1  0  0  0  0
 16 17  1  0  0  0  0
 17 19  2  0  0  0  0
 18 20  1  0  0  0  0
 18 21  2  0  0  0  0
 19 21  1  0  0  0  0
 19 22  1  0  0  0  0
 20 27  1  0  0  0  0
 22 23  1  0  0  0  0
 22 25  1  0  0  0  0
 23 24  2  0  0  0  0
 24 26  1  0  0  0  0
 25 26  2  0  0  0  0
M  END
$$$$

 OpenBabel10082411353D

 43 52  0  0  0  0  0  0  0  0999 V2000
    8.0806    9.0240  -12.7589 C   0  0  0  0  0  0  0  0  0  0  0  0
    8.6514    7.8645  -12.2948 C   0  0  0  0  0  0  0  0  0  0  0  0
    9.9575    7.9974  -11.8426 C   0  0  0  0  0  0  0  0  0  0  0  0
   10.7657    6.8667  -11.6050 C   0  0  1  0  0  0  0  0  0  0  0  0
   10.7682    5.9590  -12.8271 C   0  0  0  0  0  0  0  0  0  0  0  0
   12.1553    7.3846  -11.2315 C   0  0  0  0  0  0  0  0  0  0  0  0
    8.0676    6.6451  -12.2974 C   0  0  0  0  0  0  0  0  0  0  0  0
   10.1892    6.1240  -10.3860 C   0  0  0  0  0  0  0  0  0  0  0  0
   11.8375    5.4373  -13.3240 O   0  0  0  0  0  0  0  0  0  0  0  0
    8.6785    5.4761  -13.0273 C   0  0  1  0  0  0  0  0  0  0  0  0
    9.1969    5.2405  -10.4969 C   0  0  2  0  0  0  0  0  0  0  0  0
    7.2213    6.2210  -11.3074 C   0  0  2  0  0  0  0  0  0  0  0  0
   12.5590    7.6872   -9.9896 C   0  0  0  0  0  0  0  0  0  0  0  0
    9.7633    5.0333  -12.9720 C   0  0  1  0  0  0  0  0  0  0  0  0
   10.0661    4.0167  -14.0373 N   0  0  0  0  0  0  0  0  0  0  0  0
   13.6906    8.3004   -9.6233 O   0  0  0  0  0  0  0  0  0  0  0  0
    7.6357    4.5123  -12.6317 C   0  0  2  0  0  0  0  0  0  0  0  0
    6.8831    4.9171  -11.7031 C   0  0  2  0  0  0  0  0  0  0  0  0
   10.5937    6.6967   -9.1779 C   0  0  0  0  0  0  0  0  0  0  0  0
    9.5087    4.3263  -11.6925 C   0  0  2  0  0  0  0  0  0  0  0  0
   11.6359    7.4449   -8.9125 C   0  0  0  0  0  0  0  0  0  0  0  0
   11.9716    7.9159   -7.6200 C   0  0  0  0  0  0  0  0  0  0  0  0
    8.4648    3.6122  -12.2840 C   0  0  1  0  0  0  0  0  0  0  0  0
    7.9253    2.8004  -11.3926 C   0  0  0  0  0  0  0  0  0  0  0  0
    5.6047    4.5059  -11.7589 C   0  0  0  0  0  0  0  0  0  0  0  0
    7.6606    4.1297  -10.5699 C   0  0  0  0  0  0  0  0  0  0  0  0
   10.9559    7.6849   -6.6057 C   0  0  0  0  0  0  0  0  0  0  0  0
    8.0094    4.5092   -9.5664 C   0  0  0  0  0  0  0  0  0  0  0  0
    8.3033    4.0627   -8.4980 C   0  0  0  0  0  0  0  0  0  0  0  0
    6.3587    7.1012  -11.0392 O   0  0  0  0  0  0  0  0  0  0  0  0
   11.1885    8.2709   -5.2029 C   0  0  0  0  0  0  0  0  0  0  0  0
    8.1551    5.8688  -10.2415 C   0  0  0  0  0  0  0  0  0  0  0  0
    9.3562    2.8931  -13.4173 C   0  0  0  0  0  0  0  0  0  0  0  0
    9.4006    1.8057  -13.6789 O   0  0  0  0  0  0  0  0  0  0  0  0
   10.6448    3.9324  -15.2556 C   0  0  0  0  0  0  0  0  0  0  0  0
    9.9004    6.8953   -6.7235 C   0  0  0  0  0  0  0  0  0  0  0  0
    8.1584    4.7418   -7.5351 O   0  0  0  0  0  0  0  0  0  0  0  0
    8.5999    2.9050   -8.2804 O   0  0  0  0  0  0  0  0  0  0  0  0
   11.6420    7.3504   -4.2035 C   0  0  0  0  0  0  0  0  0  0  0  0
    9.6081    6.4128   -8.0398 C   0  0  1  0  0  0  0  0  0  0  0  0
    8.3828    5.9446   -7.9275 C   0  0  0  0  0  0  0  0  0  0  0  0
   10.0627    9.0803   -4.6857 C   0  0  0  0  0  0  0  0  0  0  0  0
   12.4133    9.2989   -5.2144 C   0  0  0  0  0  0  0  0  0  0  0  0
  1  2  1  0  0  0  0
  2  3  1  0  0  0  0
  2  7  2  0  0  0  0
  4  3  1  6  0  0  0
  4  5  1  0  0  0  0
  4  6  1  0  0  0  0
  4  8  1  0  0  0  0
  5  9  2  0  0  0  0
  6 13  1  0  0  0  0
  7 12  1  0  0  0  0
  8 11  1  0  0  0  0
  8 19  2  0  0  0  0
 10  7  1  1  0  0  0
 10 14  1  0  0  0  0
 10 17  1  0  0  0  0
 11 20  1  0  0  0  0
 11 32  1  6  0  0  0
 12 18  1  0  0  0  0
 12 30  1  6  0  0  0
 13 16  2  0  0  0  0
 13 21  1  0  0  0  0
 14  5  1  1  0  0  0
 14 15  1  0  0  0  0
 14 20  1  0  0  0  0
 15 33  1  0  0  0  0
 15 35  1  0  0  0  0
 17 18  1  0  0  0  0
 17 23  1  0  0  0  0
 18 25  1  0  0  0  0
 18 26  1  0  0  0  0
 19 21  1  0  0  0  0
 19 40  1  0  0  0  0
 20 23  1  0  0  0  0
 21 22  2  0  0  0  0
 22 27  1  0  0  0  0
 23 24  1  0  0  0  0
 23 33  1  0  0  0  0
 24 26  1  0  0  0  0
 26 28  2  0  0  0  0
 27 31  1  0  0  0  0
 27 36  2  0  0  0  0
 28 29  1  0  0  0  0
 28 32  1  0  0  0  0
 29 37  1  0  0  0  0
 29 38  2  0  0  0  0
 31 39  1  0  0  0  0
 31 42  1  0  0  0  0
 31 43  1  0  0  0  0
 33 34  2  0  0  0  0
 36 40  1  0  0  0  0
 37 41  1  0  0  0  0
 40 41  1  0  0  0  0
M  END
$$$$

 OpenBabel10082411353D

 43 48  0  0  0  0  0  0  0  0999 V2000
   11.6836    6.0105   -4.8831 F   0  0  0  0  0  0  0  0  0  0  0  0
   11.2562    7.2206   -5.0294 C   0  0  0  0  0  0  0  0  0  0  0  0
   12.0125    8.2418   -4.4408 C   0  0  0  0  0  0  0  0  0  0  0  0
   11.1918    7.2706   -6.5237 C   0  0  0  0  0  0  0  0  0  0  0  0
   11.6999    8.4488   -3.1704 F   0  0  0  0  0  0  0  0  0  0  0  0
    9.8648    7.0908   -4.5314 F   0  0  0  0  0  0  0  0  0  0  0  0
   11.6831    8.5291   -6.9682 C   0  0  0  0  0  0  0  0  0  0  0  0
   10.4785    6.5189   -7.4033 C   0  0  0  0  0  0  0  0  0  0  0  0
   11.6979    8.6661   -8.4760 C   0  0  0  0  0  0  0  0  0  0  0  0
   11.6248    9.5853   -5.0030 C   0  0  0  0  0  0  0  0  0  0  0  0
   11.8604    9.7907   -6.2903 O   0  0  0  0  0  0  0  0  0  0  0  0
   13.3557    8.1748   -4.5947 F   0  0  0  0  0  0  0  0  0  0  0  0
   10.5427    6.6061   -8.7190 C   0  0  0  0  0  0  0  0  0  0  0  0
   11.1158    7.7103   -9.2540 C   0  0  0  0  0  0  0  0  0  0  0  0
   11.3757    7.6656  -10.5293 N   0  0  0  0  0  0  0  0  0  0  0  0
   10.7153    7.7096  -11.5405 C   0  0  0  0  0  0  0  0  0  0  0  0
   11.2483    7.4711  -12.8542 C   0  0  0  0  0  0  0  0  0  0  0  0
    9.3980    7.7820  -11.5398 C   0  0  0  0  0  0  0  0  0  0  0  0
    8.6055    7.5889  -12.6525 C   0  0  0  0  0  0  0  0  0  0  0  0
   12.7508    7.3705  -13.0162 O   0  0  0  0  0  0  0  0  0  0  0  0
   10.5299    7.1831  -13.9856 C   0  0  0  0  0  0  0  0  0  0  0  0
    7.0533    7.7371  -12.5396 C   0  0  0  0  0  0  0  0  0  0  0  0
   11.2041    6.8490  -15.2304 C   0  0  0  0  0  0  0  0  0  0  0  0
   11.6393    5.5333  -15.3864 C   0  0  0  0  0  0  0  0  0  0  0  0
    9.1955    7.2935  -13.8301 C   0  0  0  0  0  0  0  0  0  0  0  0
   12.5294    5.1116  -16.1609 C   0  0  0  0  0  0  0  0  0  0  0  0
   11.2315    4.4703  -14.3200 C   0  0  0  0  0  0  0  0  0  0  0  0
   10.2844    4.5821  -13.3000 C   0  0  0  0  0  0  0  0  0  0  0  0
   11.6270    3.1866  -14.6052 C   0  0  0  0  0  0  0  0  0  0  0  0
    9.0868    3.8289  -13.3080 C   0  0  0  0  0  0  0  0  0  0  0  0
   11.3420    2.7039  -15.8535 C   0  0  0  0  0  0  0  0  0  0  0  0
    8.3582    4.0400  -12.0395 C   0  0  0  0  0  0  0  0  0  0  0  0
   13.0053    6.2224  -17.1322 C   0  0  0  0  0  0  0  0  0  0  0  0
   12.3338    3.1792  -16.8738 C   0  0  0  0  0  0  0  0  0  0  0  0
   12.9709    3.9849  -16.5221 O   0  0  0  0  0  0  0  0  0  0  0  0
    6.9893    3.6862  -12.1936 C   0  0  0  0  0  0  0  0  0  0  0  0
    6.0529    4.0659  -11.1662 F   0  0  0  0  0  0  0  0  0  0  0  0
   12.3817    7.3820  -16.9825 C   0  0  0  0  0  0  0  0  0  0  0  0
    8.7716    2.9048  -14.2648 C   0  0  0  0  0  0  0  0  0  0  0  0
   11.5872    7.7310  -15.9717 C   0  0  0  0  0  0  0  0  0  0  0  0
    6.5449    2.8111  -13.1790 C   0  0  0  0  0  0  0  0  0  0  0  0
    7.4673    2.4415  -14.1780 C   0  0  0  0  0  0  0  0  0  0  0  0
    7.2229    1.5808  -15.1620 O   0  0  0  0  0  0  0  0  0  0  0  0
  1  2  1  0  0  0  0
  2  3  1  0  0  0  0
  2  4  1  0  0  0  0
  2  6  1  0  0  0  0
  3  5  1  0  0  0  0
  3 10  1  0  0  0  0
  3 12  1  0  0  0  0
  4  7  1  0  0  0  0
  4  8  2  0  0  0  0
  7  9  2  0  0  0  0
  7 11  1  0  0  0  0
  8 13  1  0  0  0  0
  9 14  1  0  0  0  0
 10 11  1  0  0  0  0
 13 14  2  0  0  0  0
 14 15  1  0  0  0  0
 15 16  1  0  0  0  0
 16 17  1  0  0  0  0
 16 18  2  0  0  0  0
 17 20  1  0  0  0  0
 17 21  2  0  0  0  0
 18 19  1  0  0  0  0
 19 22  1  0  0  0  0
 19 25  2  0  0  0  0
 21 23  1  0  0  0  0
 21 25  1  0  0  0  0
 23 24  1  0  0  0  0
 23 40  2  0  0  0  0
 24 26  2  0  0  0  0
 24 27  1  0  0  0  0
 26 33  1  0  0  0  0
 26 35  1  0  0  0  0
 27 28  1  0  0  0  0
 27 29  2  0  0  0  0
 28 30  2  3  0  0  0
 29 31  1  0  0  0  0
 30 32  1  0  0  0  0
 30 39  1  0  0  0  0
 31 34  1  0  0  0  0
 32 36  2  0  0  0  0
 33 38  2  0  0  0  0
 34 35  1  0  0  0  0
 36 37  1  0  0  0  0
 36 41  1  0  0  0  0
 38 40  1  0  0  0  0
 39 42  1  0  0  0  0
 41 42  1  0  0  0  0
 42 43  2  0  0  0  0
M  END
$$$$

 OpenBabel10082411353D

 43 50  0  0  0  0  0  0  0  0999 V2000
   11.6836    6.0105   -4.8831 C   0  0  0  0  0  0  0  0  0  0  0  0
   11.1291    7.0732   -5.4395 C   0  0  0  0  0  0  0  0  0  0  0  0
   10.6954    7.0156   -6.8073 C   0  0  0  0  0  0  0  0  0  0  0  0
   10.2502    8.1187   -7.5536 C   0  0  2  0  0  0  0  0  0  0  0  0
   11.1205    8.4712   -4.9629 C   0  0  0  0  0  0  0  0  0  0  0  0
   10.8655    8.3511   -8.7960 C   0  0  0  0  0  0  0  0  0  0  0  0
   10.2922    7.8843   -9.9985 C   0  0  0  0  0  0  0  0  0  0  0  0
   10.4654    9.6993   -5.6120 C   0  0  0  0  0  0  0  0  0  0  0  0
   10.3510    9.5971   -7.0014 C   0  0  0  0  0  0  0  0  0  0  0  0
   12.2462    6.3351   -3.5020 C   0  0  0  0  0  0  0  0  0  0  0  0
   11.0471    7.5309  -11.1063 C   0  0  0  0  0  0  0  0  0  0  0  0
   11.7288    8.6923   -3.6518 C   0  0  0  0  0  0  0  0  0  0  0  0
   12.3991    7.7501  -11.1145 C   0  0  0  0  0  0  0  0  0  0  0  0
   12.3738    7.7580   -2.9599 C   0  0  0  0  0  0  0  0  0  0  0  0
   13.1285    8.5075  -10.1661 O   0  0  0  0  0  0  0  0  0  0  0  0
    9.0407    7.3775  -10.0973 N   0  0  0  0  0  0  0  0  0  0  0  0
    8.9787    6.9473  -11.4664 N   0  0  0  0  0  0  0  0  0  0  0  0
   13.1012    7.4459  -12.3707 C   0  0  0  0  0  0  0  0  0  0  0  0
   12.2395    6.9724  -13.2444 C   0  0  0  0  0  0  0  0  0  0  0  0
   10.2768    7.0170  -11.9799 C   0  0  0  0  0  0  0  0  0  0  0  0
   12.9237    6.5822  -14.5759 O   0  0  0  0  0  0  0  0  0  0  0  0
   10.8906    6.6526  -13.2252 C   0  0  0  0  0  0  0  0  0  0  0  0
   12.2396    6.1290  -15.6916 C   0  0  0  0  0  0  0  0  0  0  0  0
    7.8036    6.1825  -11.9342 C   0  0  0  0  0  0  0  0  0  0  0  0
   12.5015    4.7115  -15.7686 C   0  0  0  0  0  0  0  0  0  0  0  0
    7.1685    6.9992  -12.8245 C   0  0  0  0  0  0  0  0  0  0  0  0
   11.2461    3.8540  -15.4851 C   0  0  2  0  0  0  0  0  0  0  0  0
    7.6237    4.9154  -11.6529 C   0  0  0  0  0  0  0  0  0  0  0  0
    6.6378    4.1960  -12.2267 C   0  0  0  0  0  0  0  0  0  0  0  0
    6.2717    2.7675  -11.9743 C   0  0  0  0  0  0  0  0  0  0  0  0
    6.6569    1.8873  -12.9460 C   0  0  0  0  0  0  0  0  0  0  0  0
    7.3895    8.4597  -13.1785 C   0  0  0  0  0  0  0  0  0  0  0  0
    6.3114    0.5653  -12.7247 C   0  0  0  0  0  0  0  0  0  0  0  0
    7.7684    2.0327  -13.9055 C   0  0  0  0  0  0  0  0  0  0  0  0
    6.9387   -0.3720  -13.7691 C   0  0  0  0  0  0  0  0  0  0  0  0
    8.4223    3.3339  -14.0264 C   0  0  0  0  0  0  0  0  0  0  0  0
    9.9233    3.2491  -14.0383 C   0  0  0  0  0  0  0  0  0  0  0  0
   10.7554    4.1043  -14.1438 O   0  0  0  0  0  0  0  0  0  0  0  0
    7.8881   -0.1105  -14.6109 C   0  0  0  0  0  0  0  0  0  0  0  0
   10.4071    2.1302  -14.6473 C   0  0  0  0  0  0  0  0  0  0  0  0
   11.3730    2.5388  -15.5685 C   0  0  0  0  0  0  0  0  0  0  0  0
    8.2829    1.1348  -14.6389 C   0  0  0  0  0  0  0  0  0  0  0  0
    9.5023    1.1133  -15.1686 O   0  0  0  0  0  0  0  0  0  0  0  0
  1  2  1  0  0  0  0
  1 10  2  0  0  0  0
  2  3  1  0  0  0  0
  2  5  2  0  0  0  0
  3  4  1  0  0  0  0
  4  6  1  6  0  0  0
  4  9  1  0  0  0  0
  5  8  1  0  0  0  0
  5 12  1  0  0  0  0
  6  7  1  0  0  0  0
  7 11  1  0  0  0  0
  7 16  2  0  0  0  0
  8  9  1  0  0  0  0
 10 14  1  0  0  0  0
 11 13  2  0  0  0  0
 11 20  1  0  0  0  0
 12 14  2  0  0  0  0
 13 15  1  0  0  0  0
 13 18  1  0  0  0  0
 16 17  1  0  0  0  0
 17 20  1  0  0  0  0
 17 24  1  0  0  0  0
 18 19  2  0  0  0  0
 19 21  1  0  0  0  0
 19 22  1  0  0  0  0
 20 22  2  0  0  0  0
 21 23  1  0  0  0  0
 23 25  1  0  0  0  0
 24 26  2  3  0  0  0
 24 28  1  0  0  0  0
 26 32  1  0  0  0  0
 27 25  1  1  0  0  0
 27 38  1  0  0  0  0
 27 41  1  0  0  0  0
 28 29  2  0  0  0  0
 29 30  1  0  0  0  0
 30 31  1  0  0  0  0
 31 33  2  0  0  0  0
 31 34  1  0  0  0  0
 33 35  1  0  0  0  0
 34 36  1  0  0  0  0
 34 42  2  0  0  0  0
 35 39  2  0  0  0  0
 36 37  1  0  0  0  0
 37 38  1  0  0  0  0
 37 40  2  0  0  0  0
 39 42  1  0  0  0  0
 40 41  1  0  0  0  0
 40 43  1  0  0  0  0
 42 43  1  0  0  0  0
M  END
$$$$

 OpenBabel10082411353D

 43 48  0  0  0  0  0  0  0  0999 V2000
   10.9951    9.9694   -4.9946 C   0  0  0  0  0  0  0  0  0  0  0  0
   11.7938    9.3762   -4.2463 C   0  0  0  0  0  0  0  0  0  0  0  0
   10.8673    9.4548   -6.4276 C   0  0  0  0  0  0  0  0  0  0  0  0
   11.6576    7.9117   -4.2944 C   0  0  0  0  0  0  0  0  0  0  0  0
   10.5498    8.0257   -6.4521 C   0  0  0  0  0  0  0  0  0  0  0  0
   11.4715    7.2752   -5.6166 C   0  0  0  0  0  0  0  0  0  0  0  0
   10.5840    7.5390   -7.9254 C   0  0  0  0  0  0  0  0  0  0  0  0
   11.4612    8.1494   -8.8322 C   0  0  0  0  0  0  0  0  0  0  0  0
   12.6250    8.6294   -8.4338 O   0  0  0  0  0  0  0  0  0  0  0  0
   11.0835    8.4395  -10.0740 O   0  0  0  0  0  0  0  0  0  0  0  0
   11.2938    7.5612  -11.0769 C   0  0  0  0  0  0  0  0  0  0  0  0
   10.1547    7.2525  -11.9492 C   0  0  0  0  0  0  0  0  0  0  0  0
   10.4293    6.5622  -13.1348 C   0  0  0  0  0  0  0  0  0  0  0  0
   11.7295    6.4217  -13.6243 C   0  0  0  0  0  0  0  0  0  0  0  0
    8.8120    7.3918  -11.4649 C   0  0  0  0  0  0  0  0  0  0  0  0
   12.5351    7.8894  -11.6869 C   0  0  0  0  0  0  0  0  0  0  0  0
   13.5778    8.4243  -10.9673 O   0  0  0  0  0  0  0  0  0  0  0  0
    7.7211    7.1761  -12.4323 C   0  0  0  0  0  0  0  0  0  0  0  0
   12.8103    7.0723  -12.8897 C   0  0  0  0  0  0  0  0  0  0  0  0
    7.0543    5.9667  -12.3369 C   0  0  0  0  0  0  0  0  0  0  0  0
    7.2392    8.1844  -13.1320 C   0  0  0  0  0  0  0  0  0  0  0  0
    6.6882    5.3848  -13.5016 O   0  0  0  0  0  0  0  0  0  0  0  0
    6.5103    5.5543  -11.3870 O   0  0  0  0  0  0  0  0  0  0  0  0
    7.4031    4.0506  -13.7852 C   0  0  0  0  0  0  0  0  0  0  0  0
    8.6811    3.9966  -14.1333 C   0  0  0  0  0  0  0  0  0  0  0  0
   12.0732    5.6649  -14.9357 C   0  0  0  0  0  0  0  0  0  0  0  0
    6.5842    3.0104  -13.4449 C   0  0  0  0  0  0  0  0  0  0  0  0
   12.1810    6.3505  -15.9550 C   0  0  0  0  0  0  0  0  0  0  0  0
   12.4265    5.3943  -17.1098 C   0  0  0  0  0  0  0  0  0  0  0  0
   12.0808    4.3115  -14.6805 C   0  0  0  0  0  0  0  0  0  0  0  0
    5.1772    3.2038  -12.9749 C   0  0  0  0  0  0  0  0  0  0  0  0
   11.7401    3.5786  -13.4028 C   0  0  0  0  0  0  0  0  0  0  0  0
   12.6689    6.2031  -18.3172 O   0  0  0  0  0  0  0  0  0  0  0  0
    7.2335    1.7472  -13.7003 C   0  0  0  0  0  0  0  0  0  0  0  0
    6.3457    0.6491  -13.3147 C   0  0  0  0  0  0  0  0  0  0  0  0
    9.2302    2.7981  -14.2905 C   0  0  0  0  0  0  0  0  0  0  0  0
    8.5023    1.6740  -14.0227 C   0  0  0  0  0  0  0  0  0  0  0  0
   12.2192    4.2346  -17.1265 C   0  0  0  0  0  0  0  0  0  0  0  0
   12.3387    3.5030  -18.2833 O   0  0  0  0  0  0  0  0  0  0  0  0
   10.6089    2.6236  -14.6913 N   0  0  0  0  0  0  0  0  0  0  0  0
   11.8127    3.4959  -15.6579 C   0  0  0  0  0  0  0  0  0  0  0  0
   11.3170    2.4728  -15.4801 N   0  0  0  0  0  0  0  0  0  0  0  0
   11.1557    2.4710  -13.4640 N   0  0  0  0  0  0  0  0  0  0  0  0
  1  2  1  0  0  0  0
  1  3  1  0  0  0  0
  2  4  1  0  0  0  0
  3  5  1  0  0  0  0
  4  6  1  0  0  0  0
  5  6  1  0  0  0  0
  5  7  1  0  0  0  0
  7  8  1  0  0  0  0
  8  9  2  0  0  0  0
  8 10  1  0  0  0  0
 10 11  1  0  0  0  0
 11 12  1  0  0  0  0
 11 16  2  0  0  0  0
 12 13  2  0  0  0  0
 12 15  1  0  0  0  0
 13 14  1  0  0  0  0
 14 19  2  0  0  0  0
 14 26  1  0  0  0  0
 15 18  1  0  0  0  0
 16 17  1  0  0  0  0
 16 19  1  0  0  0  0
 18 20  1  0  0  0  0
 18 21  2  0  0  0  0
 20 22  1  0  0  0  0
 20 23  2  0  0  0  0
 22 24  1  0  0  0  0
 24 25  1  0  0  0  0
 24 27  2  0  0  0  0
 25 36  2  0  0  0  0
 26 28  2  0  0  0  0
 26 30  1  0  0  0  0
 27 31  1  0  0  0  0
 27 34  1  0  0  0  0
 28 29  1  0  0  0  0
 29 33  1  0  0  0  0
 29 38  2  0  0  0  0
 30 32  1  0  0  0  0
 30 41  2  0  0  0  0
 32 43  1  0  0  0  0
 34 35  1  0  0  0  0
 34 37  2  0  0  0  0
 36 37  1  0  0  0  0
 36 40  1  0  0  0  0
 38 39  1  0  0  0  0
 38 41  1  0  0  0  0
 40 42  1  0  0  0  0
 40 43  1  0  0  0  0
 41 42  1  0  0  0  0
M  END
$$$$

 OpenBabel10082411353D

 43 54  0  0  0  0  0  0  0  0999 V2000
    8.0806    9.0240  -12.7589 C   0  0  0  0  0  0  0  0  0  0  0  0
    8.6514    7.8645  -12.2948 C   0  0  0  0  0  0  0  0  0  0  0  0
    9.9575    7.9974  -11.8426 C   0  0  0  0  0  0  0  0  0  0  0  0
   10.7657    6.8667  -11.6050 C   0  0  1  0  0  0  0  0  0  0  0  0
   10.7682    5.9590  -12.8271 C   0  0  0  0  0  0  0  0  0  0  0  0
   12.1553    7.3846  -11.2315 C   0  0  0  0  0  0  0  0  0  0  0  0
    8.0676    6.6451  -12.2974 C   0  0  0  0  0  0  0  0  0  0  0  0
   10.1892    6.1240  -10.3860 C   0  0  0  0  0  0  0  0  0  0  0  0
   11.8375    5.4373  -13.3240 O   0  0  0  0  0  0  0  0  0  0  0  0
    8.6785    5.4761  -13.0273 C   0  0  1  0  0  0  0  0  0  0  0  0
    9.1969    5.2405  -10.4969 C   0  0  1  0  0  0  0  0  0  0  0  0
    7.2213    6.2210  -11.3074 C   0  0  1  0  0  0  0  0  0  0  0  0
   12.5590    7.6872   -9.9896 C   0  0  0  0  0  0  0  0  0  0  0  0
    9.7633    5.0333  -12.9720 C   0  0  1  0  0  0  0  0  0  0  0  0
   10.0661    4.0167  -14.0373 N   0  0  0  0  0  0  0  0  0  0  0  0
   13.6906    8.3004   -9.6233 O   0  0  0  0  0  0  0  0  0  0  0  0
    7.6357    4.5123  -12.6317 C   0  0  2  0  0  0  0  0  0  0  0  0
    6.8831    4.9171  -11.7031 C   0  0  1  0  0  0  0  0  0  0  0  0
   10.5937    6.6967   -9.1779 C   0  0  0  0  0  0  0  0  0  0  0  0
    9.5087    4.3263  -11.6925 C   0  0  2  0  0  0  0  0  0  0  0  0
   11.6359    7.4449   -8.9125 C   0  0  0  0  0  0  0  0  0  0  0  0
   11.9716    7.9159   -7.6200 C   0  0  0  0  0  0  0  0  0  0  0  0
    8.4648    3.6122  -12.2840 C   0  0  2  0  0  0  0  0  0  0  0  0
    9.3128    4.5571   -9.1689 C   0  0  0  0  0  0  0  0  0  0  0  0
   10.9557    7.6369   -6.5929 C   0  0  1  0  0  0  0  0  0  0  0  0
    9.6490    2.8108  -13.7776 C   0  0  1  0  0  0  0  0  0  0  0  0
    9.6716    6.1981   -8.0224 C   0  0  2  0  0  0  0  0  0  0  0  0
    8.5511    2.5400  -13.1402 C   0  0  0  0  0  0  0  0  0  0  0  0
    9.7877    2.0302  -15.0383 O   0  0  0  0  0  0  0  0  0  0  0  0
   10.2949    6.3957   -6.8142 C   0  0  1  0  0  0  0  0  0  0  0  0
   11.5672    7.6277   -5.2275 C   0  0  0  0  0  0  0  0  0  0  0  0
    9.0573    5.0713   -8.1077 N   0  0  0  0  0  0  0  0  0  0  0  0
    9.9816    8.7976   -6.5531 C   0  0  0  0  0  0  0  0  0  0  0  0
   11.0000    1.9397  -15.5744 C   0  0  0  0  0  0  0  0  0  0  0  0
    7.9363    5.6537  -10.4961 C   0  0  1  0  0  0  0  0  0  0  0  0
   11.7094    6.5344   -4.5880 C   0  0  0  0  0  0  0  0  0  0  0  0
   11.4771    5.4017   -5.2557 C   0  0  0  0  0  0  0  0  0  0  0  0
   10.9774    5.3782   -6.4193 C   0  0  0  0  0  0  0  0  0  0  0  0
   11.7702    8.9891   -4.6113 C   0  0  0  0  0  0  0  0  0  0  0  0
   10.6199    9.7777   -4.4950 C   0  0  0  0  0  0  0  0  0  0  0  0
   12.9225    9.3184   -4.1641 C   0  0  0  0  0  0  0  0  0  0  0  0
    8.9888    8.8668   -7.5210 O   0  0  0  0  0  0  0  0  0  0  0  0
    9.8117    9.6990   -5.6456 C   0  0  0  0  0  0  0  0  0  0  0  0
  1  2  1  0  0  0  0
  2  3  1  0  0  0  0
  2  7  2  0  0  0  0
  4  3  1  6  0  0  0
  4  5  1  0  0  0  0
  4  6  1  0  0  0  0
  4  8  1  0  0  0  0
  5  9  2  0  0  0  0
  6 13  1  0  0  0  0
  8 11  1  0  0  0  0
  8 19  2  0  0  0  0
 10  7  1  1  0  0  0
 10 14  1  0  0  0  0
 10 17  1  0  0  0  0
 11 20  1  0  0  0  0
 11 24  1  1  0  0  0
 11 35  1  0  0  0  0
 12  7  1  6  0  0  0
 12 18  1  0  0  0  0
 12 35  1  0  0  0  0
 13 16  2  0  0  0  0
 13 21  1  0  0  0  0
 14  5  1  1  0  0  0
 14 15  1  0  0  0  0
 14 20  1  0  0  0  0
 15 26  1  0  0  0  0
 17 18  1  0  0  0  0
 17 23  1  0  0  0  0
 18 35  1  0  0  0  0
 19 21  1  0  0  0  0
 19 27  1  0  0  0  0
 20 23  1  0  0  0  0
 21 22  2  0  0  0  0
 22 25  1  0  0  0  0
 23 28  1  0  0  0  0
 24 32  2  0  0  0  0
 25 30  1  0  0  0  0
 25 31  1  0  0  0  0
 25 33  1  0  0  0  0
 26 28  1  0  0  0  0
 26 29  1  0  0  0  0
 27 30  1  0  0  0  0
 27 32  1  0  0  0  0
 29 34  1  0  0  0  0
 30 38  1  0  0  0  0
 31 36  2  0  0  0  0
 31 39  1  0  0  0  0
 33 42  1  0  0  0  0
 33 43  2  0  0  0  0
 36 37  1  0  0  0  0
 37 38  2  0  0  0  0
 39 40  1  0  0  0  0
 39 41  2  0  0  0  0
 40 43  1  0  0  0  0
M  END
$$$$

 OpenBabel10082411353D

 43 54  0  0  0  0  0  0  0  0999 V2000
    8.0806    9.0240  -12.7589 C   0  0  0  0  0  0  0  0  0  0  0  0
    8.6514    7.8645  -12.2948 C   0  0  0  0  0  0  0  0  0  0  0  0
    9.9575    7.9974  -11.8426 C   0  0  0  0  0  0  0  0  0  0  0  0
   10.7657    6.8667  -11.6050 C   0  0  1  0  0  0  0  0  0  0  0  0
   10.7682    5.9590  -12.8271 C   0  0  0  0  0  0  0  0  0  0  0  0
   12.1553    7.3846  -11.2315 C   0  0  0  0  0  0  0  0  0  0  0  0
    8.0676    6.6451  -12.2974 C   0  0  0  0  0  0  0  0  0  0  0  0
   10.1892    6.1240  -10.3860 C   0  0  0  0  0  0  0  0  0  0  0  0
   11.8375    5.4373  -13.3240 O   0  0  0  0  0  0  0  0  0  0  0  0
    8.6785    5.4761  -13.0273 C   0  0  1  0  0  0  0  0  0  0  0  0
    9.1969    5.2405  -10.4969 C   0  0  2  0  0  0  0  0  0  0  0  0
    7.2213    6.2210  -11.3074 C   0  0  2  0  0  0  0  0  0  0  0  0
   12.5590    7.6872   -9.9896 C   0  0  0  0  0  0  0  0  0  0  0  0
    9.7633    5.0333  -12.9720 C   0  0  1  0  0  0  0  0  0  0  0  0
   10.0661    4.0167  -14.0373 N   0  0  0  0  0  0  0  0  0  0  0  0
   13.6906    8.3004   -9.6233 O   0  0  0  0  0  0  0  0  0  0  0  0
    7.6357    4.5123  -12.6317 C   0  0  2  0  0  0  0  0  0  0  0  0
    6.8831    4.9171  -11.7031 C   0  0  2  0  0  0  0  0  0  0  0  0
   10.5937    6.6967   -9.1779 C   0  0  0  0  0  0  0  0  0  0  0  0
    9.5087    4.3263  -11.6925 C   0  0  2  0  0  0  0  0  0  0  0  0
   11.6359    7.4449   -8.9125 C   0  0  0  0  0  0  0  0  0  0  0  0
   11.9716    7.9159   -7.6200 C   0  0  0  0  0  0  0  0  0  0  0  0
    8.4648    3.6122  -12.2840 C   0  0  1  0  0  0  0  0  0  0  0  0
    7.9253    2.8004  -11.3926 C   0  0  2  0  0  0  0  0  0  0  0  0
    5.6047    4.5059  -11.7589 C   0  0  0  0  0  0  0  0  0  0  0  0
    7.6606    4.1297  -10.5699 C   0  0  0  0  0  0  0  0  0  0  0  0
   10.9559    7.6849   -6.6057 C   0  0  0  0  0  0  0  0  0  0  0  0
    8.0094    4.5092   -9.5664 C   0  0  0  0  0  0  0  0  0  0  0  0
    8.3033    4.0627   -8.4980 C   0  0  0  0  0  0  0  0  0  0  0  0
    6.3587    7.1012  -11.0392 O   0  0  0  0  0  0  0  0  0  0  0  0
   11.0186    3.9598  -14.9226 C   0  0  0  0  0  0  0  0  0  0  0  0
    8.1758    5.8633  -10.2511 C   0  0  1  0  0  0  0  0  0  0  0  0
   11.4648    2.7104  -15.2650 O   0  0  0  0  0  0  0  0  0  0  0  0
    9.9512    6.8220   -6.8436 C   0  0  0  0  0  0  0  0  0  0  0  0
    9.6899    6.3705   -8.1082 C   0  0  2  0  0  0  0  0  0  0  0  0
    9.1306    2.9610  -13.9685 C   0  0  0  0  0  0  0  0  0  0  0  0
    8.8414    5.0113   -7.7726 C   0  0  0  0  0  0  0  0  0  0  0  0
   11.0996    4.8769  -15.8101 O   0  0  0  0  0  0  0  0  0  0  0  0
   11.2285    8.3650   -5.2735 C   0  0  0  0  0  0  0  0  0  0  0  0
   11.8523    9.6839   -5.2746 C   0  0  0  0  0  0  0  0  0  0  0  0
    8.6758    2.4336  -12.9279 C   0  0  1  0  0  0  0  0  0  0  0  0
   12.1129    7.5294   -4.4384 C   0  0  0  0  0  0  0  0  0  0  0  0
    9.8260    8.7122   -4.6507 C   0  0  0  0  0  0  0  0  0  0  0  0
  1  2  1  0  0  0  0
  2  3  1  0  0  0  0
  2  7  2  0  0  0  0
  4  3  1  6  0  0  0
  4  5  1  0  0  0  0
  4  6  1  0  0  0  0
  4  8  1  0  0  0  0
  5  9  2  0  0  0  0
  6 13  1  0  0  0  0
  7 12  1  0  0  0  0
  8 19  2  0  0  0  0
 10  7  1  1  0  0  0
 10 14  1  0  0  0  0
 10 17  1  0  0  0  0
 11  8  1  6  0  0  0
 11 20  1  0  0  0  0
 11 32  1  0  0  0  0
 12 18  1  0  0  0  0
 12 30  1  1  0  0  0
 12 32  1  0  0  0  0
 13 16  2  0  0  0  0
 13 21  1  0  0  0  0
 14  5  1  1  0  0  0
 14 15  1  0  0  0  0
 14 20  1  0  0  0  0
 15 31  1  0  0  0  0
 15 36  1  0  0  0  0
 17 18  1  0  0  0  0
 17 23  1  0  0  0  0
 18 25  1  0  0  0  0
 18 26  1  0  0  0  0
 19 21  1  0  0  0  0
 19 35  1  0  0  0  0
 20 23  1  0  0  0  0
 21 22  2  0  0  0  0
 22 27  1  0  0  0  0
 23 24  1  0  0  0  0
 23 41  1  0  0  0  0
 24 26  1  0  0  0  0
 24 41  1  0  0  0  0
 26 28  2  0  0  0  0
 27 34  2  0  0  0  0
 27 39  1  0  0  0  0
 28 29  1  0  0  0  0
 28 32  1  0  0  0  0
 29 37  2  0  0  0  0
 31 33  2  0  0  0  0
 31 38  1  0  0  0  0
 34 35  1  0  0  0  0
 35 37  1  0  0  0  0
 36 41  1  0  0  0  0
 39 40  1  0  0  0  0
 39 42  1  0  0  0  0
 39 43  1  0  0  0  0
M  END
$$$$

 OpenBabel10082411353D

 43 49  0  0  0  0  0  0  0  0999 V2000
   11.6836    6.0105   -4.8831 C   0  0  0  0  0  0  0  0  0  0  0  0
   11.1291    7.0732   -5.4395 C   0  0  0  0  0  0  0  0  0  0  0  0
   10.6954    7.0156   -6.8073 C   0  0  0  0  0  0  0  0  0  0  0  0
   10.2502    8.1187   -7.5536 C   0  0  2  0  0  0  0  0  0  0  0  0
   11.1205    8.4712   -4.9629 C   0  0  0  0  0  0  0  0  0  0  0  0
   10.8655    8.3511   -8.7960 C   0  0  0  0  0  0  0  0  0  0  0  0
   10.2922    7.8843   -9.9985 C   0  0  0  0  0  0  0  0  0  0  0  0
   10.4654    9.6993   -5.6120 C   0  0  0  0  0  0  0  0  0  0  0  0
   10.3510    9.5971   -7.0014 C   0  0  0  0  0  0  0  0  0  0  0  0
   12.2462    6.3351   -3.5020 C   0  0  0  0  0  0  0  0  0  0  0  0
   11.0471    7.5309  -11.1063 C   0  0  0  0  0  0  0  0  0  0  0  0
   11.7288    8.6923   -3.6518 C   0  0  0  0  0  0  0  0  0  0  0  0
   12.3991    7.7501  -11.1145 C   0  0  0  0  0  0  0  0  0  0  0  0
   12.3738    7.7580   -2.9599 C   0  0  0  0  0  0  0  0  0  0  0  0
   13.1285    8.5075  -10.1661 O   0  0  0  0  0  0  0  0  0  0  0  0
    9.0407    7.3775  -10.0973 N   0  0  0  0  0  0  0  0  0  0  0  0
    8.9787    6.9473  -11.4664 N   0  0  0  0  0  0  0  0  0  0  0  0
   13.1012    7.4459  -12.3707 C   0  0  0  0  0  0  0  0  0  0  0  0
   12.2395    6.9724  -13.2444 C   0  0  0  0  0  0  0  0  0  0  0  0
   10.2768    7.0170  -11.9799 C   0  0  0  0  0  0  0  0  0  0  0  0
   12.9237    6.5822  -14.5759 O   0  0  0  0  0  0  0  0  0  0  0  0
   10.8906    6.6526  -13.2252 C   0  0  0  0  0  0  0  0  0  0  0  0
   12.2396    6.1290  -15.6916 C   0  0  0  0  0  0  0  0  0  0  0  0
    7.8036    6.1825  -11.9342 C   0  0  0  0  0  0  0  0  0  0  0  0
   12.5015    4.7115  -15.7686 C   0  0  0  0  0  0  0  0  0  0  0  0
    7.1685    6.9992  -12.8245 C   0  0  0  0  0  0  0  0  0  0  0  0
   11.2461    3.8540  -15.4851 C   0  0  0  0  0  0  0  0  0  0  0  0
    7.6237    4.9154  -11.6529 C   0  0  0  0  0  0  0  0  0  0  0  0
    6.6378    4.1960  -12.2267 C   0  0  0  0  0  0  0  0  0  0  0  0
    6.2717    2.7675  -11.9743 C   0  0  0  0  0  0  0  0  0  0  0  0
    6.6569    1.8873  -12.9460 C   0  0  0  0  0  0  0  0  0  0  0  0
    7.3895    8.4597  -13.1785 C   0  0  0  0  0  0  0  0  0  0  0  0
    6.3114    0.5653  -12.7247 C   0  0  0  0  0  0  0  0  0  0  0  0
   11.3885    2.5830  -15.4863 O   0  0  0  0  0  0  0  0  0  0  0  0
    7.4815    2.1853  -14.0878 C   0  0  0  0  0  0  0  0  0  0  0  0
   10.0671    4.4249  -15.4648 O   0  0  0  0  0  0  0  0  0  0  0  0
    6.9068   -0.3393  -13.8429 C   0  0  0  0  0  0  0  0  0  0  0  0
    7.9156    3.5885  -14.2394 C   0  0  0  0  0  0  0  0  0  0  0  0
    7.9792    1.3984  -14.7530 C   0  0  0  0  0  0  0  0  0  0  0  0
    8.9112    1.7851  -15.8925 O   0  0  0  0  0  0  0  0  0  0  0  0
    8.8206    3.7297  -15.0940 C   0  0  0  0  0  0  0  0  0  0  0  0
    7.1436    4.5600  -13.5031 O   0  0  0  0  0  0  0  0  0  0  0  0
    7.7366    0.0246  -14.7620 C   0  0  0  0  0  0  0  0  0  0  0  0
  1  2  1  0  0  0  0
  1 10  2  0  0  0  0
  2  3  1  0  0  0  0
  2  5  2  0  0  0  0
  3  4  1  0  0  0  0
  4  6  1  6  0  0  0
  4  9  1  0  0  0  0
  5  8  1  0  0  0  0
  5 12  1  0  0  0  0
  6  7  1  0  0  0  0
  7 11  1  0  0  0  0
  7 16  2  0  0  0  0
  8  9  1  0  0  0  0
 10 14  1  0  0  0  0
 11 13  2  0  0  0  0
 11 20  1  0  0  0  0
 12 14  2  0  0  0  0
 13 15  1  0  0  0  0
 13 18  1  0  0  0  0
 16 17  1  0  0  0  0
 17 20  1  0  0  0  0
 17 24  1  0  0  0  0
 18 19  2  0  0  0  0
 19 21  1  0  0  0  0
 19 22  1  0  0  0  0
 20 22  2  0  0  0  0
 21 23  1  0  0  0  0
 23 25  1  0  0  0  0
 24 26  2  3  0  0  0
 24 28  1  0  0  0  0
 25 27  1  0  0  0  0
 26 32  1  0  0  0  0
 27 34  2  0  0  0  0
 27 36  1  0  0  0  0
 28 29  2  0  0  0  0
 29 30  1  0  0  0  0
 29 42  1  0  0  0  0
 30 31  1  0  0  0  0
 31 33  2  0  0  0  0
 31 35  1  0  0  0  0
 33 37  1  0  0  0  0
 35 38  1  0  0  0  0
 35 39  2  0  0  0  0
 36 41  1  0  0  0  0
 37 43  2  0  0  0  0
 38 41  2  0  0  0  0
 38 42  1  0  0  0  0
 39 40  1  0  0  0  0
 39 43  1  0  0  0  0
M  END
$$$$

 OpenBabel10082411353D

 43 50  0  0  0  0  0  0  0  0999 V2000
   11.6836    6.0105   -4.8831 C   0  0  0  0  0  0  0  0  0  0  0  0
   11.1291    7.0732   -5.4395 C   0  0  0  0  0  0  0  0  0  0  0  0
   10.6954    7.0156   -6.8073 C   0  0  0  0  0  0  0  0  0  0  0  0
   10.2502    8.1187   -7.5536 C   0  0  2  0  0  0  0  0  0  0  0  0
   11.1205    8.4712   -4.9629 C   0  0  0  0  0  0  0  0  0  0  0  0
   10.8655    8.3511   -8.7960 C   0  0  0  0  0  0  0  0  0  0  0  0
   10.2922    7.8843   -9.9985 C   0  0  0  0  0  0  0  0  0  0  0  0
   10.4654    9.6993   -5.6120 C   0  0  0  0  0  0  0  0  0  0  0  0
   10.3510    9.5971   -7.0014 C   0  0  0  0  0  0  0  0  0  0  0  0
   12.2462    6.3351   -3.5020 C   0  0  0  0  0  0  0  0  0  0  0  0
   11.0471    7.5309  -11.1063 C   0  0  0  0  0  0  0  0  0  0  0  0
   11.7288    8.6923   -3.6518 C   0  0  0  0  0  0  0  0  0  0  0  0
   12.3991    7.7501  -11.1145 C   0  0  0  0  0  0  0  0  0  0  0  0
   12.3738    7.7580   -2.9599 C   0  0  0  0  0  0  0  0  0  0  0  0
   13.1285    8.5075  -10.1661 O   0  0  0  0  0  0  0  0  0  0  0  0
    9.0407    7.3775  -10.0973 N   0  0  0  0  0  0  0  0  0  0  0  0
    8.9787    6.9473  -11.4664 N   0  0  0  0  0  0  0  0  0  0  0  0
   13.1012    7.4459  -12.3707 C   0  0  0  0  0  0  0  0  0  0  0  0
   12.2395    6.9724  -13.2444 C   0  0  0  0  0  0  0  0  0  0  0  0
   10.2768    7.0170  -11.9799 C   0  0  0  0  0  0  0  0  0  0  0  0
   12.9237    6.5822  -14.5759 O   0  0  0  0  0  0  0  0  0  0  0  0
   10.8906    6.6526  -13.2252 C   0  0  0  0  0  0  0  0  0  0  0  0
   12.2396    6.1290  -15.6916 C   0  0  0  0  0  0  0  0  0  0  0  0
    7.8036    6.1825  -11.9342 C   0  0  0  0  0  0  0  0  0  0  0  0
   12.5015    4.7115  -15.7686 C   0  0  0  0  0  0  0  0  0  0  0  0
    7.1685    6.9992  -12.8245 C   0  0  0  0  0  0  0  0  0  0  0  0
   11.2461    3.8540  -15.4851 C   0  0  0  0  0  0  0  0  0  0  0  0
    7.6237    4.9154  -11.6529 C   0  0  0  0  0  0  0  0  0  0  0  0
    6.6378    4.1960  -12.2267 C   0  0  0  0  0  0  0  0  0  0  0  0
    6.2717    2.7675  -11.9743 C   0  0  0  0  0  0  0  0  0  0  0  0
    6.6569    1.8873  -12.9460 C   0  0  0  0  0  0  0  0  0  0  0  0
    7.3895    8.4597  -13.1785 C   0  0  0  0  0  0  0  0  0  0  0  0
    6.3114    0.5653  -12.7247 C   0  0  0  0  0  0  0  0  0  0  0  0
    7.7684    2.0327  -13.9055 C   0  0  0  0  0  0  0  0  0  0  0  0
    6.9387   -0.3720  -13.7691 C   0  0  0  0  0  0  0  0  0  0  0  0
    8.4223    3.3339  -14.0264 C   0  0  0  0  0  0  0  0  0  0  0  0
    8.2908    1.0246  -14.6080 C   0  0  2  0  0  0  0  0  0  0  0  0
    7.8743   -0.1809  -14.5479 C   0  0  0  0  0  0  0  0  0  0  0  0
   11.2492    2.9669  -14.5753 C   0  0  0  0  0  0  0  0  0  0  0  0
   10.1177    2.0196  -14.4997 C   0  0  2  0  0  0  0  0  0  0  0  0
    9.4659    1.3750  -15.1753 N   0  0  0  0  0  0  0  0  0  0  0  0
    9.6339    3.1954  -14.1437 C   0  0  0  0  0  0  0  0  0  0  0  0
   10.3226    4.3227  -14.4964 C   0  0  0  0  0  0  0  0  0  0  0  0
  1  2  1  0  0  0  0
  1 10  2  0  0  0  0
  2  3  1  0  0  0  0
  2  5  2  0  0  0  0
  3  4  1  0  0  0  0
  4  6  1  6  0  0  0
  4  9  1  0  0  0  0
  5  8  1  0  0  0  0
  5 12  1  0  0  0  0
  6  7  1  0  0  0  0
  7 11  1  0  0  0  0
  7 16  2  0  0  0  0
  8  9  1  0  0  0  0
 10 14  1  0  0  0  0
 11 13  2  0  0  0  0
 11 20  1  0  0  0  0
 12 14  2  0  0  0  0
 13 15  1  0  0  0  0
 13 18  1  0  0  0  0
 16 17  1  0  0  0  0
 17 20  1  0  0  0  0
 17 24  1  0  0  0  0
 18 19  2  0  0  0  0
 19 21  1  0  0  0  0
 19 22  1  0  0  0  0
 20 22  2  0  0  0  0
 21 23  1  0  0  0  0
 23 25  1  0  0  0  0
 24 26  2  3  0  0  0
 24 28  1  0  0  0  0
 25 27  1  0  0  0  0
 26 32  1  0  0  0  0
 27 39  2  0  0  0  0
 27 43  1  0  0  0  0
 28 29  2  0  0  0  0
 29 30  1  0  0  0  0
 30 31  1  0  0  0  0
 31 33  2  0  0  0  0
 31 34  1  0  0  0  0
 33 35  1  0  0  0  0
 34 36  2  0  0  0  0
 34 37  1  0  0  0  0
 35 38  1  0  0  0  0
 36 42  1  0  0  0  0
 37 38  1  1  0  0  0
 37 41  1  0  0  0  0
 40 39  1  6  0  0  0
 40 41  1  0  0  0  0
 40 42  1  0  0  0  0
 42 43  2  0  0  0  0
M  END
$$$$

 OpenBabel10082411353D

 43 49  0  0  0  0  0  0  0  0999 V2000
   11.6836    6.0105   -4.8831 C   0  0  0  0  0  0  0  0  0  0  0  0
   11.1291    7.0732   -5.4395 C   0  0  0  0  0  0  0  0  0  0  0  0
   10.6954    7.0156   -6.8073 C   0  0  0  0  0  0  0  0  0  0  0  0
   10.2502    8.1187   -7.5536 C   0  0  2  0  0  0  0  0  0  0  0  0
   11.1205    8.4712   -4.9629 C   0  0  0  0  0  0  0  0  0  0  0  0
   10.8655    8.3511   -8.7960 C   0  0  0  0  0  0  0  0  0  0  0  0
   10.2922    7.8843   -9.9985 C   0  0  0  0  0  0  0  0  0  0  0  0
   10.4654    9.6993   -5.6120 C   0  0  0  0  0  0  0  0  0  0  0  0
   10.3510    9.5971   -7.0014 C   0  0  0  0  0  0  0  0  0  0  0  0
   12.2462    6.3351   -3.5020 C   0  0  0  0  0  0  0  0  0  0  0  0
   11.0471    7.5309  -11.1063 C   0  0  0  0  0  0  0  0  0  0  0  0
   11.7288    8.6923   -3.6518 C   0  0  0  0  0  0  0  0  0  0  0  0
   12.3991    7.7501  -11.1145 C   0  0  0  0  0  0  0  0  0  0  0  0
   12.3738    7.7580   -2.9599 C   0  0  0  0  0  0  0  0  0  0  0  0
   13.1285    8.5075  -10.1661 O   0  0  0  0  0  0  0  0  0  0  0  0
    9.0407    7.3775  -10.0973 N   0  0  0  0  0  0  0  0  0  0  0  0
    8.9787    6.9473  -11.4664 N   0  0  0  0  0  0  0  0  0  0  0  0
   13.1012    7.4459  -12.3707 C   0  0  0  0  0  0  0  0  0  0  0  0
   12.2395    6.9724  -13.2444 C   0  0  0  0  0  0  0  0  0  0  0  0
   10.2768    7.0170  -11.9799 C   0  0  0  0  0  0  0  0  0  0  0  0
   12.9237    6.5822  -14.5759 O   0  0  0  0  0  0  0  0  0  0  0  0
   10.8906    6.6526  -13.2252 C   0  0  0  0  0  0  0  0  0  0  0  0
   12.2396    6.1290  -15.6916 C   0  0  0  0  0  0  0  0  0  0  0  0
    7.8036    6.1825  -11.9342 C   0  0  0  0  0  0  0  0  0  0  0  0
   12.5015    4.7115  -15.7686 C   0  0  0  0  0  0  0  0  0  0  0  0
    7.1685    6.9992  -12.8245 C   0  0  0  0  0  0  0  0  0  0  0  0
   11.2461    3.8540  -15.4851 C   0  0  0  0  0  0  0  0  0  0  0  0
    7.6237    4.9154  -11.6529 C   0  0  0  0  0  0  0  0  0  0  0  0
    6.6378    4.1960  -12.2267 C   0  0  0  0  0  0  0  0  0  0  0  0
    6.2717    2.7675  -11.9743 C   0  0  0  0  0  0  0  0  0  0  0  0
    6.6569    1.8873  -12.9460 C   0  0  0  0  0  0  0  0  0  0  0  0
    7.3895    8.4597  -13.1785 C   0  0  0  0  0  0  0  0  0  0  0  0
    6.3114    0.5653  -12.7247 C   0  0  0  0  0  0  0  0  0  0  0  0
    7.7684    2.0327  -13.9055 C   0  0  0  0  0  0  0  0  0  0  0  0
    8.3733    3.3319  -14.0408 C   0  0  0  0  0  0  0  0  0  0  0  0
    6.7866   -0.4375  -13.6507 C   0  0  0  0  0  0  0  0  0  0  0  0
   11.3491    2.6020  -15.5284 O   0  0  0  0  0  0  0  0  0  0  0  0
   10.0815    4.4913  -15.3913 N   0  0  0  0  0  0  0  0  0  0  0  0
    8.2781    1.1143  -14.4231 C   0  0  0  0  0  0  0  0  0  0  0  0
    9.3799    1.3491  -15.4573 C   0  0  0  0  0  0  0  0  0  0  0  0
    7.7708   -0.1979  -14.4730 C   0  0  0  0  0  0  0  0  0  0  0  0
    8.8774    3.6823  -15.0187 C   0  0  1  0  0  0  0  0  0  0  0  0
    9.1074    2.5760  -16.0901 C   0  0  0  0  0  0  0  0  0  0  0  0
  1  2  1  0  0  0  0
  1 10  2  0  0  0  0
  2  3  1  0  0  0  0
  2  5  2  0  0  0  0
  3  4  1  0  0  0  0
  4  6  1  6  0  0  0
  4  9  1  0  0  0  0
  5  8  1  0  0  0  0
  5 12  1  0  0  0  0
  6  7  1  0  0  0  0
  7 11  1  0  0  0  0
  7 16  2  0  0  0  0
  8  9  1  0  0  0  0
 10 14  1  0  0  0  0
 11 13  2  0  0  0  0
 11 20  1  0  0  0  0
 12 14  2  0  0  0  0
 13 15  1  0  0  0  0
 13 18  1  0  0  0  0
 16 17  1  0  0  0  0
 17 20  1  0  0  0  0
 17 24  1  0  0  0  0
 18 19  2  0  0  0  0
 19 21  1  0  0  0  0
 19 22  1  0  0  0  0
 20 22  2  0  0  0  0
 21 23  1  0  0  0  0
 23 25  1  0  0  0  0
 24 26  2  3  0  0  0
 24 28  1  0  0  0  0
 25 27  1  0  0  0  0
 26 32  1  0  0  0  0
 27 37  2  0  0  0  0
 27 38  1  0  0  0  0
 28 29  2  0  0  0  0
 29 30  1  0  0  0  0
 30 31  1  0  0  0  0
 31 33  2  0  0  0  0
 31 34  1  0  0  0  0
 33 36  1  0  0  0  0
 34 35  1  0  0  0  0
 34 39  2  0  0  0  0
 36 41  2  0  0  0  0
 38 42  1  0  0  0  0
 39 40  1  0  0  0  0
 39 41  1  0  0  0  0
 40 43  1  0  0  0  0
 42 35  1  1  0  0  0
 42 43  1  0  0  0  0
M  END
$$$$

 OpenBabel10082411353D

 43 48  0  0  0  0  0  0  0  0999 V2000
   10.9951    9.9694   -4.9946 C   0  0  0  0  0  0  0  0  0  0  0  0
   11.7938    9.3762   -4.2463 C   0  0  0  0  0  0  0  0  0  0  0  0
   10.8673    9.4548   -6.4276 C   0  0  0  0  0  0  0  0  0  0  0  0
   11.6576    7.9117   -4.2944 C   0  0  0  0  0  0  0  0  0  0  0  0
   10.5498    8.0257   -6.4521 C   0  0  0  0  0  0  0  0  0  0  0  0
   11.4715    7.2752   -5.6166 C   0  0  0  0  0  0  0  0  0  0  0  0
   10.5840    7.5390   -7.9254 C   0  0  0  0  0  0  0  0  0  0  0  0
   11.4612    8.1494   -8.8322 C   0  0  0  0  0  0  0  0  0  0  0  0
   12.6250    8.6294   -8.4338 O   0  0  0  0  0  0  0  0  0  0  0  0
   11.0835    8.4395  -10.0740 O   0  0  0  0  0  0  0  0  0  0  0  0
   11.2938    7.5612  -11.0769 C   0  0  0  0  0  0  0  0  0  0  0  0
   10.1547    7.2525  -11.9492 C   0  0  0  0  0  0  0  0  0  0  0  0
   10.4293    6.5622  -13.1348 C   0  0  0  0  0  0  0  0  0  0  0  0
   11.7295    6.4217  -13.6243 C   0  0  0  0  0  0  0  0  0  0  0  0
    8.8120    7.3918  -11.4649 C   0  0  0  0  0  0  0  0  0  0  0  0
   12.5351    7.8894  -11.6869 C   0  0  0  0  0  0  0  0  0  0  0  0
   13.5778    8.4243  -10.9673 O   0  0  0  0  0  0  0  0  0  0  0  0
    7.7211    7.1761  -12.4323 C   0  0  0  0  0  0  0  0  0  0  0  0
   12.8103    7.0723  -12.8897 C   0  0  0  0  0  0  0  0  0  0  0  0
    7.0543    5.9667  -12.3369 C   0  0  0  0  0  0  0  0  0  0  0  0
    7.2392    8.1844  -13.1320 C   0  0  0  0  0  0  0  0  0  0  0  0
    6.6882    5.3848  -13.5016 O   0  0  0  0  0  0  0  0  0  0  0  0
    6.5103    5.5543  -11.3870 O   0  0  0  0  0  0  0  0  0  0  0  0
    7.4031    4.0506  -13.7852 C   0  0  0  0  0  0  0  0  0  0  0  0
    8.6811    3.9966  -14.1333 C   0  0  0  0  0  0  0  0  0  0  0  0
   12.0732    5.6649  -14.9357 C   0  0  0  0  0  0  0  0  0  0  0  0
    6.5842    3.0104  -13.4449 C   0  0  0  0  0  0  0  0  0  0  0  0
   12.1810    6.3505  -15.9550 C   0  0  0  0  0  0  0  0  0  0  0  0
   12.4265    5.3943  -17.1098 C   0  0  0  0  0  0  0  0  0  0  0  0
   12.0808    4.3115  -14.6805 C   0  0  0  0  0  0  0  0  0  0  0  0
    5.1772    3.2038  -12.9749 C   0  0  0  0  0  0  0  0  0  0  0  0
   11.7401    3.5786  -13.4028 C   0  0  0  0  0  0  0  0  0  0  0  0
   12.6689    6.2031  -18.3172 O   0  0  0  0  0  0  0  0  0  0  0  0
    7.2335    1.7472  -13.7003 C   0  0  0  0  0  0  0  0  0  0  0  0
    6.3457    0.6491  -13.3147 C   0  0  0  0  0  0  0  0  0  0  0  0
    9.2302    2.7981  -14.2905 C   0  0  0  0  0  0  0  0  0  0  0  0
    8.5023    1.6740  -14.0227 C   0  0  0  0  0  0  0  0  0  0  0  0
   12.2192    4.2346  -17.1265 C   0  0  0  0  0  0  0  0  0  0  0  0
   12.3387    3.5030  -18.2833 O   0  0  0  0  0  0  0  0  0  0  0  0
   10.6089    2.6236  -14.6913 N   0  0  0  0  0  0  0  0  0  0  0  0
   11.8127    3.4959  -15.6579 C   0  0  0  0  0  0  0  0  0  0  0  0
   11.3170    2.4728  -15.4801 N   0  0  0  0  0  0  0  0  0  0  0  0
   11.0609    2.7033  -13.3375 N   0  0  0  0  0  0  0  0  0  0  0  0
  1  2  1  0  0  0  0
  1  3  1  0  0  0  0
  2  4  1  0  0  0  0
  3  5  1  0  0  0  0
  4  6  1  0  0  0  0
  5  6  1  0  0  0  0
  5  7  1  0  0  0  0
  7  8  1  0  0  0  0
  8  9  2  0  0  0  0
  8 10  1  0  0  0  0
 10 11  1  0  0  0  0
 11 12  1  0  0  0  0
 11 16  2  0  0  0  0
 12 13  2  0  0  0  0
 12 15  1  0  0  0  0
 13 14  1  0  0  0  0
 14 19  2  0  0  0  0
 14 26  1  0  0  0  0
 15 18  1  0  0  0  0
 16 17  1  0  0  0  0
 16 19  1  0  0  0  0
 18 20  1  0  0  0  0
 18 21  2  0  0  0  0
 20 22  1  0  0  0  0
 20 23  2  0  0  0  0
 22 24  1  0  0  0  0
 24 25  1  0  0  0  0
 24 27  2  0  0  0  0
 25 36  2  0  0  0  0
 26 28  2  0  0  0  0
 26 30  1  0  0  0  0
 27 31  1  0  0  0  0
 27 34  1  0  0  0  0
 28 29  1  0  0  0  0
 29 33  1  0  0  0  0
 29 38  2  0  0  0  0
 30 32  1  0  0  0  0
 30 41  2  0  0  0  0
 32 43  2  0  0  0  0
 34 35  1  0  0  0  0
 34 37  2  0  0  0  0
 36 37  1  0  0  0  0
 36 40  1  0  0  0  0
 38 39  1  0  0  0  0
 38 41  1  0  0  0  0
 40 42  1  0  0  0  0
 40 43  1  0  0  0  0
 41 42  1  0  0  0  0
M  END
$$$$

 OpenBabel10082411353D

 27 30  0  0  0  0  0  0  0  0999 V2000
   11.9925    6.6083   -4.7728 C   0  0  0  0  0  0  0  0  0  0  0  0
   11.4477    7.7141   -5.2577 C   0  0  0  0  0  0  0  0  0  0  0  0
   12.2896    6.5964   -3.2881 C   0  0  0  0  0  0  0  0  0  0  0  0
   11.4087    8.9270   -4.5689 C   0  0  0  0  0  0  0  0  0  0  0  0
   11.0700    7.6482   -6.7180 C   0  0  0  0  0  0  0  0  0  0  0  0
   11.9031    8.9562   -3.1377 C   0  0  0  0  0  0  0  0  0  0  0  0
   12.3774    7.8477   -2.5217 C   0  0  0  0  0  0  0  0  0  0  0  0
   10.4761    6.5776   -7.2169 C   0  0  0  0  0  0  0  0  0  0  0  0
   10.6681    8.9492   -7.1472 C   0  0  0  0  0  0  0  0  0  0  0  0
   10.1085    6.6234   -8.6282 C   0  0  0  0  0  0  0  0  0  0  0  0
   10.4500    9.0125   -8.6924 C   0  0  0  0  0  0  0  0  0  0  0  0
    9.6601    7.9334   -9.1481 N   0  0  0  0  0  0  0  0  0  0  0  0
    9.4452    7.9310  -10.5569 C   0  0  0  0  0  0  0  0  0  0  0  0
    9.6484    6.9783  -11.2444 C   0  0  0  0  0  0  0  0  0  0  0  0
    9.2204    9.1620  -11.1118 O   0  0  0  0  0  0  0  0  0  0  0  0
    8.7362    5.9509  -11.2837 C   0  0  0  0  0  0  0  0  0  0  0  0
    8.8536    4.7666  -12.1368 C   0  0  0  0  0  0  0  0  0  0  0  0
   10.6809    6.9310  -12.3353 C   0  0  0  0  0  0  0  0  0  0  0  0
    9.8671    4.6993  -13.0577 C   0  0  0  0  0  0  0  0  0  0  0  0
   11.5765    7.9772  -12.5141 O   0  0  0  0  0  0  0  0  0  0  0  0
   10.8020    5.8254  -13.2017 C   0  0  0  0  0  0  0  0  0  0  0  0
   10.0433    3.8155  -13.8024 N   0  0  0  0  0  0  0  0  0  0  0  0
    9.3779    2.5500  -13.8153 N   0  0  0  0  0  0  0  0  0  0  0  0
   11.3389    3.4656  -14.5529 C   0  0  0  0  0  0  0  0  0  0  0  0
   12.5214    7.8553  -13.5787 C   0  0  0  0  0  0  0  0  0  0  0  0
   10.9479    2.3418  -15.3854 C   0  0  0  0  0  0  0  0  0  0  0  0
    9.8389    1.6694  -14.7603 C   0  0  0  0  0  0  0  0  0  0  0  0
  1  2  1  0  0  0  0
  1  3  2  0  0  0  0
  2  4  2  0  0  0  0
  2  5  1  0  0  0  0
  3  7  1  0  0  0  0
  4  6  1  0  0  0  0
  5  8  1  0  0  0  0
  5  9  1  0  0  0  0
  6  7  2  0  0  0  0
  8 10  1  0  0  0  0
  9 11  1  0  0  0  0
 10 12  1  0  0  0  0
 11 12  1  0  0  0  0
 12 13  1  0  0  0  0
 13 14  1  0  0  0  0
 13 15  2  0  0  0  0
 14 16  2  0  0  0  0
 14 18  1  0  0  0  0
 16 17  1  0  0  0  0
 17 19  2  0  0  0  0
 18 20  1  0  0  0  0
 18 21  2  0  0  0  0
 19 21  1  0  0  0  0
 19 22  1  0  0  0  0
 20 25  1  0  0  0  0
 22 23  1  0  0  0  0
 22 24  1  0  0  0  0
 23 27  1  0  0  0  0
 24 26  1  0  0  0  0
 26 27  1  0  0  0  0
M  END
$$$$

 OpenBabel10082411353D

 43 51  0  0  0  0  0  0  0  0999 V2000
   11.6836    6.0105   -4.8831 C   0  0  0  0  0  0  0  0  0  0  0  0
   11.1291    7.0732   -5.4395 C   0  0  0  0  0  0  0  0  0  0  0  0
   10.6954    7.0156   -6.8073 C   0  0  0  0  0  0  0  0  0  0  0  0
   10.2502    8.1187   -7.5536 C   0  0  2  0  0  0  0  0  0  0  0  0
   11.1205    8.4712   -4.9629 C   0  0  0  0  0  0  0  0  0  0  0  0
   10.8655    8.3511   -8.7960 C   0  0  0  0  0  0  0  0  0  0  0  0
   10.2922    7.8843   -9.9985 C   0  0  0  0  0  0  0  0  0  0  0  0
   10.4654    9.6993   -5.6120 C   0  0  0  0  0  0  0  0  0  0  0  0
   10.3510    9.5971   -7.0014 C   0  0  0  0  0  0  0  0  0  0  0  0
   12.2462    6.3351   -3.5020 C   0  0  0  0  0  0  0  0  0  0  0  0
   11.0471    7.5309  -11.1063 C   0  0  0  0  0  0  0  0  0  0  0  0
   11.7288    8.6923   -3.6518 C   0  0  0  0  0  0  0  0  0  0  0  0
   12.3991    7.7501  -11.1145 C   0  0  0  0  0  0  0  0  0  0  0  0
   12.3738    7.7580   -2.9599 C   0  0  0  0  0  0  0  0  0  0  0  0
   13.1285    8.5075  -10.1661 O   0  0  0  0  0  0  0  0  0  0  0  0
    9.0407    7.3775  -10.0973 N   0  0  0  0  0  0  0  0  0  0  0  0
    8.9787    6.9473  -11.4664 N   0  0  0  0  0  0  0  0  0  0  0  0
   13.1012    7.4459  -12.3707 C   0  0  0  0  0  0  0  0  0  0  0  0
   12.2395    6.9724  -13.2444 C   0  0  0  0  0  0  0  0  0  0  0  0
   10.2768    7.0170  -11.9799 C   0  0  0  0  0  0  0  0  0  0  0  0
   12.9237    6.5822  -14.5759 O   0  0  0  0  0  0  0  0  0  0  0  0
   10.8906    6.6526  -13.2252 C   0  0  0  0  0  0  0  0  0  0  0  0
   12.2396    6.1290  -15.6916 C   0  0  0  0  0  0  0  0  0  0  0  0
    7.8036    6.1825  -11.9342 C   0  0  0  0  0  0  0  0  0  0  0  0
   12.5015    4.7115  -15.7686 C   0  0  0  0  0  0  0  0  0  0  0  0
    7.1685    6.9992  -12.8245 C   0  0  0  0  0  0  0  0  0  0  0  0
   11.2461    3.8540  -15.4851 C   0  0  0  0  0  0  0  0  0  0  0  0
    7.6237    4.9154  -11.6529 C   0  0  0  0  0  0  0  0  0  0  0  0
    6.6378    4.1960  -12.2267 C   0  0  0  0  0  0  0  0  0  0  0  0
    6.2717    2.7675  -11.9743 C   0  0  0  0  0  0  0  0  0  0  0  0
    6.6569    1.8873  -12.9460 C   0  0  0  0  0  0  0  0  0  0  0  0
    7.3895    8.4597  -13.1785 C   0  0  0  0  0  0  0  0  0  0  0  0
    6.3114    0.5653  -12.7247 C   0  0  0  0  0  0  0  0  0  0  0  0
    7.7684    2.0327  -13.9055 C   0  0  0  0  0  0  0  0  0  0  0  0
    6.9387   -0.3720  -13.7691 C   0  0  0  0  0  0  0  0  0  0  0  0
    8.4223    3.3339  -14.0264 C   0  0  0  0  0  0  0  0  0  0  0  0
    8.2908    1.0246  -14.6080 C   0  0  2  0  0  0  0  0  0  0  0  0
    7.8743   -0.1809  -14.5479 C   0  0  0  0  0  0  0  0  0  0  0  0
   11.2492    2.9669  -14.5753 C   0  0  0  0  0  0  0  0  0  0  0  0
   10.1365    2.0979  -14.2259 C   0  0  2  0  0  0  0  0  0  0  0  0
    9.4984    1.4692  -15.0730 N   0  0  0  0  0  0  0  0  0  0  0  0
    9.6573    3.1721  -14.0305 C   0  0  1  0  0  0  0  0  0  0  0  0
   10.2729    4.3063  -14.4139 C   0  0  2  0  0  0  0  0  0  0  0  0
  1  2  1  0  0  0  0
  1 10  2  0  0  0  0
  2  3  1  0  0  0  0
  2  5  2  0  0  0  0
  3  4  1  0  0  0  0
  4  6  1  6  0  0  0
  4  9  1  0  0  0  0
  5  8  1  0  0  0  0
  5 12  1  0  0  0  0
  6  7  1  0  0  0  0
  7 11  1  0  0  0  0
  7 16  2  0  0  0  0
  8  9  1  0  0  0  0
 10 14  1  0  0  0  0
 11 13  2  0  0  0  0
 11 20  1  0  0  0  0
 12 14  2  0  0  0  0
 13 15  1  0  0  0  0
 13 18  1  0  0  0  0
 16 17  1  0  0  0  0
 17 20  1  0  0  0  0
 17 24  1  0  0  0  0
 18 19  2  0  0  0  0
 19 21  1  0  0  0  0
 19 22  1  0  0  0  0
 20 22  2  0  0  0  0
 21 23  1  0  0  0  0
 23 25  1  0  0  0  0
 24 26  2  3  0  0  0
 24 28  1  0  0  0  0
 25 27  1  0  0  0  0
 26 32  1  0  0  0  0
 27 39  2  3  0  0  0
 28 29  2  0  0  0  0
 29 30  1  0  0  0  0
 30 31  1  0  0  0  0
 31 33  2  0  0  0  0
 31 34  1  0  0  0  0
 33 35  1  0  0  0  0
 34 36  2  0  0  0  0
 34 37  1  0  0  0  0
 35 38  1  0  0  0  0
 37 38  1  1  0  0  0
 37 41  1  0  0  0  0
 39 43  1  0  0  0  0
 40 39  1  6  0  0  0
 40 41  1  0  0  0  0
 40 42  1  0  0  0  0
 42 36  1  6  0  0  0
 42 43  1  0  0  0  0
 43 27  1  6  0  0  0
M  END
$$$$

 OpenBabel10082411353D

 43 54  0  0  0  0  0  0  0  0999 V2000
    8.0806    9.0240  -12.7589 C   0  0  0  0  0  0  0  0  0  0  0  0
    8.6514    7.8645  -12.2948 C   0  0  0  0  0  0  0  0  0  0  0  0
    9.9575    7.9974  -11.8426 C   0  0  0  0  0  0  0  0  0  0  0  0
   10.7657    6.8667  -11.6050 C   0  0  1  0  0  0  0  0  0  0  0  0
   10.7682    5.9590  -12.8271 C   0  0  0  0  0  0  0  0  0  0  0  0
   12.1553    7.3846  -11.2315 C   0  0  0  0  0  0  0  0  0  0  0  0
    8.0676    6.6451  -12.2974 C   0  0  0  0  0  0  0  0  0  0  0  0
   10.1892    6.1240  -10.3860 C   0  0  0  0  0  0  0  0  0  0  0  0
   11.8375    5.4373  -13.3240 O   0  0  0  0  0  0  0  0  0  0  0  0
    8.6785    5.4761  -13.0273 C   0  0  1  0  0  0  0  0  0  0  0  0
    9.1969    5.2405  -10.4969 C   0  0  1  0  0  0  0  0  0  0  0  0
    7.2213    6.2210  -11.3074 C   0  0  1  0  0  0  0  0  0  0  0  0
   12.5590    7.6872   -9.9896 C   0  0  0  0  0  0  0  0  0  0  0  0
    9.7633    5.0333  -12.9720 C   0  0  1  0  0  0  0  0  0  0  0  0
   10.0661    4.0167  -14.0373 N   0  0  0  0  0  0  0  0  0  0  0  0
   13.6906    8.3004   -9.6233 O   0  0  0  0  0  0  0  0  0  0  0  0
    7.6357    4.5123  -12.6317 C   0  0  2  0  0  0  0  0  0  0  0  0
    6.8831    4.9171  -11.7031 C   0  0  1  0  0  0  0  0  0  0  0  0
   10.5937    6.6967   -9.1779 C   0  0  0  0  0  0  0  0  0  0  0  0
    9.5087    4.3263  -11.6925 C   0  0  2  0  0  0  0  0  0  0  0  0
   11.6359    7.4449   -8.9125 C   0  0  0  0  0  0  0  0  0  0  0  0
   11.9716    7.9159   -7.6200 C   0  0  0  0  0  0  0  0  0  0  0  0
    8.4648    3.6122  -12.2840 C   0  0  2  0  0  0  0  0  0  0  0  0
    9.3128    4.5571   -9.1689 C   0  0  0  0  0  0  0  0  0  0  0  0
   10.9557    7.6369   -6.5929 C   0  0  1  0  0  0  0  0  0  0  0  0
    9.6490    2.8108  -13.7776 C   0  0  1  0  0  0  0  0  0  0  0  0
    9.6716    6.1981   -8.0224 C   0  0  2  0  0  0  0  0  0  0  0  0
    8.5511    2.5400  -13.1402 C   0  0  0  0  0  0  0  0  0  0  0  0
    9.7877    2.0302  -15.0383 O   0  0  0  0  0  0  0  0  0  0  0  0
   10.2949    6.3957   -6.8142 C   0  0  1  0  0  0  0  0  0  0  0  0
   11.5672    7.6277   -5.2275 C   0  0  0  0  0  0  0  0  0  0  0  0
    9.0573    5.0713   -8.1077 N   0  0  0  0  0  0  0  0  0  0  0  0
    9.9816    8.7976   -6.5531 C   0  0  0  0  0  0  0  0  0  0  0  0
   11.0000    1.9397  -15.5744 C   0  0  0  0  0  0  0  0  0  0  0  0
   11.6850    6.4911   -4.5753 C   0  0  0  0  0  0  0  0  0  0  0  0
   11.8127    8.9028   -4.4278 C   0  0  0  0  0  0  0  0  0  0  0  0
   12.3065    8.8808   -3.1994 C   0  0  0  0  0  0  0  0  0  0  0  0
   11.5476    5.2724   -5.2775 C   0  0  0  0  0  0  0  0  0  0  0  0
    7.9401    5.6396  -10.5288 C   0  0  1  0  0  0  0  0  0  0  0  0
   12.4720   10.0679   -2.4394 O   0  0  0  0  0  0  0  0  0  0  0  0
   11.1192    5.3926   -6.4796 C   0  0  0  0  0  0  0  0  0  0  0  0
   12.6738    7.6184   -2.4527 C   0  0  0  0  0  0  0  0  0  0  0  0
   12.3552    6.4952   -3.2331 C   0  0  0  0  0  0  0  0  0  0  0  0
  1  2  1  0  0  0  0
  2  3  1  0  0  0  0
  2  7  2  0  0  0  0
  4  3  1  6  0  0  0
  4  5  1  0  0  0  0
  4  6  1  0  0  0  0
  4  8  1  0  0  0  0
  5  9  2  0  0  0  0
  6 13  1  0  0  0  0
  8 11  1  0  0  0  0
  8 19  2  0  0  0  0
 10  7  1  1  0  0  0
 10 14  1  0  0  0  0
 10 17  1  0  0  0  0
 11 20  1  0  0  0  0
 11 24  1  1  0  0  0
 11 39  1  0  0  0  0
 12  7  1  6  0  0  0
 12 18  1  0  0  0  0
 12 39  1  0  0  0  0
 13 16  2  0  0  0  0
 13 21  1  0  0  0  0
 14  5  1  1  0  0  0
 14 15  1  0  0  0  0
 14 20  1  0  0  0  0
 15 26  1  0  0  0  0
 17 18  1  0  0  0  0
 17 23  1  0  0  0  0
 18 39  1  0  0  0  0
 19 21  1  0  0  0  0
 19 27  1  0  0  0  0
 20 23  1  0  0  0  0
 21 22  2  0  0  0  0
 22 25  1  0  0  0  0
 23 28  1  0  0  0  0
 24 32  2  0  0  0  0
 25 30  1  0  0  0  0
 25 31  1  0  0  0  0
 25 33  1  0  0  0  0
 26 28  1  0  0  0  0
 26 29  1  0  0  0  0
 27 30  1  0  0  0  0
 27 32  1  0  0  0  0
 29 34  1  0  0  0  0
 30 41  1  0  0  0  0
 31 35  2  0  0  0  0
 31 36  1  0  0  0  0
 35 38  1  0  0  0  0
 35 43  1  0  0  0  0
 36 37  2  0  0  0  0
 37 40  1  0  0  0  0
 37 42  1  0  0  0  0
 38 41  1  0  0  0  0
 42 43  2  0  0  0  0
M  END
$$$$

 OpenBabel10082411353D

 43 54  0  0  0  0  0  0  0  0999 V2000
    8.0806    9.0240  -12.7589 C   0  0  0  0  0  0  0  0  0  0  0  0
    8.6514    7.8645  -12.2948 C   0  0  0  0  0  0  0  0  0  0  0  0
    9.9575    7.9974  -11.8426 C   0  0  0  0  0  0  0  0  0  0  0  0
   10.7657    6.8667  -11.6050 C   0  0  1  0  0  0  0  0  0  0  0  0
   10.7682    5.9590  -12.8271 C   0  0  0  0  0  0  0  0  0  0  0  0
   12.1553    7.3846  -11.2315 C   0  0  0  0  0  0  0  0  0  0  0  0
    8.0676    6.6451  -12.2974 C   0  0  0  0  0  0  0  0  0  0  0  0
   10.1892    6.1240  -10.3860 C   0  0  0  0  0  0  0  0  0  0  0  0
   11.8375    5.4373  -13.3240 O   0  0  0  0  0  0  0  0  0  0  0  0
    8.6785    5.4761  -13.0273 C   0  0  1  0  0  0  0  0  0  0  0  0
    9.1969    5.2405  -10.4969 C   0  0  2  0  0  0  0  0  0  0  0  0
    7.2213    6.2210  -11.3074 C   0  0  2  0  0  0  0  0  0  0  0  0
   12.5590    7.6872   -9.9896 C   0  0  0  0  0  0  0  0  0  0  0  0
    9.7633    5.0333  -12.9720 C   0  0  1  0  0  0  0  0  0  0  0  0
   10.0661    4.0167  -14.0373 N   0  0  0  0  0  0  0  0  0  0  0  0
   13.6906    8.3004   -9.6233 O   0  0  0  0  0  0  0  0  0  0  0  0
    7.6357    4.5123  -12.6317 C   0  0  2  0  0  0  0  0  0  0  0  0
    6.8831    4.9171  -11.7031 C   0  0  2  0  0  0  0  0  0  0  0  0
   10.5937    6.6967   -9.1779 C   0  0  0  0  0  0  0  0  0  0  0  0
    9.5087    4.3263  -11.6925 C   0  0  2  0  0  0  0  0  0  0  0  0
   11.6359    7.4449   -8.9125 C   0  0  0  0  0  0  0  0  0  0  0  0
   11.9716    7.9159   -7.6200 C   0  0  0  0  0  0  0  0  0  0  0  0
    8.4648    3.6122  -12.2840 C   0  0  1  0  0  0  0  0  0  0  0  0
    7.9253    2.8004  -11.3926 C   0  0  0  0  0  0  0  0  0  0  0  0
    5.6047    4.5059  -11.7589 C   0  0  0  0  0  0  0  0  0  0  0  0
    7.6606    4.1297  -10.5699 C   0  0  0  0  0  0  0  0  0  0  0  0
   10.9559    7.6849   -6.6057 C   0  0  0  0  0  0  0  0  0  0  0  0
    8.0094    4.5092   -9.5664 C   0  0  0  0  0  0  0  0  0  0  0  0
    8.3033    4.0627   -8.4980 C   0  0  0  0  0  0  0  0  0  0  0  0
    6.3587    7.1012  -11.0392 O   0  0  0  0  0  0  0  0  0  0  0  0
   11.0186    3.9598  -14.9226 C   0  0  0  0  0  0  0  0  0  0  0  0
    8.1758    5.8633  -10.2511 C   0  0  1  0  0  0  0  0  0  0  0  0
   11.4648    2.7104  -15.2650 O   0  0  0  0  0  0  0  0  0  0  0  0
    9.9512    6.8220   -6.8436 C   0  0  0  0  0  0  0  0  0  0  0  0
    9.6899    6.3705   -8.1082 C   0  0  2  0  0  0  0  0  0  0  0  0
   11.2597    8.2901   -5.2396 C   0  0  0  0  0  0  0  0  0  0  0  0
    9.1264    2.9648  -13.9669 C   0  0  2  0  0  0  0  0  0  0  0  0
    9.2902    4.9507   -7.7799 C   0  0  0  0  0  0  0  0  0  0  0  0
   11.6750    9.7536   -5.2211 C   0  0  0  0  0  0  0  0  0  0  0  0
   12.6364    9.9910   -4.2013 C   0  0  0  0  0  0  0  0  0  0  0  0
    8.6767    2.4780  -15.2342 C   0  0  0  0  0  0  0  0  0  0  0  0
    8.0747    3.0735  -13.3608 C   0  0  2  0  0  0  0  0  0  0  0  0
   11.7479    4.9088  -15.3890 O   0  0  0  0  0  0  0  0  0  0  0  0
  1  2  1  0  0  0  0
  2  3  1  0  0  0  0
  2  7  2  0  0  0  0
  4  3  1  6  0  0  0
  4  5  1  0  0  0  0
  4  6  1  0  0  0  0
  4  8  1  0  0  0  0
  5  9  2  0  0  0  0
  6 13  1  0  0  0  0
  7 12  1  0  0  0  0
  8 19  2  0  0  0  0
 10  7  1  1  0  0  0
 10 14  1  0  0  0  0
 10 17  1  0  0  0  0
 11  8  1  6  0  0  0
 11 20  1  0  0  0  0
 11 32  1  0  0  0  0
 12 18  1  0  0  0  0
 12 30  1  1  0  0  0
 12 32  1  0  0  0  0
 13 16  2  0  0  0  0
 13 21  1  0  0  0  0
 14  5  1  1  0  0  0
 14 15  1  0  0  0  0
 14 20  1  0  0  0  0
 15 31  1  0  0  0  0
 15 37  1  0  0  0  0
 17 18  1  0  0  0  0
 17 23  1  0  0  0  0
 17 42  1  0  0  0  0
 18 25  1  0  0  0  0
 18 26  1  0  0  0  0
 19 21  1  0  0  0  0
 19 35  1  0  0  0  0
 20 23  1  0  0  0  0
 21 22  2  0  0  0  0
 22 27  1  0  0  0  0
 23 24  1  0  0  0  0
 23 42  1  0  0  0  0
 24 26  1  0  0  0  0
 26 28  2  0  0  0  0
 27 34  2  0  0  0  0
 27 36  1  0  0  0  0
 28 29  1  0  0  0  0
 28 32  1  0  0  0  0
 29 38  1  0  0  0  0
 31 33  2  0  0  0  0
 31 43  1  0  0  0  0
 34 35  1  0  0  0  0
 35 38  1  0  0  0  0
 36 39  1  0  0  0  0
 37 41  1  0  0  0  0
 37 42  1  0  0  0  0
 39 40  1  0  0  0  0
M  END
$$$$

 OpenBabel10082411353D

 43 49  0  0  0  0  0  0  0  0999 V2000
   11.6836    6.0105   -4.8831 F   0  0  0  0  0  0  0  0  0  0  0  0
   11.2562    7.2206   -5.0294 C   0  0  0  0  0  0  0  0  0  0  0  0
   12.0125    8.2418   -4.4408 C   0  0  0  0  0  0  0  0  0  0  0  0
   11.1918    7.2706   -6.5237 C   0  0  2  0  0  0  0  0  0  0  0  0
   11.6999    8.4488   -3.1704 F   0  0  0  0  0  0  0  0  0  0  0  0
    9.8648    7.0908   -4.5314 F   0  0  0  0  0  0  0  0  0  0  0  0
   11.6831    8.5291   -6.9682 C   0  0  1  0  0  0  0  0  0  0  0  0
   13.3042    8.0958   -4.5769 F   0  0  0  0  0  0  0  0  0  0  0  0
   10.0051    6.7877   -7.1387 C   0  0  2  0  0  0  0  0  0  0  0  0
   12.1549    9.4036   -6.0698 C   0  0  0  0  0  0  0  0  0  0  0  0
   11.7460    9.5074   -4.8672 O   0  0  0  0  0  0  0  0  0  0  0  0
   12.5684    8.5172   -7.8652 C   0  0  0  0  0  0  0  0  0  0  0  0
   10.4250    8.9412   -7.4869 C   0  0  0  0  0  0  0  0  0  0  0  0
    9.8902    5.4070   -7.8206 C   0  0  1  0  0  0  0  0  0  0  0  0
    8.7348    4.6919   -7.6168 C   0  0  0  0  0  0  0  0  0  0  0  0
    9.5887    7.8633   -8.0188 C   0  0  1  0  0  0  0  0  0  0  0  0
   10.0149    7.4671   -9.3945 C   0  0  0  0  0  0  0  0  0  0  0  0
    8.7013    3.5197   -8.2148 C   0  0  0  0  0  0  0  0  0  0  0  0
    9.3794    3.4628   -9.4166 C   0  0  0  0  0  0  0  0  0  0  0  0
    9.7670    8.0902  -10.5147 C   0  0  0  0  0  0  0  0  0  0  0  0
   10.1630    7.7248  -11.8028 C   0  0  0  0  0  0  0  0  0  0  0  0
   10.1363    4.5235   -9.8811 C   0  0  0  0  0  0  0  0  0  0  0  0
   10.2836    5.8862   -9.1314 C   0  0  2  0  0  0  0  0  0  0  0  0
    9.2642    7.6154  -12.7688 C   0  0  0  0  0  0  0  0  0  0  0  0
    9.7352    7.0429  -13.9890 C   0  0  0  0  0  0  0  0  0  0  0  0
    8.9431    5.9978  -14.4048 C   0  0  0  0  0  0  0  0  0  0  0  0
    8.0476    5.1914  -13.6918 C   0  0  0  0  0  0  0  0  0  0  0  0
    8.1490    3.7734  -13.7660 C   0  0  0  0  0  0  0  0  0  0  0  0
    7.0453    3.1418  -12.9717 C   0  0  0  0  0  0  0  0  0  0  0  0
    6.2338    3.8839  -12.1754 C   0  0  0  0  0  0  0  0  0  0  0  0
   10.8369    7.3431  -14.6932 C   0  0  0  0  0  0  0  0  0  0  0  0
    7.2107    5.8505  -12.7998 C   0  0  0  0  0  0  0  0  0  0  0  0
    5.3001    3.0920  -11.3306 F   0  0  0  0  0  0  0  0  0  0  0  0
    7.8586    7.9143  -12.4857 C   0  0  0  0  0  0  0  0  0  0  0  0
    6.3696    5.0319  -12.1370 C   0  0  0  0  0  0  0  0  0  0  0  0
    6.9659    7.0740  -12.5678 C   0  0  0  0  0  0  0  0  0  0  0  0
   11.6802    6.2859  -15.0974 C   0  0  0  0  0  0  0  0  0  0  0  0
   11.4895    5.0617  -14.5281 C   0  0  0  0  0  0  0  0  0  0  0  0
   11.6883    3.9380  -15.1014 C   0  0  0  0  0  0  0  0  0  0  0  0
   12.3721    4.1787  -16.3456 C   0  0  0  0  0  0  0  0  0  0  0  0
   12.1695    6.4061  -16.3031 C   0  0  0  0  0  0  0  0  0  0  0  0
   12.6848    2.8433  -17.0195 F   0  0  0  0  0  0  0  0  0  0  0  0
   12.6129    5.2582  -16.9346 C   0  0  0  0  0  0  0  0  0  0  0  0
  1  2  1  0  0  0  0
  2  3  1  0  0  0  0
  2  6  1  0  0  0  0
  3  5  1  0  0  0  0
  3  8  1  0  0  0  0
  3 11  1  0  0  0  0
  4  2  1  1  0  0  0
  4  7  1  0  0  0  0
  4  9  1  0  0  0  0
  7 10  1  0  0  0  0
  7 12  1  6  0  0  0
  7 13  1  0  0  0  0
  9 14  1  0  0  0  0
  9 16  1  0  0  0  0
 10 11  1  0  0  0  0
 13 16  1  0  0  0  0
 14 15  1  0  0  0  0
 14 23  1  0  0  0  0
 15 18  2  0  0  0  0
 16 17  1  0  0  0  0
 17 20  2  3  0  0  0
 17 23  1  0  0  0  0
 18 19  1  0  0  0  0
 19 22  2  0  0  0  0
 20 21  1  0  0  0  0
 21 24  2  3  0  0  0
 22 23  1  0  0  0  0
 24 25  1  0  0  0  0
 24 34  1  0  0  0  0
 25 26  2  0  0  0  0
 25 31  1  0  0  0  0
 26 27  1  0  0  0  0
 27 28  2  0  0  0  0
 27 32  1  0  0  0  0
 28 29  1  0  0  0  0
 29 30  2  0  0  0  0
 30 33  1  0  0  0  0
 30 35  1  0  0  0  0
 31 37  1  0  0  0  0
 32 35  2  0  0  0  0
 32 36  1  0  0  0  0
 34 36  1  0  0  0  0
 37 38  1  0  0  0  0
 37 41  2  0  0  0  0
 38 39  2  0  0  0  0
 39 40  1  0  0  0  0
 40 42  1  0  0  0  0
 40 43  2  0  0  0  0
 41 43  1  0  0  0  0
M  END
$$$$

 OpenBabel10082411353D

 43 53  0  0  0  0  0  0  0  0999 V2000
    8.0806    9.0240  -12.7589 C   0  0  0  0  0  0  0  0  0  0  0  0
    8.6514    7.8645  -12.2948 C   0  0  0  0  0  0  0  0  0  0  0  0
    9.9575    7.9974  -11.8426 C   0  0  0  0  0  0  0  0  0  0  0  0
   10.7657    6.8667  -11.6050 C   0  0  1  0  0  0  0  0  0  0  0  0
   10.7682    5.9590  -12.8271 C   0  0  0  0  0  0  0  0  0  0  0  0
   12.1553    7.3846  -11.2315 C   0  0  0  0  0  0  0  0  0  0  0  0
    8.0676    6.6451  -12.2974 C   0  0  0  0  0  0  0  0  0  0  0  0
   10.1892    6.1240  -10.3860 C   0  0  0  0  0  0  0  0  0  0  0  0
   11.8375    5.4373  -13.3240 O   0  0  0  0  0  0  0  0  0  0  0  0
    8.6785    5.4761  -13.0273 C   0  0  1  0  0  0  0  0  0  0  0  0
    9.1969    5.2405  -10.4969 C   0  0  2  0  0  0  0  0  0  0  0  0
    7.2213    6.2210  -11.3074 C   0  0  2  0  0  0  0  0  0  0  0  0
   12.5590    7.6872   -9.9896 C   0  0  0  0  0  0  0  0  0  0  0  0
    9.7633    5.0333  -12.9720 C   0  0  1  0  0  0  0  0  0  0  0  0
   10.0661    4.0167  -14.0373 N   0  0  0  0  0  0  0  0  0  0  0  0
   13.6906    8.3004   -9.6233 O   0  0  0  0  0  0  0  0  0  0  0  0
    7.6357    4.5123  -12.6317 C   0  0  2  0  0  0  0  0  0  0  0  0
    6.8831    4.9171  -11.7031 C   0  0  2  0  0  0  0  0  0  0  0  0
   10.5937    6.6967   -9.1779 C   0  0  0  0  0  0  0  0  0  0  0  0
    9.5087    4.3263  -11.6925 C   0  0  2  0  0  0  0  0  0  0  0  0
   11.6359    7.4449   -8.9125 C   0  0  0  0  0  0  0  0  0  0  0  0
   11.9716    7.9159   -7.6200 C   0  0  0  0  0  0  0  0  0  0  0  0
    8.4648    3.6122  -12.2840 C   0  0  1  0  0  0  0  0  0  0  0  0
    7.9253    2.8004  -11.3926 C   0  0  0  0  0  0  0  0  0  0  0  0
    5.6047    4.5059  -11.7589 C   0  0  0  0  0  0  0  0  0  0  0  0
    7.6606    4.1297  -10.5699 C   0  0  0  0  0  0  0  0  0  0  0  0
   10.9559    7.6849   -6.6057 C   0  0  0  0  0  0  0  0  0  0  0  0
    8.0094    4.5092   -9.5664 C   0  0  0  0  0  0  0  0  0  0  0  0
    8.3033    4.0627   -8.4980 C   0  0  0  0  0  0  0  0  0  0  0  0
    6.3587    7.1012  -11.0392 O   0  0  0  0  0  0  0  0  0  0  0  0
   11.0186    3.9598  -14.9226 C   0  0  0  0  0  0  0  0  0  0  0  0
    8.1758    5.8633  -10.2511 C   0  0  1  0  0  0  0  0  0  0  0  0
   11.4648    2.7104  -15.2650 O   0  0  0  0  0  0  0  0  0  0  0  0
    9.9512    6.8220   -6.8436 C   0  0  0  0  0  0  0  0  0  0  0  0
    9.6899    6.3705   -8.1082 C   0  0  2  0  0  0  0  0  0  0  0  0
    9.1306    2.9610  -13.9685 C   0  0  0  0  0  0  0  0  0  0  0  0
    8.8414    5.0113   -7.7726 C   0  0  0  0  0  0  0  0  0  0  0  0
   11.6944    4.9031  -15.4200 O   0  0  0  0  0  0  0  0  0  0  0  0
   11.2282    8.3639   -5.2721 C   0  0  0  0  0  0  0  0  0  0  0  0
   11.7377    9.7620   -5.2848 C   0  0  0  0  0  0  0  0  0  0  0  0
    8.7016    2.4230  -12.9159 C   0  0  0  0  0  0  0  0  0  0  0  0
   12.2052    7.6490   -4.4552 C   0  0  0  0  0  0  0  0  0  0  0  0
   10.1090    8.5362   -4.5383 O   0  0  0  0  0  0  0  0  0  0  0  0
  1  2  1  0  0  0  0
  2  3  1  0  0  0  0
  2  7  2  0  0  0  0
  4  3  1  6  0  0  0
  4  5  1  0  0  0  0
  4  6  1  0  0  0  0
  4  8  1  0  0  0  0
  5  9  2  0  0  0  0
  6 13  1  0  0  0  0
  7 12  1  0  0  0  0
  8 19  2  0  0  0  0
 10  7  1  1  0  0  0
 10 14  1  0  0  0  0
 10 17  1  0  0  0  0
 11  8  1  6  0  0  0
 11 20  1  0  0  0  0
 11 32  1  0  0  0  0
 12 18  1  0  0  0  0
 12 30  1  1  0  0  0
 12 32  1  0  0  0  0
 13 16  2  0  0  0  0
 13 21  1  0  0  0  0
 14  5  1  1  0  0  0
 14 15  1  0  0  0  0
 14 20  1  0  0  0  0
 15 31  1  0  0  0  0
 15 36  1  0  0  0  0
 17 18  1  0  0  0  0
 17 23  1  0  0  0  0
 18 25  1  0  0  0  0
 18 26  1  0  0  0  0
 19 21  1  0  0  0  0
 19 35  1  0  0  0  0
 20 23  1  0  0  0  0
 21 22  2  0  0  0  0
 22 27  1  0  0  0  0
 23 24  1  0  0  0  0
 23 41  1  0  0  0  0
 24 26  1  0  0  0  0
 26 28  2  0  0  0  0
 27 34  2  0  0  0  0
 27 39  1  0  0  0  0
 28 29  1  0  0  0  0
 28 32  1  0  0  0  0
 29 37  2  0  0  0  0
 31 33  2  0  0  0  0
 31 38  1  0  0  0  0
 34 35  1  0  0  0  0
 35 37  1  0  0  0  0
 36 41  1  0  0  0  0
 39 40  1  0  0  0  0
 39 42  1  0  0  0  0
 39 43  1  0  0  0  0
M  END
$$$$

 OpenBabel10082411353D

 43 53  0  0  0  0  0  0  0  0999 V2000
    8.0806    9.0240  -12.7589 C   0  0  0  0  0  0  0  0  0  0  0  0
    8.6514    7.8645  -12.2948 C   0  0  0  0  0  0  0  0  0  0  0  0
    9.9575    7.9974  -11.8426 C   0  0  0  0  0  0  0  0  0  0  0  0
   10.7657    6.8667  -11.6050 C   0  0  1  0  0  0  0  0  0  0  0  0
   10.7682    5.9590  -12.8271 C   0  0  0  0  0  0  0  0  0  0  0  0
   12.1553    7.3846  -11.2315 C   0  0  0  0  0  0  0  0  0  0  0  0
    8.0676    6.6451  -12.2974 C   0  0  0  0  0  0  0  0  0  0  0  0
   10.1892    6.1240  -10.3860 C   0  0  0  0  0  0  0  0  0  0  0  0
   11.8375    5.4373  -13.3240 O   0  0  0  0  0  0  0  0  0  0  0  0
    8.6785    5.4761  -13.0273 C   0  0  1  0  0  0  0  0  0  0  0  0
    9.1969    5.2405  -10.4969 C   0  0  2  0  0  0  0  0  0  0  0  0
    7.2213    6.2210  -11.3074 C   0  0  2  0  0  0  0  0  0  0  0  0
   12.5590    7.6872   -9.9896 C   0  0  0  0  0  0  0  0  0  0  0  0
    9.7633    5.0333  -12.9720 C   0  0  1  0  0  0  0  0  0  0  0  0
   10.0661    4.0167  -14.0373 N   0  0  0  0  0  0  0  0  0  0  0  0
   13.6906    8.3004   -9.6233 O   0  0  0  0  0  0  0  0  0  0  0  0
    7.6357    4.5123  -12.6317 C   0  0  2  0  0  0  0  0  0  0  0  0
    6.8831    4.9171  -11.7031 C   0  0  2  0  0  0  0  0  0  0  0  0
   10.5937    6.6967   -9.1779 C   0  0  0  0  0  0  0  0  0  0  0  0
    9.5087    4.3263  -11.6925 C   0  0  2  0  0  0  0  0  0  0  0  0
   11.6359    7.4449   -8.9125 C   0  0  0  0  0  0  0  0  0  0  0  0
   11.9716    7.9159   -7.6200 C   0  0  0  0  0  0  0  0  0  0  0  0
    8.4648    3.6122  -12.2840 C   0  0  1  0  0  0  0  0  0  0  0  0
    7.9253    2.8004  -11.3926 C   0  0  0  0  0  0  0  0  0  0  0  0
    5.6047    4.5059  -11.7589 C   0  0  0  0  0  0  0  0  0  0  0  0
    7.6606    4.1297  -10.5699 C   0  0  0  0  0  0  0  0  0  0  0  0
   10.9559    7.6849   -6.6057 C   0  0  0  0  0  0  0  0  0  0  0  0
    8.0094    4.5092   -9.5664 C   0  0  0  0  0  0  0  0  0  0  0  0
    8.3033    4.0627   -8.4980 C   0  0  0  0  0  0  0  0  0  0  0  0
    6.3587    7.1012  -11.0392 O   0  0  0  0  0  0  0  0  0  0  0  0
   11.0186    3.9598  -14.9226 C   0  0  0  0  0  0  0  0  0  0  0  0
    8.1758    5.8633  -10.2511 C   0  0  1  0  0  0  0  0  0  0  0  0
    9.4315    2.8557  -13.5931 C   0  0  0  0  0  0  0  0  0  0  0  0
   11.5906    2.6986  -15.1672 C   0  0  0  0  0  0  0  0  0  0  0  0
   11.2029    4.8307  -15.6614 O   0  0  0  0  0  0  0  0  0  0  0  0
    9.9720    6.7848   -6.8417 C   0  0  0  0  0  0  0  0  0  0  0  0
    8.6966    2.9850   -8.3465 O   0  0  0  0  0  0  0  0  0  0  0  0
    8.5860    5.0154   -7.5833 C   0  0  0  0  0  0  0  0  0  0  0  0
   11.3663    8.4216   -5.0482 S   0  0  0  0  0  0  0  0  0  0  0  0
    9.7039    6.3872   -7.9954 C   0  0  2  0  0  0  0  0  0  0  0  0
   12.0961    9.6959   -5.2755 O   0  0  0  0  0  0  0  0  0  0  0  0
   10.0234    8.8643   -4.2848 O   0  0  0  0  0  0  0  0  0  0  0  0
   12.0909    7.4040   -4.1962 O   0  0  0  0  0  0  0  0  0  0  0  0
  1  2  1  0  0  0  0
  2  3  1  0  0  0  0
  2  7  2  0  0  0  0
  4  3  1  6  0  0  0
  4  5  1  0  0  0  0
  4  6  1  0  0  0  0
  4  8  1  0  0  0  0
  5  9  2  0  0  0  0
  6 13  1  0  0  0  0
  7 12  1  0  0  0  0
  8 19  2  0  0  0  0
 10  7  1  1  0  0  0
 10 14  1  0  0  0  0
 10 17  1  0  0  0  0
 11  8  1  6  0  0  0
 11 20  1  0  0  0  0
 11 32  1  0  0  0  0
 12 18  1  0  0  0  0
 12 30  1  1  0  0  0
 12 32  1  0  0  0  0
 13 16  2  0  0  0  0
 13 21  1  0  0  0  0
 14  5  1  1  0  0  0
 14 15  1  0  0  0  0
 14 20  1  0  0  0  0
 15 31  1  0  0  0  0
 15 33  1  0  0  0  0
 17 18  1  0  0  0  0
 17 23  1  0  0  0  0
 18 25  1  0  0  0  0
 18 26  1  0  0  0  0
 19 21  1  0  0  0  0
 19 40  1  0  0  0  0
 20 23  1  0  0  0  0
 21 22  2  0  0  0  0
 22 27  1  0  0  0  0
 23 24  1  0  0  0  0
 23 33  1  0  0  0  0
 24 26  1  0  0  0  0
 26 28  2  0  0  0  0
 27 36  2  0  0  0  0
 27 39  1  0  0  0  0
 28 29  1  0  0  0  0
 28 32  1  0  0  0  0
 29 37  2  0  0  0  0
 29 38  1  0  0  0  0
 31 34  1  0  0  0  0
 31 35  2  0  0  0  0
 36 40  1  0  0  0  0
 38 40  1  0  0  0  0
 39 41  2  0  0  0  0
 39 42  1  0  0  0  0
 39 43  2  0  0  0  0
M  END
$$$$

 OpenBabel10082411353D

 43 50  0  0  0  0  0  0  0  0999 V2000
   11.6836    6.0105   -4.8831 C   0  0  0  0  0  0  0  0  0  0  0  0
   11.1291    7.0732   -5.4395 C   0  0  0  0  0  0  0  0  0  0  0  0
   10.6954    7.0156   -6.8073 C   0  0  0  0  0  0  0  0  0  0  0  0
   10.2502    8.1187   -7.5536 C   0  0  2  0  0  0  0  0  0  0  0  0
   11.1205    8.4712   -4.9629 C   0  0  0  0  0  0  0  0  0  0  0  0
   10.8655    8.3511   -8.7960 C   0  0  0  0  0  0  0  0  0  0  0  0
   10.2922    7.8843   -9.9985 C   0  0  0  0  0  0  0  0  0  0  0  0
   10.4654    9.6993   -5.6120 C   0  0  0  0  0  0  0  0  0  0  0  0
   10.3510    9.5971   -7.0014 C   0  0  0  0  0  0  0  0  0  0  0  0
   12.2462    6.3351   -3.5020 C   0  0  0  0  0  0  0  0  0  0  0  0
   11.0471    7.5309  -11.1063 C   0  0  0  0  0  0  0  0  0  0  0  0
   11.7288    8.6923   -3.6518 C   0  0  0  0  0  0  0  0  0  0  0  0
   12.3991    7.7501  -11.1145 C   0  0  0  0  0  0  0  0  0  0  0  0
   12.3738    7.7580   -2.9599 C   0  0  0  0  0  0  0  0  0  0  0  0
   13.1285    8.5075  -10.1661 O   0  0  0  0  0  0  0  0  0  0  0  0
    9.0407    7.3775  -10.0973 N   0  0  0  0  0  0  0  0  0  0  0  0
    8.9787    6.9473  -11.4664 N   0  0  0  0  0  0  0  0  0  0  0  0
   13.1012    7.4459  -12.3707 C   0  0  0  0  0  0  0  0  0  0  0  0
   12.2395    6.9724  -13.2444 C   0  0  0  0  0  0  0  0  0  0  0  0
   10.2768    7.0170  -11.9799 C   0  0  0  0  0  0  0  0  0  0  0  0
   12.9237    6.5822  -14.5759 O   0  0  0  0  0  0  0  0  0  0  0  0
   10.8906    6.6526  -13.2252 C   0  0  0  0  0  0  0  0  0  0  0  0
   12.2396    6.1290  -15.6916 C   0  0  0  0  0  0  0  0  0  0  0  0
    7.8036    6.1825  -11.9342 C   0  0  0  0  0  0  0  0  0  0  0  0
   12.5015    4.7115  -15.7686 C   0  0  0  0  0  0  0  0  0  0  0  0
    7.1685    6.9992  -12.8245 C   0  0  0  0  0  0  0  0  0  0  0  0
   11.2461    3.8540  -15.4851 C   0  0  2  0  0  0  0  0  0  0  0  0
    7.6237    4.9154  -11.6529 C   0  0  0  0  0  0  0  0  0  0  0  0
    6.6378    4.1960  -12.2267 C   0  0  0  0  0  0  0  0  0  0  0  0
    6.2717    2.7675  -11.9743 C   0  0  0  0  0  0  0  0  0  0  0  0
    6.6569    1.8873  -12.9460 C   0  0  0  0  0  0  0  0  0  0  0  0
    7.3895    8.4597  -13.1785 C   0  0  0  0  0  0  0  0  0  0  0  0
    6.3114    0.5653  -12.7247 C   0  0  0  0  0  0  0  0  0  0  0  0
    7.7684    2.0327  -13.9055 C   0  0  0  0  0  0  0  0  0  0  0  0
    6.9387   -0.3720  -13.7691 C   0  0  0  0  0  0  0  0  0  0  0  0
    8.4223    3.3339  -14.0264 C   0  0  0  0  0  0  0  0  0  0  0  0
    8.2908    1.0246  -14.6080 C   0  0  0  0  0  0  0  0  0  0  0  0
    7.8707   -0.1948  -14.5676 C   0  0  0  0  0  0  0  0  0  0  0  0
    9.4626    1.2359  -15.4581 C   0  0  0  0  0  0  0  0  0  0  0  0
   11.0527    2.6945  -16.2982 N   0  0  0  0  0  0  0  0  0  0  0  0
    9.7706    2.3473  -15.9771 C   0  0  2  0  0  0  0  0  0  0  0  0
    9.5055    3.6028  -14.7909 C   0  0  0  0  0  0  0  0  0  0  0  0
   10.1199    4.4005  -15.1918 N   0  0  0  0  0  0  0  0  0  0  0  0
  1  2  1  0  0  0  0
  1 10  2  0  0  0  0
  2  3  1  0  0  0  0
  2  5  2  0  0  0  0
  3  4  1  0  0  0  0
  4  6  1  6  0  0  0
  4  9  1  0  0  0  0
  5  8  1  0  0  0  0
  5 12  1  0  0  0  0
  6  7  1  0  0  0  0
  7 11  1  0  0  0  0
  7 16  2  0  0  0  0
  8  9  1  0  0  0  0
 10 14  1  0  0  0  0
 11 13  2  0  0  0  0
 11 20  1  0  0  0  0
 12 14  2  0  0  0  0
 13 15  1  0  0  0  0
 13 18  1  0  0  0  0
 16 17  1  0  0  0  0
 17 20  1  0  0  0  0
 17 24  1  0  0  0  0
 18 19  2  0  0  0  0
 19 21  1  0  0  0  0
 19 22  1  0  0  0  0
 20 22  2  0  0  0  0
 21 23  1  0  0  0  0
 23 25  1  0  0  0  0
 24 26  2  3  0  0  0
 24 28  1  0  0  0  0
 26 32  1  0  0  0  0
 27 25  1  6  0  0  0
 27 40  1  0  0  0  0
 27 43  1  0  0  0  0
 28 29  2  0  0  0  0
 29 30  1  0  0  0  0
 30 31  1  0  0  0  0
 31 33  2  0  0  0  0
 31 34  1  0  0  0  0
 33 35  1  0  0  0  0
 34 36  2  0  0  0  0
 34 37  1  0  0  0  0
 35 38  1  0  0  0  0
 36 42  1  0  0  0  0
 37 38  1  0  0  0  0
 37 39  2  0  0  0  0
 40 41  1  0  0  0  0
 41 39  1  1  0  0  0
 41 42  1  0  0  0  0
 42 43  2  0  0  0  0
M  END
$$$$

 OpenBabel10082411353D

 43 54  0  0  0  0  0  0  0  0999 V2000
    8.0806    9.0240  -12.7589 C   0  0  0  0  0  0  0  0  0  0  0  0
    8.6514    7.8645  -12.2948 C   0  0  0  0  0  0  0  0  0  0  0  0
    9.9575    7.9974  -11.8426 C   0  0  0  0  0  0  0  0  0  0  0  0
   10.7657    6.8667  -11.6050 C   0  0  1  0  0  0  0  0  0  0  0  0
   10.7682    5.9590  -12.8271 C   0  0  0  0  0  0  0  0  0  0  0  0
   12.1553    7.3846  -11.2315 C   0  0  0  0  0  0  0  0  0  0  0  0
    8.0676    6.6451  -12.2974 C   0  0  0  0  0  0  0  0  0  0  0  0
   10.1892    6.1240  -10.3860 C   0  0  0  0  0  0  0  0  0  0  0  0
   11.8375    5.4373  -13.3240 O   0  0  0  0  0  0  0  0  0  0  0  0
    8.6785    5.4761  -13.0273 C   0  0  1  0  0  0  0  0  0  0  0  0
    9.1969    5.2405  -10.4969 C   0  0  2  0  0  0  0  0  0  0  0  0
    7.2213    6.2210  -11.3074 C   0  0  2  0  0  0  0  0  0  0  0  0
   12.5590    7.6872   -9.9896 C   0  0  0  0  0  0  0  0  0  0  0  0
    9.7633    5.0333  -12.9720 C   0  0  1  0  0  0  0  0  0  0  0  0
   10.0661    4.0167  -14.0373 N   0  0  0  0  0  0  0  0  0  0  0  0
   13.6906    8.3004   -9.6233 O   0  0  0  0  0  0  0  0  0  0  0  0
    7.6357    4.5123  -12.6317 C   0  0  2  0  0  0  0  0  0  0  0  0
    6.8831    4.9171  -11.7031 C   0  0  2  0  0  0  0  0  0  0  0  0
   10.5937    6.6967   -9.1779 C   0  0  0  0  0  0  0  0  0  0  0  0
    9.5087    4.3263  -11.6925 C   0  0  2  0  0  0  0  0  0  0  0  0
   11.6359    7.4449   -8.9125 C   0  0  0  0  0  0  0  0  0  0  0  0
   11.9716    7.9159   -7.6200 C   0  0  0  0  0  0  0  0  0  0  0  0
    8.4648    3.6122  -12.2840 C   0  0  1  0  0  0  0  0  0  0  0  0
    7.9253    2.8004  -11.3926 C   0  0  0  0  0  0  0  0  0  0  0  0
    5.6047    4.5059  -11.7589 C   0  0  0  0  0  0  0  0  0  0  0  0
    7.6606    4.1297  -10.5699 C   0  0  0  0  0  0  0  0  0  0  0  0
   10.9559    7.6849   -6.6057 C   0  0  0  0  0  0  0  0  0  0  0  0
    8.0094    4.5092   -9.5664 C   0  0  0  0  0  0  0  0  0  0  0  0
    8.3033    4.0627   -8.4980 C   0  0  0  0  0  0  0  0  0  0  0  0
    6.3587    7.1012  -11.0392 O   0  0  0  0  0  0  0  0  0  0  0  0
   11.0186    3.9598  -14.9226 C   0  0  0  0  0  0  0  0  0  0  0  0
    8.1758    5.8633  -10.2511 C   0  0  1  0  0  0  0  0  0  0  0  0
   11.4648    2.7104  -15.2650 O   0  0  0  0  0  0  0  0  0  0  0  0
    9.9512    6.8220   -6.8436 C   0  0  0  0  0  0  0  0  0  0  0  0
    9.6899    6.3705   -8.1082 C   0  0  2  0  0  0  0  0  0  0  0  0
    9.1306    2.9610  -13.9685 C   0  0  2  0  0  0  0  0  0  0  0  0
    8.8414    5.0113   -7.7726 C   0  0  0  0  0  0  0  0  0  0  0  0
   11.0996    4.8769  -15.8101 O   0  0  0  0  0  0  0  0  0  0  0  0
    8.7802    2.3889  -15.2427 C   0  0  0  0  0  0  0  0  0  0  0  0
    7.9994    3.0782  -13.3884 C   0  0  2  0  0  0  0  0  0  0  0  0
   11.2273    8.3935   -5.2802 C   0  0  0  0  0  0  0  0  0  0  0  0
   11.8845    9.6649   -5.2683 C   0  0  0  0  0  0  0  0  0  0  0  0
   12.8995    9.6823   -4.1630 C   0  0  0  0  0  0  0  0  0  0  0  0
  1  2  1  0  0  0  0
  2  3  1  0  0  0  0
  2  7  2  0  0  0  0
  4  3  1  6  0  0  0
  4  5  1  0  0  0  0
  4  6  1  0  0  0  0
  4  8  1  0  0  0  0
  5  9  2  0  0  0  0
  6 13  1  0  0  0  0
  7 12  1  0  0  0  0
  8 19  2  0  0  0  0
 10  7  1  1  0  0  0
 10 14  1  0  0  0  0
 10 17  1  0  0  0  0
 11  8  1  6  0  0  0
 11 20  1  0  0  0  0
 11 32  1  0  0  0  0
 12 18  1  0  0  0  0
 12 30  1  1  0  0  0
 12 32  1  0  0  0  0
 13 16  2  0  0  0  0
 13 21  1  0  0  0  0
 14  5  1  1  0  0  0
 14 15  1  0  0  0  0
 14 20  1  0  0  0  0
 15 31  1  0  0  0  0
 15 36  1  0  0  0  0
 17 18  1  0  0  0  0
 17 23  1  0  0  0  0
 17 40  1  0  0  0  0
 18 25  1  0  0  0  0
 18 26  1  0  0  0  0
 19 21  1  0  0  0  0
 19 35  1  0  0  0  0
 20 23  1  0  0  0  0
 21 22  2  0  0  0  0
 22 27  1  0  0  0  0
 23 24  1  0  0  0  0
 23 40  1  0  0  0  0
 24 26  1  0  0  0  0
 26 28  2  0  0  0  0
 27 34  2  0  0  0  0
 27 41  1  0  0  0  0
 28 29  1  0  0  0  0
 28 32  1  0  0  0  0
 29 37  2  0  0  0  0
 31 33  2  0  0  0  0
 31 38  1  0  0  0  0
 34 35  1  0  0  0  0
 35 37  1  0  0  0  0
 36 39  1  0  0  0  0
 36 40  1  0  0  0  0
 41 42  1  0  0  0  0
 42 43  1  0  0  0  0
M  END
$$$$

 OpenBabel10082411353D

 43 55  0  0  0  0  0  0  0  0999 V2000
    8.0806    9.0240  -12.7589 C   0  0  0  0  0  0  0  0  0  0  0  0
    8.6514    7.8645  -12.2948 C   0  0  0  0  0  0  0  0  0  0  0  0
    9.9575    7.9974  -11.8426 C   0  0  0  0  0  0  0  0  0  0  0  0
   10.7657    6.8667  -11.6050 C   0  0  1  0  0  0  0  0  0  0  0  0
   10.7682    5.9590  -12.8271 C   0  0  0  0  0  0  0  0  0  0  0  0
   12.1553    7.3846  -11.2315 C   0  0  0  0  0  0  0  0  0  0  0  0
    8.0676    6.6451  -12.2974 C   0  0  0  0  0  0  0  0  0  0  0  0
   10.1892    6.1240  -10.3860 C   0  0  0  0  0  0  0  0  0  0  0  0
   11.8375    5.4373  -13.3240 O   0  0  0  0  0  0  0  0  0  0  0  0
    8.6785    5.4761  -13.0273 C   0  0  1  0  0  0  0  0  0  0  0  0
    9.1969    5.2405  -10.4969 C   0  0  1  0  0  0  0  0  0  0  0  0
    7.2213    6.2210  -11.3074 C   0  0  1  0  0  0  0  0  0  0  0  0
   12.5590    7.6872   -9.9896 C   0  0  0  0  0  0  0  0  0  0  0  0
    9.7633    5.0333  -12.9720 C   0  0  1  0  0  0  0  0  0  0  0  0
   10.0661    4.0167  -14.0373 N   0  0  0  0  0  0  0  0  0  0  0  0
   13.6906    8.3004   -9.6233 O   0  0  0  0  0  0  0  0  0  0  0  0
    7.6357    4.5123  -12.6317 C   0  0  2  0  0  0  0  0  0  0  0  0
    6.8831    4.9171  -11.7031 C   0  0  1  0  0  0  0  0  0  0  0  0
   10.5937    6.6967   -9.1779 C   0  0  0  0  0  0  0  0  0  0  0  0
    9.5087    4.3263  -11.6925 C   0  0  2  0  0  0  0  0  0  0  0  0
   11.6359    7.4449   -8.9125 C   0  0  0  0  0  0  0  0  0  0  0  0
   11.9716    7.9159   -7.6200 C   0  0  0  0  0  0  0  0  0  0  0  0
    8.4648    3.6122  -12.2840 C   0  0  2  0  0  0  0  0  0  0  0  0
    9.3128    4.5571   -9.1689 C   0  0  0  0  0  0  0  0  0  0  0  0
   10.9557    7.6369   -6.5929 C   0  0  1  0  0  0  0  0  0  0  0  0
    9.6490    2.8108  -13.7776 C   0  0  1  0  0  0  0  0  0  0  0  0
    9.6716    6.1981   -8.0224 C   0  0  2  0  0  0  0  0  0  0  0  0
    8.5511    2.5400  -13.1402 C   0  0  0  0  0  0  0  0  0  0  0  0
    9.7877    2.0302  -15.0383 O   0  0  0  0  0  0  0  0  0  0  0  0
   10.2949    6.3957   -6.8142 C   0  0  1  0  0  0  0  0  0  0  0  0
   11.5672    7.6277   -5.2275 C   0  0  0  0  0  0  0  0  0  0  0  0
    9.0573    5.0713   -8.1077 N   0  0  0  0  0  0  0  0  0  0  0  0
    9.9816    8.7976   -6.5531 C   0  0  0  0  0  0  0  0  0  0  0  0
   11.0000    1.9397  -15.5744 C   0  0  0  0  0  0  0  0  0  0  0  0
    7.9363    5.6537  -10.4961 C   0  0  1  0  0  0  0  0  0  0  0  0
   11.7094    6.5344   -4.5880 C   0  0  0  0  0  0  0  0  0  0  0  0
   11.4771    5.4017   -5.2557 C   0  0  0  0  0  0  0  0  0  0  0  0
   10.9774    5.3782   -6.4193 C   0  0  0  0  0  0  0  0  0  0  0  0
   11.7702    8.9891   -4.6113 C   0  0  1  0  0  0  0  0  0  0  0  0
   10.6199    9.7777   -4.4950 C   0  0  0  0  0  0  0  0  0  0  0  0
   12.2760    8.5933   -3.2722 C   0  0  0  0  0  0  0  0  0  0  0  0
   10.0901   10.0224   -5.9085 C   0  0  0  0  0  0  0  0  0  0  0  0
   12.3992    6.6731   -3.3281 C   0  0  0  0  0  0  0  0  0  0  0  0
  1  2  1  0  0  0  0
  2  3  1  0  0  0  0
  2  7  2  0  0  0  0
  4  3  1  6  0  0  0
  4  5  1  0  0  0  0
  4  6  1  0  0  0  0
  4  8  1  0  0  0  0
  5  9  2  0  0  0  0
  6 13  1  0  0  0  0
  8 11  1  0  0  0  0
  8 19  2  0  0  0  0
 10  7  1  1  0  0  0
 10 14  1  0  0  0  0
 10 17  1  0  0  0  0
 11 20  1  0  0  0  0
 11 24  1  1  0  0  0
 11 35  1  0  0  0  0
 12  7  1  6  0  0  0
 12 18  1  0  0  0  0
 12 35  1  0  0  0  0
 13 16  2  0  0  0  0
 13 21  1  0  0  0  0
 14  5  1  1  0  0  0
 14 15  1  0  0  0  0
 14 20  1  0  0  0  0
 15 26  1  0  0  0  0
 17 18  1  0  0  0  0
 17 23  1  0  0  0  0
 18 35  1  0  0  0  0
 19 21  1  0  0  0  0
 19 27  1  0  0  0  0
 20 23  1  0  0  0  0
 21 22  2  0  0  0  0
 22 25  1  0  0  0  0
 23 28  1  0  0  0  0
 24 32  2  0  0  0  0
 25 30  1  0  0  0  0
 25 31  1  0  0  0  0
 25 33  1  0  0  0  0
 26 28  1  0  0  0  0
 26 29  1  0  0  0  0
 27 30  1  0  0  0  0
 27 32  1  0  0  0  0
 29 34  1  0  0  0  0
 30 38  1  0  0  0  0
 31 36  2  0  0  0  0
 31 39  1  0  0  0  0
 33 42  1  0  0  0  0
 36 37  1  0  0  0  0
 36 43  1  0  0  0  0
 37 38  2  0  0  0  0
 39 40  1  0  0  0  0
 39 41  1  0  0  0  0
 40 42  1  0  0  0  0
 41 43  1  0  0  0  0
M  END
$$$$

 OpenBabel10082411353D

 43 50  0  0  0  0  0  0  0  0999 V2000
   11.6836    6.0105   -4.8831 C   0  0  0  0  0  0  0  0  0  0  0  0
   11.1291    7.0732   -5.4395 C   0  0  0  0  0  0  0  0  0  0  0  0
   10.6954    7.0156   -6.8073 C   0  0  0  0  0  0  0  0  0  0  0  0
   10.2502    8.1187   -7.5536 C   0  0  2  0  0  0  0  0  0  0  0  0
   11.1205    8.4712   -4.9629 C   0  0  0  0  0  0  0  0  0  0  0  0
   10.8655    8.3511   -8.7960 C   0  0  0  0  0  0  0  0  0  0  0  0
   10.2922    7.8843   -9.9985 C   0  0  0  0  0  0  0  0  0  0  0  0
   10.4654    9.6993   -5.6120 C   0  0  0  0  0  0  0  0  0  0  0  0
   10.3510    9.5971   -7.0014 C   0  0  0  0  0  0  0  0  0  0  0  0
   12.2462    6.3351   -3.5020 C   0  0  0  0  0  0  0  0  0  0  0  0
   11.0471    7.5309  -11.1063 C   0  0  0  0  0  0  0  0  0  0  0  0
   11.7288    8.6923   -3.6518 C   0  0  0  0  0  0  0  0  0  0  0  0
   12.3991    7.7501  -11.1145 C   0  0  0  0  0  0  0  0  0  0  0  0
   12.3738    7.7580   -2.9599 C   0  0  0  0  0  0  0  0  0  0  0  0
   13.1285    8.5075  -10.1661 O   0  0  0  0  0  0  0  0  0  0  0  0
    9.0407    7.3775  -10.0973 N   0  0  0  0  0  0  0  0  0  0  0  0
    8.9787    6.9473  -11.4664 N   0  0  0  0  0  0  0  0  0  0  0  0
   13.1012    7.4459  -12.3707 C   0  0  0  0  0  0  0  0  0  0  0  0
   12.2395    6.9724  -13.2444 C   0  0  0  0  0  0  0  0  0  0  0  0
   10.2768    7.0170  -11.9799 C   0  0  0  0  0  0  0  0  0  0  0  0
   12.9237    6.5822  -14.5759 O   0  0  0  0  0  0  0  0  0  0  0  0
   10.8906    6.6526  -13.2252 C   0  0  0  0  0  0  0  0  0  0  0  0
   12.2396    6.1290  -15.6916 C   0  0  0  0  0  0  0  0  0  0  0  0
    7.8036    6.1825  -11.9342 C   0  0  0  0  0  0  0  0  0  0  0  0
   12.5015    4.7115  -15.7686 C   0  0  0  0  0  0  0  0  0  0  0  0
    7.1685    6.9992  -12.8245 C   0  0  0  0  0  0  0  0  0  0  0  0
   11.2461    3.8540  -15.4851 C   0  0  2  0  0  0  0  0  0  0  0  0
    7.6237    4.9154  -11.6529 C   0  0  0  0  0  0  0  0  0  0  0  0
    6.6378    4.1960  -12.2267 C   0  0  0  0  0  0  0  0  0  0  0  0
    6.2717    2.7675  -11.9743 C   0  0  0  0  0  0  0  0  0  0  0  0
    6.6569    1.8873  -12.9460 C   0  0  0  0  0  0  0  0  0  0  0  0
    7.3895    8.4597  -13.1785 C   0  0  0  0  0  0  0  0  0  0  0  0
    6.3114    0.5653  -12.7247 C   0  0  0  0  0  0  0  0  0  0  0  0
    7.7684    2.0327  -13.9055 C   0  0  0  0  0  0  0  0  0  0  0  0
    6.9387   -0.3720  -13.7691 C   0  0  0  0  0  0  0  0  0  0  0  0
    8.4223    3.3339  -14.0264 C   0  0  0  0  0  0  0  0  0  0  0  0
    9.9233    3.2491  -14.0383 C   0  0  0  0  0  0  0  0  0  0  0  0
   10.7554    4.1043  -14.1438 O   0  0  0  0  0  0  0  0  0  0  0  0
    7.8881   -0.1105  -14.6109 C   0  0  0  0  0  0  0  0  0  0  0  0
   10.4071    2.1302  -14.6473 C   0  0  0  0  0  0  0  0  0  0  0  0
   11.5100    2.7281  -15.2368 C   0  0  0  0  0  0  0  0  0  0  0  0
    9.6915    0.9076  -14.6836 C   0  0  0  0  0  0  0  0  0  0  0  0
    8.6175    0.9940  -14.3660 C   0  0  0  0  0  0  0  0  0  0  0  0
  1  2  1  0  0  0  0
  1 10  2  0  0  0  0
  2  3  1  0  0  0  0
  2  5  2  0  0  0  0
  3  4  1  0  0  0  0
  4  6  1  6  0  0  0
  4  9  1  0  0  0  0
  5  8  1  0  0  0  0
  5 12  1  0  0  0  0
  6  7  1  0  0  0  0
  7 11  1  0  0  0  0
  7 16  2  0  0  0  0
  8  9  1  0  0  0  0
 10 14  1  0  0  0  0
 11 13  2  0  0  0  0
 11 20  1  0  0  0  0
 12 14  2  0  0  0  0
 13 15  1  0  0  0  0
 13 18  1  0  0  0  0
 16 17  1  0  0  0  0
 17 20  1  0  0  0  0
 17 24  1  0  0  0  0
 18 19  2  0  0  0  0
 19 21  1  0  0  0  0
 19 22  1  0  0  0  0
 20 22  2  0  0  0  0
 21 23  1  0  0  0  0
 23 25  1  0  0  0  0
 24 26  2  3  0  0  0
 24 28  1  0  0  0  0
 26 32  1  0  0  0  0
 27 25  1  1  0  0  0
 27 38  1  0  0  0  0
 27 41  1  0  0  0  0
 28 29  2  0  0  0  0
 29 30  1  0  0  0  0
 30 31  1  0  0  0  0
 31 33  2  0  0  0  0
 31 34  1  0  0  0  0
 33 35  1  0  0  0  0
 34 36  1  0  0  0  0
 34 43  2  0  0  0  0
 35 39  2  0  0  0  0
 36 37  1  0  0  0  0
 37 38  1  0  0  0  0
 37 40  2  0  0  0  0
 39 43  1  0  0  0  0
 40 41  1  0  0  0  0
 40 42  1  0  0  0  0
 42 43  1  0  0  0  0
M  END
$$$$

 OpenBabel10082411353D

 27 30  0  0  0  0  0  0  0  0999 V2000
   12.8881    8.7759   -3.5681 C   0  0  0  0  0  0  0  0  0  0  0  0
   11.9416    9.4732   -4.1220 C   0  0  0  0  0  0  0  0  0  0  0  0
   12.1782    9.3707   -5.6407 C   0  0  0  0  0  0  0  0  0  0  0  0
   11.3825    8.3447   -6.3966 C   0  0  0  0  0  0  0  0  0  0  0  0
   11.8188    8.0044   -7.6822 C   0  0  0  0  0  0  0  0  0  0  0  0
   10.3120    7.6600   -5.7120 C   0  0  0  0  0  0  0  0  0  0  0  0
   10.8678    7.0723   -8.2897 C   0  0  0  0  0  0  0  0  0  0  0  0
    9.5717    6.7245   -6.3809 C   0  0  0  0  0  0  0  0  0  0  0  0
    9.8820    6.4468   -7.7081 C   0  0  0  0  0  0  0  0  0  0  0  0
   11.2611    6.6953   -9.7105 C   0  0  0  0  0  0  0  0  0  0  0  0
   10.0425    6.5460  -10.5971 C   0  0  0  0  0  0  0  0  0  0  0  0
    9.7273    7.6207  -11.3847 C   0  0  1  0  0  0  0  0  0  0  0  0
    9.9764    7.6413  -12.5696 O   0  0  0  0  0  0  0  0  0  0  0  0
    8.9346    5.4564   -8.3902 C   0  0  0  0  0  0  0  0  0  0  0  0
    8.2490    7.9349  -11.1820 O   0  0  0  0  0  0  0  0  0  0  0  0
   10.1841    6.7003  -13.2223 C   0  0  0  0  0  0  0  0  0  0  0  0
    9.5958    5.5854  -13.1076 C   0  0  0  0  0  0  0  0  0  0  0  0
    8.4924    5.3473  -12.1285 C   0  0  0  0  0  0  0  0  0  0  0  0
    9.8209    4.3589  -14.0027 C   0  0  0  0  0  0  0  0  0  0  0  0
    7.6536    4.3101  -12.3765 O   0  0  0  0  0  0  0  0  0  0  0  0
   11.1109    4.2107  -14.4593 C   0  0  0  0  0  0  0  0  0  0  0  0
    8.9804    5.5270  -10.7091 C   0  0  0  0  0  0  0  0  0  0  0  0
   11.5375    6.7339  -14.0672 C   0  0  0  0  0  0  0  0  0  0  0  0
   11.7491    5.5310  -14.8752 C   0  0  0  0  0  0  0  0  0  0  0  0
    8.6430    4.8704   -9.6130 C   0  0  0  0  0  0  0  0  0  0  0  0
   11.9531    3.6668  -13.2148 C   0  0  0  0  0  0  0  0  0  0  0  0
   11.3627    3.2619  -15.4575 C   0  0  0  0  0  0  0  0  0  0  0  0
  1  2  1  0  0  0  0
  2  3  1  0  0  0  0
  3  4  1  0  0  0  0
  4  5  2  0  0  0  0
  4  6  1  0  0  0  0
  5  7  1  0  0  0  0
  6  8  2  0  0  0  0
  7  9  2  0  0  0  0
  7 10  1  0  0  0  0
  8  9  1  0  0  0  0
  9 14  1  0  0  0  0
 10 11  1  0  0  0  0
 11 12  1  0  0  0  0
 11 22  2  0  0  0  0
 12 13  1  0  0  0  0
 12 15  1  6  0  0  0
 13 16  1  0  0  0  0
 14 25  2  0  0  0  0
 16 17  2  0  0  0  0
 16 23  1  0  0  0  0
 17 18  1  0  0  0  0
 17 19  1  0  0  0  0
 18 20  2  0  0  0  0
 18 22  1  0  0  0  0
 19 21  1  0  0  0  0
 21 24  1  0  0  0  0
 21 26  1  0  0  0  0
 21 27  1  0  0  0  0
 22 25  1  0  0  0  0
 23 24  1  0  0  0  0
M  END
$$$$

 OpenBabel10082411353D

 43 49  0  0  0  0  0  0  0  0999 V2000
   11.6836    6.0105   -4.8831 F   0  0  0  0  0  0  0  0  0  0  0  0
   11.2562    7.2206   -5.0294 C   0  0  0  0  0  0  0  0  0  0  0  0
   12.0125    8.2418   -4.4408 C   0  0  0  0  0  0  0  0  0  0  0  0
   11.1918    7.2706   -6.5237 C   0  0  2  0  0  0  0  0  0  0  0  0
   11.6999    8.4488   -3.1704 F   0  0  0  0  0  0  0  0  0  0  0  0
    9.8648    7.0908   -4.5314 F   0  0  0  0  0  0  0  0  0  0  0  0
   11.6831    8.5291   -6.9682 C   0  0  1  0  0  0  0  0  0  0  0  0
   13.3042    8.0958   -4.5769 F   0  0  0  0  0  0  0  0  0  0  0  0
   10.0051    6.7877   -7.1387 C   0  0  2  0  0  0  0  0  0  0  0  0
   12.1549    9.4036   -6.0698 C   0  0  0  0  0  0  0  0  0  0  0  0
   11.7460    9.5074   -4.8672 O   0  0  0  0  0  0  0  0  0  0  0  0
   12.5684    8.5172   -7.8652 C   0  0  0  0  0  0  0  0  0  0  0  0
   10.4250    8.9412   -7.4869 C   0  0  0  0  0  0  0  0  0  0  0  0
    9.8902    5.4070   -7.8206 C   0  0  1  0  0  0  0  0  0  0  0  0
    8.7348    4.6919   -7.6168 C   0  0  0  0  0  0  0  0  0  0  0  0
    9.5887    7.8633   -8.0188 C   0  0  1  0  0  0  0  0  0  0  0  0
   10.0149    7.4671   -9.3945 C   0  0  0  0  0  0  0  0  0  0  0  0
    8.7013    3.5197   -8.2148 C   0  0  0  0  0  0  0  0  0  0  0  0
    9.3794    3.4628   -9.4166 C   0  0  0  0  0  0  0  0  0  0  0  0
    9.7670    8.0902  -10.5147 C   0  0  0  0  0  0  0  0  0  0  0  0
   10.1630    7.7248  -11.8028 C   0  0  0  0  0  0  0  0  0  0  0  0
   10.1363    4.5235   -9.8811 C   0  0  0  0  0  0  0  0  0  0  0  0
   10.2836    5.8862   -9.1314 C   0  0  2  0  0  0  0  0  0  0  0  0
    9.2642    7.6154  -12.7688 C   0  0  0  0  0  0  0  0  0  0  0  0
    9.7352    7.0429  -13.9890 C   0  0  0  0  0  0  0  0  0  0  0  0
    8.9431    5.9978  -14.4048 C   0  0  0  0  0  0  0  0  0  0  0  0
    8.0476    5.1914  -13.6918 C   0  0  0  0  0  0  0  0  0  0  0  0
    8.1490    3.7734  -13.7660 C   0  0  0  0  0  0  0  0  0  0  0  0
    7.0453    3.1418  -12.9717 C   0  0  0  0  0  0  0  0  0  0  0  0
    6.2338    3.8839  -12.1754 C   0  0  0  0  0  0  0  0  0  0  0  0
   10.8369    7.3431  -14.6932 C   0  0  0  0  0  0  0  0  0  0  0  0
    7.2107    5.8505  -12.7998 C   0  0  0  0  0  0  0  0  0  0  0  0
    5.3001    3.0920  -11.3306 F   0  0  0  0  0  0  0  0  0  0  0  0
    7.8586    7.9143  -12.4857 C   0  0  0  0  0  0  0  0  0  0  0  0
    6.3696    5.0319  -12.1370 C   0  0  0  0  0  0  0  0  0  0  0  0
    6.9659    7.0740  -12.5678 C   0  0  0  0  0  0  0  0  0  0  0  0
   11.6802    6.2859  -15.0974 C   0  0  0  0  0  0  0  0  0  0  0  0
   11.4895    5.0617  -14.5281 C   0  0  0  0  0  0  0  0  0  0  0  0
   11.6883    3.9380  -15.1014 C   0  0  0  0  0  0  0  0  0  0  0  0
   12.5714    6.3735  -16.0141 C   0  0  0  0  0  0  0  0  0  0  0  0
   11.4888    2.6013  -14.4733 F   0  0  0  0  0  0  0  0  0  0  0  0
   12.8084    3.8383  -15.9707 C   0  0  0  0  0  0  0  0  0  0  0  0
   13.1746    5.2224  -16.4818 C   0  0  0  0  0  0  0  0  0  0  0  0
  1  2  1  0  0  0  0
  2  3  1  0  0  0  0
  2  6  1  0  0  0  0
  3  5  1  0  0  0  0
  3  8  1  0  0  0  0
  3 11  1  0  0  0  0
  4  2  1  1  0  0  0
  4  7  1  0  0  0  0
  4  9  1  0  0  0  0
  7 10  1  0  0  0  0
  7 12  1  6  0  0  0
  7 13  1  0  0  0  0
  9 14  1  0  0  0  0
  9 16  1  0  0  0  0
 10 11  1  0  0  0  0
 13 16  1  0  0  0  0
 14 15  1  0  0  0  0
 14 23  1  0  0  0  0
 15 18  2  0  0  0  0
 16 17  1  0  0  0  0
 17 20  2  3  0  0  0
 17 23  1  0  0  0  0
 18 19  1  0  0  0  0
 19 22  2  0  0  0  0
 20 21  1  0  0  0  0
 21 24  2  3  0  0  0
 22 23  1  0  0  0  0
 24 25  1  0  0  0  0
 24 34  1  0  0  0  0
 25 26  2  0  0  0  0
 25 31  1  0  0  0  0
 26 27  1  0  0  0  0
 27 28  2  0  0  0  0
 27 32  1  0  0  0  0
 28 29  1  0  0  0  0
 29 30  2  0  0  0  0
 30 33  1  0  0  0  0
 30 35  1  0  0  0  0
 31 37  1  0  0  0  0
 32 35  2  0  0  0  0
 32 36  1  0  0  0  0
 34 36  1  0  0  0  0
 37 38  1  0  0  0  0
 37 40  2  0  0  0  0
 38 39  2  0  0  0  0
 39 41  1  0  0  0  0
 39 42  1  0  0  0  0
 40 43  1  0  0  0  0
 42 43  2  0  0  0  0
M  END
$$$$

 OpenBabel10082411353D

 43 50  0  0  0  0  0  0  0  0999 V2000
   11.6836    6.0105   -4.8831 C   0  0  0  0  0  0  0  0  0  0  0  0
   11.1291    7.0732   -5.4395 C   0  0  0  0  0  0  0  0  0  0  0  0
   10.6954    7.0156   -6.8073 C   0  0  0  0  0  0  0  0  0  0  0  0
   10.2502    8.1187   -7.5536 C   0  0  2  0  0  0  0  0  0  0  0  0
   11.1205    8.4712   -4.9629 C   0  0  0  0  0  0  0  0  0  0  0  0
   10.8655    8.3511   -8.7960 C   0  0  0  0  0  0  0  0  0  0  0  0
   10.2922    7.8843   -9.9985 C   0  0  0  0  0  0  0  0  0  0  0  0
   10.4654    9.6993   -5.6120 C   0  0  0  0  0  0  0  0  0  0  0  0
   10.3510    9.5971   -7.0014 C   0  0  0  0  0  0  0  0  0  0  0  0
   12.2462    6.3351   -3.5020 C   0  0  0  0  0  0  0  0  0  0  0  0
   11.0471    7.5309  -11.1063 C   0  0  0  0  0  0  0  0  0  0  0  0
   11.7288    8.6923   -3.6518 C   0  0  0  0  0  0  0  0  0  0  0  0
   12.3991    7.7501  -11.1145 C   0  0  0  0  0  0  0  0  0  0  0  0
   12.3738    7.7580   -2.9599 C   0  0  0  0  0  0  0  0  0  0  0  0
   13.1285    8.5075  -10.1661 O   0  0  0  0  0  0  0  0  0  0  0  0
    9.0407    7.3775  -10.0973 N   0  0  0  0  0  0  0  0  0  0  0  0
    8.9787    6.9473  -11.4664 N   0  0  0  0  0  0  0  0  0  0  0  0
   13.1012    7.4459  -12.3707 C   0  0  0  0  0  0  0  0  0  0  0  0
   12.2395    6.9724  -13.2444 C   0  0  0  0  0  0  0  0  0  0  0  0
   10.2768    7.0170  -11.9799 C   0  0  0  0  0  0  0  0  0  0  0  0
   12.9237    6.5822  -14.5759 O   0  0  0  0  0  0  0  0  0  0  0  0
   10.8906    6.6526  -13.2252 C   0  0  0  0  0  0  0  0  0  0  0  0
   12.2396    6.1290  -15.6916 C   0  0  0  0  0  0  0  0  0  0  0  0
    7.8036    6.1825  -11.9342 C   0  0  0  0  0  0  0  0  0  0  0  0
   12.5015    4.7115  -15.7686 C   0  0  0  0  0  0  0  0  0  0  0  0
    7.1685    6.9992  -12.8245 C   0  0  0  0  0  0  0  0  0  0  0  0
   11.2461    3.8540  -15.4851 C   0  0  0  0  0  0  0  0  0  0  0  0
    7.6237    4.9154  -11.6529 C   0  0  0  0  0  0  0  0  0  0  0  0
    6.6378    4.1960  -12.2267 C   0  0  0  0  0  0  0  0  0  0  0  0
    6.2717    2.7675  -11.9743 C   0  0  0  0  0  0  0  0  0  0  0  0
    6.6569    1.8873  -12.9460 C   0  0  0  0  0  0  0  0  0  0  0  0
    7.3895    8.4597  -13.1785 C   0  0  0  0  0  0  0  0  0  0  0  0
    6.3114    0.5653  -12.7247 C   0  0  0  0  0  0  0  0  0  0  0  0
    7.7684    2.0327  -13.9055 C   0  0  0  0  0  0  0  0  0  0  0  0
    6.9387   -0.3720  -13.7691 C   0  0  0  0  0  0  0  0  0  0  0  0
    8.4223    3.3339  -14.0264 C   0  0  0  0  0  0  0  0  0  0  0  0
    8.2908    1.0246  -14.6080 C   0  0  0  0  0  0  0  0  0  0  0  0
    7.8707   -0.1948  -14.5676 C   0  0  0  0  0  0  0  0  0  0  0  0
    9.4626    1.2359  -15.4581 C   0  0  0  0  0  0  0  0  0  0  0  0
   11.0527    2.6945  -16.2982 N   0  0  0  0  0  0  0  0  0  0  0  0
    9.4988    3.4340  -14.8783 C   0  0  0  0  0  0  0  0  0  0  0  0
    9.8143    0.0073  -15.9188 F   0  0  0  0  0  0  0  0  0  0  0  0
   10.1921    2.2933  -15.4774 C   0  0  1  0  0  0  0  0  0  0  0  0
  1  2  1  0  0  0  0
  1 10  2  0  0  0  0
  2  3  1  0  0  0  0
  2  5  2  0  0  0  0
  3  4  1  0  0  0  0
  4  6  1  6  0  0  0
  4  9  1  0  0  0  0
  5  8  1  0  0  0  0
  5 12  1  0  0  0  0
  6  7  1  0  0  0  0
  7 11  1  0  0  0  0
  7 16  2  0  0  0  0
  8  9  1  0  0  0  0
 10 14  1  0  0  0  0
 11 13  2  0  0  0  0
 11 20  1  0  0  0  0
 12 14  2  0  0  0  0
 13 15  1  0  0  0  0
 13 18  1  0  0  0  0
 16 17  1  0  0  0  0
 17 20  1  0  0  0  0
 17 24  1  0  0  0  0
 18 19  2  0  0  0  0
 19 21  1  0  0  0  0
 19 22  1  0  0  0  0
 20 22  2  0  0  0  0
 21 23  1  0  0  0  0
 23 25  1  0  0  0  0
 24 26  2  3  0  0  0
 24 28  1  0  0  0  0
 25 27  1  0  0  0  0
 26 32  1  0  0  0  0
 27 40  1  0  0  0  0
 27 41  2  0  0  0  0
 28 29  2  0  0  0  0
 29 30  1  0  0  0  0
 30 31  1  0  0  0  0
 31 33  2  0  0  0  0
 31 34  1  0  0  0  0
 33 35  1  0  0  0  0
 34 36  2  0  0  0  0
 34 37  1  0  0  0  0
 35 38  1  0  0  0  0
 36 41  1  0  0  0  0
 37 38  1  0  0  0  0
 37 39  2  0  0  0  0
 39 42  1  0  0  0  0
 40 43  1  0  0  0  0
 41 43  1  0  0  0  0
 43 39  1  6  0  0  0
M  END
$$$$

 OpenBabel10082411353D

 43 50  0  0  0  0  0  0  0  0999 V2000
   11.6836    6.0105   -4.8831 C   0  0  0  0  0  0  0  0  0  0  0  0
   11.1291    7.0732   -5.4395 C   0  0  0  0  0  0  0  0  0  0  0  0
   10.6954    7.0156   -6.8073 C   0  0  0  0  0  0  0  0  0  0  0  0
   10.2502    8.1187   -7.5536 C   0  0  2  0  0  0  0  0  0  0  0  0
   11.1205    8.4712   -4.9629 C   0  0  0  0  0  0  0  0  0  0  0  0
   10.8655    8.3511   -8.7960 C   0  0  0  0  0  0  0  0  0  0  0  0
   10.2922    7.8843   -9.9985 C   0  0  0  0  0  0  0  0  0  0  0  0
   10.4654    9.6993   -5.6120 C   0  0  0  0  0  0  0  0  0  0  0  0
   10.3510    9.5971   -7.0014 C   0  0  0  0  0  0  0  0  0  0  0  0
   12.2462    6.3351   -3.5020 C   0  0  0  0  0  0  0  0  0  0  0  0
   11.0471    7.5309  -11.1063 C   0  0  0  0  0  0  0  0  0  0  0  0
   11.7288    8.6923   -3.6518 C   0  0  0  0  0  0  0  0  0  0  0  0
   12.3991    7.7501  -11.1145 C   0  0  0  0  0  0  0  0  0  0  0  0
   12.3738    7.7580   -2.9599 C   0  0  0  0  0  0  0  0  0  0  0  0
   13.1285    8.5075  -10.1661 O   0  0  0  0  0  0  0  0  0  0  0  0
    9.0407    7.3775  -10.0973 N   0  0  0  0  0  0  0  0  0  0  0  0
    8.9787    6.9473  -11.4664 N   0  0  0  0  0  0  0  0  0  0  0  0
   13.1012    7.4459  -12.3707 C   0  0  0  0  0  0  0  0  0  0  0  0
   12.2395    6.9724  -13.2444 C   0  0  0  0  0  0  0  0  0  0  0  0
   10.2768    7.0170  -11.9799 C   0  0  0  0  0  0  0  0  0  0  0  0
   12.9237    6.5822  -14.5759 O   0  0  0  0  0  0  0  0  0  0  0  0
   10.8906    6.6526  -13.2252 C   0  0  0  0  0  0  0  0  0  0  0  0
   12.2396    6.1290  -15.6916 C   0  0  0  0  0  0  0  0  0  0  0  0
    7.8036    6.1825  -11.9342 C   0  0  0  0  0  0  0  0  0  0  0  0
   12.5015    4.7115  -15.7686 C   0  0  0  0  0  0  0  0  0  0  0  0
    7.1685    6.9992  -12.8245 C   0  0  0  0  0  0  0  0  0  0  0  0
   11.2461    3.8540  -15.4851 C   0  0  2  0  0  0  0  0  0  0  0  0
    7.6237    4.9154  -11.6529 C   0  0  0  0  0  0  0  0  0  0  0  0
    6.6378    4.1960  -12.2267 C   0  0  0  0  0  0  0  0  0  0  0  0
    6.2717    2.7675  -11.9743 C   0  0  0  0  0  0  0  0  0  0  0  0
    6.6569    1.8873  -12.9460 C   0  0  0  0  0  0  0  0  0  0  0  0
    7.3895    8.4597  -13.1785 C   0  0  0  0  0  0  0  0  0  0  0  0
    6.3114    0.5653  -12.7247 C   0  0  0  0  0  0  0  0  0  0  0  0
    7.7684    2.0327  -13.9055 C   0  0  0  0  0  0  0  0  0  0  0  0
    6.9387   -0.3720  -13.7691 C   0  0  0  0  0  0  0  0  0  0  0  0
    8.4223    3.3339  -14.0264 C   0  0  0  0  0  0  0  0  0  0  0  0
    9.9233    3.2491  -14.0383 C   0  0  0  0  0  0  0  0  0  0  0  0
   10.7554    4.1043  -14.1438 O   0  0  0  0  0  0  0  0  0  0  0  0
    7.8881   -0.1105  -14.6109 C   0  0  0  0  0  0  0  0  0  0  0  0
   10.4071    2.1302  -14.6473 C   0  0  0  0  0  0  0  0  0  0  0  0
   11.5100    2.7281  -15.2368 N   0  0  0  0  0  0  0  0  0  0  0  0
    9.8121    0.8555  -14.8685 C   0  0  0  0  0  0  0  0  0  0  0  0
    8.5186    0.9821  -14.3596 C   0  0  0  0  0  0  0  0  0  0  0  0
  1  2  1  0  0  0  0
  1 10  2  0  0  0  0
  2  3  1  0  0  0  0
  2  5  2  0  0  0  0
  3  4  1  0  0  0  0
  4  6  1  6  0  0  0
  4  9  1  0  0  0  0
  5  8  1  0  0  0  0
  5 12  1  0  0  0  0
  6  7  1  0  0  0  0
  7 11  1  0  0  0  0
  7 16  2  0  0  0  0
  8  9  1  0  0  0  0
 10 14  1  0  0  0  0
 11 13  2  0  0  0  0
 11 20  1  0  0  0  0
 12 14  2  0  0  0  0
 13 15  1  0  0  0  0
 13 18  1  0  0  0  0
 16 17  1  0  0  0  0
 17 20  1  0  0  0  0
 17 24  1  0  0  0  0
 18 19  2  0  0  0  0
 19 21  1  0  0  0  0
 19 22  1  0  0  0  0
 20 22  2  0  0  0  0
 21 23  1  0  0  0  0
 23 25  1  0  0  0  0
 24 26  2  3  0  0  0
 24 28  1  0  0  0  0
 26 32  1  0  0  0  0
 27 25  1  1  0  0  0
 27 38  1  0  0  0  0
 27 41  1  0  0  0  0
 28 29  2  0  0  0  0
 29 30  1  0  0  0  0
 30 31  1  0  0  0  0
 31 33  2  0  0  0  0
 31 34  1  0  0  0  0
 33 35  1  0  0  0  0
 34 36  1  0  0  0  0
 34 43  2  0  0  0  0
 35 39  2  0  0  0  0
 36 37  1  0  0  0  0
 37 38  1  0  0  0  0
 37 40  2  0  0  0  0
 39 43  1  0  0  0  0
 40 41  1  0  0  0  0
 40 42  1  0  0  0  0
 42 43  1  0  0  0  0
M  END
$$$$

 OpenBabel10082411353D

 43 54  0  0  0  0  0  0  0  0999 V2000
    8.0806    9.0240  -12.7589 C   0  0  0  0  0  0  0  0  0  0  0  0
    8.6514    7.8645  -12.2948 C   0  0  0  0  0  0  0  0  0  0  0  0
    9.9575    7.9974  -11.8426 C   0  0  0  0  0  0  0  0  0  0  0  0
   10.7657    6.8667  -11.6050 C   0  0  1  0  0  0  0  0  0  0  0  0
   10.7682    5.9590  -12.8271 C   0  0  0  0  0  0  0  0  0  0  0  0
   12.1553    7.3846  -11.2315 C   0  0  0  0  0  0  0  0  0  0  0  0
    8.0676    6.6451  -12.2974 C   0  0  0  0  0  0  0  0  0  0  0  0
   10.1892    6.1240  -10.3860 C   0  0  0  0  0  0  0  0  0  0  0  0
   11.8375    5.4373  -13.3240 O   0  0  0  0  0  0  0  0  0  0  0  0
    8.6785    5.4761  -13.0273 C   0  0  1  0  0  0  0  0  0  0  0  0
    9.1969    5.2405  -10.4969 C   0  0  2  0  0  0  0  0  0  0  0  0
    7.2213    6.2210  -11.3074 C   0  0  2  0  0  0  0  0  0  0  0  0
   12.5590    7.6872   -9.9896 C   0  0  0  0  0  0  0  0  0  0  0  0
    9.7633    5.0333  -12.9720 C   0  0  1  0  0  0  0  0  0  0  0  0
   10.0661    4.0167  -14.0373 N   0  0  0  0  0  0  0  0  0  0  0  0
   13.6906    8.3004   -9.6233 O   0  0  0  0  0  0  0  0  0  0  0  0
    7.6357    4.5123  -12.6317 C   0  0  2  0  0  0  0  0  0  0  0  0
    6.8831    4.9171  -11.7031 C   0  0  2  0  0  0  0  0  0  0  0  0
   10.5937    6.6967   -9.1779 C   0  0  0  0  0  0  0  0  0  0  0  0
    9.5087    4.3263  -11.6925 C   0  0  2  0  0  0  0  0  0  0  0  0
   11.6359    7.4449   -8.9125 C   0  0  0  0  0  0  0  0  0  0  0  0
   11.9716    7.9159   -7.6200 C   0  0  0  0  0  0  0  0  0  0  0  0
    8.4648    3.6122  -12.2840 C   0  0  1  0  0  0  0  0  0  0  0  0
    7.9253    2.8004  -11.3926 C   0  0  1  0  0  0  0  0  0  0  0  0
    5.6047    4.5059  -11.7589 C   0  0  0  0  0  0  0  0  0  0  0  0
    7.6606    4.1297  -10.5699 C   0  0  0  0  0  0  0  0  0  0  0  0
   10.9559    7.6849   -6.6057 C   0  0  0  0  0  0  0  0  0  0  0  0
    8.0094    4.5092   -9.5664 C   0  0  0  0  0  0  0  0  0  0  0  0
    8.3033    4.0627   -8.4980 C   0  0  0  0  0  0  0  0  0  0  0  0
    6.3587    7.1012  -11.0392 O   0  0  0  0  0  0  0  0  0  0  0  0
   11.0186    3.9598  -14.9226 C   0  0  0  0  0  0  0  0  0  0  0  0
    8.1758    5.8633  -10.2511 C   0  0  1  0  0  0  0  0  0  0  0  0
   11.4648    2.7104  -15.2650 O   0  0  0  0  0  0  0  0  0  0  0  0
    9.9512    6.8220   -6.8436 C   0  0  0  0  0  0  0  0  0  0  0  0
    9.6899    6.3705   -8.1082 C   0  0  2  0  0  0  0  0  0  0  0  0
   11.2597    8.2901   -5.2396 C   0  0  0  0  0  0  0  0  0  0  0  0
    9.1264    2.9648  -13.9669 C   0  0  0  0  0  0  0  0  0  0  0  0
    9.2902    4.9507   -7.7799 C   0  0  0  0  0  0  0  0  0  0  0  0
   11.6750    9.7536   -5.2211 C   0  0  0  0  0  0  0  0  0  0  0  0
   12.6364    9.9910   -4.2013 C   0  0  0  0  0  0  0  0  0  0  0  0
    8.6767    2.4780  -15.2342 C   0  0  0  0  0  0  0  0  0  0  0  0
   11.7644    4.8944  -15.3250 O   0  0  0  0  0  0  0  0  0  0  0  0
    8.4186    2.5435  -13.0212 C   0  0  0  0  0  0  0  0  0  0  0  0
  1  2  1  0  0  0  0
  2  3  1  0  0  0  0
  2  7  2  0  0  0  0
  4  3  1  6  0  0  0
  4  5  1  0  0  0  0
  4  6  1  0  0  0  0
  4  8  1  0  0  0  0
  5  9  2  0  0  0  0
  6 13  1  0  0  0  0
  7 12  1  0  0  0  0
  8 19  2  0  0  0  0
 10  7  1  1  0  0  0
 10 14  1  0  0  0  0
 10 17  1  0  0  0  0
 11  8  1  6  0  0  0
 11 20  1  0  0  0  0
 11 32  1  0  0  0  0
 12 18  1  0  0  0  0
 12 30  1  1  0  0  0
 12 32  1  0  0  0  0
 13 16  2  0  0  0  0
 13 21  1  0  0  0  0
 14  5  1  1  0  0  0
 14 15  1  0  0  0  0
 14 20  1  0  0  0  0
 15 31  1  0  0  0  0
 15 37  1  0  0  0  0
 17 18  1  0  0  0  0
 17 23  1  0  0  0  0
 18 25  1  0  0  0  0
 18 26  1  0  0  0  0
 19 21  1  0  0  0  0
 19 35  1  0  0  0  0
 20 23  1  0  0  0  0
 21 22  2  0  0  0  0
 22 27  1  0  0  0  0
 23 24  1  0  0  0  0
 23 43  1  0  0  0  0
 24 26  1  0  0  0  0
 24 43  1  0  0  0  0
 26 28  2  0  0  0  0
 27 34  2  0  0  0  0
 27 36  1  0  0  0  0
 28 29  1  0  0  0  0
 28 32  1  0  0  0  0
 29 38  1  0  0  0  0
 31 33  2  0  0  0  0
 31 42  1  0  0  0  0
 34 35  1  0  0  0  0
 35 38  1  0  0  0  0
 36 39  1  0  0  0  0
 37 41  1  0  0  0  0
 37 43  2  3  0  0  0
 39 40  1  0  0  0  0
M  END
$$$$

 OpenBabel10082411353D

 43 53  0  0  0  0  0  0  0  0999 V2000
    8.0806    9.0240  -12.7589 C   0  0  0  0  0  0  0  0  0  0  0  0
    8.6514    7.8645  -12.2948 C   0  0  0  0  0  0  0  0  0  0  0  0
    9.9575    7.9974  -11.8426 C   0  0  0  0  0  0  0  0  0  0  0  0
   10.7657    6.8667  -11.6050 C   0  0  1  0  0  0  0  0  0  0  0  0
   10.7682    5.9590  -12.8271 C   0  0  0  0  0  0  0  0  0  0  0  0
   12.1553    7.3846  -11.2315 C   0  0  0  0  0  0  0  0  0  0  0  0
    8.0676    6.6451  -12.2974 C   0  0  0  0  0  0  0  0  0  0  0  0
   10.1892    6.1240  -10.3860 C   0  0  0  0  0  0  0  0  0  0  0  0
   11.8375    5.4373  -13.3240 O   0  0  0  0  0  0  0  0  0  0  0  0
    8.6785    5.4761  -13.0273 C   0  0  1  0  0  0  0  0  0  0  0  0
    9.1969    5.2405  -10.4969 C   0  0  2  0  0  0  0  0  0  0  0  0
    7.2213    6.2210  -11.3074 C   0  0  2  0  0  0  0  0  0  0  0  0
   12.5590    7.6872   -9.9896 C   0  0  0  0  0  0  0  0  0  0  0  0
    9.7633    5.0333  -12.9720 C   0  0  1  0  0  0  0  0  0  0  0  0
   10.0661    4.0167  -14.0373 N   0  0  0  0  0  0  0  0  0  0  0  0
   13.6906    8.3004   -9.6233 O   0  0  0  0  0  0  0  0  0  0  0  0
    7.6357    4.5123  -12.6317 C   0  0  2  0  0  0  0  0  0  0  0  0
    6.8831    4.9171  -11.7031 C   0  0  2  0  0  0  0  0  0  0  0  0
   10.5937    6.6967   -9.1779 C   0  0  0  0  0  0  0  0  0  0  0  0
    9.5087    4.3263  -11.6925 C   0  0  2  0  0  0  0  0  0  0  0  0
   11.6359    7.4449   -8.9125 C   0  0  0  0  0  0  0  0  0  0  0  0
   11.9716    7.9159   -7.6200 C   0  0  0  0  0  0  0  0  0  0  0  0
    8.4648    3.6122  -12.2840 C   0  0  1  0  0  0  0  0  0  0  0  0
    7.9253    2.8004  -11.3926 C   0  0  0  0  0  0  0  0  0  0  0  0
    5.6047    4.5059  -11.7589 C   0  0  0  0  0  0  0  0  0  0  0  0
    7.6606    4.1297  -10.5699 C   0  0  0  0  0  0  0  0  0  0  0  0
   10.9559    7.6849   -6.6057 C   0  0  0  0  0  0  0  0  0  0  0  0
    8.0094    4.5092   -9.5664 C   0  0  0  0  0  0  0  0  0  0  0  0
    8.3033    4.0627   -8.4980 C   0  0  0  0  0  0  0  0  0  0  0  0
    6.3587    7.1012  -11.0392 O   0  0  0  0  0  0  0  0  0  0  0  0
   11.0186    3.9598  -14.9226 C   0  0  0  0  0  0  0  0  0  0  0  0
    8.1758    5.8633  -10.2511 C   0  0  1  0  0  0  0  0  0  0  0  0
    9.4315    2.8557  -13.5931 C   0  0  0  0  0  0  0  0  0  0  0  0
   11.5906    2.6986  -15.1672 C   0  0  0  0  0  0  0  0  0  0  0  0
   11.2029    4.8307  -15.6614 O   0  0  0  0  0  0  0  0  0  0  0  0
    9.9720    6.7848   -6.8417 C   0  0  0  0  0  0  0  0  0  0  0  0
    8.6966    2.9850   -8.3465 O   0  0  0  0  0  0  0  0  0  0  0  0
    8.5860    5.0154   -7.5833 C   0  0  0  0  0  0  0  0  0  0  0  0
   11.3663    8.4216   -5.0482 S   0  0  0  0  0  0  0  0  0  0  0  0
    9.7039    6.3872   -7.9954 C   0  0  2  0  0  0  0  0  0  0  0  0
   12.0961    9.6959   -5.2755 O   0  0  0  0  0  0  0  0  0  0  0  0
   10.0234    8.8643   -4.2848 N   0  0  0  0  0  0  0  0  0  0  0  0
   12.0728    7.3938   -4.2152 O   0  0  0  0  0  0  0  0  0  0  0  0
  1  2  1  0  0  0  0
  2  3  1  0  0  0  0
  2  7  2  0  0  0  0
  4  3  1  6  0  0  0
  4  5  1  0  0  0  0
  4  6  1  0  0  0  0
  4  8  1  0  0  0  0
  5  9  2  0  0  0  0
  6 13  1  0  0  0  0
  7 12  1  0  0  0  0
  8 19  2  0  0  0  0
 10  7  1  1  0  0  0
 10 14  1  0  0  0  0
 10 17  1  0  0  0  0
 11  8  1  6  0  0  0
 11 20  1  0  0  0  0
 11 32  1  0  0  0  0
 12 18  1  0  0  0  0
 12 30  1  1  0  0  0
 12 32  1  0  0  0  0
 13 16  2  0  0  0  0
 13 21  1  0  0  0  0
 14  5  1  1  0  0  0
 14 15  1  0  0  0  0
 14 20  1  0  0  0  0
 15 31  1  0  0  0  0
 15 33  1  0  0  0  0
 17 18  1  0  0  0  0
 17 23  1  0  0  0  0
 18 25  1  0  0  0  0
 18 26  1  0  0  0  0
 19 21  1  0  0  0  0
 19 40  1  0  0  0  0
 20 23  1  0  0  0  0
 21 22  2  0  0  0  0
 22 27  1  0  0  0  0
 23 24  1  0  0  0  0
 23 33  1  0  0  0  0
 24 26  1  0  0  0  0
 26 28  2  0  0  0  0
 27 36  2  0  0  0  0
 27 39  1  0  0  0  0
 28 29  1  0  0  0  0
 28 32  1  0  0  0  0
 29 37  2  0  0  0  0
 29 38  1  0  0  0  0
 31 34  1  0  0  0  0
 31 35  2  0  0  0  0
 36 40  1  0  0  0  0
 38 40  1  0  0  0  0
 39 41  2  0  0  0  0
 39 42  1  0  0  0  0
 39 43  2  0  0  0  0
M  END
$$$$

 OpenBabel10082411353D

 43 49  0  0  0  0  0  0  0  0999 V2000
   11.6836    6.0105   -4.8831 C   0  0  0  0  0  0  0  0  0  0  0  0
   11.1291    7.0732   -5.4395 C   0  0  0  0  0  0  0  0  0  0  0  0
   10.6954    7.0156   -6.8073 C   0  0  0  0  0  0  0  0  0  0  0  0
   10.2502    8.1187   -7.5536 C   0  0  2  0  0  0  0  0  0  0  0  0
   11.1205    8.4712   -4.9629 C   0  0  0  0  0  0  0  0  0  0  0  0
   10.8655    8.3511   -8.7960 C   0  0  0  0  0  0  0  0  0  0  0  0
   10.2922    7.8843   -9.9985 C   0  0  0  0  0  0  0  0  0  0  0  0
   10.4654    9.6993   -5.6120 C   0  0  0  0  0  0  0  0  0  0  0  0
   10.3510    9.5971   -7.0014 C   0  0  0  0  0  0  0  0  0  0  0  0
   12.2462    6.3351   -3.5020 C   0  0  0  0  0  0  0  0  0  0  0  0
   11.0471    7.5309  -11.1063 C   0  0  0  0  0  0  0  0  0  0  0  0
   11.7288    8.6923   -3.6518 C   0  0  0  0  0  0  0  0  0  0  0  0
   12.3991    7.7501  -11.1145 C   0  0  0  0  0  0  0  0  0  0  0  0
   12.3738    7.7580   -2.9599 C   0  0  0  0  0  0  0  0  0  0  0  0
   13.1285    8.5075  -10.1661 O   0  0  0  0  0  0  0  0  0  0  0  0
    9.0407    7.3775  -10.0973 N   0  0  0  0  0  0  0  0  0  0  0  0
    8.9787    6.9473  -11.4664 N   0  0  0  0  0  0  0  0  0  0  0  0
   13.1012    7.4459  -12.3707 C   0  0  0  0  0  0  0  0  0  0  0  0
   12.2395    6.9724  -13.2444 C   0  0  0  0  0  0  0  0  0  0  0  0
   10.2768    7.0170  -11.9799 C   0  0  0  0  0  0  0  0  0  0  0  0
   12.9237    6.5822  -14.5759 O   0  0  0  0  0  0  0  0  0  0  0  0
   10.8906    6.6526  -13.2252 C   0  0  0  0  0  0  0  0  0  0  0  0
   12.2396    6.1290  -15.6916 C   0  0  0  0  0  0  0  0  0  0  0  0
    7.8036    6.1825  -11.9342 C   0  0  0  0  0  0  0  0  0  0  0  0
   12.5015    4.7115  -15.7686 C   0  0  0  0  0  0  0  0  0  0  0  0
    7.1685    6.9992  -12.8245 C   0  0  0  0  0  0  0  0  0  0  0  0
   11.2461    3.8540  -15.4851 C   0  0  0  0  0  0  0  0  0  0  0  0
    7.6237    4.9154  -11.6529 C   0  0  0  0  0  0  0  0  0  0  0  0
    6.6378    4.1960  -12.2267 C   0  0  0  0  0  0  0  0  0  0  0  0
    6.2717    2.7675  -11.9743 C   0  0  0  0  0  0  0  0  0  0  0  0
    6.6569    1.8873  -12.9460 C   0  0  0  0  0  0  0  0  0  0  0  0
    7.3895    8.4597  -13.1785 C   0  0  0  0  0  0  0  0  0  0  0  0
    6.3114    0.5653  -12.7247 C   0  0  0  0  0  0  0  0  0  0  0  0
   11.3885    2.5830  -15.4863 O   0  0  0  0  0  0  0  0  0  0  0  0
    7.4815    2.1853  -14.0878 C   0  0  0  0  0  0  0  0  0  0  0  0
   10.0671    4.4249  -15.4648 O   0  0  0  0  0  0  0  0  0  0  0  0
    6.9068   -0.3393  -13.8429 C   0  0  0  0  0  0  0  0  0  0  0  0
    7.9156    3.5885  -14.2394 C   0  0  0  0  0  0  0  0  0  0  0  0
    7.9792    1.3984  -14.7530 C   0  0  0  0  0  0  0  0  0  0  0  0
    8.9112    1.7851  -15.8925 O   0  0  0  0  0  0  0  0  0  0  0  0
    8.8206    3.7297  -15.0940 C   0  0  0  0  0  0  0  0  0  0  0  0
    7.7384    0.0239  -14.7612 C   0  0  0  0  0  0  0  0  0  0  0  0
    9.0356    2.7507  -16.2844 C   0  0  0  0  0  0  0  0  0  0  0  0
  1  2  1  0  0  0  0
  1 10  2  0  0  0  0
  2  3  1  0  0  0  0
  2  5  2  0  0  0  0
  3  4  1  0  0  0  0
  4  6  1  6  0  0  0
  4  9  1  0  0  0  0
  5  8  1  0  0  0  0
  5 12  1  0  0  0  0
  6  7  1  0  0  0  0
  7 11  1  0  0  0  0
  7 16  2  0  0  0  0
  8  9  1  0  0  0  0
 10 14  1  0  0  0  0
 11 13  2  0  0  0  0
 11 20  1  0  0  0  0
 12 14  2  0  0  0  0
 13 15  1  0  0  0  0
 13 18  1  0  0  0  0
 16 17  1  0  0  0  0
 17 20  1  0  0  0  0
 17 24  1  0  0  0  0
 18 19  2  0  0  0  0
 19 21  1  0  0  0  0
 19 22  1  0  0  0  0
 20 22  2  0  0  0  0
 21 23  1  0  0  0  0
 23 25  1  0  0  0  0
 24 26  2  3  0  0  0
 24 28  1  0  0  0  0
 25 27  1  0  0  0  0
 26 32  1  0  0  0  0
 27 34  2  0  0  0  0
 27 36  1  0  0  0  0
 28 29  2  0  0  0  0
 29 30  1  0  0  0  0
 30 31  1  0  0  0  0
 31 33  2  0  0  0  0
 31 35  1  0  0  0  0
 33 37  1  0  0  0  0
 35 38  1  0  0  0  0
 35 39  2  0  0  0  0
 36 41  1  0  0  0  0
 37 42  2  0  0  0  0
 38 41  2  0  0  0  0
 39 40  1  0  0  0  0
 39 42  1  0  0  0  0
 40 43  1  0  0  0  0
 41 43  1  0  0  0  0
M  END
$$$$

 OpenBabel10082411353D

 43 50  0  0  0  0  0  0  0  0999 V2000
   11.6836    6.0105   -4.8831 C   0  0  0  0  0  0  0  0  0  0  0  0
   11.1291    7.0732   -5.4395 C   0  0  0  0  0  0  0  0  0  0  0  0
   10.6954    7.0156   -6.8073 C   0  0  0  0  0  0  0  0  0  0  0  0
   10.2502    8.1187   -7.5536 C   0  0  2  0  0  0  0  0  0  0  0  0
   11.1205    8.4712   -4.9629 C   0  0  0  0  0  0  0  0  0  0  0  0
   10.8655    8.3511   -8.7960 C   0  0  0  0  0  0  0  0  0  0  0  0
   10.2922    7.8843   -9.9985 C   0  0  0  0  0  0  0  0  0  0  0  0
   10.4654    9.6993   -5.6120 C   0  0  0  0  0  0  0  0  0  0  0  0
   10.3510    9.5971   -7.0014 C   0  0  0  0  0  0  0  0  0  0  0  0
   12.2462    6.3351   -3.5020 C   0  0  0  0  0  0  0  0  0  0  0  0
   11.0471    7.5309  -11.1063 C   0  0  0  0  0  0  0  0  0  0  0  0
   11.7288    8.6923   -3.6518 C   0  0  0  0  0  0  0  0  0  0  0  0
   12.3991    7.7501  -11.1145 C   0  0  0  0  0  0  0  0  0  0  0  0
   12.3738    7.7580   -2.9599 C   0  0  0  0  0  0  0  0  0  0  0  0
   13.1285    8.5075  -10.1661 O   0  0  0  0  0  0  0  0  0  0  0  0
    9.0407    7.3775  -10.0973 N   0  0  0  0  0  0  0  0  0  0  0  0
    8.9787    6.9473  -11.4664 N   0  0  0  0  0  0  0  0  0  0  0  0
   13.1012    7.4459  -12.3707 C   0  0  0  0  0  0  0  0  0  0  0  0
   12.2395    6.9724  -13.2444 C   0  0  0  0  0  0  0  0  0  0  0  0
   10.2768    7.0170  -11.9799 C   0  0  0  0  0  0  0  0  0  0  0  0
   12.9237    6.5822  -14.5759 O   0  0  0  0  0  0  0  0  0  0  0  0
   10.8906    6.6526  -13.2252 C   0  0  0  0  0  0  0  0  0  0  0  0
   12.2396    6.1290  -15.6916 C   0  0  0  0  0  0  0  0  0  0  0  0
    7.8036    6.1825  -11.9342 C   0  0  0  0  0  0  0  0  0  0  0  0
   12.5015    4.7115  -15.7686 C   0  0  0  0  0  0  0  0  0  0  0  0
    7.1685    6.9992  -12.8245 C   0  0  0  0  0  0  0  0  0  0  0  0
   11.2461    3.8540  -15.4851 C   0  0  2  0  0  0  0  0  0  0  0  0
    7.6237    4.9154  -11.6529 C   0  0  0  0  0  0  0  0  0  0  0  0
    6.6378    4.1960  -12.2267 C   0  0  0  0  0  0  0  0  0  0  0  0
    6.2717    2.7675  -11.9743 C   0  0  0  0  0  0  0  0  0  0  0  0
    6.6569    1.8873  -12.9460 C   0  0  0  0  0  0  0  0  0  0  0  0
    7.3895    8.4597  -13.1785 C   0  0  0  0  0  0  0  0  0  0  0  0
    6.3114    0.5653  -12.7247 C   0  0  0  0  0  0  0  0  0  0  0  0
    7.7684    2.0327  -13.9055 C   0  0  0  0  0  0  0  0  0  0  0  0
    6.9387   -0.3720  -13.7691 C   0  0  0  0  0  0  0  0  0  0  0  0
    8.4223    3.3339  -14.0264 C   0  0  0  0  0  0  0  0  0  0  0  0
    9.9233    3.2491  -14.0383 C   0  0  2  0  0  0  0  0  0  0  0  0
   10.7554    4.1043  -14.1438 O   0  0  0  0  0  0  0  0  0  0  0  0
    7.8881   -0.1105  -14.6109 C   0  0  0  0  0  0  0  0  0  0  0  0
    8.3571    1.1667  -14.6508 C   0  0  0  0  0  0  0  0  0  0  0  0
   10.3470    2.2509  -14.8905 C   0  0  2  0  0  0  0  0  0  0  0  0
   11.0049    2.6978  -15.9546 C   0  0  0  0  0  0  0  0  0  0  0  0
    9.3380    1.3180  -15.3025 O   0  0  0  0  0  0  0  0  0  0  0  0
  1  2  1  0  0  0  0
  1 10  2  0  0  0  0
  2  3  1  0  0  0  0
  2  5  2  0  0  0  0
  3  4  1  0  0  0  0
  4  6  1  6  0  0  0
  4  9  1  0  0  0  0
  5  8  1  0  0  0  0
  5 12  1  0  0  0  0
  6  7  1  0  0  0  0
  7 11  1  0  0  0  0
  7 16  2  0  0  0  0
  8  9  1  0  0  0  0
 10 14  1  0  0  0  0
 11 13  2  0  0  0  0
 11 20  1  0  0  0  0
 12 14  2  0  0  0  0
 13 15  1  0  0  0  0
 13 18  1  0  0  0  0
 16 17  1  0  0  0  0
 17 20  1  0  0  0  0
 17 24  1  0  0  0  0
 18 19  2  0  0  0  0
 19 21  1  0  0  0  0
 19 22  1  0  0  0  0
 20 22  2  0  0  0  0
 21 23  1  0  0  0  0
 23 25  1  0  0  0  0
 24 26  2  3  0  0  0
 24 28  1  0  0  0  0
 26 32  1  0  0  0  0
 27 25  1  1  0  0  0
 27 38  1  0  0  0  0
 27 42  1  0  0  0  0
 28 29  2  0  0  0  0
 29 30  1  0  0  0  0
 30 31  1  0  0  0  0
 31 33  2  0  0  0  0
 31 34  1  0  0  0  0
 33 35  1  0  0  0  0
 34 36  1  0  0  0  0
 34 40  2  0  0  0  0
 35 39  2  0  0  0  0
 37 36  1  6  0  0  0
 37 38  1  0  0  0  0
 37 41  1  0  0  0  0
 39 40  1  0  0  0  0
 40 43  1  0  0  0  0
 41 42  1  6  0  0  0
 41 43  1  0  0  0  0
M  END
$$$$

 OpenBabel10082411353D

 43 50  0  0  0  0  0  0  0  0999 V2000
   11.6836    6.0105   -4.8831 C   0  0  0  0  0  0  0  0  0  0  0  0
   11.1291    7.0732   -5.4395 C   0  0  0  0  0  0  0  0  0  0  0  0
   10.6954    7.0156   -6.8073 C   0  0  0  0  0  0  0  0  0  0  0  0
   10.2502    8.1187   -7.5536 C   0  0  2  0  0  0  0  0  0  0  0  0
   11.1205    8.4712   -4.9629 C   0  0  0  0  0  0  0  0  0  0  0  0
   10.8655    8.3511   -8.7960 C   0  0  0  0  0  0  0  0  0  0  0  0
   10.2922    7.8843   -9.9985 C   0  0  0  0  0  0  0  0  0  0  0  0
   10.4654    9.6993   -5.6120 C   0  0  0  0  0  0  0  0  0  0  0  0
   10.3510    9.5971   -7.0014 C   0  0  0  0  0  0  0  0  0  0  0  0
   12.2462    6.3351   -3.5020 C   0  0  0  0  0  0  0  0  0  0  0  0
   11.0471    7.5309  -11.1063 C   0  0  0  0  0  0  0  0  0  0  0  0
   11.7288    8.6923   -3.6518 C   0  0  0  0  0  0  0  0  0  0  0  0
   12.3991    7.7501  -11.1145 C   0  0  0  0  0  0  0  0  0  0  0  0
   12.3738    7.7580   -2.9599 C   0  0  0  0  0  0  0  0  0  0  0  0
   13.1285    8.5075  -10.1661 O   0  0  0  0  0  0  0  0  0  0  0  0
    9.0407    7.3775  -10.0973 N   0  0  0  0  0  0  0  0  0  0  0  0
    8.9787    6.9473  -11.4664 N   0  0  0  0  0  0  0  0  0  0  0  0
   13.1012    7.4459  -12.3707 C   0  0  0  0  0  0  0  0  0  0  0  0
   12.2395    6.9724  -13.2444 C   0  0  0  0  0  0  0  0  0  0  0  0
   10.2768    7.0170  -11.9799 C   0  0  0  0  0  0  0  0  0  0  0  0
   12.9237    6.5822  -14.5759 O   0  0  0  0  0  0  0  0  0  0  0  0
   10.8906    6.6526  -13.2252 C   0  0  0  0  0  0  0  0  0  0  0  0
   12.2396    6.1290  -15.6916 C   0  0  0  0  0  0  0  0  0  0  0  0
    7.8036    6.1825  -11.9342 C   0  0  0  0  0  0  0  0  0  0  0  0
   12.5015    4.7115  -15.7686 C   0  0  0  0  0  0  0  0  0  0  0  0
    7.1685    6.9992  -12.8245 C   0  0  0  0  0  0  0  0  0  0  0  0
   11.2461    3.8540  -15.4851 C   0  0  2  0  0  0  0  0  0  0  0  0
    7.6237    4.9154  -11.6529 C   0  0  0  0  0  0  0  0  0  0  0  0
    6.6378    4.1960  -12.2267 C   0  0  0  0  0  0  0  0  0  0  0  0
    6.2717    2.7675  -11.9743 C   0  0  0  0  0  0  0  0  0  0  0  0
    6.6569    1.8873  -12.9460 C   0  0  0  0  0  0  0  0  0  0  0  0
    7.3895    8.4597  -13.1785 C   0  0  0  0  0  0  0  0  0  0  0  0
    6.3114    0.5653  -12.7247 C   0  0  0  0  0  0  0  0  0  0  0  0
    7.7684    2.0327  -13.9055 C   0  0  0  0  0  0  0  0  0  0  0  0
    6.9387   -0.3720  -13.7691 C   0  0  0  0  0  0  0  0  0  0  0  0
    8.4223    3.3339  -14.0264 C   0  0  0  0  0  0  0  0  0  0  0  0
    8.2908    1.0246  -14.6080 C   0  0  0  0  0  0  0  0  0  0  0  0
    7.8707   -0.1948  -14.5676 C   0  0  0  0  0  0  0  0  0  0  0  0
    9.4626    1.2359  -15.4581 C   0  0  0  0  0  0  0  0  0  0  0  0
   11.0527    2.6945  -16.2982 N   0  0  0  0  0  0  0  0  0  0  0  0
    9.7706    2.3473  -15.9771 C   0  0  0  0  0  0  0  0  0  0  0  0
    9.3872    3.4882  -14.9698 C   0  0  0  0  0  0  0  0  0  0  0  0
   10.2128    4.5674  -15.0537 O   0  0  0  0  0  0  0  0  0  0  0  0
  1  2  1  0  0  0  0
  1 10  2  0  0  0  0
  2  3  1  0  0  0  0
  2  5  2  0  0  0  0
  3  4  1  0  0  0  0
  4  6  1  6  0  0  0
  4  9  1  0  0  0  0
  5  8  1  0  0  0  0
  5 12  1  0  0  0  0
  6  7  1  0  0  0  0
  7 11  1  0  0  0  0
  7 16  2  0  0  0  0
  8  9  1  0  0  0  0
 10 14  1  0  0  0  0
 11 13  2  0  0  0  0
 11 20  1  0  0  0  0
 12 14  2  0  0  0  0
 13 15  1  0  0  0  0
 13 18  1  0  0  0  0
 16 17  1  0  0  0  0
 17 20  1  0  0  0  0
 17 24  1  0  0  0  0
 18 19  2  0  0  0  0
 19 21  1  0  0  0  0
 19 22  1  0  0  0  0
 20 22  2  0  0  0  0
 21 23  1  0  0  0  0
 23 25  1  0  0  0  0
 24 26  2  3  0  0  0
 24 28  1  0  0  0  0
 26 32  1  0  0  0  0
 27 25  1  6  0  0  0
 27 40  1  0  0  0  0
 27 43  1  0  0  0  0
 28 29  2  0  0  0  0
 29 30  1  0  0  0  0
 30 31  1  0  0  0  0
 31 33  2  0  0  0  0
 31 34  1  0  0  0  0
 33 35  1  0  0  0  0
 34 36  2  0  0  0  0
 34 37  1  0  0  0  0
 35 38  1  0  0  0  0
 36 42  1  0  0  0  0
 37 38  1  0  0  0  0
 37 39  2  0  0  0  0
 39 41  1  0  0  0  0
 40 41  1  0  0  0  0
 41 42  2  0  0  0  0
 42 43  1  0  0  0  0
M  END
$$$$

 OpenBabel10082411353D

 43 54  0  0  0  0  0  0  0  0999 V2000
    8.0806    9.0240  -12.7589 C   0  0  0  0  0  0  0  0  0  0  0  0
    8.6514    7.8645  -12.2948 C   0  0  0  0  0  0  0  0  0  0  0  0
    9.9575    7.9974  -11.8426 C   0  0  0  0  0  0  0  0  0  0  0  0
   10.7657    6.8667  -11.6050 C   0  0  1  0  0  0  0  0  0  0  0  0
   10.7682    5.9590  -12.8271 C   0  0  0  0  0  0  0  0  0  0  0  0
   12.1553    7.3846  -11.2315 C   0  0  0  0  0  0  0  0  0  0  0  0
    8.0676    6.6451  -12.2974 C   0  0  0  0  0  0  0  0  0  0  0  0
   10.1892    6.1240  -10.3860 C   0  0  0  0  0  0  0  0  0  0  0  0
   11.8375    5.4373  -13.3240 O   0  0  0  0  0  0  0  0  0  0  0  0
    8.6785    5.4761  -13.0273 C   0  0  1  0  0  0  0  0  0  0  0  0
    9.1969    5.2405  -10.4969 C   0  0  2  0  0  0  0  0  0  0  0  0
    7.2213    6.2210  -11.3074 C   0  0  2  0  0  0  0  0  0  0  0  0
   12.5590    7.6872   -9.9896 C   0  0  0  0  0  0  0  0  0  0  0  0
    9.7633    5.0333  -12.9720 C   0  0  1  0  0  0  0  0  0  0  0  0
   10.0661    4.0167  -14.0373 N   0  0  0  0  0  0  0  0  0  0  0  0
   13.6906    8.3004   -9.6233 O   0  0  0  0  0  0  0  0  0  0  0  0
    7.6357    4.5123  -12.6317 C   0  0  2  0  0  0  0  0  0  0  0  0
    6.8831    4.9171  -11.7031 C   0  0  2  0  0  0  0  0  0  0  0  0
   10.5937    6.6967   -9.1779 C   0  0  0  0  0  0  0  0  0  0  0  0
    9.5087    4.3263  -11.6925 C   0  0  2  0  0  0  0  0  0  0  0  0
   11.6359    7.4449   -8.9125 C   0  0  0  0  0  0  0  0  0  0  0  0
   11.9716    7.9159   -7.6200 C   0  0  0  0  0  0  0  0  0  0  0  0
    8.4648    3.6122  -12.2840 C   0  0  1  0  0  0  0  0  0  0  0  0
    7.9253    2.8004  -11.3926 C   0  0  1  0  0  0  0  0  0  0  0  0
    5.6047    4.5059  -11.7589 C   0  0  0  0  0  0  0  0  0  0  0  0
    7.6606    4.1297  -10.5699 C   0  0  0  0  0  0  0  0  0  0  0  0
   10.9559    7.6849   -6.6057 C   0  0  0  0  0  0  0  0  0  0  0  0
    8.0094    4.5092   -9.5664 C   0  0  0  0  0  0  0  0  0  0  0  0
    8.3033    4.0627   -8.4980 C   0  0  0  0  0  0  0  0  0  0  0  0
    6.3587    7.1012  -11.0392 O   0  0  0  0  0  0  0  0  0  0  0  0
   11.0186    3.9598  -14.9226 C   0  0  0  0  0  0  0  0  0  0  0  0
    8.1758    5.8633  -10.2511 C   0  0  1  0  0  0  0  0  0  0  0  0
   11.4648    2.7104  -15.2650 O   0  0  0  0  0  0  0  0  0  0  0  0
    9.9512    6.8220   -6.8436 C   0  0  0  0  0  0  0  0  0  0  0  0
    9.6899    6.3705   -8.1082 C   0  0  2  0  0  0  0  0  0  0  0  0
   11.2597    8.2901   -5.2396 C   0  0  0  0  0  0  0  0  0  0  0  0
    9.1264    2.9648  -13.9669 C   0  0  2  0  0  0  0  0  0  0  0  0
    9.2902    4.9507   -7.7799 C   0  0  0  0  0  0  0  0  0  0  0  0
   11.6750    9.7536   -5.2211 C   0  0  0  0  0  0  0  0  0  0  0  0
   12.6364    9.9910   -4.2013 C   0  0  0  0  0  0  0  0  0  0  0  0
    8.6767    2.4780  -15.2342 C   0  0  0  0  0  0  0  0  0  0  0  0
   11.7644    4.8944  -15.3250 O   0  0  0  0  0  0  0  0  0  0  0  0
    8.4186    2.5435  -13.0212 C   0  0  2  0  0  0  0  0  0  0  0  0
  1  2  1  0  0  0  0
  2  3  1  0  0  0  0
  2  7  2  0  0  0  0
  4  3  1  6  0  0  0
  4  5  1  0  0  0  0
  4  6  1  0  0  0  0
  4  8  1  0  0  0  0
  5  9  2  0  0  0  0
  6 13  1  0  0  0  0
  7 12  1  0  0  0  0
  8 19  2  0  0  0  0
 10  7  1  1  0  0  0
 10 14  1  0  0  0  0
 10 17  1  0  0  0  0
 11  8  1  6  0  0  0
 11 20  1  0  0  0  0
 11 32  1  0  0  0  0
 12 18  1  0  0  0  0
 12 30  1  1  0  0  0
 12 32  1  0  0  0  0
 13 16  2  0  0  0  0
 13 21  1  0  0  0  0
 14  5  1  1  0  0  0
 14 15  1  0  0  0  0
 14 20  1  0  0  0  0
 15 31  1  0  0  0  0
 15 37  1  0  0  0  0
 17 18  1  0  0  0  0
 17 23  1  0  0  0  0
 18 25  1  0  0  0  0
 18 26  1  0  0  0  0
 19 21  1  0  0  0  0
 19 35  1  0  0  0  0
 20 23  1  0  0  0  0
 21 22  2  0  0  0  0
 22 27  1  0  0  0  0
 23 24  1  0  0  0  0
 23 43  1  0  0  0  0
 24 26  1  0  0  0  0
 24 43  1  0  0  0  0
 26 28  2  0  0  0  0
 27 34  2  0  0  0  0
 27 36  1  0  0  0  0
 28 29  1  0  0  0  0
 28 32  1  0  0  0  0
 29 38  1  0  0  0  0
 31 33  2  0  0  0  0
 31 42  1  0  0  0  0
 34 35  1  0  0  0  0
 35 38  1  0  0  0  0
 36 39  1  0  0  0  0
 37 41  1  0  0  0  0
 37 43  1  0  0  0  0
 39 40  1  0  0  0  0
M  END
$$$$

 OpenBabel10082411353D

 43 48  0  0  0  0  0  0  0  0999 V2000
   10.9951    9.9694   -4.9946 C   0  0  0  0  0  0  0  0  0  0  0  0
   11.7938    9.3762   -4.2463 C   0  0  0  0  0  0  0  0  0  0  0  0
   10.8673    9.4548   -6.4276 C   0  0  0  0  0  0  0  0  0  0  0  0
   11.6576    7.9117   -4.2944 C   0  0  0  0  0  0  0  0  0  0  0  0
   10.5498    8.0257   -6.4521 C   0  0  0  0  0  0  0  0  0  0  0  0
   11.4715    7.2752   -5.6166 C   0  0  0  0  0  0  0  0  0  0  0  0
   10.5840    7.5390   -7.9254 C   0  0  0  0  0  0  0  0  0  0  0  0
   11.4612    8.1494   -8.8322 C   0  0  0  0  0  0  0  0  0  0  0  0
   12.6250    8.6294   -8.4338 O   0  0  0  0  0  0  0  0  0  0  0  0
   11.0835    8.4395  -10.0740 O   0  0  0  0  0  0  0  0  0  0  0  0
   11.2938    7.5612  -11.0769 C   0  0  0  0  0  0  0  0  0  0  0  0
   10.1547    7.2525  -11.9492 C   0  0  0  0  0  0  0  0  0  0  0  0
   10.4293    6.5622  -13.1348 C   0  0  0  0  0  0  0  0  0  0  0  0
   11.7295    6.4217  -13.6243 C   0  0  0  0  0  0  0  0  0  0  0  0
    8.8120    7.3918  -11.4649 C   0  0  0  0  0  0  0  0  0  0  0  0
   12.5351    7.8894  -11.6869 C   0  0  0  0  0  0  0  0  0  0  0  0
   13.5778    8.4243  -10.9673 O   0  0  0  0  0  0  0  0  0  0  0  0
    7.7211    7.1761  -12.4323 C   0  0  0  0  0  0  0  0  0  0  0  0
   12.8103    7.0723  -12.8897 C   0  0  0  0  0  0  0  0  0  0  0  0
    7.0543    5.9667  -12.3369 C   0  0  0  0  0  0  0  0  0  0  0  0
    7.2392    8.1844  -13.1320 C   0  0  0  0  0  0  0  0  0  0  0  0
    6.6882    5.3848  -13.5016 O   0  0  0  0  0  0  0  0  0  0  0  0
    6.5103    5.5543  -11.3870 O   0  0  0  0  0  0  0  0  0  0  0  0
    7.4031    4.0506  -13.7852 C   0  0  0  0  0  0  0  0  0  0  0  0
    8.6811    3.9966  -14.1333 C   0  0  0  0  0  0  0  0  0  0  0  0
   12.0732    5.6649  -14.9357 C   0  0  0  0  0  0  0  0  0  0  0  0
    6.5842    3.0104  -13.4449 C   0  0  0  0  0  0  0  0  0  0  0  0
   12.1810    6.3505  -15.9550 C   0  0  0  0  0  0  0  0  0  0  0  0
   12.4265    5.3943  -17.1098 C   0  0  0  0  0  0  0  0  0  0  0  0
   12.0808    4.3115  -14.6805 C   0  0  0  0  0  0  0  0  0  0  0  0
    5.1772    3.2038  -12.9749 C   0  0  0  0  0  0  0  0  0  0  0  0
   11.7401    3.5786  -13.4028 C   0  0  0  0  0  0  0  0  0  0  0  0
   12.6689    6.2031  -18.3172 O   0  0  0  0  0  0  0  0  0  0  0  0
    7.2335    1.7472  -13.7003 C   0  0  0  0  0  0  0  0  0  0  0  0
    6.3457    0.6491  -13.3147 C   0  0  0  0  0  0  0  0  0  0  0  0
    9.2302    2.7981  -14.2905 C   0  0  0  0  0  0  0  0  0  0  0  0
    8.5023    1.6740  -14.0227 C   0  0  0  0  0  0  0  0  0  0  0  0
   12.2192    4.2346  -17.1265 C   0  0  0  0  0  0  0  0  0  0  0  0
   12.3387    3.5030  -18.2833 O   0  0  0  0  0  0  0  0  0  0  0  0
   10.6089    2.6236  -14.6913 N   0  0  0  0  0  0  0  0  0  0  0  0
   11.8127    3.4959  -15.6579 C   0  0  0  0  0  0  0  0  0  0  0  0
   11.0668    2.6345  -15.7894 C   0  0  0  0  0  0  0  0  0  0  0  0
   11.0780    2.5708  -13.3840 C   0  0  0  0  0  0  0  0  0  0  0  0
  1  2  1  0  0  0  0
  1  3  1  0  0  0  0
  2  4  1  0  0  0  0
  3  5  1  0  0  0  0
  4  6  1  0  0  0  0
  5  6  1  0  0  0  0
  5  7  1  0  0  0  0
  7  8  1  0  0  0  0
  8  9  2  0  0  0  0
  8 10  1  0  0  0  0
 10 11  1  0  0  0  0
 11 12  1  0  0  0  0
 11 16  2  0  0  0  0
 12 13  2  0  0  0  0
 12 15  1  0  0  0  0
 13 14  1  0  0  0  0
 14 19  2  0  0  0  0
 14 26  1  0  0  0  0
 15 18  1  0  0  0  0
 16 17  1  0  0  0  0
 16 19  1  0  0  0  0
 18 20  1  0  0  0  0
 18 21  2  0  0  0  0
 20 22  1  0  0  0  0
 20 23  2  0  0  0  0
 22 24  1  0  0  0  0
 24 25  1  0  0  0  0
 24 27  2  0  0  0  0
 25 36  2  0  0  0  0
 26 28  2  0  0  0  0
 26 30  1  0  0  0  0
 27 31  1  0  0  0  0
 27 34  1  0  0  0  0
 28 29  1  0  0  0  0
 29 33  1  0  0  0  0
 29 38  2  0  0  0  0
 30 32  1  0  0  0  0
 30 41  2  0  0  0  0
 32 43  1  0  0  0  0
 34 35  1  0  0  0  0
 34 37  2  0  0  0  0
 36 37  1  0  0  0  0
 36 40  1  0  0  0  0
 38 39  1  0  0  0  0
 38 41  1  0  0  0  0
 40 42  1  0  0  0  0
 40 43  1  0  0  0  0
 41 42  1  0  0  0  0
M  END
$$$$

 OpenBabel10082411353D

 27 29  0  0  0  0  0  0  0  0999 V2000
   12.7863    7.8241  -14.2109 C   0  0  0  0  0  0  0  0  0  0  0  0
   12.4233    7.7158  -13.0289 C   0  0  0  0  0  0  0  0  0  0  0  0
   12.9219    8.1949  -11.8668 C   0  0  0  0  0  0  0  0  0  0  0  0
   11.4275    6.6086  -12.7931 C   0  0  0  0  0  0  0  0  0  0  0  0
   10.3411    6.8404  -12.0679 C   0  0  0  0  0  0  0  0  0  0  0  0
   10.7226    7.4332  -10.7281 C   0  0  0  0  0  0  0  0  0  0  0  0
    9.0684    5.8539  -11.9851 C   0  0  0  0  0  0  0  0  0  0  0  0
    9.8080    7.4062   -9.6015 C   0  0  0  0  0  0  0  0  0  0  0  0
   11.9300    8.1400  -10.6702 C   0  0  0  0  0  0  0  0  0  0  0  0
   11.0289    6.0120  -14.2884 C   0  0  0  0  0  0  0  0  0  0  0  0
    9.9681    6.1425   -8.6941 C   0  0  0  0  0  0  0  0  0  0  0  0
    7.9946    6.5885  -12.1474 C   0  0  0  0  0  0  0  0  0  0  0  0
   10.2822    6.4890   -7.2771 C   0  0  0  0  0  0  0  0  0  0  0  0
   11.5540    6.8919   -6.8963 C   0  0  0  0  0  0  0  0  0  0  0  0
   11.8977    7.2299   -5.5785 C   0  0  0  0  0  0  0  0  0  0  0  0
   11.9395    6.5440  -15.2769 C   0  0  0  0  0  0  0  0  0  0  0  0
    6.8195    5.8154  -12.4332 C   0  0  0  0  0  0  0  0  0  0  0  0
    9.1018    4.4928  -12.2349 C   0  0  0  0  0  0  0  0  0  0  0  0
    7.8393    8.0280  -12.0617 O   0  0  0  0  0  0  0  0  0  0  0  0
    7.8880    8.9078  -13.0355 C   0  0  0  0  0  0  0  0  0  0  0  0
    8.0448    3.8189  -12.3786 C   0  0  0  0  0  0  0  0  0  0  0  0
    6.9005    4.4499  -12.5414 C   0  0  0  0  0  0  0  0  0  0  0  0
   12.1246    8.5771   -5.2175 C   0  0  0  0  0  0  0  0  0  0  0  0
    5.5721    3.6497  -12.8085 C   0  0  0  0  0  0  0  0  0  0  0  0
   13.0936    8.7547   -4.2417 C   0  0  0  0  0  0  0  0  0  0  0  0
   10.7853    9.5072   -4.8459 C   0  0  0  0  0  0  0  0  0  0  0  0
   12.6758    9.3395   -6.5213 C   0  0  0  0  0  0  0  0  0  0  0  0
  1  2  1  0  0  0  0
  1 16  1  0  0  0  0
  2  3  1  0  0  0  0
  2  4  2  0  0  0  0
  3  9  2  0  0  0  0
  4  5  1  0  0  0  0
  4 10  1  0  0  0  0
  5  6  2  0  0  0  0
  5  7  1  0  0  0  0
  6  8  1  0  0  0  0
  6  9  1  0  0  0  0
  7 12  1  0  0  0  0
  7 18  2  0  0  0  0
  8 11  1  0  0  0  0
 10 16  1  0  0  0  0
 11 13  1  0  0  0  0
 12 17  2  0  0  0  0
 12 19  1  0  0  0  0
 13 14  2  3  0  0  0
 14 15  1  0  0  0  0
 15 23  1  0  0  0  0
 17 22  1  0  0  0  0
 18 21  1  0  0  0  0
 19 20  1  0  0  0  0
 21 22  2  0  0  0  0
 22 24  1  0  0  0  0
 23 25  1  0  0  0  0
 23 26  1  0  0  0  0
 23 27  1  0  0  0  0
M  END
$$$$

 OpenBabel10082411353D

 43 50  0  0  0  0  0  0  0  0999 V2000
   11.6836    6.0105   -4.8831 C   0  0  0  0  0  0  0  0  0  0  0  0
   11.1291    7.0732   -5.4395 C   0  0  0  0  0  0  0  0  0  0  0  0
   10.6954    7.0156   -6.8073 C   0  0  0  0  0  0  0  0  0  0  0  0
   10.2502    8.1187   -7.5536 C   0  0  2  0  0  0  0  0  0  0  0  0
   11.1205    8.4712   -4.9629 C   0  0  0  0  0  0  0  0  0  0  0  0
   10.8655    8.3511   -8.7960 C   0  0  0  0  0  0  0  0  0  0  0  0
   10.2922    7.8843   -9.9985 C   0  0  0  0  0  0  0  0  0  0  0  0
   10.4654    9.6993   -5.6120 C   0  0  0  0  0  0  0  0  0  0  0  0
   10.3510    9.5971   -7.0014 C   0  0  0  0  0  0  0  0  0  0  0  0
   12.2462    6.3351   -3.5020 C   0  0  0  0  0  0  0  0  0  0  0  0
   11.0471    7.5309  -11.1063 C   0  0  0  0  0  0  0  0  0  0  0  0
   11.7288    8.6923   -3.6518 C   0  0  0  0  0  0  0  0  0  0  0  0
   12.3991    7.7501  -11.1145 C   0  0  0  0  0  0  0  0  0  0  0  0
   12.3738    7.7580   -2.9599 C   0  0  0  0  0  0  0  0  0  0  0  0
   13.1285    8.5075  -10.1661 O   0  0  0  0  0  0  0  0  0  0  0  0
    9.0407    7.3775  -10.0973 N   0  0  0  0  0  0  0  0  0  0  0  0
    8.9787    6.9473  -11.4664 N   0  0  0  0  0  0  0  0  0  0  0  0
   13.1012    7.4459  -12.3707 C   0  0  0  0  0  0  0  0  0  0  0  0
   12.2395    6.9724  -13.2444 C   0  0  0  0  0  0  0  0  0  0  0  0
   10.2768    7.0170  -11.9799 C   0  0  0  0  0  0  0  0  0  0  0  0
   12.9237    6.5822  -14.5759 O   0  0  0  0  0  0  0  0  0  0  0  0
   10.8906    6.6526  -13.2252 C   0  0  0  0  0  0  0  0  0  0  0  0
   12.2396    6.1290  -15.6916 C   0  0  0  0  0  0  0  0  0  0  0  0
    7.8036    6.1825  -11.9342 C   0  0  0  0  0  0  0  0  0  0  0  0
   12.5015    4.7115  -15.7686 C   0  0  0  0  0  0  0  0  0  0  0  0
    7.1685    6.9992  -12.8245 C   0  0  0  0  0  0  0  0  0  0  0  0
   11.2461    3.8540  -15.4851 C   0  0  0  0  0  0  0  0  0  0  0  0
    7.6237    4.9154  -11.6529 C   0  0  0  0  0  0  0  0  0  0  0  0
    6.6378    4.1960  -12.2267 C   0  0  0  0  0  0  0  0  0  0  0  0
    6.2717    2.7675  -11.9743 C   0  0  0  0  0  0  0  0  0  0  0  0
    6.6569    1.8873  -12.9460 C   0  0  0  0  0  0  0  0  0  0  0  0
    7.3895    8.4597  -13.1785 C   0  0  0  0  0  0  0  0  0  0  0  0
    6.3114    0.5653  -12.7247 C   0  0  0  0  0  0  0  0  0  0  0  0
   11.3885    2.5830  -15.4863 O   0  0  0  0  0  0  0  0  0  0  0  0
    7.4815    2.1853  -14.0878 C   0  0  0  0  0  0  0  0  0  0  0  0
   10.0671    4.4249  -15.4648 O   0  0  0  0  0  0  0  0  0  0  0  0
    6.9068   -0.3393  -13.8429 C   0  0  0  0  0  0  0  0  0  0  0  0
    7.9156    3.5885  -14.2394 C   0  0  0  0  0  0  0  0  0  0  0  0
    7.9792    1.3984  -14.7530 C   0  0  0  0  0  0  0  0  0  0  0  0
    7.7139    0.1005  -14.7460 C   0  0  0  0  0  0  0  0  0  0  0  0
    6.7900    4.3570  -13.5664 O   0  0  0  0  0  0  0  0  0  0  0  0
    8.8438    3.7138  -15.0060 C   0  0  0  0  0  0  0  0  0  0  0  0
    9.1488    2.0342  -15.7215 C   0  0  0  0  0  0  0  0  0  0  0  0
  1  2  1  0  0  0  0
  1 10  2  0  0  0  0
  2  3  1  0  0  0  0
  2  5  2  0  0  0  0
  3  4  1  0  0  0  0
  4  6  1  6  0  0  0
  4  9  1  0  0  0  0
  5  8  1  0  0  0  0
  5 12  1  0  0  0  0
  6  7  1  0  0  0  0
  7 11  1  0  0  0  0
  7 16  2  0  0  0  0
  8  9  1  0  0  0  0
 10 14  1  0  0  0  0
 11 13  2  0  0  0  0
 11 20  1  0  0  0  0
 12 14  2  0  0  0  0
 13 15  1  0  0  0  0
 13 18  1  0  0  0  0
 16 17  1  0  0  0  0
 17 20  1  0  0  0  0
 17 24  1  0  0  0  0
 18 19  2  0  0  0  0
 19 21  1  0  0  0  0
 19 22  1  0  0  0  0
 20 22  2  0  0  0  0
 21 23  1  0  0  0  0
 23 25  1  0  0  0  0
 24 26  2  3  0  0  0
 24 28  1  0  0  0  0
 25 27  1  0  0  0  0
 26 32  1  0  0  0  0
 27 34  2  0  0  0  0
 27 36  1  0  0  0  0
 28 29  2  0  0  0  0
 29 30  1  0  0  0  0
 29 41  1  0  0  0  0
 30 31  1  0  0  0  0
 31 33  2  0  0  0  0
 31 35  1  0  0  0  0
 33 37  1  0  0  0  0
 35 38  1  0  0  0  0
 35 39  2  0  0  0  0
 36 42  1  0  0  0  0
 37 40  2  0  0  0  0
 38 41  1  0  0  0  0
 38 42  2  0  0  0  0
 39 40  1  0  0  0  0
 39 43  1  0  0  0  0
 42 43  1  0  0  0  0
M  END
$$$$

 OpenBabel10082411353D

 43 50  0  0  0  0  0  0  0  0999 V2000
   11.6836    6.0105   -4.8831 C   0  0  0  0  0  0  0  0  0  0  0  0
   11.1291    7.0732   -5.4395 C   0  0  0  0  0  0  0  0  0  0  0  0
   10.6954    7.0156   -6.8073 C   0  0  0  0  0  0  0  0  0  0  0  0
   10.2502    8.1187   -7.5536 C   0  0  2  0  0  0  0  0  0  0  0  0
   11.1205    8.4712   -4.9629 C   0  0  0  0  0  0  0  0  0  0  0  0
   10.8655    8.3511   -8.7960 C   0  0  0  0  0  0  0  0  0  0  0  0
   10.2922    7.8843   -9.9985 C   0  0  0  0  0  0  0  0  0  0  0  0
   10.4654    9.6993   -5.6120 C   0  0  0  0  0  0  0  0  0  0  0  0
   10.3510    9.5971   -7.0014 C   0  0  0  0  0  0  0  0  0  0  0  0
   12.2462    6.3351   -3.5020 C   0  0  0  0  0  0  0  0  0  0  0  0
   11.0471    7.5309  -11.1063 C   0  0  0  0  0  0  0  0  0  0  0  0
   11.7288    8.6923   -3.6518 C   0  0  0  0  0  0  0  0  0  0  0  0
   12.3991    7.7501  -11.1145 C   0  0  0  0  0  0  0  0  0  0  0  0
   12.3738    7.7580   -2.9599 C   0  0  0  0  0  0  0  0  0  0  0  0
   13.1285    8.5075  -10.1661 O   0  0  0  0  0  0  0  0  0  0  0  0
    9.0407    7.3775  -10.0973 N   0  0  0  0  0  0  0  0  0  0  0  0
    8.9787    6.9473  -11.4664 N   0  0  0  0  0  0  0  0  0  0  0  0
   13.1012    7.4459  -12.3707 C   0  0  0  0  0  0  0  0  0  0  0  0
   12.2395    6.9724  -13.2444 C   0  0  0  0  0  0  0  0  0  0  0  0
   10.2768    7.0170  -11.9799 C   0  0  0  0  0  0  0  0  0  0  0  0
   12.9237    6.5822  -14.5759 O   0  0  0  0  0  0  0  0  0  0  0  0
   10.8906    6.6526  -13.2252 C   0  0  0  0  0  0  0  0  0  0  0  0
   12.2396    6.1290  -15.6916 C   0  0  0  0  0  0  0  0  0  0  0  0
    7.8036    6.1825  -11.9342 C   0  0  0  0  0  0  0  0  0  0  0  0
   12.5015    4.7115  -15.7686 C   0  0  0  0  0  0  0  0  0  0  0  0
    7.1685    6.9992  -12.8245 C   0  0  0  0  0  0  0  0  0  0  0  0
   11.2461    3.8540  -15.4851 C   0  0  2  0  0  0  0  0  0  0  0  0
    7.6237    4.9154  -11.6529 C   0  0  0  0  0  0  0  0  0  0  0  0
    6.6378    4.1960  -12.2267 C   0  0  0  0  0  0  0  0  0  0  0  0
    6.2717    2.7675  -11.9743 C   0  0  0  0  0  0  0  0  0  0  0  0
    6.6569    1.8873  -12.9460 C   0  0  0  0  0  0  0  0  0  0  0  0
    7.3895    8.4597  -13.1785 C   0  0  0  0  0  0  0  0  0  0  0  0
    6.3114    0.5653  -12.7247 C   0  0  0  0  0  0  0  0  0  0  0  0
    7.7684    2.0327  -13.9055 C   0  0  0  0  0  0  0  0  0  0  0  0
    6.9387   -0.3720  -13.7691 C   0  0  0  0  0  0  0  0  0  0  0  0
    8.4223    3.3339  -14.0264 C   0  0  0  0  0  0  0  0  0  0  0  0
    9.9233    3.2491  -14.0383 C   0  0  2  0  0  0  0  0  0  0  0  0
   10.7554    4.1043  -14.1438 O   0  0  0  0  0  0  0  0  0  0  0  0
    7.8881   -0.1105  -14.6109 C   0  0  0  0  0  0  0  0  0  0  0  0
    8.3571    1.1667  -14.6508 C   0  0  0  0  0  0  0  0  0  0  0  0
   10.3470    2.2509  -14.8905 C   0  0  1  0  0  0  0  0  0  0  0  0
    9.4991    1.3487  -15.5326 O   0  0  0  0  0  0  0  0  0  0  0  0
   11.1385    2.8007  -15.8405 O   0  0  0  0  0  0  0  0  0  0  0  0
  1  2  1  0  0  0  0
  1 10  2  0  0  0  0
  2  3  1  0  0  0  0
  2  5  2  0  0  0  0
  3  4  1  0  0  0  0
  4  6  1  6  0  0  0
  4  9  1  0  0  0  0
  5  8  1  0  0  0  0
  5 12  1  0  0  0  0
  6  7  1  0  0  0  0
  7 11  1  0  0  0  0
  7 16  2  0  0  0  0
  8  9  1  0  0  0  0
 10 14  1  0  0  0  0
 11 13  2  0  0  0  0
 11 20  1  0  0  0  0
 12 14  2  0  0  0  0
 13 15  1  0  0  0  0
 13 18  1  0  0  0  0
 16 17  1  0  0  0  0
 17 20  1  0  0  0  0
 17 24  1  0  0  0  0
 18 19  2  0  0  0  0
 19 21  1  0  0  0  0
 19 22  1  0  0  0  0
 20 22  2  0  0  0  0
 21 23  1  0  0  0  0
 23 25  1  0  0  0  0
 24 26  2  3  0  0  0
 24 28  1  0  0  0  0
 26 32  1  0  0  0  0
 27 25  1  1  0  0  0
 27 38  1  0  0  0  0
 27 43  1  0  0  0  0
 28 29  2  0  0  0  0
 29 30  1  0  0  0  0
 30 31  1  0  0  0  0
 31 33  2  0  0  0  0
 31 34  1  0  0  0  0
 33 35  1  0  0  0  0
 34 36  1  0  0  0  0
 34 40  2  0  0  0  0
 35 39  2  0  0  0  0
 37 36  1  6  0  0  0
 37 38  1  0  0  0  0
 37 41  1  0  0  0  0
 39 40  1  0  0  0  0
 40 42  1  0  0  0  0
 41 42  1  6  0  0  0
 41 43  1  0  0  0  0
M  END
$$$$

 OpenBabel10082411353D

 43 49  0  0  0  0  0  0  0  0999 V2000
   11.6836    6.0105   -4.8831 C   0  0  0  0  0  0  0  0  0  0  0  0
   11.1291    7.0732   -5.4395 C   0  0  0  0  0  0  0  0  0  0  0  0
   10.6954    7.0156   -6.8073 C   0  0  0  0  0  0  0  0  0  0  0  0
   10.2502    8.1187   -7.5536 C   0  0  2  0  0  0  0  0  0  0  0  0
   11.1205    8.4712   -4.9629 C   0  0  0  0  0  0  0  0  0  0  0  0
   10.8655    8.3511   -8.7960 C   0  0  0  0  0  0  0  0  0  0  0  0
   10.2922    7.8843   -9.9985 C   0  0  0  0  0  0  0  0  0  0  0  0
   10.4654    9.6993   -5.6120 C   0  0  0  0  0  0  0  0  0  0  0  0
   10.3510    9.5971   -7.0014 C   0  0  0  0  0  0  0  0  0  0  0  0
   12.2462    6.3351   -3.5020 C   0  0  0  0  0  0  0  0  0  0  0  0
   11.0471    7.5309  -11.1063 C   0  0  0  0  0  0  0  0  0  0  0  0
   11.7288    8.6923   -3.6518 C   0  0  0  0  0  0  0  0  0  0  0  0
   12.3991    7.7501  -11.1145 C   0  0  0  0  0  0  0  0  0  0  0  0
   12.3738    7.7580   -2.9599 C   0  0  0  0  0  0  0  0  0  0  0  0
   13.1285    8.5075  -10.1661 O   0  0  0  0  0  0  0  0  0  0  0  0
    9.0407    7.3775  -10.0973 N   0  0  0  0  0  0  0  0  0  0  0  0
    8.9787    6.9473  -11.4664 N   0  0  0  0  0  0  0  0  0  0  0  0
   13.1012    7.4459  -12.3707 C   0  0  0  0  0  0  0  0  0  0  0  0
   12.2395    6.9724  -13.2444 C   0  0  0  0  0  0  0  0  0  0  0  0
   10.2768    7.0170  -11.9799 C   0  0  0  0  0  0  0  0  0  0  0  0
   12.9237    6.5822  -14.5759 O   0  0  0  0  0  0  0  0  0  0  0  0
   10.8906    6.6526  -13.2252 C   0  0  0  0  0  0  0  0  0  0  0  0
   12.2396    6.1290  -15.6916 C   0  0  0  0  0  0  0  0  0  0  0  0
    7.8036    6.1825  -11.9342 C   0  0  0  0  0  0  0  0  0  0  0  0
   12.5015    4.7115  -15.7686 C   0  0  0  0  0  0  0  0  0  0  0  0
    7.1685    6.9992  -12.8245 C   0  0  0  0  0  0  0  0  0  0  0  0
   11.2461    3.8540  -15.4851 C   0  0  0  0  0  0  0  0  0  0  0  0
    7.6237    4.9154  -11.6529 C   0  0  0  0  0  0  0  0  0  0  0  0
    6.6378    4.1960  -12.2267 C   0  0  0  0  0  0  0  0  0  0  0  0
    6.2717    2.7675  -11.9743 C   0  0  0  0  0  0  0  0  0  0  0  0
    6.6569    1.8873  -12.9460 C   0  0  0  0  0  0  0  0  0  0  0  0
    7.3895    8.4597  -13.1785 C   0  0  0  0  0  0  0  0  0  0  0  0
    6.3114    0.5653  -12.7247 C   0  0  0  0  0  0  0  0  0  0  0  0
    7.7684    2.0327  -13.9055 C   0  0  0  0  0  0  0  0  0  0  0  0
    6.9387   -0.3720  -13.7691 C   0  0  0  0  0  0  0  0  0  0  0  0
    8.4223    3.3339  -14.0264 C   0  0  0  0  0  0  0  0  0  0  0  0
    8.2908    1.0246  -14.6080 C   0  0  0  0  0  0  0  0  0  0  0  0
    7.8707   -0.1948  -14.5676 C   0  0  0  0  0  0  0  0  0  0  0  0
    9.4626    1.2359  -15.4581 C   0  0  0  0  0  0  0  0  0  0  0  0
    9.5078    3.5700  -14.8275 C   0  0  0  0  0  0  0  0  0  0  0  0
   10.0311    0.2230  -16.1860 C   0  0  0  0  0  0  0  0  0  0  0  0
   10.1034    2.5448  -15.5150 C   0  0  0  0  0  0  0  0  0  0  0  0
   11.1132    2.8016  -16.2256 O   0  0  0  0  0  0  0  0  0  0  0  0
  1  2  1  0  0  0  0
  1 10  2  0  0  0  0
  2  3  1  0  0  0  0
  2  5  2  0  0  0  0
  3  4  1  0  0  0  0
  4  6  1  6  0  0  0
  4  9  1  0  0  0  0
  5  8  1  0  0  0  0
  5 12  1  0  0  0  0
  6  7  1  0  0  0  0
  7 11  1  0  0  0  0
  7 16  2  0  0  0  0
  8  9  1  0  0  0  0
 10 14  1  0  0  0  0
 11 13  2  0  0  0  0
 11 20  1  0  0  0  0
 12 14  2  0  0  0  0
 13 15  1  0  0  0  0
 13 18  1  0  0  0  0
 16 17  1  0  0  0  0
 17 20  1  0  0  0  0
 17 24  1  0  0  0  0
 18 19  2  0  0  0  0
 19 21  1  0  0  0  0
 19 22  1  0  0  0  0
 20 22  2  0  0  0  0
 21 23  1  0  0  0  0
 23 25  1  0  0  0  0
 24 26  2  3  0  0  0
 24 28  1  0  0  0  0
 25 27  1  0  0  0  0
 26 32  1  0  0  0  0
 27 43  1  0  0  0  0
 28 29  2  0  0  0  0
 29 30  1  0  0  0  0
 30 31  1  0  0  0  0
 31 33  2  0  0  0  0
 31 34  1  0  0  0  0
 33 35  1  0  0  0  0
 34 36  2  0  0  0  0
 34 37  1  0  0  0  0
 35 38  1  0  0  0  0
 36 40  1  0  0  0  0
 37 38  1  0  0  0  0
 37 39  2  0  0  0  0
 39 41  1  0  0  0  0
 39 42  1  0  0  0  0
 40 42  2  0  0  0  0
 42 43  1  0  0  0  0
M  END
$$$$

 OpenBabel10082411353D

 43 53  0  0  0  0  0  0  0  0999 V2000
    8.0806    9.0240  -12.7589 C   0  0  0  0  0  0  0  0  0  0  0  0
    8.6514    7.8645  -12.2948 C   0  0  0  0  0  0  0  0  0  0  0  0
    9.9575    7.9974  -11.8426 C   0  0  0  0  0  0  0  0  0  0  0  0
   10.7657    6.8667  -11.6050 C   0  0  1  0  0  0  0  0  0  0  0  0
   10.7682    5.9590  -12.8271 C   0  0  0  0  0  0  0  0  0  0  0  0
   12.1553    7.3846  -11.2315 C   0  0  0  0  0  0  0  0  0  0  0  0
    8.0676    6.6451  -12.2974 C   0  0  0  0  0  0  0  0  0  0  0  0
   10.1892    6.1240  -10.3860 C   0  0  0  0  0  0  0  0  0  0  0  0
   11.8375    5.4373  -13.3240 O   0  0  0  0  0  0  0  0  0  0  0  0
    8.6785    5.4761  -13.0273 C   0  0  1  0  0  0  0  0  0  0  0  0
    9.1969    5.2405  -10.4969 C   0  0  2  0  0  0  0  0  0  0  0  0
    7.2213    6.2210  -11.3074 C   0  0  2  0  0  0  0  0  0  0  0  0
   12.5590    7.6872   -9.9896 C   0  0  0  0  0  0  0  0  0  0  0  0
    9.7633    5.0333  -12.9720 C   0  0  1  0  0  0  0  0  0  0  0  0
   10.0661    4.0167  -14.0373 N   0  0  0  0  0  0  0  0  0  0  0  0
   13.6906    8.3004   -9.6233 O   0  0  0  0  0  0  0  0  0  0  0  0
    7.6357    4.5123  -12.6317 C   0  0  2  0  0  0  0  0  0  0  0  0
    6.8831    4.9171  -11.7031 C   0  0  2  0  0  0  0  0  0  0  0  0
   10.5937    6.6967   -9.1779 C   0  0  0  0  0  0  0  0  0  0  0  0
    9.5087    4.3263  -11.6925 C   0  0  2  0  0  0  0  0  0  0  0  0
   11.6359    7.4449   -8.9125 C   0  0  0  0  0  0  0  0  0  0  0  0
   11.9716    7.9159   -7.6200 C   0  0  0  0  0  0  0  0  0  0  0  0
    8.4648    3.6122  -12.2840 C   0  0  1  0  0  0  0  0  0  0  0  0
    7.9253    2.8004  -11.3926 C   0  0  0  0  0  0  0  0  0  0  0  0
    5.6047    4.5059  -11.7589 C   0  0  0  0  0  0  0  0  0  0  0  0
    7.6606    4.1297  -10.5699 C   0  0  0  0  0  0  0  0  0  0  0  0
   10.9559    7.6849   -6.6057 C   0  0  0  0  0  0  0  0  0  0  0  0
    8.0094    4.5092   -9.5664 C   0  0  0  0  0  0  0  0  0  0  0  0
    8.3033    4.0627   -8.4980 C   0  0  0  0  0  0  0  0  0  0  0  0
    6.3587    7.1012  -11.0392 O   0  0  0  0  0  0  0  0  0  0  0  0
   11.0186    3.9598  -14.9226 C   0  0  0  0  0  0  0  0  0  0  0  0
    8.1758    5.8633  -10.2511 C   0  0  1  0  0  0  0  0  0  0  0  0
   11.4648    2.7104  -15.2650 O   0  0  0  0  0  0  0  0  0  0  0  0
    9.9512    6.8220   -6.8436 C   0  0  0  0  0  0  0  0  0  0  0  0
    9.6899    6.3705   -8.1082 C   0  0  2  0  0  0  0  0  0  0  0  0
   11.2597    8.2901   -5.2396 C   0  0  1  0  0  0  0  0  0  0  0  0
   10.9483    4.9354  -15.8312 C   0  0  0  0  0  0  0  0  0  0  0  0
    9.2428    4.9682   -7.8294 C   0  0  0  0  0  0  0  0  0  0  0  0
   11.9211    7.5870   -4.3303 C   0  0  0  0  0  0  0  0  0  0  0  0
    9.5730    2.7786  -13.2723 C   0  0  0  0  0  0  0  0  0  0  0  0
   12.4043    8.2063   -3.0501 C   0  0  0  0  0  0  0  0  0  0  0  0
   12.0960    6.1974   -4.3938 C   0  0  0  0  0  0  0  0  0  0  0  0
   12.0617    9.5228   -5.5253 C   0  0  0  0  0  0  0  0  0  0  0  0
  1  2  1  0  0  0  0
  2  3  1  0  0  0  0
  2  7  2  0  0  0  0
  4  3  1  6  0  0  0
  4  5  1  0  0  0  0
  4  6  1  0  0  0  0
  4  8  1  0  0  0  0
  5  9  2  0  0  0  0
  6 13  1  0  0  0  0
  7 12  1  0  0  0  0
  8 19  2  0  0  0  0
 10  7  1  1  0  0  0
 10 14  1  0  0  0  0
 10 17  1  0  0  0  0
 11  8  1  6  0  0  0
 11 20  1  0  0  0  0
 11 32  1  0  0  0  0
 12 18  1  0  0  0  0
 12 30  1  1  0  0  0
 12 32  1  0  0  0  0
 13 16  2  0  0  0  0
 13 21  1  0  0  0  0
 14  5  1  1  0  0  0
 14 15  1  0  0  0  0
 14 20  1  0  0  0  0
 15 31  1  0  0  0  0
 15 40  1  0  0  0  0
 17 18  1  0  0  0  0
 17 23  1  0  0  0  0
 18 25  1  0  0  0  0
 18 26  1  0  0  0  0
 19 21  1  0  0  0  0
 19 35  1  0  0  0  0
 20 23  1  0  0  0  0
 21 22  2  0  0  0  0
 22 27  1  0  0  0  0
 23 24  1  0  0  0  0
 23 40  1  0  0  0  0
 24 26  1  0  0  0  0
 26 28  2  0  0  0  0
 27 34  2  0  0  0  0
 27 36  1  0  0  0  0
 28 29  1  0  0  0  0
 28 32  1  0  0  0  0
 29 38  1  0  0  0  0
 31 33  2  0  0  0  0
 31 37  1  0  0  0  0
 34 35  1  0  0  0  0
 35 38  1  0  0  0  0
 36 39  1  0  0  0  0
 36 43  1  0  0  0  0
 39 41  1  0  0  0  0
 39 42  2  0  0  0  0
M  END
$$$$

 OpenBabel10082411353D

 43 49  0  0  0  0  0  0  0  0999 V2000
   11.6836    6.0105   -4.8831 F   0  0  0  0  0  0  0  0  0  0  0  0
   11.2562    7.2206   -5.0294 C   0  0  0  0  0  0  0  0  0  0  0  0
   12.0125    8.2418   -4.4408 C   0  0  0  0  0  0  0  0  0  0  0  0
   11.1918    7.2706   -6.5237 C   0  0  0  0  0  0  0  0  0  0  0  0
   11.6999    8.4488   -3.1704 F   0  0  0  0  0  0  0  0  0  0  0  0
    9.8648    7.0908   -4.5314 F   0  0  0  0  0  0  0  0  0  0  0  0
   11.6831    8.5291   -6.9682 C   0  0  0  0  0  0  0  0  0  0  0  0
   10.4785    6.5189   -7.4033 C   0  0  0  0  0  0  0  0  0  0  0  0
   11.6979    8.6661   -8.4760 C   0  0  0  0  0  0  0  0  0  0  0  0
   11.6248    9.5853   -5.0030 C   0  0  0  0  0  0  0  0  0  0  0  0
   11.8604    9.7907   -6.2903 O   0  0  0  0  0  0  0  0  0  0  0  0
   13.3557    8.1748   -4.5947 F   0  0  0  0  0  0  0  0  0  0  0  0
   10.5427    6.6061   -8.7190 C   0  0  0  0  0  0  0  0  0  0  0  0
   11.1158    7.7103   -9.2540 C   0  0  0  0  0  0  0  0  0  0  0  0
   11.3757    7.6656  -10.5293 N   0  0  0  0  0  0  0  0  0  0  0  0
   10.7153    7.7096  -11.5405 C   0  0  0  0  0  0  0  0  0  0  0  0
   11.2483    7.4711  -12.8542 C   0  0  0  0  0  0  0  0  0  0  0  0
    9.3980    7.7820  -11.5398 C   0  0  0  0  0  0  0  0  0  0  0  0
    8.6055    7.5889  -12.6525 C   0  0  0  0  0  0  0  0  0  0  0  0
   12.7508    7.3705  -13.0162 O   0  0  0  0  0  0  0  0  0  0  0  0
   10.5299    7.1831  -13.9856 C   0  0  0  0  0  0  0  0  0  0  0  0
    7.0533    7.7371  -12.5396 C   0  0  0  0  0  0  0  0  0  0  0  0
   11.2041    6.8490  -15.2304 C   0  0  0  0  0  0  0  0  0  0  0  0
   11.6393    5.5333  -15.3864 C   0  0  0  0  0  0  0  0  0  0  0  0
    9.1955    7.2935  -13.8301 C   0  0  0  0  0  0  0  0  0  0  0  0
   12.5294    5.1116  -16.1609 C   0  0  0  0  0  0  0  0  0  0  0  0
   11.2315    4.4703  -14.3200 C   0  0  0  0  0  0  0  0  0  0  0  0
   13.0194    6.0876  -17.1697 C   0  0  0  0  0  0  0  0  0  0  0  0
   12.9874    3.8316  -16.1456 C   0  0  0  0  0  0  0  0  0  0  0  0
   12.3949    2.9126  -15.4671 C   0  0  0  0  0  0  0  0  0  0  0  0
   10.2274    4.8149  -13.2643 C   0  0  0  0  0  0  0  0  0  0  0  0
    8.9564    4.3798  -13.5553 C   0  0  0  0  0  0  0  0  0  0  0  0
    8.7030    2.9995  -13.6113 C   0  0  0  0  0  0  0  0  0  0  0  0
   11.4166    3.2431  -14.5460 C   0  0  0  0  0  0  0  0  0  0  0  0
    7.3695    2.5639  -13.4881 C   0  0  0  0  0  0  0  0  0  0  0  0
   10.5729    2.1979  -13.9272 C   0  0  0  0  0  0  0  0  0  0  0  0
    9.5358    2.1981  -13.9798 C   0  0  0  0  0  0  0  0  0  0  0  0
    6.4075    3.3743  -12.8151 C   0  0  0  0  0  0  0  0  0  0  0  0
    5.3763    2.6754  -12.1448 C   0  0  0  0  0  0  0  0  0  0  0  0
    5.6143    1.2131  -12.4458 C   0  0  0  0  0  0  0  0  0  0  0  0
    7.3993    1.2501  -13.5252 C   0  0  0  0  0  0  0  0  0  0  0  0
    6.3542    0.5679  -13.0138 C   0  0  0  0  0  0  0  0  0  0  0  0
    8.4059    0.6515  -14.2348 C   0  0  0  0  0  0  0  0  0  0  0  0
  1  2  1  0  0  0  0
  2  3  1  0  0  0  0
  2  4  1  0  0  0  0
  2  6  1  0  0  0  0
  3  5  1  0  0  0  0
  3 10  1  0  0  0  0
  3 12  1  0  0  0  0
  4  7  1  0  0  0  0
  4  8  2  0  0  0  0
  7  9  2  0  0  0  0
  7 11  1  0  0  0  0
  8 13  1  0  0  0  0
  9 14  1  0  0  0  0
 10 11  1  0  0  0  0
 13 14  2  0  0  0  0
 14 15  1  0  0  0  0
 15 16  1  0  0  0  0
 16 17  1  0  0  0  0
 16 18  2  0  0  0  0
 17 20  1  0  0  0  0
 17 21  2  0  0  0  0
 18 19  1  0  0  0  0
 19 22  1  0  0  0  0
 19 25  2  0  0  0  0
 21 23  1  0  0  0  0
 21 25  1  0  0  0  0
 23 24  1  0  0  0  0
 24 26  2  0  0  0  0
 24 27  1  0  0  0  0
 26 28  1  0  0  0  0
 26 29  1  0  0  0  0
 27 31  1  0  0  0  0
 27 34  2  0  0  0  0
 29 30  2  0  0  0  0
 30 34  1  0  0  0  0
 31 32  2  0  0  0  0
 32 33  1  0  0  0  0
 33 35  1  0  0  0  0
 33 37  2  0  0  0  0
 34 36  1  0  0  0  0
 35 38  1  0  0  0  0
 35 41  2  0  0  0  0
 36 37  1  0  0  0  0
 37 43  1  0  0  0  0
 38 39  2  0  0  0  0
 39 40  1  0  0  0  0
 40 42  2  0  0  0  0
 41 42  1  0  0  0  0
 41 43  1  0  0  0  0
M  END
$$$$

 OpenBabel10082411353D

 43 54  0  0  0  0  0  0  0  0999 V2000
    8.0806    9.0240  -12.7589 C   0  0  0  0  0  0  0  0  0  0  0  0
    8.6514    7.8645  -12.2948 C   0  0  0  0  0  0  0  0  0  0  0  0
    9.9575    7.9974  -11.8426 C   0  0  0  0  0  0  0  0  0  0  0  0
   10.7657    6.8667  -11.6050 C   0  0  1  0  0  0  0  0  0  0  0  0
   10.7682    5.9590  -12.8271 C   0  0  0  0  0  0  0  0  0  0  0  0
   12.1553    7.3846  -11.2315 C   0  0  0  0  0  0  0  0  0  0  0  0
    8.0676    6.6451  -12.2974 C   0  0  0  0  0  0  0  0  0  0  0  0
   10.1892    6.1240  -10.3860 C   0  0  0  0  0  0  0  0  0  0  0  0
   11.8375    5.4373  -13.3240 O   0  0  0  0  0  0  0  0  0  0  0  0
    8.6785    5.4761  -13.0273 C   0  0  1  0  0  0  0  0  0  0  0  0
    9.1969    5.2405  -10.4969 C   0  0  2  0  0  0  0  0  0  0  0  0
    7.2213    6.2210  -11.3074 C   0  0  2  0  0  0  0  0  0  0  0  0
   12.5590    7.6872   -9.9896 C   0  0  0  0  0  0  0  0  0  0  0  0
    9.7633    5.0333  -12.9720 C   0  0  1  0  0  0  0  0  0  0  0  0
   10.0661    4.0167  -14.0373 N   0  0  0  0  0  0  0  0  0  0  0  0
   13.6906    8.3004   -9.6233 O   0  0  0  0  0  0  0  0  0  0  0  0
    7.6357    4.5123  -12.6317 C   0  0  2  0  0  0  0  0  0  0  0  0
    6.8831    4.9171  -11.7031 C   0  0  2  0  0  0  0  0  0  0  0  0
   10.5937    6.6967   -9.1779 C   0  0  0  0  0  0  0  0  0  0  0  0
    9.5087    4.3263  -11.6925 C   0  0  2  0  0  0  0  0  0  0  0  0
   11.6359    7.4449   -8.9125 C   0  0  0  0  0  0  0  0  0  0  0  0
   11.9716    7.9159   -7.6200 C   0  0  0  0  0  0  0  0  0  0  0  0
    8.4648    3.6122  -12.2840 C   0  0  1  0  0  0  0  0  0  0  0  0
    7.9253    2.8004  -11.3926 C   0  0  0  0  0  0  0  0  0  0  0  0
    5.6047    4.5059  -11.7589 C   0  0  0  0  0  0  0  0  0  0  0  0
    7.6606    4.1297  -10.5699 C   0  0  0  0  0  0  0  0  0  0  0  0
   10.9559    7.6849   -6.6057 C   0  0  0  0  0  0  0  0  0  0  0  0
    8.0094    4.5092   -9.5664 C   0  0  0  0  0  0  0  0  0  0  0  0
    8.3033    4.0627   -8.4980 C   0  0  0  0  0  0  0  0  0  0  0  0
    6.3587    7.1012  -11.0392 O   0  0  0  0  0  0  0  0  0  0  0  0
   11.0186    3.9598  -14.9226 C   0  0  0  0  0  0  0  0  0  0  0  0
    8.1758    5.8633  -10.2511 C   0  0  1  0  0  0  0  0  0  0  0  0
   11.4648    2.7104  -15.2650 O   0  0  0  0  0  0  0  0  0  0  0  0
    9.9512    6.8220   -6.8436 C   0  0  0  0  0  0  0  0  0  0  0  0
    9.6899    6.3705   -8.1082 C   0  0  2  0  0  0  0  0  0  0  0  0
   11.2597    8.2901   -5.2396 C   0  0  0  0  0  0  0  0  0  0  0  0
   11.6068    9.7354   -5.2006 C   0  0  0  0  0  0  0  0  0  0  0  0
    9.4261    2.7718  -13.6670 C   0  0  0  0  0  0  0  0  0  0  0  0
    9.1568    5.0346   -7.7426 C   0  0  0  0  0  0  0  0  0  0  0  0
   11.2083    4.9304  -15.6781 O   0  0  0  0  0  0  0  0  0  0  0  0
   11.3723    7.7138   -4.0322 C   0  0  0  0  0  0  0  0  0  0  0  0
   11.7763    8.7168   -2.9508 C   0  0  0  0  0  0  0  0  0  0  0  0
   11.9575   10.0362   -3.6885 C   0  0  0  0  0  0  0  0  0  0  0  0
  1  2  1  0  0  0  0
  2  3  1  0  0  0  0
  2  7  2  0  0  0  0
  4  3  1  6  0  0  0
  4  5  1  0  0  0  0
  4  6  1  0  0  0  0
  4  8  1  0  0  0  0
  5  9  2  0  0  0  0
  6 13  1  0  0  0  0
  7 12  1  0  0  0  0
  8 19  2  0  0  0  0
 10  7  1  1  0  0  0
 10 14  1  0  0  0  0
 10 17  1  0  0  0  0
 11  8  1  6  0  0  0
 11 20  1  0  0  0  0
 11 32  1  0  0  0  0
 12 18  1  0  0  0  0
 12 30  1  1  0  0  0
 12 32  1  0  0  0  0
 13 16  2  0  0  0  0
 13 21  1  0  0  0  0
 14  5  1  1  0  0  0
 14 15  1  0  0  0  0
 14 20  1  0  0  0  0
 15 31  1  0  0  0  0
 15 38  1  0  0  0  0
 17 18  1  0  0  0  0
 17 23  1  0  0  0  0
 18 25  1  0  0  0  0
 18 26  1  0  0  0  0
 19 21  1  0  0  0  0
 19 35  1  0  0  0  0
 20 23  1  0  0  0  0
 21 22  2  0  0  0  0
 22 27  1  0  0  0  0
 23 24  1  0  0  0  0
 23 38  1  0  0  0  0
 24 26  1  0  0  0  0
 26 28  2  0  0  0  0
 27 34  2  0  0  0  0
 27 36  1  0  0  0  0
 28 29  1  0  0  0  0
 28 32  1  0  0  0  0
 29 39  1  0  0  0  0
 31 33  2  0  0  0  0
 31 40  1  0  0  0  0
 34 35  1  0  0  0  0
 35 39  1  0  0  0  0
 36 37  1  0  0  0  0
 36 41  2  0  0  0  0
 37 43  2  0  0  0  0
 41 42  1  0  0  0  0
 42 43  1  0  0  0  0
M  END
$$$$

 OpenBabel10082411353D

 43 54  0  0  0  0  0  0  0  0999 V2000
    8.0806    9.0240  -12.7589 C   0  0  0  0  0  0  0  0  0  0  0  0
    8.6514    7.8645  -12.2948 C   0  0  0  0  0  0  0  0  0  0  0  0
    9.9575    7.9974  -11.8426 C   0  0  0  0  0  0  0  0  0  0  0  0
   10.7657    6.8667  -11.6050 C   0  0  1  0  0  0  0  0  0  0  0  0
   10.7682    5.9590  -12.8271 C   0  0  0  0  0  0  0  0  0  0  0  0
   12.1553    7.3846  -11.2315 C   0  0  0  0  0  0  0  0  0  0  0  0
    8.0676    6.6451  -12.2974 C   0  0  0  0  0  0  0  0  0  0  0  0
   10.1892    6.1240  -10.3860 C   0  0  0  0  0  0  0  0  0  0  0  0
   11.8375    5.4373  -13.3240 O   0  0  0  0  0  0  0  0  0  0  0  0
    8.6785    5.4761  -13.0273 C   0  0  1  0  0  0  0  0  0  0  0  0
    9.1969    5.2405  -10.4969 C   0  0  1  0  0  0  0  0  0  0  0  0
    7.2213    6.2210  -11.3074 C   0  0  1  0  0  0  0  0  0  0  0  0
   12.5590    7.6872   -9.9896 C   0  0  0  0  0  0  0  0  0  0  0  0
    9.7633    5.0333  -12.9720 C   0  0  1  0  0  0  0  0  0  0  0  0
   10.0661    4.0167  -14.0373 N   0  0  0  0  0  0  0  0  0  0  0  0
   13.6906    8.3004   -9.6233 O   0  0  0  0  0  0  0  0  0  0  0  0
    7.6357    4.5123  -12.6317 C   0  0  2  0  0  0  0  0  0  0  0  0
    6.8831    4.9171  -11.7031 C   0  0  1  0  0  0  0  0  0  0  0  0
   10.5937    6.6967   -9.1779 C   0  0  0  0  0  0  0  0  0  0  0  0
    9.5087    4.3263  -11.6925 C   0  0  2  0  0  0  0  0  0  0  0  0
   11.6359    7.4449   -8.9125 C   0  0  0  0  0  0  0  0  0  0  0  0
   11.9716    7.9159   -7.6200 C   0  0  0  0  0  0  0  0  0  0  0  0
    8.4648    3.6122  -12.2840 C   0  0  2  0  0  0  0  0  0  0  0  0
    9.3128    4.5571   -9.1689 C   0  0  0  0  0  0  0  0  0  0  0  0
   10.9557    7.6369   -6.5929 C   0  0  1  0  0  0  0  0  0  0  0  0
    9.6490    2.8108  -13.7776 C   0  0  1  0  0  0  0  0  0  0  0  0
    9.6716    6.1981   -8.0224 C   0  0  2  0  0  0  0  0  0  0  0  0
    8.5511    2.5400  -13.1402 C   0  0  0  0  0  0  0  0  0  0  0  0
    9.7877    2.0302  -15.0383 O   0  0  0  0  0  0  0  0  0  0  0  0
   10.2949    6.3957   -6.8142 C   0  0  1  0  0  0  0  0  0  0  0  0
   11.5672    7.6277   -5.2275 C   0  0  0  0  0  0  0  0  0  0  0  0
    9.0573    5.0713   -8.1077 N   0  0  0  0  0  0  0  0  0  0  0  0
    9.9816    8.7976   -6.5531 C   0  0  0  0  0  0  0  0  0  0  0  0
   11.0000    1.9397  -15.5744 C   0  0  0  0  0  0  0  0  0  0  0  0
    7.9363    5.6537  -10.4961 C   0  0  1  0  0  0  0  0  0  0  0  0
   11.7094    6.5344   -4.5880 C   0  0  0  0  0  0  0  0  0  0  0  0
   11.4771    5.4017   -5.2557 C   0  0  0  0  0  0  0  0  0  0  0  0
   10.9774    5.3782   -6.4193 C   0  0  0  0  0  0  0  0  0  0  0  0
   11.7702    8.9891   -4.6113 C   0  0  0  0  0  0  0  0  0  0  0  0
   10.6199    9.7777   -4.4950 C   0  0  0  0  0  0  0  0  0  0  0  0
   12.8455    9.7874   -5.1559 C   0  0  0  0  0  0  0  0  0  0  0  0
   12.2040    8.8162   -3.1170 C   0  0  0  0  0  0  0  0  0  0  0  0
   10.0543    9.9872   -5.9209 C   0  0  0  0  0  0  0  0  0  0  0  0
  1  2  1  0  0  0  0
  2  3  1  0  0  0  0
  2  7  2  0  0  0  0
  4  3  1  6  0  0  0
  4  5  1  0  0  0  0
  4  6  1  0  0  0  0
  4  8  1  0  0  0  0
  5  9  2  0  0  0  0
  6 13  1  0  0  0  0
  8 11  1  0  0  0  0
  8 19  2  0  0  0  0
 10  7  1  1  0  0  0
 10 14  1  0  0  0  0
 10 17  1  0  0  0  0
 11 20  1  0  0  0  0
 11 24  1  1  0  0  0
 11 35  1  0  0  0  0
 12  7  1  6  0  0  0
 12 18  1  0  0  0  0
 12 35  1  0  0  0  0
 13 16  2  0  0  0  0
 13 21  1  0  0  0  0
 14  5  1  1  0  0  0
 14 15  1  0  0  0  0
 14 20  1  0  0  0  0
 15 26  1  0  0  0  0
 17 18  1  0  0  0  0
 17 23  1  0  0  0  0
 18 35  1  0  0  0  0
 19 21  1  0  0  0  0
 19 27  1  0  0  0  0
 20 23  1  0  0  0  0
 21 22  2  0  0  0  0
 22 25  1  0  0  0  0
 23 28  1  0  0  0  0
 24 32  2  0  0  0  0
 25 30  1  0  0  0  0
 25 31  1  0  0  0  0
 25 33  1  0  0  0  0
 26 28  1  0  0  0  0
 26 29  1  0  0  0  0
 27 30  1  0  0  0  0
 27 32  1  0  0  0  0
 29 34  1  0  0  0  0
 30 38  1  0  0  0  0
 31 36  2  0  0  0  0
 31 39  1  0  0  0  0
 33 43  1  0  0  0  0
 36 37  1  0  0  0  0
 37 38  2  0  0  0  0
 39 40  1  0  0  0  0
 39 41  1  0  0  0  0
 39 42  1  0  0  0  0
 40 43  1  0  0  0  0
M  END
$$$$

 OpenBabel10082411353D

 43 50  0  0  0  0  0  0  0  0999 V2000
   11.6836    6.0105   -4.8831 C   0  0  0  0  0  0  0  0  0  0  0  0
   11.1291    7.0732   -5.4395 C   0  0  0  0  0  0  0  0  0  0  0  0
   10.6954    7.0156   -6.8073 C   0  0  0  0  0  0  0  0  0  0  0  0
   10.2502    8.1187   -7.5536 C   0  0  2  0  0  0  0  0  0  0  0  0
   11.1205    8.4712   -4.9629 C   0  0  0  0  0  0  0  0  0  0  0  0
   10.8655    8.3511   -8.7960 C   0  0  0  0  0  0  0  0  0  0  0  0
   10.2922    7.8843   -9.9985 C   0  0  0  0  0  0  0  0  0  0  0  0
   10.4654    9.6993   -5.6120 C   0  0  0  0  0  0  0  0  0  0  0  0
   10.3510    9.5971   -7.0014 C   0  0  0  0  0  0  0  0  0  0  0  0
   12.2462    6.3351   -3.5020 C   0  0  0  0  0  0  0  0  0  0  0  0
   11.0471    7.5309  -11.1063 C   0  0  0  0  0  0  0  0  0  0  0  0
   11.7288    8.6923   -3.6518 C   0  0  0  0  0  0  0  0  0  0  0  0
   12.3991    7.7501  -11.1145 C   0  0  0  0  0  0  0  0  0  0  0  0
   12.3738    7.7580   -2.9599 C   0  0  0  0  0  0  0  0  0  0  0  0
   13.1285    8.5075  -10.1661 O   0  0  0  0  0  0  0  0  0  0  0  0
    9.0407    7.3775  -10.0973 N   0  0  0  0  0  0  0  0  0  0  0  0
    8.9787    6.9473  -11.4664 N   0  0  0  0  0  0  0  0  0  0  0  0
   13.1012    7.4459  -12.3707 C   0  0  0  0  0  0  0  0  0  0  0  0
   12.2395    6.9724  -13.2444 C   0  0  0  0  0  0  0  0  0  0  0  0
   10.2768    7.0170  -11.9799 C   0  0  0  0  0  0  0  0  0  0  0  0
   12.9237    6.5822  -14.5759 O   0  0  0  0  0  0  0  0  0  0  0  0
   10.8906    6.6526  -13.2252 C   0  0  0  0  0  0  0  0  0  0  0  0
   12.2396    6.1290  -15.6916 C   0  0  0  0  0  0  0  0  0  0  0  0
    7.8036    6.1825  -11.9342 C   0  0  0  0  0  0  0  0  0  0  0  0
   12.5015    4.7115  -15.7686 C   0  0  0  0  0  0  0  0  0  0  0  0
    7.1685    6.9992  -12.8245 C   0  0  0  0  0  0  0  0  0  0  0  0
   11.2461    3.8540  -15.4851 C   0  0  2  0  0  0  0  0  0  0  0  0
    7.6237    4.9154  -11.6529 C   0  0  0  0  0  0  0  0  0  0  0  0
    6.6378    4.1960  -12.2267 C   0  0  0  0  0  0  0  0  0  0  0  0
    6.2717    2.7675  -11.9743 C   0  0  0  0  0  0  0  0  0  0  0  0
    6.6569    1.8873  -12.9460 C   0  0  0  0  0  0  0  0  0  0  0  0
    7.3895    8.4597  -13.1785 C   0  0  0  0  0  0  0  0  0  0  0  0
    6.3114    0.5653  -12.7247 C   0  0  0  0  0  0  0  0  0  0  0  0
    7.7684    2.0327  -13.9055 C   0  0  0  0  0  0  0  0  0  0  0  0
    6.9387   -0.3720  -13.7691 C   0  0  0  0  0  0  0  0  0  0  0  0
    8.4223    3.3339  -14.0264 C   0  0  0  0  0  0  0  0  0  0  0  0
    8.2908    1.0246  -14.6080 C   0  0  0  0  0  0  0  0  0  0  0  0
    7.8707   -0.1948  -14.5676 C   0  0  0  0  0  0  0  0  0  0  0  0
    9.4626    1.2359  -15.4581 C   0  0  0  0  0  0  0  0  0  0  0  0
   11.0527    2.6945  -16.2982 N   0  0  0  0  0  0  0  0  0  0  0  0
    9.7706    2.3473  -15.9771 C   0  0  2  0  0  0  0  0  0  0  0  0
    9.5055    3.6028  -14.7909 C   0  0  1  0  0  0  0  0  0  0  0  0
   10.1199    4.4005  -15.1918 N   0  0  0  0  0  0  0  0  0  0  0  0
  1  2  1  0  0  0  0
  1 10  2  0  0  0  0
  2  3  1  0  0  0  0
  2  5  2  0  0  0  0
  3  4  1  0  0  0  0
  4  6  1  6  0  0  0
  4  9  1  0  0  0  0
  5  8  1  0  0  0  0
  5 12  1  0  0  0  0
  6  7  1  0  0  0  0
  7 11  1  0  0  0  0
  7 16  2  0  0  0  0
  8  9  1  0  0  0  0
 10 14  1  0  0  0  0
 11 13  2  0  0  0  0
 11 20  1  0  0  0  0
 12 14  2  0  0  0  0
 13 15  1  0  0  0  0
 13 18  1  0  0  0  0
 16 17  1  0  0  0  0
 17 20  1  0  0  0  0
 17 24  1  0  0  0  0
 18 19  2  0  0  0  0
 19 21  1  0  0  0  0
 19 22  1  0  0  0  0
 20 22  2  0  0  0  0
 21 23  1  0  0  0  0
 23 25  1  0  0  0  0
 24 26  2  3  0  0  0
 24 28  1  0  0  0  0
 26 32  1  0  0  0  0
 27 25  1  6  0  0  0
 27 40  1  0  0  0  0
 27 43  1  0  0  0  0
 28 29  2  0  0  0  0
 29 30  1  0  0  0  0
 30 31  1  0  0  0  0
 31 33  2  0  0  0  0
 31 34  1  0  0  0  0
 33 35  1  0  0  0  0
 34 36  2  0  0  0  0
 34 37  1  0  0  0  0
 35 38  1  0  0  0  0
 37 38  1  0  0  0  0
 37 39  2  0  0  0  0
 40 41  1  0  0  0  0
 41 39  1  1  0  0  0
 41 42  1  0  0  0  0
 42 36  1  6  0  0  0
 42 43  1  0  0  0  0
M  END
$$$$

 OpenBabel10082411353D

 43 54  0  0  0  0  0  0  0  0999 V2000
    8.0806    9.0240  -12.7589 C   0  0  0  0  0  0  0  0  0  0  0  0
    8.6514    7.8645  -12.2948 C   0  0  0  0  0  0  0  0  0  0  0  0
    9.9575    7.9974  -11.8426 C   0  0  0  0  0  0  0  0  0  0  0  0
   10.7657    6.8667  -11.6050 C   0  0  1  0  0  0  0  0  0  0  0  0
   10.7682    5.9590  -12.8271 C   0  0  0  0  0  0  0  0  0  0  0  0
   12.1553    7.3846  -11.2315 C   0  0  0  0  0  0  0  0  0  0  0  0
    8.0676    6.6451  -12.2974 C   0  0  0  0  0  0  0  0  0  0  0  0
   10.1892    6.1240  -10.3860 C   0  0  0  0  0  0  0  0  0  0  0  0
   11.8375    5.4373  -13.3240 O   0  0  0  0  0  0  0  0  0  0  0  0
    8.6785    5.4761  -13.0273 C   0  0  1  0  0  0  0  0  0  0  0  0
    9.1969    5.2405  -10.4969 C   0  0  2  0  0  0  0  0  0  0  0  0
    7.2213    6.2210  -11.3074 C   0  0  2  0  0  0  0  0  0  0  0  0
   12.5590    7.6872   -9.9896 C   0  0  0  0  0  0  0  0  0  0  0  0
    9.7633    5.0333  -12.9720 C   0  0  1  0  0  0  0  0  0  0  0  0
   10.0661    4.0167  -14.0373 N   0  0  0  0  0  0  0  0  0  0  0  0
   13.6906    8.3004   -9.6233 O   0  0  0  0  0  0  0  0  0  0  0  0
    7.6357    4.5123  -12.6317 C   0  0  2  0  0  0  0  0  0  0  0  0
    6.8831    4.9171  -11.7031 C   0  0  2  0  0  0  0  0  0  0  0  0
   10.5937    6.6967   -9.1779 C   0  0  0  0  0  0  0  0  0  0  0  0
    9.5087    4.3263  -11.6925 C   0  0  2  0  0  0  0  0  0  0  0  0
   11.6359    7.4449   -8.9125 C   0  0  0  0  0  0  0  0  0  0  0  0
   11.9716    7.9159   -7.6200 C   0  0  0  0  0  0  0  0  0  0  0  0
    8.4648    3.6122  -12.2840 C   0  0  1  0  0  0  0  0  0  0  0  0
    7.9253    2.8004  -11.3926 C   0  0  0  0  0  0  0  0  0  0  0  0
    5.6047    4.5059  -11.7589 C   0  0  0  0  0  0  0  0  0  0  0  0
    7.6606    4.1297  -10.5699 C   0  0  0  0  0  0  0  0  0  0  0  0
   10.9559    7.6849   -6.6057 C   0  0  0  0  0  0  0  0  0  0  0  0
    8.0094    4.5092   -9.5664 C   0  0  0  0  0  0  0  0  0  0  0  0
    8.3033    4.0627   -8.4980 C   0  0  0  0  0  0  0  0  0  0  0  0
    6.3587    7.1012  -11.0392 O   0  0  0  0  0  0  0  0  0  0  0  0
   11.0186    3.9598  -14.9226 C   0  0  0  0  0  0  0  0  0  0  0  0
    8.1758    5.8633  -10.2511 C   0  0  1  0  0  0  0  0  0  0  0  0
   11.4648    2.7104  -15.2650 O   0  0  0  0  0  0  0  0  0  0  0  0
    9.9512    6.8220   -6.8436 C   0  0  0  0  0  0  0  0  0  0  0  0
    9.6899    6.3705   -8.1082 C   0  0  2  0  0  0  0  0  0  0  0  0
   11.2597    8.2901   -5.2396 C   0  0  0  0  0  0  0  0  0  0  0  0
   11.7295    4.9426  -15.4284 O   0  0  0  0  0  0  0  0  0  0  0  0
    9.0704    4.8312   -7.8318 C   0  0  0  0  0  0  0  0  0  0  0  0
   11.9326    7.5892   -4.3421 C   0  0  0  0  0  0  0  0  0  0  0  0
    9.1752    2.9268  -13.7783 C   0  0  0  0  0  0  0  0  0  0  0  0
   12.1017    9.6406   -5.4949 C   0  0  0  0  0  0  0  0  0  0  0  0
   13.0161    9.6962   -4.2514 C   0  0  0  0  0  0  0  0  0  0  0  0
   13.0777    8.2908   -3.7125 C   0  0  0  0  0  0  0  0  0  0  0  0
  1  2  1  0  0  0  0
  2  3  1  0  0  0  0
  2  7  2  0  0  0  0
  4  3  1  6  0  0  0
  4  5  1  0  0  0  0
  4  6  1  0  0  0  0
  4  8  1  0  0  0  0
  5  9  2  0  0  0  0
  6 13  1  0  0  0  0
  7 12  1  0  0  0  0
  8 19  2  0  0  0  0
 10  7  1  1  0  0  0
 10 14  1  0  0  0  0
 10 17  1  0  0  0  0
 11  8  1  6  0  0  0
 11 20  1  0  0  0  0
 11 32  1  0  0  0  0
 12 18  1  0  0  0  0
 12 30  1  1  0  0  0
 12 32  1  0  0  0  0
 13 16  2  0  0  0  0
 13 21  1  0  0  0  0
 14  5  1  1  0  0  0
 14 15  1  0  0  0  0
 14 20  1  0  0  0  0
 15 31  1  0  0  0  0
 15 40  1  0  0  0  0
 17 18  1  0  0  0  0
 17 23  1  0  0  0  0
 18 25  1  0  0  0  0
 18 26  1  0  0  0  0
 19 21  1  0  0  0  0
 19 35  1  0  0  0  0
 20 23  1  0  0  0  0
 21 22  2  0  0  0  0
 22 27  1  0  0  0  0
 23 24  1  0  0  0  0
 23 40  1  0  0  0  0
 24 26  1  0  0  0  0
 26 28  2  0  0  0  0
 27 34  2  0  0  0  0
 27 36  1  0  0  0  0
 28 29  1  0  0  0  0
 28 32  1  0  0  0  0
 29 38  2  0  0  0  0
 31 33  2  0  0  0  0
 31 37  1  0  0  0  0
 34 35  1  0  0  0  0
 35 38  1  0  0  0  0
 36 39  1  0  0  0  0
 36 41  1  0  0  0  0
 39 43  1  0  0  0  0
 41 42  1  0  0  0  0
 42 43  1  0  0  0  0
M  END
$$$$

 OpenBabel10082411353D

 43 50  0  0  0  0  0  0  0  0999 V2000
   11.6836    6.0105   -4.8831 C   0  0  0  0  0  0  0  0  0  0  0  0
   11.1291    7.0732   -5.4395 C   0  0  0  0  0  0  0  0  0  0  0  0
   10.6954    7.0156   -6.8073 C   0  0  0  0  0  0  0  0  0  0  0  0
   10.2502    8.1187   -7.5536 C   0  0  2  0  0  0  0  0  0  0  0  0
   11.1205    8.4712   -4.9629 C   0  0  0  0  0  0  0  0  0  0  0  0
   10.8655    8.3511   -8.7960 C   0  0  0  0  0  0  0  0  0  0  0  0
   10.2922    7.8843   -9.9985 C   0  0  0  0  0  0  0  0  0  0  0  0
   10.4654    9.6993   -5.6120 C   0  0  0  0  0  0  0  0  0  0  0  0
   10.3510    9.5971   -7.0014 C   0  0  0  0  0  0  0  0  0  0  0  0
   12.2462    6.3351   -3.5020 C   0  0  0  0  0  0  0  0  0  0  0  0
   11.0471    7.5309  -11.1063 C   0  0  0  0  0  0  0  0  0  0  0  0
   11.7288    8.6923   -3.6518 C   0  0  0  0  0  0  0  0  0  0  0  0
   12.3991    7.7501  -11.1145 C   0  0  0  0  0  0  0  0  0  0  0  0
   12.3738    7.7580   -2.9599 C   0  0  0  0  0  0  0  0  0  0  0  0
   13.1285    8.5075  -10.1661 O   0  0  0  0  0  0  0  0  0  0  0  0
    9.0407    7.3775  -10.0973 N   0  0  0  0  0  0  0  0  0  0  0  0
    8.9787    6.9473  -11.4664 N   0  0  0  0  0  0  0  0  0  0  0  0
   13.1012    7.4459  -12.3707 C   0  0  0  0  0  0  0  0  0  0  0  0
   12.2395    6.9724  -13.2444 C   0  0  0  0  0  0  0  0  0  0  0  0
   10.2768    7.0170  -11.9799 C   0  0  0  0  0  0  0  0  0  0  0  0
   12.9237    6.5822  -14.5759 O   0  0  0  0  0  0  0  0  0  0  0  0
   10.8906    6.6526  -13.2252 C   0  0  0  0  0  0  0  0  0  0  0  0
   12.2396    6.1290  -15.6916 C   0  0  0  0  0  0  0  0  0  0  0  0
    7.8036    6.1825  -11.9342 C   0  0  0  0  0  0  0  0  0  0  0  0
   12.5015    4.7115  -15.7686 C   0  0  0  0  0  0  0  0  0  0  0  0
    7.1685    6.9992  -12.8245 C   0  0  0  0  0  0  0  0  0  0  0  0
   11.2461    3.8540  -15.4851 C   0  0  0  0  0  0  0  0  0  0  0  0
    7.6237    4.9154  -11.6529 C   0  0  0  0  0  0  0  0  0  0  0  0
    6.6378    4.1960  -12.2267 C   0  0  0  0  0  0  0  0  0  0  0  0
    6.2717    2.7675  -11.9743 C   0  0  0  0  0  0  0  0  0  0  0  0
    6.6569    1.8873  -12.9460 C   0  0  0  0  0  0  0  0  0  0  0  0
    7.3895    8.4597  -13.1785 C   0  0  0  0  0  0  0  0  0  0  0  0
    6.3114    0.5653  -12.7247 C   0  0  0  0  0  0  0  0  0  0  0  0
   11.3885    2.5830  -15.4863 O   0  0  0  0  0  0  0  0  0  0  0  0
    7.4815    2.1853  -14.0878 C   0  0  0  0  0  0  0  0  0  0  0  0
   10.0671    4.4249  -15.4648 O   0  0  0  0  0  0  0  0  0  0  0  0
    6.9068   -0.3393  -13.8429 C   0  0  0  0  0  0  0  0  0  0  0  0
    7.9156    3.5885  -14.2394 C   0  0  0  0  0  0  0  0  0  0  0  0
    7.9792    1.3984  -14.7530 C   0  0  0  0  0  0  0  0  0  0  0  0
    7.7139    0.1005  -14.7460 C   0  0  0  0  0  0  0  0  0  0  0  0
    6.7900    4.3570  -13.5664 O   0  0  0  0  0  0  0  0  0  0  0  0
    8.8438    3.7138  -15.0060 C   0  0  0  0  0  0  0  0  0  0  0  0
    9.1488    2.0342  -15.7215 S   0  0  0  0  0  0  0  0  0  0  0  0
  1  2  1  0  0  0  0
  1 10  2  0  0  0  0
  2  3  1  0  0  0  0
  2  5  2  0  0  0  0
  3  4  1  0  0  0  0
  4  6  1  6  0  0  0
  4  9  1  0  0  0  0
  5  8  1  0  0  0  0
  5 12  1  0  0  0  0
  6  7  1  0  0  0  0
  7 11  1  0  0  0  0
  7 16  2  0  0  0  0
  8  9  1  0  0  0  0
 10 14  1  0  0  0  0
 11 13  2  0  0  0  0
 11 20  1  0  0  0  0
 12 14  2  0  0  0  0
 13 15  1  0  0  0  0
 13 18  1  0  0  0  0
 16 17  1  0  0  0  0
 17 20  1  0  0  0  0
 17 24  1  0  0  0  0
 18 19  2  0  0  0  0
 19 21  1  0  0  0  0
 19 22  1  0  0  0  0
 20 22  2  0  0  0  0
 21 23  1  0  0  0  0
 23 25  1  0  0  0  0
 24 26  2  3  0  0  0
 24 28  1  0  0  0  0
 25 27  1  0  0  0  0
 26 32  1  0  0  0  0
 27 34  2  0  0  0  0
 27 36  1  0  0  0  0
 28 29  2  0  0  0  0
 29 30  1  0  0  0  0
 29 41  1  0  0  0  0
 30 31  1  0  0  0  0
 31 33  2  0  0  0  0
 31 35  1  0  0  0  0
 33 37  1  0  0  0  0
 35 38  1  0  0  0  0
 35 39  2  0  0  0  0
 36 42  1  0  0  0  0
 37 40  2  0  0  0  0
 38 41  1  0  0  0  0
 38 42  2  0  0  0  0
 39 40  1  0  0  0  0
 39 43  1  0  0  0  0
 42 43  1  0  0  0  0
M  END
$$$$

 OpenBabel10082411353D

 27 30  0  0  0  0  0  0  0  0999 V2000
   12.8881    8.7759   -3.5681 C   0  0  0  0  0  0  0  0  0  0  0  0
   11.9416    9.4732   -4.1220 C   0  0  0  0  0  0  0  0  0  0  0  0
   12.3556    7.6012   -2.6527 C   0  0  0  0  0  0  0  0  0  0  0  0
   11.8805    9.3400   -5.6557 C   0  0  0  0  0  0  0  0  0  0  0  0
   11.7716    6.5414   -3.3821 C   0  0  0  0  0  0  0  0  0  0  0  0
   10.8523    8.6585   -6.3310 C   0  0  0  0  0  0  0  0  0  0  0  0
   11.1142    8.2520   -7.7289 C   0  0  0  0  0  0  0  0  0  0  0  0
   10.0478    7.6568   -8.4887 C   0  0  0  0  0  0  0  0  0  0  0  0
   12.3648    8.4339   -8.3703 C   0  0  0  0  0  0  0  0  0  0  0  0
   12.6142    8.1352   -9.7322 C   0  0  0  0  0  0  0  0  0  0  0  0
   10.2852    7.3833   -9.9138 C   0  0  0  0  0  0  0  0  0  0  0  0
   11.5161    7.5808  -10.4860 C   0  0  0  0  0  0  0  0  0  0  0  0
   11.6641    7.2285  -11.8174 O   0  0  0  0  0  0  0  0  0  0  0  0
   10.8624    6.4419  -12.4395 C   0  0  0  0  0  0  0  0  0  0  0  0
   11.2693    5.8267  -13.4966 C   0  0  0  0  0  0  0  0  0  0  0  0
    9.5259    6.2192  -11.9953 C   0  0  0  0  0  0  0  0  0  0  0  0
    9.2551    6.6732  -10.5921 C   0  0  2  0  0  0  0  0  0  0  0  0
    8.1388    7.5201  -10.6434 O   0  0  0  0  0  0  0  0  0  0  0  0
   12.6263    6.1828  -14.1606 C   0  0  0  0  0  0  0  0  0  0  0  0
   10.5060    4.8097  -14.1219 C   0  0  0  0  0  0  0  0  0  0  0  0
   12.6450    7.4378  -14.7214 C   0  0  0  0  0  0  0  0  0  0  0  0
    7.2170    7.2284  -11.6977 C   0  0  0  0  0  0  0  0  0  0  0  0
    9.2262    4.5982  -13.6340 C   0  0  0  0  0  0  0  0  0  0  0  0
    8.7680    5.3402  -12.4784 C   0  0  0  0  0  0  0  0  0  0  0  0
    7.3287    5.7358  -12.2428 C   0  0  0  0  0  0  0  0  0  0  0  0
   10.9642    3.7417  -14.9586 C   0  0  0  0  0  0  0  0  0  0  0  0
   10.9166    2.3885  -14.5772 C   0  0  0  0  0  0  0  0  0  0  0  0
  1  2  1  0  0  0  0
  1  3  1  0  0  0  0
  2  4  1  0  0  0  0
  3  5  1  0  0  0  0
  4  6  1  0  0  0  0
  6  7  1  0  0  0  0
  7  8  1  0  0  0  0
  7  9  2  0  0  0  0
  8 11  2  0  0  0  0
  9 10  1  0  0  0  0
 10 12  2  0  0  0  0
 11 12  1  0  0  0  0
 12 13  1  0  0  0  0
 13 14  1  0  0  0  0
 14 15  2  0  0  0  0
 14 16  1  0  0  0  0
 15 19  1  0  0  0  0
 15 20  1  0  0  0  0
 16 17  1  0  0  0  0
 16 24  2  0  0  0  0
 17 11  1  6  0  0  0
 17 18  1  0  0  0  0
 18 22  1  0  0  0  0
 19 21  1  0  0  0  0
 20 23  2  0  0  0  0
 20 26  1  0  0  0  0
 22 25  1  0  0  0  0
 23 24  1  0  0  0  0
 24 25  1  0  0  0  0
 26 27  1  0  0  0  0
M  END
$$$$

 OpenBabel10082411353D

 43 54  0  0  0  0  0  0  0  0999 V2000
    8.0806    9.0240  -12.7589 C   0  0  0  0  0  0  0  0  0  0  0  0
    8.6514    7.8645  -12.2948 C   0  0  0  0  0  0  0  0  0  0  0  0
    9.9575    7.9974  -11.8426 C   0  0  0  0  0  0  0  0  0  0  0  0
   10.7657    6.8667  -11.6050 C   0  0  1  0  0  0  0  0  0  0  0  0
   10.7682    5.9590  -12.8271 C   0  0  0  0  0  0  0  0  0  0  0  0
   12.1553    7.3846  -11.2315 C   0  0  0  0  0  0  0  0  0  0  0  0
    8.0676    6.6451  -12.2974 C   0  0  0  0  0  0  0  0  0  0  0  0
   10.1892    6.1240  -10.3860 C   0  0  0  0  0  0  0  0  0  0  0  0
   11.8375    5.4373  -13.3240 O   0  0  0  0  0  0  0  0  0  0  0  0
    8.6785    5.4761  -13.0273 C   0  0  1  0  0  0  0  0  0  0  0  0
    9.1969    5.2405  -10.4969 C   0  0  1  0  0  0  0  0  0  0  0  0
    7.2213    6.2210  -11.3074 C   0  0  1  0  0  0  0  0  0  0  0  0
   12.5590    7.6872   -9.9896 C   0  0  0  0  0  0  0  0  0  0  0  0
    9.7633    5.0333  -12.9720 C   0  0  1  0  0  0  0  0  0  0  0  0
   10.0661    4.0167  -14.0373 N   0  0  0  0  0  0  0  0  0  0  0  0
   13.6906    8.3004   -9.6233 O   0  0  0  0  0  0  0  0  0  0  0  0
    7.6357    4.5123  -12.6317 C   0  0  2  0  0  0  0  0  0  0  0  0
    6.8831    4.9171  -11.7031 C   0  0  1  0  0  0  0  0  0  0  0  0
   10.5937    6.6967   -9.1779 C   0  0  0  0  0  0  0  0  0  0  0  0
    9.5087    4.3263  -11.6925 C   0  0  2  0  0  0  0  0  0  0  0  0
   11.6359    7.4449   -8.9125 C   0  0  0  0  0  0  0  0  0  0  0  0
   11.9716    7.9159   -7.6200 C   0  0  0  0  0  0  0  0  0  0  0  0
    8.4648    3.6122  -12.2840 C   0  0  2  0  0  0  0  0  0  0  0  0
    9.3128    4.5571   -9.1689 C   0  0  0  0  0  0  0  0  0  0  0  0
   10.9557    7.6369   -6.5929 C   0  0  1  0  0  0  0  0  0  0  0  0
    9.6490    2.8108  -13.7776 C   0  0  1  0  0  0  0  0  0  0  0  0
    9.6716    6.1981   -8.0224 C   0  0  2  0  0  0  0  0  0  0  0  0
    8.5511    2.5400  -13.1402 C   0  0  0  0  0  0  0  0  0  0  0  0
    9.7877    2.0302  -15.0383 O   0  0  0  0  0  0  0  0  0  0  0  0
   10.2949    6.3957   -6.8142 C   0  0  1  0  0  0  0  0  0  0  0  0
   11.5672    7.6277   -5.2275 C   0  0  0  0  0  0  0  0  0  0  0  0
    9.0573    5.0713   -8.1077 N   0  0  0  0  0  0  0  0  0  0  0  0
    9.9816    8.7976   -6.5531 C   0  0  0  0  0  0  0  0  0  0  0  0
   11.0000    1.9397  -15.5744 C   0  0  0  0  0  0  0  0  0  0  0  0
    7.9363    5.6537  -10.4961 C   0  0  1  0  0  0  0  0  0  0  0  0
   11.7094    6.5344   -4.5880 C   0  0  0  0  0  0  0  0  0  0  0  0
   11.4771    5.4017   -5.2557 C   0  0  0  0  0  0  0  0  0  0  0  0
   10.9774    5.3782   -6.4193 C   0  0  0  0  0  0  0  0  0  0  0  0
   11.7702    8.9891   -4.6113 C   0  0  0  0  0  0  0  0  0  0  0  0
   10.6199    9.7777   -4.4950 C   0  0  0  0  0  0  0  0  0  0  0  0
   12.8455    9.7874   -5.1559 C   0  0  0  0  0  0  0  0  0  0  0  0
   12.2040    8.8162   -3.1170 C   0  0  0  0  0  0  0  0  0  0  0  0
    9.8182    9.6564   -5.7210 C   0  0  0  0  0  0  0  0  0  0  0  0
  1  2  1  0  0  0  0
  2  3  1  0  0  0  0
  2  7  2  0  0  0  0
  4  3  1  6  0  0  0
  4  5  1  0  0  0  0
  4  6  1  0  0  0  0
  4  8  1  0  0  0  0
  5  9  2  0  0  0  0
  6 13  1  0  0  0  0
  8 11  1  0  0  0  0
  8 19  2  0  0  0  0
 10  7  1  1  0  0  0
 10 14  1  0  0  0  0
 10 17  1  0  0  0  0
 11 20  1  0  0  0  0
 11 24  1  1  0  0  0
 11 35  1  0  0  0  0
 12  7  1  6  0  0  0
 12 18  1  0  0  0  0
 12 35  1  0  0  0  0
 13 16  2  0  0  0  0
 13 21  1  0  0  0  0
 14  5  1  1  0  0  0
 14 15  1  0  0  0  0
 14 20  1  0  0  0  0
 15 26  1  0  0  0  0
 17 18  1  0  0  0  0
 17 23  1  0  0  0  0
 18 35  1  0  0  0  0
 19 21  1  0  0  0  0
 19 27  1  0  0  0  0
 20 23  1  0  0  0  0
 21 22  2  0  0  0  0
 22 25  1  0  0  0  0
 23 28  1  0  0  0  0
 24 32  2  0  0  0  0
 25 30  1  0  0  0  0
 25 31  1  0  0  0  0
 25 33  1  0  0  0  0
 26 28  1  0  0  0  0
 26 29  1  0  0  0  0
 27 30  1  0  0  0  0
 27 32  1  0  0  0  0
 29 34  1  0  0  0  0
 30 38  1  0  0  0  0
 31 36  2  0  0  0  0
 31 39  1  0  0  0  0
 33 43  2  0  0  0  0
 36 37  1  0  0  0  0
 37 38  2  0  0  0  0
 39 40  1  0  0  0  0
 39 41  1  0  0  0  0
 39 42  1  0  0  0  0
 40 43  1  0  0  0  0
M  END
$$$$

 OpenBabel10082411353D

 43 54  0  0  0  0  0  0  0  0999 V2000
    8.0806    9.0240  -12.7589 C   0  0  0  0  0  0  0  0  0  0  0  0
    8.6514    7.8645  -12.2948 C   0  0  0  0  0  0  0  0  0  0  0  0
    9.9575    7.9974  -11.8426 C   0  0  0  0  0  0  0  0  0  0  0  0
   10.7657    6.8667  -11.6050 C   0  0  1  0  0  0  0  0  0  0  0  0
   10.7682    5.9590  -12.8271 C   0  0  0  0  0  0  0  0  0  0  0  0
   12.1553    7.3846  -11.2315 C   0  0  0  0  0  0  0  0  0  0  0  0
    8.0676    6.6451  -12.2974 C   0  0  0  0  0  0  0  0  0  0  0  0
   10.1892    6.1240  -10.3860 C   0  0  0  0  0  0  0  0  0  0  0  0
   11.8375    5.4373  -13.3240 O   0  0  0  0  0  0  0  0  0  0  0  0
    8.6785    5.4761  -13.0273 C   0  0  1  0  0  0  0  0  0  0  0  0
    9.1969    5.2405  -10.4969 C   0  0  1  0  0  0  0  0  0  0  0  0
    7.2213    6.2210  -11.3074 C   0  0  1  0  0  0  0  0  0  0  0  0
   12.5590    7.6872   -9.9896 C   0  0  0  0  0  0  0  0  0  0  0  0
    9.7633    5.0333  -12.9720 C   0  0  1  0  0  0  0  0  0  0  0  0
   10.0661    4.0167  -14.0373 N   0  0  0  0  0  0  0  0  0  0  0  0
   13.6906    8.3004   -9.6233 O   0  0  0  0  0  0  0  0  0  0  0  0
    7.6357    4.5123  -12.6317 C   0  0  2  0  0  0  0  0  0  0  0  0
    6.8831    4.9171  -11.7031 C   0  0  1  0  0  0  0  0  0  0  0  0
   10.5937    6.6967   -9.1779 C   0  0  0  0  0  0  0  0  0  0  0  0
    9.5087    4.3263  -11.6925 C   0  0  2  0  0  0  0  0  0  0  0  0
   11.6359    7.4449   -8.9125 C   0  0  0  0  0  0  0  0  0  0  0  0
   11.9716    7.9159   -7.6200 C   0  0  0  0  0  0  0  0  0  0  0  0
    8.4648    3.6122  -12.2840 C   0  0  2  0  0  0  0  0  0  0  0  0
    9.3128    4.5571   -9.1689 C   0  0  0  0  0  0  0  0  0  0  0  0
   10.9557    7.6369   -6.5929 C   0  0  1  0  0  0  0  0  0  0  0  0
    9.6490    2.8108  -13.7776 C   0  0  1  0  0  0  0  0  0  0  0  0
    9.6716    6.1981   -8.0224 C   0  0  2  0  0  0  0  0  0  0  0  0
    8.5511    2.5400  -13.1402 C   0  0  0  0  0  0  0  0  0  0  0  0
    9.7877    2.0302  -15.0383 O   0  0  0  0  0  0  0  0  0  0  0  0
   10.2949    6.3957   -6.8142 C   0  0  1  0  0  0  0  0  0  0  0  0
   11.5672    7.6277   -5.2275 C   0  0  0  0  0  0  0  0  0  0  0  0
    9.0573    5.0713   -8.1077 N   0  0  0  0  0  0  0  0  0  0  0  0
    9.9816    8.7976   -6.5531 C   0  0  2  0  0  0  0  0  0  0  0  0
   11.0000    1.9397  -15.5744 C   0  0  0  0  0  0  0  0  0  0  0  0
    7.9363    5.6537  -10.4961 C   0  0  1  0  0  0  0  0  0  0  0  0
   11.7094    6.5344   -4.5880 C   0  0  0  0  0  0  0  0  0  0  0  0
   11.4771    5.4017   -5.2557 C   0  0  0  0  0  0  0  0  0  0  0  0
   10.9774    5.3782   -6.4193 C   0  0  0  0  0  0  0  0  0  0  0  0
   11.7702    8.9891   -4.6113 C   0  0  0  0  0  0  0  0  0  0  0  0
   10.6199    9.7777   -4.4950 C   0  0  0  0  0  0  0  0  0  0  0  0
    9.0166    8.8358   -7.5687 O   0  0  0  0  0  0  0  0  0  0  0  0
   10.0601    9.9680   -5.9239 C   0  0  0  0  0  0  0  0  0  0  0  0
   12.8422    9.3500   -4.3144 O   0  0  0  0  0  0  0  0  0  0  0  0
  1  2  1  0  0  0  0
  2  3  1  0  0  0  0
  2  7  2  0  0  0  0
  4  3  1  6  0  0  0
  4  5  1  0  0  0  0
  4  6  1  0  0  0  0
  4  8  1  0  0  0  0
  5  9  2  0  0  0  0
  6 13  1  0  0  0  0
  8 11  1  0  0  0  0
  8 19  2  0  0  0  0
 10  7  1  1  0  0  0
 10 14  1  0  0  0  0
 10 17  1  0  0  0  0
 11 20  1  0  0  0  0
 11 24  1  1  0  0  0
 11 35  1  0  0  0  0
 12  7  1  6  0  0  0
 12 18  1  0  0  0  0
 12 35  1  0  0  0  0
 13 16  2  0  0  0  0
 13 21  1  0  0  0  0
 14  5  1  1  0  0  0
 14 15  1  0  0  0  0
 14 20  1  0  0  0  0
 15 26  1  0  0  0  0
 17 18  1  0  0  0  0
 17 23  1  0  0  0  0
 18 35  1  0  0  0  0
 19 21  1  0  0  0  0
 19 27  1  0  0  0  0
 20 23  1  0  0  0  0
 21 22  2  0  0  0  0
 22 25  1  0  0  0  0
 23 28  1  0  0  0  0
 24 32  2  0  0  0  0
 25 30  1  0  0  0  0
 25 31  1  0  0  0  0
 25 33  1  0  0  0  0
 26 28  1  0  0  0  0
 26 29  1  0  0  0  0
 27 30  1  0  0  0  0
 27 32  1  0  0  0  0
 29 34  1  0  0  0  0
 30 38  1  0  0  0  0
 31 36  2  0  0  0  0
 31 39  1  0  0  0  0
 33 41  1  0  0  0  0
 33 42  1  0  0  0  0
 36 37  1  0  0  0  0
 37 38  2  0  0  0  0
 39 40  1  0  0  0  0
 39 43  2  0  0  0  0
 40 42  1  0  0  0  0
M  END
$$$$

 OpenBabel10082411353D

 43 50  0  0  0  0  0  0  0  0999 V2000
   11.6836    6.0105   -4.8831 C   0  0  0  0  0  0  0  0  0  0  0  0
   11.1291    7.0732   -5.4395 C   0  0  0  0  0  0  0  0  0  0  0  0
   10.6954    7.0156   -6.8073 C   0  0  0  0  0  0  0  0  0  0  0  0
   10.2502    8.1187   -7.5536 C   0  0  2  0  0  0  0  0  0  0  0  0
   11.1205    8.4712   -4.9629 C   0  0  0  0  0  0  0  0  0  0  0  0
   10.8655    8.3511   -8.7960 C   0  0  0  0  0  0  0  0  0  0  0  0
   10.2922    7.8843   -9.9985 C   0  0  0  0  0  0  0  0  0  0  0  0
   10.4654    9.6993   -5.6120 C   0  0  0  0  0  0  0  0  0  0  0  0
   10.3510    9.5971   -7.0014 C   0  0  0  0  0  0  0  0  0  0  0  0
   12.2462    6.3351   -3.5020 C   0  0  0  0  0  0  0  0  0  0  0  0
   11.0471    7.5309  -11.1063 C   0  0  0  0  0  0  0  0  0  0  0  0
   11.7288    8.6923   -3.6518 C   0  0  0  0  0  0  0  0  0  0  0  0
   12.3991    7.7501  -11.1145 C   0  0  0  0  0  0  0  0  0  0  0  0
   12.3738    7.7580   -2.9599 C   0  0  0  0  0  0  0  0  0  0  0  0
   13.1285    8.5075  -10.1661 O   0  0  0  0  0  0  0  0  0  0  0  0
    9.0407    7.3775  -10.0973 N   0  0  0  0  0  0  0  0  0  0  0  0
    8.9787    6.9473  -11.4664 N   0  0  0  0  0  0  0  0  0  0  0  0
   13.1012    7.4459  -12.3707 C   0  0  0  0  0  0  0  0  0  0  0  0
   12.2395    6.9724  -13.2444 C   0  0  0  0  0  0  0  0  0  0  0  0
   10.2768    7.0170  -11.9799 C   0  0  0  0  0  0  0  0  0  0  0  0
   12.9237    6.5822  -14.5759 O   0  0  0  0  0  0  0  0  0  0  0  0
   10.8906    6.6526  -13.2252 C   0  0  0  0  0  0  0  0  0  0  0  0
   12.2396    6.1290  -15.6916 C   0  0  0  0  0  0  0  0  0  0  0  0
    7.8036    6.1825  -11.9342 C   0  0  0  0  0  0  0  0  0  0  0  0
   12.5015    4.7115  -15.7686 C   0  0  0  0  0  0  0  0  0  0  0  0
    7.1685    6.9992  -12.8245 C   0  0  0  0  0  0  0  0  0  0  0  0
   11.2461    3.8540  -15.4851 C   0  0  0  0  0  0  0  0  0  0  0  0
    7.6237    4.9154  -11.6529 C   0  0  0  0  0  0  0  0  0  0  0  0
    6.6378    4.1960  -12.2267 C   0  0  0  0  0  0  0  0  0  0  0  0
    6.2717    2.7675  -11.9743 C   0  0  0  0  0  0  0  0  0  0  0  0
    6.6569    1.8873  -12.9460 C   0  0  0  0  0  0  0  0  0  0  0  0
    7.3895    8.4597  -13.1785 C   0  0  0  0  0  0  0  0  0  0  0  0
    6.3114    0.5653  -12.7247 C   0  0  0  0  0  0  0  0  0  0  0  0
   11.3885    2.5830  -15.4863 O   0  0  0  0  0  0  0  0  0  0  0  0
    7.4815    2.1853  -14.0878 C   0  0  0  0  0  0  0  0  0  0  0  0
   10.0671    4.4249  -15.4648 O   0  0  0  0  0  0  0  0  0  0  0  0
    6.9068   -0.3393  -13.8429 C   0  0  0  0  0  0  0  0  0  0  0  0
    7.9156    3.5885  -14.2394 C   0  0  1  0  0  0  0  0  0  0  0  0
    7.9792    1.3984  -14.7530 C   0  0  0  0  0  0  0  0  0  0  0  0
    7.7139    0.1005  -14.7460 C   0  0  0  0  0  0  0  0  0  0  0  0
    8.7909    3.6606  -15.5040 C   0  0  0  0  0  0  0  0  0  0  0  0
    7.0347    4.3940  -13.5268 C   0  0  0  0  0  0  0  0  0  0  0  0
    6.9818    5.9313  -13.9476 C   0  0  0  0  0  0  0  0  0  0  0  0
  1  2  1  0  0  0  0
  1 10  2  0  0  0  0
  2  3  1  0  0  0  0
  2  5  2  0  0  0  0
  3  4  1  0  0  0  0
  4  6  1  6  0  0  0
  4  9  1  0  0  0  0
  5  8  1  0  0  0  0
  5 12  1  0  0  0  0
  6  7  1  0  0  0  0
  7 11  1  0  0  0  0
  7 16  2  0  0  0  0
  8  9  1  0  0  0  0
 10 14  1  0  0  0  0
 11 13  2  0  0  0  0
 11 20  1  0  0  0  0
 12 14  2  0  0  0  0
 13 15  1  0  0  0  0
 13 18  1  0  0  0  0
 16 17  1  0  0  0  0
 17 20  1  0  0  0  0
 17 24  1  0  0  0  0
 18 19  2  0  0  0  0
 19 21  1  0  0  0  0
 19 22  1  0  0  0  0
 20 22  2  0  0  0  0
 21 23  1  0  0  0  0
 23 25  1  0  0  0  0
 24 26  2  0  0  0  0
 24 28  1  0  0  0  0
 25 27  1  0  0  0  0
 26 32  1  0  0  0  0
 26 43  1  0  0  0  0
 27 34  2  0  0  0  0
 27 36  1  0  0  0  0
 28 29  2  0  0  0  0
 29 30  1  0  0  0  0
 29 42  1  0  0  0  0
 30 31  1  0  0  0  0
 31 33  2  0  0  0  0
 31 35  1  0  0  0  0
 33 37  1  0  0  0  0
 35 38  1  0  0  0  0
 35 39  2  0  0  0  0
 36 41  1  0  0  0  0
 37 40  2  0  0  0  0
 38 41  1  6  0  0  0
 38 42  1  0  0  0  0
 39 40  1  0  0  0  0
 42 43  2  0  0  0  0
M  END
$$$$

 OpenBabel10082411353D

 43 51  0  0  0  0  0  0  0  0999 V2000
   11.6836    6.0105   -4.8831 C   0  0  0  0  0  0  0  0  0  0  0  0
   11.1291    7.0732   -5.4395 C   0  0  0  0  0  0  0  0  0  0  0  0
   10.6954    7.0156   -6.8073 C   0  0  0  0  0  0  0  0  0  0  0  0
   10.2502    8.1187   -7.5536 C   0  0  2  0  0  0  0  0  0  0  0  0
   11.1205    8.4712   -4.9629 C   0  0  0  0  0  0  0  0  0  0  0  0
   10.8655    8.3511   -8.7960 C   0  0  0  0  0  0  0  0  0  0  0  0
   10.2922    7.8843   -9.9985 C   0  0  0  0  0  0  0  0  0  0  0  0
   10.4654    9.6993   -5.6120 C   0  0  0  0  0  0  0  0  0  0  0  0
   10.3510    9.5971   -7.0014 C   0  0  0  0  0  0  0  0  0  0  0  0
   12.2462    6.3351   -3.5020 C   0  0  0  0  0  0  0  0  0  0  0  0
   11.0471    7.5309  -11.1063 C   0  0  0  0  0  0  0  0  0  0  0  0
   11.7288    8.6923   -3.6518 C   0  0  0  0  0  0  0  0  0  0  0  0
   12.3991    7.7501  -11.1145 C   0  0  0  0  0  0  0  0  0  0  0  0
   12.3738    7.7580   -2.9599 C   0  0  0  0  0  0  0  0  0  0  0  0
   13.1285    8.5075  -10.1661 O   0  0  0  0  0  0  0  0  0  0  0  0
    9.0407    7.3775  -10.0973 N   0  0  0  0  0  0  0  0  0  0  0  0
    8.9787    6.9473  -11.4664 N   0  0  0  0  0  0  0  0  0  0  0  0
   13.1012    7.4459  -12.3707 C   0  0  0  0  0  0  0  0  0  0  0  0
   12.2395    6.9724  -13.2444 C   0  0  0  0  0  0  0  0  0  0  0  0
   10.2768    7.0170  -11.9799 C   0  0  0  0  0  0  0  0  0  0  0  0
   12.9237    6.5822  -14.5759 O   0  0  0  0  0  0  0  0  0  0  0  0
   10.8906    6.6526  -13.2252 C   0  0  0  0  0  0  0  0  0  0  0  0
   12.2396    6.1290  -15.6916 C   0  0  0  0  0  0  0  0  0  0  0  0
    7.8036    6.1825  -11.9342 C   0  0  0  0  0  0  0  0  0  0  0  0
   12.5015    4.7115  -15.7686 C   0  0  0  0  0  0  0  0  0  0  0  0
    7.1685    6.9992  -12.8245 C   0  0  0  0  0  0  0  0  0  0  0  0
   11.2461    3.8540  -15.4851 C   0  0  2  0  0  0  0  0  0  0  0  0
    7.6237    4.9154  -11.6529 C   0  0  0  0  0  0  0  0  0  0  0  0
    6.6378    4.1960  -12.2267 C   0  0  0  0  0  0  0  0  0  0  0  0
    6.2717    2.7675  -11.9743 C   0  0  0  0  0  0  0  0  0  0  0  0
    6.6569    1.8873  -12.9460 C   0  0  0  0  0  0  0  0  0  0  0  0
    7.3895    8.4597  -13.1785 C   0  0  0  0  0  0  0  0  0  0  0  0
    6.3114    0.5653  -12.7247 C   0  0  0  0  0  0  0  0  0  0  0  0
    7.7684    2.0327  -13.9055 C   0  0  0  0  0  0  0  0  0  0  0  0
    6.9387   -0.3720  -13.7691 C   0  0  0  0  0  0  0  0  0  0  0  0
    8.4223    3.3339  -14.0264 C   0  0  0  0  0  0  0  0  0  0  0  0
    8.2908    1.0246  -14.6080 C   0  0  0  0  0  0  0  0  0  0  0  0
    7.8707   -0.1948  -14.5676 C   0  0  0  0  0  0  0  0  0  0  0  0
    9.4626    1.2359  -15.4581 C   0  0  0  0  0  0  0  0  0  0  0  0
   10.0980    2.4558  -15.5689 C   0  0  0  0  0  0  0  0  0  0  0  0
    9.1890    3.6044  -14.7421 C   0  0  0  0  0  0  0  0  0  0  0  0
   10.3366    4.8532  -14.9113 N   0  0  0  0  0  0  0  0  0  0  0  0
   10.0736    5.9350  -14.5870 C   0  0  0  0  0  0  0  0  0  0  0  0
  1  2  1  0  0  0  0
  1 10  2  0  0  0  0
  2  3  1  0  0  0  0
  2  5  2  0  0  0  0
  3  4  1  0  0  0  0
  4  6  1  6  0  0  0
  4  9  1  0  0  0  0
  5  8  1  0  0  0  0
  5 12  1  0  0  0  0
  6  7  1  0  0  0  0
  7 11  1  0  0  0  0
  7 16  2  0  0  0  0
  8  9  1  0  0  0  0
 10 14  1  0  0  0  0
 11 13  2  0  0  0  0
 11 20  1  0  0  0  0
 12 14  2  0  0  0  0
 13 15  1  0  0  0  0
 13 18  1  0  0  0  0
 16 17  1  0  0  0  0
 17 20  1  0  0  0  0
 17 24  1  0  0  0  0
 18 19  2  0  0  0  0
 19 21  1  0  0  0  0
 19 22  1  0  0  0  0
 20 22  2  0  0  0  0
 21 23  1  0  0  0  0
 22 43  1  0  0  0  0
 23 25  1  0  0  0  0
 24 26  2  3  0  0  0
 24 28  1  0  0  0  0
 26 32  1  0  0  0  0
 27 25  1  6  0  0  0
 27 40  1  0  0  0  0
 27 42  1  0  0  0  0
 28 29  2  0  0  0  0
 29 30  1  0  0  0  0
 30 31  1  0  0  0  0
 31 33  2  0  0  0  0
 31 34  1  0  0  0  0
 33 35  1  0  0  0  0
 34 36  2  0  0  0  0
 34 37  1  0  0  0  0
 35 38  1  0  0  0  0
 36 41  1  0  0  0  0
 37 38  1  0  0  0  0
 37 39  2  0  0  0  0
 39 40  1  0  0  0  0
 40 41  2  0  0  0  0
 41 42  1  0  0  0  0
 42 43  1  0  0  0  0
M  END
$$$$

 OpenBabel10082411353D

 43 49  0  0  0  0  0  0  0  0999 V2000
   11.6836    6.0105   -4.8831 F   0  0  0  0  0  0  0  0  0  0  0  0
   11.2562    7.2206   -5.0294 C   0  0  0  0  0  0  0  0  0  0  0  0
   12.0125    8.2418   -4.4408 C   0  0  0  0  0  0  0  0  0  0  0  0
   11.1918    7.2706   -6.5237 C   0  0  0  0  0  0  0  0  0  0  0  0
   11.6999    8.4488   -3.1704 F   0  0  0  0  0  0  0  0  0  0  0  0
    9.8648    7.0908   -4.5314 F   0  0  0  0  0  0  0  0  0  0  0  0
   11.6831    8.5291   -6.9682 C   0  0  0  0  0  0  0  0  0  0  0  0
   10.4785    6.5189   -7.4033 C   0  0  0  0  0  0  0  0  0  0  0  0
   11.6979    8.6661   -8.4760 C   0  0  0  0  0  0  0  0  0  0  0  0
   11.6248    9.5853   -5.0030 C   0  0  0  0  0  0  0  0  0  0  0  0
   11.8604    9.7907   -6.2903 O   0  0  0  0  0  0  0  0  0  0  0  0
   13.3557    8.1748   -4.5947 F   0  0  0  0  0  0  0  0  0  0  0  0
   10.5427    6.6061   -8.7190 C   0  0  0  0  0  0  0  0  0  0  0  0
   11.1158    7.7103   -9.2540 C   0  0  0  0  0  0  0  0  0  0  0  0
   11.3757    7.6656  -10.5293 N   0  0  0  0  0  0  0  0  0  0  0  0
   10.7153    7.7096  -11.5405 C   0  0  0  0  0  0  0  0  0  0  0  0
   11.2483    7.4711  -12.8542 C   0  0  0  0  0  0  0  0  0  0  0  0
    9.3980    7.7820  -11.5398 C   0  0  0  0  0  0  0  0  0  0  0  0
    8.6055    7.5889  -12.6525 C   0  0  0  0  0  0  0  0  0  0  0  0
   12.7508    7.3705  -13.0162 O   0  0  0  0  0  0  0  0  0  0  0  0
   10.5299    7.1831  -13.9856 C   0  0  0  0  0  0  0  0  0  0  0  0
    7.0533    7.7371  -12.5396 C   0  0  0  0  0  0  0  0  0  0  0  0
   11.2041    6.8490  -15.2304 C   0  0  0  0  0  0  0  0  0  0  0  0
   11.6393    5.5333  -15.3864 C   0  0  0  0  0  0  0  0  0  0  0  0
    9.1955    7.2935  -13.8301 C   0  0  0  0  0  0  0  0  0  0  0  0
   12.5294    5.1116  -16.1609 C   0  0  0  0  0  0  0  0  0  0  0  0
   11.2315    4.4703  -14.3200 C   0  0  0  0  0  0  0  0  0  0  0  0
   13.0194    6.0876  -17.1697 C   0  0  0  0  0  0  0  0  0  0  0  0
   12.9874    3.8316  -16.1456 C   0  0  0  0  0  0  0  0  0  0  0  0
   12.3949    2.9126  -15.4671 C   0  0  0  0  0  0  0  0  0  0  0  0
   10.2274    4.8149  -13.2643 C   0  0  0  0  0  0  0  0  0  0  0  0
    8.9564    4.3798  -13.5553 C   0  0  0  0  0  0  0  0  0  0  0  0
    8.7030    2.9995  -13.6113 C   0  0  0  0  0  0  0  0  0  0  0  0
   11.4166    3.2431  -14.5460 C   0  0  0  0  0  0  0  0  0  0  0  0
    7.3695    2.5639  -13.4881 C   0  0  0  0  0  0  0  0  0  0  0  0
   10.5729    2.1979  -13.9272 C   0  0  0  0  0  0  0  0  0  0  0  0
    9.5358    2.1981  -13.9798 C   0  0  0  0  0  0  0  0  0  0  0  0
    6.4075    3.3743  -12.8151 C   0  0  0  0  0  0  0  0  0  0  0  0
    5.3763    2.6754  -12.1448 C   0  0  0  0  0  0  0  0  0  0  0  0
    5.6143    1.2131  -12.4458 C   0  0  0  0  0  0  0  0  0  0  0  0
    7.3993    1.2501  -13.5252 C   0  0  0  0  0  0  0  0  0  0  0  0
    6.3542    0.5679  -13.0138 C   0  0  0  0  0  0  0  0  0  0  0  0
    8.4559    0.7090  -14.2844 S   0  0  0  0  0  0  0  0  0  0  0  0
  1  2  1  0  0  0  0
  2  3  1  0  0  0  0
  2  4  1  0  0  0  0
  2  6  1  0  0  0  0
  3  5  1  0  0  0  0
  3 10  1  0  0  0  0
  3 12  1  0  0  0  0
  4  7  1  0  0  0  0
  4  8  2  0  0  0  0
  7  9  2  0  0  0  0
  7 11  1  0  0  0  0
  8 13  1  0  0  0  0
  9 14  1  0  0  0  0
 10 11  1  0  0  0  0
 13 14  2  0  0  0  0
 14 15  1  0  0  0  0
 15 16  1  0  0  0  0
 16 17  1  0  0  0  0
 16 18  2  0  0  0  0
 17 20  1  0  0  0  0
 17 21  2  0  0  0  0
 18 19  1  0  0  0  0
 19 22  1  0  0  0  0
 19 25  2  0  0  0  0
 21 23  1  0  0  0  0
 21 25  1  0  0  0  0
 23 24  1  0  0  0  0
 24 26  2  0  0  0  0
 24 27  1  0  0  0  0
 26 28  1  0  0  0  0
 26 29  1  0  0  0  0
 27 31  1  0  0  0  0
 27 34  2  0  0  0  0
 29 30  2  0  0  0  0
 30 34  1  0  0  0  0
 31 32  2  0  0  0  0
 32 33  1  0  0  0  0
 33 35  1  0  0  0  0
 33 37  2  0  0  0  0
 34 36  1  0  0  0  0
 35 38  1  0  0  0  0
 35 41  2  0  0  0  0
 36 37  1  0  0  0  0
 37 43  1  0  0  0  0
 38 39  2  0  0  0  0
 39 40  1  0  0  0  0
 40 42  2  0  0  0  0
 41 42  1  0  0  0  0
 41 43  1  0  0  0  0
M  END
$$$$

 OpenBabel10082411353D

 43 50  0  0  0  0  0  0  0  0999 V2000
   11.6836    6.0105   -4.8831 C   0  0  0  0  0  0  0  0  0  0  0  0
   11.1291    7.0732   -5.4395 C   0  0  0  0  0  0  0  0  0  0  0  0
   10.6954    7.0156   -6.8073 C   0  0  0  0  0  0  0  0  0  0  0  0
   10.2502    8.1187   -7.5536 C   0  0  2  0  0  0  0  0  0  0  0  0
   11.1205    8.4712   -4.9629 C   0  0  0  0  0  0  0  0  0  0  0  0
   10.8655    8.3511   -8.7960 C   0  0  0  0  0  0  0  0  0  0  0  0
   10.2922    7.8843   -9.9985 C   0  0  0  0  0  0  0  0  0  0  0  0
   10.4654    9.6993   -5.6120 C   0  0  0  0  0  0  0  0  0  0  0  0
   10.3510    9.5971   -7.0014 C   0  0  0  0  0  0  0  0  0  0  0  0
   12.2462    6.3351   -3.5020 C   0  0  0  0  0  0  0  0  0  0  0  0
   11.0471    7.5309  -11.1063 C   0  0  0  0  0  0  0  0  0  0  0  0
   11.7288    8.6923   -3.6518 C   0  0  0  0  0  0  0  0  0  0  0  0
   12.3991    7.7501  -11.1145 C   0  0  0  0  0  0  0  0  0  0  0  0
   12.3738    7.7580   -2.9599 C   0  0  0  0  0  0  0  0  0  0  0  0
   13.1285    8.5075  -10.1661 O   0  0  0  0  0  0  0  0  0  0  0  0
    9.0407    7.3775  -10.0973 N   0  0  0  0  0  0  0  0  0  0  0  0
    8.9787    6.9473  -11.4664 N   0  0  0  0  0  0  0  0  0  0  0  0
   13.1012    7.4459  -12.3707 C   0  0  0  0  0  0  0  0  0  0  0  0
   12.2395    6.9724  -13.2444 C   0  0  0  0  0  0  0  0  0  0  0  0
   10.2768    7.0170  -11.9799 C   0  0  0  0  0  0  0  0  0  0  0  0
   12.9237    6.5822  -14.5759 O   0  0  0  0  0  0  0  0  0  0  0  0
   10.8906    6.6526  -13.2252 C   0  0  0  0  0  0  0  0  0  0  0  0
   12.2396    6.1290  -15.6916 C   0  0  0  0  0  0  0  0  0  0  0  0
    7.8036    6.1825  -11.9342 C   0  0  0  0  0  0  0  0  0  0  0  0
   12.5015    4.7115  -15.7686 C   0  0  0  0  0  0  0  0  0  0  0  0
    7.1685    6.9992  -12.8245 C   0  0  0  0  0  0  0  0  0  0  0  0
   11.2461    3.8540  -15.4851 C   0  0  1  0  0  0  0  0  0  0  0  0
    7.6237    4.9154  -11.6529 C   0  0  0  0  0  0  0  0  0  0  0  0
    6.6378    4.1960  -12.2267 C   0  0  0  0  0  0  0  0  0  0  0  0
    6.2717    2.7675  -11.9743 C   0  0  0  0  0  0  0  0  0  0  0  0
    6.6569    1.8873  -12.9460 C   0  0  0  0  0  0  0  0  0  0  0  0
    7.3895    8.4597  -13.1785 C   0  0  0  0  0  0  0  0  0  0  0  0
    6.3114    0.5653  -12.7247 C   0  0  0  0  0  0  0  0  0  0  0  0
    7.7684    2.0327  -13.9055 C   0  0  0  0  0  0  0  0  0  0  0  0
    6.9387   -0.3720  -13.7691 C   0  0  0  0  0  0  0  0  0  0  0  0
    8.4223    3.3339  -14.0264 C   0  0  0  0  0  0  0  0  0  0  0  0
    8.2908    1.0246  -14.6080 C   0  0  0  0  0  0  0  0  0  0  0  0
    7.8707   -0.1948  -14.5676 C   0  0  0  0  0  0  0  0  0  0  0  0
    9.4626    1.2359  -15.4581 C   0  0  0  0  0  0  0  0  0  0  0  0
    9.5078    3.5700  -14.8275 C   0  0  0  0  0  0  0  0  0  0  0  0
   10.0311    0.2230  -16.1860 C   0  0  0  0  0  0  0  0  0  0  0  0
   10.1931    4.7659  -14.9097 O   0  0  0  0  0  0  0  0  0  0  0  0
   10.0770    2.5588  -15.4998 C   0  0  0  0  0  0  0  0  0  0  0  0
  1  2  1  0  0  0  0
  1 10  2  0  0  0  0
  2  3  1  0  0  0  0
  2  5  2  0  0  0  0
  3  4  1  0  0  0  0
  4  6  1  6  0  0  0
  4  9  1  0  0  0  0
  5  8  1  0  0  0  0
  5 12  1  0  0  0  0
  6  7  1  0  0  0  0
  7 11  1  0  0  0  0
  7 16  2  0  0  0  0
  8  9  1  0  0  0  0
 10 14  1  0  0  0  0
 11 13  2  0  0  0  0
 11 20  1  0  0  0  0
 12 14  2  0  0  0  0
 13 15  1  0  0  0  0
 13 18  1  0  0  0  0
 16 17  1  0  0  0  0
 17 20  1  0  0  0  0
 17 24  1  0  0  0  0
 18 19  2  0  0  0  0
 19 21  1  0  0  0  0
 19 22  1  0  0  0  0
 20 22  2  0  0  0  0
 21 23  1  0  0  0  0
 23 25  1  0  0  0  0
 24 26  2  3  0  0  0
 24 28  1  0  0  0  0
 26 32  1  0  0  0  0
 27 25  1  6  0  0  0
 27 42  1  0  0  0  0
 27 43  1  0  0  0  0
 28 29  2  0  0  0  0
 29 30  1  0  0  0  0
 30 31  1  0  0  0  0
 31 33  2  0  0  0  0
 31 34  1  0  0  0  0
 33 35  1  0  0  0  0
 34 36  2  0  0  0  0
 34 37  1  0  0  0  0
 35 38  1  0  0  0  0
 36 40  1  0  0  0  0
 37 38  1  0  0  0  0
 37 39  2  0  0  0  0
 39 41  1  0  0  0  0
 39 43  1  0  0  0  0
 40 42  1  0  0  0  0
 40 43  2  0  0  0  0
M  END
$$$$

 OpenBabel10082411353D

 43 54  0  0  0  0  0  0  0  0999 V2000
    8.0806    9.0240  -12.7589 C   0  0  0  0  0  0  0  0  0  0  0  0
    8.6514    7.8645  -12.2948 C   0  0  0  0  0  0  0  0  0  0  0  0
    9.9575    7.9974  -11.8426 C   0  0  0  0  0  0  0  0  0  0  0  0
   10.7657    6.8667  -11.6050 C   0  0  1  0  0  0  0  0  0  0  0  0
   10.7682    5.9590  -12.8271 C   0  0  0  0  0  0  0  0  0  0  0  0
   12.1553    7.3846  -11.2315 C   0  0  0  0  0  0  0  0  0  0  0  0
    8.0676    6.6451  -12.2974 C   0  0  0  0  0  0  0  0  0  0  0  0
   10.1892    6.1240  -10.3860 C   0  0  0  0  0  0  0  0  0  0  0  0
   11.8375    5.4373  -13.3240 O   0  0  0  0  0  0  0  0  0  0  0  0
    8.6785    5.4761  -13.0273 C   0  0  1  0  0  0  0  0  0  0  0  0
    9.1969    5.2405  -10.4969 C   0  0  1  0  0  0  0  0  0  0  0  0
    7.2213    6.2210  -11.3074 C   0  0  1  0  0  0  0  0  0  0  0  0
   12.5590    7.6872   -9.9896 C   0  0  0  0  0  0  0  0  0  0  0  0
    9.7633    5.0333  -12.9720 C   0  0  1  0  0  0  0  0  0  0  0  0
   10.0661    4.0167  -14.0373 N   0  0  0  0  0  0  0  0  0  0  0  0
   13.6906    8.3004   -9.6233 O   0  0  0  0  0  0  0  0  0  0  0  0
    7.6357    4.5123  -12.6317 C   0  0  2  0  0  0  0  0  0  0  0  0
    6.8831    4.9171  -11.7031 C   0  0  1  0  0  0  0  0  0  0  0  0
   10.5937    6.6967   -9.1779 C   0  0  0  0  0  0  0  0  0  0  0  0
    9.5087    4.3263  -11.6925 C   0  0  2  0  0  0  0  0  0  0  0  0
   11.6359    7.4449   -8.9125 C   0  0  0  0  0  0  0  0  0  0  0  0
   11.9716    7.9159   -7.6200 C   0  0  0  0  0  0  0  0  0  0  0  0
    8.4648    3.6122  -12.2840 C   0  0  2  0  0  0  0  0  0  0  0  0
    9.3128    4.5571   -9.1689 C   0  0  0  0  0  0  0  0  0  0  0  0
   10.9557    7.6369   -6.5929 C   0  0  1  0  0  0  0  0  0  0  0  0
    9.6490    2.8108  -13.7776 C   0  0  1  0  0  0  0  0  0  0  0  0
    9.6716    6.1981   -8.0224 C   0  0  2  0  0  0  0  0  0  0  0  0
    8.5511    2.5400  -13.1402 C   0  0  0  0  0  0  0  0  0  0  0  0
    9.7877    2.0302  -15.0383 O   0  0  0  0  0  0  0  0  0  0  0  0
   10.2949    6.3957   -6.8142 C   0  0  1  0  0  0  0  0  0  0  0  0
   11.5672    7.6277   -5.2275 C   0  0  0  0  0  0  0  0  0  0  0  0
    9.0573    5.0713   -8.1077 N   0  0  0  0  0  0  0  0  0  0  0  0
    9.9816    8.7976   -6.5531 C   0  0  2  0  0  0  0  0  0  0  0  0
   11.0000    1.9397  -15.5744 C   0  0  0  0  0  0  0  0  0  0  0  0
    7.9363    5.6537  -10.4961 C   0  0  1  0  0  0  0  0  0  0  0  0
   11.7094    6.5344   -4.5880 C   0  0  0  0  0  0  0  0  0  0  0  0
   11.4771    5.4017   -5.2557 C   0  0  0  0  0  0  0  0  0  0  0  0
   10.9774    5.3782   -6.4193 C   0  0  0  0  0  0  0  0  0  0  0  0
   11.7702    8.9891   -4.6113 C   0  0  0  0  0  0  0  0  0  0  0  0
   10.6199    9.7777   -4.4950 C   0  0  0  0  0  0  0  0  0  0  0  0
   12.9225    9.3184   -4.1641 C   0  0  0  0  0  0  0  0  0  0  0  0
    8.9888    8.8668   -7.5210 O   0  0  0  0  0  0  0  0  0  0  0  0
    9.9210    9.9170   -5.7952 C   0  0  0  0  0  0  0  0  0  0  0  0
  1  2  1  0  0  0  0
  2  3  1  0  0  0  0
  2  7  2  0  0  0  0
  4  3  1  6  0  0  0
  4  5  1  0  0  0  0
  4  6  1  0  0  0  0
  4  8  1  0  0  0  0
  5  9  2  0  0  0  0
  6 13  1  0  0  0  0
  8 11  1  0  0  0  0
  8 19  2  0  0  0  0
 10  7  1  1  0  0  0
 10 14  1  0  0  0  0
 10 17  1  0  0  0  0
 11 20  1  0  0  0  0
 11 24  1  1  0  0  0
 11 35  1  0  0  0  0
 12  7  1  6  0  0  0
 12 18  1  0  0  0  0
 12 35  1  0  0  0  0
 13 16  2  0  0  0  0
 13 21  1  0  0  0  0
 14  5  1  1  0  0  0
 14 15  1  0  0  0  0
 14 20  1  0  0  0  0
 15 26  1  0  0  0  0
 17 18  1  0  0  0  0
 17 23  1  0  0  0  0
 18 35  1  0  0  0  0
 19 21  1  0  0  0  0
 19 27  1  0  0  0  0
 20 23  1  0  0  0  0
 21 22  2  0  0  0  0
 22 25  1  0  0  0  0
 23 28  1  0  0  0  0
 24 32  2  0  0  0  0
 25 30  1  0  0  0  0
 25 31  1  0  0  0  0
 25 33  1  0  0  0  0
 26 28  1  0  0  0  0
 26 29  1  0  0  0  0
 27 30  1  0  0  0  0
 27 32  1  0  0  0  0
 29 34  1  0  0  0  0
 30 38  1  0  0  0  0
 31 36  2  0  0  0  0
 31 39  1  0  0  0  0
 33 42  1  0  0  0  0
 33 43  1  0  0  0  0
 36 37  1  0  0  0  0
 37 38  2  0  0  0  0
 39 40  1  0  0  0  0
 39 41  2  0  0  0  0
 40 43  1  0  0  0  0
M  END
$$$$

 OpenBabel10082411353D

 43 53  0  0  0  0  0  0  0  0999 V2000
    8.0806    9.0240  -12.7589 C   0  0  0  0  0  0  0  0  0  0  0  0
    8.6514    7.8645  -12.2948 C   0  0  0  0  0  0  0  0  0  0  0  0
    9.9575    7.9974  -11.8426 C   0  0  0  0  0  0  0  0  0  0  0  0
   10.7657    6.8667  -11.6050 C   0  0  1  0  0  0  0  0  0  0  0  0
   10.7682    5.9590  -12.8271 C   0  0  0  0  0  0  0  0  0  0  0  0
   12.1553    7.3846  -11.2315 C   0  0  0  0  0  0  0  0  0  0  0  0
    8.0676    6.6451  -12.2974 C   0  0  0  0  0  0  0  0  0  0  0  0
   10.1892    6.1240  -10.3860 C   0  0  0  0  0  0  0  0  0  0  0  0
   11.8375    5.4373  -13.3240 O   0  0  0  0  0  0  0  0  0  0  0  0
    8.6785    5.4761  -13.0273 C   0  0  1  0  0  0  0  0  0  0  0  0
    9.1969    5.2405  -10.4969 C   0  0  2  0  0  0  0  0  0  0  0  0
    7.2213    6.2210  -11.3074 C   0  0  2  0  0  0  0  0  0  0  0  0
   12.5590    7.6872   -9.9896 C   0  0  0  0  0  0  0  0  0  0  0  0
    9.7633    5.0333  -12.9720 C   0  0  1  0  0  0  0  0  0  0  0  0
   10.0661    4.0167  -14.0373 N   0  0  0  0  0  0  0  0  0  0  0  0
   13.6906    8.3004   -9.6233 O   0  0  0  0  0  0  0  0  0  0  0  0
    7.6357    4.5123  -12.6317 C   0  0  2  0  0  0  0  0  0  0  0  0
    6.8831    4.9171  -11.7031 C   0  0  2  0  0  0  0  0  0  0  0  0
   10.5937    6.6967   -9.1779 C   0  0  0  0  0  0  0  0  0  0  0  0
    9.5087    4.3263  -11.6925 C   0  0  2  0  0  0  0  0  0  0  0  0
   11.6359    7.4449   -8.9125 C   0  0  0  0  0  0  0  0  0  0  0  0
   11.9716    7.9159   -7.6200 C   0  0  0  0  0  0  0  0  0  0  0  0
    8.4648    3.6122  -12.2840 C   0  0  1  0  0  0  0  0  0  0  0  0
    7.9253    2.8004  -11.3926 C   0  0  0  0  0  0  0  0  0  0  0  0
    5.6047    4.5059  -11.7589 C   0  0  0  0  0  0  0  0  0  0  0  0
    7.6606    4.1297  -10.5699 C   0  0  0  0  0  0  0  0  0  0  0  0
   10.9559    7.6849   -6.6057 C   0  0  0  0  0  0  0  0  0  0  0  0
    8.0094    4.5092   -9.5664 C   0  0  0  0  0  0  0  0  0  0  0  0
    8.3033    4.0627   -8.4980 C   0  0  0  0  0  0  0  0  0  0  0  0
    6.3587    7.1012  -11.0392 O   0  0  0  0  0  0  0  0  0  0  0  0
   11.0186    3.9598  -14.9226 C   0  0  1  0  0  0  0  0  0  0  0  0
    8.1758    5.8633  -10.2511 C   0  0  1  0  0  0  0  0  0  0  0  0
    9.4315    2.8557  -13.5931 C   0  0  0  0  0  0  0  0  0  0  0  0
   11.5906    2.6986  -15.1672 C   0  0  0  0  0  0  0  0  0  0  0  0
    9.9783    6.7760   -6.8364 C   0  0  0  0  0  0  0  0  0  0  0  0
    9.7446    6.4267   -8.0721 C   0  0  2  0  0  0  0  0  0  0  0  0
   10.2617    4.4120  -16.0135 O   0  0  0  0  0  0  0  0  0  0  0  0
   11.3635    8.3622   -5.0463 S   0  0  0  0  0  0  0  0  0  0  0  0
    8.5854    5.3620   -7.9736 C   0  0  0  0  0  0  0  0  0  0  0  0
   10.2750    8.8364   -4.4773 O   0  0  0  0  0  0  0  0  0  0  0  0
   11.9172    7.2255   -4.1813 C   0  0  0  0  0  0  0  0  0  0  0  0
   12.1052    7.3365   -2.9032 C   0  0  0  0  0  0  0  0  0  0  0  0
   12.4499    9.5000   -5.0212 O   0  0  0  0  0  0  0  0  0  0  0  0
  1  2  1  0  0  0  0
  2  3  1  0  0  0  0
  2  7  2  0  0  0  0
  4  3  1  6  0  0  0
  4  5  1  0  0  0  0
  4  6  1  0  0  0  0
  4  8  1  0  0  0  0
  5  9  2  0  0  0  0
  6 13  1  0  0  0  0
  7 12  1  0  0  0  0
  8 19  2  0  0  0  0
 10  7  1  1  0  0  0
 10 14  1  0  0  0  0
 10 17  1  0  0  0  0
 11  8  1  6  0  0  0
 11 20  1  0  0  0  0
 11 32  1  0  0  0  0
 12 18  1  0  0  0  0
 12 30  1  1  0  0  0
 12 32  1  0  0  0  0
 13 16  2  0  0  0  0
 13 21  1  0  0  0  0
 14  5  1  1  0  0  0
 14 15  1  0  0  0  0
 14 20  1  0  0  0  0
 15 31  1  0  0  0  0
 15 33  1  0  0  0  0
 17 18  1  0  0  0  0
 17 23  1  0  0  0  0
 18 25  1  0  0  0  0
 18 26  1  0  0  0  0
 19 21  1  0  0  0  0
 19 36  1  0  0  0  0
 20 23  1  0  0  0  0
 21 22  2  0  0  0  0
 22 27  1  0  0  0  0
 23 24  1  0  0  0  0
 23 33  1  0  0  0  0
 24 26  1  0  0  0  0
 26 28  2  0  0  0  0
 27 35  2  0  0  0  0
 27 38  1  0  0  0  0
 28 29  1  0  0  0  0
 28 32  1  0  0  0  0
 29 39  1  0  0  0  0
 31 34  1  0  0  0  0
 31 37  1  0  0  0  0
 35 36  1  0  0  0  0
 36 39  1  0  0  0  0
 38 40  2  0  0  0  0
 38 41  1  0  0  0  0
 38 43  2  0  0  0  0
 41 42  1  0  0  0  0
M  END
$$$$

 OpenBabel10082411353D

 43 50  0  0  0  0  0  0  0  0999 V2000
   11.6836    6.0105   -4.8831 C   0  0  0  0  0  0  0  0  0  0  0  0
   11.1291    7.0732   -5.4395 C   0  0  0  0  0  0  0  0  0  0  0  0
   10.6954    7.0156   -6.8073 C   0  0  0  0  0  0  0  0  0  0  0  0
   10.2502    8.1187   -7.5536 C   0  0  2  0  0  0  0  0  0  0  0  0
   11.1205    8.4712   -4.9629 C   0  0  0  0  0  0  0  0  0  0  0  0
   10.8655    8.3511   -8.7960 C   0  0  0  0  0  0  0  0  0  0  0  0
   10.2922    7.8843   -9.9985 C   0  0  0  0  0  0  0  0  0  0  0  0
   10.4654    9.6993   -5.6120 C   0  0  0  0  0  0  0  0  0  0  0  0
   10.3510    9.5971   -7.0014 C   0  0  0  0  0  0  0  0  0  0  0  0
   12.2462    6.3351   -3.5020 C   0  0  0  0  0  0  0  0  0  0  0  0
   11.0471    7.5309  -11.1063 C   0  0  0  0  0  0  0  0  0  0  0  0
   11.7288    8.6923   -3.6518 C   0  0  0  0  0  0  0  0  0  0  0  0
   12.3991    7.7501  -11.1145 C   0  0  0  0  0  0  0  0  0  0  0  0
   12.3738    7.7580   -2.9599 C   0  0  0  0  0  0  0  0  0  0  0  0
   13.1285    8.5075  -10.1661 O   0  0  0  0  0  0  0  0  0  0  0  0
    9.0407    7.3775  -10.0973 N   0  0  0  0  0  0  0  0  0  0  0  0
    8.9787    6.9473  -11.4664 N   0  0  0  0  0  0  0  0  0  0  0  0
   13.1012    7.4459  -12.3707 C   0  0  0  0  0  0  0  0  0  0  0  0
   12.2395    6.9724  -13.2444 C   0  0  0  0  0  0  0  0  0  0  0  0
   10.2768    7.0170  -11.9799 C   0  0  0  0  0  0  0  0  0  0  0  0
   12.9237    6.5822  -14.5759 O   0  0  0  0  0  0  0  0  0  0  0  0
   10.8906    6.6526  -13.2252 C   0  0  0  0  0  0  0  0  0  0  0  0
   12.2396    6.1290  -15.6916 C   0  0  0  0  0  0  0  0  0  0  0  0
    7.8036    6.1825  -11.9342 C   0  0  0  0  0  0  0  0  0  0  0  0
   12.5015    4.7115  -15.7686 C   0  0  0  0  0  0  0  0  0  0  0  0
    7.1685    6.9992  -12.8245 C   0  0  0  0  0  0  0  0  0  0  0  0
   11.2461    3.8540  -15.4851 C   0  0  2  0  0  0  0  0  0  0  0  0
    7.6237    4.9154  -11.6529 C   0  0  0  0  0  0  0  0  0  0  0  0
    6.6378    4.1960  -12.2267 C   0  0  0  0  0  0  0  0  0  0  0  0
    6.2717    2.7675  -11.9743 C   0  0  0  0  0  0  0  0  0  0  0  0
    6.6569    1.8873  -12.9460 C   0  0  0  0  0  0  0  0  0  0  0  0
    7.3895    8.4597  -13.1785 C   0  0  0  0  0  0  0  0  0  0  0  0
    6.3114    0.5653  -12.7247 C   0  0  0  0  0  0  0  0  0  0  0  0
    7.7684    2.0327  -13.9055 C   0  0  0  0  0  0  0  0  0  0  0  0
    6.9387   -0.3720  -13.7691 C   0  0  0  0  0  0  0  0  0  0  0  0
    8.4223    3.3339  -14.0264 C   0  0  0  0  0  0  0  0  0  0  0  0
    8.2908    1.0246  -14.6080 C   0  0  0  0  0  0  0  0  0  0  0  0
    7.8707   -0.1948  -14.5676 C   0  0  0  0  0  0  0  0  0  0  0  0
    9.4626    1.2359  -15.4581 C   0  0  0  0  0  0  0  0  0  0  0  0
    9.5078    3.5700  -14.8275 C   0  0  0  0  0  0  0  0  0  0  0  0
   10.0752    2.5141  -15.4537 C   0  0  0  0  0  0  0  0  0  0  0  0
   11.2282    2.4961  -15.9653 O   0  0  0  0  0  0  0  0  0  0  0  0
   10.3081    4.5326  -14.9444 O   0  0  0  0  0  0  0  0  0  0  0  0
  1  2  1  0  0  0  0
  1 10  2  0  0  0  0
  2  3  1  0  0  0  0
  2  5  2  0  0  0  0
  3  4  1  0  0  0  0
  4  6  1  6  0  0  0
  4  9  1  0  0  0  0
  5  8  1  0  0  0  0
  5 12  1  0  0  0  0
  6  7  1  0  0  0  0
  7 11  1  0  0  0  0
  7 16  2  0  0  0  0
  8  9  1  0  0  0  0
 10 14  1  0  0  0  0
 11 13  2  0  0  0  0
 11 20  1  0  0  0  0
 12 14  2  0  0  0  0
 13 15  1  0  0  0  0
 13 18  1  0  0  0  0
 16 17  1  0  0  0  0
 17 20  1  0  0  0  0
 17 24  1  0  0  0  0
 18 19  2  0  0  0  0
 19 21  1  0  0  0  0
 19 22  1  0  0  0  0
 20 22  2  0  0  0  0
 21 23  1  0  0  0  0
 23 25  1  0  0  0  0
 24 26  2  3  0  0  0
 24 28  1  0  0  0  0
 26 32  1  0  0  0  0
 27 25  1  6  0  0  0
 27 42  1  0  0  0  0
 27 43  1  0  0  0  0
 28 29  2  0  0  0  0
 29 30  1  0  0  0  0
 30 31  1  0  0  0  0
 31 33  2  0  0  0  0
 31 34  1  0  0  0  0
 33 35  1  0  0  0  0
 34 36  2  0  0  0  0
 34 37  1  0  0  0  0
 35 38  1  0  0  0  0
 36 40  1  0  0  0  0
 37 38  1  0  0  0  0
 37 39  2  0  0  0  0
 39 41  1  0  0  0  0
 40 41  2  0  0  0  0
 40 43  1  0  0  0  0
 41 42  1  0  0  0  0
M  END
$$$$

 OpenBabel10082411353D

 43 53  0  0  0  0  0  0  0  0999 V2000
    8.0806    9.0240  -12.7589 C   0  0  0  0  0  0  0  0  0  0  0  0
    8.6514    7.8645  -12.2948 C   0  0  0  0  0  0  0  0  0  0  0  0
    9.9575    7.9974  -11.8426 C   0  0  0  0  0  0  0  0  0  0  0  0
   10.7657    6.8667  -11.6050 C   0  0  1  0  0  0  0  0  0  0  0  0
   10.7682    5.9590  -12.8271 C   0  0  0  0  0  0  0  0  0  0  0  0
   12.1553    7.3846  -11.2315 C   0  0  0  0  0  0  0  0  0  0  0  0
    8.0676    6.6451  -12.2974 C   0  0  0  0  0  0  0  0  0  0  0  0
   10.1892    6.1240  -10.3860 C   0  0  0  0  0  0  0  0  0  0  0  0
   11.8375    5.4373  -13.3240 O   0  0  0  0  0  0  0  0  0  0  0  0
    8.6785    5.4761  -13.0273 C   0  0  1  0  0  0  0  0  0  0  0  0
    9.1969    5.2405  -10.4969 C   0  0  2  0  0  0  0  0  0  0  0  0
    7.2213    6.2210  -11.3074 C   0  0  2  0  0  0  0  0  0  0  0  0
   12.5590    7.6872   -9.9896 C   0  0  0  0  0  0  0  0  0  0  0  0
    9.7633    5.0333  -12.9720 C   0  0  1  0  0  0  0  0  0  0  0  0
   10.0661    4.0167  -14.0373 N   0  0  0  0  0  0  0  0  0  0  0  0
   13.6906    8.3004   -9.6233 O   0  0  0  0  0  0  0  0  0  0  0  0
    7.6357    4.5123  -12.6317 C   0  0  2  0  0  0  0  0  0  0  0  0
    6.8831    4.9171  -11.7031 C   0  0  2  0  0  0  0  0  0  0  0  0
   10.5937    6.6967   -9.1779 C   0  0  0  0  0  0  0  0  0  0  0  0
    9.5087    4.3263  -11.6925 C   0  0  2  0  0  0  0  0  0  0  0  0
   11.6359    7.4449   -8.9125 C   0  0  0  0  0  0  0  0  0  0  0  0
   11.9716    7.9159   -7.6200 C   0  0  0  0  0  0  0  0  0  0  0  0
    8.4648    3.6122  -12.2840 C   0  0  1  0  0  0  0  0  0  0  0  0
    7.9253    2.8004  -11.3926 C   0  0  0  0  0  0  0  0  0  0  0  0
    5.6047    4.5059  -11.7589 C   0  0  0  0  0  0  0  0  0  0  0  0
    7.6606    4.1297  -10.5699 C   0  0  0  0  0  0  0  0  0  0  0  0
   10.9559    7.6849   -6.6057 C   0  0  0  0  0  0  0  0  0  0  0  0
    8.0094    4.5092   -9.5664 C   0  0  0  0  0  0  0  0  0  0  0  0
    8.3033    4.0627   -8.4980 C   0  0  0  0  0  0  0  0  0  0  0  0
    6.3587    7.1012  -11.0392 O   0  0  0  0  0  0  0  0  0  0  0  0
   11.0186    3.9598  -14.9226 C   0  0  0  0  0  0  0  0  0  0  0  0
    8.1758    5.8633  -10.2511 C   0  0  1  0  0  0  0  0  0  0  0  0
   11.4648    2.7104  -15.2650 O   0  0  0  0  0  0  0  0  0  0  0  0
    9.9512    6.8220   -6.8436 C   0  0  0  0  0  0  0  0  0  0  0  0
    9.6899    6.3705   -8.1082 C   0  0  2  0  0  0  0  0  0  0  0  0
   11.2597    8.2901   -5.2396 C   0  0  0  0  0  0  0  0  0  0  0  0
    9.1264    2.9648  -13.9669 C   0  0  0  0  0  0  0  0  0  0  0  0
    9.2902    4.9507   -7.7799 C   0  0  0  0  0  0  0  0  0  0  0  0
   11.6750    9.7536   -5.2211 C   0  0  0  0  0  0  0  0  0  0  0  0
   12.6364    9.9910   -4.2013 C   0  0  0  0  0  0  0  0  0  0  0  0
    8.6767    2.4780  -15.2342 C   0  0  0  0  0  0  0  0  0  0  0  0
   11.7644    4.8944  -15.3250 O   0  0  0  0  0  0  0  0  0  0  0  0
    8.4186    2.5435  -13.0212 C   0  0  0  0  0  0  0  0  0  0  0  0
  1  2  1  0  0  0  0
  2  3  1  0  0  0  0
  2  7  2  0  0  0  0
  4  3  1  6  0  0  0
  4  5  1  0  0  0  0
  4  6  1  0  0  0  0
  4  8  1  0  0  0  0
  5  9  2  0  0  0  0
  6 13  1  0  0  0  0
  7 12  1  0  0  0  0
  8 19  2  0  0  0  0
 10  7  1  1  0  0  0
 10 14  1  0  0  0  0
 10 17  1  0  0  0  0
 11  8  1  6  0  0  0
 11 20  1  0  0  0  0
 11 32  1  0  0  0  0
 12 18  1  0  0  0  0
 12 30  1  1  0  0  0
 12 32  1  0  0  0  0
 13 16  2  0  0  0  0
 13 21  1  0  0  0  0
 14  5  1  1  0  0  0
 14 15  1  0  0  0  0
 14 20  1  0  0  0  0
 15 31  1  0  0  0  0
 15 37  1  0  0  0  0
 17 18  1  0  0  0  0
 17 23  1  0  0  0  0
 18 25  1  0  0  0  0
 18 26  1  0  0  0  0
 19 21  1  0  0  0  0
 19 35  1  0  0  0  0
 20 23  1  0  0  0  0
 21 22  2  0  0  0  0
 22 27  1  0  0  0  0
 23 24  1  0  0  0  0
 23 43  1  0  0  0  0
 24 26  1  0  0  0  0
 26 28  2  0  0  0  0
 27 34  2  0  0  0  0
 27 36  1  0  0  0  0
 28 29  1  0  0  0  0
 28 32  1  0  0  0  0
 29 38  1  0  0  0  0
 31 33  2  0  0  0  0
 31 42  1  0  0  0  0
 34 35  1  0  0  0  0
 35 38  1  0  0  0  0
 36 39  1  0  0  0  0
 37 41  1  0  0  0  0
 37 43  2  0  0  0  0
 39 40  1  0  0  0  0
M  END
$$$$

 OpenBabel10082411353D

 27 29  0  0  0  0  0  0  0  0999 V2000
   12.8881    8.7759   -3.5681 C   0  0  0  0  0  0  0  0  0  0  0  0
   11.9416    9.4732   -4.1220 C   0  0  0  0  0  0  0  0  0  0  0  0
   12.3556    7.6012   -2.6527 C   0  0  0  0  0  0  0  0  0  0  0  0
   11.8805    9.3400   -5.6557 C   0  0  0  0  0  0  0  0  0  0  0  0
   11.7716    6.5414   -3.3821 C   0  0  0  0  0  0  0  0  0  0  0  0
   10.8523    8.6585   -6.3310 C   0  0  0  0  0  0  0  0  0  0  0  0
   11.1142    8.2520   -7.7289 C   0  0  0  0  0  0  0  0  0  0  0  0
   10.0478    7.6568   -8.4887 C   0  0  0  0  0  0  0  0  0  0  0  0
   12.3648    8.4339   -8.3703 C   0  0  0  0  0  0  0  0  0  0  0  0
   12.6142    8.1352   -9.7322 C   0  0  0  0  0  0  0  0  0  0  0  0
   10.2852    7.3833   -9.9138 C   0  0  0  0  0  0  0  0  0  0  0  0
   11.5161    7.5808  -10.4860 C   0  0  0  0  0  0  0  0  0  0  0  0
   11.6641    7.2285  -11.8174 O   0  0  0  0  0  0  0  0  0  0  0  0
   10.8624    6.4419  -12.4395 C   0  0  0  0  0  0  0  0  0  0  0  0
   11.2693    5.8267  -13.4966 C   0  0  0  0  0  0  0  0  0  0  0  0
   10.3973    4.9870  -14.3057 C   0  0  0  0  0  0  0  0  0  0  0  0
   12.6295    5.9759  -14.0650 O   0  0  0  0  0  0  0  0  0  0  0  0
   10.8956    4.1934  -15.4489 C   0  0  0  0  0  0  0  0  0  0  0  0
    9.2617    4.6689  -13.8393 C   0  0  0  0  0  0  0  0  0  0  0  0
    9.1278    6.8012  -10.5958 C   0  0  0  0  0  0  0  0  0  0  0  0
    9.5575    6.1980  -11.8790 C   0  0  0  0  0  0  0  0  0  0  0  0
    8.2677    3.7638  -14.4917 O   0  0  0  0  0  0  0  0  0  0  0  0
    8.4595    2.4322  -14.3373 C   0  0  0  0  0  0  0  0  0  0  0  0
    8.6445    5.3514  -12.5501 C   0  0  0  0  0  0  0  0  0  0  0  0
   10.7442    4.6378  -16.5031 O   0  0  0  0  0  0  0  0  0  0  0  0
   11.6289    3.1026  -15.2366 O   0  0  0  0  0  0  0  0  0  0  0  0
   12.8476    7.0806  -14.8277 C   0  0  0  0  0  0  0  0  0  0  0  0
  1  2  1  0  0  0  0
  1  3  1  0  0  0  0
  2  4  1  0  0  0  0
  3  5  1  0  0  0  0
  4  6  1  0  0  0  0
  6  7  1  0  0  0  0
  7  8  1  0  0  0  0
  7  9  2  0  0  0  0
  8 11  2  0  0  0  0
  9 10  1  0  0  0  0
 10 12  2  0  0  0  0
 11 12  1  0  0  0  0
 11 20  1  0  0  0  0
 12 13  1  0  0  0  0
 13 14  1  0  0  0  0
 14 15  2  0  0  0  0
 14 21  1  0  0  0  0
 15 16  1  0  0  0  0
 15 17  1  0  0  0  0
 16 18  1  0  0  0  0
 16 19  2  0  0  0  0
 17 27  1  0  0  0  0
 18 25  2  0  0  0  0
 18 26  1  0  0  0  0
 19 22  1  0  0  0  0
 19 24  1  0  0  0  0
 20 21  1  0  0  0  0
 21 24  2  0  0  0  0
 22 23  1  0  0  0  0
M  END
$$$$

 OpenBabel10082411353D

 43 53  0  0  0  0  0  0  0  0999 V2000
    8.0806    9.0240  -12.7589 C   0  0  0  0  0  0  0  0  0  0  0  0
    8.6514    7.8645  -12.2948 C   0  0  0  0  0  0  0  0  0  0  0  0
    9.9575    7.9974  -11.8426 C   0  0  0  0  0  0  0  0  0  0  0  0
   10.7657    6.8667  -11.6050 C   0  0  1  0  0  0  0  0  0  0  0  0
   10.7682    5.9590  -12.8271 C   0  0  0  0  0  0  0  0  0  0  0  0
   12.1553    7.3846  -11.2315 C   0  0  0  0  0  0  0  0  0  0  0  0
    8.0676    6.6451  -12.2974 C   0  0  0  0  0  0  0  0  0  0  0  0
   10.1892    6.1240  -10.3860 C   0  0  0  0  0  0  0  0  0  0  0  0
   11.8375    5.4373  -13.3240 O   0  0  0  0  0  0  0  0  0  0  0  0
    8.6785    5.4761  -13.0273 C   0  0  1  0  0  0  0  0  0  0  0  0
    9.1969    5.2405  -10.4969 C   0  0  2  0  0  0  0  0  0  0  0  0
    7.2213    6.2210  -11.3074 C   0  0  2  0  0  0  0  0  0  0  0  0
   12.5590    7.6872   -9.9896 C   0  0  0  0  0  0  0  0  0  0  0  0
    9.7633    5.0333  -12.9720 C   0  0  1  0  0  0  0  0  0  0  0  0
   10.0661    4.0167  -14.0373 N   0  0  0  0  0  0  0  0  0  0  0  0
   13.6906    8.3004   -9.6233 O   0  0  0  0  0  0  0  0  0  0  0  0
    7.6357    4.5123  -12.6317 C   0  0  2  0  0  0  0  0  0  0  0  0
    6.8831    4.9171  -11.7031 C   0  0  2  0  0  0  0  0  0  0  0  0
   10.5937    6.6967   -9.1779 C   0  0  0  0  0  0  0  0  0  0  0  0
    9.5087    4.3263  -11.6925 C   0  0  2  0  0  0  0  0  0  0  0  0
   11.6359    7.4449   -8.9125 C   0  0  0  0  0  0  0  0  0  0  0  0
   11.9716    7.9159   -7.6200 C   0  0  0  0  0  0  0  0  0  0  0  0
    8.4648    3.6122  -12.2840 C   0  0  1  0  0  0  0  0  0  0  0  0
    7.9253    2.8004  -11.3926 C   0  0  0  0  0  0  0  0  0  0  0  0
    5.6047    4.5059  -11.7589 C   0  0  0  0  0  0  0  0  0  0  0  0
    7.6606    4.1297  -10.5699 C   0  0  0  0  0  0  0  0  0  0  0  0
   10.9559    7.6849   -6.6057 C   0  0  0  0  0  0  0  0  0  0  0  0
    8.0094    4.5092   -9.5664 C   0  0  0  0  0  0  0  0  0  0  0  0
    8.3033    4.0627   -8.4980 C   0  0  0  0  0  0  0  0  0  0  0  0
    6.3587    7.1012  -11.0392 O   0  0  0  0  0  0  0  0  0  0  0  0
   11.0186    3.9598  -14.9226 C   0  0  1  0  0  0  0  0  0  0  0  0
    8.1758    5.8633  -10.2511 C   0  0  1  0  0  0  0  0  0  0  0  0
    9.4315    2.8557  -13.5931 C   0  0  0  0  0  0  0  0  0  0  0  0
   11.5906    2.6986  -15.1672 C   0  0  0  0  0  0  0  0  0  0  0  0
    9.9783    6.7760   -6.8364 C   0  0  0  0  0  0  0  0  0  0  0  0
    9.7446    6.4267   -8.0721 C   0  0  2  0  0  0  0  0  0  0  0  0
   10.2617    4.4120  -16.0135 O   0  0  0  0  0  0  0  0  0  0  0  0
   11.3635    8.3622   -5.0463 S   0  0  0  0  0  0  0  0  0  0  0  0
    9.0997    5.1037   -7.8252 C   0  0  0  0  0  0  0  0  0  0  0  0
   11.8495    9.7478   -5.1927 O   0  0  0  0  0  0  0  0  0  0  0  0
   10.0482    8.5347   -4.2847 O   0  0  0  0  0  0  0  0  0  0  0  0
   12.3003    7.4190   -4.2332 N   0  0  0  0  0  0  0  0  0  0  0  0
   11.6952    6.4272   -3.5193 C   0  0  0  0  0  0  0  0  0  0  0  0
  1  2  1  0  0  0  0
  2  3  1  0  0  0  0
  2  7  2  0  0  0  0
  4  3  1  6  0  0  0
  4  5  1  0  0  0  0
  4  6  1  0  0  0  0
  4  8  1  0  0  0  0
  5  9  2  0  0  0  0
  6 13  1  0  0  0  0
  7 12  1  0  0  0  0
  8 19  2  0  0  0  0
 10  7  1  1  0  0  0
 10 14  1  0  0  0  0
 10 17  1  0  0  0  0
 11  8  1  6  0  0  0
 11 20  1  0  0  0  0
 11 32  1  0  0  0  0
 12 18  1  0  0  0  0
 12 30  1  1  0  0  0
 12 32  1  0  0  0  0
 13 16  2  0  0  0  0
 13 21  1  0  0  0  0
 14  5  1  1  0  0  0
 14 15  1  0  0  0  0
 14 20  1  0  0  0  0
 15 31  1  0  0  0  0
 15 33  1  0  0  0  0
 17 18  1  0  0  0  0
 17 23  1  0  0  0  0
 18 25  1  0  0  0  0
 18 26  1  0  0  0  0
 19 21  1  0  0  0  0
 19 36  1  0  0  0  0
 20 23  1  0  0  0  0
 21 22  2  0  0  0  0
 22 27  1  0  0  0  0
 23 24  1  0  0  0  0
 23 33  1  0  0  0  0
 24 26  1  0  0  0  0
 26 28  2  0  0  0  0
 27 35  2  0  0  0  0
 27 38  1  0  0  0  0
 28 29  1  0  0  0  0
 28 32  1  0  0  0  0
 29 39  2  0  0  0  0
 31 34  1  0  0  0  0
 31 37  1  0  0  0  0
 35 36  1  0  0  0  0
 36 39  1  0  0  0  0
 38 40  2  0  0  0  0
 38 41  2  0  0  0  0
 38 42  1  0  0  0  0
 42 43  1  0  0  0  0
M  END
$$$$

 OpenBabel10082411353D

 43 53  0  0  0  0  0  0  0  0999 V2000
    8.0806    9.0240  -12.7589 C   0  0  0  0  0  0  0  0  0  0  0  0
    8.6514    7.8645  -12.2948 C   0  0  0  0  0  0  0  0  0  0  0  0
    9.9575    7.9974  -11.8426 C   0  0  0  0  0  0  0  0  0  0  0  0
   10.7657    6.8667  -11.6050 C   0  0  1  0  0  0  0  0  0  0  0  0
   10.7682    5.9590  -12.8271 C   0  0  0  0  0  0  0  0  0  0  0  0
   12.1553    7.3846  -11.2315 C   0  0  0  0  0  0  0  0  0  0  0  0
    8.0676    6.6451  -12.2974 C   0  0  0  0  0  0  0  0  0  0  0  0
   10.1892    6.1240  -10.3860 C   0  0  0  0  0  0  0  0  0  0  0  0
   11.8375    5.4373  -13.3240 O   0  0  0  0  0  0  0  0  0  0  0  0
    8.6785    5.4761  -13.0273 C   0  0  1  0  0  0  0  0  0  0  0  0
    9.1969    5.2405  -10.4969 C   0  0  2  0  0  0  0  0  0  0  0  0
    7.2213    6.2210  -11.3074 C   0  0  2  0  0  0  0  0  0  0  0  0
   12.5590    7.6872   -9.9896 C   0  0  0  0  0  0  0  0  0  0  0  0
    9.7633    5.0333  -12.9720 C   0  0  1  0  0  0  0  0  0  0  0  0
   10.0661    4.0167  -14.0373 N   0  0  0  0  0  0  0  0  0  0  0  0
   13.6906    8.3004   -9.6233 O   0  0  0  0  0  0  0  0  0  0  0  0
    7.6357    4.5123  -12.6317 C   0  0  2  0  0  0  0  0  0  0  0  0
    6.8831    4.9171  -11.7031 C   0  0  2  0  0  0  0  0  0  0  0  0
   10.5937    6.6967   -9.1779 C   0  0  0  0  0  0  0  0  0  0  0  0
    9.5087    4.3263  -11.6925 C   0  0  2  0  0  0  0  0  0  0  0  0
   11.6359    7.4449   -8.9125 C   0  0  0  0  0  0  0  0  0  0  0  0
   11.9716    7.9159   -7.6200 C   0  0  0  0  0  0  0  0  0  0  0  0
    8.4648    3.6122  -12.2840 C   0  0  1  0  0  0  0  0  0  0  0  0
    7.9253    2.8004  -11.3926 C   0  0  0  0  0  0  0  0  0  0  0  0
    5.6047    4.5059  -11.7589 C   0  0  0  0  0  0  0  0  0  0  0  0
    7.6606    4.1297  -10.5699 C   0  0  0  0  0  0  0  0  0  0  0  0
   10.9559    7.6849   -6.6057 C   0  0  0  0  0  0  0  0  0  0  0  0
    8.0094    4.5092   -9.5664 C   0  0  0  0  0  0  0  0  0  0  0  0
    8.3033    4.0627   -8.4980 C   0  0  0  0  0  0  0  0  0  0  0  0
    6.3587    7.1012  -11.0392 O   0  0  0  0  0  0  0  0  0  0  0  0
   11.0186    3.9598  -14.9226 C   0  0  0  0  0  0  0  0  0  0  0  0
    8.1758    5.8633  -10.2511 C   0  0  1  0  0  0  0  0  0  0  0  0
   11.4648    2.7104  -15.2650 O   0  0  0  0  0  0  0  0  0  0  0  0
    9.9512    6.8220   -6.8436 C   0  0  0  0  0  0  0  0  0  0  0  0
    9.6899    6.3705   -8.1082 C   0  0  2  0  0  0  0  0  0  0  0  0
   11.2597    8.2901   -5.2396 C   0  0  0  0  0  0  0  0  0  0  0  0
    9.1264    2.9648  -13.9669 C   0  0  2  0  0  0  0  0  0  0  0  0
    9.2902    4.9507   -7.7799 C   0  0  0  0  0  0  0  0  0  0  0  0
   11.6750    9.7536   -5.2211 C   0  0  0  0  0  0  0  0  0  0  0  0
   12.6364    9.9910   -4.2013 C   0  0  0  0  0  0  0  0  0  0  0  0
    8.6767    2.4780  -15.2342 C   0  0  0  0  0  0  0  0  0  0  0  0
   11.2470    4.9112  -15.7310 O   0  0  0  0  0  0  0  0  0  0  0  0
    8.4371    2.5396  -13.0074 C   0  0  0  0  0  0  0  0  0  0  0  0
  1  2  1  0  0  0  0
  2  3  1  0  0  0  0
  2  7  2  0  0  0  0
  4  3  1  6  0  0  0
  4  5  1  0  0  0  0
  4  6  1  0  0  0  0
  4  8  1  0  0  0  0
  5  9  2  0  0  0  0
  6 13  1  0  0  0  0
  7 12  1  0  0  0  0
  8 19  2  0  0  0  0
 10  7  1  1  0  0  0
 10 14  1  0  0  0  0
 10 17  1  0  0  0  0
 11  8  1  6  0  0  0
 11 20  1  0  0  0  0
 11 32  1  0  0  0  0
 12 18  1  0  0  0  0
 12 30  1  1  0  0  0
 12 32  1  0  0  0  0
 13 16  2  0  0  0  0
 13 21  1  0  0  0  0
 14  5  1  1  0  0  0
 14 15  1  0  0  0  0
 14 20  1  0  0  0  0
 15 31  1  0  0  0  0
 15 37  1  0  0  0  0
 17 18  1  0  0  0  0
 17 23  1  0  0  0  0
 18 25  1  0  0  0  0
 18 26  1  0  0  0  0
 19 21  1  0  0  0  0
 19 35  1  0  0  0  0
 20 23  1  0  0  0  0
 21 22  2  0  0  0  0
 22 27  1  0  0  0  0
 23 24  1  0  0  0  0
 23 43  1  0  0  0  0
 24 26  1  0  0  0  0
 26 28  2  0  0  0  0
 27 34  2  0  0  0  0
 27 36  1  0  0  0  0
 28 29  1  0  0  0  0
 28 32  1  0  0  0  0
 29 38  1  0  0  0  0
 31 33  2  0  0  0  0
 31 42  1  0  0  0  0
 34 35  1  0  0  0  0
 35 38  1  0  0  0  0
 36 39  1  0  0  0  0
 37 41  1  0  0  0  0
 37 43  1  0  0  0  0
 39 40  1  0  0  0  0
M  END
$$$$

 OpenBabel10082411353D

 44 56  0  0  0  0  0  0  0  0999 V2000
    8.0806    9.0240  -12.7589 C   0  0  0  0  0  0  0  0  0  0  0  0
    8.6514    7.8645  -12.2948 C   0  0  0  0  0  0  0  0  0  0  0  0
    9.9575    7.9974  -11.8426 C   0  0  0  0  0  0  0  0  0  0  0  0
   10.7657    6.8667  -11.6050 C   0  0  1  0  0  0  0  0  0  0  0  0
   10.7682    5.9590  -12.8271 C   0  0  0  0  0  0  0  0  0  0  0  0
   12.1553    7.3846  -11.2315 C   0  0  0  0  0  0  0  0  0  0  0  0
    8.0676    6.6451  -12.2974 C   0  0  0  0  0  0  0  0  0  0  0  0
   10.1892    6.1240  -10.3860 C   0  0  0  0  0  0  0  0  0  0  0  0
   11.8375    5.4373  -13.3240 O   0  0  0  0  0  0  0  0  0  0  0  0
    8.6785    5.4761  -13.0273 C   0  0  1  0  0  0  0  0  0  0  0  0
    9.1969    5.2405  -10.4969 C   0  0  2  0  0  0  0  0  0  0  0  0
    7.2213    6.2210  -11.3074 C   0  0  2  0  0  0  0  0  0  0  0  0
   12.5590    7.6872   -9.9896 C   0  0  0  0  0  0  0  0  0  0  0  0
    9.7633    5.0333  -12.9720 C   0  0  1  0  0  0  0  0  0  0  0  0
   10.0661    4.0167  -14.0373 N   0  0  0  0  0  0  0  0  0  0  0  0
   13.6906    8.3004   -9.6233 O   0  0  0  0  0  0  0  0  0  0  0  0
    7.6357    4.5123  -12.6317 C   0  0  2  0  0  0  0  0  0  0  0  0
    6.8831    4.9171  -11.7031 C   0  0  2  0  0  0  0  0  0  0  0  0
   10.5937    6.6967   -9.1779 C   0  0  0  0  0  0  0  0  0  0  0  0
    9.5087    4.3263  -11.6925 C   0  0  2  0  0  0  0  0  0  0  0  0
   11.6359    7.4449   -8.9125 C   0  0  0  0  0  0  0  0  0  0  0  0
   11.9716    7.9159   -7.6200 C   0  0  0  0  0  0  0  0  0  0  0  0
    8.4648    3.6122  -12.2840 C   0  0  1  0  0  0  0  0  0  0  0  0
    7.9253    2.8004  -11.3926 C   0  0  2  0  0  0  0  0  0  0  0  0
    5.6047    4.5059  -11.7589 C   0  0  0  0  0  0  0  0  0  0  0  0
    7.6606    4.1297  -10.5699 C   0  0  0  0  0  0  0  0  0  0  0  0
   10.9559    7.6849   -6.6057 C   0  0  0  0  0  0  0  0  0  0  0  0
    8.0094    4.5092   -9.5664 C   0  0  0  0  0  0  0  0  0  0  0  0
    8.3033    4.0627   -8.4980 C   0  0  0  0  0  0  0  0  0  0  0  0
    6.3587    7.1012  -11.0392 O   0  0  0  0  0  0  0  0  0  0  0  0
   11.0186    3.9598  -14.9226 C   0  0  0  0  0  0  0  0  0  0  0  0
    8.1758    5.8633  -10.2511 C   0  0  1  0  0  0  0  0  0  0  0  0
   11.4648    2.7104  -15.2650 O   0  0  0  0  0  0  0  0  0  0  0  0
    9.9512    6.8220   -6.8436 C   0  0  0  0  0  0  0  0  0  0  0  0
    9.6899    6.3705   -8.1082 C   0  0  2  0  0  0  0  0  0  0  0  0
    9.1306    2.9610  -13.9685 C   0  0  0  0  0  0  0  0  0  0  0  0
    8.8414    5.0113   -7.7726 C   0  0  0  0  0  0  0  0  0  0  0  0
   11.0996    4.8769  -15.8101 O   0  0  0  0  0  0  0  0  0  0  0  0
   11.2285    8.3650   -5.2735 C   0  0  0  0  0  0  0  0  0  0  0  0
    8.6761    2.4330  -12.9285 C   0  0  1  0  0  0  0  0  0  0  0  0
   11.8773    7.7002   -4.3487 C   0  0  0  0  0  0  0  0  0  0  0  0
   12.0468    9.7005   -5.5489 C   0  0  0  0  0  0  0  0  0  0  0  0
   12.9973    9.7239   -4.3348 C   0  0  0  0  0  0  0  0  0  0  0  0
   12.3198    8.6384   -3.4542 C   0  0  0  0  0  0  0  0  0  0  0  0
  1  2  1  0  0  0  0
  2  3  1  0  0  0  0
  2  7  2  0  0  0  0
  4  3  1  6  0  0  0
  4  5  1  0  0  0  0
  4  6  1  0  0  0  0
  4  8  1  0  0  0  0
  5  9  2  0  0  0  0
  6 13  1  0  0  0  0
  7 12  1  0  0  0  0
  8 19  2  0  0  0  0
 10  7  1  1  0  0  0
 10 14  1  0  0  0  0
 10 17  1  0  0  0  0
 11  8  1  6  0  0  0
 11 20  1  0  0  0  0
 11 32  1  0  0  0  0
 12 18  1  0  0  0  0
 12 30  1  1  0  0  0
 12 32  1  0  0  0  0
 13 16  2  0  0  0  0
 13 21  1  0  0  0  0
 14  5  1  1  0  0  0
 14 15  1  0  0  0  0
 14 20  1  0  0  0  0
 15 31  1  0  0  0  0
 15 36  1  0  0  0  0
 17 18  1  0  0  0  0
 17 23  1  0  0  0  0
 18 25  1  0  0  0  0
 18 26  1  0  0  0  0
 19 21  1  0  0  0  0
 19 35  1  0  0  0  0
 20 23  1  0  0  0  0
 21 22  2  0  0  0  0
 22 27  1  0  0  0  0
 23 24  1  0  0  0  0
 23 40  1  0  0  0  0
 24 26  1  0  0  0  0
 24 40  1  0  0  0  0
 26 28  2  0  0  0  0
 27 34  2  0  0  0  0
 27 39  1  0  0  0  0
 28 29  1  0  0  0  0
 28 32  1  0  0  0  0
 29 37  2  0  0  0  0
 31 33  2  0  0  0  0
 31 38  1  0  0  0  0
 34 35  1  0  0  0  0
 35 37  1  0  0  0  0
 36 40  1  0  0  0  0
 39 41  1  0  0  0  0
 39 42  1  0  0  0  0
 41 44  1  0  0  0  0
 42 43  1  0  0  0  0
 43 44  1  0  0  0  0
M  END
$$$$

 OpenBabel10082411353D

 44 54  0  0  0  0  0  0  0  0999 V2000
    8.0806    9.0240  -12.7589 C   0  0  0  0  0  0  0  0  0  0  0  0
    8.6514    7.8645  -12.2948 C   0  0  0  0  0  0  0  0  0  0  0  0
    9.9575    7.9974  -11.8426 C   0  0  0  0  0  0  0  0  0  0  0  0
   10.7657    6.8667  -11.6050 C   0  0  1  0  0  0  0  0  0  0  0  0
   10.7682    5.9590  -12.8271 C   0  0  0  0  0  0  0  0  0  0  0  0
   12.1553    7.3846  -11.2315 C   0  0  0  0  0  0  0  0  0  0  0  0
    8.0676    6.6451  -12.2974 C   0  0  0  0  0  0  0  0  0  0  0  0
   10.1892    6.1240  -10.3860 C   0  0  0  0  0  0  0  0  0  0  0  0
   11.8375    5.4373  -13.3240 O   0  0  0  0  0  0  0  0  0  0  0  0
    8.6785    5.4761  -13.0273 C   0  0  1  0  0  0  0  0  0  0  0  0
    9.1969    5.2405  -10.4969 C   0  0  2  0  0  0  0  0  0  0  0  0
    7.2213    6.2210  -11.3074 C   0  0  2  0  0  0  0  0  0  0  0  0
   12.5590    7.6872   -9.9896 C   0  0  0  0  0  0  0  0  0  0  0  0
    9.7633    5.0333  -12.9720 C   0  0  1  0  0  0  0  0  0  0  0  0
   10.0661    4.0167  -14.0373 N   0  0  0  0  0  0  0  0  0  0  0  0
   13.6906    8.3004   -9.6233 O   0  0  0  0  0  0  0  0  0  0  0  0
    7.6357    4.5123  -12.6317 C   0  0  2  0  0  0  0  0  0  0  0  0
    6.8831    4.9171  -11.7031 C   0  0  2  0  0  0  0  0  0  0  0  0
   10.5937    6.6967   -9.1779 C   0  0  0  0  0  0  0  0  0  0  0  0
    9.5087    4.3263  -11.6925 C   0  0  2  0  0  0  0  0  0  0  0  0
   11.6359    7.4449   -8.9125 C   0  0  0  0  0  0  0  0  0  0  0  0
   11.9716    7.9159   -7.6200 C   0  0  0  0  0  0  0  0  0  0  0  0
    8.4648    3.6122  -12.2840 C   0  0  1  0  0  0  0  0  0  0  0  0
    7.9253    2.8004  -11.3926 C   0  0  0  0  0  0  0  0  0  0  0  0
    5.6047    4.5059  -11.7589 C   0  0  0  0  0  0  0  0  0  0  0  0
    7.6606    4.1297  -10.5699 C   0  0  0  0  0  0  0  0  0  0  0  0
   10.9559    7.6849   -6.6057 C   0  0  0  0  0  0  0  0  0  0  0  0
    8.0094    4.5092   -9.5664 C   0  0  0  0  0  0  0  0  0  0  0  0
    8.3033    4.0627   -8.4980 C   0  0  0  0  0  0  0  0  0  0  0  0
    6.3587    7.1012  -11.0392 O   0  0  0  0  0  0  0  0  0  0  0  0
   11.0186    3.9598  -14.9226 C   0  0  1  0  0  0  0  0  0  0  0  0
    8.1758    5.8633  -10.2511 C   0  0  1  0  0  0  0  0  0  0  0  0
    9.4315    2.8557  -13.5931 C   0  0  0  0  0  0  0  0  0  0  0  0
   11.5906    2.6986  -15.1672 C   0  0  0  0  0  0  0  0  0  0  0  0
    9.9783    6.7760   -6.8364 C   0  0  0  0  0  0  0  0  0  0  0  0
    9.7446    6.4267   -8.0721 C   0  0  2  0  0  0  0  0  0  0  0  0
   10.2617    4.4120  -16.0135 O   0  0  0  0  0  0  0  0  0  0  0  0
   11.3635    8.3622   -5.0463 S   0  0  0  0  0  0  0  0  0  0  0  0
    9.0997    5.1037   -7.8252 C   0  0  0  0  0  0  0  0  0  0  0  0
   11.8495    9.7478   -5.1927 O   0  0  0  0  0  0  0  0  0  0  0  0
   10.0482    8.5347   -4.2847 O   0  0  0  0  0  0  0  0  0  0  0  0
   12.3645    7.6199   -4.0386 N   0  0  0  0  0  0  0  0  0  0  0  0
   12.9093    8.2227   -2.9794 C   0  0  0  0  0  0  0  0  0  0  0  0
   12.2865    6.2034   -4.1492 C   0  0  0  0  0  0  0  0  0  0  0  0
  1  2  1  0  0  0  0
  2  3  1  0  0  0  0
  2  7  2  0  0  0  0
  4  3  1  6  0  0  0
  4  5  1  0  0  0  0
  4  6  1  0  0  0  0
  4  8  1  0  0  0  0
  5  9  2  0  0  0  0
  6 13  1  0  0  0  0
  7 12  1  0  0  0  0
  8 19  2  0  0  0  0
 10  7  1  1  0  0  0
 10 14  1  0  0  0  0
 10 17  1  0  0  0  0
 11  8  1  6  0  0  0
 11 20  1  0  0  0  0
 11 32  1  0  0  0  0
 12 18  1  0  0  0  0
 12 30  1  1  0  0  0
 12 32  1  0  0  0  0
 13 16  2  0  0  0  0
 13 21  1  0  0  0  0
 14  5  1  1  0  0  0
 14 15  1  0  0  0  0
 14 20  1  0  0  0  0
 15 31  1  0  0  0  0
 15 33  1  0  0  0  0
 17 18  1  0  0  0  0
 17 23  1  0  0  0  0
 18 25  1  0  0  0  0
 18 26  1  0  0  0  0
 19 21  1  0  0  0  0
 19 36  1  0  0  0  0
 20 23  1  0  0  0  0
 21 22  2  0  0  0  0
 22 27  1  0  0  0  0
 23 24  1  0  0  0  0
 23 33  1  0  0  0  0
 24 26  1  0  0  0  0
 26 28  2  0  0  0  0
 27 35  2  0  0  0  0
 27 38  1  0  0  0  0
 28 29  1  0  0  0  0
 28 32  1  0  0  0  0
 29 39  2  0  0  0  0
 31 34  1  0  0  0  0
 31 37  1  0  0  0  0
 35 36  1  0  0  0  0
 36 39  1  0  0  0  0
 38 40  2  0  0  0  0
 38 41  2  0  0  0  0
 38 42  1  0  0  0  0
 42 43  1  0  0  0  0
 42 44  1  0  0  0  0
M  END
$$$$

 OpenBabel10082411353D

 44 55  0  0  0  0  0  0  0  0999 V2000
    8.0806    9.0240  -12.7589 C   0  0  0  0  0  0  0  0  0  0  0  0
    8.6514    7.8645  -12.2948 C   0  0  0  0  0  0  0  0  0  0  0  0
    9.9575    7.9974  -11.8426 C   0  0  0  0  0  0  0  0  0  0  0  0
   10.7657    6.8667  -11.6050 C   0  0  1  0  0  0  0  0  0  0  0  0
   10.7682    5.9590  -12.8271 C   0  0  0  0  0  0  0  0  0  0  0  0
   12.1553    7.3846  -11.2315 C   0  0  0  0  0  0  0  0  0  0  0  0
    8.0676    6.6451  -12.2974 C   0  0  0  0  0  0  0  0  0  0  0  0
   10.1892    6.1240  -10.3860 C   0  0  0  0  0  0  0  0  0  0  0  0
   11.8375    5.4373  -13.3240 O   0  0  0  0  0  0  0  0  0  0  0  0
    8.6785    5.4761  -13.0273 C   0  0  1  0  0  0  0  0  0  0  0  0
    9.1969    5.2405  -10.4969 C   0  0  2  0  0  0  0  0  0  0  0  0
    7.2213    6.2210  -11.3074 C   0  0  2  0  0  0  0  0  0  0  0  0
   12.5590    7.6872   -9.9896 C   0  0  0  0  0  0  0  0  0  0  0  0
    9.7633    5.0333  -12.9720 C   0  0  1  0  0  0  0  0  0  0  0  0
   10.0661    4.0167  -14.0373 N   0  0  0  0  0  0  0  0  0  0  0  0
   13.6906    8.3004   -9.6233 O   0  0  0  0  0  0  0  0  0  0  0  0
    7.6357    4.5123  -12.6317 C   0  0  2  0  0  0  0  0  0  0  0  0
    6.8831    4.9171  -11.7031 C   0  0  2  0  0  0  0  0  0  0  0  0
   10.5937    6.6967   -9.1779 C   0  0  0  0  0  0  0  0  0  0  0  0
    9.5087    4.3263  -11.6925 C   0  0  2  0  0  0  0  0  0  0  0  0
   11.6359    7.4449   -8.9125 C   0  0  0  0  0  0  0  0  0  0  0  0
   11.9716    7.9159   -7.6200 C   0  0  0  0  0  0  0  0  0  0  0  0
    8.4648    3.6122  -12.2840 C   0  0  1  0  0  0  0  0  0  0  0  0
    7.9253    2.8004  -11.3926 C   0  0  0  0  0  0  0  0  0  0  0  0
    5.6047    4.5059  -11.7589 C   0  0  0  0  0  0  0  0  0  0  0  0
    7.6606    4.1297  -10.5699 C   0  0  0  0  0  0  0  0  0  0  0  0
   10.9559    7.6849   -6.6057 C   0  0  0  0  0  0  0  0  0  0  0  0
    8.0094    4.5092   -9.5664 C   0  0  0  0  0  0  0  0  0  0  0  0
    8.3033    4.0627   -8.4980 C   0  0  0  0  0  0  0  0  0  0  0  0
    6.3587    7.1012  -11.0392 O   0  0  0  0  0  0  0  0  0  0  0  0
   11.0186    3.9598  -14.9226 C   0  0  0  0  0  0  0  0  0  0  0  0
    8.1758    5.8633  -10.2511 C   0  0  1  0  0  0  0  0  0  0  0  0
   11.4648    2.7104  -15.2650 O   0  0  0  0  0  0  0  0  0  0  0  0
    9.9512    6.8220   -6.8436 C   0  0  0  0  0  0  0  0  0  0  0  0
    9.6899    6.3705   -8.1082 C   0  0  2  0  0  0  0  0  0  0  0  0
   11.2597    8.2901   -5.2396 C   0  0  0  0  0  0  0  0  0  0  0  0
   11.6068    9.7354   -5.2006 C   0  0  0  0  0  0  0  0  0  0  0  0
    9.4261    2.7718  -13.6670 C   0  0  0  0  0  0  0  0  0  0  0  0
    9.1568    5.0346   -7.7426 C   0  0  0  0  0  0  0  0  0  0  0  0
   10.9364    4.8633  -15.8499 O   0  0  0  0  0  0  0  0  0  0  0  0
   11.3730    7.7135   -4.0327 C   0  0  0  0  0  0  0  0  0  0  0  0
   11.7762    8.7167   -2.9513 C   0  0  0  0  0  0  0  0  0  0  0  0
   11.8929   10.4465   -4.1319 C   0  0  0  0  0  0  0  0  0  0  0  0
   12.0026    9.8142   -2.9446 C   0  0  0  0  0  0  0  0  0  0  0  0
  1  2  1  0  0  0  0
  2  3  1  0  0  0  0
  2  7  2  0  0  0  0
  4  3  1  6  0  0  0
  4  5  1  0  0  0  0
  4  6  1  0  0  0  0
  4  8  1  0  0  0  0
  5  9  2  0  0  0  0
  6 13  1  0  0  0  0
  7 12  1  0  0  0  0
  8 19  2  0  0  0  0
 10  7  1  1  0  0  0
 10 14  1  0  0  0  0
 10 17  1  0  0  0  0
 11  8  1  6  0  0  0
 11 20  1  0  0  0  0
 11 32  1  0  0  0  0
 12 18  1  0  0  0  0
 12 30  1  1  0  0  0
 12 32  1  0  0  0  0
 13 16  2  0  0  0  0
 13 21  1  0  0  0  0
 14  5  1  1  0  0  0
 14 15  1  0  0  0  0
 14 20  1  0  0  0  0
 15 31  1  0  0  0  0
 15 38  1  0  0  0  0
 17 18  1  0  0  0  0
 17 23  1  0  0  0  0
 18 25  1  0  0  0  0
 18 26  1  0  0  0  0
 19 21  1  0  0  0  0
 19 35  1  0  0  0  0
 20 23  1  0  0  0  0
 21 22  2  0  0  0  0
 22 27  1  0  0  0  0
 23 24  1  0  0  0  0
 23 38  1  0  0  0  0
 24 26  1  0  0  0  0
 26 28  2  0  0  0  0
 27 34  2  0  0  0  0
 27 36  1  0  0  0  0
 28 29  1  0  0  0  0
 28 32  1  0  0  0  0
 29 39  1  0  0  0  0
 31 33  2  0  0  0  0
 31 40  1  0  0  0  0
 34 35  1  0  0  0  0
 35 39  1  0  0  0  0
 36 37  1  0  0  0  0
 36 41  2  0  0  0  0
 37 43  2  0  0  0  0
 41 42  1  0  0  0  0
 42 44  2  0  0  0  0
 43 44  1  0  0  0  0
M  END
$$$$

 OpenBabel10082411353D

 44 55  0  0  0  0  0  0  0  0999 V2000
    8.0806    9.0240  -12.7589 C   0  0  0  0  0  0  0  0  0  0  0  0
    8.6514    7.8645  -12.2948 C   0  0  0  0  0  0  0  0  0  0  0  0
    9.9575    7.9974  -11.8426 C   0  0  0  0  0  0  0  0  0  0  0  0
   10.7657    6.8667  -11.6050 C   0  0  1  0  0  0  0  0  0  0  0  0
   10.7682    5.9590  -12.8271 C   0  0  0  0  0  0  0  0  0  0  0  0
   12.1553    7.3846  -11.2315 C   0  0  0  0  0  0  0  0  0  0  0  0
    8.0676    6.6451  -12.2974 C   0  0  0  0  0  0  0  0  0  0  0  0
   10.1892    6.1240  -10.3860 C   0  0  0  0  0  0  0  0  0  0  0  0
   11.8375    5.4373  -13.3240 O   0  0  0  0  0  0  0  0  0  0  0  0
    8.6785    5.4761  -13.0273 C   0  0  1  0  0  0  0  0  0  0  0  0
    9.1969    5.2405  -10.4969 C   0  0  2  0  0  0  0  0  0  0  0  0
    7.2213    6.2210  -11.3074 C   0  0  2  0  0  0  0  0  0  0  0  0
   12.5590    7.6872   -9.9896 C   0  0  0  0  0  0  0  0  0  0  0  0
    9.7633    5.0333  -12.9720 C   0  0  1  0  0  0  0  0  0  0  0  0
   10.0661    4.0167  -14.0373 N   0  0  0  0  0  0  0  0  0  0  0  0
   13.6906    8.3004   -9.6233 O   0  0  0  0  0  0  0  0  0  0  0  0
    7.6357    4.5123  -12.6317 C   0  0  2  0  0  0  0  0  0  0  0  0
    6.8831    4.9171  -11.7031 C   0  0  2  0  0  0  0  0  0  0  0  0
   10.5937    6.6967   -9.1779 C   0  0  0  0  0  0  0  0  0  0  0  0
    9.5087    4.3263  -11.6925 C   0  0  2  0  0  0  0  0  0  0  0  0
   11.6359    7.4449   -8.9125 C   0  0  0  0  0  0  0  0  0  0  0  0
   11.9716    7.9159   -7.6200 C   0  0  0  0  0  0  0  0  0  0  0  0
    8.4648    3.6122  -12.2840 C   0  0  1  0  0  0  0  0  0  0  0  0
    7.9253    2.8004  -11.3926 C   0  0  0  0  0  0  0  0  0  0  0  0
    5.6047    4.5059  -11.7589 C   0  0  0  0  0  0  0  0  0  0  0  0
    7.6606    4.1297  -10.5699 C   0  0  0  0  0  0  0  0  0  0  0  0
   10.9559    7.6849   -6.6057 C   0  0  0  0  0  0  0  0  0  0  0  0
    8.0094    4.5092   -9.5664 C   0  0  0  0  0  0  0  0  0  0  0  0
    8.3033    4.0627   -8.4980 C   0  0  0  0  0  0  0  0  0  0  0  0
    6.3587    7.1012  -11.0392 O   0  0  0  0  0  0  0  0  0  0  0  0
   11.0186    3.9598  -14.9226 C   0  0  0  0  0  0  0  0  0  0  0  0
    8.1758    5.8633  -10.2511 C   0  0  1  0  0  0  0  0  0  0  0  0
   11.4648    2.7104  -15.2650 O   0  0  0  0  0  0  0  0  0  0  0  0
    9.9512    6.8220   -6.8436 C   0  0  0  0  0  0  0  0  0  0  0  0
    9.6899    6.3705   -8.1082 C   0  0  2  0  0  0  0  0  0  0  0  0
   11.2597    8.2901   -5.2396 C   0  0  0  0  0  0  0  0  0  0  0  0
   10.9483    4.9354  -15.8312 C   0  0  0  0  0  0  0  0  0  0  0  0
    9.2428    4.9682   -7.8294 C   0  0  0  0  0  0  0  0  0  0  0  0
   11.9211    7.5870   -4.3303 C   0  0  0  0  0  0  0  0  0  0  0  0
   10.9171    9.6712   -4.9168 C   0  0  0  0  0  0  0  0  0  0  0  0
   12.1622    8.4094   -3.0233 C   0  0  0  0  0  0  0  0  0  0  0  0
   11.1935   10.2664   -3.7788 C   0  0  0  0  0  0  0  0  0  0  0  0
   11.8893    9.5877   -2.8165 C   0  0  0  0  0  0  0  0  0  0  0  0
    9.2890    2.8440  -13.6363 C   0  0  0  0  0  0  0  0  0  0  0  0
  1  2  1  0  0  0  0
  2  3  1  0  0  0  0
  2  7  2  0  0  0  0
  4  3  1  6  0  0  0
  4  5  1  0  0  0  0
  4  6  1  0  0  0  0
  4  8  1  0  0  0  0
  5  9  2  0  0  0  0
  6 13  1  0  0  0  0
  7 12  1  0  0  0  0
  8 19  2  0  0  0  0
 10  7  1  1  0  0  0
 10 14  1  0  0  0  0
 10 17  1  0  0  0  0
 11  8  1  6  0  0  0
 11 20  1  0  0  0  0
 11 32  1  0  0  0  0
 12 18  1  0  0  0  0
 12 30  1  1  0  0  0
 12 32  1  0  0  0  0
 13 16  2  0  0  0  0
 13 21  1  0  0  0  0
 14  5  1  1  0  0  0
 14 15  1  0  0  0  0
 14 20  1  0  0  0  0
 15 31  1  0  0  0  0
 15 44  1  0  0  0  0
 17 18  1  0  0  0  0
 17 23  1  0  0  0  0
 18 25  1  0  0  0  0
 18 26  1  0  0  0  0
 19 21  1  0  0  0  0
 19 35  1  0  0  0  0
 20 23  1  0  0  0  0
 21 22  2  0  0  0  0
 22 27  1  0  0  0  0
 23 24  1  0  0  0  0
 23 44  1  0  0  0  0
 24 26  1  0  0  0  0
 26 28  2  0  0  0  0
 27 34  2  0  0  0  0
 27 36  1  0  0  0  0
 28 29  1  0  0  0  0
 28 32  1  0  0  0  0
 29 38  1  0  0  0  0
 31 33  2  0  0  0  0
 31 37  1  0  0  0  0
 34 35  1  0  0  0  0
 35 38  1  0  0  0  0
 36 39  1  0  0  0  0
 36 40  2  0  0  0  0
 39 41  2  0  0  0  0
 40 42  1  0  0  0  0
 41 43  1  0  0  0  0
 42 43  2  0  0  0  0
M  END
$$$$

 OpenBabel10082411353D

 44 54  0  0  0  0  0  0  0  0999 V2000
    8.0806    9.0240  -12.7589 C   0  0  0  0  0  0  0  0  0  0  0  0
    8.6514    7.8645  -12.2948 C   0  0  0  0  0  0  0  0  0  0  0  0
    9.9575    7.9974  -11.8426 C   0  0  0  0  0  0  0  0  0  0  0  0
   10.7657    6.8667  -11.6050 C   0  0  1  0  0  0  0  0  0  0  0  0
   10.7682    5.9590  -12.8271 C   0  0  0  0  0  0  0  0  0  0  0  0
   12.1553    7.3846  -11.2315 C   0  0  0  0  0  0  0  0  0  0  0  0
    8.0676    6.6451  -12.2974 C   0  0  0  0  0  0  0  0  0  0  0  0
   10.1892    6.1240  -10.3860 C   0  0  0  0  0  0  0  0  0  0  0  0
   11.8375    5.4373  -13.3240 O   0  0  0  0  0  0  0  0  0  0  0  0
    8.6785    5.4761  -13.0273 C   0  0  1  0  0  0  0  0  0  0  0  0
    9.1969    5.2405  -10.4969 C   0  0  2  0  0  0  0  0  0  0  0  0
    7.2213    6.2210  -11.3074 C   0  0  2  0  0  0  0  0  0  0  0  0
   12.5590    7.6872   -9.9896 C   0  0  0  0  0  0  0  0  0  0  0  0
    9.7633    5.0333  -12.9720 C   0  0  1  0  0  0  0  0  0  0  0  0
   10.0661    4.0167  -14.0373 N   0  0  0  0  0  0  0  0  0  0  0  0
   13.6906    8.3004   -9.6233 O   0  0  0  0  0  0  0  0  0  0  0  0
    7.6357    4.5123  -12.6317 C   0  0  2  0  0  0  0  0  0  0  0  0
    6.8831    4.9171  -11.7031 C   0  0  2  0  0  0  0  0  0  0  0  0
   10.5937    6.6967   -9.1779 C   0  0  0  0  0  0  0  0  0  0  0  0
    9.5087    4.3263  -11.6925 C   0  0  2  0  0  0  0  0  0  0  0  0
   11.6359    7.4449   -8.9125 C   0  0  0  0  0  0  0  0  0  0  0  0
   11.9716    7.9159   -7.6200 C   0  0  0  0  0  0  0  0  0  0  0  0
    8.4648    3.6122  -12.2840 C   0  0  1  0  0  0  0  0  0  0  0  0
    7.9253    2.8004  -11.3926 C   0  0  0  0  0  0  0  0  0  0  0  0
    5.6047    4.5059  -11.7589 C   0  0  0  0  0  0  0  0  0  0  0  0
    7.6606    4.1297  -10.5699 C   0  0  0  0  0  0  0  0  0  0  0  0
   10.9559    7.6849   -6.6057 C   0  0  0  0  0  0  0  0  0  0  0  0
    8.0094    4.5092   -9.5664 C   0  0  0  0  0  0  0  0  0  0  0  0
    8.3033    4.0627   -8.4980 C   0  0  0  0  0  0  0  0  0  0  0  0
    6.3587    7.1012  -11.0392 O   0  0  0  0  0  0  0  0  0  0  0  0
   11.0186    3.9598  -14.9226 C   0  0  0  0  0  0  0  0  0  0  0  0
    8.1758    5.8633  -10.2511 C   0  0  1  0  0  0  0  0  0  0  0  0
   11.4648    2.7104  -15.2650 O   0  0  0  0  0  0  0  0  0  0  0  0
    9.9512    6.8220   -6.8436 C   0  0  0  0  0  0  0  0  0  0  0  0
    9.6899    6.3705   -8.1082 C   0  0  2  0  0  0  0  0  0  0  0  0
   11.2597    8.2901   -5.2396 C   0  0  0  0  0  0  0  0  0  0  0  0
   11.7295    4.9426  -15.4284 O   0  0  0  0  0  0  0  0  0  0  0  0
    9.2745    4.9481   -7.8103 C   0  0  0  0  0  0  0  0  0  0  0  0
   11.9189    7.5859   -4.3309 C   0  0  0  0  0  0  0  0  0  0  0  0
   12.8427    8.2581   -3.4188 C   0  0  0  0  0  0  0  0  0  0  0  0
    9.2139    2.8899  -13.7611 C   0  0  0  0  0  0  0  0  0  0  0  0
   11.7262    6.1972   -4.1376 C   0  0  0  0  0  0  0  0  0  0  0  0
   12.0233    9.5570   -5.5038 C   0  0  0  0  0  0  0  0  0  0  0  0
    9.8781    8.8333   -4.6724 C   0  0  0  0  0  0  0  0  0  0  0  0
  1  2  1  0  0  0  0
  2  3  1  0  0  0  0
  2  7  2  0  0  0  0
  4  3  1  6  0  0  0
  4  5  1  0  0  0  0
  4  6  1  0  0  0  0
  4  8  1  0  0  0  0
  5  9  2  0  0  0  0
  6 13  1  0  0  0  0
  7 12  1  0  0  0  0
  8 19  2  0  0  0  0
 10  7  1  1  0  0  0
 10 14  1  0  0  0  0
 10 17  1  0  0  0  0
 11  8  1  6  0  0  0
 11 20  1  0  0  0  0
 11 32  1  0  0  0  0
 12 18  1  0  0  0  0
 12 30  1  1  0  0  0
 12 32  1  0  0  0  0
 13 16  2  0  0  0  0
 13 21  1  0  0  0  0
 14  5  1  1  0  0  0
 14 15  1  0  0  0  0
 14 20  1  0  0  0  0
 15 31  1  0  0  0  0
 15 41  1  0  0  0  0
 17 18  1  0  0  0  0
 17 23  1  0  0  0  0
 18 25  1  0  0  0  0
 18 26  1  0  0  0  0
 19 21  1  0  0  0  0
 19 35  1  0  0  0  0
 20 23  1  0  0  0  0
 21 22  2  0  0  0  0
 22 27  1  0  0  0  0
 23 24  1  0  0  0  0
 23 41  1  0  0  0  0
 24 26  1  0  0  0  0
 26 28  2  0  0  0  0
 27 34  2  0  0  0  0
 27 36  1  0  0  0  0
 28 29  1  0  0  0  0
 28 32  1  0  0  0  0
 29 38  1  0  0  0  0
 31 33  2  0  0  0  0
 31 37  1  0  0  0  0
 34 35  1  0  0  0  0
 35 38  1  0  0  0  0
 36 39  1  0  0  0  0
 36 43  1  0  0  0  0
 36 44  1  0  0  0  0
 39 40  1  0  0  0  0
 39 42  2  0  0  0  0
M  END
$$$$

 OpenBabel10082411353D

 44 55  0  0  0  0  0  0  0  0999 V2000
    8.0806    9.0240  -12.7589 C   0  0  0  0  0  0  0  0  0  0  0  0
    8.6514    7.8645  -12.2948 C   0  0  0  0  0  0  0  0  0  0  0  0
    9.9575    7.9974  -11.8426 C   0  0  0  0  0  0  0  0  0  0  0  0
   10.7657    6.8667  -11.6050 C   0  0  1  0  0  0  0  0  0  0  0  0
   10.7682    5.9590  -12.8271 C   0  0  0  0  0  0  0  0  0  0  0  0
   12.1553    7.3846  -11.2315 C   0  0  0  0  0  0  0  0  0  0  0  0
    8.0676    6.6451  -12.2974 C   0  0  0  0  0  0  0  0  0  0  0  0
   10.1892    6.1240  -10.3860 C   0  0  0  0  0  0  0  0  0  0  0  0
   11.8375    5.4373  -13.3240 O   0  0  0  0  0  0  0  0  0  0  0  0
    8.6785    5.4761  -13.0273 C   0  0  1  0  0  0  0  0  0  0  0  0
    9.1969    5.2405  -10.4969 C   0  0  2  0  0  0  0  0  0  0  0  0
    7.2213    6.2210  -11.3074 C   0  0  2  0  0  0  0  0  0  0  0  0
   12.5590    7.6872   -9.9896 C   0  0  0  0  0  0  0  0  0  0  0  0
    9.7633    5.0333  -12.9720 C   0  0  1  0  0  0  0  0  0  0  0  0
   10.0661    4.0167  -14.0373 N   0  0  0  0  0  0  0  0  0  0  0  0
   13.6906    8.3004   -9.6233 O   0  0  0  0  0  0  0  0  0  0  0  0
    7.6357    4.5123  -12.6317 C   0  0  2  0  0  0  0  0  0  0  0  0
    6.8831    4.9171  -11.7031 C   0  0  2  0  0  0  0  0  0  0  0  0
   10.5937    6.6967   -9.1779 C   0  0  0  0  0  0  0  0  0  0  0  0
    9.5087    4.3263  -11.6925 C   0  0  2  0  0  0  0  0  0  0  0  0
   11.6359    7.4449   -8.9125 C   0  0  0  0  0  0  0  0  0  0  0  0
   11.9716    7.9159   -7.6200 C   0  0  0  0  0  0  0  0  0  0  0  0
    8.4648    3.6122  -12.2840 C   0  0  1  0  0  0  0  0  0  0  0  0
    7.9253    2.8004  -11.3926 C   0  0  0  0  0  0  0  0  0  0  0  0
    5.6047    4.5059  -11.7589 C   0  0  0  0  0  0  0  0  0  0  0  0
    7.6606    4.1297  -10.5699 C   0  0  0  0  0  0  0  0  0  0  0  0
   10.9559    7.6849   -6.6057 C   0  0  0  0  0  0  0  0  0  0  0  0
    8.0094    4.5092   -9.5664 C   0  0  0  0  0  0  0  0  0  0  0  0
    8.3033    4.0627   -8.4980 C   0  0  0  0  0  0  0  0  0  0  0  0
    6.3587    7.1012  -11.0392 O   0  0  0  0  0  0  0  0  0  0  0  0
   11.0186    3.9598  -14.9226 C   0  0  0  0  0  0  0  0  0  0  0  0
    8.1758    5.8633  -10.2511 C   0  0  1  0  0  0  0  0  0  0  0  0
   11.4648    2.7104  -15.2650 O   0  0  0  0  0  0  0  0  0  0  0  0
    9.9512    6.8220   -6.8436 C   0  0  0  0  0  0  0  0  0  0  0  0
    9.6899    6.3705   -8.1082 C   0  0  2  0  0  0  0  0  0  0  0  0
   11.2597    8.2901   -5.2396 C   0  0  0  0  0  0  0  0  0  0  0  0
   11.7295    4.9426  -15.4284 O   0  0  0  0  0  0  0  0  0  0  0  0
    9.0704    4.8312   -7.8318 C   0  0  0  0  0  0  0  0  0  0  0  0
    9.2457    2.8662  -13.7297 C   0  0  0  0  0  0  0  0  0  0  0  0
   11.6809    9.7568   -5.2561 C   0  0  0  0  0  0  0  0  0  0  0  0
   11.3736    7.7231   -4.0347 C   0  0  0  0  0  0  0  0  0  0  0  0
   11.9497   10.3557   -4.0438 C   0  0  0  0  0  0  0  0  0  0  0  0
   11.9581    9.5972   -2.8687 C   0  0  0  0  0  0  0  0  0  0  0  0
   11.7476    8.3859   -2.7871 C   0  0  0  0  0  0  0  0  0  0  0  0
  1  2  1  0  0  0  0
  2  3  1  0  0  0  0
  2  7  2  0  0  0  0
  4  3  1  6  0  0  0
  4  5  1  0  0  0  0
  4  6  1  0  0  0  0
  4  8  1  0  0  0  0
  5  9  2  0  0  0  0
  6 13  1  0  0  0  0
  7 12  1  0  0  0  0
  8 19  2  0  0  0  0
 10  7  1  1  0  0  0
 10 14  1  0  0  0  0
 10 17  1  0  0  0  0
 11  8  1  6  0  0  0
 11 20  1  0  0  0  0
 11 32  1  0  0  0  0
 12 18  1  0  0  0  0
 12 30  1  1  0  0  0
 12 32  1  0  0  0  0
 13 16  2  0  0  0  0
 13 21  1  0  0  0  0
 14  5  1  1  0  0  0
 14 15  1  0  0  0  0
 14 20  1  0  0  0  0
 15 31  1  0  0  0  0
 15 39  1  0  0  0  0
 17 18  1  0  0  0  0
 17 23  1  0  0  0  0
 18 25  1  0  0  0  0
 18 26  1  0  0  0  0
 19 21  1  0  0  0  0
 19 35  1  0  0  0  0
 20 23  1  0  0  0  0
 21 22  2  0  0  0  0
 22 27  1  0  0  0  0
 23 24  1  0  0  0  0
 23 39  1  0  0  0  0
 24 26  1  0  0  0  0
 26 28  2  0  0  0  0
 27 34  2  0  0  0  0
 27 36  1  0  0  0  0
 28 29  1  0  0  0  0
 28 32  1  0  0  0  0
 29 38  2  0  0  0  0
 31 33  2  0  0  0  0
 31 37  1  0  0  0  0
 34 35  1  0  0  0  0
 35 38  1  0  0  0  0
 36 40  1  0  0  0  0
 36 41  2  0  0  0  0
 40 42  2  0  0  0  0
 41 44  1  0  0  0  0
 42 43  1  0  0  0  0
 43 44  2  0  0  0  0
M  END
$$$$

 OpenBabel10082411353D

 44 55  0  0  0  0  0  0  0  0999 V2000
    8.0806    9.0240  -12.7589 C   0  0  0  0  0  0  0  0  0  0  0  0
    8.6514    7.8645  -12.2948 C   0  0  0  0  0  0  0  0  0  0  0  0
    9.9575    7.9974  -11.8426 C   0  0  0  0  0  0  0  0  0  0  0  0
   10.7657    6.8667  -11.6050 C   0  0  1  0  0  0  0  0  0  0  0  0
   10.7682    5.9590  -12.8271 C   0  0  0  0  0  0  0  0  0  0  0  0
   12.1553    7.3846  -11.2315 C   0  0  0  0  0  0  0  0  0  0  0  0
    8.0676    6.6451  -12.2974 C   0  0  0  0  0  0  0  0  0  0  0  0
   10.1892    6.1240  -10.3860 C   0  0  0  0  0  0  0  0  0  0  0  0
   11.8375    5.4373  -13.3240 O   0  0  0  0  0  0  0  0  0  0  0  0
    8.6785    5.4761  -13.0273 C   0  0  1  0  0  0  0  0  0  0  0  0
    9.1969    5.2405  -10.4969 C   0  0  2  0  0  0  0  0  0  0  0  0
    7.2213    6.2210  -11.3074 C   0  0  2  0  0  0  0  0  0  0  0  0
   12.5590    7.6872   -9.9896 C   0  0  0  0  0  0  0  0  0  0  0  0
    9.7633    5.0333  -12.9720 C   0  0  1  0  0  0  0  0  0  0  0  0
   10.0661    4.0167  -14.0373 N   0  0  0  0  0  0  0  0  0  0  0  0
   13.6906    8.3004   -9.6233 O   0  0  0  0  0  0  0  0  0  0  0  0
    7.6357    4.5123  -12.6317 C   0  0  2  0  0  0  0  0  0  0  0  0
    6.8831    4.9171  -11.7031 C   0  0  2  0  0  0  0  0  0  0  0  0
   10.5937    6.6967   -9.1779 C   0  0  0  0  0  0  0  0  0  0  0  0
    9.5087    4.3263  -11.6925 C   0  0  2  0  0  0  0  0  0  0  0  0
   11.6359    7.4449   -8.9125 C   0  0  0  0  0  0  0  0  0  0  0  0
   11.9716    7.9159   -7.6200 C   0  0  0  0  0  0  0  0  0  0  0  0
    8.4648    3.6122  -12.2840 C   0  0  1  0  0  0  0  0  0  0  0  0
    7.9253    2.8004  -11.3926 C   0  0  0  0  0  0  0  0  0  0  0  0
    5.6047    4.5059  -11.7589 C   0  0  0  0  0  0  0  0  0  0  0  0
    7.6606    4.1297  -10.5699 C   0  0  0  0  0  0  0  0  0  0  0  0
   10.9559    7.6849   -6.6057 C   0  0  0  0  0  0  0  0  0  0  0  0
    8.0094    4.5092   -9.5664 C   0  0  0  0  0  0  0  0  0  0  0  0
    8.3033    4.0627   -8.4980 C   0  0  0  0  0  0  0  0  0  0  0  0
    6.3587    7.1012  -11.0392 O   0  0  0  0  0  0  0  0  0  0  0  0
   11.0186    3.9598  -14.9226 C   0  0  0  0  0  0  0  0  0  0  0  0
    8.1758    5.8633  -10.2511 C   0  0  1  0  0  0  0  0  0  0  0  0
   11.4648    2.7104  -15.2650 O   0  0  0  0  0  0  0  0  0  0  0  0
    9.9512    6.8220   -6.8436 C   0  0  0  0  0  0  0  0  0  0  0  0
    9.6899    6.3705   -8.1082 C   0  0  2  0  0  0  0  0  0  0  0  0
   11.2597    8.2901   -5.2396 C   0  0  1  0  0  0  0  0  0  0  0  0
   11.7295    4.9426  -15.4284 O   0  0  0  0  0  0  0  0  0  0  0  0
    9.2745    4.9481   -7.8103 C   0  0  0  0  0  0  0  0  0  0  0  0
    9.2182    2.8872  -13.7570 C   0  0  0  0  0  0  0  0  0  0  0  0
   11.9188    7.5853   -4.3293 C   0  0  0  0  0  0  0  0  0  0  0  0
   11.7780    6.4589   -4.0859 C   0  0  0  0  0  0  0  0  0  0  0  0
   11.9095    9.6487   -5.4879 C   0  0  0  0  0  0  0  0  0  0  0  0
   12.3802   10.0276   -4.0636 C   0  0  0  0  0  0  0  0  0  0  0  0
   12.9483    8.4651   -3.5983 C   0  0  0  0  0  0  0  0  0  0  0  0
  1  2  1  0  0  0  0
  2  3  1  0  0  0  0
  2  7  2  0  0  0  0
  4  3  1  6  0  0  0
  4  5  1  0  0  0  0
  4  6  1  0  0  0  0
  4  8  1  0  0  0  0
  5  9  2  0  0  0  0
  6 13  1  0  0  0  0
  7 12  1  0  0  0  0
  8 19  2  0  0  0  0
 10  7  1  1  0  0  0
 10 14  1  0  0  0  0
 10 17  1  0  0  0  0
 11  8  1  6  0  0  0
 11 20  1  0  0  0  0
 11 32  1  0  0  0  0
 12 18  1  0  0  0  0
 12 30  1  1  0  0  0
 12 32  1  0  0  0  0
 13 16  2  0  0  0  0
 13 21  1  0  0  0  0
 14  5  1  1  0  0  0
 14 15  1  0  0  0  0
 14 20  1  0  0  0  0
 15 31  1  0  0  0  0
 15 39  1  0  0  0  0
 17 18  1  0  0  0  0
 17 23  1  0  0  0  0
 18 25  1  0  0  0  0
 18 26  1  0  0  0  0
 19 21  1  0  0  0  0
 19 35  1  0  0  0  0
 20 23  1  0  0  0  0
 21 22  2  0  0  0  0
 22 27  1  0  0  0  0
 23 24  1  0  0  0  0
 23 39  1  0  0  0  0
 24 26  1  0  0  0  0
 26 28  2  0  0  0  0
 27 34  2  0  0  0  0
 27 36  1  0  0  0  0
 28 29  1  0  0  0  0
 28 32  1  0  0  0  0
 29 38  1  0  0  0  0
 31 33  2  0  0  0  0
 31 37  1  0  0  0  0
 34 35  1  0  0  0  0
 35 38  1  0  0  0  0
 36 40  1  0  0  0  0
 36 42  1  0  0  0  0
 40 41  2  0  0  0  0
 40 44  1  0  0  0  0
 42 43  1  0  0  0  0
 43 44  1  0  0  0  0
M  END
$$$$

 OpenBabel10082411353D

 44 56  0  0  0  0  0  0  0  0999 V2000
    8.0806    9.0240  -12.7589 C   0  0  0  0  0  0  0  0  0  0  0  0
    8.6514    7.8645  -12.2948 C   0  0  0  0  0  0  0  0  0  0  0  0
    9.9575    7.9974  -11.8426 C   0  0  0  0  0  0  0  0  0  0  0  0
   10.7657    6.8667  -11.6050 C   0  0  1  0  0  0  0  0  0  0  0  0
   10.7682    5.9590  -12.8271 C   0  0  0  0  0  0  0  0  0  0  0  0
   12.1553    7.3846  -11.2315 C   0  0  0  0  0  0  0  0  0  0  0  0
    8.0676    6.6451  -12.2974 C   0  0  0  0  0  0  0  0  0  0  0  0
   10.1892    6.1240  -10.3860 C   0  0  0  0  0  0  0  0  0  0  0  0
   11.8375    5.4373  -13.3240 O   0  0  0  0  0  0  0  0  0  0  0  0
    8.6785    5.4761  -13.0273 C   0  0  1  0  0  0  0  0  0  0  0  0
    9.1969    5.2405  -10.4969 C   0  0  1  0  0  0  0  0  0  0  0  0
    7.2213    6.2210  -11.3074 C   0  0  1  0  0  0  0  0  0  0  0  0
   12.5590    7.6872   -9.9896 C   0  0  0  0  0  0  0  0  0  0  0  0
    9.7633    5.0333  -12.9720 C   0  0  1  0  0  0  0  0  0  0  0  0
   10.0661    4.0167  -14.0373 N   0  0  0  0  0  0  0  0  0  0  0  0
   13.6906    8.3004   -9.6233 O   0  0  0  0  0  0  0  0  0  0  0  0
    7.6357    4.5123  -12.6317 C   0  0  2  0  0  0  0  0  0  0  0  0
    6.8831    4.9171  -11.7031 C   0  0  1  0  0  0  0  0  0  0  0  0
   10.5937    6.6967   -9.1779 C   0  0  0  0  0  0  0  0  0  0  0  0
    9.5087    4.3263  -11.6925 C   0  0  2  0  0  0  0  0  0  0  0  0
   11.6359    7.4449   -8.9125 C   0  0  0  0  0  0  0  0  0  0  0  0
   11.9716    7.9159   -7.6200 C   0  0  0  0  0  0  0  0  0  0  0  0
    8.4648    3.6122  -12.2840 C   0  0  2  0  0  0  0  0  0  0  0  0
    9.3128    4.5571   -9.1689 C   0  0  0  0  0  0  0  0  0  0  0  0
   10.9557    7.6369   -6.5929 C   0  0  1  0  0  0  0  0  0  0  0  0
    9.6490    2.8108  -13.7776 C   0  0  1  0  0  0  0  0  0  0  0  0
    9.6716    6.1981   -8.0224 C   0  0  2  0  0  0  0  0  0  0  0  0
    8.5511    2.5400  -13.1402 C   0  0  0  0  0  0  0  0  0  0  0  0
    9.7877    2.0302  -15.0383 O   0  0  0  0  0  0  0  0  0  0  0  0
   10.2949    6.3957   -6.8142 C   0  0  1  0  0  0  0  0  0  0  0  0
   11.5672    7.6277   -5.2275 C   0  0  0  0  0  0  0  0  0  0  0  0
    9.0573    5.0713   -8.1077 N   0  0  0  0  0  0  0  0  0  0  0  0
    9.9816    8.7976   -6.5531 C   0  0  0  0  0  0  0  0  0  0  0  0
   11.0000    1.9397  -15.5744 C   0  0  0  0  0  0  0  0  0  0  0  0
    7.9363    5.6537  -10.4961 C   0  0  1  0  0  0  0  0  0  0  0  0
   11.7094    6.5344   -4.5880 C   0  0  0  0  0  0  0  0  0  0  0  0
   11.4771    5.4017   -5.2557 C   0  0  0  0  0  0  0  0  0  0  0  0
   10.9774    5.3782   -6.4193 C   0  0  0  0  0  0  0  0  0  0  0  0
   11.7702    8.9891   -4.6113 C   0  0  1  0  0  0  0  0  0  0  0  0
   10.6199    9.7777   -4.4950 C   0  0  0  0  0  0  0  0  0  0  0  0
   12.2760    8.5933   -3.2722 C   0  0  0  0  0  0  0  0  0  0  0  0
    8.9573    8.8136   -7.4817 O   0  0  0  0  0  0  0  0  0  0  0  0
    9.8981    9.8281   -5.7064 N   0  0  0  0  0  0  0  0  0  0  0  0
   12.2651    6.7850   -3.2181 C   0  0  0  0  0  0  0  0  0  0  0  0
  1  2  1  0  0  0  0
  2  3  1  0  0  0  0
  2  7  2  0  0  0  0
  4  3  1  6  0  0  0
  4  5  1  0  0  0  0
  4  6  1  0  0  0  0
  4  8  1  0  0  0  0
  5  9  2  0  0  0  0
  6 13  1  0  0  0  0
  8 11  1  0  0  0  0
  8 19  2  0  0  0  0
 10  7  1  1  0  0  0
 10 14  1  0  0  0  0
 10 17  1  0  0  0  0
 11 20  1  0  0  0  0
 11 24  1  1  0  0  0
 11 35  1  0  0  0  0
 12  7  1  6  0  0  0
 12 18  1  0  0  0  0
 12 35  1  0  0  0  0
 13 16  2  0  0  0  0
 13 21  1  0  0  0  0
 14  5  1  1  0  0  0
 14 15  1  0  0  0  0
 14 20  1  0  0  0  0
 15 26  1  0  0  0  0
 17 18  1  0  0  0  0
 17 23  1  0  0  0  0
 18 35  1  0  0  0  0
 19 21  1  0  0  0  0
 19 27  1  0  0  0  0
 20 23  1  0  0  0  0
 21 22  2  0  0  0  0
 22 25  1  0  0  0  0
 23 28  1  0  0  0  0
 24 32  2  0  0  0  0
 25 30  1  0  0  0  0
 25 31  1  0  0  0  0
 25 33  1  0  0  0  0
 26 28  1  0  0  0  0
 26 29  1  0  0  0  0
 27 30  1  0  0  0  0
 27 32  1  0  0  0  0
 29 34  1  0  0  0  0
 30 38  1  0  0  0  0
 31 36  2  0  0  0  0
 31 39  1  0  0  0  0
 33 42  2  0  0  0  0
 33 43  1  0  0  0  0
 36 37  1  0  0  0  0
 36 44  1  0  0  0  0
 37 38  2  0  0  0  0
 39 40  1  0  0  0  0
 39 41  1  0  0  0  0
 40 43  1  0  0  0  0
 41 44  1  0  0  0  0
M  END
$$$$

 OpenBabel10082411353D

 27 31  0  0  0  0  0  0  0  0999 V2000
   12.7863    7.8241  -14.2109 C   0  0  0  0  0  0  0  0  0  0  0  0
   12.4233    7.7158  -13.0289 C   0  0  0  0  0  0  0  0  0  0  0  0
   12.9219    8.1949  -11.8668 C   0  0  0  0  0  0  0  0  0  0  0  0
   11.4275    6.6086  -12.7931 C   0  0  0  0  0  0  0  0  0  0  0  0
   10.3411    6.8404  -12.0679 C   0  0  0  0  0  0  0  0  0  0  0  0
   10.7226    7.4332  -10.7281 C   0  0  0  0  0  0  0  0  0  0  0  0
   11.9330    8.1749  -10.6718 C   0  0  0  0  0  0  0  0  0  0  0  0
    9.1847    5.7774  -11.9431 C   0  0  1  0  0  0  0  0  0  0  0  0
    9.7417    7.5228   -9.7082 N   0  0  0  0  0  0  0  0  0  0  0  0
   10.0226    8.3874   -8.6769 C   0  0  0  0  0  0  0  0  0  0  0  0
   10.1341    7.7462   -7.2543 C   0  0  0  0  0  0  0  0  0  0  0  0
   11.3271    5.6181  -13.9601 C   0  0  0  0  0  0  0  0  0  0  0  0
   10.9489    8.3545   -6.3454 C   0  0  0  0  0  0  0  0  0  0  0  0
    9.4721    6.6206   -6.8773 C   0  0  0  0  0  0  0  0  0  0  0  0
    9.6492    6.0782   -5.6819 C   0  0  0  0  0  0  0  0  0  0  0  0
    8.2853    6.1002  -13.0033 C   0  0  0  0  0  0  0  0  0  0  0  0
   12.8236    6.9905  -15.2601 C   0  0  0  0  0  0  0  0  0  0  0  0
    9.5654    4.3459  -12.0159 C   0  0  0  0  0  0  0  0  0  0  0  0
   10.5093    6.6444   -4.7816 C   0  0  0  0  0  0  0  0  0  0  0  0
   11.9406    5.9200  -15.1539 C   0  0  0  0  0  0  0  0  0  0  0  0
   11.1438    7.8057   -5.1130 C   0  0  0  0  0  0  0  0  0  0  0  0
   11.9928    8.4432   -4.1235 C   0  0  0  0  0  0  0  0  0  0  0  0
   10.3446    4.3205  -13.4672 C   0  0  1  0  0  0  0  0  0  0  0  0
    9.4023    3.9353  -14.4789 C   0  0  0  0  0  0  0  0  0  0  0  0
   11.4905    3.2373  -13.4459 C   0  0  0  0  0  0  0  0  0  0  0  0
    7.4980    4.7967  -13.4975 C   0  0  0  0  0  0  0  0  0  0  0  0
    8.1164    3.6838  -14.0071 C   0  0  0  0  0  0  0  0  0  0  0  0
  1  2  1  0  0  0  0
  1 17  2  0  0  0  0
  2  3  1  0  0  0  0
  2  4  2  0  0  0  0
  3  7  2  0  0  0  0
  4  5  1  0  0  0  0
  4 12  1  0  0  0  0
  5  6  2  0  0  0  0
  5  8  1  0  0  0  0
  6  7  1  0  0  0  0
  6  9  1  0  0  0  0
  8 16  1  6  0  0  0
  8 18  1  0  0  0  0
  9 10  1  0  0  0  0
 10 11  1  0  0  0  0
 11 13  1  0  0  0  0
 11 14  2  0  0  0  0
 12 20  2  0  0  0  0
 12 23  1  0  0  0  0
 13 21  2  0  0  0  0
 14 15  1  0  0  0  0
 15 19  2  0  0  0  0
 16 26  1  0  0  0  0
 17 20  1  0  0  0  0
 18 23  1  0  0  0  0
 19 21  1  0  0  0  0
 21 22  1  0  0  0  0
 23 24  1  0  0  0  0
 23 25  1  1  0  0  0
 24 27  1  0  0  0  0
 26 27  1  0  0  0  0
M  END
$$$$

 OpenBabel10082411353D

 44 50  0  0  0  0  0  0  0  0999 V2000
   11.6836    6.0105   -4.8831 F   0  0  0  0  0  0  0  0  0  0  0  0
   11.2562    7.2206   -5.0294 C   0  0  0  0  0  0  0  0  0  0  0  0
   12.0125    8.2418   -4.4408 C   0  0  0  0  0  0  0  0  0  0  0  0
   11.1918    7.2706   -6.5237 C   0  0  2  0  0  0  0  0  0  0  0  0
   11.6999    8.4488   -3.1704 F   0  0  0  0  0  0  0  0  0  0  0  0
    9.8648    7.0908   -4.5314 F   0  0  0  0  0  0  0  0  0  0  0  0
   11.6831    8.5291   -6.9682 C   0  0  1  0  0  0  0  0  0  0  0  0
   13.3042    8.0958   -4.5769 F   0  0  0  0  0  0  0  0  0  0  0  0
   10.0051    6.7877   -7.1387 C   0  0  2  0  0  0  0  0  0  0  0  0
   12.1549    9.4036   -6.0698 C   0  0  0  0  0  0  0  0  0  0  0  0
   11.7460    9.5074   -4.8672 O   0  0  0  0  0  0  0  0  0  0  0  0
   12.5684    8.5172   -7.8652 C   0  0  0  0  0  0  0  0  0  0  0  0
   10.4250    8.9412   -7.4869 C   0  0  0  0  0  0  0  0  0  0  0  0
    9.8902    5.4070   -7.8206 C   0  0  1  0  0  0  0  0  0  0  0  0
    8.7348    4.6919   -7.6168 C   0  0  0  0  0  0  0  0  0  0  0  0
    9.5887    7.8633   -8.0188 C   0  0  1  0  0  0  0  0  0  0  0  0
   10.0149    7.4671   -9.3945 C   0  0  0  0  0  0  0  0  0  0  0  0
    8.7013    3.5197   -8.2148 C   0  0  0  0  0  0  0  0  0  0  0  0
    9.3794    3.4628   -9.4166 C   0  0  0  0  0  0  0  0  0  0  0  0
    9.7670    8.0902  -10.5147 C   0  0  0  0  0  0  0  0  0  0  0  0
   10.1630    7.7248  -11.8028 C   0  0  0  0  0  0  0  0  0  0  0  0
   10.1363    4.5235   -9.8811 C   0  0  0  0  0  0  0  0  0  0  0  0
   10.2836    5.8862   -9.1314 C   0  0  2  0  0  0  0  0  0  0  0  0
    9.2642    7.6154  -12.7688 C   0  0  0  0  0  0  0  0  0  0  0  0
    9.7352    7.0429  -13.9890 C   0  0  0  0  0  0  0  0  0  0  0  0
    8.9431    5.9978  -14.4048 C   0  0  0  0  0  0  0  0  0  0  0  0
    8.0476    5.1914  -13.6918 C   0  0  0  0  0  0  0  0  0  0  0  0
    8.1490    3.7734  -13.7660 C   0  0  0  0  0  0  0  0  0  0  0  0
    7.0453    3.1418  -12.9717 C   0  0  0  0  0  0  0  0  0  0  0  0
    6.2338    3.8839  -12.1754 C   0  0  0  0  0  0  0  0  0  0  0  0
   10.8369    7.3431  -14.6932 C   0  0  0  0  0  0  0  0  0  0  0  0
    7.2107    5.8505  -12.7998 C   0  0  0  0  0  0  0  0  0  0  0  0
    5.3001    3.0920  -11.3306 F   0  0  0  0  0  0  0  0  0  0  0  0
    7.8586    7.9143  -12.4857 C   0  0  0  0  0  0  0  0  0  0  0  0
    6.3696    5.0319  -12.1370 C   0  0  0  0  0  0  0  0  0  0  0  0
    6.9659    7.0740  -12.5678 C   0  0  0  0  0  0  0  0  0  0  0  0
   11.6802    6.2859  -15.0974 C   0  0  0  0  0  0  0  0  0  0  0  0
   11.4895    5.0617  -14.5281 C   0  0  0  0  0  0  0  0  0  0  0  0
   11.6883    3.9380  -15.1014 C   0  0  0  0  0  0  0  0  0  0  0  0
   11.4745    2.5827  -14.5535 C   0  0  0  0  0  0  0  0  0  0  0  0
   12.6629    6.4155  -15.9530 C   0  0  0  0  0  0  0  0  0  0  0  0
   12.9423    7.7359  -16.4453 O   0  0  0  0  0  0  0  0  0  0  0  0
   13.1728    5.2880  -16.6073 C   0  0  0  0  0  0  0  0  0  0  0  0
   12.8795    3.9221  -16.0809 C   0  0  0  0  0  0  0  0  0  0  0  0
  1  2  1  0  0  0  0
  2  3  1  0  0  0  0
  2  6  1  0  0  0  0
  3  5  1  0  0  0  0
  3  8  1  0  0  0  0
  3 11  1  0  0  0  0
  4  2  1  1  0  0  0
  4  7  1  0  0  0  0
  4  9  1  0  0  0  0
  7 10  1  0  0  0  0
  7 12  1  6  0  0  0
  7 13  1  0  0  0  0
  9 14  1  0  0  0  0
  9 16  1  0  0  0  0
 10 11  1  0  0  0  0
 13 16  1  0  0  0  0
 14 15  1  0  0  0  0
 14 23  1  0  0  0  0
 15 18  2  0  0  0  0
 16 17  1  0  0  0  0
 17 20  2  3  0  0  0
 17 23  1  0  0  0  0
 18 19  1  0  0  0  0
 19 22  2  0  0  0  0
 20 21  1  0  0  0  0
 21 24  2  3  0  0  0
 22 23  1  0  0  0  0
 24 25  1  0  0  0  0
 24 34  1  0  0  0  0
 25 26  2  0  0  0  0
 25 31  1  0  0  0  0
 26 27  1  0  0  0  0
 27 28  2  0  0  0  0
 27 32  1  0  0  0  0
 28 29  1  0  0  0  0
 29 30  2  0  0  0  0
 30 33  1  0  0  0  0
 30 35  1  0  0  0  0
 31 37  1  0  0  0  0
 32 35  2  0  0  0  0
 32 36  1  0  0  0  0
 34 36  1  0  0  0  0
 37 38  1  0  0  0  0
 37 41  2  0  0  0  0
 38 39  2  0  0  0  0
 39 40  1  0  0  0  0
 39 44  1  0  0  0  0
 41 42  1  0  0  0  0
 41 43  1  0  0  0  0
 43 44  2  0  0  0  0
M  END
$$$$

 OpenBabel10082411353D

 44 51  0  0  0  0  0  0  0  0999 V2000
   11.6836    6.0105   -4.8831 C   0  0  0  0  0  0  0  0  0  0  0  0
   11.1291    7.0732   -5.4395 C   0  0  0  0  0  0  0  0  0  0  0  0
   10.6954    7.0156   -6.8073 C   0  0  0  0  0  0  0  0  0  0  0  0
   10.2502    8.1187   -7.5536 C   0  0  2  0  0  0  0  0  0  0  0  0
   11.1205    8.4712   -4.9629 C   0  0  0  0  0  0  0  0  0  0  0  0
   10.8655    8.3511   -8.7960 C   0  0  0  0  0  0  0  0  0  0  0  0
   10.2922    7.8843   -9.9985 C   0  0  0  0  0  0  0  0  0  0  0  0
   10.4654    9.6993   -5.6120 C   0  0  0  0  0  0  0  0  0  0  0  0
   10.3510    9.5971   -7.0014 C   0  0  0  0  0  0  0  0  0  0  0  0
   12.2462    6.3351   -3.5020 C   0  0  0  0  0  0  0  0  0  0  0  0
   11.0471    7.5309  -11.1063 C   0  0  0  0  0  0  0  0  0  0  0  0
   11.7288    8.6923   -3.6518 C   0  0  0  0  0  0  0  0  0  0  0  0
   12.3991    7.7501  -11.1145 C   0  0  0  0  0  0  0  0  0  0  0  0
   12.3738    7.7580   -2.9599 C   0  0  0  0  0  0  0  0  0  0  0  0
   13.1285    8.5075  -10.1661 O   0  0  0  0  0  0  0  0  0  0  0  0
    9.0407    7.3775  -10.0973 N   0  0  0  0  0  0  0  0  0  0  0  0
    8.9787    6.9473  -11.4664 N   0  0  0  0  0  0  0  0  0  0  0  0
   13.1012    7.4459  -12.3707 C   0  0  0  0  0  0  0  0  0  0  0  0
   12.2395    6.9724  -13.2444 C   0  0  0  0  0  0  0  0  0  0  0  0
   10.2768    7.0170  -11.9799 C   0  0  0  0  0  0  0  0  0  0  0  0
   12.9237    6.5822  -14.5759 O   0  0  0  0  0  0  0  0  0  0  0  0
   10.8906    6.6526  -13.2252 C   0  0  0  0  0  0  0  0  0  0  0  0
   12.2396    6.1290  -15.6916 C   0  0  0  0  0  0  0  0  0  0  0  0
    7.8036    6.1825  -11.9342 C   0  0  0  0  0  0  0  0  0  0  0  0
   12.5015    4.7115  -15.7686 C   0  0  0  0  0  0  0  0  0  0  0  0
    7.1685    6.9992  -12.8245 C   0  0  0  0  0  0  0  0  0  0  0  0
   11.2461    3.8540  -15.4851 C   0  0  1  0  0  0  0  0  0  0  0  0
    7.6237    4.9154  -11.6529 C   0  0  0  0  0  0  0  0  0  0  0  0
    6.6378    4.1960  -12.2267 C   0  0  0  0  0  0  0  0  0  0  0  0
    6.2717    2.7675  -11.9743 C   0  0  0  0  0  0  0  0  0  0  0  0
    6.6569    1.8873  -12.9460 C   0  0  0  0  0  0  0  0  0  0  0  0
    7.3895    8.4597  -13.1785 C   0  0  0  0  0  0  0  0  0  0  0  0
    6.3114    0.5653  -12.7247 C   0  0  0  0  0  0  0  0  0  0  0  0
    7.7684    2.0327  -13.9055 C   0  0  0  0  0  0  0  0  0  0  0  0
    6.9387   -0.3720  -13.7691 C   0  0  0  0  0  0  0  0  0  0  0  0
    8.4223    3.3339  -14.0264 C   0  0  0  0  0  0  0  0  0  0  0  0
    8.2908    1.0246  -14.6080 C   0  0  0  0  0  0  0  0  0  0  0  0
    7.8707   -0.1948  -14.5676 C   0  0  0  0  0  0  0  0  0  0  0  0
    9.4626    1.2359  -15.4581 C   0  0  0  0  0  0  0  0  0  0  0  0
    9.5078    3.5700  -14.8275 C   0  0  0  0  0  0  0  0  0  0  0  0
   10.0311    0.2230  -16.1860 C   0  0  0  0  0  0  0  0  0  0  0  0
    9.9733    2.5420  -15.4941 C   0  0  0  0  0  0  0  0  0  0  0  0
   10.1010    4.7049  -14.9523 O   0  0  0  0  0  0  0  0  0  0  0  0
   11.0768    2.8467  -16.1898 O   0  0  0  0  0  0  0  0  0  0  0  0
  1  2  1  0  0  0  0
  1 10  2  0  0  0  0
  2  3  1  0  0  0  0
  2  5  2  0  0  0  0
  3  4  1  0  0  0  0
  4  6  1  6  0  0  0
  4  9  1  0  0  0  0
  5  8  1  0  0  0  0
  5 12  1  0  0  0  0
  6  7  1  0  0  0  0
  7 11  1  0  0  0  0
  7 16  2  0  0  0  0
  8  9  1  0  0  0  0
 10 14  1  0  0  0  0
 11 13  2  0  0  0  0
 11 20  1  0  0  0  0
 12 14  2  0  0  0  0
 13 15  1  0  0  0  0
 13 18  1  0  0  0  0
 16 17  1  0  0  0  0
 17 20  1  0  0  0  0
 17 24  1  0  0  0  0
 18 19  2  0  0  0  0
 19 21  1  0  0  0  0
 19 22  1  0  0  0  0
 20 22  2  0  0  0  0
 21 23  1  0  0  0  0
 23 25  1  0  0  0  0
 24 26  2  3  0  0  0
 24 28  1  0  0  0  0
 26 32  1  0  0  0  0
 27 25  1  6  0  0  0
 27 43  1  0  0  0  0
 27 44  1  0  0  0  0
 28 29  2  0  0  0  0
 29 30  1  0  0  0  0
 30 31  1  0  0  0  0
 31 33  2  0  0  0  0
 31 34  1  0  0  0  0
 33 35  1  0  0  0  0
 34 36  2  0  0  0  0
 34 37  1  0  0  0  0
 35 38  1  0  0  0  0
 36 40  1  0  0  0  0
 37 38  1  0  0  0  0
 37 39  2  0  0  0  0
 39 41  1  0  0  0  0
 39 42  1  0  0  0  0
 40 42  2  0  0  0  0
 40 43  1  0  0  0  0
 42 44  1  0  0  0  0
M  END
$$$$

 OpenBabel10082411353D

 44 50  0  0  0  0  0  0  0  0999 V2000
   11.6836    6.0105   -4.8831 F   0  0  0  0  0  0  0  0  0  0  0  0
   11.2562    7.2206   -5.0294 C   0  0  0  0  0  0  0  0  0  0  0  0
   12.0125    8.2418   -4.4408 C   0  0  0  0  0  0  0  0  0  0  0  0
   11.1918    7.2706   -6.5237 C   0  0  2  0  0  0  0  0  0  0  0  0
   11.6999    8.4488   -3.1704 F   0  0  0  0  0  0  0  0  0  0  0  0
    9.8648    7.0908   -4.5314 F   0  0  0  0  0  0  0  0  0  0  0  0
   11.6831    8.5291   -6.9682 C   0  0  1  0  0  0  0  0  0  0  0  0
   13.3042    8.0958   -4.5769 F   0  0  0  0  0  0  0  0  0  0  0  0
   10.0051    6.7877   -7.1387 C   0  0  2  0  0  0  0  0  0  0  0  0
   12.1549    9.4036   -6.0698 C   0  0  0  0  0  0  0  0  0  0  0  0
   11.7460    9.5074   -4.8672 O   0  0  0  0  0  0  0  0  0  0  0  0
   12.5684    8.5172   -7.8652 C   0  0  0  0  0  0  0  0  0  0  0  0
   10.4250    8.9412   -7.4869 C   0  0  0  0  0  0  0  0  0  0  0  0
    9.8902    5.4070   -7.8206 C   0  0  1  0  0  0  0  0  0  0  0  0
    8.7348    4.6919   -7.6168 C   0  0  0  0  0  0  0  0  0  0  0  0
    9.5887    7.8633   -8.0188 C   0  0  1  0  0  0  0  0  0  0  0  0
   10.0149    7.4671   -9.3945 C   0  0  0  0  0  0  0  0  0  0  0  0
    8.7013    3.5197   -8.2148 C   0  0  0  0  0  0  0  0  0  0  0  0
    9.3794    3.4628   -9.4166 C   0  0  0  0  0  0  0  0  0  0  0  0
    9.7670    8.0902  -10.5147 C   0  0  0  0  0  0  0  0  0  0  0  0
   10.1630    7.7248  -11.8028 C   0  0  0  0  0  0  0  0  0  0  0  0
   10.1363    4.5235   -9.8811 C   0  0  0  0  0  0  0  0  0  0  0  0
   10.2836    5.8862   -9.1314 C   0  0  2  0  0  0  0  0  0  0  0  0
    9.2642    7.6154  -12.7688 C   0  0  0  0  0  0  0  0  0  0  0  0
    9.7352    7.0429  -13.9890 C   0  0  0  0  0  0  0  0  0  0  0  0
    8.9431    5.9978  -14.4048 C   0  0  0  0  0  0  0  0  0  0  0  0
    8.0476    5.1914  -13.6918 C   0  0  0  0  0  0  0  0  0  0  0  0
    8.1490    3.7734  -13.7660 C   0  0  0  0  0  0  0  0  0  0  0  0
    7.0453    3.1418  -12.9717 C   0  0  0  0  0  0  0  0  0  0  0  0
    6.2338    3.8839  -12.1754 C   0  0  0  0  0  0  0  0  0  0  0  0
   10.8369    7.3431  -14.6932 C   0  0  0  0  0  0  0  0  0  0  0  0
    7.2107    5.8505  -12.7998 C   0  0  0  0  0  0  0  0  0  0  0  0
    5.3001    3.0920  -11.3306 F   0  0  0  0  0  0  0  0  0  0  0  0
    7.8586    7.9143  -12.4857 C   0  0  0  0  0  0  0  0  0  0  0  0
    6.3696    5.0319  -12.1370 C   0  0  0  0  0  0  0  0  0  0  0  0
    6.9659    7.0740  -12.5678 C   0  0  0  0  0  0  0  0  0  0  0  0
   11.6802    6.2859  -15.0974 C   0  0  0  0  0  0  0  0  0  0  0  0
   11.4895    5.0617  -14.5281 C   0  0  0  0  0  0  0  0  0  0  0  0
   11.6883    3.9380  -15.1014 C   0  0  0  0  0  0  0  0  0  0  0  0
   12.5714    6.3735  -16.0141 C   0  0  0  0  0  0  0  0  0  0  0  0
   11.4888    2.6013  -14.4733 F   0  0  0  0  0  0  0  0  0  0  0  0
   12.8084    3.8383  -15.9707 C   0  0  0  0  0  0  0  0  0  0  0  0
   12.9813    7.6502  -16.5355 C   0  0  0  0  0  0  0  0  0  0  0  0
   13.0505    5.1121  -16.5664 C   0  0  0  0  0  0  0  0  0  0  0  0
  1  2  1  0  0  0  0
  2  3  1  0  0  0  0
  2  6  1  0  0  0  0
  3  5  1  0  0  0  0
  3  8  1  0  0  0  0
  3 11  1  0  0  0  0
  4  2  1  1  0  0  0
  4  7  1  0  0  0  0
  4  9  1  0  0  0  0
  7 10  1  0  0  0  0
  7 12  1  6  0  0  0
  7 13  1  0  0  0  0
  9 14  1  0  0  0  0
  9 16  1  0  0  0  0
 10 11  1  0  0  0  0
 13 16  1  0  0  0  0
 14 15  1  0  0  0  0
 14 23  1  0  0  0  0
 15 18  2  0  0  0  0
 16 17  1  0  0  0  0
 17 20  2  3  0  0  0
 17 23  1  0  0  0  0
 18 19  1  0  0  0  0
 19 22  2  0  0  0  0
 20 21  1  0  0  0  0
 21 24  2  3  0  0  0
 22 23  1  0  0  0  0
 24 25  1  0  0  0  0
 24 34  1  0  0  0  0
 25 26  2  0  0  0  0
 25 31  1  0  0  0  0
 26 27  1  0  0  0  0
 27 28  2  0  0  0  0
 27 32  1  0  0  0  0
 28 29  1  0  0  0  0
 29 30  2  0  0  0  0
 30 33  1  0  0  0  0
 30 35  1  0  0  0  0
 31 37  1  0  0  0  0
 32 35  2  0  0  0  0
 32 36  1  0  0  0  0
 34 36  1  0  0  0  0
 37 38  1  0  0  0  0
 37 40  2  0  0  0  0
 38 39  2  0  0  0  0
 39 41  1  0  0  0  0
 39 42  1  0  0  0  0
 40 43  1  0  0  0  0
 40 44  1  0  0  0  0
 42 44  2  0  0  0  0
M  END
$$$$

 OpenBabel10082411353D

 44 50  0  0  0  0  0  0  0  0999 V2000
   11.6836    6.0105   -4.8831 F   0  0  0  0  0  0  0  0  0  0  0  0
   11.2562    7.2206   -5.0294 C   0  0  0  0  0  0  0  0  0  0  0  0
   12.0125    8.2418   -4.4408 C   0  0  0  0  0  0  0  0  0  0  0  0
   11.1918    7.2706   -6.5237 C   0  0  0  0  0  0  0  0  0  0  0  0
   11.6999    8.4488   -3.1704 F   0  0  0  0  0  0  0  0  0  0  0  0
    9.8648    7.0908   -4.5314 F   0  0  0  0  0  0  0  0  0  0  0  0
   11.6831    8.5291   -6.9682 C   0  0  0  0  0  0  0  0  0  0  0  0
   10.4785    6.5189   -7.4033 C   0  0  0  0  0  0  0  0  0  0  0  0
   11.6979    8.6661   -8.4760 C   0  0  0  0  0  0  0  0  0  0  0  0
   11.6248    9.5853   -5.0030 C   0  0  0  0  0  0  0  0  0  0  0  0
   11.8604    9.7907   -6.2903 O   0  0  0  0  0  0  0  0  0  0  0  0
   13.3557    8.1748   -4.5947 F   0  0  0  0  0  0  0  0  0  0  0  0
   10.5427    6.6061   -8.7190 C   0  0  0  0  0  0  0  0  0  0  0  0
   11.1158    7.7103   -9.2540 C   0  0  0  0  0  0  0  0  0  0  0  0
   11.3757    7.6656  -10.5293 N   0  0  0  0  0  0  0  0  0  0  0  0
   10.7153    7.7096  -11.5405 C   0  0  0  0  0  0  0  0  0  0  0  0
   11.2483    7.4711  -12.8542 C   0  0  0  0  0  0  0  0  0  0  0  0
    9.3980    7.7820  -11.5398 C   0  0  0  0  0  0  0  0  0  0  0  0
    8.6055    7.5889  -12.6525 C   0  0  0  0  0  0  0  0  0  0  0  0
   12.7508    7.3705  -13.0162 O   0  0  0  0  0  0  0  0  0  0  0  0
   10.5299    7.1831  -13.9856 C   0  0  0  0  0  0  0  0  0  0  0  0
    7.0533    7.7371  -12.5396 C   0  0  0  0  0  0  0  0  0  0  0  0
   11.2041    6.8490  -15.2304 C   0  0  0  0  0  0  0  0  0  0  0  0
   11.6393    5.5333  -15.3864 C   0  0  0  0  0  0  0  0  0  0  0  0
    9.1955    7.2935  -13.8301 C   0  0  0  0  0  0  0  0  0  0  0  0
   12.5294    5.1116  -16.1609 C   0  0  0  0  0  0  0  0  0  0  0  0
   11.2315    4.4703  -14.3200 C   0  0  0  0  0  0  0  0  0  0  0  0
   13.0194    6.0876  -17.1697 C   0  0  0  0  0  0  0  0  0  0  0  0
   12.9874    3.8316  -16.1456 C   0  0  0  0  0  0  0  0  0  0  0  0
   12.3949    2.9126  -15.4671 C   0  0  0  0  0  0  0  0  0  0  0  0
   10.2274    4.8149  -13.2643 C   0  0  0  0  0  0  0  0  0  0  0  0
    8.9564    4.3798  -13.5553 C   0  0  0  0  0  0  0  0  0  0  0  0
    8.7030    2.9995  -13.6113 C   0  0  0  0  0  0  0  0  0  0  0  0
   11.4166    3.2431  -14.5460 C   0  0  0  0  0  0  0  0  0  0  0  0
    7.3695    2.5639  -13.4881 C   0  0  0  0  0  0  0  0  0  0  0  0
   10.5729    2.1979  -13.9272 C   0  0  0  0  0  0  0  0  0  0  0  0
    9.5358    2.1981  -13.9798 C   0  0  0  0  0  0  0  0  0  0  0  0
    6.4075    3.3743  -12.8151 C   0  0  0  0  0  0  0  0  0  0  0  0
    5.3763    2.6754  -12.1448 C   0  0  0  0  0  0  0  0  0  0  0  0
    7.1805    1.3042  -13.7776 C   0  0  0  0  0  0  0  0  0  0  0  0
    8.0534    0.5809  -14.5534 C   0  0  0  0  0  0  0  0  0  0  0  0
    9.3302    0.9590  -14.4821 C   0  0  0  0  0  0  0  0  0  0  0  0
    5.0410    1.4591  -12.5310 C   0  0  0  0  0  0  0  0  0  0  0  0
    5.9823    0.6844  -13.2623 C   0  0  0  0  0  0  0  0  0  0  0  0
  1  2  1  0  0  0  0
  2  3  1  0  0  0  0
  2  4  1  0  0  0  0
  2  6  1  0  0  0  0
  3  5  1  0  0  0  0
  3 10  1  0  0  0  0
  3 12  1  0  0  0  0
  4  7  1  0  0  0  0
  4  8  2  0  0  0  0
  7  9  2  0  0  0  0
  7 11  1  0  0  0  0
  8 13  1  0  0  0  0
  9 14  1  0  0  0  0
 10 11  1  0  0  0  0
 13 14  2  0  0  0  0
 14 15  1  0  0  0  0
 15 16  1  0  0  0  0
 16 17  1  0  0  0  0
 16 18  2  0  0  0  0
 17 20  1  0  0  0  0
 17 21  2  0  0  0  0
 18 19  1  0  0  0  0
 19 22  1  0  0  0  0
 19 25  2  0  0  0  0
 21 23  1  0  0  0  0
 21 25  1  0  0  0  0
 23 24  1  0  0  0  0
 24 26  2  0  0  0  0
 24 27  1  0  0  0  0
 26 28  1  0  0  0  0
 26 29  1  0  0  0  0
 27 31  1  0  0  0  0
 27 34  2  0  0  0  0
 29 30  2  0  0  0  0
 30 34  1  0  0  0  0
 31 32  2  0  0  0  0
 32 33  1  0  0  0  0
 33 35  1  0  0  0  0
 33 37  2  0  0  0  0
 34 36  1  0  0  0  0
 35 38  1  0  0  0  0
 35 40  2  0  0  0  0
 36 37  1  0  0  0  0
 37 42  1  0  0  0  0
 38 39  2  0  0  0  0
 39 43  1  0  0  0  0
 40 41  1  0  0  0  0
 40 44  1  0  0  0  0
 41 42  2  0  0  0  0
 43 44  2  0  0  0  0
M  END
$$$$

 OpenBabel10082411353D

 44 51  0  0  0  0  0  0  0  0999 V2000
   11.6836    6.0105   -4.8831 C   0  0  0  0  0  0  0  0  0  0  0  0
   11.1291    7.0732   -5.4395 C   0  0  0  0  0  0  0  0  0  0  0  0
   10.6954    7.0156   -6.8073 C   0  0  0  0  0  0  0  0  0  0  0  0
   10.2502    8.1187   -7.5536 C   0  0  2  0  0  0  0  0  0  0  0  0
   11.1205    8.4712   -4.9629 C   0  0  0  0  0  0  0  0  0  0  0  0
   10.8655    8.3511   -8.7960 C   0  0  0  0  0  0  0  0  0  0  0  0
   10.2922    7.8843   -9.9985 C   0  0  0  0  0  0  0  0  0  0  0  0
   10.4654    9.6993   -5.6120 C   0  0  0  0  0  0  0  0  0  0  0  0
   10.3510    9.5971   -7.0014 C   0  0  0  0  0  0  0  0  0  0  0  0
   12.2462    6.3351   -3.5020 C   0  0  0  0  0  0  0  0  0  0  0  0
   11.0471    7.5309  -11.1063 C   0  0  0  0  0  0  0  0  0  0  0  0
   11.7288    8.6923   -3.6518 C   0  0  0  0  0  0  0  0  0  0  0  0
   12.3991    7.7501  -11.1145 C   0  0  0  0  0  0  0  0  0  0  0  0
   12.3738    7.7580   -2.9599 C   0  0  0  0  0  0  0  0  0  0  0  0
   13.1285    8.5075  -10.1661 O   0  0  0  0  0  0  0  0  0  0  0  0
    9.0407    7.3775  -10.0973 N   0  0  0  0  0  0  0  0  0  0  0  0
    8.9787    6.9473  -11.4664 N   0  0  0  0  0  0  0  0  0  0  0  0
   13.1012    7.4459  -12.3707 C   0  0  0  0  0  0  0  0  0  0  0  0
   12.2395    6.9724  -13.2444 C   0  0  0  0  0  0  0  0  0  0  0  0
   10.2768    7.0170  -11.9799 C   0  0  0  0  0  0  0  0  0  0  0  0
   12.9237    6.5822  -14.5759 O   0  0  0  0  0  0  0  0  0  0  0  0
   10.8906    6.6526  -13.2252 C   0  0  0  0  0  0  0  0  0  0  0  0
   12.2396    6.1290  -15.6916 C   0  0  0  0  0  0  0  0  0  0  0  0
    7.8036    6.1825  -11.9342 C   0  0  0  0  0  0  0  0  0  0  0  0
   12.5015    4.7115  -15.7686 C   0  0  0  0  0  0  0  0  0  0  0  0
    7.1685    6.9992  -12.8245 C   0  0  0  0  0  0  0  0  0  0  0  0
   11.2461    3.8540  -15.4851 C   0  0  0  0  0  0  0  0  0  0  0  0
    7.6237    4.9154  -11.6529 C   0  0  0  0  0  0  0  0  0  0  0  0
    6.6378    4.1960  -12.2267 C   0  0  0  0  0  0  0  0  0  0  0  0
    6.2717    2.7675  -11.9743 C   0  0  0  0  0  0  0  0  0  0  0  0
    6.6569    1.8873  -12.9460 C   0  0  0  0  0  0  0  0  0  0  0  0
    7.3895    8.4597  -13.1785 C   0  0  0  0  0  0  0  0  0  0  0  0
    6.3114    0.5653  -12.7247 C   0  0  0  0  0  0  0  0  0  0  0  0
   11.3885    2.5830  -15.4863 O   0  0  0  0  0  0  0  0  0  0  0  0
    7.4815    2.1853  -14.0878 C   0  0  0  0  0  0  0  0  0  0  0  0
   10.0671    4.4249  -15.4648 O   0  0  0  0  0  0  0  0  0  0  0  0
    6.9068   -0.3393  -13.8429 C   0  0  0  0  0  0  0  0  0  0  0  0
    7.9156    3.5885  -14.2394 C   0  0  0  0  0  0  0  0  0  0  0  0
    7.9792    1.3984  -14.7530 C   0  0  0  0  0  0  0  0  0  0  0  0
    8.9112    1.7851  -15.8925 O   0  0  0  0  0  0  0  0  0  0  0  0
    8.7440    3.9164  -15.3109 C   0  0  0  0  0  0  0  0  0  0  0  0
    8.6778    2.9793  -16.4613 C   0  0  0  0  0  0  0  0  0  0  0  0
    7.0443    4.4899  -13.5805 C   0  0  0  0  0  0  0  0  0  0  0  0
    7.7400    0.0352  -14.7315 C   0  0  0  0  0  0  0  0  0  0  0  0
  1  2  1  0  0  0  0
  1 10  2  0  0  0  0
  2  3  1  0  0  0  0
  2  5  2  0  0  0  0
  3  4  1  0  0  0  0
  4  6  1  6  0  0  0
  4  9  1  0  0  0  0
  5  8  1  0  0  0  0
  5 12  1  0  0  0  0
  6  7  1  0  0  0  0
  7 11  1  0  0  0  0
  7 16  2  0  0  0  0
  8  9  1  0  0  0  0
 10 14  1  0  0  0  0
 11 13  2  0  0  0  0
 11 20  1  0  0  0  0
 12 14  2  0  0  0  0
 13 15  1  0  0  0  0
 13 18  1  0  0  0  0
 16 17  1  0  0  0  0
 17 20  1  0  0  0  0
 17 24  1  0  0  0  0
 18 19  2  0  0  0  0
 19 21  1  0  0  0  0
 19 22  1  0  0  0  0
 20 22  2  0  0  0  0
 21 23  1  0  0  0  0
 23 25  1  0  0  0  0
 24 26  2  3  0  0  0
 24 28  1  0  0  0  0
 25 27  1  0  0  0  0
 26 32  1  0  0  0  0
 27 34  2  0  0  0  0
 27 36  1  0  0  0  0
 28 29  2  0  0  0  0
 29 30  1  0  0  0  0
 29 43  1  0  0  0  0
 30 31  1  0  0  0  0
 31 33  2  0  0  0  0
 31 35  1  0  0  0  0
 33 37  1  0  0  0  0
 35 38  1  0  0  0  0
 35 39  2  0  0  0  0
 36 41  1  0  0  0  0
 37 44  2  0  0  0  0
 38 41  1  0  0  0  0
 38 43  2  0  0  0  0
 39 40  1  0  0  0  0
 39 44  1  0  0  0  0
 40 42  1  0  0  0  0
 41 42  2  0  0  0  0
M  END
$$$$

 OpenBabel10082411353D

 44 51  0  0  0  0  0  0  0  0999 V2000
   11.6836    6.0105   -4.8831 C   0  0  0  0  0  0  0  0  0  0  0  0
   11.1291    7.0732   -5.4395 C   0  0  0  0  0  0  0  0  0  0  0  0
   10.6954    7.0156   -6.8073 C   0  0  0  0  0  0  0  0  0  0  0  0
   10.2502    8.1187   -7.5536 C   0  0  2  0  0  0  0  0  0  0  0  0
   11.1205    8.4712   -4.9629 C   0  0  0  0  0  0  0  0  0  0  0  0
   10.8655    8.3511   -8.7960 C   0  0  0  0  0  0  0  0  0  0  0  0
   10.2922    7.8843   -9.9985 C   0  0  0  0  0  0  0  0  0  0  0  0
   10.4654    9.6993   -5.6120 C   0  0  0  0  0  0  0  0  0  0  0  0
   10.3510    9.5971   -7.0014 C   0  0  0  0  0  0  0  0  0  0  0  0
   12.2462    6.3351   -3.5020 C   0  0  0  0  0  0  0  0  0  0  0  0
   11.0471    7.5309  -11.1063 C   0  0  0  0  0  0  0  0  0  0  0  0
   11.7288    8.6923   -3.6518 C   0  0  0  0  0  0  0  0  0  0  0  0
   12.3991    7.7501  -11.1145 C   0  0  0  0  0  0  0  0  0  0  0  0
   12.3738    7.7580   -2.9599 C   0  0  0  0  0  0  0  0  0  0  0  0
   13.1285    8.5075  -10.1661 O   0  0  0  0  0  0  0  0  0  0  0  0
    9.0407    7.3775  -10.0973 N   0  0  0  0  0  0  0  0  0  0  0  0
    8.9787    6.9473  -11.4664 N   0  0  0  0  0  0  0  0  0  0  0  0
   13.1012    7.4459  -12.3707 C   0  0  0  0  0  0  0  0  0  0  0  0
   12.2395    6.9724  -13.2444 C   0  0  0  0  0  0  0  0  0  0  0  0
   10.2768    7.0170  -11.9799 C   0  0  0  0  0  0  0  0  0  0  0  0
   12.9237    6.5822  -14.5759 O   0  0  0  0  0  0  0  0  0  0  0  0
   10.8906    6.6526  -13.2252 C   0  0  0  0  0  0  0  0  0  0  0  0
   12.2396    6.1290  -15.6916 C   0  0  0  0  0  0  0  0  0  0  0  0
    7.8036    6.1825  -11.9342 C   0  0  0  0  0  0  0  0  0  0  0  0
   12.5015    4.7115  -15.7686 C   0  0  0  0  0  0  0  0  0  0  0  0
    7.1685    6.9992  -12.8245 C   0  0  0  0  0  0  0  0  0  0  0  0
   11.2461    3.8540  -15.4851 C   0  0  0  0  0  0  0  0  0  0  0  0
    7.6237    4.9154  -11.6529 C   0  0  0  0  0  0  0  0  0  0  0  0
    6.6378    4.1960  -12.2267 C   0  0  0  0  0  0  0  0  0  0  0  0
    6.2717    2.7675  -11.9743 C   0  0  0  0  0  0  0  0  0  0  0  0
    6.6569    1.8873  -12.9460 C   0  0  0  0  0  0  0  0  0  0  0  0
    7.3895    8.4597  -13.1785 C   0  0  0  0  0  0  0  0  0  0  0  0
    6.3114    0.5653  -12.7247 C   0  0  0  0  0  0  0  0  0  0  0  0
   11.3885    2.5830  -15.4863 O   0  0  0  0  0  0  0  0  0  0  0  0
    7.4815    2.1853  -14.0878 C   0  0  0  0  0  0  0  0  0  0  0  0
   10.0671    4.4249  -15.4648 O   0  0  0  0  0  0  0  0  0  0  0  0
    6.9068   -0.3393  -13.8429 C   0  0  0  0  0  0  0  0  0  0  0  0
    7.9156    3.5885  -14.2394 C   0  0  1  0  0  0  0  0  0  0  0  0
    7.9792    1.3984  -14.7530 C   0  0  0  0  0  0  0  0  0  0  0  0
    8.9112    1.7851  -15.8925 O   0  0  0  0  0  0  0  0  0  0  0  0
    8.7440    3.9164  -15.3109 C   0  0  2  0  0  0  0  0  0  0  0  0
    7.7501    0.0713  -14.7646 C   0  0  0  0  0  0  0  0  0  0  0  0
    8.9239    2.8405  -16.3664 C   0  0  0  0  0  0  0  0  0  0  0  0
    6.8356    4.2790  -13.6446 C   0  0  0  0  0  0  0  0  0  0  0  0
  1  2  1  0  0  0  0
  1 10  2  0  0  0  0
  2  3  1  0  0  0  0
  2  5  2  0  0  0  0
  3  4  1  0  0  0  0
  4  6  1  6  0  0  0
  4  9  1  0  0  0  0
  5  8  1  0  0  0  0
  5 12  1  0  0  0  0
  6  7  1  0  0  0  0
  7 11  1  0  0  0  0
  7 16  2  0  0  0  0
  8  9  1  0  0  0  0
 10 14  1  0  0  0  0
 11 13  2  0  0  0  0
 11 20  1  0  0  0  0
 12 14  2  0  0  0  0
 13 15  1  0  0  0  0
 13 18  1  0  0  0  0
 16 17  1  0  0  0  0
 17 20  1  0  0  0  0
 17 24  1  0  0  0  0
 18 19  2  0  0  0  0
 19 21  1  0  0  0  0
 19 22  1  0  0  0  0
 20 22  2  0  0  0  0
 21 23  1  0  0  0  0
 23 25  1  0  0  0  0
 24 26  2  3  0  0  0
 24 28  1  0  0  0  0
 25 27  1  0  0  0  0
 26 32  1  0  0  0  0
 27 34  2  0  0  0  0
 27 36  1  0  0  0  0
 28 29  2  0  0  0  0
 29 30  1  0  0  0  0
 29 44  1  0  0  0  0
 30 31  1  0  0  0  0
 31 33  2  0  0  0  0
 31 35  1  0  0  0  0
 33 37  1  0  0  0  0
 35 38  1  0  0  0  0
 35 39  2  0  0  0  0
 36 41  1  0  0  0  0
 37 42  2  0  0  0  0
 38 41  1  0  0  0  0
 38 44  1  6  0  0  0
 39 40  1  0  0  0  0
 39 42  1  0  0  0  0
 40 43  1  0  0  0  0
 41 43  1  6  0  0  0
M  END
$$$$

 OpenBabel10082411353D

 44 54  0  0  0  0  0  0  0  0999 V2000
    8.0806    9.0240  -12.7589 C   0  0  0  0  0  0  0  0  0  0  0  0
    8.6514    7.8645  -12.2948 C   0  0  0  0  0  0  0  0  0  0  0  0
    9.9575    7.9974  -11.8426 C   0  0  0  0  0  0  0  0  0  0  0  0
   10.7657    6.8667  -11.6050 C   0  0  1  0  0  0  0  0  0  0  0  0
   10.7682    5.9590  -12.8271 C   0  0  0  0  0  0  0  0  0  0  0  0
   12.1553    7.3846  -11.2315 C   0  0  0  0  0  0  0  0  0  0  0  0
    8.0676    6.6451  -12.2974 C   0  0  0  0  0  0  0  0  0  0  0  0
   10.1892    6.1240  -10.3860 C   0  0  0  0  0  0  0  0  0  0  0  0
   11.8375    5.4373  -13.3240 O   0  0  0  0  0  0  0  0  0  0  0  0
    8.6785    5.4761  -13.0273 C   0  0  1  0  0  0  0  0  0  0  0  0
    9.1969    5.2405  -10.4969 C   0  0  2  0  0  0  0  0  0  0  0  0
    7.2213    6.2210  -11.3074 C   0  0  2  0  0  0  0  0  0  0  0  0
   12.5590    7.6872   -9.9896 C   0  0  0  0  0  0  0  0  0  0  0  0
    9.7633    5.0333  -12.9720 C   0  0  1  0  0  0  0  0  0  0  0  0
   10.0661    4.0167  -14.0373 N   0  0  0  0  0  0  0  0  0  0  0  0
   13.6906    8.3004   -9.6233 O   0  0  0  0  0  0  0  0  0  0  0  0
    7.6357    4.5123  -12.6317 C   0  0  2  0  0  0  0  0  0  0  0  0
    6.8831    4.9171  -11.7031 C   0  0  2  0  0  0  0  0  0  0  0  0
   10.5937    6.6967   -9.1779 C   0  0  0  0  0  0  0  0  0  0  0  0
    9.5087    4.3263  -11.6925 C   0  0  2  0  0  0  0  0  0  0  0  0
   11.6359    7.4449   -8.9125 C   0  0  0  0  0  0  0  0  0  0  0  0
   11.9716    7.9159   -7.6200 C   0  0  0  0  0  0  0  0  0  0  0  0
    8.4648    3.6122  -12.2840 C   0  0  1  0  0  0  0  0  0  0  0  0
    7.9253    2.8004  -11.3926 C   0  0  0  0  0  0  0  0  0  0  0  0
    5.6047    4.5059  -11.7589 C   0  0  0  0  0  0  0  0  0  0  0  0
    7.6606    4.1297  -10.5699 C   0  0  0  0  0  0  0  0  0  0  0  0
   10.9559    7.6849   -6.6057 C   0  0  0  0  0  0  0  0  0  0  0  0
    8.0094    4.5092   -9.5664 C   0  0  0  0  0  0  0  0  0  0  0  0
    8.3033    4.0627   -8.4980 C   0  0  0  0  0  0  0  0  0  0  0  0
    6.3587    7.1012  -11.0392 O   0  0  0  0  0  0  0  0  0  0  0  0
   11.0186    3.9598  -14.9226 C   0  0  0  0  0  0  0  0  0  0  0  0
    8.1758    5.8633  -10.2511 C   0  0  1  0  0  0  0  0  0  0  0  0
    9.4315    2.8557  -13.5931 C   0  0  0  0  0  0  0  0  0  0  0  0
   11.5906    2.6986  -15.1672 C   0  0  0  0  0  0  0  0  0  0  0  0
   11.2029    4.8307  -15.6614 O   0  0  0  0  0  0  0  0  0  0  0  0
    9.9720    6.7848   -6.8417 C   0  0  0  0  0  0  0  0  0  0  0  0
    8.6966    2.9850   -8.3465 O   0  0  0  0  0  0  0  0  0  0  0  0
    8.5860    5.0154   -7.5833 C   0  0  0  0  0  0  0  0  0  0  0  0
   11.3663    8.4216   -5.0482 S   0  0  0  0  0  0  0  0  0  0  0  0
    9.7695    6.3646   -8.0123 C   0  0  1  0  0  0  0  0  0  0  0  0
   12.3974    7.8808   -4.5038 O   0  0  0  0  0  0  0  0  0  0  0  0
   11.7013   10.0503   -5.4622 C   0  0  0  0  0  0  0  0  0  0  0  0
   10.0868    8.5425   -4.3098 O   0  0  0  0  0  0  0  0  0  0  0  0
    8.7235    5.6965   -8.3267 C   0  0  0  0  0  0  0  0  0  0  0  0
  1  2  1  0  0  0  0
  2  3  1  0  0  0  0
  2  7  2  0  0  0  0
  4  3  1  6  0  0  0
  4  5  1  0  0  0  0
  4  6  1  0  0  0  0
  4  8  1  0  0  0  0
  5  9  2  0  0  0  0
  6 13  1  0  0  0  0
  7 12  1  0  0  0  0
  8 19  2  0  0  0  0
 10  7  1  1  0  0  0
 10 14  1  0  0  0  0
 10 17  1  0  0  0  0
 11  8  1  6  0  0  0
 11 20  1  0  0  0  0
 11 32  1  0  0  0  0
 12 18  1  0  0  0  0
 12 30  1  1  0  0  0
 12 32  1  0  0  0  0
 13 16  2  0  0  0  0
 13 21  1  0  0  0  0
 14  5  1  1  0  0  0
 14 15  1  0  0  0  0
 14 20  1  0  0  0  0
 15 31  1  0  0  0  0
 15 33  1  0  0  0  0
 17 18  1  0  0  0  0
 17 23  1  0  0  0  0
 18 25  1  0  0  0  0
 18 26  1  0  0  0  0
 19 21  1  0  0  0  0
 19 40  1  0  0  0  0
 20 23  1  0  0  0  0
 21 22  2  0  0  0  0
 22 27  1  0  0  0  0
 23 24  1  0  0  0  0
 23 33  1  0  0  0  0
 24 26  1  0  0  0  0
 26 28  2  0  0  0  0
 27 36  2  0  0  0  0
 27 39  1  0  0  0  0
 28 29  1  0  0  0  0
 28 32  1  0  0  0  0
 29 37  2  0  0  0  0
 29 38  1  0  0  0  0
 31 34  1  0  0  0  0
 31 35  2  0  0  0  0
 36 40  1  0  0  0  0
 38 44  1  0  0  0  0
 39 41  2  0  0  0  0
 39 42  1  0  0  0  0
 39 43  2  0  0  0  0
 40 44  1  0  0  0  0
M  END
$$$$

 OpenBabel10082411353D

 44 55  0  0  0  0  0  0  0  0999 V2000
    8.0806    9.0240  -12.7589 C   0  0  0  0  0  0  0  0  0  0  0  0
    8.6514    7.8645  -12.2948 C   0  0  0  0  0  0  0  0  0  0  0  0
    9.9575    7.9974  -11.8426 C   0  0  0  0  0  0  0  0  0  0  0  0
   10.7657    6.8667  -11.6050 C   0  0  1  0  0  0  0  0  0  0  0  0
   10.7682    5.9590  -12.8271 C   0  0  0  0  0  0  0  0  0  0  0  0
   12.1553    7.3846  -11.2315 C   0  0  0  0  0  0  0  0  0  0  0  0
    8.0676    6.6451  -12.2974 C   0  0  0  0  0  0  0  0  0  0  0  0
   10.1892    6.1240  -10.3860 C   0  0  0  0  0  0  0  0  0  0  0  0
   11.8375    5.4373  -13.3240 O   0  0  0  0  0  0  0  0  0  0  0  0
    8.6785    5.4761  -13.0273 C   0  0  1  0  0  0  0  0  0  0  0  0
    9.1969    5.2405  -10.4969 C   0  0  2  0  0  0  0  0  0  0  0  0
    7.2213    6.2210  -11.3074 C   0  0  2  0  0  0  0  0  0  0  0  0
   12.5590    7.6872   -9.9896 C   0  0  0  0  0  0  0  0  0  0  0  0
    9.7633    5.0333  -12.9720 C   0  0  1  0  0  0  0  0  0  0  0  0
   10.0661    4.0167  -14.0373 N   0  0  0  0  0  0  0  0  0  0  0  0
   13.6906    8.3004   -9.6233 O   0  0  0  0  0  0  0  0  0  0  0  0
    7.6357    4.5123  -12.6317 C   0  0  2  0  0  0  0  0  0  0  0  0
    6.8831    4.9171  -11.7031 C   0  0  2  0  0  0  0  0  0  0  0  0
   10.5937    6.6967   -9.1779 C   0  0  0  0  0  0  0  0  0  0  0  0
    9.5087    4.3263  -11.6925 C   0  0  2  0  0  0  0  0  0  0  0  0
   11.6359    7.4449   -8.9125 C   0  0  0  0  0  0  0  0  0  0  0  0
   11.9716    7.9159   -7.6200 C   0  0  0  0  0  0  0  0  0  0  0  0
    8.4648    3.6122  -12.2840 C   0  0  1  0  0  0  0  0  0  0  0  0
    7.9253    2.8004  -11.3926 C   0  0  0  0  0  0  0  0  0  0  0  0
    5.6047    4.5059  -11.7589 C   0  0  0  0  0  0  0  0  0  0  0  0
    7.6606    4.1297  -10.5699 C   0  0  0  0  0  0  0  0  0  0  0  0
   10.9559    7.6849   -6.6057 C   0  0  0  0  0  0  0  0  0  0  0  0
    8.0094    4.5092   -9.5664 C   0  0  0  0  0  0  0  0  0  0  0  0
    8.3033    4.0627   -8.4980 C   0  0  0  0  0  0  0  0  0  0  0  0
    6.3587    7.1012  -11.0392 O   0  0  0  0  0  0  0  0  0  0  0  0
   11.0186    3.9598  -14.9226 C   0  0  0  0  0  0  0  0  0  0  0  0
    8.1758    5.8633  -10.2511 C   0  0  1  0  0  0  0  0  0  0  0  0
   11.4648    2.7104  -15.2650 O   0  0  0  0  0  0  0  0  0  0  0  0
    9.9512    6.8220   -6.8436 C   0  0  0  0  0  0  0  0  0  0  0  0
    9.6899    6.3705   -8.1082 C   0  0  2  0  0  0  0  0  0  0  0  0
   11.2597    8.2901   -5.2396 C   0  0  0  0  0  0  0  0  0  0  0  0
   11.6068    9.7354   -5.2006 C   0  0  0  0  0  0  0  0  0  0  0  0
    9.4261    2.7718  -13.6670 C   0  0  0  0  0  0  0  0  0  0  0  0
    9.1568    5.0346   -7.7426 C   0  0  0  0  0  0  0  0  0  0  0  0
   11.2083    4.9304  -15.6781 O   0  0  0  0  0  0  0  0  0  0  0  0
   11.3723    7.7138   -4.0322 C   0  0  0  0  0  0  0  0  0  0  0  0
   11.7763    8.7168   -2.9508 C   0  0  0  0  0  0  0  0  0  0  0  0
   11.0772    6.2897   -3.6970 C   0  0  0  0  0  0  0  0  0  0  0  0
   11.8421    9.9567   -3.7165 C   0  0  0  0  0  0  0  0  0  0  0  0
  1  2  1  0  0  0  0
  2  3  1  0  0  0  0
  2  7  2  0  0  0  0
  4  3  1  6  0  0  0
  4  5  1  0  0  0  0
  4  6  1  0  0  0  0
  4  8  1  0  0  0  0
  5  9  2  0  0  0  0
  6 13  1  0  0  0  0
  7 12  1  0  0  0  0
  8 19  2  0  0  0  0
 10  7  1  1  0  0  0
 10 14  1  0  0  0  0
 10 17  1  0  0  0  0
 11  8  1  6  0  0  0
 11 20  1  0  0  0  0
 11 32  1  0  0  0  0
 12 18  1  0  0  0  0
 12 30  1  1  0  0  0
 12 32  1  0  0  0  0
 13 16  2  0  0  0  0
 13 21  1  0  0  0  0
 14  5  1  1  0  0  0
 14 15  1  0  0  0  0
 14 20  1  0  0  0  0
 15 31  1  0  0  0  0
 15 38  1  0  0  0  0
 17 18  1  0  0  0  0
 17 23  1  0  0  0  0
 18 25  1  0  0  0  0
 18 26  1  0  0  0  0
 19 21  1  0  0  0  0
 19 35  1  0  0  0  0
 20 23  1  0  0  0  0
 21 22  2  0  0  0  0
 22 27  1  0  0  0  0
 23 24  1  0  0  0  0
 23 38  1  0  0  0  0
 24 26  1  0  0  0  0
 26 28  2  0  0  0  0
 27 34  2  0  0  0  0
 27 36  1  0  0  0  0
 28 29  1  0  0  0  0
 28 32  1  0  0  0  0
 29 39  1  0  0  0  0
 31 33  2  0  0  0  0
 31 40  1  0  0  0  0
 34 35  1  0  0  0  0
 35 39  1  0  0  0  0
 36 37  1  0  0  0  0
 36 41  2  0  0  0  0
 37 44  1  0  0  0  0
 41 42  1  0  0  0  0
 41 43  1  0  0  0  0
 42 44  2  0  0  0  0
M  END
$$$$

 OpenBabel10082411353D

 44 55  0  0  0  0  0  0  0  0999 V2000
    8.0806    9.0240  -12.7589 C   0  0  0  0  0  0  0  0  0  0  0  0
    8.6514    7.8645  -12.2948 C   0  0  0  0  0  0  0  0  0  0  0  0
    9.9575    7.9974  -11.8426 C   0  0  0  0  0  0  0  0  0  0  0  0
   10.7657    6.8667  -11.6050 C   0  0  1  0  0  0  0  0  0  0  0  0
   10.7682    5.9590  -12.8271 C   0  0  0  0  0  0  0  0  0  0  0  0
   12.1553    7.3846  -11.2315 C   0  0  0  0  0  0  0  0  0  0  0  0
    8.0676    6.6451  -12.2974 C   0  0  0  0  0  0  0  0  0  0  0  0
   10.1892    6.1240  -10.3860 C   0  0  0  0  0  0  0  0  0  0  0  0
   11.8375    5.4373  -13.3240 O   0  0  0  0  0  0  0  0  0  0  0  0
    8.6785    5.4761  -13.0273 C   0  0  1  0  0  0  0  0  0  0  0  0
    9.1969    5.2405  -10.4969 C   0  0  2  0  0  0  0  0  0  0  0  0
    7.2213    6.2210  -11.3074 C   0  0  2  0  0  0  0  0  0  0  0  0
   12.5590    7.6872   -9.9896 C   0  0  0  0  0  0  0  0  0  0  0  0
    9.7633    5.0333  -12.9720 C   0  0  1  0  0  0  0  0  0  0  0  0
   10.0661    4.0167  -14.0373 N   0  0  0  0  0  0  0  0  0  0  0  0
   13.6906    8.3004   -9.6233 O   0  0  0  0  0  0  0  0  0  0  0  0
    7.6357    4.5123  -12.6317 C   0  0  2  0  0  0  0  0  0  0  0  0
    6.8831    4.9171  -11.7031 C   0  0  2  0  0  0  0  0  0  0  0  0
   10.5937    6.6967   -9.1779 C   0  0  0  0  0  0  0  0  0  0  0  0
    9.5087    4.3263  -11.6925 C   0  0  2  0  0  0  0  0  0  0  0  0
   11.6359    7.4449   -8.9125 C   0  0  0  0  0  0  0  0  0  0  0  0
   11.9716    7.9159   -7.6200 C   0  0  0  0  0  0  0  0  0  0  0  0
    8.4648    3.6122  -12.2840 C   0  0  1  0  0  0  0  0  0  0  0  0
    7.9253    2.8004  -11.3926 C   0  0  0  0  0  0  0  0  0  0  0  0
    5.6047    4.5059  -11.7589 C   0  0  0  0  0  0  0  0  0  0  0  0
    7.6606    4.1297  -10.5699 C   0  0  0  0  0  0  0  0  0  0  0  0
   10.9559    7.6849   -6.6057 C   0  0  0  0  0  0  0  0  0  0  0  0
    8.0094    4.5092   -9.5664 C   0  0  0  0  0  0  0  0  0  0  0  0
    8.3033    4.0627   -8.4980 C   0  0  0  0  0  0  0  0  0  0  0  0
    6.3587    7.1012  -11.0392 O   0  0  0  0  0  0  0  0  0  0  0  0
   11.0186    3.9598  -14.9226 C   0  0  0  0  0  0  0  0  0  0  0  0
    8.1758    5.8633  -10.2511 C   0  0  1  0  0  0  0  0  0  0  0  0
   11.4648    2.7104  -15.2650 O   0  0  0  0  0  0  0  0  0  0  0  0
    9.9512    6.8220   -6.8436 C   0  0  0  0  0  0  0  0  0  0  0  0
    9.6899    6.3705   -8.1082 C   0  0  2  0  0  0  0  0  0  0  0  0
   11.2597    8.2901   -5.2396 C   0  0  0  0  0  0  0  0  0  0  0  0
   11.6068    9.7354   -5.2006 C   0  0  0  0  0  0  0  0  0  0  0  0
    9.4261    2.7718  -13.6670 C   0  0  0  0  0  0  0  0  0  0  0  0
    9.1568    5.0346   -7.7426 C   0  0  0  0  0  0  0  0  0  0  0  0
   10.9364    4.8633  -15.8499 O   0  0  0  0  0  0  0  0  0  0  0  0
   11.3730    7.7135   -4.0327 C   0  0  0  0  0  0  0  0  0  0  0  0
   11.7762    8.7167   -2.9513 C   0  0  0  0  0  0  0  0  0  0  0  0
   11.0776    6.2897   -3.6969 C   0  0  0  0  0  0  0  0  0  0  0  0
   11.8550    9.9930   -3.7522 C   0  0  0  0  0  0  0  0  0  0  0  0
  1  2  1  0  0  0  0
  2  3  1  0  0  0  0
  2  7  2  0  0  0  0
  4  3  1  6  0  0  0
  4  5  1  0  0  0  0
  4  6  1  0  0  0  0
  4  8  1  0  0  0  0
  5  9  2  0  0  0  0
  6 13  1  0  0  0  0
  7 12  1  0  0  0  0
  8 19  2  0  0  0  0
 10  7  1  1  0  0  0
 10 14  1  0  0  0  0
 10 17  1  0  0  0  0
 11  8  1  6  0  0  0
 11 20  1  0  0  0  0
 11 32  1  0  0  0  0
 12 18  1  0  0  0  0
 12 30  1  1  0  0  0
 12 32  1  0  0  0  0
 13 16  2  0  0  0  0
 13 21  1  0  0  0  0
 14  5  1  1  0  0  0
 14 15  1  0  0  0  0
 14 20  1  0  0  0  0
 15 31  1  0  0  0  0
 15 38  1  0  0  0  0
 17 18  1  0  0  0  0
 17 23  1  0  0  0  0
 18 25  1  0  0  0  0
 18 26  1  0  0  0  0
 19 21  1  0  0  0  0
 19 35  1  0  0  0  0
 20 23  1  0  0  0  0
 21 22  2  0  0  0  0
 22 27  1  0  0  0  0
 23 24  1  0  0  0  0
 23 38  1  0  0  0  0
 24 26  1  0  0  0  0
 26 28  2  0  0  0  0
 27 34  2  0  0  0  0
 27 36  1  0  0  0  0
 28 29  1  0  0  0  0
 28 32  1  0  0  0  0
 29 39  1  0  0  0  0
 31 33  2  0  0  0  0
 31 40  1  0  0  0  0
 34 35  1  0  0  0  0
 35 39  1  0  0  0  0
 36 37  1  0  0  0  0
 36 41  2  0  0  0  0
 37 44  1  0  0  0  0
 41 42  1  0  0  0  0
 41 43  1  0  0  0  0
 42 44  1  0  0  0  0
M  END
$$$$

 OpenBabel10082411353D

 44 51  0  0  0  0  0  0  0  0999 V2000
   11.6836    6.0105   -4.8831 C   0  0  0  0  0  0  0  0  0  0  0  0
   11.1291    7.0732   -5.4395 C   0  0  0  0  0  0  0  0  0  0  0  0
   10.6954    7.0156   -6.8073 C   0  0  0  0  0  0  0  0  0  0  0  0
   10.2502    8.1187   -7.5536 C   0  0  2  0  0  0  0  0  0  0  0  0
   11.1205    8.4712   -4.9629 C   0  0  0  0  0  0  0  0  0  0  0  0
   10.8655    8.3511   -8.7960 C   0  0  0  0  0  0  0  0  0  0  0  0
   10.2922    7.8843   -9.9985 C   0  0  0  0  0  0  0  0  0  0  0  0
   10.4654    9.6993   -5.6120 C   0  0  0  0  0  0  0  0  0  0  0  0
   10.3510    9.5971   -7.0014 C   0  0  0  0  0  0  0  0  0  0  0  0
   12.2462    6.3351   -3.5020 C   0  0  0  0  0  0  0  0  0  0  0  0
   11.0471    7.5309  -11.1063 C   0  0  0  0  0  0  0  0  0  0  0  0
   11.7288    8.6923   -3.6518 C   0  0  0  0  0  0  0  0  0  0  0  0
   12.3991    7.7501  -11.1145 C   0  0  0  0  0  0  0  0  0  0  0  0
   12.3738    7.7580   -2.9599 C   0  0  0  0  0  0  0  0  0  0  0  0
   13.1285    8.5075  -10.1661 O   0  0  0  0  0  0  0  0  0  0  0  0
    9.0407    7.3775  -10.0973 N   0  0  0  0  0  0  0  0  0  0  0  0
    8.9787    6.9473  -11.4664 N   0  0  0  0  0  0  0  0  0  0  0  0
   13.1012    7.4459  -12.3707 C   0  0  0  0  0  0  0  0  0  0  0  0
   12.2395    6.9724  -13.2444 C   0  0  0  0  0  0  0  0  0  0  0  0
   10.2768    7.0170  -11.9799 C   0  0  0  0  0  0  0  0  0  0  0  0
   12.9237    6.5822  -14.5759 O   0  0  0  0  0  0  0  0  0  0  0  0
   10.8906    6.6526  -13.2252 C   0  0  0  0  0  0  0  0  0  0  0  0
   12.2396    6.1290  -15.6916 C   0  0  0  0  0  0  0  0  0  0  0  0
    7.8036    6.1825  -11.9342 C   0  0  0  0  0  0  0  0  0  0  0  0
   12.5015    4.7115  -15.7686 C   0  0  0  0  0  0  0  0  0  0  0  0
    7.1685    6.9992  -12.8245 C   0  0  0  0  0  0  0  0  0  0  0  0
   11.2461    3.8540  -15.4851 C   0  0  0  0  0  0  0  0  0  0  0  0
    7.6237    4.9154  -11.6529 C   0  0  0  0  0  0  0  0  0  0  0  0
    6.6378    4.1960  -12.2267 C   0  0  0  0  0  0  0  0  0  0  0  0
    6.2717    2.7675  -11.9743 C   0  0  0  0  0  0  0  0  0  0  0  0
    6.6569    1.8873  -12.9460 C   0  0  0  0  0  0  0  0  0  0  0  0
    7.3895    8.4597  -13.1785 C   0  0  0  0  0  0  0  0  0  0  0  0
    6.3114    0.5653  -12.7247 C   0  0  0  0  0  0  0  0  0  0  0  0
   11.3885    2.5830  -15.4863 O   0  0  0  0  0  0  0  0  0  0  0  0
    7.4815    2.1853  -14.0878 C   0  0  0  0  0  0  0  0  0  0  0  0
   10.0671    4.4249  -15.4648 O   0  0  0  0  0  0  0  0  0  0  0  0
    6.9068   -0.3393  -13.8429 C   0  0  0  0  0  0  0  0  0  0  0  0
    7.9156    3.5885  -14.2394 C   0  0  1  0  0  0  0  0  0  0  0  0
    7.9792    1.3984  -14.7530 C   0  0  0  0  0  0  0  0  0  0  0  0
    8.9112    1.7851  -15.8925 O   0  0  0  0  0  0  0  0  0  0  0  0
    8.7440    3.9164  -15.3109 C   0  0  2  0  0  0  0  0  0  0  0  0
    7.7501    0.0713  -14.7646 C   0  0  0  0  0  0  0  0  0  0  0  0
    7.0977    4.4227  -13.4888 O   0  0  0  0  0  0  0  0  0  0  0  0
    9.0506    2.9032  -16.3230 C   0  0  0  0  0  0  0  0  0  0  0  0
  1  2  1  0  0  0  0
  1 10  2  0  0  0  0
  2  3  1  0  0  0  0
  2  5  2  0  0  0  0
  3  4  1  0  0  0  0
  4  6  1  6  0  0  0
  4  9  1  0  0  0  0
  5  8  1  0  0  0  0
  5 12  1  0  0  0  0
  6  7  1  0  0  0  0
  7 11  1  0  0  0  0
  7 16  2  0  0  0  0
  8  9  1  0  0  0  0
 10 14  1  0  0  0  0
 11 13  2  0  0  0  0
 11 20  1  0  0  0  0
 12 14  2  0  0  0  0
 13 15  1  0  0  0  0
 13 18  1  0  0  0  0
 16 17  1  0  0  0  0
 17 20  1  0  0  0  0
 17 24  1  0  0  0  0
 18 19  2  0  0  0  0
 19 21  1  0  0  0  0
 19 22  1  0  0  0  0
 20 22  2  0  0  0  0
 21 23  1  0  0  0  0
 23 25  1  0  0  0  0
 24 26  2  3  0  0  0
 24 28  1  0  0  0  0
 25 27  1  0  0  0  0
 26 32  1  0  0  0  0
 27 34  2  0  0  0  0
 27 36  1  0  0  0  0
 28 29  2  0  0  0  0
 29 30  1  0  0  0  0
 29 43  1  0  0  0  0
 30 31  1  0  0  0  0
 31 33  2  0  0  0  0
 31 35  1  0  0  0  0
 33 37  1  0  0  0  0
 35 39  2  0  0  0  0
 36 41  1  0  0  0  0
 37 42  2  0  0  0  0
 38 35  1  6  0  0  0
 38 41  1  0  0  0  0
 38 43  1  0  0  0  0
 39 40  1  0  0  0  0
 39 42  1  0  0  0  0
 40 44  1  0  0  0  0
 41 44  1  6  0  0  0
M  END
$$$$

 OpenBabel10082411353D

 27 31  0  0  0  0  0  0  0  0999 V2000
   12.8881    8.7759   -3.5681 C   0  0  0  0  0  0  0  0  0  0  0  0
   11.9416    9.4732   -4.1220 C   0  0  0  0  0  0  0  0  0  0  0  0
   12.1782    9.3707   -5.6407 C   0  0  0  0  0  0  0  0  0  0  0  0
   11.3825    8.3447   -6.3966 C   0  0  0  0  0  0  0  0  0  0  0  0
   11.8188    8.0044   -7.6822 C   0  0  0  0  0  0  0  0  0  0  0  0
   10.3120    7.6600   -5.7120 C   0  0  0  0  0  0  0  0  0  0  0  0
   10.8678    7.0723   -8.2897 C   0  0  0  0  0  0  0  0  0  0  0  0
    9.5717    6.7245   -6.3809 C   0  0  0  0  0  0  0  0  0  0  0  0
    9.8820    6.4468   -7.7081 C   0  0  0  0  0  0  0  0  0  0  0  0
   11.2611    6.6953   -9.7105 C   0  0  1  0  0  0  0  0  0  0  0  0
   10.0425    6.5460  -10.5971 C   0  0  0  0  0  0  0  0  0  0  0  0
   11.8062    7.8130  -10.4883 C   0  0  0  0  0  0  0  0  0  0  0  0
    8.8746    5.5265   -8.4149 C   0  0  0  0  0  0  0  0  0  0  0  0
   13.1546    8.1022  -10.4049 O   0  0  0  0  0  0  0  0  0  0  0  0
   10.3114    6.7627  -11.8786 C   0  0  0  0  0  0  0  0  0  0  0  0
   11.3906    7.6694  -11.8036 N   0  0  0  0  0  0  0  0  0  0  0  0
   11.9779    8.2398  -13.0316 C   0  0  0  0  0  0  0  0  0  0  0  0
    8.8154    6.0162   -9.9613 C   0  0  0  0  0  0  0  0  0  0  0  0
    9.6102    6.3636  -13.0859 C   0  0  0  0  0  0  0  0  0  0  0  0
   11.8804    7.4718  -14.1937 C   0  0  0  0  0  0  0  0  0  0  0  0
   10.7017    6.3981  -14.2482 C   0  0  0  0  0  0  0  0  0  0  0  0
   10.3813    5.8427  -15.4547 C   0  0  2  0  0  0  0  0  0  0  0  0
    9.2579    5.0507  -15.6184 C   0  0  0  0  0  0  0  0  0  0  0  0
   11.6009    5.0735  -15.6795 C   0  0  0  0  0  0  0  0  0  0  0  0
    9.6578    3.6391  -15.4657 C   0  0  0  0  0  0  0  0  0  0  0  0
   11.1117    3.5868  -15.6119 C   0  0  0  0  0  0  0  0  0  0  0  0
    8.8991    2.7199  -15.0281 O   0  0  0  0  0  0  0  0  0  0  0  0
  1  2  1  0  0  0  0
  2  3  1  0  0  0  0
  3  4  1  0  0  0  0
  4  5  2  0  0  0  0
  4  6  1  0  0  0  0
  5  7  1  0  0  0  0
  6  8  2  0  0  0  0
  7  9  2  0  0  0  0
  8  9  1  0  0  0  0
  9 13  1  0  0  0  0
 10  7  1  1  0  0  0
 10 11  1  0  0  0  0
 10 12  1  0  0  0  0
 11 15  2  0  0  0  0
 11 18  1  0  0  0  0
 12 14  2  0  0  0  0
 12 16  1  0  0  0  0
 13 18  1  0  0  0  0
 15 16  1  0  0  0  0
 15 19  1  0  0  0  0
 16 17  1  0  0  0  0
 17 20  1  0  0  0  0
 19 21  1  0  0  0  0
 20 21  2  0  0  0  0
 22 21  1  1  0  0  0
 22 23  1  0  0  0  0
 22 24  1  0  0  0  0
 23 25  1  0  0  0  0
 24 26  1  0  0  0  0
 25 26  1  0  0  0  0
 25 27  2  0  0  0  0
M  END
$$$$

 OpenBabel10082411353D

 12 13  0  0  0  0  0  0  0  0999 V2000
   10.5338    9.5630   -5.0683 C   0  0  0  0  0  0  0  0  0  0  0  0
   10.6529    8.9188   -6.2858 C   0  0  0  0  0  0  0  0  0  0  0  0
   11.6285    9.4290   -4.1493 C   0  0  0  0  0  0  0  0  0  0  0  0
    9.5925    9.0678   -7.3132 C   0  0  0  0  0  0  0  0  0  0  0  0
   10.0291    8.3478   -8.5888 C   0  0  0  0  0  0  0  0  0  0  0  0
   12.6887    8.6221   -4.3928 C   0  0  0  0  0  0  0  0  0  0  0  0
   11.6291    7.9637   -6.3634 C   0  0  0  0  0  0  0  0  0  0  0  0
   12.6177    7.8567   -5.5124 C   0  0  0  0  0  0  0  0  0  0  0  0
   11.7456    7.1466   -7.6302 C   0  0  0  0  0  0  0  0  0  0  0  0
   10.3397    6.9840   -8.3012 C   0  0  1  0  0  0  0  0  0  0  0  0
    9.4189    6.2726   -7.2807 C   0  0  0  0  0  0  0  0  0  0  0  0
    8.1769    5.9276   -7.7477 O   0  0  0  0  0  0  0  0  0  0  0  0
  1  2  1  0  0  0  0
  1  3  2  0  0  0  0
  2  4  1  0  0  0  0
  2  7  2  0  0  0  0
  3  6  1  0  0  0  0
  4  5  1  0  0  0  0
  5 10  1  0  0  0  0
  6  8  2  0  0  0  0
  7  8  1  0  0  0  0
  7  9  1  0  0  0  0
  9 10  1  0  0  0  0
 10 11  1  1  0  0  0
 11 12  1  0  0  0  0
M  END
$$$$

 OpenBabel10082411353D

 44 51  0  0  0  0  0  0  0  0999 V2000
   11.6836    6.0105   -4.8831 C   0  0  0  0  0  0  0  0  0  0  0  0
   11.1291    7.0732   -5.4395 C   0  0  0  0  0  0  0  0  0  0  0  0
   10.6954    7.0156   -6.8073 C   0  0  0  0  0  0  0  0  0  0  0  0
   10.2502    8.1187   -7.5536 C   0  0  2  0  0  0  0  0  0  0  0  0
   11.1205    8.4712   -4.9629 C   0  0  0  0  0  0  0  0  0  0  0  0
   10.8655    8.3511   -8.7960 C   0  0  0  0  0  0  0  0  0  0  0  0
   10.2922    7.8843   -9.9985 C   0  0  0  0  0  0  0  0  0  0  0  0
   10.4654    9.6993   -5.6120 C   0  0  0  0  0  0  0  0  0  0  0  0
   10.3510    9.5971   -7.0014 C   0  0  0  0  0  0  0  0  0  0  0  0
   12.2462    6.3351   -3.5020 C   0  0  0  0  0  0  0  0  0  0  0  0
   11.0471    7.5309  -11.1063 C   0  0  0  0  0  0  0  0  0  0  0  0
   11.7288    8.6923   -3.6518 C   0  0  0  0  0  0  0  0  0  0  0  0
   12.3991    7.7501  -11.1145 C   0  0  0  0  0  0  0  0  0  0  0  0
   12.3738    7.7580   -2.9599 C   0  0  0  0  0  0  0  0  0  0  0  0
   13.1285    8.5075  -10.1661 O   0  0  0  0  0  0  0  0  0  0  0  0
    9.0407    7.3775  -10.0973 N   0  0  0  0  0  0  0  0  0  0  0  0
    8.9787    6.9473  -11.4664 N   0  0  0  0  0  0  0  0  0  0  0  0
   13.1012    7.4459  -12.3707 C   0  0  0  0  0  0  0  0  0  0  0  0
   12.2395    6.9724  -13.2444 C   0  0  0  0  0  0  0  0  0  0  0  0
   10.2768    7.0170  -11.9799 C   0  0  0  0  0  0  0  0  0  0  0  0
   12.9237    6.5822  -14.5759 O   0  0  0  0  0  0  0  0  0  0  0  0
   10.8906    6.6526  -13.2252 C   0  0  0  0  0  0  0  0  0  0  0  0
   12.2396    6.1290  -15.6916 C   0  0  0  0  0  0  0  0  0  0  0  0
    7.8036    6.1825  -11.9342 C   0  0  0  0  0  0  0  0  0  0  0  0
   12.5015    4.7115  -15.7686 C   0  0  0  0  0  0  0  0  0  0  0  0
    7.1685    6.9992  -12.8245 C   0  0  0  0  0  0  0  0  0  0  0  0
   11.2461    3.8540  -15.4851 C   0  0  0  0  0  0  0  0  0  0  0  0
    7.6237    4.9154  -11.6529 C   0  0  0  0  0  0  0  0  0  0  0  0
    6.6378    4.1960  -12.2267 C   0  0  0  0  0  0  0  0  0  0  0  0
    6.2717    2.7675  -11.9743 C   0  0  0  0  0  0  0  0  0  0  0  0
    6.6569    1.8873  -12.9460 C   0  0  0  0  0  0  0  0  0  0  0  0
    7.3895    8.4597  -13.1785 C   0  0  0  0  0  0  0  0  0  0  0  0
    6.3114    0.5653  -12.7247 C   0  0  0  0  0  0  0  0  0  0  0  0
   11.3885    2.5830  -15.4863 O   0  0  0  0  0  0  0  0  0  0  0  0
    7.4815    2.1853  -14.0878 C   0  0  0  0  0  0  0  0  0  0  0  0
   10.0671    4.4249  -15.4648 O   0  0  0  0  0  0  0  0  0  0  0  0
    6.9068   -0.3393  -13.8429 C   0  0  0  0  0  0  0  0  0  0  0  0
    7.9156    3.5885  -14.2394 C   0  0  0  0  0  0  0  0  0  0  0  0
    7.9792    1.3984  -14.7530 C   0  0  0  0  0  0  0  0  0  0  0  0
    8.9112    1.7851  -15.8925 O   0  0  0  0  0  0  0  0  0  0  0  0
    8.7440    3.9164  -15.3109 C   0  0  2  0  0  0  0  0  0  0  0  0
    9.0141    2.9692  -16.1802 C   0  0  0  0  0  0  0  0  0  0  0  0
    7.8468   -0.0459  -14.8226 C   0  0  0  0  0  0  0  0  0  0  0  0
    7.0395    4.3806  -13.5317 C   0  0  0  0  0  0  0  0  0  0  0  0
  1  2  1  0  0  0  0
  1 10  2  0  0  0  0
  2  3  1  0  0  0  0
  2  5  2  0  0  0  0
  3  4  1  0  0  0  0
  4  6  1  6  0  0  0
  4  9  1  0  0  0  0
  5  8  1  0  0  0  0
  5 12  1  0  0  0  0
  6  7  1  0  0  0  0
  7 11  1  0  0  0  0
  7 16  2  0  0  0  0
  8  9  1  0  0  0  0
 10 14  1  0  0  0  0
 11 13  2  0  0  0  0
 11 20  1  0  0  0  0
 12 14  2  0  0  0  0
 13 15  1  0  0  0  0
 13 18  1  0  0  0  0
 16 17  1  0  0  0  0
 17 20  1  0  0  0  0
 17 24  1  0  0  0  0
 18 19  2  0  0  0  0
 19 21  1  0  0  0  0
 19 22  1  0  0  0  0
 20 22  2  0  0  0  0
 21 23  1  0  0  0  0
 23 25  1  0  0  0  0
 24 26  2  3  0  0  0
 24 28  1  0  0  0  0
 25 27  1  0  0  0  0
 26 32  1  0  0  0  0
 27 34  2  0  0  0  0
 27 36  1  0  0  0  0
 28 29  2  0  0  0  0
 29 30  1  0  0  0  0
 29 44  1  0  0  0  0
 30 31  1  0  0  0  0
 31 33  2  0  0  0  0
 31 35  1  0  0  0  0
 33 37  1  0  0  0  0
 35 38  1  0  0  0  0
 35 39  2  0  0  0  0
 36 41  1  0  0  0  0
 37 43  2  0  0  0  0
 38 41  1  0  0  0  0
 38 44  2  0  0  0  0
 39 40  1  0  0  0  0
 39 43  1  0  0  0  0
 40 42  1  0  0  0  0
 41 42  1  6  0  0  0
M  END
$$$$

 OpenBabel10082411353D

 44 55  0  0  0  0  0  0  0  0999 V2000
    8.0806    9.0240  -12.7589 C   0  0  0  0  0  0  0  0  0  0  0  0
    8.6514    7.8645  -12.2948 C   0  0  0  0  0  0  0  0  0  0  0  0
    9.9575    7.9974  -11.8426 C   0  0  0  0  0  0  0  0  0  0  0  0
   10.7657    6.8667  -11.6050 C   0  0  1  0  0  0  0  0  0  0  0  0
   10.7682    5.9590  -12.8271 C   0  0  0  0  0  0  0  0  0  0  0  0
   12.1553    7.3846  -11.2315 C   0  0  0  0  0  0  0  0  0  0  0  0
    8.0676    6.6451  -12.2974 C   0  0  0  0  0  0  0  0  0  0  0  0
   10.1892    6.1240  -10.3860 C   0  0  0  0  0  0  0  0  0  0  0  0
   11.8375    5.4373  -13.3240 O   0  0  0  0  0  0  0  0  0  0  0  0
    8.6785    5.4761  -13.0273 C   0  0  1  0  0  0  0  0  0  0  0  0
    9.1969    5.2405  -10.4969 C   0  0  2  0  0  0  0  0  0  0  0  0
    7.2213    6.2210  -11.3074 C   0  0  2  0  0  0  0  0  0  0  0  0
   12.5590    7.6872   -9.9896 C   0  0  0  0  0  0  0  0  0  0  0  0
    9.7633    5.0333  -12.9720 C   0  0  1  0  0  0  0  0  0  0  0  0
   10.0661    4.0167  -14.0373 N   0  0  0  0  0  0  0  0  0  0  0  0
   13.6906    8.3004   -9.6233 O   0  0  0  0  0  0  0  0  0  0  0  0
    7.6357    4.5123  -12.6317 C   0  0  2  0  0  0  0  0  0  0  0  0
    6.8831    4.9171  -11.7031 C   0  0  2  0  0  0  0  0  0  0  0  0
   10.5937    6.6967   -9.1779 C   0  0  0  0  0  0  0  0  0  0  0  0
    9.5087    4.3263  -11.6925 C   0  0  2  0  0  0  0  0  0  0  0  0
   11.6359    7.4449   -8.9125 C   0  0  0  0  0  0  0  0  0  0  0  0
   11.9716    7.9159   -7.6200 C   0  0  0  0  0  0  0  0  0  0  0  0
    8.4648    3.6122  -12.2840 C   0  0  1  0  0  0  0  0  0  0  0  0
    7.9253    2.8004  -11.3926 C   0  0  0  0  0  0  0  0  0  0  0  0
    5.6047    4.5059  -11.7589 C   0  0  0  0  0  0  0  0  0  0  0  0
    7.6606    4.1297  -10.5699 C   0  0  0  0  0  0  0  0  0  0  0  0
   10.9559    7.6849   -6.6057 C   0  0  0  0  0  0  0  0  0  0  0  0
    8.0094    4.5092   -9.5664 C   0  0  0  0  0  0  0  0  0  0  0  0
    8.3033    4.0627   -8.4980 C   0  0  0  0  0  0  0  0  0  0  0  0
    6.3587    7.1012  -11.0392 O   0  0  0  0  0  0  0  0  0  0  0  0
   11.0186    3.9598  -14.9226 C   0  0  0  0  0  0  0  0  0  0  0  0
    8.1758    5.8633  -10.2511 C   0  0  1  0  0  0  0  0  0  0  0  0
   11.4648    2.7104  -15.2650 O   0  0  0  0  0  0  0  0  0  0  0  0
    9.9512    6.8220   -6.8436 C   0  0  0  0  0  0  0  0  0  0  0  0
    9.6899    6.3705   -8.1082 C   0  0  2  0  0  0  0  0  0  0  0  0
   11.2597    8.2901   -5.2396 C   0  0  2  0  0  0  0  0  0  0  0  0
   11.6068    9.7354   -5.2006 C   0  0  0  0  0  0  0  0  0  0  0  0
   10.9469    4.9352  -15.8306 C   0  0  0  0  0  0  0  0  0  0  0  0
    9.2417    4.9555   -7.8256 C   0  0  0  0  0  0  0  0  0  0  0  0
   12.3456    7.6829   -4.5493 C   0  0  2  0  0  0  0  0  0  0  0  0
    9.3012    2.8326  -13.6309 C   0  0  0  0  0  0  0  0  0  0  0  0
   12.0581    6.3750   -4.0670 C   0  0  0  0  0  0  0  0  0  0  0  0
   12.4820    9.9005   -4.0311 C   0  0  0  0  0  0  0  0  0  0  0  0
   12.0965    8.9236   -3.0997 C   0  0  0  0  0  0  0  0  0  0  0  0
  1  2  1  0  0  0  0
  2  3  1  0  0  0  0
  2  7  2  0  0  0  0
  4  3  1  6  0  0  0
  4  5  1  0  0  0  0
  4  6  1  0  0  0  0
  4  8  1  0  0  0  0
  5  9  2  0  0  0  0
  6 13  1  0  0  0  0
  7 12  1  0  0  0  0
  8 19  2  0  0  0  0
 10  7  1  1  0  0  0
 10 14  1  0  0  0  0
 10 17  1  0  0  0  0
 11  8  1  6  0  0  0
 11 20  1  0  0  0  0
 11 32  1  0  0  0  0
 12 18  1  0  0  0  0
 12 30  1  1  0  0  0
 12 32  1  0  0  0  0
 13 16  2  0  0  0  0
 13 21  1  0  0  0  0
 14  5  1  1  0  0  0
 14 15  1  0  0  0  0
 14 20  1  0  0  0  0
 15 31  1  0  0  0  0
 15 41  1  0  0  0  0
 17 18  1  0  0  0  0
 17 23  1  0  0  0  0
 18 25  1  0  0  0  0
 18 26  1  0  0  0  0
 19 21  1  0  0  0  0
 19 35  1  0  0  0  0
 20 23  1  0  0  0  0
 21 22  2  0  0  0  0
 22 27  1  0  0  0  0
 23 24  1  0  0  0  0
 23 41  1  0  0  0  0
 24 26  1  0  0  0  0
 26 28  2  0  0  0  0
 27 34  2  0  0  0  0
 27 36  1  0  0  0  0
 28 29  1  0  0  0  0
 28 32  1  0  0  0  0
 29 39  2  0  0  0  0
 31 33  2  0  0  0  0
 31 38  1  0  0  0  0
 34 35  1  0  0  0  0
 35 39  1  0  0  0  0
 36 37  1  0  0  0  0
 36 40  1  0  0  0  0
 37 43  1  0  0  0  0
 40 42  1  0  0  0  0
 40 44  1  0  0  0  0
 43 44  1  0  0  0  0
M  END
$$$$

 OpenBabel10082411353D

 44 55  0  0  0  0  0  0  0  0999 V2000
    8.0806    9.0240  -12.7589 C   0  0  0  0  0  0  0  0  0  0  0  0
    8.6514    7.8645  -12.2948 C   0  0  0  0  0  0  0  0  0  0  0  0
    9.9575    7.9974  -11.8426 C   0  0  0  0  0  0  0  0  0  0  0  0
   10.7657    6.8667  -11.6050 C   0  0  1  0  0  0  0  0  0  0  0  0
   10.7682    5.9590  -12.8271 C   0  0  0  0  0  0  0  0  0  0  0  0
   12.1553    7.3846  -11.2315 C   0  0  0  0  0  0  0  0  0  0  0  0
    8.0676    6.6451  -12.2974 C   0  0  0  0  0  0  0  0  0  0  0  0
   10.1892    6.1240  -10.3860 C   0  0  0  0  0  0  0  0  0  0  0  0
   11.8375    5.4373  -13.3240 O   0  0  0  0  0  0  0  0  0  0  0  0
    8.6785    5.4761  -13.0273 C   0  0  1  0  0  0  0  0  0  0  0  0
    9.1969    5.2405  -10.4969 C   0  0  2  0  0  0  0  0  0  0  0  0
    7.2213    6.2210  -11.3074 C   0  0  2  0  0  0  0  0  0  0  0  0
   12.5590    7.6872   -9.9896 C   0  0  0  0  0  0  0  0  0  0  0  0
    9.7633    5.0333  -12.9720 C   0  0  1  0  0  0  0  0  0  0  0  0
   10.0661    4.0167  -14.0373 N   0  0  0  0  0  0  0  0  0  0  0  0
   13.6906    8.3004   -9.6233 O   0  0  0  0  0  0  0  0  0  0  0  0
    7.6357    4.5123  -12.6317 C   0  0  2  0  0  0  0  0  0  0  0  0
    6.8831    4.9171  -11.7031 C   0  0  2  0  0  0  0  0  0  0  0  0
   10.5937    6.6967   -9.1779 C   0  0  0  0  0  0  0  0  0  0  0  0
    9.5087    4.3263  -11.6925 C   0  0  2  0  0  0  0  0  0  0  0  0
   11.6359    7.4449   -8.9125 C   0  0  0  0  0  0  0  0  0  0  0  0
   11.9716    7.9159   -7.6200 C   0  0  0  0  0  0  0  0  0  0  0  0
    8.4648    3.6122  -12.2840 C   0  0  1  0  0  0  0  0  0  0  0  0
    7.9253    2.8004  -11.3926 C   0  0  0  0  0  0  0  0  0  0  0  0
    5.6047    4.5059  -11.7589 C   0  0  0  0  0  0  0  0  0  0  0  0
    7.6606    4.1297  -10.5699 C   0  0  0  0  0  0  0  0  0  0  0  0
   10.9559    7.6849   -6.6057 C   0  0  0  0  0  0  0  0  0  0  0  0
    8.0094    4.5092   -9.5664 C   0  0  0  0  0  0  0  0  0  0  0  0
    8.3033    4.0627   -8.4980 C   0  0  0  0  0  0  0  0  0  0  0  0
    6.3587    7.1012  -11.0392 O   0  0  0  0  0  0  0  0  0  0  0  0
   11.0186    3.9598  -14.9226 C   0  0  0  0  0  0  0  0  0  0  0  0
    8.1758    5.8633  -10.2511 C   0  0  1  0  0  0  0  0  0  0  0  0
   11.4648    2.7104  -15.2650 O   0  0  0  0  0  0  0  0  0  0  0  0
    9.9512    6.8220   -6.8436 C   0  0  0  0  0  0  0  0  0  0  0  0
    9.6899    6.3705   -8.1082 C   0  0  2  0  0  0  0  0  0  0  0  0
   11.2597    8.2901   -5.2396 C   0  0  0  0  0  0  0  0  0  0  0  0
   11.6068    9.7354   -5.2006 C   0  0  0  0  0  0  0  0  0  0  0  0
   10.9469    4.9352  -15.8306 C   0  0  0  0  0  0  0  0  0  0  0  0
    9.2417    4.9555   -7.8256 C   0  0  0  0  0  0  0  0  0  0  0  0
   11.3657    7.7043   -4.0379 C   0  0  0  0  0  0  0  0  0  0  0  0
    9.3036    2.8311  -13.6285 C   0  0  0  0  0  0  0  0  0  0  0  0
   11.4466   10.6213   -6.4141 C   0  0  0  0  0  0  0  0  0  0  0  0
   11.7824    8.7130   -2.9979 C   0  0  0  0  0  0  0  0  0  0  0  0
   11.8381   10.0328   -3.8563 C   0  0  0  0  0  0  0  0  0  0  0  0
  1  2  1  0  0  0  0
  2  3  1  0  0  0  0
  2  7  2  0  0  0  0
  4  3  1  6  0  0  0
  4  5  1  0  0  0  0
  4  6  1  0  0  0  0
  4  8  1  0  0  0  0
  5  9  2  0  0  0  0
  6 13  1  0  0  0  0
  7 12  1  0  0  0  0
  8 19  2  0  0  0  0
 10  7  1  1  0  0  0
 10 14  1  0  0  0  0
 10 17  1  0  0  0  0
 11  8  1  6  0  0  0
 11 20  1  0  0  0  0
 11 32  1  0  0  0  0
 12 18  1  0  0  0  0
 12 30  1  1  0  0  0
 12 32  1  0  0  0  0
 13 16  2  0  0  0  0
 13 21  1  0  0  0  0
 14  5  1  1  0  0  0
 14 15  1  0  0  0  0
 14 20  1  0  0  0  0
 15 31  1  0  0  0  0
 15 41  1  0  0  0  0
 17 18  1  0  0  0  0
 17 23  1  0  0  0  0
 18 25  1  0  0  0  0
 18 26  1  0  0  0  0
 19 21  1  0  0  0  0
 19 35  1  0  0  0  0
 20 23  1  0  0  0  0
 21 22  2  0  0  0  0
 22 27  1  0  0  0  0
 23 24  1  0  0  0  0
 23 41  1  0  0  0  0
 24 26  1  0  0  0  0
 26 28  2  0  0  0  0
 27 34  2  0  0  0  0
 27 36  1  0  0  0  0
 28 29  1  0  0  0  0
 28 32  1  0  0  0  0
 29 39  2  0  0  0  0
 31 33  2  0  0  0  0
 31 38  1  0  0  0  0
 34 35  1  0  0  0  0
 35 39  1  0  0  0  0
 36 37  1  0  0  0  0
 36 40  2  0  0  0  0
 37 42  1  0  0  0  0
 37 44  2  0  0  0  0
 40 43  1  0  0  0  0
 43 44  2  0  0  0  0
M  END
$$$$

 OpenBabel10082411353D

 44 54  0  0  0  0  0  0  0  0999 V2000
    8.0806    9.0240  -12.7589 C   0  0  0  0  0  0  0  0  0  0  0  0
    8.6514    7.8645  -12.2948 C   0  0  0  0  0  0  0  0  0  0  0  0
    9.9575    7.9974  -11.8426 C   0  0  0  0  0  0  0  0  0  0  0  0
   10.7657    6.8667  -11.6050 C   0  0  1  0  0  0  0  0  0  0  0  0
   10.7682    5.9590  -12.8271 C   0  0  0  0  0  0  0  0  0  0  0  0
   12.1553    7.3846  -11.2315 C   0  0  0  0  0  0  0  0  0  0  0  0
    8.0676    6.6451  -12.2974 C   0  0  0  0  0  0  0  0  0  0  0  0
   10.1892    6.1240  -10.3860 C   0  0  0  0  0  0  0  0  0  0  0  0
   11.8375    5.4373  -13.3240 O   0  0  0  0  0  0  0  0  0  0  0  0
    8.6785    5.4761  -13.0273 C   0  0  1  0  0  0  0  0  0  0  0  0
    9.1969    5.2405  -10.4969 C   0  0  2  0  0  0  0  0  0  0  0  0
    7.2213    6.2210  -11.3074 C   0  0  2  0  0  0  0  0  0  0  0  0
   12.5590    7.6872   -9.9896 C   0  0  0  0  0  0  0  0  0  0  0  0
    9.7633    5.0333  -12.9720 C   0  0  1  0  0  0  0  0  0  0  0  0
   10.0661    4.0167  -14.0373 N   0  0  0  0  0  0  0  0  0  0  0  0
   13.6906    8.3004   -9.6233 O   0  0  0  0  0  0  0  0  0  0  0  0
    7.6357    4.5123  -12.6317 C   0  0  2  0  0  0  0  0  0  0  0  0
    6.8831    4.9171  -11.7031 C   0  0  2  0  0  0  0  0  0  0  0  0
   10.5937    6.6967   -9.1779 C   0  0  0  0  0  0  0  0  0  0  0  0
    9.5087    4.3263  -11.6925 C   0  0  2  0  0  0  0  0  0  0  0  0
   11.6359    7.4449   -8.9125 C   0  0  0  0  0  0  0  0  0  0  0  0
   11.9716    7.9159   -7.6200 C   0  0  0  0  0  0  0  0  0  0  0  0
    8.4648    3.6122  -12.2840 C   0  0  1  0  0  0  0  0  0  0  0  0
    7.9253    2.8004  -11.3926 C   0  0  0  0  0  0  0  0  0  0  0  0
    5.6047    4.5059  -11.7589 C   0  0  0  0  0  0  0  0  0  0  0  0
    7.6606    4.1297  -10.5699 C   0  0  0  0  0  0  0  0  0  0  0  0
   10.9559    7.6849   -6.6057 C   0  0  0  0  0  0  0  0  0  0  0  0
    8.0094    4.5092   -9.5664 C   0  0  0  0  0  0  0  0  0  0  0  0
    8.3033    4.0627   -8.4980 C   0  0  0  0  0  0  0  0  0  0  0  0
    6.3587    7.1012  -11.0392 O   0  0  0  0  0  0  0  0  0  0  0  0
   11.0186    3.9598  -14.9226 C   0  0  0  0  0  0  0  0  0  0  0  0
    8.1758    5.8633  -10.2511 C   0  0  1  0  0  0  0  0  0  0  0  0
   11.4648    2.7104  -15.2650 O   0  0  0  0  0  0  0  0  0  0  0  0
    9.9512    6.8220   -6.8436 C   0  0  0  0  0  0  0  0  0  0  0  0
    9.6899    6.3705   -8.1082 C   0  0  2  0  0  0  0  0  0  0  0  0
    9.1306    2.9610  -13.9685 C   0  0  0  0  0  0  0  0  0  0  0  0
    8.8414    5.0113   -7.7726 C   0  0  0  0  0  0  0  0  0  0  0  0
   11.6944    4.9031  -15.4200 O   0  0  0  0  0  0  0  0  0  0  0  0
    8.7793    2.3885  -15.2552 C   0  0  0  0  0  0  0  0  0  0  0  0
    8.3931    2.5573  -13.0387 C   0  0  0  0  0  0  0  0  0  0  0  0
   11.2800    8.4781   -5.0847 C   0  0  0  0  0  0  0  0  0  0  0  0
   11.6780    9.8479   -5.2722 C   0  0  0  0  0  0  0  0  0  0  0  0
   10.1143    8.6108   -4.4439 C   0  0  0  0  0  0  0  0  0  0  0  0
   12.2225    7.9942   -4.3307 C   0  0  0  0  0  0  0  0  0  0  0  0
  1  2  1  0  0  0  0
  2  3  1  0  0  0  0
  2  7  2  0  0  0  0
  4  3  1  6  0  0  0
  4  5  1  0  0  0  0
  4  6  1  0  0  0  0
  4  8  1  0  0  0  0
  5  9  2  0  0  0  0
  6 13  1  0  0  0  0
  7 12  1  0  0  0  0
  8 19  2  0  0  0  0
 10  7  1  1  0  0  0
 10 14  1  0  0  0  0
 10 17  1  0  0  0  0
 11  8  1  6  0  0  0
 11 20  1  0  0  0  0
 11 32  1  0  0  0  0
 12 18  1  0  0  0  0
 12 30  1  1  0  0  0
 12 32  1  0  0  0  0
 13 16  2  0  0  0  0
 13 21  1  0  0  0  0
 14  5  1  1  0  0  0
 14 15  1  0  0  0  0
 14 20  1  0  0  0  0
 15 31  1  0  0  0  0
 15 36  1  0  0  0  0
 17 18  1  0  0  0  0
 17 23  1  0  0  0  0
 18 25  1  0  0  0  0
 18 26  1  0  0  0  0
 19 21  1  0  0  0  0
 19 35  1  0  0  0  0
 20 23  1  0  0  0  0
 21 22  2  0  0  0  0
 22 27  1  0  0  0  0
 23 24  1  0  0  0  0
 23 40  1  0  0  0  0
 24 26  1  0  0  0  0
 26 28  2  0  0  0  0
 27 34  2  0  0  0  0
 27 41  1  0  0  0  0
 28 29  1  0  0  0  0
 28 32  1  0  0  0  0
 29 37  2  0  0  0  0
 31 33  2  0  0  0  0
 31 38  1  0  0  0  0
 34 35  1  0  0  0  0
 35 37  1  0  0  0  0
 36 39  1  0  0  0  0
 36 40  2  0  0  0  0
 41 42  1  0  0  0  0
 41 43  1  0  0  0  0
 41 44  1  0  0  0  0
M  END
$$$$

 OpenBabel10082411353D

 44 54  0  0  0  0  0  0  0  0999 V2000
    8.0806    9.0240  -12.7589 C   0  0  0  0  0  0  0  0  0  0  0  0
    8.6514    7.8645  -12.2948 C   0  0  0  0  0  0  0  0  0  0  0  0
    9.9575    7.9974  -11.8426 C   0  0  0  0  0  0  0  0  0  0  0  0
   10.7657    6.8667  -11.6050 C   0  0  1  0  0  0  0  0  0  0  0  0
   10.7682    5.9590  -12.8271 C   0  0  0  0  0  0  0  0  0  0  0  0
   12.1553    7.3846  -11.2315 C   0  0  0  0  0  0  0  0  0  0  0  0
    8.0676    6.6451  -12.2974 C   0  0  0  0  0  0  0  0  0  0  0  0
   10.1892    6.1240  -10.3860 C   0  0  0  0  0  0  0  0  0  0  0  0
   11.8375    5.4373  -13.3240 O   0  0  0  0  0  0  0  0  0  0  0  0
    8.6785    5.4761  -13.0273 C   0  0  1  0  0  0  0  0  0  0  0  0
    9.1969    5.2405  -10.4969 C   0  0  2  0  0  0  0  0  0  0  0  0
    7.2213    6.2210  -11.3074 C   0  0  2  0  0  0  0  0  0  0  0  0
   12.5590    7.6872   -9.9896 C   0  0  0  0  0  0  0  0  0  0  0  0
    9.7633    5.0333  -12.9720 C   0  0  1  0  0  0  0  0  0  0  0  0
   10.0661    4.0167  -14.0373 N   0  0  0  0  0  0  0  0  0  0  0  0
   13.6906    8.3004   -9.6233 O   0  0  0  0  0  0  0  0  0  0  0  0
    7.6357    4.5123  -12.6317 C   0  0  2  0  0  0  0  0  0  0  0  0
    6.8831    4.9171  -11.7031 C   0  0  2  0  0  0  0  0  0  0  0  0
   10.5937    6.6967   -9.1779 C   0  0  0  0  0  0  0  0  0  0  0  0
    9.5087    4.3263  -11.6925 C   0  0  2  0  0  0  0  0  0  0  0  0
   11.6359    7.4449   -8.9125 C   0  0  0  0  0  0  0  0  0  0  0  0
   11.9716    7.9159   -7.6200 C   0  0  0  0  0  0  0  0  0  0  0  0
    8.4648    3.6122  -12.2840 C   0  0  1  0  0  0  0  0  0  0  0  0
    7.9253    2.8004  -11.3926 C   0  0  0  0  0  0  0  0  0  0  0  0
    5.6047    4.5059  -11.7589 C   0  0  0  0  0  0  0  0  0  0  0  0
    7.6606    4.1297  -10.5699 C   0  0  0  0  0  0  0  0  0  0  0  0
   10.9559    7.6849   -6.6057 C   0  0  0  0  0  0  0  0  0  0  0  0
    8.0094    4.5092   -9.5664 C   0  0  0  0  0  0  0  0  0  0  0  0
    8.3033    4.0627   -8.4980 C   0  0  0  0  0  0  0  0  0  0  0  0
    6.3587    7.1012  -11.0392 O   0  0  0  0  0  0  0  0  0  0  0  0
   11.0186    3.9598  -14.9226 C   0  0  0  0  0  0  0  0  0  0  0  0
    8.1758    5.8633  -10.2511 C   0  0  1  0  0  0  0  0  0  0  0  0
    9.4315    2.8557  -13.5931 C   0  0  0  0  0  0  0  0  0  0  0  0
   11.5906    2.6986  -15.1672 C   0  0  0  0  0  0  0  0  0  0  0  0
   11.2029    4.8307  -15.6614 O   0  0  0  0  0  0  0  0  0  0  0  0
    9.9720    6.7848   -6.8417 C   0  0  0  0  0  0  0  0  0  0  0  0
    8.6966    2.9850   -8.3465 O   0  0  0  0  0  0  0  0  0  0  0  0
    8.5860    5.0154   -7.5833 C   0  0  0  0  0  0  0  0  0  0  0  0
   11.3663    8.4216   -5.0482 S   0  0  0  0  0  0  0  0  0  0  0  0
    9.6720    6.2282   -7.9788 C   0  0  2  0  0  0  0  0  0  0  0  0
   12.0887    9.7017   -5.2869 O   0  0  0  0  0  0  0  0  0  0  0  0
   12.3223    7.3900   -4.1631 C   0  0  0  0  0  0  0  0  0  0  0  0
   10.1762    8.8642   -4.1820 O   0  0  0  0  0  0  0  0  0  0  0  0
   12.8199    7.9732   -2.9567 C   0  0  0  0  0  0  0  0  0  0  0  0
  1  2  1  0  0  0  0
  2  3  1  0  0  0  0
  2  7  2  0  0  0  0
  4  3  1  6  0  0  0
  4  5  1  0  0  0  0
  4  6  1  0  0  0  0
  4  8  1  0  0  0  0
  5  9  2  0  0  0  0
  6 13  1  0  0  0  0
  7 12  1  0  0  0  0
  8 19  2  0  0  0  0
 10  7  1  1  0  0  0
 10 14  1  0  0  0  0
 10 17  1  0  0  0  0
 11  8  1  6  0  0  0
 11 20  1  0  0  0  0
 11 32  1  0  0  0  0
 12 18  1  0  0  0  0
 12 30  1  1  0  0  0
 12 32  1  0  0  0  0
 13 16  2  0  0  0  0
 13 21  1  0  0  0  0
 14  5  1  1  0  0  0
 14 15  1  0  0  0  0
 14 20  1  0  0  0  0
 15 31  1  0  0  0  0
 15 33  1  0  0  0  0
 17 18  1  0  0  0  0
 17 23  1  0  0  0  0
 18 25  1  0  0  0  0
 18 26  1  0  0  0  0
 19 21  1  0  0  0  0
 19 40  1  0  0  0  0
 20 23  1  0  0  0  0
 21 22  2  0  0  0  0
 22 27  1  0  0  0  0
 23 24  1  0  0  0  0
 23 33  1  0  0  0  0
 24 26  1  0  0  0  0
 26 28  2  0  0  0  0
 27 36  2  0  0  0  0
 27 39  1  0  0  0  0
 28 29  1  0  0  0  0
 28 32  1  0  0  0  0
 29 37  2  0  0  0  0
 29 38  1  0  0  0  0
 31 34  1  0  0  0  0
 31 35  2  0  0  0  0
 36 40  1  0  0  0  0
 38 40  1  0  0  0  0
 39 41  2  0  0  0  0
 39 42  1  0  0  0  0
 39 43  2  0  0  0  0
 42 44  1  0  0  0  0
M  END
$$$$

 OpenBabel10082411353D

 44 55  0  0  0  0  0  0  0  0999 V2000
    8.0806    9.0240  -12.7589 C   0  0  0  0  0  0  0  0  0  0  0  0
    8.6514    7.8645  -12.2948 C   0  0  0  0  0  0  0  0  0  0  0  0
    9.9575    7.9974  -11.8426 C   0  0  0  0  0  0  0  0  0  0  0  0
   10.7657    6.8667  -11.6050 C   0  0  1  0  0  0  0  0  0  0  0  0
   10.7682    5.9590  -12.8271 C   0  0  0  0  0  0  0  0  0  0  0  0
   12.1553    7.3846  -11.2315 C   0  0  0  0  0  0  0  0  0  0  0  0
    8.0676    6.6451  -12.2974 C   0  0  0  0  0  0  0  0  0  0  0  0
   10.1892    6.1240  -10.3860 C   0  0  0  0  0  0  0  0  0  0  0  0
   11.8375    5.4373  -13.3240 O   0  0  0  0  0  0  0  0  0  0  0  0
    8.6785    5.4761  -13.0273 C   0  0  1  0  0  0  0  0  0  0  0  0
    9.1969    5.2405  -10.4969 C   0  0  2  0  0  0  0  0  0  0  0  0
    7.2213    6.2210  -11.3074 C   0  0  2  0  0  0  0  0  0  0  0  0
   12.5590    7.6872   -9.9896 C   0  0  0  0  0  0  0  0  0  0  0  0
    9.7633    5.0333  -12.9720 C   0  0  1  0  0  0  0  0  0  0  0  0
   10.0661    4.0167  -14.0373 N   0  0  0  0  0  0  0  0  0  0  0  0
   13.6906    8.3004   -9.6233 O   0  0  0  0  0  0  0  0  0  0  0  0
    7.6357    4.5123  -12.6317 C   0  0  2  0  0  0  0  0  0  0  0  0
    6.8831    4.9171  -11.7031 C   0  0  2  0  0  0  0  0  0  0  0  0
   10.5937    6.6967   -9.1779 C   0  0  0  0  0  0  0  0  0  0  0  0
    9.5087    4.3263  -11.6925 C   0  0  2  0  0  0  0  0  0  0  0  0
   11.6359    7.4449   -8.9125 C   0  0  0  0  0  0  0  0  0  0  0  0
   11.9716    7.9159   -7.6200 C   0  0  0  0  0  0  0  0  0  0  0  0
    8.4648    3.6122  -12.2840 C   0  0  1  0  0  0  0  0  0  0  0  0
    7.9253    2.8004  -11.3926 C   0  0  0  0  0  0  0  0  0  0  0  0
    5.6047    4.5059  -11.7589 C   0  0  0  0  0  0  0  0  0  0  0  0
    7.6606    4.1297  -10.5699 C   0  0  0  0  0  0  0  0  0  0  0  0
   10.9559    7.6849   -6.6057 C   0  0  0  0  0  0  0  0  0  0  0  0
    8.0094    4.5092   -9.5664 C   0  0  0  0  0  0  0  0  0  0  0  0
    8.3033    4.0627   -8.4980 C   0  0  0  0  0  0  0  0  0  0  0  0
    6.3587    7.1012  -11.0392 O   0  0  0  0  0  0  0  0  0  0  0  0
   11.0186    3.9598  -14.9226 C   0  0  0  0  0  0  0  0  0  0  0  0
    8.1758    5.8633  -10.2511 C   0  0  1  0  0  0  0  0  0  0  0  0
   11.4648    2.7104  -15.2650 O   0  0  0  0  0  0  0  0  0  0  0  0
    9.9512    6.8220   -6.8436 C   0  0  0  0  0  0  0  0  0  0  0  0
    9.6899    6.3705   -8.1082 C   0  0  2  0  0  0  0  0  0  0  0  0
    9.1306    2.9610  -13.9685 C   0  0  2  0  0  0  0  0  0  0  0  0
    8.8414    5.0113   -7.7726 C   0  0  0  0  0  0  0  0  0  0  0  0
   11.0996    4.8769  -15.8101 O   0  0  0  0  0  0  0  0  0  0  0  0
    8.7802    2.3889  -15.2427 C   0  0  0  0  0  0  0  0  0  0  0  0
    7.9994    3.0782  -13.3884 C   0  0  2  0  0  0  0  0  0  0  0  0
   11.2764    8.4958   -5.0872 C   0  0  0  0  0  0  0  0  0  0  0  0
   12.1332    7.7826   -4.3271 C   0  0  0  0  0  0  0  0  0  0  0  0
   11.5577    6.4784   -3.8897 C   0  0  0  0  0  0  0  0  0  0  0  0
   12.4613    8.8804   -3.2300 C   0  0  0  0  0  0  0  0  0  0  0  0
  1  2  1  0  0  0  0
  2  3  1  0  0  0  0
  2  7  2  0  0  0  0
  4  3  1  6  0  0  0
  4  5  1  0  0  0  0
  4  6  1  0  0  0  0
  4  8  1  0  0  0  0
  5  9  2  0  0  0  0
  6 13  1  0  0  0  0
  7 12  1  0  0  0  0
  8 19  2  0  0  0  0
 10  7  1  1  0  0  0
 10 14  1  0  0  0  0
 10 17  1  0  0  0  0
 11  8  1  6  0  0  0
 11 20  1  0  0  0  0
 11 32  1  0  0  0  0
 12 18  1  0  0  0  0
 12 30  1  1  0  0  0
 12 32  1  0  0  0  0
 13 16  2  0  0  0  0
 13 21  1  0  0  0  0
 14  5  1  1  0  0  0
 14 15  1  0  0  0  0
 14 20  1  0  0  0  0
 15 31  1  0  0  0  0
 15 36  1  0  0  0  0
 17 18  1  0  0  0  0
 17 23  1  0  0  0  0
 17 40  1  0  0  0  0
 18 25  1  0  0  0  0
 18 26  1  0  0  0  0
 19 21  1  0  0  0  0
 19 35  1  0  0  0  0
 20 23  1  0  0  0  0
 21 22  2  0  0  0  0
 22 27  1  0  0  0  0
 23 24  1  0  0  0  0
 23 40  1  0  0  0  0
 24 26  1  0  0  0  0
 26 28  2  0  0  0  0
 27 34  2  0  0  0  0
 27 41  1  0  0  0  0
 28 29  1  0  0  0  0
 28 32  1  0  0  0  0
 29 37  2  0  0  0  0
 31 33  2  0  0  0  0
 31 38  1  0  0  0  0
 34 35  1  0  0  0  0
 35 37  1  0  0  0  0
 36 39  1  0  0  0  0
 36 40  1  0  0  0  0
 41 42  1  0  0  0  0
 42 43  1  0  0  0  0
 42 44  1  0  0  0  0
M  END
$$$$

 OpenBabel10082411353D

 44 54  0  0  0  0  0  0  0  0999 V2000
    8.0806    9.0240  -12.7589 C   0  0  0  0  0  0  0  0  0  0  0  0
    8.6514    7.8645  -12.2948 C   0  0  0  0  0  0  0  0  0  0  0  0
    9.9575    7.9974  -11.8426 C   0  0  0  0  0  0  0  0  0  0  0  0
   10.7657    6.8667  -11.6050 C   0  0  1  0  0  0  0  0  0  0  0  0
   10.7682    5.9590  -12.8271 C   0  0  0  0  0  0  0  0  0  0  0  0
   12.1553    7.3846  -11.2315 C   0  0  0  0  0  0  0  0  0  0  0  0
    8.0676    6.6451  -12.2974 C   0  0  0  0  0  0  0  0  0  0  0  0
   10.1892    6.1240  -10.3860 C   0  0  0  0  0  0  0  0  0  0  0  0
   11.8375    5.4373  -13.3240 O   0  0  0  0  0  0  0  0  0  0  0  0
    8.6785    5.4761  -13.0273 C   0  0  1  0  0  0  0  0  0  0  0  0
    9.1969    5.2405  -10.4969 C   0  0  2  0  0  0  0  0  0  0  0  0
    7.2213    6.2210  -11.3074 C   0  0  2  0  0  0  0  0  0  0  0  0
   12.5590    7.6872   -9.9896 C   0  0  0  0  0  0  0  0  0  0  0  0
    9.7633    5.0333  -12.9720 C   0  0  1  0  0  0  0  0  0  0  0  0
   10.0661    4.0167  -14.0373 N   0  0  0  0  0  0  0  0  0  0  0  0
   13.6906    8.3004   -9.6233 O   0  0  0  0  0  0  0  0  0  0  0  0
    7.6357    4.5123  -12.6317 C   0  0  2  0  0  0  0  0  0  0  0  0
    6.8831    4.9171  -11.7031 C   0  0  2  0  0  0  0  0  0  0  0  0
   10.5937    6.6967   -9.1779 C   0  0  0  0  0  0  0  0  0  0  0  0
    9.5087    4.3263  -11.6925 C   0  0  2  0  0  0  0  0  0  0  0  0
   11.6359    7.4449   -8.9125 C   0  0  0  0  0  0  0  0  0  0  0  0
   11.9716    7.9159   -7.6200 C   0  0  0  0  0  0  0  0  0  0  0  0
    8.4648    3.6122  -12.2840 C   0  0  1  0  0  0  0  0  0  0  0  0
    7.9253    2.8004  -11.3926 C   0  0  0  0  0  0  0  0  0  0  0  0
    5.6047    4.5059  -11.7589 C   0  0  0  0  0  0  0  0  0  0  0  0
    7.6606    4.1297  -10.5699 C   0  0  0  0  0  0  0  0  0  0  0  0
   10.9559    7.6849   -6.6057 C   0  0  0  0  0  0  0  0  0  0  0  0
    8.0094    4.5092   -9.5664 C   0  0  0  0  0  0  0  0  0  0  0  0
    8.3033    4.0627   -8.4980 C   0  0  0  0  0  0  0  0  0  0  0  0
    6.3587    7.1012  -11.0392 O   0  0  0  0  0  0  0  0  0  0  0  0
   11.0186    3.9598  -14.9226 C   0  0  1  0  0  0  0  0  0  0  0  0
    8.1758    5.8633  -10.2511 C   0  0  1  0  0  0  0  0  0  0  0  0
    9.4315    2.8557  -13.5931 C   0  0  0  0  0  0  0  0  0  0  0  0
   11.5906    2.6986  -15.1672 C   0  0  0  0  0  0  0  0  0  0  0  0
    9.9783    6.7760   -6.8364 C   0  0  0  0  0  0  0  0  0  0  0  0
    9.7446    6.4267   -8.0721 C   0  0  2  0  0  0  0  0  0  0  0  0
   10.2617    4.4120  -16.0135 O   0  0  0  0  0  0  0  0  0  0  0  0
   11.3635    8.3622   -5.0463 S   0  0  0  0  0  0  0  0  0  0  0  0
    9.0997    5.1037   -7.8252 C   0  0  0  0  0  0  0  0  0  0  0  0
   11.8495    9.7478   -5.1927 O   0  0  0  0  0  0  0  0  0  0  0  0
   10.0482    8.5347   -4.2847 O   0  0  0  0  0  0  0  0  0  0  0  0
   12.3645    7.6199   -4.0386 C   0  0  0  0  0  0  0  0  0  0  0  0
   12.8057    8.3716   -2.9629 C   0  0  0  0  0  0  0  0  0  0  0  0
   11.6339    6.4552   -3.4979 C   0  0  0  0  0  0  0  0  0  0  0  0
  1  2  1  0  0  0  0
  2  3  1  0  0  0  0
  2  7  2  0  0  0  0
  4  3  1  6  0  0  0
  4  5  1  0  0  0  0
  4  6  1  0  0  0  0
  4  8  1  0  0  0  0
  5  9  2  0  0  0  0
  6 13  1  0  0  0  0
  7 12  1  0  0  0  0
  8 19  2  0  0  0  0
 10  7  1  1  0  0  0
 10 14  1  0  0  0  0
 10 17  1  0  0  0  0
 11  8  1  6  0  0  0
 11 20  1  0  0  0  0
 11 32  1  0  0  0  0
 12 18  1  0  0  0  0
 12 30  1  1  0  0  0
 12 32  1  0  0  0  0
 13 16  2  0  0  0  0
 13 21  1  0  0  0  0
 14  5  1  1  0  0  0
 14 15  1  0  0  0  0
 14 20  1  0  0  0  0
 15 31  1  0  0  0  0
 15 33  1  0  0  0  0
 17 18  1  0  0  0  0
 17 23  1  0  0  0  0
 18 25  1  0  0  0  0
 18 26  1  0  0  0  0
 19 21  1  0  0  0  0
 19 36  1  0  0  0  0
 20 23  1  0  0  0  0
 21 22  2  0  0  0  0
 22 27  1  0  0  0  0
 23 24  1  0  0  0  0
 23 33  1  0  0  0  0
 24 26  1  0  0  0  0
 26 28  2  0  0  0  0
 27 35  2  0  0  0  0
 27 38  1  0  0  0  0
 28 29  1  0  0  0  0
 28 32  1  0  0  0  0
 29 39  2  0  0  0  0
 31 34  1  0  0  0  0
 31 37  1  0  0  0  0
 35 36  1  0  0  0  0
 36 39  1  0  0  0  0
 38 40  2  0  0  0  0
 38 41  2  0  0  0  0
 38 42  1  0  0  0  0
 42 43  1  0  0  0  0
 42 44  1  0  0  0  0
M  END
$$$$

 OpenBabel10082411353D

 44 55  0  0  0  0  0  0  0  0999 V2000
    8.0806    9.0240  -12.7589 C   0  0  0  0  0  0  0  0  0  0  0  0
    8.6514    7.8645  -12.2948 C   0  0  0  0  0  0  0  0  0  0  0  0
    9.9575    7.9974  -11.8426 C   0  0  0  0  0  0  0  0  0  0  0  0
   10.7657    6.8667  -11.6050 C   0  0  1  0  0  0  0  0  0  0  0  0
   10.7682    5.9590  -12.8271 C   0  0  0  0  0  0  0  0  0  0  0  0
   12.1553    7.3846  -11.2315 C   0  0  0  0  0  0  0  0  0  0  0  0
    8.0676    6.6451  -12.2974 C   0  0  0  0  0  0  0  0  0  0  0  0
   10.1892    6.1240  -10.3860 C   0  0  0  0  0  0  0  0  0  0  0  0
   11.8375    5.4373  -13.3240 O   0  0  0  0  0  0  0  0  0  0  0  0
    8.6785    5.4761  -13.0273 C   0  0  1  0  0  0  0  0  0  0  0  0
    9.1969    5.2405  -10.4969 C   0  0  2  0  0  0  0  0  0  0  0  0
    7.2213    6.2210  -11.3074 C   0  0  2  0  0  0  0  0  0  0  0  0
   12.5590    7.6872   -9.9896 C   0  0  0  0  0  0  0  0  0  0  0  0
    9.7633    5.0333  -12.9720 C   0  0  1  0  0  0  0  0  0  0  0  0
   10.0661    4.0167  -14.0373 N   0  0  0  0  0  0  0  0  0  0  0  0
   13.6906    8.3004   -9.6233 O   0  0  0  0  0  0  0  0  0  0  0  0
    7.6357    4.5123  -12.6317 C   0  0  2  0  0  0  0  0  0  0  0  0
    6.8831    4.9171  -11.7031 C   0  0  2  0  0  0  0  0  0  0  0  0
   10.5937    6.6967   -9.1779 C   0  0  0  0  0  0  0  0  0  0  0  0
    9.5087    4.3263  -11.6925 C   0  0  2  0  0  0  0  0  0  0  0  0
   11.6359    7.4449   -8.9125 C   0  0  0  0  0  0  0  0  0  0  0  0
   11.9716    7.9159   -7.6200 C   0  0  0  0  0  0  0  0  0  0  0  0
    8.4648    3.6122  -12.2840 C   0  0  1  0  0  0  0  0  0  0  0  0
    7.9253    2.8004  -11.3926 C   0  0  0  0  0  0  0  0  0  0  0  0
    5.6047    4.5059  -11.7589 C   0  0  0  0  0  0  0  0  0  0  0  0
    7.6606    4.1297  -10.5699 C   0  0  0  0  0  0  0  0  0  0  0  0
   10.9559    7.6849   -6.6057 C   0  0  0  0  0  0  0  0  0  0  0  0
    8.0094    4.5092   -9.5664 C   0  0  0  0  0  0  0  0  0  0  0  0
    8.3033    4.0627   -8.4980 C   0  0  0  0  0  0  0  0  0  0  0  0
    6.3587    7.1012  -11.0392 O   0  0  0  0  0  0  0  0  0  0  0  0
   11.0186    3.9598  -14.9226 C   0  0  0  0  0  0  0  0  0  0  0  0
    8.1758    5.8633  -10.2511 C   0  0  1  0  0  0  0  0  0  0  0  0
   11.4648    2.7104  -15.2650 O   0  0  0  0  0  0  0  0  0  0  0  0
    9.9512    6.8220   -6.8436 C   0  0  0  0  0  0  0  0  0  0  0  0
    9.6899    6.3705   -8.1082 C   0  0  2  0  0  0  0  0  0  0  0  0
   11.2597    8.2901   -5.2396 C   0  0  0  0  0  0  0  0  0  0  0  0
   11.6068    9.7354   -5.2006 C   0  0  0  0  0  0  0  0  0  0  0  0
    9.4261    2.7718  -13.6670 C   0  0  0  0  0  0  0  0  0  0  0  0
    9.1568    5.0346   -7.7426 C   0  0  0  0  0  0  0  0  0  0  0  0
   10.9364    4.8633  -15.8499 O   0  0  0  0  0  0  0  0  0  0  0  0
   11.3730    7.7135   -4.0327 C   0  0  0  0  0  0  0  0  0  0  0  0
   11.4528   10.6052   -6.4021 C   0  0  0  0  0  0  0  0  0  0  0  0
   11.7980    8.7501   -3.0131 O   0  0  0  0  0  0  0  0  0  0  0  0
   11.8444    9.9331   -3.7955 N   0  0  0  0  0  0  0  0  0  0  0  0
  1  2  1  0  0  0  0
  2  3  1  0  0  0  0
  2  7  2  0  0  0  0
  4  3  1  6  0  0  0
  4  5  1  0  0  0  0
  4  6  1  0  0  0  0
  4  8  1  0  0  0  0
  5  9  2  0  0  0  0
  6 13  1  0  0  0  0
  7 12  1  0  0  0  0
  8 19  2  0  0  0  0
 10  7  1  1  0  0  0
 10 14  1  0  0  0  0
 10 17  1  0  0  0  0
 11  8  1  6  0  0  0
 11 20  1  0  0  0  0
 11 32  1  0  0  0  0
 12 18  1  0  0  0  0
 12 30  1  1  0  0  0
 12 32  1  0  0  0  0
 13 16  2  0  0  0  0
 13 21  1  0  0  0  0
 14  5  1  1  0  0  0
 14 15  1  0  0  0  0
 14 20  1  0  0  0  0
 15 31  1  0  0  0  0
 15 38  1  0  0  0  0
 17 18  1  0  0  0  0
 17 23  1  0  0  0  0
 18 25  1  0  0  0  0
 18 26  1  0  0  0  0
 19 21  1  0  0  0  0
 19 35  1  0  0  0  0
 20 23  1  0  0  0  0
 21 22  2  0  0  0  0
 22 27  1  0  0  0  0
 23 24  1  0  0  0  0
 23 38  1  0  0  0  0
 24 26  1  0  0  0  0
 26 28  2  0  0  0  0
 27 34  2  0  0  0  0
 27 36  1  0  0  0  0
 28 29  1  0  0  0  0
 28 32  1  0  0  0  0
 29 39  1  0  0  0  0
 31 33  2  0  0  0  0
 31 40  1  0  0  0  0
 34 35  1  0  0  0  0
 35 39  1  0  0  0  0
 36 37  1  0  0  0  0
 36 41  2  0  0  0  0
 37 42  1  0  0  0  0
 37 44  2  0  0  0  0
 41 43  1  0  0  0  0
 43 44  1  0  0  0  0
M  END
$$$$

 OpenBabel10082411353D

 44 55  0  0  0  0  0  0  0  0999 V2000
    8.0806    9.0240  -12.7589 C   0  0  0  0  0  0  0  0  0  0  0  0
    8.6514    7.8645  -12.2948 C   0  0  0  0  0  0  0  0  0  0  0  0
    9.9575    7.9974  -11.8426 C   0  0  0  0  0  0  0  0  0  0  0  0
   10.7657    6.8667  -11.6050 C   0  0  1  0  0  0  0  0  0  0  0  0
   10.7682    5.9590  -12.8271 C   0  0  0  0  0  0  0  0  0  0  0  0
   12.1553    7.3846  -11.2315 C   0  0  0  0  0  0  0  0  0  0  0  0
    8.0676    6.6451  -12.2974 C   0  0  0  0  0  0  0  0  0  0  0  0
   10.1892    6.1240  -10.3860 C   0  0  0  0  0  0  0  0  0  0  0  0
   11.8375    5.4373  -13.3240 O   0  0  0  0  0  0  0  0  0  0  0  0
    8.6785    5.4761  -13.0273 C   0  0  1  0  0  0  0  0  0  0  0  0
    9.1969    5.2405  -10.4969 C   0  0  2  0  0  0  0  0  0  0  0  0
    7.2213    6.2210  -11.3074 C   0  0  2  0  0  0  0  0  0  0  0  0
   12.5590    7.6872   -9.9896 C   0  0  0  0  0  0  0  0  0  0  0  0
    9.7633    5.0333  -12.9720 C   0  0  1  0  0  0  0  0  0  0  0  0
   10.0661    4.0167  -14.0373 N   0  0  0  0  0  0  0  0  0  0  0  0
   13.6906    8.3004   -9.6233 O   0  0  0  0  0  0  0  0  0  0  0  0
    7.6357    4.5123  -12.6317 C   0  0  2  0  0  0  0  0  0  0  0  0
    6.8831    4.9171  -11.7031 C   0  0  2  0  0  0  0  0  0  0  0  0
   10.5937    6.6967   -9.1779 C   0  0  0  0  0  0  0  0  0  0  0  0
    9.5087    4.3263  -11.6925 C   0  0  2  0  0  0  0  0  0  0  0  0
   11.6359    7.4449   -8.9125 C   0  0  0  0  0  0  0  0  0  0  0  0
   11.9716    7.9159   -7.6200 C   0  0  0  0  0  0  0  0  0  0  0  0
    8.4648    3.6122  -12.2840 C   0  0  1  0  0  0  0  0  0  0  0  0
    7.9253    2.8004  -11.3926 C   0  0  0  0  0  0  0  0  0  0  0  0
    5.6047    4.5059  -11.7589 C   0  0  0  0  0  0  0  0  0  0  0  0
    7.6606    4.1297  -10.5699 C   0  0  0  0  0  0  0  0  0  0  0  0
   10.9559    7.6849   -6.6057 C   0  0  0  0  0  0  0  0  0  0  0  0
    8.0094    4.5092   -9.5664 C   0  0  0  0  0  0  0  0  0  0  0  0
    8.3033    4.0627   -8.4980 C   0  0  0  0  0  0  0  0  0  0  0  0
    6.3587    7.1012  -11.0392 O   0  0  0  0  0  0  0  0  0  0  0  0
   11.0186    3.9598  -14.9226 C   0  0  0  0  0  0  0  0  0  0  0  0
    8.1758    5.8633  -10.2511 C   0  0  1  0  0  0  0  0  0  0  0  0
   11.4648    2.7104  -15.2650 O   0  0  0  0  0  0  0  0  0  0  0  0
    9.9512    6.8220   -6.8436 C   0  0  0  0  0  0  0  0  0  0  0  0
    9.6899    6.3705   -8.1082 C   0  0  2  0  0  0  0  0  0  0  0  0
   11.2597    8.2901   -5.2396 C   0  0  0  0  0  0  0  0  0  0  0  0
   11.6068    9.7354   -5.2006 C   0  0  1  0  0  0  0  0  0  0  0  0
   10.9469    4.9352  -15.8306 C   0  0  0  0  0  0  0  0  0  0  0  0
    9.2417    4.9555   -7.8256 C   0  0  0  0  0  0  0  0  0  0  0  0
   11.3657    7.7043   -4.0379 C   0  0  0  0  0  0  0  0  0  0  0  0
    9.3036    2.8311  -13.6285 C   0  0  0  0  0  0  0  0  0  0  0  0
   11.4466   10.6213   -6.4141 C   0  0  0  0  0  0  0  0  0  0  0  0
   11.7824    8.7130   -2.9979 C   0  0  0  0  0  0  0  0  0  0  0  0
   11.8381   10.0328   -3.8563 C   0  0  0  0  0  0  0  0  0  0  0  0
  1  2  1  0  0  0  0
  2  3  1  0  0  0  0
  2  7  2  0  0  0  0
  4  3  1  6  0  0  0
  4  5  1  0  0  0  0
  4  6  1  0  0  0  0
  4  8  1  0  0  0  0
  5  9  2  0  0  0  0
  6 13  1  0  0  0  0
  7 12  1  0  0  0  0
  8 19  2  0  0  0  0
 10  7  1  1  0  0  0
 10 14  1  0  0  0  0
 10 17  1  0  0  0  0
 11  8  1  6  0  0  0
 11 20  1  0  0  0  0
 11 32  1  0  0  0  0
 12 18  1  0  0  0  0
 12 30  1  1  0  0  0
 12 32  1  0  0  0  0
 13 16  2  0  0  0  0
 13 21  1  0  0  0  0
 14  5  1  1  0  0  0
 14 15  1  0  0  0  0
 14 20  1  0  0  0  0
 15 31  1  0  0  0  0
 15 41  1  0  0  0  0
 17 18  1  0  0  0  0
 17 23  1  0  0  0  0
 18 25  1  0  0  0  0
 18 26  1  0  0  0  0
 19 21  1  0  0  0  0
 19 35  1  0  0  0  0
 20 23  1  0  0  0  0
 21 22  2  0  0  0  0
 22 27  1  0  0  0  0
 23 24  1  0  0  0  0
 23 41  1  0  0  0  0
 24 26  1  0  0  0  0
 26 28  2  0  0  0  0
 27 34  2  0  0  0  0
 27 36  1  0  0  0  0
 28 29  1  0  0  0  0
 28 32  1  0  0  0  0
 29 39  2  0  0  0  0
 31 33  2  0  0  0  0
 31 38  1  0  0  0  0
 34 35  1  0  0  0  0
 35 39  1  0  0  0  0
 36 37  1  0  0  0  0
 36 40  2  0  0  0  0
 37 42  1  0  0  0  0
 37 44  1  0  0  0  0
 40 43  1  0  0  0  0
 43 44  1  0  0  0  0
M  END
$$$$

 OpenBabel10082411353D

 44 52  0  0  0  0  0  0  0  0999 V2000
   11.6836    6.0105   -4.8831 C   0  0  0  0  0  0  0  0  0  0  0  0
   11.1291    7.0732   -5.4395 C   0  0  0  0  0  0  0  0  0  0  0  0
   10.6954    7.0156   -6.8073 C   0  0  0  0  0  0  0  0  0  0  0  0
   10.2502    8.1187   -7.5536 C   0  0  2  0  0  0  0  0  0  0  0  0
   11.1205    8.4712   -4.9629 C   0  0  0  0  0  0  0  0  0  0  0  0
   10.8655    8.3511   -8.7960 C   0  0  0  0  0  0  0  0  0  0  0  0
   10.2922    7.8843   -9.9985 C   0  0  0  0  0  0  0  0  0  0  0  0
   10.4654    9.6993   -5.6120 C   0  0  0  0  0  0  0  0  0  0  0  0
   10.3510    9.5971   -7.0014 C   0  0  0  0  0  0  0  0  0  0  0  0
   12.2462    6.3351   -3.5020 C   0  0  0  0  0  0  0  0  0  0  0  0
   11.0471    7.5309  -11.1063 C   0  0  0  0  0  0  0  0  0  0  0  0
   11.7288    8.6923   -3.6518 C   0  0  0  0  0  0  0  0  0  0  0  0
   12.3991    7.7501  -11.1145 C   0  0  0  0  0  0  0  0  0  0  0  0
   12.3738    7.7580   -2.9599 C   0  0  0  0  0  0  0  0  0  0  0  0
   13.1285    8.5075  -10.1661 O   0  0  0  0  0  0  0  0  0  0  0  0
    9.0407    7.3775  -10.0973 N   0  0  0  0  0  0  0  0  0  0  0  0
    8.9787    6.9473  -11.4664 N   0  0  0  0  0  0  0  0  0  0  0  0
   13.1012    7.4459  -12.3707 C   0  0  0  0  0  0  0  0  0  0  0  0
   12.2395    6.9724  -13.2444 C   0  0  0  0  0  0  0  0  0  0  0  0
   10.2768    7.0170  -11.9799 C   0  0  0  0  0  0  0  0  0  0  0  0
   12.9237    6.5822  -14.5759 O   0  0  0  0  0  0  0  0  0  0  0  0
   10.8906    6.6526  -13.2252 C   0  0  0  0  0  0  0  0  0  0  0  0
   12.2396    6.1290  -15.6916 C   0  0  0  0  0  0  0  0  0  0  0  0
    7.8036    6.1825  -11.9342 C   0  0  0  0  0  0  0  0  0  0  0  0
   12.5015    4.7115  -15.7686 C   0  0  0  0  0  0  0  0  0  0  0  0
    7.1685    6.9992  -12.8245 C   0  0  0  0  0  0  0  0  0  0  0  0
   11.2461    3.8540  -15.4851 C   0  0  0  0  0  0  0  0  0  0  0  0
    7.6237    4.9154  -11.6529 C   0  0  0  0  0  0  0  0  0  0  0  0
    6.6378    4.1960  -12.2267 C   0  0  0  0  0  0  0  0  0  0  0  0
    6.2717    2.7675  -11.9743 C   0  0  0  0  0  0  0  0  0  0  0  0
    6.6569    1.8873  -12.9460 C   0  0  0  0  0  0  0  0  0  0  0  0
    7.3895    8.4597  -13.1785 C   0  0  0  0  0  0  0  0  0  0  0  0
    6.3114    0.5653  -12.7247 C   0  0  0  0  0  0  0  0  0  0  0  0
    7.7684    2.0327  -13.9055 C   0  0  0  0  0  0  0  0  0  0  0  0
    6.9387   -0.3720  -13.7691 C   0  0  0  0  0  0  0  0  0  0  0  0
    8.4223    3.3339  -14.0264 C   0  0  0  0  0  0  0  0  0  0  0  0
    8.2908    1.0246  -14.6080 C   0  0  2  0  0  0  0  0  0  0  0  0
    7.8743   -0.1809  -14.5479 C   0  0  0  0  0  0  0  0  0  0  0  0
   11.2492    2.9669  -14.5753 C   0  0  0  0  0  0  0  0  0  0  0  0
   10.1365    2.0979  -14.2259 C   0  0  2  0  0  0  0  0  0  0  0  0
    9.4984    1.4692  -15.0730 N   0  0  0  0  0  0  0  0  0  0  0  0
    9.6573    3.1721  -14.0305 C   0  0  1  0  0  0  0  0  0  0  0  0
   10.2729    4.3063  -14.4139 C   0  0  2  0  0  0  0  0  0  0  0  0
   10.1226    5.6614  -14.1331 C   0  0  0  0  0  0  0  0  0  0  0  0
  1  2  1  0  0  0  0
  1 10  2  0  0  0  0
  2  3  1  0  0  0  0
  2  5  2  0  0  0  0
  3  4  1  0  0  0  0
  4  6  1  6  0  0  0
  4  9  1  0  0  0  0
  5  8  1  0  0  0  0
  5 12  1  0  0  0  0
  6  7  1  0  0  0  0
  7 11  1  0  0  0  0
  7 16  2  0  0  0  0
  8  9  1  0  0  0  0
 10 14  1  0  0  0  0
 11 13  2  0  0  0  0
 11 20  1  0  0  0  0
 12 14  2  0  0  0  0
 13 15  1  0  0  0  0
 13 18  1  0  0  0  0
 16 17  1  0  0  0  0
 17 20  1  0  0  0  0
 17 24  1  0  0  0  0
 18 19  2  0  0  0  0
 19 21  1  0  0  0  0
 19 22  1  0  0  0  0
 20 22  2  0  0  0  0
 21 23  1  0  0  0  0
 22 44  1  0  0  0  0
 23 25  1  0  0  0  0
 24 26  2  3  0  0  0
 24 28  1  0  0  0  0
 25 27  1  0  0  0  0
 26 32  1  0  0  0  0
 27 39  2  0  0  0  0
 27 43  1  0  0  0  0
 28 29  2  0  0  0  0
 29 30  1  0  0  0  0
 30 31  1  0  0  0  0
 31 33  2  0  0  0  0
 31 34  1  0  0  0  0
 33 35  1  0  0  0  0
 34 36  2  0  0  0  0
 34 37  1  0  0  0  0
 35 38  1  0  0  0  0
 37 38  1  1  0  0  0
 37 41  1  0  0  0  0
 40 39  1  6  0  0  0
 40 41  1  0  0  0  0
 40 42  1  0  0  0  0
 42 36  1  6  0  0  0
 42 43  1  0  0  0  0
 43 44  1  6  0  0  0
M  END
$$$$

 OpenBabel10082411353D

 27 31  0  0  0  0  0  0  0  0999 V2000
   12.8881    8.7759   -3.5681 C   0  0  0  0  0  0  0  0  0  0  0  0
   11.9416    9.4732   -4.1220 C   0  0  0  0  0  0  0  0  0  0  0  0
   12.1782    9.3707   -5.6407 C   0  0  0  0  0  0  0  0  0  0  0  0
   11.3825    8.3447   -6.3966 C   0  0  0  0  0  0  0  0  0  0  0  0
   11.8188    8.0044   -7.6822 C   0  0  0  0  0  0  0  0  0  0  0  0
   10.3120    7.6600   -5.7120 C   0  0  0  0  0  0  0  0  0  0  0  0
   10.8678    7.0723   -8.2897 C   0  0  0  0  0  0  0  0  0  0  0  0
    9.5717    6.7245   -6.3809 C   0  0  0  0  0  0  0  0  0  0  0  0
    9.8820    6.4468   -7.7081 C   0  0  0  0  0  0  0  0  0  0  0  0
   11.2611    6.6953   -9.7105 C   0  0  1  0  0  0  0  0  0  0  0  0
   10.0425    6.5460  -10.5971 C   0  0  0  0  0  0  0  0  0  0  0  0
   11.8062    7.8130  -10.4883 C   0  0  0  0  0  0  0  0  0  0  0  0
    8.8746    5.5265   -8.4149 C   0  0  0  0  0  0  0  0  0  0  0  0
   13.1546    8.1022  -10.4049 O   0  0  0  0  0  0  0  0  0  0  0  0
   10.3114    6.7627  -11.8786 C   0  0  0  0  0  0  0  0  0  0  0  0
   11.3906    7.6694  -11.8036 N   0  0  0  0  0  0  0  0  0  0  0  0
   11.9779    8.2398  -13.0316 C   0  0  0  0  0  0  0  0  0  0  0  0
    8.8154    6.0162   -9.9613 C   0  0  0  0  0  0  0  0  0  0  0  0
    9.6102    6.3636  -13.0859 C   0  0  0  0  0  0  0  0  0  0  0  0
   11.8804    7.4718  -14.1937 C   0  0  0  0  0  0  0  0  0  0  0  0
   10.7017    6.3981  -14.2482 C   0  0  0  0  0  0  0  0  0  0  0  0
   10.3813    5.8427  -15.4547 C   0  0  2  0  0  0  0  0  0  0  0  0
    9.2579    5.0507  -15.6184 C   0  0  0  0  0  0  0  0  0  0  0  0
   11.6009    5.0735  -15.6795 C   0  0  0  0  0  0  0  0  0  0  0  0
   11.2868    3.6317  -16.0750 C   0  0  0  0  0  0  0  0  0  0  0  0
    9.8078    3.5626  -15.7284 C   0  0  1  0  0  0  0  0  0  0  0  0
    9.6430    2.7663  -14.3900 C   0  0  0  0  0  0  0  0  0  0  0  0
  1  2  1  0  0  0  0
  2  3  1  0  0  0  0
  3  4  1  0  0  0  0
  4  5  2  0  0  0  0
  4  6  1  0  0  0  0
  5  7  1  0  0  0  0
  6  8  2  0  0  0  0
  7  9  2  0  0  0  0
  8  9  1  0  0  0  0
  9 13  1  0  0  0  0
 10  7  1  1  0  0  0
 10 11  1  0  0  0  0
 10 12  1  0  0  0  0
 11 15  2  0  0  0  0
 11 18  1  0  0  0  0
 12 14  2  0  0  0  0
 12 16  1  0  0  0  0
 13 18  1  0  0  0  0
 15 16  1  0  0  0  0
 15 19  1  0  0  0  0
 16 17  1  0  0  0  0
 17 20  1  0  0  0  0
 19 21  1  0  0  0  0
 20 21  2  0  0  0  0
 22 21  1  1  0  0  0
 22 23  1  0  0  0  0
 22 24  1  0  0  0  0
 23 26  1  0  0  0  0
 24 25  1  0  0  0  0
 25 26  1  0  0  0  0
 26 27  1  1  0  0  0
M  END
$$$$

 OpenBabel10082411353D

 44 55  0  0  0  0  0  0  0  0999 V2000
    8.0806    9.0240  -12.7589 C   0  0  0  0  0  0  0  0  0  0  0  0
    8.6514    7.8645  -12.2948 C   0  0  0  0  0  0  0  0  0  0  0  0
    9.9575    7.9974  -11.8426 C   0  0  0  0  0  0  0  0  0  0  0  0
   10.7657    6.8667  -11.6050 C   0  0  1  0  0  0  0  0  0  0  0  0
   10.7682    5.9590  -12.8271 C   0  0  0  0  0  0  0  0  0  0  0  0
   12.1553    7.3846  -11.2315 C   0  0  0  0  0  0  0  0  0  0  0  0
    8.0676    6.6451  -12.2974 C   0  0  0  0  0  0  0  0  0  0  0  0
   10.1892    6.1240  -10.3860 C   0  0  0  0  0  0  0  0  0  0  0  0
   11.8375    5.4373  -13.3240 O   0  0  0  0  0  0  0  0  0  0  0  0
    8.6785    5.4761  -13.0273 C   0  0  1  0  0  0  0  0  0  0  0  0
    9.1969    5.2405  -10.4969 C   0  0  2  0  0  0  0  0  0  0  0  0
    7.2213    6.2210  -11.3074 C   0  0  2  0  0  0  0  0  0  0  0  0
   12.5590    7.6872   -9.9896 C   0  0  0  0  0  0  0  0  0  0  0  0
    9.7633    5.0333  -12.9720 C   0  0  1  0  0  0  0  0  0  0  0  0
   10.0661    4.0167  -14.0373 N   0  0  0  0  0  0  0  0  0  0  0  0
   13.6906    8.3004   -9.6233 O   0  0  0  0  0  0  0  0  0  0  0  0
    7.6357    4.5123  -12.6317 C   0  0  2  0  0  0  0  0  0  0  0  0
    6.8831    4.9171  -11.7031 C   0  0  2  0  0  0  0  0  0  0  0  0
   10.5937    6.6967   -9.1779 C   0  0  0  0  0  0  0  0  0  0  0  0
    9.5087    4.3263  -11.6925 C   0  0  2  0  0  0  0  0  0  0  0  0
   11.6359    7.4449   -8.9125 C   0  0  0  0  0  0  0  0  0  0  0  0
   11.9716    7.9159   -7.6200 C   0  0  0  0  0  0  0  0  0  0  0  0
    8.4648    3.6122  -12.2840 C   0  0  1  0  0  0  0  0  0  0  0  0
    7.9253    2.8004  -11.3926 C   0  0  0  0  0  0  0  0  0  0  0  0
    5.6047    4.5059  -11.7589 C   0  0  0  0  0  0  0  0  0  0  0  0
    7.6606    4.1297  -10.5699 C   0  0  0  0  0  0  0  0  0  0  0  0
   10.9559    7.6849   -6.6057 C   0  0  0  0  0  0  0  0  0  0  0  0
    8.0094    4.5092   -9.5664 C   0  0  0  0  0  0  0  0  0  0  0  0
    8.3033    4.0627   -8.4980 C   0  0  0  0  0  0  0  0  0  0  0  0
    6.3587    7.1012  -11.0392 O   0  0  0  0  0  0  0  0  0  0  0  0
   11.0186    3.9598  -14.9226 C   0  0  0  0  0  0  0  0  0  0  0  0
    8.1758    5.8633  -10.2511 C   0  0  1  0  0  0  0  0  0  0  0  0
   11.4648    2.7104  -15.2650 O   0  0  0  0  0  0  0  0  0  0  0  0
    9.9512    6.8220   -6.8436 C   0  0  0  0  0  0  0  0  0  0  0  0
    9.6899    6.3705   -8.1082 C   0  0  2  0  0  0  0  0  0  0  0  0
   11.2597    8.2901   -5.2396 C   0  0  0  0  0  0  0  0  0  0  0  0
   11.6068    9.7354   -5.2006 C   0  0  0  0  0  0  0  0  0  0  0  0
   10.9469    4.9352  -15.8306 C   0  0  0  0  0  0  0  0  0  0  0  0
   11.3329    7.6738   -4.0495 C   0  0  0  0  0  0  0  0  0  0  0  0
   11.4693   10.6433   -6.4294 C   0  0  0  0  0  0  0  0  0  0  0  0
    9.3527    2.8441  -13.4234 C   0  0  0  0  0  0  0  0  0  0  0  0
   11.7655    8.6910   -3.0007 O   0  0  0  0  0  0  0  0  0  0  0  0
   11.8429    9.9780   -3.8107 C   0  0  0  0  0  0  0  0  0  0  0  0
    9.2567    5.0345   -7.7526 C   0  0  0  0  0  0  0  0  0  0  0  0
  1  2  1  0  0  0  0
  2  3  1  0  0  0  0
  2  7  2  0  0  0  0
  4  3  1  6  0  0  0
  4  5  1  0  0  0  0
  4  6  1  0  0  0  0
  4  8  1  0  0  0  0
  5  9  2  0  0  0  0
  6 13  1  0  0  0  0
  7 12  1  0  0  0  0
  8 19  2  0  0  0  0
 10  7  1  1  0  0  0
 10 14  1  0  0  0  0
 10 17  1  0  0  0  0
 11  8  1  6  0  0  0
 11 20  1  0  0  0  0
 11 32  1  0  0  0  0
 12 18  1  0  0  0  0
 12 30  1  1  0  0  0
 12 32  1  0  0  0  0
 13 16  2  0  0  0  0
 13 21  1  0  0  0  0
 14  5  1  1  0  0  0
 14 15  1  0  0  0  0
 14 20  1  0  0  0  0
 15 31  1  0  0  0  0
 15 41  1  0  0  0  0
 17 18  1  0  0  0  0
 17 23  1  0  0  0  0
 18 25  1  0  0  0  0
 18 26  1  0  0  0  0
 19 21  1  0  0  0  0
 19 35  1  0  0  0  0
 20 23  1  0  0  0  0
 21 22  2  0  0  0  0
 22 27  1  0  0  0  0
 23 24  1  0  0  0  0
 23 41  1  0  0  0  0
 24 26  1  0  0  0  0
 26 28  2  0  0  0  0
 27 34  2  0  0  0  0
 27 36  1  0  0  0  0
 28 29  1  0  0  0  0
 28 32  1  0  0  0  0
 29 44  1  0  0  0  0
 31 33  2  0  0  0  0
 31 38  1  0  0  0  0
 34 35  1  0  0  0  0
 35 44  1  0  0  0  0
 36 37  1  0  0  0  0
 36 39  2  0  0  0  0
 37 40  1  0  0  0  0
 37 43  2  0  0  0  0
 39 42  1  0  0  0  0
 42 43  1  0  0  0  0
M  END
$$$$

 OpenBabel10082411353D

 44 55  0  0  0  0  0  0  0  0999 V2000
    8.0806    9.0240  -12.7589 C   0  0  0  0  0  0  0  0  0  0  0  0
    8.6514    7.8645  -12.2948 C   0  0  0  0  0  0  0  0  0  0  0  0
    9.9575    7.9974  -11.8426 C   0  0  0  0  0  0  0  0  0  0  0  0
   10.7657    6.8667  -11.6050 C   0  0  1  0  0  0  0  0  0  0  0  0
   10.7682    5.9590  -12.8271 C   0  0  0  0  0  0  0  0  0  0  0  0
   12.1553    7.3846  -11.2315 C   0  0  0  0  0  0  0  0  0  0  0  0
    8.0676    6.6451  -12.2974 C   0  0  0  0  0  0  0  0  0  0  0  0
   10.1892    6.1240  -10.3860 C   0  0  0  0  0  0  0  0  0  0  0  0
   11.8375    5.4373  -13.3240 O   0  0  0  0  0  0  0  0  0  0  0  0
    8.6785    5.4761  -13.0273 C   0  0  1  0  0  0  0  0  0  0  0  0
    9.1969    5.2405  -10.4969 C   0  0  2  0  0  0  0  0  0  0  0  0
    7.2213    6.2210  -11.3074 C   0  0  2  0  0  0  0  0  0  0  0  0
   12.5590    7.6872   -9.9896 C   0  0  0  0  0  0  0  0  0  0  0  0
    9.7633    5.0333  -12.9720 C   0  0  1  0  0  0  0  0  0  0  0  0
   10.0661    4.0167  -14.0373 N   0  0  0  0  0  0  0  0  0  0  0  0
   13.6906    8.3004   -9.6233 O   0  0  0  0  0  0  0  0  0  0  0  0
    7.6357    4.5123  -12.6317 C   0  0  2  0  0  0  0  0  0  0  0  0
    6.8831    4.9171  -11.7031 C   0  0  2  0  0  0  0  0  0  0  0  0
   10.5937    6.6967   -9.1779 C   0  0  0  0  0  0  0  0  0  0  0  0
    9.5087    4.3263  -11.6925 C   0  0  2  0  0  0  0  0  0  0  0  0
   11.6359    7.4449   -8.9125 C   0  0  0  0  0  0  0  0  0  0  0  0
   11.9716    7.9159   -7.6200 C   0  0  0  0  0  0  0  0  0  0  0  0
    8.4648    3.6122  -12.2840 C   0  0  1  0  0  0  0  0  0  0  0  0
    7.9253    2.8004  -11.3926 C   0  0  0  0  0  0  0  0  0  0  0  0
    5.6047    4.5059  -11.7589 C   0  0  0  0  0  0  0  0  0  0  0  0
    7.6606    4.1297  -10.5699 C   0  0  0  0  0  0  0  0  0  0  0  0
   10.9559    7.6849   -6.6057 C   0  0  0  0  0  0  0  0  0  0  0  0
    8.0094    4.5092   -9.5664 C   0  0  0  0  0  0  0  0  0  0  0  0
    8.3033    4.0627   -8.4980 C   0  0  0  0  0  0  0  0  0  0  0  0
    6.3587    7.1012  -11.0392 O   0  0  0  0  0  0  0  0  0  0  0  0
   11.0186    3.9598  -14.9226 C   0  0  0  0  0  0  0  0  0  0  0  0
    8.1758    5.8633  -10.2511 C   0  0  1  0  0  0  0  0  0  0  0  0
   11.4648    2.7104  -15.2650 O   0  0  0  0  0  0  0  0  0  0  0  0
    9.9512    6.8220   -6.8436 C   0  0  0  0  0  0  0  0  0  0  0  0
    9.6899    6.3705   -8.1082 C   0  0  2  0  0  0  0  0  0  0  0  0
   11.2597    8.2901   -5.2396 C   0  0  0  0  0  0  0  0  0  0  0  0
   11.6068    9.7354   -5.2006 C   0  0  0  0  0  0  0  0  0  0  0  0
   10.9469    4.9352  -15.8306 C   0  0  0  0  0  0  0  0  0  0  0  0
   11.3329    7.6738   -4.0495 C   0  0  0  0  0  0  0  0  0  0  0  0
   11.4693   10.6433   -6.4294 C   0  0  0  0  0  0  0  0  0  0  0  0
    9.3527    2.8441  -13.4234 C   0  0  0  0  0  0  0  0  0  0  0  0
   11.7655    8.6910   -3.0007 O   0  0  0  0  0  0  0  0  0  0  0  0
   11.8172    9.9112   -3.7519 N   0  0  0  0  0  0  0  0  0  0  0  0
    9.2820    5.0191   -7.7760 C   0  0  0  0  0  0  0  0  0  0  0  0
  1  2  1  0  0  0  0
  2  3  1  0  0  0  0
  2  7  2  0  0  0  0
  4  3  1  6  0  0  0
  4  5  1  0  0  0  0
  4  6  1  0  0  0  0
  4  8  1  0  0  0  0
  5  9  2  0  0  0  0
  6 13  1  0  0  0  0
  7 12  1  0  0  0  0
  8 19  2  0  0  0  0
 10  7  1  1  0  0  0
 10 14  1  0  0  0  0
 10 17  1  0  0  0  0
 11  8  1  6  0  0  0
 11 20  1  0  0  0  0
 11 32  1  0  0  0  0
 12 18  1  0  0  0  0
 12 30  1  1  0  0  0
 12 32  1  0  0  0  0
 13 16  2  0  0  0  0
 13 21  1  0  0  0  0
 14  5  1  1  0  0  0
 14 15  1  0  0  0  0
 14 20  1  0  0  0  0
 15 31  1  0  0  0  0
 15 41  1  0  0  0  0
 17 18  1  0  0  0  0
 17 23  1  0  0  0  0
 18 25  1  0  0  0  0
 18 26  1  0  0  0  0
 19 21  1  0  0  0  0
 19 35  1  0  0  0  0
 20 23  1  0  0  0  0
 21 22  2  0  0  0  0
 22 27  1  0  0  0  0
 23 24  1  0  0  0  0
 23 41  1  0  0  0  0
 24 26  1  0  0  0  0
 26 28  2  0  0  0  0
 27 34  2  0  0  0  0
 27 36  1  0  0  0  0
 28 29  1  0  0  0  0
 28 32  1  0  0  0  0
 29 44  2  0  0  0  0
 31 33  2  0  0  0  0
 31 38  1  0  0  0  0
 34 35  1  0  0  0  0
 35 44  1  0  0  0  0
 36 37  1  0  0  0  0
 36 39  2  0  0  0  0
 37 40  1  0  0  0  0
 37 43  2  0  0  0  0
 39 42  1  0  0  0  0
 42 43  1  0  0  0  0
M  END
$$$$

 OpenBabel10082411353D

 44 51  0  0  0  0  0  0  0  0999 V2000
   11.6836    6.0105   -4.8831 C   0  0  0  0  0  0  0  0  0  0  0  0
   11.1291    7.0732   -5.4395 C   0  0  0  0  0  0  0  0  0  0  0  0
   10.6954    7.0156   -6.8073 C   0  0  0  0  0  0  0  0  0  0  0  0
   10.2502    8.1187   -7.5536 C   0  0  2  0  0  0  0  0  0  0  0  0
   11.1205    8.4712   -4.9629 C   0  0  0  0  0  0  0  0  0  0  0  0
   10.8655    8.3511   -8.7960 C   0  0  0  0  0  0  0  0  0  0  0  0
   10.2922    7.8843   -9.9985 C   0  0  0  0  0  0  0  0  0  0  0  0
   10.4654    9.6993   -5.6120 C   0  0  0  0  0  0  0  0  0  0  0  0
   10.3510    9.5971   -7.0014 C   0  0  0  0  0  0  0  0  0  0  0  0
   12.2462    6.3351   -3.5020 C   0  0  0  0  0  0  0  0  0  0  0  0
   11.0471    7.5309  -11.1063 C   0  0  0  0  0  0  0  0  0  0  0  0
   11.7288    8.6923   -3.6518 C   0  0  0  0  0  0  0  0  0  0  0  0
   12.3991    7.7501  -11.1145 C   0  0  0  0  0  0  0  0  0  0  0  0
   12.3738    7.7580   -2.9599 C   0  0  0  0  0  0  0  0  0  0  0  0
   13.1285    8.5075  -10.1661 O   0  0  0  0  0  0  0  0  0  0  0  0
    9.0407    7.3775  -10.0973 N   0  0  0  0  0  0  0  0  0  0  0  0
    8.9787    6.9473  -11.4664 N   0  0  0  0  0  0  0  0  0  0  0  0
   13.1012    7.4459  -12.3707 C   0  0  0  0  0  0  0  0  0  0  0  0
   12.2395    6.9724  -13.2444 C   0  0  0  0  0  0  0  0  0  0  0  0
   10.2768    7.0170  -11.9799 C   0  0  0  0  0  0  0  0  0  0  0  0
   12.9237    6.5822  -14.5759 O   0  0  0  0  0  0  0  0  0  0  0  0
   10.8906    6.6526  -13.2252 C   0  0  0  0  0  0  0  0  0  0  0  0
   12.2396    6.1290  -15.6916 C   0  0  0  0  0  0  0  0  0  0  0  0
    7.8036    6.1825  -11.9342 C   0  0  0  0  0  0  0  0  0  0  0  0
   12.5015    4.7115  -15.7686 C   0  0  0  0  0  0  0  0  0  0  0  0
    7.1685    6.9992  -12.8245 C   0  0  0  0  0  0  0  0  0  0  0  0
   11.2461    3.8540  -15.4851 C   0  0  1  0  0  0  0  0  0  0  0  0
    7.6237    4.9154  -11.6529 C   0  0  0  0  0  0  0  0  0  0  0  0
    6.6378    4.1960  -12.2267 C   0  0  0  0  0  0  0  0  0  0  0  0
    6.2717    2.7675  -11.9743 C   0  0  0  0  0  0  0  0  0  0  0  0
    6.6569    1.8873  -12.9460 C   0  0  0  0  0  0  0  0  0  0  0  0
    7.3895    8.4597  -13.1785 C   0  0  0  0  0  0  0  0  0  0  0  0
    6.3114    0.5653  -12.7247 C   0  0  0  0  0  0  0  0  0  0  0  0
    7.7684    2.0327  -13.9055 C   0  0  0  0  0  0  0  0  0  0  0  0
    6.9387   -0.3720  -13.7691 C   0  0  0  0  0  0  0  0  0  0  0  0
    8.4223    3.3339  -14.0264 C   0  0  0  0  0  0  0  0  0  0  0  0
    8.2908    1.0246  -14.6080 C   0  0  0  0  0  0  0  0  0  0  0  0
    7.8707   -0.1948  -14.5676 C   0  0  0  0  0  0  0  0  0  0  0  0
    9.4626    1.2359  -15.4581 C   0  0  0  0  0  0  0  0  0  0  0  0
    9.5078    3.5700  -14.8275 C   0  0  0  0  0  0  0  0  0  0  0  0
   10.0311    0.2230  -16.1860 C   0  0  0  0  0  0  0  0  0  0  0  0
   10.1034    2.5448  -15.5150 C   0  0  0  0  0  0  0  0  0  0  0  0
   10.1225    4.7317  -14.9496 O   0  0  0  0  0  0  0  0  0  0  0  0
   11.1682    2.7204  -16.2428 C   0  0  0  0  0  0  0  0  0  0  0  0
  1  2  1  0  0  0  0
  1 10  2  0  0  0  0
  2  3  1  0  0  0  0
  2  5  2  0  0  0  0
  3  4  1  0  0  0  0
  4  6  1  6  0  0  0
  4  9  1  0  0  0  0
  5  8  1  0  0  0  0
  5 12  1  0  0  0  0
  6  7  1  0  0  0  0
  7 11  1  0  0  0  0
  7 16  2  0  0  0  0
  8  9  1  0  0  0  0
 10 14  1  0  0  0  0
 11 13  2  0  0  0  0
 11 20  1  0  0  0  0
 12 14  2  0  0  0  0
 13 15  1  0  0  0  0
 13 18  1  0  0  0  0
 16 17  1  0  0  0  0
 17 20  1  0  0  0  0
 17 24  1  0  0  0  0
 18 19  2  0  0  0  0
 19 21  1  0  0  0  0
 19 22  1  0  0  0  0
 20 22  2  0  0  0  0
 21 23  1  0  0  0  0
 23 25  1  0  0  0  0
 24 26  2  3  0  0  0
 24 28  1  0  0  0  0
 26 32  1  0  0  0  0
 27 25  1  6  0  0  0
 27 43  1  0  0  0  0
 27 44  1  0  0  0  0
 28 29  2  0  0  0  0
 29 30  1  0  0  0  0
 30 31  1  0  0  0  0
 31 33  2  0  0  0  0
 31 34  1  0  0  0  0
 33 35  1  0  0  0  0
 34 36  2  0  0  0  0
 34 37  1  0  0  0  0
 35 38  1  0  0  0  0
 36 40  1  0  0  0  0
 37 38  1  0  0  0  0
 37 39  2  0  0  0  0
 39 41  1  0  0  0  0
 39 42  1  0  0  0  0
 40 42  2  0  0  0  0
 40 43  1  0  0  0  0
 42 44  1  0  0  0  0
M  END
$$$$

 OpenBabel10082411353D

 44 55  0  0  0  0  0  0  0  0999 V2000
    8.0806    9.0240  -12.7589 C   0  0  0  0  0  0  0  0  0  0  0  0
    8.6514    7.8645  -12.2948 C   0  0  0  0  0  0  0  0  0  0  0  0
    9.9575    7.9974  -11.8426 C   0  0  0  0  0  0  0  0  0  0  0  0
   10.7657    6.8667  -11.6050 C   0  0  1  0  0  0  0  0  0  0  0  0
   10.7682    5.9590  -12.8271 C   0  0  0  0  0  0  0  0  0  0  0  0
   12.1553    7.3846  -11.2315 C   0  0  0  0  0  0  0  0  0  0  0  0
    8.0676    6.6451  -12.2974 C   0  0  0  0  0  0  0  0  0  0  0  0
   10.1892    6.1240  -10.3860 C   0  0  0  0  0  0  0  0  0  0  0  0
   11.8375    5.4373  -13.3240 O   0  0  0  0  0  0  0  0  0  0  0  0
    8.6785    5.4761  -13.0273 C   0  0  1  0  0  0  0  0  0  0  0  0
    9.1969    5.2405  -10.4969 C   0  0  2  0  0  0  0  0  0  0  0  0
    7.2213    6.2210  -11.3074 C   0  0  2  0  0  0  0  0  0  0  0  0
   12.5590    7.6872   -9.9896 C   0  0  0  0  0  0  0  0  0  0  0  0
    9.7633    5.0333  -12.9720 C   0  0  1  0  0  0  0  0  0  0  0  0
   10.0661    4.0167  -14.0373 N   0  0  0  0  0  0  0  0  0  0  0  0
   13.6906    8.3004   -9.6233 O   0  0  0  0  0  0  0  0  0  0  0  0
    7.6357    4.5123  -12.6317 C   0  0  2  0  0  0  0  0  0  0  0  0
    6.8831    4.9171  -11.7031 C   0  0  2  0  0  0  0  0  0  0  0  0
   10.5937    6.6967   -9.1779 C   0  0  0  0  0  0  0  0  0  0  0  0
    9.5087    4.3263  -11.6925 C   0  0  2  0  0  0  0  0  0  0  0  0
   11.6359    7.4449   -8.9125 C   0  0  0  0  0  0  0  0  0  0  0  0
   11.9716    7.9159   -7.6200 C   0  0  0  0  0  0  0  0  0  0  0  0
    8.4648    3.6122  -12.2840 C   0  0  1  0  0  0  0  0  0  0  0  0
    7.9253    2.8004  -11.3926 C   0  0  0  0  0  0  0  0  0  0  0  0
    5.6047    4.5059  -11.7589 C   0  0  0  0  0  0  0  0  0  0  0  0
    7.6606    4.1297  -10.5699 C   0  0  0  0  0  0  0  0  0  0  0  0
   10.9559    7.6849   -6.6057 C   0  0  0  0  0  0  0  0  0  0  0  0
    8.0094    4.5092   -9.5664 C   0  0  0  0  0  0  0  0  0  0  0  0
    8.3033    4.0627   -8.4980 C   0  0  0  0  0  0  0  0  0  0  0  0
    6.3587    7.1012  -11.0392 O   0  0  0  0  0  0  0  0  0  0  0  0
   11.0186    3.9598  -14.9226 C   0  0  0  0  0  0  0  0  0  0  0  0
    8.1758    5.8633  -10.2511 C   0  0  1  0  0  0  0  0  0  0  0  0
   11.4648    2.7104  -15.2650 O   0  0  0  0  0  0  0  0  0  0  0  0
    9.9512    6.8220   -6.8436 C   0  0  0  0  0  0  0  0  0  0  0  0
    9.6899    6.3705   -8.1082 C   0  0  2  0  0  0  0  0  0  0  0  0
   11.2597    8.2901   -5.2396 C   0  0  0  0  0  0  0  0  0  0  0  0
   11.6068    9.7354   -5.2006 C   0  0  0  0  0  0  0  0  0  0  0  0
   10.9469    4.9352  -15.8306 C   0  0  0  0  0  0  0  0  0  0  0  0
   11.3329    7.6738   -4.0495 C   0  0  0  0  0  0  0  0  0  0  0  0
   11.4693   10.6433   -6.4294 C   0  0  0  0  0  0  0  0  0  0  0  0
    9.3527    2.8441  -13.4234 C   0  0  0  0  0  0  0  0  0  0  0  0
   11.7655    8.6910   -3.0007 O   0  0  0  0  0  0  0  0  0  0  0  0
   11.8172    9.9112   -3.7519 N   0  0  0  0  0  0  0  0  0  0  0  0
    8.9633    4.9282   -7.7700 C   0  0  0  0  0  0  0  0  0  0  0  0
  1  2  1  0  0  0  0
  2  3  1  0  0  0  0
  2  7  2  0  0  0  0
  4  3  1  6  0  0  0
  4  5  1  0  0  0  0
  4  6  1  0  0  0  0
  4  8  1  0  0  0  0
  5  9  2  0  0  0  0
  6 13  1  0  0  0  0
  7 12  1  0  0  0  0
  8 19  2  0  0  0  0
 10  7  1  1  0  0  0
 10 14  1  0  0  0  0
 10 17  1  0  0  0  0
 11  8  1  6  0  0  0
 11 20  1  0  0  0  0
 11 32  1  0  0  0  0
 12 18  1  0  0  0  0
 12 30  1  1  0  0  0
 12 32  1  0  0  0  0
 13 16  2  0  0  0  0
 13 21  1  0  0  0  0
 14  5  1  1  0  0  0
 14 15  1  0  0  0  0
 14 20  1  0  0  0  0
 15 31  1  0  0  0  0
 15 41  1  0  0  0  0
 17 18  1  0  0  0  0
 17 23  1  0  0  0  0
 18 25  1  0  0  0  0
 18 26  1  0  0  0  0
 19 21  1  0  0  0  0
 19 35  1  0  0  0  0
 20 23  1  0  0  0  0
 21 22  2  0  0  0  0
 22 27  1  0  0  0  0
 23 24  1  0  0  0  0
 23 41  1  0  0  0  0
 24 26  1  0  0  0  0
 26 28  2  0  0  0  0
 27 34  2  0  0  0  0
 27 36  1  0  0  0  0
 28 29  1  0  0  0  0
 28 32  1  0  0  0  0
 29 44  1  0  0  0  0
 31 33  2  0  0  0  0
 31 38  1  0  0  0  0
 34 35  1  0  0  0  0
 35 44  1  0  0  0  0
 36 37  1  0  0  0  0
 36 39  2  0  0  0  0
 37 40  1  0  0  0  0
 37 43  2  0  0  0  0
 39 42  1  0  0  0  0
 42 43  1  0  0  0  0
M  END
$$$$

 OpenBabel10082411353D

 44 55  0  0  0  0  0  0  0  0999 V2000
    8.0806    9.0240  -12.7589 C   0  0  0  0  0  0  0  0  0  0  0  0
    8.6514    7.8645  -12.2948 C   0  0  0  0  0  0  0  0  0  0  0  0
    9.9575    7.9974  -11.8426 C   0  0  0  0  0  0  0  0  0  0  0  0
   10.7657    6.8667  -11.6050 C   0  0  1  0  0  0  0  0  0  0  0  0
   10.7682    5.9590  -12.8271 C   0  0  0  0  0  0  0  0  0  0  0  0
   12.1553    7.3846  -11.2315 C   0  0  0  0  0  0  0  0  0  0  0  0
    8.0676    6.6451  -12.2974 C   0  0  0  0  0  0  0  0  0  0  0  0
   10.1892    6.1240  -10.3860 C   0  0  0  0  0  0  0  0  0  0  0  0
   11.8375    5.4373  -13.3240 O   0  0  0  0  0  0  0  0  0  0  0  0
    8.6785    5.4761  -13.0273 C   0  0  1  0  0  0  0  0  0  0  0  0
    9.1969    5.2405  -10.4969 C   0  0  2  0  0  0  0  0  0  0  0  0
    7.2213    6.2210  -11.3074 C   0  0  2  0  0  0  0  0  0  0  0  0
   12.5590    7.6872   -9.9896 C   0  0  0  0  0  0  0  0  0  0  0  0
    9.7633    5.0333  -12.9720 C   0  0  1  0  0  0  0  0  0  0  0  0
   10.0661    4.0167  -14.0373 N   0  0  0  0  0  0  0  0  0  0  0  0
   13.6906    8.3004   -9.6233 O   0  0  0  0  0  0  0  0  0  0  0  0
    7.6357    4.5123  -12.6317 C   0  0  2  0  0  0  0  0  0  0  0  0
    6.8831    4.9171  -11.7031 C   0  0  2  0  0  0  0  0  0  0  0  0
   10.5937    6.6967   -9.1779 C   0  0  0  0  0  0  0  0  0  0  0  0
    9.5087    4.3263  -11.6925 C   0  0  2  0  0  0  0  0  0  0  0  0
   11.6359    7.4449   -8.9125 C   0  0  0  0  0  0  0  0  0  0  0  0
   11.9716    7.9159   -7.6200 C   0  0  0  0  0  0  0  0  0  0  0  0
    8.4648    3.6122  -12.2840 C   0  0  1  0  0  0  0  0  0  0  0  0
    7.9253    2.8004  -11.3926 C   0  0  0  0  0  0  0  0  0  0  0  0
    5.6047    4.5059  -11.7589 C   0  0  0  0  0  0  0  0  0  0  0  0
    7.6606    4.1297  -10.5699 C   0  0  0  0  0  0  0  0  0  0  0  0
   10.9559    7.6849   -6.6057 C   0  0  0  0  0  0  0  0  0  0  0  0
    8.0094    4.5092   -9.5664 C   0  0  0  0  0  0  0  0  0  0  0  0
    8.3033    4.0627   -8.4980 C   0  0  0  0  0  0  0  0  0  0  0  0
    6.3587    7.1012  -11.0392 O   0  0  0  0  0  0  0  0  0  0  0  0
   11.0186    3.9598  -14.9226 C   0  0  0  0  0  0  0  0  0  0  0  0
    8.1758    5.8633  -10.2511 C   0  0  1  0  0  0  0  0  0  0  0  0
   11.4648    2.7104  -15.2650 O   0  0  0  0  0  0  0  0  0  0  0  0
    9.9512    6.8220   -6.8436 C   0  0  0  0  0  0  0  0  0  0  0  0
    9.6899    6.3705   -8.1082 C   0  0  2  0  0  0  0  0  0  0  0  0
   11.2597    8.2901   -5.2396 C   0  0  0  0  0  0  0  0  0  0  0  0
   11.6068    9.7354   -5.2006 C   0  0  0  0  0  0  0  0  0  0  0  0
    9.4261    2.7718  -13.6670 C   0  0  0  0  0  0  0  0  0  0  0  0
    9.1568    5.0346   -7.7426 C   0  0  0  0  0  0  0  0  0  0  0  0
   11.2083    4.9304  -15.6781 O   0  0  0  0  0  0  0  0  0  0  0  0
   11.3723    7.7138   -4.0322 C   0  0  0  0  0  0  0  0  0  0  0  0
   11.7763    8.7168   -2.9508 C   0  0  0  0  0  0  0  0  0  0  0  0
   11.1829    6.3545   -3.7839 C   0  0  0  0  0  0  0  0  0  0  0  0
   11.8423   10.0070   -3.7466 C   0  0  0  0  0  0  0  0  0  0  0  0
  1  2  1  0  0  0  0
  2  3  1  0  0  0  0
  2  7  2  0  0  0  0
  4  3  1  6  0  0  0
  4  5  1  0  0  0  0
  4  6  1  0  0  0  0
  4  8  1  0  0  0  0
  5  9  2  0  0  0  0
  6 13  1  0  0  0  0
  7 12  1  0  0  0  0
  8 19  2  0  0  0  0
 10  7  1  1  0  0  0
 10 14  1  0  0  0  0
 10 17  1  0  0  0  0
 11  8  1  6  0  0  0
 11 20  1  0  0  0  0
 11 32  1  0  0  0  0
 12 18  1  0  0  0  0
 12 30  1  1  0  0  0
 12 32  1  0  0  0  0
 13 16  2  0  0  0  0
 13 21  1  0  0  0  0
 14  5  1  1  0  0  0
 14 15  1  0  0  0  0
 14 20  1  0  0  0  0
 15 31  1  0  0  0  0
 15 38  1  0  0  0  0
 17 18  1  0  0  0  0
 17 23  1  0  0  0  0
 18 25  1  0  0  0  0
 18 26  1  0  0  0  0
 19 21  1  0  0  0  0
 19 35  1  0  0  0  0
 20 23  1  0  0  0  0
 21 22  2  0  0  0  0
 22 27  1  0  0  0  0
 23 24  1  0  0  0  0
 23 38  1  0  0  0  0
 24 26  1  0  0  0  0
 26 28  2  0  0  0  0
 27 34  2  0  0  0  0
 27 36  1  0  0  0  0
 28 29  1  0  0  0  0
 28 32  1  0  0  0  0
 29 39  1  0  0  0  0
 31 33  2  0  0  0  0
 31 40  1  0  0  0  0
 34 35  1  0  0  0  0
 35 39  1  0  0  0  0
 36 37  1  0  0  0  0
 36 41  2  0  0  0  0
 37 44  2  0  0  0  0
 41 42  1  0  0  0  0
 41 43  1  0  0  0  0
 42 44  2  0  0  0  0
M  END
$$$$

 OpenBabel10082411353D

 44 52  0  0  0  0  0  0  0  0999 V2000
   11.6836    6.0105   -4.8831 C   0  0  0  0  0  0  0  0  0  0  0  0
   11.1291    7.0732   -5.4395 C   0  0  0  0  0  0  0  0  0  0  0  0
   10.6954    7.0156   -6.8073 C   0  0  0  0  0  0  0  0  0  0  0  0
   10.2502    8.1187   -7.5536 C   0  0  2  0  0  0  0  0  0  0  0  0
   11.1205    8.4712   -4.9629 C   0  0  0  0  0  0  0  0  0  0  0  0
   10.8655    8.3511   -8.7960 C   0  0  0  0  0  0  0  0  0  0  0  0
   10.2922    7.8843   -9.9985 C   0  0  0  0  0  0  0  0  0  0  0  0
   10.4654    9.6993   -5.6120 C   0  0  0  0  0  0  0  0  0  0  0  0
   10.3510    9.5971   -7.0014 C   0  0  0  0  0  0  0  0  0  0  0  0
   12.2462    6.3351   -3.5020 C   0  0  0  0  0  0  0  0  0  0  0  0
   11.0471    7.5309  -11.1063 C   0  0  0  0  0  0  0  0  0  0  0  0
   11.7288    8.6923   -3.6518 C   0  0  0  0  0  0  0  0  0  0  0  0
   12.3991    7.7501  -11.1145 C   0  0  0  0  0  0  0  0  0  0  0  0
   12.3738    7.7580   -2.9599 C   0  0  0  0  0  0  0  0  0  0  0  0
   13.1285    8.5075  -10.1661 O   0  0  0  0  0  0  0  0  0  0  0  0
    9.0407    7.3775  -10.0973 N   0  0  0  0  0  0  0  0  0  0  0  0
    8.9787    6.9473  -11.4664 N   0  0  0  0  0  0  0  0  0  0  0  0
   13.1012    7.4459  -12.3707 C   0  0  0  0  0  0  0  0  0  0  0  0
   12.2395    6.9724  -13.2444 C   0  0  0  0  0  0  0  0  0  0  0  0
   10.2768    7.0170  -11.9799 C   0  0  0  0  0  0  0  0  0  0  0  0
   12.9237    6.5822  -14.5759 O   0  0  0  0  0  0  0  0  0  0  0  0
   10.8906    6.6526  -13.2252 C   0  0  0  0  0  0  0  0  0  0  0  0
   12.2396    6.1290  -15.6916 C   0  0  0  0  0  0  0  0  0  0  0  0
    7.8036    6.1825  -11.9342 C   0  0  0  0  0  0  0  0  0  0  0  0
   12.5015    4.7115  -15.7686 C   0  0  0  0  0  0  0  0  0  0  0  0
    7.1685    6.9992  -12.8245 C   0  0  0  0  0  0  0  0  0  0  0  0
   11.2461    3.8540  -15.4851 C   0  0  0  0  0  0  0  0  0  0  0  0
    7.6237    4.9154  -11.6529 C   0  0  0  0  0  0  0  0  0  0  0  0
    6.6378    4.1960  -12.2267 C   0  0  0  0  0  0  0  0  0  0  0  0
    6.2717    2.7675  -11.9743 C   0  0  0  0  0  0  0  0  0  0  0  0
    6.6569    1.8873  -12.9460 C   0  0  0  0  0  0  0  0  0  0  0  0
    7.3895    8.4597  -13.1785 C   0  0  0  0  0  0  0  0  0  0  0  0
    6.3114    0.5653  -12.7247 C   0  0  0  0  0  0  0  0  0  0  0  0
    7.7684    2.0327  -13.9055 C   0  0  0  0  0  0  0  0  0  0  0  0
    6.9387   -0.3720  -13.7691 C   0  0  0  0  0  0  0  0  0  0  0  0
    8.4223    3.3339  -14.0264 C   0  0  0  0  0  0  0  0  0  0  0  0
    8.2908    1.0246  -14.6080 C   0  0  2  0  0  0  0  0  0  0  0  0
    7.8743   -0.1809  -14.5479 C   0  0  0  0  0  0  0  0  0  0  0  0
   11.2492    2.9669  -14.5753 C   0  0  0  0  0  0  0  0  0  0  0  0
   10.1365    2.0979  -14.2259 C   0  0  2  0  0  0  0  0  0  0  0  0
    9.4984    1.4692  -15.0730 N   0  0  0  0  0  0  0  0  0  0  0  0
    9.6573    3.1721  -14.0305 C   0  0  1  0  0  0  0  0  0  0  0  0
   10.2729    4.3063  -14.4139 C   0  0  0  0  0  0  0  0  0  0  0  0
   10.1433    5.4609  -14.0918 C   0  0  0  0  0  0  0  0  0  0  0  0
  1  2  1  0  0  0  0
  1 10  2  0  0  0  0
  2  3  1  0  0  0  0
  2  5  2  0  0  0  0
  3  4  1  0  0  0  0
  4  6  1  6  0  0  0
  4  9  1  0  0  0  0
  5  8  1  0  0  0  0
  5 12  1  0  0  0  0
  6  7  1  0  0  0  0
  7 11  1  0  0  0  0
  7 16  2  0  0  0  0
  8  9  1  0  0  0  0
 10 14  1  0  0  0  0
 11 13  2  0  0  0  0
 11 20  1  0  0  0  0
 12 14  2  0  0  0  0
 13 15  1  0  0  0  0
 13 18  1  0  0  0  0
 16 17  1  0  0  0  0
 17 20  1  0  0  0  0
 17 24  1  0  0  0  0
 18 19  2  0  0  0  0
 19 21  1  0  0  0  0
 19 22  1  0  0  0  0
 20 22  2  0  0  0  0
 21 23  1  0  0  0  0
 22 44  1  0  0  0  0
 23 25  1  0  0  0  0
 24 26  2  3  0  0  0
 24 28  1  0  0  0  0
 25 27  1  0  0  0  0
 26 32  1  0  0  0  0
 27 39  2  0  0  0  0
 27 43  1  0  0  0  0
 28 29  2  0  0  0  0
 29 30  1  0  0  0  0
 30 31  1  0  0  0  0
 31 33  2  0  0  0  0
 31 34  1  0  0  0  0
 33 35  1  0  0  0  0
 34 36  2  0  0  0  0
 34 37  1  0  0  0  0
 35 38  1  0  0  0  0
 37 38  1  1  0  0  0
 37 41  1  0  0  0  0
 40 39  1  6  0  0  0
 40 41  1  0  0  0  0
 40 42  1  0  0  0  0
 42 36  1  6  0  0  0
 42 43  1  0  0  0  0
 43 44  2  0  0  0  0
M  END
$$$$

 OpenBabel10082411353D

 44 54  0  0  0  0  0  0  0  0999 V2000
    8.0806    9.0240  -12.7589 C   0  0  0  0  0  0  0  0  0  0  0  0
    8.6514    7.8645  -12.2948 C   0  0  0  0  0  0  0  0  0  0  0  0
    9.9575    7.9974  -11.8426 C   0  0  0  0  0  0  0  0  0  0  0  0
   10.7657    6.8667  -11.6050 C   0  0  1  0  0  0  0  0  0  0  0  0
   10.7682    5.9590  -12.8271 C   0  0  0  0  0  0  0  0  0  0  0  0
   12.1553    7.3846  -11.2315 C   0  0  0  0  0  0  0  0  0  0  0  0
    8.0676    6.6451  -12.2974 C   0  0  0  0  0  0  0  0  0  0  0  0
   10.1892    6.1240  -10.3860 C   0  0  0  0  0  0  0  0  0  0  0  0
   11.8375    5.4373  -13.3240 O   0  0  0  0  0  0  0  0  0  0  0  0
    8.6785    5.4761  -13.0273 C   0  0  1  0  0  0  0  0  0  0  0  0
    9.1969    5.2405  -10.4969 C   0  0  2  0  0  0  0  0  0  0  0  0
    7.2213    6.2210  -11.3074 C   0  0  2  0  0  0  0  0  0  0  0  0
   12.5590    7.6872   -9.9896 C   0  0  0  0  0  0  0  0  0  0  0  0
    9.7633    5.0333  -12.9720 C   0  0  1  0  0  0  0  0  0  0  0  0
   10.0661    4.0167  -14.0373 N   0  0  0  0  0  0  0  0  0  0  0  0
   13.6906    8.3004   -9.6233 O   0  0  0  0  0  0  0  0  0  0  0  0
    7.6357    4.5123  -12.6317 C   0  0  2  0  0  0  0  0  0  0  0  0
    6.8831    4.9171  -11.7031 C   0  0  2  0  0  0  0  0  0  0  0  0
   10.5937    6.6967   -9.1779 C   0  0  0  0  0  0  0  0  0  0  0  0
    9.5087    4.3263  -11.6925 C   0  0  2  0  0  0  0  0  0  0  0  0
   11.6359    7.4449   -8.9125 C   0  0  0  0  0  0  0  0  0  0  0  0
   11.9716    7.9159   -7.6200 C   0  0  0  0  0  0  0  0  0  0  0  0
    8.4648    3.6122  -12.2840 C   0  0  1  0  0  0  0  0  0  0  0  0
    7.9253    2.8004  -11.3926 C   0  0  0  0  0  0  0  0  0  0  0  0
    5.6047    4.5059  -11.7589 C   0  0  0  0  0  0  0  0  0  0  0  0
    7.6606    4.1297  -10.5699 C   0  0  0  0  0  0  0  0  0  0  0  0
   10.9559    7.6849   -6.6057 C   0  0  0  0  0  0  0  0  0  0  0  0
    8.0094    4.5092   -9.5664 C   0  0  0  0  0  0  0  0  0  0  0  0
    8.3033    4.0627   -8.4980 C   0  0  0  0  0  0  0  0  0  0  0  0
    6.3587    7.1012  -11.0392 O   0  0  0  0  0  0  0  0  0  0  0  0
   11.0186    3.9598  -14.9226 C   0  0  0  0  0  0  0  0  0  0  0  0
    8.1758    5.8633  -10.2511 C   0  0  1  0  0  0  0  0  0  0  0  0
    9.4315    2.8557  -13.5931 C   0  0  0  0  0  0  0  0  0  0  0  0
   11.5906    2.6986  -15.1672 C   0  0  0  0  0  0  0  0  0  0  0  0
   11.2029    4.8307  -15.6614 O   0  0  0  0  0  0  0  0  0  0  0  0
    9.9720    6.7848   -6.8417 C   0  0  0  0  0  0  0  0  0  0  0  0
    8.6966    2.9850   -8.3465 O   0  0  0  0  0  0  0  0  0  0  0  0
    8.5860    5.0154   -7.5833 C   0  0  0  0  0  0  0  0  0  0  0  0
   11.3663    8.4216   -5.0482 S   0  0  0  0  0  0  0  0  0  0  0  0
    9.7695    6.3646   -8.0123 C   0  0  0  0  0  0  0  0  0  0  0  0
   12.3974    7.8808   -4.5038 O   0  0  0  0  0  0  0  0  0  0  0  0
   11.7013   10.0503   -5.4622 C   0  0  0  0  0  0  0  0  0  0  0  0
   10.0868    8.5425   -4.3098 O   0  0  0  0  0  0  0  0  0  0  0  0
    8.7235    5.6965   -8.3267 C   0  0  0  0  0  0  0  0  0  0  0  0
  1  2  1  0  0  0  0
  2  3  1  0  0  0  0
  2  7  2  0  0  0  0
  4  3  1  6  0  0  0
  4  5  1  0  0  0  0
  4  6  1  0  0  0  0
  4  8  1  0  0  0  0
  5  9  2  0  0  0  0
  6 13  1  0  0  0  0
  7 12  1  0  0  0  0
  8 19  2  0  0  0  0
 10  7  1  1  0  0  0
 10 14  1  0  0  0  0
 10 17  1  0  0  0  0
 11  8  1  6  0  0  0
 11 20  1  0  0  0  0
 11 32  1  0  0  0  0
 12 18  1  0  0  0  0
 12 30  1  1  0  0  0
 12 32  1  0  0  0  0
 13 16  2  0  0  0  0
 13 21  1  0  0  0  0
 14  5  1  1  0  0  0
 14 15  1  0  0  0  0
 14 20  1  0  0  0  0
 15 31  1  0  0  0  0
 15 33  1  0  0  0  0
 17 18  1  0  0  0  0
 17 23  1  0  0  0  0
 18 25  1  0  0  0  0
 18 26  1  0  0  0  0
 19 21  1  0  0  0  0
 19 40  1  0  0  0  0
 20 23  1  0  0  0  0
 21 22  2  0  0  0  0
 22 27  1  0  0  0  0
 23 24  1  0  0  0  0
 23 33  1  0  0  0  0
 24 26  1  0  0  0  0
 26 28  2  0  0  0  0
 27 36  2  0  0  0  0
 27 39  1  0  0  0  0
 28 29  1  0  0  0  0
 28 32  1  0  0  0  0
 29 37  2  0  0  0  0
 29 38  1  0  0  0  0
 31 34  1  0  0  0  0
 31 35  2  0  0  0  0
 36 40  1  0  0  0  0
 38 44  1  0  0  0  0
 39 41  2  0  0  0  0
 39 42  1  0  0  0  0
 39 43  2  0  0  0  0
 40 44  2  0  0  0  0
M  END
$$$$

 OpenBabel10082411353D

 44 56  0  0  0  0  0  0  0  0999 V2000
    8.0806    9.0240  -12.7589 C   0  0  0  0  0  0  0  0  0  0  0  0
    8.6514    7.8645  -12.2948 C   0  0  0  0  0  0  0  0  0  0  0  0
    9.9575    7.9974  -11.8426 C   0  0  0  0  0  0  0  0  0  0  0  0
   10.7657    6.8667  -11.6050 C   0  0  1  0  0  0  0  0  0  0  0  0
   10.7682    5.9590  -12.8271 C   0  0  0  0  0  0  0  0  0  0  0  0
   12.1553    7.3846  -11.2315 C   0  0  0  0  0  0  0  0  0  0  0  0
    8.0676    6.6451  -12.2974 C   0  0  0  0  0  0  0  0  0  0  0  0
   10.1892    6.1240  -10.3860 C   0  0  0  0  0  0  0  0  0  0  0  0
   11.8375    5.4373  -13.3240 O   0  0  0  0  0  0  0  0  0  0  0  0
    8.6785    5.4761  -13.0273 C   0  0  1  0  0  0  0  0  0  0  0  0
    9.1969    5.2405  -10.4969 C   0  0  1  0  0  0  0  0  0  0  0  0
    7.2213    6.2210  -11.3074 C   0  0  1  0  0  0  0  0  0  0  0  0
   12.5590    7.6872   -9.9896 C   0  0  0  0  0  0  0  0  0  0  0  0
    9.7633    5.0333  -12.9720 C   0  0  1  0  0  0  0  0  0  0  0  0
   10.0661    4.0167  -14.0373 N   0  0  0  0  0  0  0  0  0  0  0  0
   13.6906    8.3004   -9.6233 O   0  0  0  0  0  0  0  0  0  0  0  0
    7.6357    4.5123  -12.6317 C   0  0  2  0  0  0  0  0  0  0  0  0
    6.8831    4.9171  -11.7031 C   0  0  1  0  0  0  0  0  0  0  0  0
   10.5937    6.6967   -9.1779 C   0  0  0  0  0  0  0  0  0  0  0  0
    9.5087    4.3263  -11.6925 C   0  0  2  0  0  0  0  0  0  0  0  0
   11.6359    7.4449   -8.9125 C   0  0  0  0  0  0  0  0  0  0  0  0
   11.9716    7.9159   -7.6200 C   0  0  0  0  0  0  0  0  0  0  0  0
    8.4648    3.6122  -12.2840 C   0  0  2  0  0  0  0  0  0  0  0  0
    9.3128    4.5571   -9.1689 C   0  0  0  0  0  0  0  0  0  0  0  0
   10.9557    7.6369   -6.5929 C   0  0  1  0  0  0  0  0  0  0  0  0
    9.6490    2.8108  -13.7776 C   0  0  1  0  0  0  0  0  0  0  0  0
    9.6716    6.1981   -8.0224 C   0  0  2  0  0  0  0  0  0  0  0  0
    8.5511    2.5400  -13.1402 C   0  0  0  0  0  0  0  0  0  0  0  0
    9.7877    2.0302  -15.0383 O   0  0  0  0  0  0  0  0  0  0  0  0
   10.2949    6.3957   -6.8142 C   0  0  1  0  0  0  0  0  0  0  0  0
   11.5672    7.6277   -5.2275 C   0  0  0  0  0  0  0  0  0  0  0  0
    9.0573    5.0713   -8.1077 N   0  0  0  0  0  0  0  0  0  0  0  0
    9.9816    8.7976   -6.5531 C   0  0  0  0  0  0  0  0  0  0  0  0
   11.0000    1.9397  -15.5744 C   0  0  0  0  0  0  0  0  0  0  0  0
    7.9363    5.6537  -10.4961 C   0  0  1  0  0  0  0  0  0  0  0  0
   11.7094    6.5344   -4.5880 C   0  0  0  0  0  0  0  0  0  0  0  0
   11.4771    5.4017   -5.2557 C   0  0  0  0  0  0  0  0  0  0  0  0
   10.9774    5.3782   -6.4193 C   0  0  0  0  0  0  0  0  0  0  0  0
   11.7702    8.9891   -4.6113 C   0  0  1  0  0  0  0  0  0  0  0  0
   10.6199    9.7777   -4.4950 C   0  0  0  0  0  0  0  0  0  0  0  0
   12.2760    8.5933   -3.2722 C   0  0  0  0  0  0  0  0  0  0  0  0
   12.8888    9.7644   -5.2121 C   0  0  0  0  0  0  0  0  0  0  0  0
    9.8027    9.6681   -5.6953 C   0  0  0  0  0  0  0  0  0  0  0  0
   12.4021    7.0466   -3.1960 C   0  0  0  0  0  0  0  0  0  0  0  0
  1  2  1  0  0  0  0
  2  3  1  0  0  0  0
  2  7  2  0  0  0  0
  4  3  1  6  0  0  0
  4  5  1  0  0  0  0
  4  6  1  0  0  0  0
  4  8  1  0  0  0  0
  5  9  2  0  0  0  0
  6 13  1  0  0  0  0
  8 11  1  0  0  0  0
  8 19  2  0  0  0  0
 10  7  1  1  0  0  0
 10 14  1  0  0  0  0
 10 17  1  0  0  0  0
 11 20  1  0  0  0  0
 11 24  1  1  0  0  0
 11 35  1  0  0  0  0
 12  7  1  6  0  0  0
 12 18  1  0  0  0  0
 12 35  1  0  0  0  0
 13 16  2  0  0  0  0
 13 21  1  0  0  0  0
 14  5  1  1  0  0  0
 14 15  1  0  0  0  0
 14 20  1  0  0  0  0
 15 26  1  0  0  0  0
 17 18  1  0  0  0  0
 17 23  1  0  0  0  0
 18 35  1  0  0  0  0
 19 21  1  0  0  0  0
 19 27  1  0  0  0  0
 20 23  1  0  0  0  0
 21 22  2  0  0  0  0
 22 25  1  0  0  0  0
 23 28  1  0  0  0  0
 24 32  2  0  0  0  0
 25 30  1  0  0  0  0
 25 31  1  0  0  0  0
 25 33  1  0  0  0  0
 26 28  1  0  0  0  0
 26 29  1  0  0  0  0
 27 30  1  0  0  0  0
 27 32  1  0  0  0  0
 29 34  1  0  0  0  0
 30 38  1  0  0  0  0
 31 36  2  0  0  0  0
 31 39  1  0  0  0  0
 33 43  2  0  0  0  0
 36 37  1  0  0  0  0
 36 44  1  0  0  0  0
 37 38  2  0  0  0  0
 39 40  1  0  0  0  0
 39 41  1  0  0  0  0
 39 42  1  0  0  0  0
 40 43  1  0  0  0  0
 41 44  1  0  0  0  0
M  END
$$$$

 OpenBabel10082411353D

 44 50  0  0  0  0  0  0  0  0999 V2000
   11.6836    6.0105   -4.8831 F   0  0  0  0  0  0  0  0  0  0  0  0
   11.2562    7.2206   -5.0294 C   0  0  0  0  0  0  0  0  0  0  0  0
   12.0125    8.2418   -4.4408 C   0  0  0  0  0  0  0  0  0  0  0  0
   11.1918    7.2706   -6.5237 C   0  0  0  0  0  0  0  0  0  0  0  0
   11.6999    8.4488   -3.1704 F   0  0  0  0  0  0  0  0  0  0  0  0
    9.8648    7.0908   -4.5314 F   0  0  0  0  0  0  0  0  0  0  0  0
   11.6831    8.5291   -6.9682 C   0  0  0  0  0  0  0  0  0  0  0  0
   10.4785    6.5189   -7.4033 C   0  0  0  0  0  0  0  0  0  0  0  0
   11.6979    8.6661   -8.4760 C   0  0  0  0  0  0  0  0  0  0  0  0
   11.6248    9.5853   -5.0030 C   0  0  0  0  0  0  0  0  0  0  0  0
   11.8604    9.7907   -6.2903 O   0  0  0  0  0  0  0  0  0  0  0  0
   13.3557    8.1748   -4.5947 F   0  0  0  0  0  0  0  0  0  0  0  0
   10.5427    6.6061   -8.7190 C   0  0  0  0  0  0  0  0  0  0  0  0
   11.1158    7.7103   -9.2540 C   0  0  0  0  0  0  0  0  0  0  0  0
   11.3757    7.6656  -10.5293 N   0  0  0  0  0  0  0  0  0  0  0  0
   10.7153    7.7096  -11.5405 C   0  0  0  0  0  0  0  0  0  0  0  0
   11.2483    7.4711  -12.8542 C   0  0  0  0  0  0  0  0  0  0  0  0
    9.3980    7.7820  -11.5398 C   0  0  0  0  0  0  0  0  0  0  0  0
    8.6055    7.5889  -12.6525 C   0  0  0  0  0  0  0  0  0  0  0  0
   12.7508    7.3705  -13.0162 O   0  0  0  0  0  0  0  0  0  0  0  0
   10.5299    7.1831  -13.9856 C   0  0  0  0  0  0  0  0  0  0  0  0
    7.0533    7.7371  -12.5396 C   0  0  0  0  0  0  0  0  0  0  0  0
   11.2041    6.8490  -15.2304 C   0  0  0  0  0  0  0  0  0  0  0  0
   11.6393    5.5333  -15.3864 C   0  0  0  0  0  0  0  0  0  0  0  0
    9.1955    7.2935  -13.8301 C   0  0  0  0  0  0  0  0  0  0  0  0
   12.5294    5.1116  -16.1609 C   0  0  0  0  0  0  0  0  0  0  0  0
   11.2315    4.4703  -14.3200 C   0  0  0  0  0  0  0  0  0  0  0  0
   13.0194    6.0876  -17.1697 C   0  0  0  0  0  0  0  0  0  0  0  0
   12.9874    3.8316  -16.1456 C   0  0  0  0  0  0  0  0  0  0  0  0
   12.3949    2.9126  -15.4671 C   0  0  0  0  0  0  0  0  0  0  0  0
   10.2274    4.8149  -13.2643 C   0  0  0  0  0  0  0  0  0  0  0  0
    8.9564    4.3798  -13.5553 C   0  0  0  0  0  0  0  0  0  0  0  0
    8.7030    2.9995  -13.6113 C   0  0  0  0  0  0  0  0  0  0  0  0
   11.4166    3.2431  -14.5460 C   0  0  0  0  0  0  0  0  0  0  0  0
    7.3695    2.5639  -13.4881 C   0  0  0  0  0  0  0  0  0  0  0  0
   10.5729    2.1979  -13.9272 C   0  0  0  0  0  0  0  0  0  0  0  0
    9.5358    2.1981  -13.9798 C   0  0  0  0  0  0  0  0  0  0  0  0
    6.4075    3.3743  -12.8151 C   0  0  0  0  0  0  0  0  0  0  0  0
    5.3763    2.6754  -12.1448 C   0  0  0  0  0  0  0  0  0  0  0  0
    5.6143    1.2131  -12.4458 C   0  0  0  0  0  0  0  0  0  0  0  0
    7.0190    1.2475  -13.9077 C   0  0  0  0  0  0  0  0  0  0  0  0
    8.0720    0.6567  -14.7455 C   0  0  0  0  0  0  0  0  0  0  0  0
    6.3841    0.5162  -13.0904 C   0  0  0  0  0  0  0  0  0  0  0  0
    9.3997    0.9216  -14.5094 C   0  0  0  0  0  0  0  0  0  0  0  0
  1  2  1  0  0  0  0
  2  3  1  0  0  0  0
  2  4  1  0  0  0  0
  2  6  1  0  0  0  0
  3  5  1  0  0  0  0
  3 10  1  0  0  0  0
  3 12  1  0  0  0  0
  4  7  1  0  0  0  0
  4  8  2  0  0  0  0
  7  9  2  0  0  0  0
  7 11  1  0  0  0  0
  8 13  1  0  0  0  0
  9 14  1  0  0  0  0
 10 11  1  0  0  0  0
 13 14  2  0  0  0  0
 14 15  1  0  0  0  0
 15 16  1  0  0  0  0
 16 17  1  0  0  0  0
 16 18  2  0  0  0  0
 17 20  1  0  0  0  0
 17 21  2  0  0  0  0
 18 19  1  0  0  0  0
 19 22  1  0  0  0  0
 19 25  2  0  0  0  0
 21 23  1  0  0  0  0
 21 25  1  0  0  0  0
 23 24  1  0  0  0  0
 24 26  2  0  0  0  0
 24 27  1  0  0  0  0
 26 28  1  0  0  0  0
 26 29  1  0  0  0  0
 27 31  1  0  0  0  0
 27 34  2  0  0  0  0
 29 30  2  0  0  0  0
 30 34  1  0  0  0  0
 31 32  2  0  0  0  0
 32 33  1  0  0  0  0
 33 35  1  0  0  0  0
 33 37  2  0  0  0  0
 34 36  1  0  0  0  0
 35 38  1  0  0  0  0
 35 41  2  0  0  0  0
 36 37  1  0  0  0  0
 37 44  1  0  0  0  0
 38 39  2  0  0  0  0
 39 40  1  0  0  0  0
 40 43  2  0  0  0  0
 41 42  1  0  0  0  0
 41 43  1  0  0  0  0
 42 44  1  0  0  0  0
M  END
$$$$

 OpenBabel10082411353D

 44 50  0  0  0  0  0  0  0  0999 V2000
   11.6836    6.0105   -4.8831 F   0  0  0  0  0  0  0  0  0  0  0  0
   11.2562    7.2206   -5.0294 C   0  0  0  0  0  0  0  0  0  0  0  0
   12.0125    8.2418   -4.4408 C   0  0  0  0  0  0  0  0  0  0  0  0
   11.1918    7.2706   -6.5237 C   0  0  2  0  0  0  0  0  0  0  0  0
   11.6999    8.4488   -3.1704 F   0  0  0  0  0  0  0  0  0  0  0  0
    9.8648    7.0908   -4.5314 F   0  0  0  0  0  0  0  0  0  0  0  0
   11.6831    8.5291   -6.9682 C   0  0  1  0  0  0  0  0  0  0  0  0
   13.3042    8.0958   -4.5769 F   0  0  0  0  0  0  0  0  0  0  0  0
   10.0051    6.7877   -7.1387 C   0  0  2  0  0  0  0  0  0  0  0  0
   12.1549    9.4036   -6.0698 C   0  0  0  0  0  0  0  0  0  0  0  0
   11.7460    9.5074   -4.8672 O   0  0  0  0  0  0  0  0  0  0  0  0
   12.5684    8.5172   -7.8652 C   0  0  0  0  0  0  0  0  0  0  0  0
   10.4250    8.9412   -7.4869 C   0  0  0  0  0  0  0  0  0  0  0  0
    9.8902    5.4070   -7.8206 C   0  0  1  0  0  0  0  0  0  0  0  0
    8.7348    4.6919   -7.6168 C   0  0  0  0  0  0  0  0  0  0  0  0
    9.5887    7.8633   -8.0188 C   0  0  1  0  0  0  0  0  0  0  0  0
   10.0149    7.4671   -9.3945 C   0  0  0  0  0  0  0  0  0  0  0  0
    8.7013    3.5197   -8.2148 C   0  0  0  0  0  0  0  0  0  0  0  0
    9.3794    3.4628   -9.4166 C   0  0  0  0  0  0  0  0  0  0  0  0
    9.7670    8.0902  -10.5147 C   0  0  0  0  0  0  0  0  0  0  0  0
   10.1630    7.7248  -11.8028 C   0  0  0  0  0  0  0  0  0  0  0  0
   10.1363    4.5235   -9.8811 C   0  0  0  0  0  0  0  0  0  0  0  0
   10.2836    5.8862   -9.1314 C   0  0  2  0  0  0  0  0  0  0  0  0
    9.2642    7.6154  -12.7688 C   0  0  0  0  0  0  0  0  0  0  0  0
    9.7352    7.0429  -13.9890 C   0  0  0  0  0  0  0  0  0  0  0  0
    8.9431    5.9978  -14.4048 C   0  0  0  0  0  0  0  0  0  0  0  0
    8.0476    5.1914  -13.6918 C   0  0  0  0  0  0  0  0  0  0  0  0
    8.1490    3.7734  -13.7660 C   0  0  0  0  0  0  0  0  0  0  0  0
    7.0453    3.1418  -12.9717 C   0  0  0  0  0  0  0  0  0  0  0  0
    6.2338    3.8839  -12.1754 C   0  0  0  0  0  0  0  0  0  0  0  0
   10.8369    7.3431  -14.6932 C   0  0  0  0  0  0  0  0  0  0  0  0
    7.2107    5.8505  -12.7998 C   0  0  0  0  0  0  0  0  0  0  0  0
    5.3001    3.0920  -11.3306 F   0  0  0  0  0  0  0  0  0  0  0  0
    7.8586    7.9143  -12.4857 C   0  0  0  0  0  0  0  0  0  0  0  0
    6.3696    5.0319  -12.1370 C   0  0  0  0  0  0  0  0  0  0  0  0
    6.9659    7.0740  -12.5678 C   0  0  0  0  0  0  0  0  0  0  0  0
   11.6802    6.2859  -15.0974 C   0  0  0  0  0  0  0  0  0  0  0  0
   11.4895    5.0617  -14.5281 C   0  0  0  0  0  0  0  0  0  0  0  0
   11.6883    3.9380  -15.1014 C   0  0  0  0  0  0  0  0  0  0  0  0
   12.3721    4.1787  -16.3456 C   0  0  0  0  0  0  0  0  0  0  0  0
   12.1695    6.4061  -16.3031 C   0  0  0  0  0  0  0  0  0  0  0  0
   12.3763    7.6792  -16.8657 O   0  0  0  0  0  0  0  0  0  0  0  0
   12.7049    2.8291  -16.9849 F   0  0  0  0  0  0  0  0  0  0  0  0
   12.6109    5.2663  -16.9584 C   0  0  0  0  0  0  0  0  0  0  0  0
  1  2  1  0  0  0  0
  2  3  1  0  0  0  0
  2  6  1  0  0  0  0
  3  5  1  0  0  0  0
  3  8  1  0  0  0  0
  3 11  1  0  0  0  0
  4  2  1  1  0  0  0
  4  7  1  0  0  0  0
  4  9  1  0  0  0  0
  7 10  1  0  0  0  0
  7 12  1  6  0  0  0
  7 13  1  0  0  0  0
  9 14  1  0  0  0  0
  9 16  1  0  0  0  0
 10 11  1  0  0  0  0
 13 16  1  0  0  0  0
 14 15  1  0  0  0  0
 14 23  1  0  0  0  0
 15 18  2  0  0  0  0
 16 17  1  0  0  0  0
 17 20  2  3  0  0  0
 17 23  1  0  0  0  0
 18 19  1  0  0  0  0
 19 22  2  0  0  0  0
 20 21  1  0  0  0  0
 21 24  2  3  0  0  0
 22 23  1  0  0  0  0
 24 25  1  0  0  0  0
 24 34  1  0  0  0  0
 25 26  2  0  0  0  0
 25 31  1  0  0  0  0
 26 27  1  0  0  0  0
 27 28  2  0  0  0  0
 27 32  1  0  0  0  0
 28 29  1  0  0  0  0
 29 30  2  0  0  0  0
 30 33  1  0  0  0  0
 30 35  1  0  0  0  0
 31 37  1  0  0  0  0
 32 35  2  0  0  0  0
 32 36  1  0  0  0  0
 34 36  1  0  0  0  0
 37 38  1  0  0  0  0
 37 41  2  0  0  0  0
 38 39  2  0  0  0  0
 39 40  1  0  0  0  0
 40 43  1  0  0  0  0
 40 44  2  0  0  0  0
 41 42  1  0  0  0  0
 41 44  1  0  0  0  0
M  END
$$$$

 OpenBabel10082411353D

 27 30  0  0  0  0  0  0  0  0999 V2000
   10.1007    9.4495   -5.3698 C   0  0  0  0  0  0  0  0  0  0  0  0
    9.9859    8.8073   -6.5781 C   0  0  0  0  0  0  0  0  0  0  0  0
   11.2498    9.2723   -4.7903 C   0  0  0  0  0  0  0  0  0  0  0  0
   12.1568    8.4292   -5.5116 O   0  0  0  0  0  0  0  0  0  0  0  0
   11.3529    8.1637   -6.7127 C   0  0  0  0  0  0  0  0  0  0  0  0
   11.8835    7.3441   -7.8185 C   0  0  0  0  0  0  0  0  0  0  0  0
   11.1262    7.5684   -9.0587 N   0  0  0  0  0  0  0  0  0  0  0  0
    9.8238    7.1089   -9.2338 C   0  0  2  0  0  0  0  0  0  0  0  0
   11.7480    9.8161   -3.3777 C   0  0  0  0  0  0  0  0  0  0  0  0
   11.7356    8.2488  -10.0902 C   0  0  0  0  0  0  0  0  0  0  0  0
    9.4341    5.8943   -8.8721 C   0  0  0  0  0  0  0  0  0  0  0  0
    9.7694    7.0989  -10.8453 C   0  0  0  0  0  0  0  0  0  0  0  0
    8.8311    6.4140  -11.5294 C   0  0  2  0  0  0  0  0  0  0  0  0
   10.8954    7.8394  -11.3563 C   0  0  0  0  0  0  0  0  0  0  0  0
   11.0209    7.9784  -12.7105 C   0  0  0  0  0  0  0  0  0  0  0  0
   12.3231    8.0542  -13.3067 C   0  0  0  0  0  0  0  0  0  0  0  0
    7.6836    7.0157  -11.6778 C   0  0  0  0  0  0  0  0  0  0  0  0
   12.9976    8.6161  -10.2479 O   0  0  0  0  0  0  0  0  0  0  0  0
    8.5576    4.9800  -11.3013 C   0  0  0  0  0  0  0  0  0  0  0  0
    6.5797    6.2593  -11.8560 C   0  0  0  0  0  0  0  0  0  0  0  0
    7.1108    4.7790  -11.7785 N   0  0  0  0  0  0  0  0  0  0  0  0
    6.5471    3.6885  -12.3005 C   0  0  0  0  0  0  0  0  0  0  0  0
    7.0570    3.0403  -13.3679 C   0  0  0  0  0  0  0  0  0  0  0  0
    6.6259    1.7192  -13.6851 C   0  0  0  0  0  0  0  0  0  0  0  0
    5.5903    2.9184  -11.6115 C   0  0  0  0  0  0  0  0  0  0  0  0
    5.1468    1.7163  -11.8893 C   0  0  0  0  0  0  0  0  0  0  0  0
    5.6989    1.1051  -12.9998 C   0  0  0  0  0  0  0  0  0  0  0  0
  1  2  1  0  0  0  0
  1  3  2  0  0  0  0
  2  5  2  0  0  0  0
  3  4  1  0  0  0  0
  3  9  1  0  0  0  0
  4  5  1  0  0  0  0
  5  6  1  0  0  0  0
  6  7  1  0  0  0  0
  7  8  1  0  0  0  0
  7 10  1  0  0  0  0
  8 11  1  6  0  0  0
  8 12  1  0  0  0  0
 10 14  1  0  0  0  0
 10 18  2  0  0  0  0
 12 14  2  0  0  0  0
 13 12  1  1  0  0  0
 13 17  1  0  0  0  0
 13 19  1  0  0  0  0
 14 15  1  0  0  0  0
 15 16  1  0  0  0  0
 17 20  1  0  0  0  0
 19 21  1  0  0  0  0
 20 21  1  0  0  0  0
 21 22  1  0  0  0  0
 22 23  1  0  0  0  0
 22 25  2  0  0  0  0
 23 24  2  0  0  0  0
 24 27  1  0  0  0  0
 25 26  1  0  0  0  0
 26 27  2  0  0  0  0
M  END
$$$$

 OpenBabel10082411353D

 44 56  0  0  0  0  0  0  0  0999 V2000
    8.0806    9.0240  -12.7589 C   0  0  0  0  0  0  0  0  0  0  0  0
    8.6514    7.8645  -12.2948 C   0  0  0  0  0  0  0  0  0  0  0  0
    9.9575    7.9974  -11.8426 C   0  0  0  0  0  0  0  0  0  0  0  0
   10.7657    6.8667  -11.6050 C   0  0  1  0  0  0  0  0  0  0  0  0
   10.7682    5.9590  -12.8271 C   0  0  0  0  0  0  0  0  0  0  0  0
   12.1553    7.3846  -11.2315 C   0  0  0  0  0  0  0  0  0  0  0  0
    8.0676    6.6451  -12.2974 C   0  0  0  0  0  0  0  0  0  0  0  0
   10.1892    6.1240  -10.3860 C   0  0  0  0  0  0  0  0  0  0  0  0
   11.8375    5.4373  -13.3240 O   0  0  0  0  0  0  0  0  0  0  0  0
    8.6785    5.4761  -13.0273 C   0  0  1  0  0  0  0  0  0  0  0  0
    9.1969    5.2405  -10.4969 C   0  0  2  0  0  0  0  0  0  0  0  0
    7.2213    6.2210  -11.3074 C   0  0  2  0  0  0  0  0  0  0  0  0
   12.5590    7.6872   -9.9896 C   0  0  0  0  0  0  0  0  0  0  0  0
    9.7633    5.0333  -12.9720 C   0  0  1  0  0  0  0  0  0  0  0  0
   10.0661    4.0167  -14.0373 N   0  0  0  0  0  0  0  0  0  0  0  0
   13.6906    8.3004   -9.6233 O   0  0  0  0  0  0  0  0  0  0  0  0
    7.6357    4.5123  -12.6317 C   0  0  2  0  0  0  0  0  0  0  0  0
    6.8831    4.9171  -11.7031 C   0  0  2  0  0  0  0  0  0  0  0  0
   10.5937    6.6967   -9.1779 C   0  0  0  0  0  0  0  0  0  0  0  0
    9.5087    4.3263  -11.6925 C   0  0  2  0  0  0  0  0  0  0  0  0
   11.6359    7.4449   -8.9125 C   0  0  0  0  0  0  0  0  0  0  0  0
   11.9716    7.9159   -7.6200 C   0  0  0  0  0  0  0  0  0  0  0  0
    8.4648    3.6122  -12.2840 C   0  0  1  0  0  0  0  0  0  0  0  0
    7.9253    2.8004  -11.3926 C   0  0  2  0  0  0  0  0  0  0  0  0
    5.6047    4.5059  -11.7589 C   0  0  0  0  0  0  0  0  0  0  0  0
    7.6606    4.1297  -10.5699 C   0  0  0  0  0  0  0  0  0  0  0  0
   10.9559    7.6849   -6.6057 C   0  0  0  0  0  0  0  0  0  0  0  0
    8.0094    4.5092   -9.5664 C   0  0  0  0  0  0  0  0  0  0  0  0
    8.3033    4.0627   -8.4980 C   0  0  0  0  0  0  0  0  0  0  0  0
    6.3587    7.1012  -11.0392 O   0  0  0  0  0  0  0  0  0  0  0  0
   11.0186    3.9598  -14.9226 C   0  0  0  0  0  0  0  0  0  0  0  0
    8.1758    5.8633  -10.2511 C   0  0  1  0  0  0  0  0  0  0  0  0
   11.4648    2.7104  -15.2650 O   0  0  0  0  0  0  0  0  0  0  0  0
    9.9512    6.8220   -6.8436 C   0  0  0  0  0  0  0  0  0  0  0  0
    9.6899    6.3705   -8.1082 C   0  0  2  0  0  0  0  0  0  0  0  0
    9.1306    2.9610  -13.9685 C   0  0  0  0  0  0  0  0  0  0  0  0
    8.8414    5.0113   -7.7726 C   0  0  0  0  0  0  0  0  0  0  0  0
   11.6944    4.9031  -15.4200 O   0  0  0  0  0  0  0  0  0  0  0  0
   11.2282    8.3639   -5.2721 C   0  0  0  0  0  0  0  0  0  0  0  0
   11.7377    9.7620   -5.2848 C   0  0  0  0  0  0  0  0  0  0  0  0
    8.7016    2.4230  -12.9159 C   0  0  1  0  0  0  0  0  0  0  0  0
   11.3537    7.7273   -4.0820 C   0  0  0  0  0  0  0  0  0  0  0  0
   11.7958    8.6960   -2.9437 C   0  0  0  0  0  0  0  0  0  0  0  0
   12.1773    9.9890   -3.5263 C   0  0  0  0  0  0  0  0  0  0  0  0
  1  2  1  0  0  0  0
  2  3  1  0  0  0  0
  2  7  2  0  0  0  0
  4  3  1  6  0  0  0
  4  5  1  0  0  0  0
  4  6  1  0  0  0  0
  4  8  1  0  0  0  0
  5  9  2  0  0  0  0
  6 13  1  0  0  0  0
  7 12  1  0  0  0  0
  8 19  2  0  0  0  0
 10  7  1  1  0  0  0
 10 14  1  0  0  0  0
 10 17  1  0  0  0  0
 11  8  1  6  0  0  0
 11 20  1  0  0  0  0
 11 32  1  0  0  0  0
 12 18  1  0  0  0  0
 12 30  1  1  0  0  0
 12 32  1  0  0  0  0
 13 16  2  0  0  0  0
 13 21  1  0  0  0  0
 14  5  1  1  0  0  0
 14 15  1  0  0  0  0
 14 20  1  0  0  0  0
 15 31  1  0  0  0  0
 15 36  1  0  0  0  0
 17 18  1  0  0  0  0
 17 23  1  0  0  0  0
 18 25  1  0  0  0  0
 18 26  1  0  0  0  0
 19 21  1  0  0  0  0
 19 35  1  0  0  0  0
 20 23  1  0  0  0  0
 21 22  2  0  0  0  0
 22 27  1  0  0  0  0
 23 24  1  0  0  0  0
 23 41  1  0  0  0  0
 24 26  1  0  0  0  0
 24 41  1  0  0  0  0
 26 28  2  0  0  0  0
 27 34  2  0  0  0  0
 27 39  1  0  0  0  0
 28 29  1  0  0  0  0
 28 32  1  0  0  0  0
 29 37  2  0  0  0  0
 31 33  2  0  0  0  0
 31 38  1  0  0  0  0
 34 35  1  0  0  0  0
 35 37  1  0  0  0  0
 36 41  1  0  0  0  0
 39 40  1  0  0  0  0
 39 42  2  0  0  0  0
 40 44  1  0  0  0  0
 42 43  1  0  0  0  0
 43 44  2  0  0  0  0
M  END
$$$$

 OpenBabel10082411353D

 44 55  0  0  0  0  0  0  0  0999 V2000
    8.0806    9.0240  -12.7589 C   0  0  0  0  0  0  0  0  0  0  0  0
    8.6514    7.8645  -12.2948 C   0  0  0  0  0  0  0  0  0  0  0  0
    9.9575    7.9974  -11.8426 C   0  0  0  0  0  0  0  0  0  0  0  0
   10.7657    6.8667  -11.6050 C   0  0  1  0  0  0  0  0  0  0  0  0
   10.7682    5.9590  -12.8271 C   0  0  0  0  0  0  0  0  0  0  0  0
   12.1553    7.3846  -11.2315 C   0  0  0  0  0  0  0  0  0  0  0  0
    8.0676    6.6451  -12.2974 C   0  0  0  0  0  0  0  0  0  0  0  0
   10.1892    6.1240  -10.3860 C   0  0  0  0  0  0  0  0  0  0  0  0
   11.8375    5.4373  -13.3240 O   0  0  0  0  0  0  0  0  0  0  0  0
    8.6785    5.4761  -13.0273 C   0  0  1  0  0  0  0  0  0  0  0  0
    9.1969    5.2405  -10.4969 C   0  0  2  0  0  0  0  0  0  0  0  0
    7.2213    6.2210  -11.3074 C   0  0  2  0  0  0  0  0  0  0  0  0
   12.5590    7.6872   -9.9896 C   0  0  0  0  0  0  0  0  0  0  0  0
    9.7633    5.0333  -12.9720 C   0  0  1  0  0  0  0  0  0  0  0  0
   10.0661    4.0167  -14.0373 N   0  0  0  0  0  0  0  0  0  0  0  0
   13.6906    8.3004   -9.6233 O   0  0  0  0  0  0  0  0  0  0  0  0
    7.6357    4.5123  -12.6317 C   0  0  2  0  0  0  0  0  0  0  0  0
    6.8831    4.9171  -11.7031 C   0  0  2  0  0  0  0  0  0  0  0  0
   10.5937    6.6967   -9.1779 C   0  0  0  0  0  0  0  0  0  0  0  0
    9.5087    4.3263  -11.6925 C   0  0  2  0  0  0  0  0  0  0  0  0
   11.6359    7.4449   -8.9125 C   0  0  0  0  0  0  0  0  0  0  0  0
   11.9716    7.9159   -7.6200 C   0  0  0  0  0  0  0  0  0  0  0  0
    8.4648    3.6122  -12.2840 C   0  0  1  0  0  0  0  0  0  0  0  0
    7.9253    2.8004  -11.3926 C   0  0  0  0  0  0  0  0  0  0  0  0
    5.6047    4.5059  -11.7589 C   0  0  0  0  0  0  0  0  0  0  0  0
    7.6606    4.1297  -10.5699 C   0  0  0  0  0  0  0  0  0  0  0  0
   10.9559    7.6849   -6.6057 C   0  0  0  0  0  0  0  0  0  0  0  0
    8.0094    4.5092   -9.5664 C   0  0  0  0  0  0  0  0  0  0  0  0
    8.3033    4.0627   -8.4980 C   0  0  0  0  0  0  0  0  0  0  0  0
    6.3587    7.1012  -11.0392 O   0  0  0  0  0  0  0  0  0  0  0  0
   11.0186    3.9598  -14.9226 C   0  0  0  0  0  0  0  0  0  0  0  0
    8.1758    5.8633  -10.2511 C   0  0  1  0  0  0  0  0  0  0  0  0
   11.4648    2.7104  -15.2650 O   0  0  0  0  0  0  0  0  0  0  0  0
    9.9512    6.8220   -6.8436 C   0  0  0  0  0  0  0  0  0  0  0  0
    9.6899    6.3705   -8.1082 C   0  0  2  0  0  0  0  0  0  0  0  0
   11.2597    8.2901   -5.2396 C   0  0  0  0  0  0  0  0  0  0  0  0
   11.6068    9.7354   -5.2006 C   0  0  0  0  0  0  0  0  0  0  0  0
   10.9469    4.9352  -15.8306 C   0  0  0  0  0  0  0  0  0  0  0  0
    9.2417    4.9555   -7.8256 C   0  0  0  0  0  0  0  0  0  0  0  0
   11.3657    7.7043   -4.0379 C   0  0  0  0  0  0  0  0  0  0  0  0
    9.3036    2.8311  -13.6285 C   0  0  0  0  0  0  0  0  0  0  0  0
   11.4466   10.6213   -6.4141 C   0  0  0  0  0  0  0  0  0  0  0  0
   11.7824    8.7130   -2.9979 C   0  0  0  0  0  0  0  0  0  0  0  0
   11.9150   10.3038   -4.0273 C   0  0  0  0  0  0  0  0  0  0  0  0
  1  2  1  0  0  0  0
  2  3  1  0  0  0  0
  2  7  2  0  0  0  0
  4  3  1  6  0  0  0
  4  5  1  0  0  0  0
  4  6  1  0  0  0  0
  4  8  1  0  0  0  0
  5  9  2  0  0  0  0
  6 13  1  0  0  0  0
  7 12  1  0  0  0  0
  8 19  2  0  0  0  0
 10  7  1  1  0  0  0
 10 14  1  0  0  0  0
 10 17  1  0  0  0  0
 11  8  1  6  0  0  0
 11 20  1  0  0  0  0
 11 32  1  0  0  0  0
 12 18  1  0  0  0  0
 12 30  1  1  0  0  0
 12 32  1  0  0  0  0
 13 16  2  0  0  0  0
 13 21  1  0  0  0  0
 14  5  1  1  0  0  0
 14 15  1  0  0  0  0
 14 20  1  0  0  0  0
 15 31  1  0  0  0  0
 15 41  1  0  0  0  0
 17 18  1  0  0  0  0
 17 23  1  0  0  0  0
 18 25  1  0  0  0  0
 18 26  1  0  0  0  0
 19 21  1  0  0  0  0
 19 35  1  0  0  0  0
 20 23  1  0  0  0  0
 21 22  2  0  0  0  0
 22 27  1  0  0  0  0
 23 24  1  0  0  0  0
 23 41  1  0  0  0  0
 24 26  1  0  0  0  0
 26 28  2  0  0  0  0
 27 34  2  0  0  0  0
 27 36  1  0  0  0  0
 28 29  1  0  0  0  0
 28 32  1  0  0  0  0
 29 39  2  0  0  0  0
 31 33  2  0  0  0  0
 31 38  1  0  0  0  0
 34 35  1  0  0  0  0
 35 39  1  0  0  0  0
 36 37  1  0  0  0  0
 36 40  2  0  0  0  0
 37 42  1  0  0  0  0
 37 44  2  0  0  0  0
 40 43  1  0  0  0  0
 43 44  1  0  0  0  0
M  END
$$$$

 OpenBabel10082411353D

 44 55  0  0  0  0  0  0  0  0999 V2000
    8.0806    9.0240  -12.7589 C   0  0  0  0  0  0  0  0  0  0  0  0
    8.6514    7.8645  -12.2948 C   0  0  0  0  0  0  0  0  0  0  0  0
    9.9575    7.9974  -11.8426 C   0  0  0  0  0  0  0  0  0  0  0  0
   10.7657    6.8667  -11.6050 C   0  0  1  0  0  0  0  0  0  0  0  0
   10.7682    5.9590  -12.8271 C   0  0  0  0  0  0  0  0  0  0  0  0
   12.1553    7.3846  -11.2315 C   0  0  0  0  0  0  0  0  0  0  0  0
    8.0676    6.6451  -12.2974 C   0  0  0  0  0  0  0  0  0  0  0  0
   10.1892    6.1240  -10.3860 C   0  0  0  0  0  0  0  0  0  0  0  0
   11.8375    5.4373  -13.3240 O   0  0  0  0  0  0  0  0  0  0  0  0
    8.6785    5.4761  -13.0273 C   0  0  1  0  0  0  0  0  0  0  0  0
    9.1969    5.2405  -10.4969 C   0  0  2  0  0  0  0  0  0  0  0  0
    7.2213    6.2210  -11.3074 C   0  0  2  0  0  0  0  0  0  0  0  0
   12.5590    7.6872   -9.9896 C   0  0  0  0  0  0  0  0  0  0  0  0
    9.7633    5.0333  -12.9720 C   0  0  1  0  0  0  0  0  0  0  0  0
   10.0661    4.0167  -14.0373 N   0  0  0  0  0  0  0  0  0  0  0  0
   13.6906    8.3004   -9.6233 O   0  0  0  0  0  0  0  0  0  0  0  0
    7.6357    4.5123  -12.6317 C   0  0  2  0  0  0  0  0  0  0  0  0
    6.8831    4.9171  -11.7031 C   0  0  2  0  0  0  0  0  0  0  0  0
   10.5937    6.6967   -9.1779 C   0  0  0  0  0  0  0  0  0  0  0  0
    9.5087    4.3263  -11.6925 C   0  0  2  0  0  0  0  0  0  0  0  0
   11.6359    7.4449   -8.9125 C   0  0  0  0  0  0  0  0  0  0  0  0
   11.9716    7.9159   -7.6200 C   0  0  0  0  0  0  0  0  0  0  0  0
    8.4648    3.6122  -12.2840 C   0  0  1  0  0  0  0  0  0  0  0  0
    7.9253    2.8004  -11.3926 C   0  0  0  0  0  0  0  0  0  0  0  0
    5.6047    4.5059  -11.7589 C   0  0  0  0  0  0  0  0  0  0  0  0
    7.6606    4.1297  -10.5699 C   0  0  0  0  0  0  0  0  0  0  0  0
   10.9559    7.6849   -6.6057 C   0  0  0  0  0  0  0  0  0  0  0  0
    8.0094    4.5092   -9.5664 C   0  0  0  0  0  0  0  0  0  0  0  0
    8.3033    4.0627   -8.4980 C   0  0  0  0  0  0  0  0  0  0  0  0
    6.3587    7.1012  -11.0392 O   0  0  0  0  0  0  0  0  0  0  0  0
   11.0186    3.9598  -14.9226 C   0  0  0  0  0  0  0  0  0  0  0  0
    8.1758    5.8633  -10.2511 C   0  0  1  0  0  0  0  0  0  0  0  0
   11.4648    2.7104  -15.2650 O   0  0  0  0  0  0  0  0  0  0  0  0
    9.9512    6.8220   -6.8436 C   0  0  0  0  0  0  0  0  0  0  0  0
    9.6899    6.3705   -8.1082 C   0  0  2  0  0  0  0  0  0  0  0  0
    9.1306    2.9610  -13.9685 C   0  0  2  0  0  0  0  0  0  0  0  0
    8.8414    5.0113   -7.7726 C   0  0  0  0  0  0  0  0  0  0  0  0
   11.0996    4.8769  -15.8101 O   0  0  0  0  0  0  0  0  0  0  0  0
    8.7802    2.3889  -15.2427 C   0  0  0  0  0  0  0  0  0  0  0  0
    7.9994    3.0782  -13.3884 C   0  0  2  0  0  0  0  0  0  0  0  0
   11.2273    8.3935   -5.2802 C   0  0  0  0  0  0  0  0  0  0  0  0
   11.8845    9.6649   -5.2683 C   0  0  0  0  0  0  0  0  0  0  0  0
   11.9606    7.5696   -4.4137 C   0  0  0  0  0  0  0  0  0  0  0  0
    9.7843    8.8217   -4.7499 C   0  0  0  0  0  0  0  0  0  0  0  0
  1  2  1  0  0  0  0
  2  3  1  0  0  0  0
  2  7  2  0  0  0  0
  4  3  1  6  0  0  0
  4  5  1  0  0  0  0
  4  6  1  0  0  0  0
  4  8  1  0  0  0  0
  5  9  2  0  0  0  0
  6 13  1  0  0  0  0
  7 12  1  0  0  0  0
  8 19  2  0  0  0  0
 10  7  1  1  0  0  0
 10 14  1  0  0  0  0
 10 17  1  0  0  0  0
 11  8  1  6  0  0  0
 11 20  1  0  0  0  0
 11 32  1  0  0  0  0
 12 18  1  0  0  0  0
 12 30  1  1  0  0  0
 12 32  1  0  0  0  0
 13 16  2  0  0  0  0
 13 21  1  0  0  0  0
 14  5  1  1  0  0  0
 14 15  1  0  0  0  0
 14 20  1  0  0  0  0
 15 31  1  0  0  0  0
 15 36  1  0  0  0  0
 17 18  1  0  0  0  0
 17 23  1  0  0  0  0
 17 40  1  0  0  0  0
 18 25  1  0  0  0  0
 18 26  1  0  0  0  0
 19 21  1  0  0  0  0
 19 35  1  0  0  0  0
 20 23  1  0  0  0  0
 21 22  2  0  0  0  0
 22 27  1  0  0  0  0
 23 24  1  0  0  0  0
 23 40  1  0  0  0  0
 24 26  1  0  0  0  0
 26 28  2  0  0  0  0
 27 34  2  0  0  0  0
 27 41  1  0  0  0  0
 28 29  1  0  0  0  0
 28 32  1  0  0  0  0
 29 37  2  0  0  0  0
 31 33  2  0  0  0  0
 31 38  1  0  0  0  0
 34 35  1  0  0  0  0
 35 37  1  0  0  0  0
 36 39  1  0  0  0  0
 36 40  1  0  0  0  0
 41 42  1  0  0  0  0
 41 43  1  0  0  0  0
 41 44  1  0  0  0  0
M  END
$$$$

 OpenBabel10082411353D

 44 55  0  0  0  0  0  0  0  0999 V2000
    8.0806    9.0240  -12.7589 C   0  0  0  0  0  0  0  0  0  0  0  0
    8.6514    7.8645  -12.2948 C   0  0  0  0  0  0  0  0  0  0  0  0
    9.9575    7.9974  -11.8426 C   0  0  0  0  0  0  0  0  0  0  0  0
   10.7657    6.8667  -11.6050 C   0  0  1  0  0  0  0  0  0  0  0  0
   10.7682    5.9590  -12.8271 C   0  0  0  0  0  0  0  0  0  0  0  0
   12.1553    7.3846  -11.2315 C   0  0  0  0  0  0  0  0  0  0  0  0
    8.0676    6.6451  -12.2974 C   0  0  0  0  0  0  0  0  0  0  0  0
   10.1892    6.1240  -10.3860 C   0  0  0  0  0  0  0  0  0  0  0  0
   11.8375    5.4373  -13.3240 O   0  0  0  0  0  0  0  0  0  0  0  0
    8.6785    5.4761  -13.0273 C   0  0  1  0  0  0  0  0  0  0  0  0
    9.1969    5.2405  -10.4969 C   0  0  2  0  0  0  0  0  0  0  0  0
    7.2213    6.2210  -11.3074 C   0  0  2  0  0  0  0  0  0  0  0  0
   12.5590    7.6872   -9.9896 C   0  0  0  0  0  0  0  0  0  0  0  0
    9.7633    5.0333  -12.9720 C   0  0  1  0  0  0  0  0  0  0  0  0
   10.0661    4.0167  -14.0373 N   0  0  0  0  0  0  0  0  0  0  0  0
   13.6906    8.3004   -9.6233 O   0  0  0  0  0  0  0  0  0  0  0  0
    7.6357    4.5123  -12.6317 C   0  0  2  0  0  0  0  0  0  0  0  0
    6.8831    4.9171  -11.7031 C   0  0  2  0  0  0  0  0  0  0  0  0
   10.5937    6.6967   -9.1779 C   0  0  0  0  0  0  0  0  0  0  0  0
    9.5087    4.3263  -11.6925 C   0  0  2  0  0  0  0  0  0  0  0  0
   11.6359    7.4449   -8.9125 C   0  0  0  0  0  0  0  0  0  0  0  0
   11.9716    7.9159   -7.6200 C   0  0  0  0  0  0  0  0  0  0  0  0
    8.4648    3.6122  -12.2840 C   0  0  1  0  0  0  0  0  0  0  0  0
    7.9253    2.8004  -11.3926 C   0  0  0  0  0  0  0  0  0  0  0  0
    5.6047    4.5059  -11.7589 C   0  0  0  0  0  0  0  0  0  0  0  0
    7.6606    4.1297  -10.5699 C   0  0  0  0  0  0  0  0  0  0  0  0
   10.9559    7.6849   -6.6057 C   0  0  0  0  0  0  0  0  0  0  0  0
    8.0094    4.5092   -9.5664 C   0  0  0  0  0  0  0  0  0  0  0  0
    8.3033    4.0627   -8.4980 C   0  0  0  0  0  0  0  0  0  0  0  0
    6.3587    7.1012  -11.0392 O   0  0  0  0  0  0  0  0  0  0  0  0
   11.0186    3.9598  -14.9226 C   0  0  0  0  0  0  0  0  0  0  0  0
    8.1758    5.8633  -10.2511 C   0  0  1  0  0  0  0  0  0  0  0  0
   11.4648    2.7104  -15.2650 O   0  0  0  0  0  0  0  0  0  0  0  0
    9.9512    6.8220   -6.8436 C   0  0  0  0  0  0  0  0  0  0  0  0
    9.6899    6.3705   -8.1082 C   0  0  2  0  0  0  0  0  0  0  0  0
   11.2597    8.2901   -5.2396 C   0  0  0  0  0  0  0  0  0  0  0  0
   11.6068    9.7354   -5.2006 C   0  0  0  0  0  0  0  0  0  0  0  0
   10.9469    4.9352  -15.8306 C   0  0  0  0  0  0  0  0  0  0  0  0
   11.3329    7.6738   -4.0495 C   0  0  0  0  0  0  0  0  0  0  0  0
   11.4693   10.6433   -6.4294 C   0  0  0  0  0  0  0  0  0  0  0  0
    9.3527    2.8441  -13.4234 C   0  0  0  0  0  0  0  0  0  0  0  0
   11.7655    8.6910   -3.0007 O   0  0  0  0  0  0  0  0  0  0  0  0
   11.8429    9.9780   -3.8107 C   0  0  0  0  0  0  0  0  0  0  0  0
    9.2567    5.0345   -7.7526 C   0  0  0  0  0  0  0  0  0  0  0  0
  1  2  1  0  0  0  0
  2  3  1  0  0  0  0
  2  7  2  0  0  0  0
  4  3  1  6  0  0  0
  4  5  1  0  0  0  0
  4  6  1  0  0  0  0
  4  8  1  0  0  0  0
  5  9  2  0  0  0  0
  6 13  1  0  0  0  0
  7 12  1  0  0  0  0
  8 19  2  0  0  0  0
 10  7  1  1  0  0  0
 10 14  1  0  0  0  0
 10 17  1  0  0  0  0
 11  8  1  6  0  0  0
 11 20  1  0  0  0  0
 11 32  1  0  0  0  0
 12 18  1  0  0  0  0
 12 30  1  1  0  0  0
 12 32  1  0  0  0  0
 13 16  2  0  0  0  0
 13 21  1  0  0  0  0
 14  5  1  1  0  0  0
 14 15  1  0  0  0  0
 14 20  1  0  0  0  0
 15 31  1  0  0  0  0
 15 41  1  0  0  0  0
 17 18  1  0  0  0  0
 17 23  1  0  0  0  0
 18 25  1  0  0  0  0
 18 26  1  0  0  0  0
 19 21  1  0  0  0  0
 19 35  1  0  0  0  0
 20 23  1  0  0  0  0
 21 22  2  0  0  0  0
 22 27  1  0  0  0  0
 23 24  1  0  0  0  0
 23 41  1  0  0  0  0
 24 26  1  0  0  0  0
 26 28  2  0  0  0  0
 27 34  2  0  0  0  0
 27 36  1  0  0  0  0
 28 29  1  0  0  0  0
 28 32  1  0  0  0  0
 29 44  2  0  0  0  0
 31 33  2  0  0  0  0
 31 38  1  0  0  0  0
 34 35  1  0  0  0  0
 35 44  1  0  0  0  0
 36 37  1  0  0  0  0
 36 39  2  0  0  0  0
 37 40  1  0  0  0  0
 37 43  2  0  0  0  0
 39 42  1  0  0  0  0
 42 43  1  0  0  0  0
M  END
$$$$

 OpenBabel10082411353D

 45 53  0  0  0  0  0  0  0  0999 V2000
   11.6836    6.0105   -4.8831 C   0  0  0  0  0  0  0  0  0  0  0  0
   11.1291    7.0732   -5.4395 C   0  0  0  0  0  0  0  0  0  0  0  0
   10.6954    7.0156   -6.8073 C   0  0  0  0  0  0  0  0  0  0  0  0
   10.2502    8.1187   -7.5536 C   0  0  2  0  0  0  0  0  0  0  0  0
   11.1205    8.4712   -4.9629 C   0  0  0  0  0  0  0  0  0  0  0  0
   10.8655    8.3511   -8.7960 C   0  0  0  0  0  0  0  0  0  0  0  0
   10.2922    7.8843   -9.9985 C   0  0  0  0  0  0  0  0  0  0  0  0
   10.4654    9.6993   -5.6120 C   0  0  0  0  0  0  0  0  0  0  0  0
   10.3510    9.5971   -7.0014 C   0  0  0  0  0  0  0  0  0  0  0  0
   12.2462    6.3351   -3.5020 C   0  0  0  0  0  0  0  0  0  0  0  0
   11.0471    7.5309  -11.1063 C   0  0  0  0  0  0  0  0  0  0  0  0
   11.7288    8.6923   -3.6518 C   0  0  0  0  0  0  0  0  0  0  0  0
   12.3991    7.7501  -11.1145 C   0  0  0  0  0  0  0  0  0  0  0  0
   12.3738    7.7580   -2.9599 C   0  0  0  0  0  0  0  0  0  0  0  0
   13.1285    8.5075  -10.1661 O   0  0  0  0  0  0  0  0  0  0  0  0
    9.0407    7.3775  -10.0973 N   0  0  0  0  0  0  0  0  0  0  0  0
    8.9787    6.9473  -11.4664 N   0  0  0  0  0  0  0  0  0  0  0  0
   13.1012    7.4459  -12.3707 C   0  0  0  0  0  0  0  0  0  0  0  0
   12.2395    6.9724  -13.2444 C   0  0  0  0  0  0  0  0  0  0  0  0
   10.2768    7.0170  -11.9799 C   0  0  0  0  0  0  0  0  0  0  0  0
   12.9237    6.5822  -14.5759 O   0  0  0  0  0  0  0  0  0  0  0  0
   10.8906    6.6526  -13.2252 C   0  0  0  0  0  0  0  0  0  0  0  0
   12.2396    6.1290  -15.6916 C   0  0  0  0  0  0  0  0  0  0  0  0
    7.8036    6.1825  -11.9342 C   0  0  0  0  0  0  0  0  0  0  0  0
   12.5015    4.7115  -15.7686 C   0  0  0  0  0  0  0  0  0  0  0  0
    7.1685    6.9992  -12.8245 C   0  0  0  0  0  0  0  0  0  0  0  0
   11.2461    3.8540  -15.4851 C   0  0  0  0  0  0  0  0  0  0  0  0
    7.6237    4.9154  -11.6529 C   0  0  0  0  0  0  0  0  0  0  0  0
    6.6378    4.1960  -12.2267 C   0  0  0  0  0  0  0  0  0  0  0  0
    6.2717    2.7675  -11.9743 C   0  0  0  0  0  0  0  0  0  0  0  0
    6.6569    1.8873  -12.9460 C   0  0  0  0  0  0  0  0  0  0  0  0
    7.3895    8.4597  -13.1785 C   0  0  0  0  0  0  0  0  0  0  0  0
    6.3114    0.5653  -12.7247 C   0  0  0  0  0  0  0  0  0  0  0  0
    7.7684    2.0327  -13.9055 C   0  0  0  0  0  0  0  0  0  0  0  0
    6.9387   -0.3720  -13.7691 C   0  0  0  0  0  0  0  0  0  0  0  0
    8.3285    1.1433  -14.6815 C   0  0  0  0  0  0  0  0  0  0  0  0
   11.1366    3.2519  -14.4180 O   0  0  0  0  0  0  0  0  0  0  0  0
    7.8526   -0.2094  -14.5021 C   0  0  0  0  0  0  0  0  0  0  0  0
   10.0170    4.3035  -15.7976 C   0  0  0  0  0  0  0  0  0  0  0  0
    9.9554    2.7038  -14.1564 C   0  0  0  0  0  0  0  0  0  0  0  0
    9.0879    3.1681  -14.8726 C   0  0  0  0  0  0  0  0  0  0  0  0
    7.9006    2.9254  -14.9477 C   0  0  0  0  0  0  0  0  0  0  0  0
    9.7568    1.2638  -14.5547 C   0  0  0  0  0  0  0  0  0  0  0  0
    5.7704    5.1789  -13.1710 C   0  0  0  0  0  0  0  0  0  0  0  0
    6.1118    6.4061  -13.3651 C   0  0  0  0  0  0  0  0  0  0  0  0
  1  2  1  0  0  0  0
  1 10  2  0  0  0  0
  2  3  1  0  0  0  0
  2  5  2  0  0  0  0
  3  4  1  0  0  0  0
  4  6  1  6  0  0  0
  4  9  1  0  0  0  0
  5  8  1  0  0  0  0
  5 12  1  0  0  0  0
  6  7  1  0  0  0  0
  7 11  1  0  0  0  0
  7 16  2  0  0  0  0
  8  9  1  0  0  0  0
 10 14  1  0  0  0  0
 11 13  2  0  0  0  0
 11 20  1  0  0  0  0
 12 14  2  0  0  0  0
 13 15  1  0  0  0  0
 13 18  1  0  0  0  0
 16 17  1  0  0  0  0
 17 20  1  0  0  0  0
 17 24  1  0  0  0  0
 18 19  2  0  0  0  0
 19 21  1  0  0  0  0
 19 22  1  0  0  0  0
 20 22  2  0  0  0  0
 21 23  1  0  0  0  0
 23 25  1  0  0  0  0
 24 26  2  0  0  0  0
 24 28  1  0  0  0  0
 25 27  1  0  0  0  0
 26 32  1  0  0  0  0
 26 45  1  0  0  0  0
 27 37  1  0  0  0  0
 27 39  2  0  0  0  0
 28 29  2  0  0  0  0
 29 30  1  0  0  0  0
 29 44  1  0  0  0  0
 30 31  1  0  0  0  0
 31 33  2  0  0  0  0
 31 34  1  0  0  0  0
 33 35  1  0  0  0  0
 34 36  2  0  0  0  0
 34 42  1  0  0  0  0
 35 38  2  0  0  0  0
 36 38  1  0  0  0  0
 36 43  1  0  0  0  0
 37 40  1  0  0  0  0
 39 41  1  0  0  0  0
 40 41  2  0  0  0  0
 40 43  1  0  0  0  0
 41 42  1  0  0  0  0
 44 45  2  0  0  0  0
M  END
$$$$

 OpenBabel10082411353D

 45 57  0  0  0  0  0  0  0  0999 V2000
    8.0806    9.0240  -12.7589 C   0  0  0  0  0  0  0  0  0  0  0  0
    8.6514    7.8645  -12.2948 C   0  0  0  0  0  0  0  0  0  0  0  0
    9.9575    7.9974  -11.8426 C   0  0  0  0  0  0  0  0  0  0  0  0
   10.7657    6.8667  -11.6050 C   0  0  1  0  0  0  0  0  0  0  0  0
   10.7682    5.9590  -12.8271 C   0  0  0  0  0  0  0  0  0  0  0  0
   12.1553    7.3846  -11.2315 C   0  0  0  0  0  0  0  0  0  0  0  0
    8.0676    6.6451  -12.2974 C   0  0  0  0  0  0  0  0  0  0  0  0
   10.1892    6.1240  -10.3860 C   0  0  0  0  0  0  0  0  0  0  0  0
   11.8375    5.4373  -13.3240 O   0  0  0  0  0  0  0  0  0  0  0  0
    8.6785    5.4761  -13.0273 C   0  0  1  0  0  0  0  0  0  0  0  0
    9.1969    5.2405  -10.4969 C   0  0  2  0  0  0  0  0  0  0  0  0
    7.2213    6.2210  -11.3074 C   0  0  2  0  0  0  0  0  0  0  0  0
   12.5590    7.6872   -9.9896 C   0  0  0  0  0  0  0  0  0  0  0  0
    9.7633    5.0333  -12.9720 C   0  0  1  0  0  0  0  0  0  0  0  0
   10.0661    4.0167  -14.0373 N   0  0  0  0  0  0  0  0  0  0  0  0
   13.6906    8.3004   -9.6233 O   0  0  0  0  0  0  0  0  0  0  0  0
    7.6357    4.5123  -12.6317 C   0  0  2  0  0  0  0  0  0  0  0  0
    6.8831    4.9171  -11.7031 C   0  0  2  0  0  0  0  0  0  0  0  0
   10.5937    6.6967   -9.1779 C   0  0  0  0  0  0  0  0  0  0  0  0
    9.5087    4.3263  -11.6925 C   0  0  2  0  0  0  0  0  0  0  0  0
   11.6359    7.4449   -8.9125 C   0  0  0  0  0  0  0  0  0  0  0  0
   11.9716    7.9159   -7.6200 C   0  0  0  0  0  0  0  0  0  0  0  0
    8.4648    3.6122  -12.2840 C   0  0  1  0  0  0  0  0  0  0  0  0
    7.9253    2.8004  -11.3926 C   0  0  2  0  0  0  0  0  0  0  0  0
    5.6047    4.5059  -11.7589 C   0  0  0  0  0  0  0  0  0  0  0  0
    7.6606    4.1297  -10.5699 C   0  0  0  0  0  0  0  0  0  0  0  0
   10.9559    7.6849   -6.6057 C   0  0  0  0  0  0  0  0  0  0  0  0
    8.0094    4.5092   -9.5664 C   0  0  0  0  0  0  0  0  0  0  0  0
    8.3033    4.0627   -8.4980 C   0  0  0  0  0  0  0  0  0  0  0  0
    6.3587    7.1012  -11.0392 O   0  0  0  0  0  0  0  0  0  0  0  0
   11.0186    3.9598  -14.9226 C   0  0  0  0  0  0  0  0  0  0  0  0
    8.1758    5.8633  -10.2511 C   0  0  1  0  0  0  0  0  0  0  0  0
   11.4648    2.7104  -15.2650 O   0  0  0  0  0  0  0  0  0  0  0  0
    9.9512    6.8220   -6.8436 C   0  0  0  0  0  0  0  0  0  0  0  0
    9.6899    6.3705   -8.1082 C   0  0  2  0  0  0  0  0  0  0  0  0
    9.1306    2.9610  -13.9685 C   0  0  0  0  0  0  0  0  0  0  0  0
    8.8414    5.0113   -7.7726 C   0  0  0  0  0  0  0  0  0  0  0  0
   11.6944    4.9031  -15.4200 O   0  0  0  0  0  0  0  0  0  0  0  0
   11.2282    8.3639   -5.2721 C   0  0  0  0  0  0  0  0  0  0  0  0
   11.7377    9.7620   -5.2848 C   0  0  0  0  0  0  0  0  0  0  0  0
    8.7016    2.4230  -12.9159 C   0  0  1  0  0  0  0  0  0  0  0  0
   11.3537    7.7273   -4.0820 C   0  0  0  0  0  0  0  0  0  0  0  0
   11.7958    8.6960   -2.9437 C   0  0  0  0  0  0  0  0  0  0  0  0
   11.2733    6.2184   -4.0586 C   0  0  0  0  0  0  0  0  0  0  0  0
   11.8690    9.9810   -3.3871 C   0  0  0  0  0  0  0  0  0  0  0  0
  1  2  1  0  0  0  0
  2  3  1  0  0  0  0
  2  7  2  0  0  0  0
  4  3  1  6  0  0  0
  4  5  1  0  0  0  0
  4  6  1  0  0  0  0
  4  8  1  0  0  0  0
  5  9  2  0  0  0  0
  6 13  1  0  0  0  0
  7 12  1  0  0  0  0
  8 19  2  0  0  0  0
 10  7  1  1  0  0  0
 10 14  1  0  0  0  0
 10 17  1  0  0  0  0
 11  8  1  6  0  0  0
 11 20  1  0  0  0  0
 11 32  1  0  0  0  0
 12 18  1  0  0  0  0
 12 30  1  1  0  0  0
 12 32  1  0  0  0  0
 13 16  2  0  0  0  0
 13 21  1  0  0  0  0
 14  5  1  1  0  0  0
 14 15  1  0  0  0  0
 14 20  1  0  0  0  0
 15 31  1  0  0  0  0
 15 36  1  0  0  0  0
 17 18  1  0  0  0  0
 17 23  1  0  0  0  0
 18 25  1  0  0  0  0
 18 26  1  0  0  0  0
 19 21  1  0  0  0  0
 19 35  1  0  0  0  0
 20 23  1  0  0  0  0
 21 22  2  0  0  0  0
 22 27  1  0  0  0  0
 23 24  1  0  0  0  0
 23 41  1  0  0  0  0
 24 26  1  0  0  0  0
 24 41  1  0  0  0  0
 26 28  2  0  0  0  0
 27 34  2  0  0  0  0
 27 39  1  0  0  0  0
 28 29  1  0  0  0  0
 28 32  1  0  0  0  0
 29 37  2  0  0  0  0
 31 33  2  0  0  0  0
 31 38  1  0  0  0  0
 34 35  1  0  0  0  0
 35 37  1  0  0  0  0
 36 41  1  0  0  0  0
 39 40  1  0  0  0  0
 39 42  2  0  0  0  0
 40 45  1  0  0  0  0
 42 43  1  0  0  0  0
 42 44  1  0  0  0  0
 43 45  1  0  0  0  0
M  END
$$$$

 OpenBabel10082411353D

 45 56  0  0  0  0  0  0  0  0999 V2000
    8.0806    9.0240  -12.7589 C   0  0  0  0  0  0  0  0  0  0  0  0
    8.6514    7.8645  -12.2948 C   0  0  0  0  0  0  0  0  0  0  0  0
    9.9575    7.9974  -11.8426 C   0  0  0  0  0  0  0  0  0  0  0  0
   10.7657    6.8667  -11.6050 C   0  0  1  0  0  0  0  0  0  0  0  0
   10.7682    5.9590  -12.8271 C   0  0  0  0  0  0  0  0  0  0  0  0
   12.1553    7.3846  -11.2315 C   0  0  0  0  0  0  0  0  0  0  0  0
    8.0676    6.6451  -12.2974 C   0  0  0  0  0  0  0  0  0  0  0  0
   10.1892    6.1240  -10.3860 C   0  0  0  0  0  0  0  0  0  0  0  0
   11.8375    5.4373  -13.3240 O   0  0  0  0  0  0  0  0  0  0  0  0
    8.6785    5.4761  -13.0273 C   0  0  1  0  0  0  0  0  0  0  0  0
    9.1969    5.2405  -10.4969 C   0  0  2  0  0  0  0  0  0  0  0  0
    7.2213    6.2210  -11.3074 C   0  0  2  0  0  0  0  0  0  0  0  0
   12.5590    7.6872   -9.9896 C   0  0  0  0  0  0  0  0  0  0  0  0
    9.7633    5.0333  -12.9720 C   0  0  1  0  0  0  0  0  0  0  0  0
   10.0661    4.0167  -14.0373 N   0  0  0  0  0  0  0  0  0  0  0  0
   13.6906    8.3004   -9.6233 O   0  0  0  0  0  0  0  0  0  0  0  0
    7.6357    4.5123  -12.6317 C   0  0  2  0  0  0  0  0  0  0  0  0
    6.8831    4.9171  -11.7031 C   0  0  2  0  0  0  0  0  0  0  0  0
   10.5937    6.6967   -9.1779 C   0  0  0  0  0  0  0  0  0  0  0  0
    9.5087    4.3263  -11.6925 C   0  0  2  0  0  0  0  0  0  0  0  0
   11.6359    7.4449   -8.9125 C   0  0  0  0  0  0  0  0  0  0  0  0
   11.9716    7.9159   -7.6200 C   0  0  0  0  0  0  0  0  0  0  0  0
    8.4648    3.6122  -12.2840 C   0  0  1  0  0  0  0  0  0  0  0  0
    7.9253    2.8004  -11.3926 C   0  0  0  0  0  0  0  0  0  0  0  0
    5.6047    4.5059  -11.7589 C   0  0  0  0  0  0  0  0  0  0  0  0
    7.6606    4.1297  -10.5699 C   0  0  0  0  0  0  0  0  0  0  0  0
   10.9559    7.6849   -6.6057 C   0  0  0  0  0  0  0  0  0  0  0  0
    8.0094    4.5092   -9.5664 C   0  0  0  0  0  0  0  0  0  0  0  0
    8.3033    4.0627   -8.4980 C   0  0  0  0  0  0  0  0  0  0  0  0
    6.3587    7.1012  -11.0392 O   0  0  0  0  0  0  0  0  0  0  0  0
   11.0186    3.9598  -14.9226 C   0  0  0  0  0  0  0  0  0  0  0  0
    8.1758    5.8633  -10.2511 C   0  0  1  0  0  0  0  0  0  0  0  0
   11.4648    2.7104  -15.2650 O   0  0  0  0  0  0  0  0  0  0  0  0
    9.9512    6.8220   -6.8436 C   0  0  0  0  0  0  0  0  0  0  0  0
    9.6899    6.3705   -8.1082 C   0  0  2  0  0  0  0  0  0  0  0  0
   11.2597    8.2901   -5.2396 C   0  0  0  0  0  0  0  0  0  0  0  0
   10.9483    4.9354  -15.8312 C   0  0  0  0  0  0  0  0  0  0  0  0
    9.2428    4.9682   -7.8294 C   0  0  0  0  0  0  0  0  0  0  0  0
   11.9211    7.5870   -4.3303 C   0  0  0  0  0  0  0  0  0  0  0  0
   10.9171    9.6712   -4.9168 C   0  0  0  0  0  0  0  0  0  0  0  0
    9.5671    2.7782  -13.2744 C   0  0  0  0  0  0  0  0  0  0  0  0
   10.2689   10.5089   -5.9818 F   0  0  0  0  0  0  0  0  0  0  0  0
   11.2729   10.3100   -3.8282 C   0  0  0  0  0  0  0  0  0  0  0  0
   11.9137    9.5563   -2.8475 C   0  0  0  0  0  0  0  0  0  0  0  0
   12.3154    8.1455   -3.0255 C   0  0  0  0  0  0  0  0  0  0  0  0
  1  2  1  0  0  0  0
  2  3  1  0  0  0  0
  2  7  2  0  0  0  0
  4  3  1  6  0  0  0
  4  5  1  0  0  0  0
  4  6  1  0  0  0  0
  4  8  1  0  0  0  0
  5  9  2  0  0  0  0
  6 13  1  0  0  0  0
  7 12  1  0  0  0  0
  8 19  2  0  0  0  0
 10  7  1  1  0  0  0
 10 14  1  0  0  0  0
 10 17  1  0  0  0  0
 11  8  1  6  0  0  0
 11 20  1  0  0  0  0
 11 32  1  0  0  0  0
 12 18  1  0  0  0  0
 12 30  1  1  0  0  0
 12 32  1  0  0  0  0
 13 16  2  0  0  0  0
 13 21  1  0  0  0  0
 14  5  1  1  0  0  0
 14 15  1  0  0  0  0
 14 20  1  0  0  0  0
 15 31  1  0  0  0  0
 15 41  1  0  0  0  0
 17 18  1  0  0  0  0
 17 23  1  0  0  0  0
 18 25  1  0  0  0  0
 18 26  1  0  0  0  0
 19 21  1  0  0  0  0
 19 35  1  0  0  0  0
 20 23  1  0  0  0  0
 21 22  2  0  0  0  0
 22 27  1  0  0  0  0
 23 24  1  0  0  0  0
 23 41  1  0  0  0  0
 24 26  1  0  0  0  0
 26 28  2  0  0  0  0
 27 34  2  0  0  0  0
 27 36  1  0  0  0  0
 28 29  1  0  0  0  0
 28 32  1  0  0  0  0
 29 38  1  0  0  0  0
 31 33  2  0  0  0  0
 31 37  1  0  0  0  0
 34 35  1  0  0  0  0
 35 38  1  0  0  0  0
 36 39  1  0  0  0  0
 36 40  2  0  0  0  0
 39 45  2  0  0  0  0
 40 42  1  0  0  0  0
 40 43  1  0  0  0  0
 43 44  2  0  0  0  0
 44 45  1  0  0  0  0
M  END
$$$$

 OpenBabel10082411353D

 45 51  0  0  0  0  0  0  0  0999 V2000
   11.6836    6.0105   -4.8831 F   0  0  0  0  0  0  0  0  0  0  0  0
   11.2562    7.2206   -5.0294 C   0  0  0  0  0  0  0  0  0  0  0  0
   12.0125    8.2418   -4.4408 C   0  0  0  0  0  0  0  0  0  0  0  0
   11.1918    7.2706   -6.5237 C   0  0  2  0  0  0  0  0  0  0  0  0
   11.6999    8.4488   -3.1704 F   0  0  0  0  0  0  0  0  0  0  0  0
    9.8648    7.0908   -4.5314 F   0  0  0  0  0  0  0  0  0  0  0  0
   11.6831    8.5291   -6.9682 C   0  0  1  0  0  0  0  0  0  0  0  0
   13.3042    8.0958   -4.5769 F   0  0  0  0  0  0  0  0  0  0  0  0
   10.0051    6.7877   -7.1387 C   0  0  2  0  0  0  0  0  0  0  0  0
   12.1549    9.4036   -6.0698 C   0  0  0  0  0  0  0  0  0  0  0  0
   11.7460    9.5074   -4.8672 O   0  0  0  0  0  0  0  0  0  0  0  0
   12.5684    8.5172   -7.8652 C   0  0  0  0  0  0  0  0  0  0  0  0
   10.4250    8.9412   -7.4869 C   0  0  0  0  0  0  0  0  0  0  0  0
    9.8902    5.4070   -7.8206 C   0  0  1  0  0  0  0  0  0  0  0  0
    8.7348    4.6919   -7.6168 C   0  0  0  0  0  0  0  0  0  0  0  0
    9.5887    7.8633   -8.0188 C   0  0  1  0  0  0  0  0  0  0  0  0
   10.0149    7.4671   -9.3945 C   0  0  0  0  0  0  0  0  0  0  0  0
    8.7013    3.5197   -8.2148 C   0  0  0  0  0  0  0  0  0  0  0  0
    9.3794    3.4628   -9.4166 C   0  0  0  0  0  0  0  0  0  0  0  0
    9.7670    8.0902  -10.5147 C   0  0  0  0  0  0  0  0  0  0  0  0
   10.1630    7.7248  -11.8028 C   0  0  0  0  0  0  0  0  0  0  0  0
   10.1363    4.5235   -9.8811 C   0  0  0  0  0  0  0  0  0  0  0  0
   10.2836    5.8862   -9.1314 C   0  0  2  0  0  0  0  0  0  0  0  0
    9.2642    7.6154  -12.7688 C   0  0  0  0  0  0  0  0  0  0  0  0
    9.7352    7.0429  -13.9890 C   0  0  0  0  0  0  0  0  0  0  0  0
    8.9431    5.9978  -14.4048 C   0  0  0  0  0  0  0  0  0  0  0  0
    8.0476    5.1914  -13.6918 C   0  0  0  0  0  0  0  0  0  0  0  0
    8.1490    3.7734  -13.7660 C   0  0  0  0  0  0  0  0  0  0  0  0
    7.0453    3.1418  -12.9717 C   0  0  0  0  0  0  0  0  0  0  0  0
    6.2338    3.8839  -12.1754 C   0  0  0  0  0  0  0  0  0  0  0  0
   10.8369    7.3431  -14.6932 C   0  0  0  0  0  0  0  0  0  0  0  0
    7.2107    5.8505  -12.7998 C   0  0  0  0  0  0  0  0  0  0  0  0
    5.3001    3.0920  -11.3306 F   0  0  0  0  0  0  0  0  0  0  0  0
    7.8586    7.9143  -12.4857 C   0  0  0  0  0  0  0  0  0  0  0  0
    6.3696    5.0319  -12.1370 C   0  0  0  0  0  0  0  0  0  0  0  0
    6.9659    7.0740  -12.5678 C   0  0  0  0  0  0  0  0  0  0  0  0
   11.6802    6.2859  -15.0974 C   0  0  0  0  0  0  0  0  0  0  0  0
   11.4895    5.0617  -14.5281 C   0  0  0  0  0  0  0  0  0  0  0  0
   11.6883    3.9380  -15.1014 C   0  0  0  0  0  0  0  0  0  0  0  0
   11.4745    2.5827  -14.5535 C   0  0  0  0  0  0  0  0  0  0  0  0
   12.6629    6.4155  -15.9530 C   0  0  0  0  0  0  0  0  0  0  0  0
   12.9423    7.7359  -16.4453 O   0  0  0  0  0  0  0  0  0  0  0  0
   12.4632    4.0614  -16.3749 C   0  0  0  0  0  0  0  0  0  0  0  0
   12.8496    2.8526  -16.9882 F   0  0  0  0  0  0  0  0  0  0  0  0
   13.0258    5.3021  -16.8103 C   0  0  0  0  0  0  0  0  0  0  0  0
  1  2  1  0  0  0  0
  2  3  1  0  0  0  0
  2  6  1  0  0  0  0
  3  5  1  0  0  0  0
  3  8  1  0  0  0  0
  3 11  1  0  0  0  0
  4  2  1  1  0  0  0
  4  7  1  0  0  0  0
  4  9  1  0  0  0  0
  7 10  1  0  0  0  0
  7 12  1  6  0  0  0
  7 13  1  0  0  0  0
  9 14  1  0  0  0  0
  9 16  1  0  0  0  0
 10 11  1  0  0  0  0
 13 16  1  0  0  0  0
 14 15  1  0  0  0  0
 14 23  1  0  0  0  0
 15 18  2  0  0  0  0
 16 17  1  0  0  0  0
 17 20  2  3  0  0  0
 17 23  1  0  0  0  0
 18 19  1  0  0  0  0
 19 22  2  0  0  0  0
 20 21  1  0  0  0  0
 21 24  2  3  0  0  0
 22 23  1  0  0  0  0
 24 25  1  0  0  0  0
 24 34  1  0  0  0  0
 25 26  2  0  0  0  0
 25 31  1  0  0  0  0
 26 27  1  0  0  0  0
 27 28  2  0  0  0  0
 27 32  1  0  0  0  0
 28 29  1  0  0  0  0
 29 30  2  0  0  0  0
 30 33  1  0  0  0  0
 30 35  1  0  0  0  0
 31 37  1  0  0  0  0
 32 35  2  0  0  0  0
 32 36  1  0  0  0  0
 34 36  1  0  0  0  0
 37 38  1  0  0  0  0
 37 41  2  0  0  0  0
 38 39  2  0  0  0  0
 39 40  1  0  0  0  0
 39 43  1  0  0  0  0
 41 42  1  0  0  0  0
 41 45  1  0  0  0  0
 43 44  1  0  0  0  0
 43 45  2  0  0  0  0
M  END
$$$$

 OpenBabel10082411353D

 45 56  0  0  0  0  0  0  0  0999 V2000
    8.0806    9.0240  -12.7589 C   0  0  0  0  0  0  0  0  0  0  0  0
    8.6514    7.8645  -12.2948 C   0  0  0  0  0  0  0  0  0  0  0  0
    9.9575    7.9974  -11.8426 C   0  0  0  0  0  0  0  0  0  0  0  0
   10.7657    6.8667  -11.6050 C   0  0  1  0  0  0  0  0  0  0  0  0
   10.7682    5.9590  -12.8271 C   0  0  0  0  0  0  0  0  0  0  0  0
   12.1553    7.3846  -11.2315 C   0  0  0  0  0  0  0  0  0  0  0  0
    8.0676    6.6451  -12.2974 C   0  0  0  0  0  0  0  0  0  0  0  0
   10.1892    6.1240  -10.3860 C   0  0  0  0  0  0  0  0  0  0  0  0
   11.8375    5.4373  -13.3240 O   0  0  0  0  0  0  0  0  0  0  0  0
    8.6785    5.4761  -13.0273 C   0  0  1  0  0  0  0  0  0  0  0  0
    9.1969    5.2405  -10.4969 C   0  0  2  0  0  0  0  0  0  0  0  0
    7.2213    6.2210  -11.3074 C   0  0  2  0  0  0  0  0  0  0  0  0
   12.5590    7.6872   -9.9896 C   0  0  0  0  0  0  0  0  0  0  0  0
    9.7633    5.0333  -12.9720 C   0  0  1  0  0  0  0  0  0  0  0  0
   10.0661    4.0167  -14.0373 N   0  0  0  0  0  0  0  0  0  0  0  0
   13.6906    8.3004   -9.6233 O   0  0  0  0  0  0  0  0  0  0  0  0
    7.6357    4.5123  -12.6317 C   0  0  2  0  0  0  0  0  0  0  0  0
    6.8831    4.9171  -11.7031 C   0  0  2  0  0  0  0  0  0  0  0  0
   10.5937    6.6967   -9.1779 C   0  0  0  0  0  0  0  0  0  0  0  0
    9.5087    4.3263  -11.6925 C   0  0  2  0  0  0  0  0  0  0  0  0
   11.6359    7.4449   -8.9125 C   0  0  0  0  0  0  0  0  0  0  0  0
   11.9716    7.9159   -7.6200 C   0  0  0  0  0  0  0  0  0  0  0  0
    8.4648    3.6122  -12.2840 C   0  0  1  0  0  0  0  0  0  0  0  0
    7.9253    2.8004  -11.3926 C   0  0  0  0  0  0  0  0  0  0  0  0
    5.6047    4.5059  -11.7589 C   0  0  0  0  0  0  0  0  0  0  0  0
    7.6606    4.1297  -10.5699 C   0  0  0  0  0  0  0  0  0  0  0  0
   10.9559    7.6849   -6.6057 C   0  0  0  0  0  0  0  0  0  0  0  0
    8.0094    4.5092   -9.5664 C   0  0  0  0  0  0  0  0  0  0  0  0
    8.3033    4.0627   -8.4980 C   0  0  0  0  0  0  0  0  0  0  0  0
    6.3587    7.1012  -11.0392 O   0  0  0  0  0  0  0  0  0  0  0  0
   11.0186    3.9598  -14.9226 C   0  0  0  0  0  0  0  0  0  0  0  0
    8.1758    5.8633  -10.2511 C   0  0  1  0  0  0  0  0  0  0  0  0
    9.4315    2.8557  -13.5931 C   0  0  0  0  0  0  0  0  0  0  0  0
   11.5906    2.6986  -15.1672 C   0  0  0  0  0  0  0  0  0  0  0  0
    9.9783    6.7760   -6.8364 C   0  0  0  0  0  0  0  0  0  0  0  0
    9.7446    6.4267   -8.0721 C   0  0  2  0  0  0  0  0  0  0  0  0
   11.2061    4.8269  -15.6646 O   0  0  0  0  0  0  0  0  0  0  0  0
    9.0742    5.1188   -7.7353 C   0  0  0  0  0  0  0  0  0  0  0  0
   11.2514    8.3570   -5.2635 C   0  0  0  0  0  0  0  0  0  0  0  0
   11.7290    9.7516   -5.2520 C   0  0  0  0  0  0  0  0  0  0  0  0
   11.3145    7.7538   -4.0409 C   0  0  0  0  0  0  0  0  0  0  0  0
   11.6152   10.5942   -6.5063 C   0  0  0  0  0  0  0  0  0  0  0  0
   12.0480   10.3279   -4.0742 C   0  0  0  0  0  0  0  0  0  0  0  0
   11.7470    8.2526   -2.8893 C   0  0  0  0  0  0  0  0  0  0  0  0
   12.0893    9.5256   -2.8531 C   0  0  0  0  0  0  0  0  0  0  0  0
  1  2  1  0  0  0  0
  2  3  1  0  0  0  0
  2  7  2  0  0  0  0
  4  3  1  6  0  0  0
  4  5  1  0  0  0  0
  4  6  1  0  0  0  0
  4  8  1  0  0  0  0
  5  9  2  0  0  0  0
  6 13  1  0  0  0  0
  7 12  1  0  0  0  0
  8 19  2  0  0  0  0
 10  7  1  1  0  0  0
 10 14  1  0  0  0  0
 10 17  1  0  0  0  0
 11  8  1  6  0  0  0
 11 20  1  0  0  0  0
 11 32  1  0  0  0  0
 12 18  1  0  0  0  0
 12 30  1  1  0  0  0
 12 32  1  0  0  0  0
 13 16  2  0  0  0  0
 13 21  1  0  0  0  0
 14  5  1  1  0  0  0
 14 15  1  0  0  0  0
 14 20  1  0  0  0  0
 15 31  1  0  0  0  0
 15 33  1  0  0  0  0
 17 18  1  0  0  0  0
 17 23  1  0  0  0  0
 18 25  1  0  0  0  0
 18 26  1  0  0  0  0
 19 21  1  0  0  0  0
 19 36  1  0  0  0  0
 20 23  1  0  0  0  0
 21 22  2  0  0  0  0
 22 27  1  0  0  0  0
 23 24  1  0  0  0  0
 23 33  1  0  0  0  0
 24 26  1  0  0  0  0
 26 28  2  0  0  0  0
 27 35  2  0  0  0  0
 27 39  1  0  0  0  0
 28 29  1  0  0  0  0
 28 32  1  0  0  0  0
 29 38  1  0  0  0  0
 31 34  1  0  0  0  0
 31 37  2  0  0  0  0
 35 36  1  0  0  0  0
 36 38  1  0  0  0  0
 39 40  1  0  0  0  0
 39 41  2  0  0  0  0
 40 42  1  0  0  0  0
 40 43  2  0  0  0  0
 41 44  1  0  0  0  0
 43 45  1  0  0  0  0
 44 45  2  0  0  0  0
M  END
$$$$

 OpenBabel10082411353D

 45 56  0  0  0  0  0  0  0  0999 V2000
    8.0806    9.0240  -12.7589 C   0  0  0  0  0  0  0  0  0  0  0  0
    8.6514    7.8645  -12.2948 C   0  0  0  0  0  0  0  0  0  0  0  0
    9.9575    7.9974  -11.8426 C   0  0  0  0  0  0  0  0  0  0  0  0
   10.7657    6.8667  -11.6050 C   0  0  1  0  0  0  0  0  0  0  0  0
   10.7682    5.9590  -12.8271 C   0  0  0  0  0  0  0  0  0  0  0  0
   12.1553    7.3846  -11.2315 C   0  0  0  0  0  0  0  0  0  0  0  0
    8.0676    6.6451  -12.2974 C   0  0  0  0  0  0  0  0  0  0  0  0
   10.1892    6.1240  -10.3860 C   0  0  0  0  0  0  0  0  0  0  0  0
   11.8375    5.4373  -13.3240 O   0  0  0  0  0  0  0  0  0  0  0  0
    8.6785    5.4761  -13.0273 C   0  0  1  0  0  0  0  0  0  0  0  0
    9.1969    5.2405  -10.4969 C   0  0  2  0  0  0  0  0  0  0  0  0
    7.2213    6.2210  -11.3074 C   0  0  2  0  0  0  0  0  0  0  0  0
   12.5590    7.6872   -9.9896 C   0  0  0  0  0  0  0  0  0  0  0  0
    9.7633    5.0333  -12.9720 C   0  0  1  0  0  0  0  0  0  0  0  0
   10.0661    4.0167  -14.0373 N   0  0  0  0  0  0  0  0  0  0  0  0
   13.6906    8.3004   -9.6233 O   0  0  0  0  0  0  0  0  0  0  0  0
    7.6357    4.5123  -12.6317 C   0  0  2  0  0  0  0  0  0  0  0  0
    6.8831    4.9171  -11.7031 C   0  0  2  0  0  0  0  0  0  0  0  0
   10.5937    6.6967   -9.1779 C   0  0  0  0  0  0  0  0  0  0  0  0
    9.5087    4.3263  -11.6925 C   0  0  2  0  0  0  0  0  0  0  0  0
   11.6359    7.4449   -8.9125 C   0  0  0  0  0  0  0  0  0  0  0  0
   11.9716    7.9159   -7.6200 C   0  0  0  0  0  0  0  0  0  0  0  0
    8.4648    3.6122  -12.2840 C   0  0  1  0  0  0  0  0  0  0  0  0
    7.9253    2.8004  -11.3926 C   0  0  0  0  0  0  0  0  0  0  0  0
    5.6047    4.5059  -11.7589 C   0  0  0  0  0  0  0  0  0  0  0  0
    7.6606    4.1297  -10.5699 C   0  0  0  0  0  0  0  0  0  0  0  0
   10.9559    7.6849   -6.6057 C   0  0  0  0  0  0  0  0  0  0  0  0
    8.0094    4.5092   -9.5664 C   0  0  0  0  0  0  0  0  0  0  0  0
    8.3033    4.0627   -8.4980 C   0  0  0  0  0  0  0  0  0  0  0  0
    6.3587    7.1012  -11.0392 O   0  0  0  0  0  0  0  0  0  0  0  0
   11.0186    3.9598  -14.9226 C   0  0  0  0  0  0  0  0  0  0  0  0
    8.1758    5.8633  -10.2511 C   0  0  1  0  0  0  0  0  0  0  0  0
   11.4648    2.7104  -15.2650 O   0  0  0  0  0  0  0  0  0  0  0  0
    9.9512    6.8220   -6.8436 C   0  0  0  0  0  0  0  0  0  0  0  0
    9.6899    6.3705   -8.1082 C   0  0  2  0  0  0  0  0  0  0  0  0
   11.2597    8.2901   -5.2396 C   0  0  0  0  0  0  0  0  0  0  0  0
   11.6068    9.7354   -5.2006 C   0  0  0  0  0  0  0  0  0  0  0  0
    9.4261    2.7718  -13.6670 C   0  0  0  0  0  0  0  0  0  0  0  0
    9.1568    5.0346   -7.7426 C   0  0  0  0  0  0  0  0  0  0  0  0
   11.2083    4.9304  -15.6781 O   0  0  0  0  0  0  0  0  0  0  0  0
   11.3723    7.7138   -4.0322 C   0  0  0  0  0  0  0  0  0  0  0  0
   11.7127    8.2343   -2.8399 C   0  0  0  0  0  0  0  0  0  0  0  0
   11.9336   10.3473   -3.9648 C   0  0  0  0  0  0  0  0  0  0  0  0
   11.8348    7.4169   -1.5501 C   0  0  0  0  0  0  0  0  0  0  0  0
   12.0039    9.6686   -2.8329 C   0  0  0  0  0  0  0  0  0  0  0  0
  1  2  1  0  0  0  0
  2  3  1  0  0  0  0
  2  7  2  0  0  0  0
  4  3  1  6  0  0  0
  4  5  1  0  0  0  0
  4  6  1  0  0  0  0
  4  8  1  0  0  0  0
  5  9  2  0  0  0  0
  6 13  1  0  0  0  0
  7 12  1  0  0  0  0
  8 19  2  0  0  0  0
 10  7  1  1  0  0  0
 10 14  1  0  0  0  0
 10 17  1  0  0  0  0
 11  8  1  6  0  0  0
 11 20  1  0  0  0  0
 11 32  1  0  0  0  0
 12 18  1  0  0  0  0
 12 30  1  1  0  0  0
 12 32  1  0  0  0  0
 13 16  2  0  0  0  0
 13 21  1  0  0  0  0
 14  5  1  1  0  0  0
 14 15  1  0  0  0  0
 14 20  1  0  0  0  0
 15 31  1  0  0  0  0
 15 38  1  0  0  0  0
 17 18  1  0  0  0  0
 17 23  1  0  0  0  0
 18 25  1  0  0  0  0
 18 26  1  0  0  0  0
 19 21  1  0  0  0  0
 19 35  1  0  0  0  0
 20 23  1  0  0  0  0
 21 22  2  0  0  0  0
 22 27  1  0  0  0  0
 23 24  1  0  0  0  0
 23 38  1  0  0  0  0
 24 26  1  0  0  0  0
 26 28  2  0  0  0  0
 27 34  2  0  0  0  0
 27 36  1  0  0  0  0
 28 29  1  0  0  0  0
 28 32  1  0  0  0  0
 29 39  1  0  0  0  0
 31 33  2  0  0  0  0
 31 40  1  0  0  0  0
 34 35  1  0  0  0  0
 35 39  1  0  0  0  0
 36 37  1  0  0  0  0
 36 41  2  0  0  0  0
 37 43  2  0  0  0  0
 41 42  1  0  0  0  0
 42 44  1  0  0  0  0
 42 45  2  0  0  0  0
 43 45  1  0  0  0  0
M  END
$$$$

 OpenBabel10082411353D

 27 29  0  0  0  0  0  0  0  0999 V2000
   13.4846    9.3979   -5.2029 C   0  0  0  0  0  0  0  0  0  0  0  0
   12.7871    9.3913   -6.3118 C   0  0  0  0  0  0  0  0  0  0  0  0
   11.3648    9.1424   -6.2947 C   0  0  0  0  0  0  0  0  0  0  0  0
   10.8726    9.0146   -5.0034 C   0  0  0  0  0  0  0  0  0  0  0  0
    9.3815    8.7865   -5.0373 F   0  0  0  0  0  0  0  0  0  0  0  0
   11.4703    9.0293   -3.8455 C   0  0  0  0  0  0  0  0  0  0  0  0
   10.7697    8.8716   -2.6325 F   0  0  0  0  0  0  0  0  0  0  0  0
   12.8710    9.2169   -3.9429 C   0  0  0  0  0  0  0  0  0  0  0  0
   10.4781    9.1384   -7.6682 C   0  0  0  0  0  0  0  0  0  0  0  0
   11.1390    9.1306   -8.8047 C   0  0  0  0  0  0  0  0  0  0  0  0
   10.8705    7.9638   -9.7397 C   0  0  0  0  0  0  0  0  0  0  0  0
   10.2908    8.0632  -10.8488 C   0  0  0  0  0  0  0  0  0  0  0  0
   10.4238    7.0375  -11.8282 C   0  0  0  0  0  0  0  0  0  0  0  0
    9.2433    8.9518  -11.2558 C   0  0  0  0  0  0  0  0  0  0  0  0
    8.5277    8.8707  -12.4031 C   0  0  0  0  0  0  0  0  0  0  0  0
    7.4469    9.8411  -12.5572 F   0  0  0  0  0  0  0  0  0  0  0  0
    8.5235    7.7173  -13.1606 C   0  0  0  0  0  0  0  0  0  0  0  0
   11.4736    5.9938  -11.5885 F   0  0  0  0  0  0  0  0  0  0  0  0
    9.6094    6.6956  -12.8849 C   0  0  0  0  0  0  0  0  0  0  0  0
    9.8332    5.4698  -13.8784 S   0  0  0  0  0  0  0  0  0  0  0  0
   10.9769    5.4319  -14.5253 O   0  0  0  0  0  0  0  0  0  0  0  0
    8.3413    5.5312  -14.5883 O   0  0  0  0  0  0  0  0  0  0  0  0
    9.8256    3.9847  -12.9897 C   0  0  0  0  0  0  0  0  0  0  0  0
    8.5770    3.2748  -13.0188 C   0  0  0  0  0  0  0  0  0  0  0  0
   10.8471    3.1048  -13.4117 C   0  0  0  0  0  0  0  0  0  0  0  0
   10.3714    2.0041  -13.9965 C   0  0  0  0  0  0  0  0  0  0  0  0
    8.8409    2.1579  -14.0526 C   0  0  0  0  0  0  0  0  0  0  0  0
  1  2  1  0  0  0  0
  1  8  2  0  0  0  0
  2  3  2  0  0  0  0
  3  4  1  0  0  0  0
  3  9  1  0  0  0  0
  4  5  1  0  0  0  0
  4  6  2  0  0  0  0
  6  7  1  0  0  0  0
  6  8  1  0  0  0  0
  9 10  1  0  0  0  0
 10 11  1  0  0  0  0
 11 12  1  0  0  0  0
 12 13  2  0  0  0  0
 12 14  1  0  0  0  0
 13 18  1  0  0  0  0
 13 19  1  0  0  0  0
 14 15  2  0  0  0  0
 15 16  1  0  0  0  0
 15 17  1  0  0  0  0
 17 19  2  0  0  0  0
 19 20  1  0  0  0  0
 20 21  2  0  0  0  0
 20 22  2  0  0  0  0
 20 23  1  0  0  0  0
 23 24  1  0  0  0  0
 23 25  1  0  0  0  0
 24 27  1  0  0  0  0
 25 26  1  0  0  0  0
 26 27  1  0  0  0  0
M  END
$$$$

 OpenBabel10082411353D

 45 56  0  0  0  0  0  0  0  0999 V2000
    8.0806    9.0240  -12.7589 C   0  0  0  0  0  0  0  0  0  0  0  0
    8.6514    7.8645  -12.2948 C   0  0  0  0  0  0  0  0  0  0  0  0
    9.9575    7.9974  -11.8426 C   0  0  0  0  0  0  0  0  0  0  0  0
   10.7657    6.8667  -11.6050 C   0  0  1  0  0  0  0  0  0  0  0  0
   10.7682    5.9590  -12.8271 C   0  0  0  0  0  0  0  0  0  0  0  0
   12.1553    7.3846  -11.2315 C   0  0  0  0  0  0  0  0  0  0  0  0
    8.0676    6.6451  -12.2974 C   0  0  0  0  0  0  0  0  0  0  0  0
   10.1892    6.1240  -10.3860 C   0  0  0  0  0  0  0  0  0  0  0  0
   11.8375    5.4373  -13.3240 O   0  0  0  0  0  0  0  0  0  0  0  0
    8.6785    5.4761  -13.0273 C   0  0  1  0  0  0  0  0  0  0  0  0
    9.1969    5.2405  -10.4969 C   0  0  2  0  0  0  0  0  0  0  0  0
    7.2213    6.2210  -11.3074 C   0  0  2  0  0  0  0  0  0  0  0  0
   12.5590    7.6872   -9.9896 C   0  0  0  0  0  0  0  0  0  0  0  0
    9.7633    5.0333  -12.9720 C   0  0  1  0  0  0  0  0  0  0  0  0
   10.0661    4.0167  -14.0373 N   0  0  0  0  0  0  0  0  0  0  0  0
   13.6906    8.3004   -9.6233 O   0  0  0  0  0  0  0  0  0  0  0  0
    7.6357    4.5123  -12.6317 C   0  0  2  0  0  0  0  0  0  0  0  0
    6.8831    4.9171  -11.7031 C   0  0  2  0  0  0  0  0  0  0  0  0
   10.5937    6.6967   -9.1779 C   0  0  0  0  0  0  0  0  0  0  0  0
    9.5087    4.3263  -11.6925 C   0  0  2  0  0  0  0  0  0  0  0  0
   11.6359    7.4449   -8.9125 C   0  0  0  0  0  0  0  0  0  0  0  0
   11.9716    7.9159   -7.6200 C   0  0  0  0  0  0  0  0  0  0  0  0
    8.4648    3.6122  -12.2840 C   0  0  1  0  0  0  0  0  0  0  0  0
    7.9253    2.8004  -11.3926 C   0  0  0  0  0  0  0  0  0  0  0  0
    5.6047    4.5059  -11.7589 C   0  0  0  0  0  0  0  0  0  0  0  0
    7.6606    4.1297  -10.5699 C   0  0  0  0  0  0  0  0  0  0  0  0
   10.9559    7.6849   -6.6057 C   0  0  0  0  0  0  0  0  0  0  0  0
    8.0094    4.5092   -9.5664 C   0  0  0  0  0  0  0  0  0  0  0  0
    8.3033    4.0627   -8.4980 C   0  0  0  0  0  0  0  0  0  0  0  0
    6.3587    7.1012  -11.0392 O   0  0  0  0  0  0  0  0  0  0  0  0
   11.0186    3.9598  -14.9226 C   0  0  0  0  0  0  0  0  0  0  0  0
    8.1758    5.8633  -10.2511 C   0  0  1  0  0  0  0  0  0  0  0  0
   11.4648    2.7104  -15.2650 O   0  0  0  0  0  0  0  0  0  0  0  0
    9.9512    6.8220   -6.8436 C   0  0  0  0  0  0  0  0  0  0  0  0
    9.6899    6.3705   -8.1082 C   0  0  2  0  0  0  0  0  0  0  0  0
   11.2597    8.2901   -5.2396 C   0  0  0  0  0  0  0  0  0  0  0  0
   11.6068    9.7354   -5.2006 C   0  0  0  0  0  0  0  0  0  0  0  0
   10.9469    4.9352  -15.8306 C   0  0  0  0  0  0  0  0  0  0  0  0
    9.2417    4.9555   -7.8256 C   0  0  0  0  0  0  0  0  0  0  0  0
   11.3657    7.7043   -4.0379 C   0  0  0  0  0  0  0  0  0  0  0  0
    9.3036    2.8311  -13.6285 C   0  0  0  0  0  0  0  0  0  0  0  0
   11.4466   10.6213   -6.4141 C   0  0  0  0  0  0  0  0  0  0  0  0
   11.7652   10.0517   -3.9940 C   0  0  0  0  0  0  0  0  0  0  0  0
   11.8114    8.9456   -2.9458 S   0  0  0  0  0  0  0  0  0  0  0  0
   11.2017    6.1304   -3.6593 C   0  0  0  0  0  0  0  0  0  0  0  0
  1  2  1  0  0  0  0
  2  3  1  0  0  0  0
  2  7  2  0  0  0  0
  4  3  1  6  0  0  0
  4  5  1  0  0  0  0
  4  6  1  0  0  0  0
  4  8  1  0  0  0  0
  5  9  2  0  0  0  0
  6 13  1  0  0  0  0
  7 12  1  0  0  0  0
  8 19  2  0  0  0  0
 10  7  1  1  0  0  0
 10 14  1  0  0  0  0
 10 17  1  0  0  0  0
 11  8  1  6  0  0  0
 11 20  1  0  0  0  0
 11 32  1  0  0  0  0
 12 18  1  0  0  0  0
 12 30  1  1  0  0  0
 12 32  1  0  0  0  0
 13 16  2  0  0  0  0
 13 21  1  0  0  0  0
 14  5  1  1  0  0  0
 14 15  1  0  0  0  0
 14 20  1  0  0  0  0
 15 31  1  0  0  0  0
 15 41  1  0  0  0  0
 17 18  1  0  0  0  0
 17 23  1  0  0  0  0
 18 25  1  0  0  0  0
 18 26  1  0  0  0  0
 19 21  1  0  0  0  0
 19 35  1  0  0  0  0
 20 23  1  0  0  0  0
 21 22  2  0  0  0  0
 22 27  1  0  0  0  0
 23 24  1  0  0  0  0
 23 41  1  0  0  0  0
 24 26  1  0  0  0  0
 26 28  2  0  0  0  0
 27 34  2  0  0  0  0
 27 36  1  0  0  0  0
 28 29  1  0  0  0  0
 28 32  1  0  0  0  0
 29 39  2  0  0  0  0
 31 33  2  0  0  0  0
 31 38  1  0  0  0  0
 34 35  1  0  0  0  0
 35 39  1  0  0  0  0
 36 37  1  0  0  0  0
 36 40  2  0  0  0  0
 37 42  1  0  0  0  0
 37 43  2  0  0  0  0
 40 44  1  0  0  0  0
 40 45  1  0  0  0  0
 43 44  1  0  0  0  0
M  END
$$$$

 OpenBabel10082411353D

 45 56  0  0  0  0  0  0  0  0999 V2000
    8.0806    9.0240  -12.7589 C   0  0  0  0  0  0  0  0  0  0  0  0
    8.6514    7.8645  -12.2948 C   0  0  0  0  0  0  0  0  0  0  0  0
    9.9575    7.9974  -11.8426 C   0  0  0  0  0  0  0  0  0  0  0  0
   10.7657    6.8667  -11.6050 C   0  0  1  0  0  0  0  0  0  0  0  0
   10.7682    5.9590  -12.8271 C   0  0  0  0  0  0  0  0  0  0  0  0
   12.1553    7.3846  -11.2315 C   0  0  0  0  0  0  0  0  0  0  0  0
    8.0676    6.6451  -12.2974 C   0  0  0  0  0  0  0  0  0  0  0  0
   10.1892    6.1240  -10.3860 C   0  0  0  0  0  0  0  0  0  0  0  0
   11.8375    5.4373  -13.3240 O   0  0  0  0  0  0  0  0  0  0  0  0
    8.6785    5.4761  -13.0273 C   0  0  1  0  0  0  0  0  0  0  0  0
    9.1969    5.2405  -10.4969 C   0  0  2  0  0  0  0  0  0  0  0  0
    7.2213    6.2210  -11.3074 C   0  0  2  0  0  0  0  0  0  0  0  0
   12.5590    7.6872   -9.9896 C   0  0  0  0  0  0  0  0  0  0  0  0
    9.7633    5.0333  -12.9720 C   0  0  1  0  0  0  0  0  0  0  0  0
   10.0661    4.0167  -14.0373 N   0  0  0  0  0  0  0  0  0  0  0  0
   13.6906    8.3004   -9.6233 O   0  0  0  0  0  0  0  0  0  0  0  0
    7.6357    4.5123  -12.6317 C   0  0  2  0  0  0  0  0  0  0  0  0
    6.8831    4.9171  -11.7031 C   0  0  2  0  0  0  0  0  0  0  0  0
   10.5937    6.6967   -9.1779 C   0  0  0  0  0  0  0  0  0  0  0  0
    9.5087    4.3263  -11.6925 C   0  0  2  0  0  0  0  0  0  0  0  0
   11.6359    7.4449   -8.9125 C   0  0  0  0  0  0  0  0  0  0  0  0
   11.9716    7.9159   -7.6200 C   0  0  0  0  0  0  0  0  0  0  0  0
    8.4648    3.6122  -12.2840 C   0  0  1  0  0  0  0  0  0  0  0  0
    7.9253    2.8004  -11.3926 C   0  0  0  0  0  0  0  0  0  0  0  0
    5.6047    4.5059  -11.7589 C   0  0  0  0  0  0  0  0  0  0  0  0
    7.6606    4.1297  -10.5699 C   0  0  0  0  0  0  0  0  0  0  0  0
   10.9559    7.6849   -6.6057 C   0  0  0  0  0  0  0  0  0  0  0  0
    8.0094    4.5092   -9.5664 C   0  0  0  0  0  0  0  0  0  0  0  0
    8.3033    4.0627   -8.4980 C   0  0  0  0  0  0  0  0  0  0  0  0
    6.3587    7.1012  -11.0392 O   0  0  0  0  0  0  0  0  0  0  0  0
   11.0186    3.9598  -14.9226 C   0  0  0  0  0  0  0  0  0  0  0  0
    8.1758    5.8633  -10.2511 C   0  0  1  0  0  0  0  0  0  0  0  0
   11.4648    2.7104  -15.2650 O   0  0  0  0  0  0  0  0  0  0  0  0
    9.9512    6.8220   -6.8436 C   0  0  0  0  0  0  0  0  0  0  0  0
    9.6899    6.3705   -8.1082 C   0  0  2  0  0  0  0  0  0  0  0  0
   11.2597    8.2901   -5.2396 C   0  0  0  0  0  0  0  0  0  0  0  0
   10.9483    4.9354  -15.8312 C   0  0  0  0  0  0  0  0  0  0  0  0
    9.2428    4.9682   -7.8294 C   0  0  0  0  0  0  0  0  0  0  0  0
   11.9211    7.5870   -4.3303 C   0  0  0  0  0  0  0  0  0  0  0  0
   10.9171    9.6712   -4.9168 C   0  0  0  0  0  0  0  0  0  0  0  0
   12.1622    8.4094   -3.0233 C   0  0  0  0  0  0  0  0  0  0  0  0
   11.1935   10.2664   -3.7788 C   0  0  0  0  0  0  0  0  0  0  0  0
   12.8834    7.5134   -1.8828 C   0  0  0  0  0  0  0  0  0  0  0  0
   11.8144    9.6149   -2.8276 C   0  0  0  0  0  0  0  0  0  0  0  0
    9.5686    2.7810  -13.2706 C   0  0  0  0  0  0  0  0  0  0  0  0
  1  2  1  0  0  0  0
  2  3  1  0  0  0  0
  2  7  2  0  0  0  0
  4  3  1  6  0  0  0
  4  5  1  0  0  0  0
  4  6  1  0  0  0  0
  4  8  1  0  0  0  0
  5  9  2  0  0  0  0
  6 13  1  0  0  0  0
  7 12  1  0  0  0  0
  8 19  2  0  0  0  0
 10  7  1  1  0  0  0
 10 14  1  0  0  0  0
 10 17  1  0  0  0  0
 11  8  1  6  0  0  0
 11 20  1  0  0  0  0
 11 32  1  0  0  0  0
 12 18  1  0  0  0  0
 12 30  1  1  0  0  0
 12 32  1  0  0  0  0
 13 16  2  0  0  0  0
 13 21  1  0  0  0  0
 14  5  1  1  0  0  0
 14 15  1  0  0  0  0
 14 20  1  0  0  0  0
 15 31  1  0  0  0  0
 15 45  1  0  0  0  0
 17 18  1  0  0  0  0
 17 23  1  0  0  0  0
 18 25  1  0  0  0  0
 18 26  1  0  0  0  0
 19 21  1  0  0  0  0
 19 35  1  0  0  0  0
 20 23  1  0  0  0  0
 21 22  2  0  0  0  0
 22 27  1  0  0  0  0
 23 24  1  0  0  0  0
 23 45  1  0  0  0  0
 24 26  1  0  0  0  0
 26 28  2  0  0  0  0
 27 34  2  0  0  0  0
 27 36  1  0  0  0  0
 28 29  1  0  0  0  0
 28 32  1  0  0  0  0
 29 38  1  0  0  0  0
 31 33  2  0  0  0  0
 31 37  1  0  0  0  0
 34 35  1  0  0  0  0
 35 38  1  0  0  0  0
 36 39  1  0  0  0  0
 36 40  2  0  0  0  0
 39 41  2  0  0  0  0
 40 42  1  0  0  0  0
 41 43  1  0  0  0  0
 41 44  1  0  0  0  0
 42 44  2  0  0  0  0
M  END
$$$$

 OpenBabel10082411353D

 45 57  0  0  0  0  0  0  0  0999 V2000
    8.0806    9.0240  -12.7589 C   0  0  0  0  0  0  0  0  0  0  0  0
    8.6514    7.8645  -12.2948 C   0  0  0  0  0  0  0  0  0  0  0  0
    9.9575    7.9974  -11.8426 C   0  0  0  0  0  0  0  0  0  0  0  0
   10.7657    6.8667  -11.6050 C   0  0  1  0  0  0  0  0  0  0  0  0
   10.7682    5.9590  -12.8271 C   0  0  0  0  0  0  0  0  0  0  0  0
   12.1553    7.3846  -11.2315 C   0  0  0  0  0  0  0  0  0  0  0  0
    8.0676    6.6451  -12.2974 C   0  0  0  0  0  0  0  0  0  0  0  0
   10.1892    6.1240  -10.3860 C   0  0  0  0  0  0  0  0  0  0  0  0
   11.8375    5.4373  -13.3240 O   0  0  0  0  0  0  0  0  0  0  0  0
    8.6785    5.4761  -13.0273 C   0  0  1  0  0  0  0  0  0  0  0  0
    9.1969    5.2405  -10.4969 C   0  0  2  0  0  0  0  0  0  0  0  0
    7.2213    6.2210  -11.3074 C   0  0  2  0  0  0  0  0  0  0  0  0
   12.5590    7.6872   -9.9896 C   0  0  0  0  0  0  0  0  0  0  0  0
    9.7633    5.0333  -12.9720 C   0  0  1  0  0  0  0  0  0  0  0  0
   10.0661    4.0167  -14.0373 N   0  0  0  0  0  0  0  0  0  0  0  0
   13.6906    8.3004   -9.6233 O   0  0  0  0  0  0  0  0  0  0  0  0
    7.6357    4.5123  -12.6317 C   0  0  2  0  0  0  0  0  0  0  0  0
    6.8831    4.9171  -11.7031 C   0  0  2  0  0  0  0  0  0  0  0  0
   10.5937    6.6967   -9.1779 C   0  0  0  0  0  0  0  0  0  0  0  0
    9.5087    4.3263  -11.6925 C   0  0  2  0  0  0  0  0  0  0  0  0
   11.6359    7.4449   -8.9125 C   0  0  0  0  0  0  0  0  0  0  0  0
   11.9716    7.9159   -7.6200 C   0  0  0  0  0  0  0  0  0  0  0  0
    8.4648    3.6122  -12.2840 C   0  0  1  0  0  0  0  0  0  0  0  0
    7.9253    2.8004  -11.3926 C   0  0  2  0  0  0  0  0  0  0  0  0
    5.6047    4.5059  -11.7589 C   0  0  0  0  0  0  0  0  0  0  0  0
    7.6606    4.1297  -10.5699 C   0  0  0  0  0  0  0  0  0  0  0  0
   10.9559    7.6849   -6.6057 C   0  0  0  0  0  0  0  0  0  0  0  0
    8.0094    4.5092   -9.5664 C   0  0  0  0  0  0  0  0  0  0  0  0
    8.3033    4.0627   -8.4980 C   0  0  0  0  0  0  0  0  0  0  0  0
    6.3587    7.1012  -11.0392 O   0  0  0  0  0  0  0  0  0  0  0  0
   11.0186    3.9598  -14.9226 C   0  0  0  0  0  0  0  0  0  0  0  0
    8.1758    5.8633  -10.2511 C   0  0  1  0  0  0  0  0  0  0  0  0
   11.4648    2.7104  -15.2650 O   0  0  0  0  0  0  0  0  0  0  0  0
    9.9512    6.8220   -6.8436 C   0  0  0  0  0  0  0  0  0  0  0  0
    9.6899    6.3705   -8.1082 C   0  0  2  0  0  0  0  0  0  0  0  0
    9.1306    2.9610  -13.9685 C   0  0  0  0  0  0  0  0  0  0  0  0
    8.8414    5.0113   -7.7726 C   0  0  0  0  0  0  0  0  0  0  0  0
   11.6944    4.9031  -15.4200 O   0  0  0  0  0  0  0  0  0  0  0  0
   11.2282    8.3639   -5.2721 C   0  0  0  0  0  0  0  0  0  0  0  0
    8.7016    2.4223  -12.9165 C   0  0  1  0  0  0  0  0  0  0  0  0
   11.9286    7.6722   -4.3404 C   0  0  0  0  0  0  0  0  0  0  0  0
   10.7972    9.7001   -4.9421 C   0  0  0  0  0  0  0  0  0  0  0  0
   11.1903   10.2716   -3.8075 C   0  0  0  0  0  0  0  0  0  0  0  0
   11.9381    9.4803   -2.9076 C   0  0  0  0  0  0  0  0  0  0  0  0
   12.2733    8.2312   -3.0879 C   0  0  0  0  0  0  0  0  0  0  0  0
  1  2  1  0  0  0  0
  2  3  1  0  0  0  0
  2  7  2  0  0  0  0
  4  3  1  6  0  0  0
  4  5  1  0  0  0  0
  4  6  1  0  0  0  0
  4  8  1  0  0  0  0
  5  9  2  0  0  0  0
  6 13  1  0  0  0  0
  7 12  1  0  0  0  0
  8 19  2  0  0  0  0
 10  7  1  1  0  0  0
 10 14  1  0  0  0  0
 10 17  1  0  0  0  0
 11  8  1  6  0  0  0
 11 20  1  0  0  0  0
 11 32  1  0  0  0  0
 12 18  1  0  0  0  0
 12 30  1  1  0  0  0
 12 32  1  0  0  0  0
 13 16  2  0  0  0  0
 13 21  1  0  0  0  0
 14  5  1  1  0  0  0
 14 15  1  0  0  0  0
 14 20  1  0  0  0  0
 15 31  1  0  0  0  0
 15 36  1  0  0  0  0
 17 18  1  0  0  0  0
 17 23  1  0  0  0  0
 18 25  1  0  0  0  0
 18 26  1  0  0  0  0
 19 21  1  0  0  0  0
 19 35  1  0  0  0  0
 20 23  1  0  0  0  0
 21 22  2  0  0  0  0
 22 27  1  0  0  0  0
 23 24  1  0  0  0  0
 23 40  1  0  0  0  0
 24 26  1  0  0  0  0
 24 40  1  0  0  0  0
 26 28  2  0  0  0  0
 27 34  2  0  0  0  0
 27 39  1  0  0  0  0
 28 29  1  0  0  0  0
 28 32  1  0  0  0  0
 29 37  2  0  0  0  0
 31 33  2  0  0  0  0
 31 38  1  0  0  0  0
 34 35  1  0  0  0  0
 35 37  1  0  0  0  0
 36 40  1  0  0  0  0
 39 41  1  0  0  0  0
 39 42  2  0  0  0  0
 41 45  2  0  0  0  0
 42 43  1  0  0  0  0
 43 44  2  0  0  0  0
 44 45  1  0  0  0  0
M  END
$$$$

 OpenBabel10082411353D

 45 56  0  0  0  0  0  0  0  0999 V2000
    8.0806    9.0240  -12.7589 C   0  0  0  0  0  0  0  0  0  0  0  0
    8.6514    7.8645  -12.2948 C   0  0  0  0  0  0  0  0  0  0  0  0
    9.9575    7.9974  -11.8426 C   0  0  0  0  0  0  0  0  0  0  0  0
   10.7657    6.8667  -11.6050 C   0  0  1  0  0  0  0  0  0  0  0  0
   10.7682    5.9590  -12.8271 C   0  0  0  0  0  0  0  0  0  0  0  0
   12.1553    7.3846  -11.2315 C   0  0  0  0  0  0  0  0  0  0  0  0
    8.0676    6.6451  -12.2974 C   0  0  0  0  0  0  0  0  0  0  0  0
   10.1892    6.1240  -10.3860 C   0  0  0  0  0  0  0  0  0  0  0  0
   11.8375    5.4373  -13.3240 O   0  0  0  0  0  0  0  0  0  0  0  0
    8.6785    5.4761  -13.0273 C   0  0  1  0  0  0  0  0  0  0  0  0
    9.1969    5.2405  -10.4969 C   0  0  2  0  0  0  0  0  0  0  0  0
    7.2213    6.2210  -11.3074 C   0  0  2  0  0  0  0  0  0  0  0  0
   12.5590    7.6872   -9.9896 C   0  0  0  0  0  0  0  0  0  0  0  0
    9.7633    5.0333  -12.9720 C   0  0  1  0  0  0  0  0  0  0  0  0
   10.0661    4.0167  -14.0373 N   0  0  0  0  0  0  0  0  0  0  0  0
   13.6906    8.3004   -9.6233 O   0  0  0  0  0  0  0  0  0  0  0  0
    7.6357    4.5123  -12.6317 C   0  0  2  0  0  0  0  0  0  0  0  0
    6.8831    4.9171  -11.7031 C   0  0  2  0  0  0  0  0  0  0  0  0
   10.5937    6.6967   -9.1779 C   0  0  0  0  0  0  0  0  0  0  0  0
    9.5087    4.3263  -11.6925 C   0  0  2  0  0  0  0  0  0  0  0  0
   11.6359    7.4449   -8.9125 C   0  0  0  0  0  0  0  0  0  0  0  0
   11.9716    7.9159   -7.6200 C   0  0  0  0  0  0  0  0  0  0  0  0
    8.4648    3.6122  -12.2840 C   0  0  1  0  0  0  0  0  0  0  0  0
    7.9253    2.8004  -11.3926 C   0  0  0  0  0  0  0  0  0  0  0  0
    5.6047    4.5059  -11.7589 C   0  0  0  0  0  0  0  0  0  0  0  0
    7.6606    4.1297  -10.5699 C   0  0  0  0  0  0  0  0  0  0  0  0
   10.9559    7.6849   -6.6057 C   0  0  0  0  0  0  0  0  0  0  0  0
    8.0094    4.5092   -9.5664 C   0  0  0  0  0  0  0  0  0  0  0  0
    8.3033    4.0627   -8.4980 C   0  0  0  0  0  0  0  0  0  0  0  0
    6.3587    7.1012  -11.0392 O   0  0  0  0  0  0  0  0  0  0  0  0
   11.0186    3.9598  -14.9226 C   0  0  0  0  0  0  0  0  0  0  0  0
    8.1758    5.8633  -10.2511 C   0  0  1  0  0  0  0  0  0  0  0  0
   11.4648    2.7104  -15.2650 O   0  0  0  0  0  0  0  0  0  0  0  0
    9.9512    6.8220   -6.8436 C   0  0  0  0  0  0  0  0  0  0  0  0
    9.6899    6.3705   -8.1082 C   0  0  2  0  0  0  0  0  0  0  0  0
   11.2597    8.2901   -5.2396 C   0  0  0  0  0  0  0  0  0  0  0  0
   11.7295    4.9426  -15.4284 O   0  0  0  0  0  0  0  0  0  0  0  0
    9.2745    4.9481   -7.8103 C   0  0  0  0  0  0  0  0  0  0  0  0
    9.2182    2.8872  -13.7570 C   0  0  0  0  0  0  0  0  0  0  0  0
   11.9188    7.5853   -4.3293 C   0  0  0  0  0  0  0  0  0  0  0  0
   11.7780    6.4589   -4.0859 C   0  0  0  0  0  0  0  0  0  0  0  0
   12.3068    8.5128   -3.0579 C   0  0  0  0  0  0  0  0  0  0  0  0
   11.0012    9.7012   -5.1219 C   0  0  0  0  0  0  0  0  0  0  0  0
   12.1441    9.6053   -2.9652 C   0  0  0  0  0  0  0  0  0  0  0  0
   11.4387   10.4322   -4.0332 C   0  0  0  0  0  0  0  0  0  0  0  0
  1  2  1  0  0  0  0
  2  3  1  0  0  0  0
  2  7  2  0  0  0  0
  4  3  1  6  0  0  0
  4  5  1  0  0  0  0
  4  6  1  0  0  0  0
  4  8  1  0  0  0  0
  5  9  2  0  0  0  0
  6 13  1  0  0  0  0
  7 12  1  0  0  0  0
  8 19  2  0  0  0  0
 10  7  1  1  0  0  0
 10 14  1  0  0  0  0
 10 17  1  0  0  0  0
 11  8  1  6  0  0  0
 11 20  1  0  0  0  0
 11 32  1  0  0  0  0
 12 18  1  0  0  0  0
 12 30  1  1  0  0  0
 12 32  1  0  0  0  0
 13 16  2  0  0  0  0
 13 21  1  0  0  0  0
 14  5  1  1  0  0  0
 14 15  1  0  0  0  0
 14 20  1  0  0  0  0
 15 31  1  0  0  0  0
 15 39  1  0  0  0  0
 17 18  1  0  0  0  0
 17 23  1  0  0  0  0
 18 25  1  0  0  0  0
 18 26  1  0  0  0  0
 19 21  1  0  0  0  0
 19 35  1  0  0  0  0
 20 23  1  0  0  0  0
 21 22  2  0  0  0  0
 22 27  1  0  0  0  0
 23 24  1  0  0  0  0
 23 39  1  0  0  0  0
 24 26  1  0  0  0  0
 26 28  2  0  0  0  0
 27 34  2  0  0  0  0
 27 36  1  0  0  0  0
 28 29  1  0  0  0  0
 28 32  1  0  0  0  0
 29 38  1  0  0  0  0
 31 33  2  0  0  0  0
 31 37  1  0  0  0  0
 34 35  1  0  0  0  0
 35 38  1  0  0  0  0
 36 40  1  0  0  0  0
 36 43  2  0  0  0  0
 40 41  2  0  0  0  0
 40 42  1  0  0  0  0
 42 44  2  0  0  0  0
 43 45  1  0  0  0  0
 44 45  1  0  0  0  0
M  END
$$$$

 OpenBabel10082411353D

 45 56  0  0  0  0  0  0  0  0999 V2000
    8.0806    9.0240  -12.7589 C   0  0  0  0  0  0  0  0  0  0  0  0
    8.6514    7.8645  -12.2948 C   0  0  0  0  0  0  0  0  0  0  0  0
    9.9575    7.9974  -11.8426 C   0  0  0  0  0  0  0  0  0  0  0  0
   10.7657    6.8667  -11.6050 C   0  0  1  0  0  0  0  0  0  0  0  0
   10.7682    5.9590  -12.8271 C   0  0  0  0  0  0  0  0  0  0  0  0
   12.1553    7.3846  -11.2315 C   0  0  0  0  0  0  0  0  0  0  0  0
    8.0676    6.6451  -12.2974 C   0  0  0  0  0  0  0  0  0  0  0  0
   10.1892    6.1240  -10.3860 C   0  0  0  0  0  0  0  0  0  0  0  0
   11.8375    5.4373  -13.3240 O   0  0  0  0  0  0  0  0  0  0  0  0
    8.6785    5.4761  -13.0273 C   0  0  1  0  0  0  0  0  0  0  0  0
    9.1969    5.2405  -10.4969 C   0  0  2  0  0  0  0  0  0  0  0  0
    7.2213    6.2210  -11.3074 C   0  0  2  0  0  0  0  0  0  0  0  0
   12.5590    7.6872   -9.9896 C   0  0  0  0  0  0  0  0  0  0  0  0
    9.7633    5.0333  -12.9720 C   0  0  1  0  0  0  0  0  0  0  0  0
   10.0661    4.0167  -14.0373 N   0  0  0  0  0  0  0  0  0  0  0  0
   13.6906    8.3004   -9.6233 O   0  0  0  0  0  0  0  0  0  0  0  0
    7.6357    4.5123  -12.6317 C   0  0  2  0  0  0  0  0  0  0  0  0
    6.8831    4.9171  -11.7031 C   0  0  2  0  0  0  0  0  0  0  0  0
   10.5937    6.6967   -9.1779 C   0  0  0  0  0  0  0  0  0  0  0  0
    9.5087    4.3263  -11.6925 C   0  0  2  0  0  0  0  0  0  0  0  0
   11.6359    7.4449   -8.9125 C   0  0  0  0  0  0  0  0  0  0  0  0
   11.9716    7.9159   -7.6200 C   0  0  0  0  0  0  0  0  0  0  0  0
    8.4648    3.6122  -12.2840 C   0  0  1  0  0  0  0  0  0  0  0  0
    7.9253    2.8004  -11.3926 C   0  0  0  0  0  0  0  0  0  0  0  0
    5.6047    4.5059  -11.7589 C   0  0  0  0  0  0  0  0  0  0  0  0
    7.6606    4.1297  -10.5699 C   0  0  0  0  0  0  0  0  0  0  0  0
   10.9559    7.6849   -6.6057 C   0  0  0  0  0  0  0  0  0  0  0  0
    8.0094    4.5092   -9.5664 C   0  0  0  0  0  0  0  0  0  0  0  0
    8.3033    4.0627   -8.4980 C   0  0  0  0  0  0  0  0  0  0  0  0
    6.3587    7.1012  -11.0392 O   0  0  0  0  0  0  0  0  0  0  0  0
   11.0186    3.9598  -14.9226 C   0  0  0  0  0  0  0  0  0  0  0  0
    8.1758    5.8633  -10.2511 C   0  0  1  0  0  0  0  0  0  0  0  0
   11.4648    2.7104  -15.2650 O   0  0  0  0  0  0  0  0  0  0  0  0
    9.9512    6.8220   -6.8436 C   0  0  0  0  0  0  0  0  0  0  0  0
    9.6899    6.3705   -8.1082 C   0  0  2  0  0  0  0  0  0  0  0  0
   11.2597    8.2901   -5.2396 C   0  0  0  0  0  0  0  0  0  0  0  0
   11.6068    9.7354   -5.2006 C   0  0  0  0  0  0  0  0  0  0  0  0
   10.9469    4.9352  -15.8306 C   0  0  0  0  0  0  0  0  0  0  0  0
    9.2417    4.9555   -7.8256 C   0  0  0  0  0  0  0  0  0  0  0  0
   11.3657    7.7043   -4.0379 C   0  0  0  0  0  0  0  0  0  0  0  0
    9.3036    2.8311  -13.6285 C   0  0  0  0  0  0  0  0  0  0  0  0
   11.4466   10.6213   -6.4141 C   0  0  0  0  0  0  0  0  0  0  0  0
   11.7652   10.0517   -3.9940 C   0  0  0  0  0  0  0  0  0  0  0  0
   11.8959    9.5083   -2.8248 C   0  0  0  0  0  0  0  0  0  0  0  0
   11.6697    8.1428   -2.8827 C   0  0  0  0  0  0  0  0  0  0  0  0
  1  2  1  0  0  0  0
  2  3  1  0  0  0  0
  2  7  2  0  0  0  0
  4  3  1  6  0  0  0
  4  5  1  0  0  0  0
  4  6  1  0  0  0  0
  4  8  1  0  0  0  0
  5  9  2  0  0  0  0
  6 13  1  0  0  0  0
  7 12  1  0  0  0  0
  8 19  2  0  0  0  0
 10  7  1  1  0  0  0
 10 14  1  0  0  0  0
 10 17  1  0  0  0  0
 11  8  1  6  0  0  0
 11 20  1  0  0  0  0
 11 32  1  0  0  0  0
 12 18  1  0  0  0  0
 12 30  1  1  0  0  0
 12 32  1  0  0  0  0
 13 16  2  0  0  0  0
 13 21  1  0  0  0  0
 14  5  1  1  0  0  0
 14 15  1  0  0  0  0
 14 20  1  0  0  0  0
 15 31  1  0  0  0  0
 15 41  1  0  0  0  0
 17 18  1  0  0  0  0
 17 23  1  0  0  0  0
 18 25  1  0  0  0  0
 18 26  1  0  0  0  0
 19 21  1  0  0  0  0
 19 35  1  0  0  0  0
 20 23  1  0  0  0  0
 21 22  2  0  0  0  0
 22 27  1  0  0  0  0
 23 24  1  0  0  0  0
 23 41  1  0  0  0  0
 24 26  1  0  0  0  0
 26 28  2  0  0  0  0
 27 34  2  0  0  0  0
 27 36  1  0  0  0  0
 28 29  1  0  0  0  0
 28 32  1  0  0  0  0
 29 39  2  0  0  0  0
 31 33  2  0  0  0  0
 31 38  1  0  0  0  0
 34 35  1  0  0  0  0
 35 39  1  0  0  0  0
 36 37  1  0  0  0  0
 36 40  2  0  0  0  0
 37 42  1  0  0  0  0
 37 43  2  0  0  0  0
 40 45  1  0  0  0  0
 43 44  1  0  0  0  0
 44 45  2  0  0  0  0
M  END
$$$$

 OpenBabel10082411353D

 45 53  0  0  0  0  0  0  0  0999 V2000
   11.6836    6.0105   -4.8831 C   0  0  0  0  0  0  0  0  0  0  0  0
   11.1291    7.0732   -5.4395 C   0  0  0  0  0  0  0  0  0  0  0  0
   10.6954    7.0156   -6.8073 C   0  0  0  0  0  0  0  0  0  0  0  0
   10.2502    8.1187   -7.5536 C   0  0  2  0  0  0  0  0  0  0  0  0
   11.1205    8.4712   -4.9629 C   0  0  0  0  0  0  0  0  0  0  0  0
   10.8655    8.3511   -8.7960 C   0  0  0  0  0  0  0  0  0  0  0  0
   10.2922    7.8843   -9.9985 C   0  0  0  0  0  0  0  0  0  0  0  0
   10.4654    9.6993   -5.6120 C   0  0  0  0  0  0  0  0  0  0  0  0
   10.3510    9.5971   -7.0014 C   0  0  0  0  0  0  0  0  0  0  0  0
   12.2462    6.3351   -3.5020 C   0  0  0  0  0  0  0  0  0  0  0  0
   11.0471    7.5309  -11.1063 C   0  0  0  0  0  0  0  0  0  0  0  0
   11.7288    8.6923   -3.6518 C   0  0  0  0  0  0  0  0  0  0  0  0
   12.3991    7.7501  -11.1145 C   0  0  0  0  0  0  0  0  0  0  0  0
   12.3738    7.7580   -2.9599 C   0  0  0  0  0  0  0  0  0  0  0  0
   13.1285    8.5075  -10.1661 O   0  0  0  0  0  0  0  0  0  0  0  0
    9.0407    7.3775  -10.0973 N   0  0  0  0  0  0  0  0  0  0  0  0
    8.9787    6.9473  -11.4664 N   0  0  0  0  0  0  0  0  0  0  0  0
   13.1012    7.4459  -12.3707 C   0  0  0  0  0  0  0  0  0  0  0  0
   12.2395    6.9724  -13.2444 C   0  0  0  0  0  0  0  0  0  0  0  0
   10.2768    7.0170  -11.9799 C   0  0  0  0  0  0  0  0  0  0  0  0
   12.9237    6.5822  -14.5759 O   0  0  0  0  0  0  0  0  0  0  0  0
   10.8906    6.6526  -13.2252 C   0  0  0  0  0  0  0  0  0  0  0  0
   12.2396    6.1290  -15.6916 C   0  0  0  0  0  0  0  0  0  0  0  0
    7.8036    6.1825  -11.9342 C   0  0  0  0  0  0  0  0  0  0  0  0
   12.5015    4.7115  -15.7686 C   0  0  0  0  0  0  0  0  0  0  0  0
    7.1685    6.9992  -12.8245 C   0  0  0  0  0  0  0  0  0  0  0  0
   11.2461    3.8540  -15.4851 C   0  0  0  0  0  0  0  0  0  0  0  0
    7.6237    4.9154  -11.6529 C   0  0  0  0  0  0  0  0  0  0  0  0
    6.6378    4.1960  -12.2267 C   0  0  0  0  0  0  0  0  0  0  0  0
    6.2717    2.7675  -11.9743 C   0  0  0  0  0  0  0  0  0  0  0  0
    6.6569    1.8873  -12.9460 C   0  0  0  0  0  0  0  0  0  0  0  0
    7.3895    8.4597  -13.1785 C   0  0  0  0  0  0  0  0  0  0  0  0
    6.3114    0.5653  -12.7247 C   0  0  0  0  0  0  0  0  0  0  0  0
    7.7684    2.0327  -13.9055 C   0  0  0  0  0  0  0  0  0  0  0  0
    6.9387   -0.3720  -13.7691 C   0  0  0  0  0  0  0  0  0  0  0  0
    8.3285    1.1433  -14.6815 C   0  0  0  0  0  0  0  0  0  0  0  0
   11.1366    3.2519  -14.4180 O   0  0  0  0  0  0  0  0  0  0  0  0
    7.8526   -0.2094  -14.5021 C   0  0  0  0  0  0  0  0  0  0  0  0
   10.0170    4.3035  -15.7976 C   0  0  0  0  0  0  0  0  0  0  0  0
    9.9554    2.7038  -14.1564 C   0  0  0  0  0  0  0  0  0  0  0  0
    9.0879    3.1681  -14.8726 C   0  0  0  0  0  0  0  0  0  0  0  0
    7.9006    2.9254  -14.9477 O   0  0  0  0  0  0  0  0  0  0  0  0
    9.7475    1.2777  -14.6417 C   0  0  0  0  0  0  0  0  0  0  0  0
    5.8086    5.1791  -13.1933 C   0  0  0  0  0  0  0  0  0  0  0  0
    6.1393    6.3888  -13.3904 C   0  0  0  0  0  0  0  0  0  0  0  0
  1  2  1  0  0  0  0
  1 10  2  0  0  0  0
  2  3  1  0  0  0  0
  2  5  2  0  0  0  0
  3  4  1  0  0  0  0
  4  6  1  6  0  0  0
  4  9  1  0  0  0  0
  5  8  1  0  0  0  0
  5 12  1  0  0  0  0
  6  7  1  0  0  0  0
  7 11  1  0  0  0  0
  7 16  2  0  0  0  0
  8  9  1  0  0  0  0
 10 14  1  0  0  0  0
 11 13  2  0  0  0  0
 11 20  1  0  0  0  0
 12 14  2  0  0  0  0
 13 15  1  0  0  0  0
 13 18  1  0  0  0  0
 16 17  1  0  0  0  0
 17 20  1  0  0  0  0
 17 24  1  0  0  0  0
 18 19  2  0  0  0  0
 19 21  1  0  0  0  0
 19 22  1  0  0  0  0
 20 22  2  0  0  0  0
 21 23  1  0  0  0  0
 23 25  1  0  0  0  0
 24 26  2  0  0  0  0
 24 28  1  0  0  0  0
 25 27  1  0  0  0  0
 26 32  1  0  0  0  0
 26 45  1  0  0  0  0
 27 37  1  0  0  0  0
 27 39  2  0  0  0  0
 28 29  2  0  0  0  0
 29 30  1  0  0  0  0
 29 44  1  0  0  0  0
 30 31  1  0  0  0  0
 31 33  2  0  0  0  0
 31 34  1  0  0  0  0
 33 35  1  0  0  0  0
 34 36  2  0  0  0  0
 34 42  1  0  0  0  0
 35 38  2  0  0  0  0
 36 38  1  0  0  0  0
 36 43  1  0  0  0  0
 37 40  1  0  0  0  0
 39 41  1  0  0  0  0
 40 41  2  0  0  0  0
 40 43  1  0  0  0  0
 41 42  1  0  0  0  0
 44 45  2  0  0  0  0
M  END
$$$$

 OpenBabel10082411353D

 45 53  0  0  0  0  0  0  0  0999 V2000
   11.6836    6.0105   -4.8831 C   0  0  0  0  0  0  0  0  0  0  0  0
   11.1291    7.0732   -5.4395 C   0  0  0  0  0  0  0  0  0  0  0  0
   10.6954    7.0156   -6.8073 C   0  0  0  0  0  0  0  0  0  0  0  0
   10.2502    8.1187   -7.5536 C   0  0  2  0  0  0  0  0  0  0  0  0
   11.1205    8.4712   -4.9629 C   0  0  0  0  0  0  0  0  0  0  0  0
   10.8655    8.3511   -8.7960 C   0  0  0  0  0  0  0  0  0  0  0  0
   10.2922    7.8843   -9.9985 C   0  0  0  0  0  0  0  0  0  0  0  0
   10.4654    9.6993   -5.6120 C   0  0  0  0  0  0  0  0  0  0  0  0
   10.3510    9.5971   -7.0014 C   0  0  0  0  0  0  0  0  0  0  0  0
   12.2462    6.3351   -3.5020 C   0  0  0  0  0  0  0  0  0  0  0  0
   11.0471    7.5309  -11.1063 C   0  0  0  0  0  0  0  0  0  0  0  0
   11.7288    8.6923   -3.6518 C   0  0  0  0  0  0  0  0  0  0  0  0
   12.3991    7.7501  -11.1145 C   0  0  0  0  0  0  0  0  0  0  0  0
   12.3738    7.7580   -2.9599 C   0  0  0  0  0  0  0  0  0  0  0  0
   13.1285    8.5075  -10.1661 O   0  0  0  0  0  0  0  0  0  0  0  0
    9.0407    7.3775  -10.0973 N   0  0  0  0  0  0  0  0  0  0  0  0
    8.9787    6.9473  -11.4664 N   0  0  0  0  0  0  0  0  0  0  0  0
   13.1012    7.4459  -12.3707 C   0  0  0  0  0  0  0  0  0  0  0  0
   12.2395    6.9724  -13.2444 C   0  0  0  0  0  0  0  0  0  0  0  0
   10.2768    7.0170  -11.9799 C   0  0  0  0  0  0  0  0  0  0  0  0
   12.9237    6.5822  -14.5759 O   0  0  0  0  0  0  0  0  0  0  0  0
   10.8906    6.6526  -13.2252 C   0  0  0  0  0  0  0  0  0  0  0  0
   12.2396    6.1290  -15.6916 C   0  0  0  0  0  0  0  0  0  0  0  0
    7.8036    6.1825  -11.9342 C   0  0  0  0  0  0  0  0  0  0  0  0
   12.5015    4.7115  -15.7686 C   0  0  0  0  0  0  0  0  0  0  0  0
    7.1685    6.9992  -12.8245 C   0  0  0  0  0  0  0  0  0  0  0  0
   11.2461    3.8540  -15.4851 C   0  0  0  0  0  0  0  0  0  0  0  0
    7.6237    4.9154  -11.6529 C   0  0  0  0  0  0  0  0  0  0  0  0
    6.6378    4.1960  -12.2267 C   0  0  0  0  0  0  0  0  0  0  0  0
    6.2717    2.7675  -11.9743 C   0  0  0  0  0  0  0  0  0  0  0  0
    6.6569    1.8873  -12.9460 C   0  0  0  0  0  0  0  0  0  0  0  0
    7.3895    8.4597  -13.1785 C   0  0  0  0  0  0  0  0  0  0  0  0
    6.3114    0.5653  -12.7247 C   0  0  0  0  0  0  0  0  0  0  0  0
   11.3885    2.5830  -15.4863 O   0  0  0  0  0  0  0  0  0  0  0  0
    7.4815    2.1853  -14.0878 C   0  0  0  0  0  0  0  0  0  0  0  0
   10.0671    4.4249  -15.4648 O   0  0  0  0  0  0  0  0  0  0  0  0
    6.9068   -0.3393  -13.8429 C   0  0  0  0  0  0  0  0  0  0  0  0
    7.9156    3.5885  -14.2394 C   0  0  1  0  0  0  0  0  0  0  0  0
    7.9792    1.3984  -14.7530 C   0  0  0  0  0  0  0  0  0  0  0  0
    8.9112    1.7851  -15.8925 O   0  0  0  0  0  0  0  0  0  0  0  0
    8.7440    3.9164  -15.3109 C   0  0  2  0  0  0  0  0  0  0  0  0
    7.7296    0.0095  -14.7507 C   0  0  0  0  0  0  0  0  0  0  0  0
    7.1020    4.4226  -13.4879 C   0  0  0  0  0  0  0  0  0  0  0  0
    7.0651    5.9462  -13.9273 C   0  0  0  0  0  0  0  0  0  0  0  0
    8.8795    2.9779  -16.3633 C   0  0  0  0  0  0  0  0  0  0  0  0
  1  2  1  0  0  0  0
  1 10  2  0  0  0  0
  2  3  1  0  0  0  0
  2  5  2  0  0  0  0
  3  4  1  0  0  0  0
  4  6  1  6  0  0  0
  4  9  1  0  0  0  0
  5  8  1  0  0  0  0
  5 12  1  0  0  0  0
  6  7  1  0  0  0  0
  7 11  1  0  0  0  0
  7 16  2  0  0  0  0
  8  9  1  0  0  0  0
 10 14  1  0  0  0  0
 11 13  2  0  0  0  0
 11 20  1  0  0  0  0
 12 14  2  0  0  0  0
 13 15  1  0  0  0  0
 13 18  1  0  0  0  0
 16 17  1  0  0  0  0
 17 20  1  0  0  0  0
 17 24  1  0  0  0  0
 18 19  2  0  0  0  0
 19 21  1  0  0  0  0
 19 22  1  0  0  0  0
 20 22  2  0  0  0  0
 21 23  1  0  0  0  0
 23 25  1  0  0  0  0
 24 26  2  0  0  0  0
 24 28  1  0  0  0  0
 25 27  1  0  0  0  0
 26 32  1  0  0  0  0
 26 44  1  0  0  0  0
 27 34  2  0  0  0  0
 27 36  1  0  0  0  0
 28 29  2  0  0  0  0
 29 30  1  0  0  0  0
 29 43  1  0  0  0  0
 30 31  1  0  0  0  0
 31 33  2  0  0  0  0
 31 35  1  0  0  0  0
 33 37  1  0  0  0  0
 35 39  2  0  0  0  0
 36 41  1  0  0  0  0
 37 42  2  0  0  0  0
 38 35  1  6  0  0  0
 38 41  1  0  0  0  0
 38 43  1  0  0  0  0
 39 40  1  0  0  0  0
 39 42  1  0  0  0  0
 40 45  1  0  0  0  0
 41 45  1  6  0  0  0
 43 44  2  0  0  0  0
M  END
$$$$

 OpenBabel10082411353D

 45 56  0  0  0  0  0  0  0  0999 V2000
    8.0806    9.0240  -12.7589 C   0  0  0  0  0  0  0  0  0  0  0  0
    8.6514    7.8645  -12.2948 C   0  0  0  0  0  0  0  0  0  0  0  0
    9.9575    7.9974  -11.8426 C   0  0  0  0  0  0  0  0  0  0  0  0
   10.7657    6.8667  -11.6050 C   0  0  1  0  0  0  0  0  0  0  0  0
   10.7682    5.9590  -12.8271 C   0  0  0  0  0  0  0  0  0  0  0  0
   12.1553    7.3846  -11.2315 C   0  0  0  0  0  0  0  0  0  0  0  0
    8.0676    6.6451  -12.2974 C   0  0  0  0  0  0  0  0  0  0  0  0
   10.1892    6.1240  -10.3860 C   0  0  0  0  0  0  0  0  0  0  0  0
   11.8375    5.4373  -13.3240 O   0  0  0  0  0  0  0  0  0  0  0  0
    8.6785    5.4761  -13.0273 C   0  0  1  0  0  0  0  0  0  0  0  0
    9.1969    5.2405  -10.4969 C   0  0  2  0  0  0  0  0  0  0  0  0
    7.2213    6.2210  -11.3074 C   0  0  2  0  0  0  0  0  0  0  0  0
   12.5590    7.6872   -9.9896 C   0  0  0  0  0  0  0  0  0  0  0  0
    9.7633    5.0333  -12.9720 C   0  0  1  0  0  0  0  0  0  0  0  0
   10.0661    4.0167  -14.0373 N   0  0  0  0  0  0  0  0  0  0  0  0
   13.6906    8.3004   -9.6233 O   0  0  0  0  0  0  0  0  0  0  0  0
    7.6357    4.5123  -12.6317 C   0  0  2  0  0  0  0  0  0  0  0  0
    6.8831    4.9171  -11.7031 C   0  0  2  0  0  0  0  0  0  0  0  0
   10.5937    6.6967   -9.1779 C   0  0  0  0  0  0  0  0  0  0  0  0
    9.5087    4.3263  -11.6925 C   0  0  2  0  0  0  0  0  0  0  0  0
   11.6359    7.4449   -8.9125 C   0  0  0  0  0  0  0  0  0  0  0  0
   11.9716    7.9159   -7.6200 C   0  0  0  0  0  0  0  0  0  0  0  0
    8.4648    3.6122  -12.2840 C   0  0  1  0  0  0  0  0  0  0  0  0
    7.9253    2.8004  -11.3926 C   0  0  0  0  0  0  0  0  0  0  0  0
    5.6047    4.5059  -11.7589 C   0  0  0  0  0  0  0  0  0  0  0  0
    7.6606    4.1297  -10.5699 C   0  0  0  0  0  0  0  0  0  0  0  0
   10.9559    7.6849   -6.6057 C   0  0  0  0  0  0  0  0  0  0  0  0
    8.0094    4.5092   -9.5664 C   0  0  0  0  0  0  0  0  0  0  0  0
    8.3033    4.0627   -8.4980 C   0  0  0  0  0  0  0  0  0  0  0  0
    6.3587    7.1012  -11.0392 O   0  0  0  0  0  0  0  0  0  0  0  0
   11.0186    3.9598  -14.9226 C   0  0  0  0  0  0  0  0  0  0  0  0
    8.1758    5.8633  -10.2511 C   0  0  1  0  0  0  0  0  0  0  0  0
   11.4648    2.7104  -15.2650 O   0  0  0  0  0  0  0  0  0  0  0  0
    9.9512    6.8220   -6.8436 C   0  0  0  0  0  0  0  0  0  0  0  0
    9.6899    6.3705   -8.1082 C   0  0  2  0  0  0  0  0  0  0  0  0
   11.2597    8.2901   -5.2396 C   0  0  0  0  0  0  0  0  0  0  0  0
   11.7295    4.9426  -15.4284 O   0  0  0  0  0  0  0  0  0  0  0  0
    9.0704    4.8312   -7.8318 C   0  0  0  0  0  0  0  0  0  0  0  0
    9.2457    2.8662  -13.7297 C   0  0  0  0  0  0  0  0  0  0  0  0
   11.6809    9.7568   -5.2561 C   0  0  0  0  0  0  0  0  0  0  0  0
   11.3736    7.7231   -4.0347 C   0  0  0  0  0  0  0  0  0  0  0  0
   11.7234    8.2726   -2.8459 C   0  0  0  0  0  0  0  0  0  0  0  0
   12.1204    9.6533   -2.8033 C   0  0  0  0  0  0  0  0  0  0  0  0
   11.6060   10.6151   -6.4561 C   0  0  0  0  0  0  0  0  0  0  0  0
   12.0428   10.3703   -4.0239 C   0  0  0  0  0  0  0  0  0  0  0  0
  1  2  1  0  0  0  0
  2  3  1  0  0  0  0
  2  7  2  0  0  0  0
  4  3  1  6  0  0  0
  4  5  1  0  0  0  0
  4  6  1  0  0  0  0
  4  8  1  0  0  0  0
  5  9  2  0  0  0  0
  6 13  1  0  0  0  0
  7 12  1  0  0  0  0
  8 19  2  0  0  0  0
 10  7  1  1  0  0  0
 10 14  1  0  0  0  0
 10 17  1  0  0  0  0
 11  8  1  6  0  0  0
 11 20  1  0  0  0  0
 11 32  1  0  0  0  0
 12 18  1  0  0  0  0
 12 30  1  1  0  0  0
 12 32  1  0  0  0  0
 13 16  2  0  0  0  0
 13 21  1  0  0  0  0
 14  5  1  1  0  0  0
 14 15  1  0  0  0  0
 14 20  1  0  0  0  0
 15 31  1  0  0  0  0
 15 39  1  0  0  0  0
 17 18  1  0  0  0  0
 17 23  1  0  0  0  0
 18 25  1  0  0  0  0
 18 26  1  0  0  0  0
 19 21  1  0  0  0  0
 19 35  1  0  0  0  0
 20 23  1  0  0  0  0
 21 22  2  0  0  0  0
 22 27  1  0  0  0  0
 23 24  1  0  0  0  0
 23 39  1  0  0  0  0
 24 26  1  0  0  0  0
 26 28  2  0  0  0  0
 27 34  2  0  0  0  0
 27 36  1  0  0  0  0
 28 29  1  0  0  0  0
 28 32  1  0  0  0  0
 29 38  2  0  0  0  0
 31 33  2  0  0  0  0
 31 37  1  0  0  0  0
 34 35  1  0  0  0  0
 35 38  1  0  0  0  0
 36 40  1  0  0  0  0
 36 41  2  0  0  0  0
 40 44  1  0  0  0  0
 40 45  2  0  0  0  0
 41 42  1  0  0  0  0
 42 43  2  0  0  0  0
 43 45  1  0  0  0  0
M  END
$$$$

 OpenBabel10082411353D

 45 56  0  0  0  0  0  0  0  0999 V2000
    8.0806    9.0240  -12.7589 C   0  0  0  0  0  0  0  0  0  0  0  0
    8.6514    7.8645  -12.2948 C   0  0  0  0  0  0  0  0  0  0  0  0
    9.9575    7.9974  -11.8426 C   0  0  0  0  0  0  0  0  0  0  0  0
   10.7657    6.8667  -11.6050 C   0  0  1  0  0  0  0  0  0  0  0  0
   10.7682    5.9590  -12.8271 C   0  0  0  0  0  0  0  0  0  0  0  0
   12.1553    7.3846  -11.2315 C   0  0  0  0  0  0  0  0  0  0  0  0
    8.0676    6.6451  -12.2974 C   0  0  0  0  0  0  0  0  0  0  0  0
   10.1892    6.1240  -10.3860 C   0  0  0  0  0  0  0  0  0  0  0  0
   11.8375    5.4373  -13.3240 O   0  0  0  0  0  0  0  0  0  0  0  0
    8.6785    5.4761  -13.0273 C   0  0  1  0  0  0  0  0  0  0  0  0
    9.1969    5.2405  -10.4969 C   0  0  2  0  0  0  0  0  0  0  0  0
    7.2213    6.2210  -11.3074 C   0  0  2  0  0  0  0  0  0  0  0  0
   12.5590    7.6872   -9.9896 C   0  0  0  0  0  0  0  0  0  0  0  0
    9.7633    5.0333  -12.9720 C   0  0  1  0  0  0  0  0  0  0  0  0
   10.0661    4.0167  -14.0373 N   0  0  0  0  0  0  0  0  0  0  0  0
   13.6906    8.3004   -9.6233 O   0  0  0  0  0  0  0  0  0  0  0  0
    7.6357    4.5123  -12.6317 C   0  0  2  0  0  0  0  0  0  0  0  0
    6.8831    4.9171  -11.7031 C   0  0  2  0  0  0  0  0  0  0  0  0
   10.5937    6.6967   -9.1779 C   0  0  0  0  0  0  0  0  0  0  0  0
    9.5087    4.3263  -11.6925 C   0  0  2  0  0  0  0  0  0  0  0  0
   11.6359    7.4449   -8.9125 C   0  0  0  0  0  0  0  0  0  0  0  0
   11.9716    7.9159   -7.6200 C   0  0  0  0  0  0  0  0  0  0  0  0
    8.4648    3.6122  -12.2840 C   0  0  1  0  0  0  0  0  0  0  0  0
    7.9253    2.8004  -11.3926 C   0  0  0  0  0  0  0  0  0  0  0  0
    5.6047    4.5059  -11.7589 C   0  0  0  0  0  0  0  0  0  0  0  0
    7.6606    4.1297  -10.5699 C   0  0  0  0  0  0  0  0  0  0  0  0
   10.9559    7.6849   -6.6057 C   0  0  0  0  0  0  0  0  0  0  0  0
    8.0094    4.5092   -9.5664 C   0  0  0  0  0  0  0  0  0  0  0  0
    8.3033    4.0627   -8.4980 C   0  0  0  0  0  0  0  0  0  0  0  0
    6.3587    7.1012  -11.0392 O   0  0  0  0  0  0  0  0  0  0  0  0
   11.0186    3.9598  -14.9226 C   0  0  0  0  0  0  0  0  0  0  0  0
    8.1758    5.8633  -10.2511 C   0  0  1  0  0  0  0  0  0  0  0  0
   11.4648    2.7104  -15.2650 O   0  0  0  0  0  0  0  0  0  0  0  0
    9.9512    6.8220   -6.8436 C   0  0  0  0  0  0  0  0  0  0  0  0
    9.6899    6.3705   -8.1082 C   0  0  2  0  0  0  0  0  0  0  0  0
   11.2597    8.2901   -5.2396 C   0  0  0  0  0  0  0  0  0  0  0  0
   11.6068    9.7354   -5.2006 C   0  0  0  0  0  0  0  0  0  0  0  0
    9.4261    2.7718  -13.6670 C   0  0  0  0  0  0  0  0  0  0  0  0
    9.1568    5.0346   -7.7426 C   0  0  0  0  0  0  0  0  0  0  0  0
   11.2083    4.9304  -15.6781 O   0  0  0  0  0  0  0  0  0  0  0  0
   11.3723    7.7138   -4.0322 C   0  0  0  0  0  0  0  0  0  0  0  0
   11.7127    8.2343   -2.8399 C   0  0  0  0  0  0  0  0  0  0  0  0
   12.0583    9.6307   -2.7747 C   0  0  0  0  0  0  0  0  0  0  0  0
   11.4582   10.6039   -6.4090 C   0  0  0  0  0  0  0  0  0  0  0  0
   11.8920   10.3405   -3.9411 C   0  0  0  0  0  0  0  0  0  0  0  0
  1  2  1  0  0  0  0
  2  3  1  0  0  0  0
  2  7  2  0  0  0  0
  4  3  1  6  0  0  0
  4  5  1  0  0  0  0
  4  6  1  0  0  0  0
  4  8  1  0  0  0  0
  5  9  2  0  0  0  0
  6 13  1  0  0  0  0
  7 12  1  0  0  0  0
  8 19  2  0  0  0  0
 10  7  1  1  0  0  0
 10 14  1  0  0  0  0
 10 17  1  0  0  0  0
 11  8  1  6  0  0  0
 11 20  1  0  0  0  0
 11 32  1  0  0  0  0
 12 18  1  0  0  0  0
 12 30  1  1  0  0  0
 12 32  1  0  0  0  0
 13 16  2  0  0  0  0
 13 21  1  0  0  0  0
 14  5  1  1  0  0  0
 14 15  1  0  0  0  0
 14 20  1  0  0  0  0
 15 31  1  0  0  0  0
 15 38  1  0  0  0  0
 17 18  1  0  0  0  0
 17 23  1  0  0  0  0
 18 25  1  0  0  0  0
 18 26  1  0  0  0  0
 19 21  1  0  0  0  0
 19 35  1  0  0  0  0
 20 23  1  0  0  0  0
 21 22  2  0  0  0  0
 22 27  1  0  0  0  0
 23 24  1  0  0  0  0
 23 38  1  0  0  0  0
 24 26  1  0  0  0  0
 26 28  2  0  0  0  0
 27 34  2  0  0  0  0
 27 36  1  0  0  0  0
 28 29  1  0  0  0  0
 28 32  1  0  0  0  0
 29 39  1  0  0  0  0
 31 33  2  0  0  0  0
 31 40  1  0  0  0  0
 34 35  1  0  0  0  0
 35 39  1  0  0  0  0
 36 37  1  0  0  0  0
 36 41  2  0  0  0  0
 37 44  1  0  0  0  0
 37 45  2  0  0  0  0
 41 42  1  0  0  0  0
 42 43  2  0  0  0  0
 43 45  1  0  0  0  0
M  END
$$$$

 OpenBabel10082411353D

 45 56  0  0  0  0  0  0  0  0999 V2000
    8.0806    9.0240  -12.7589 C   0  0  0  0  0  0  0  0  0  0  0  0
    8.6514    7.8645  -12.2948 C   0  0  0  0  0  0  0  0  0  0  0  0
    9.9575    7.9974  -11.8426 C   0  0  0  0  0  0  0  0  0  0  0  0
   10.7657    6.8667  -11.6050 C   0  0  1  0  0  0  0  0  0  0  0  0
   10.7682    5.9590  -12.8271 C   0  0  0  0  0  0  0  0  0  0  0  0
   12.1553    7.3846  -11.2315 C   0  0  0  0  0  0  0  0  0  0  0  0
    8.0676    6.6451  -12.2974 C   0  0  0  0  0  0  0  0  0  0  0  0
   10.1892    6.1240  -10.3860 C   0  0  0  0  0  0  0  0  0  0  0  0
   11.8375    5.4373  -13.3240 O   0  0  0  0  0  0  0  0  0  0  0  0
    8.6785    5.4761  -13.0273 C   0  0  1  0  0  0  0  0  0  0  0  0
    9.1969    5.2405  -10.4969 C   0  0  2  0  0  0  0  0  0  0  0  0
    7.2213    6.2210  -11.3074 C   0  0  2  0  0  0  0  0  0  0  0  0
   12.5590    7.6872   -9.9896 C   0  0  0  0  0  0  0  0  0  0  0  0
    9.7633    5.0333  -12.9720 C   0  0  1  0  0  0  0  0  0  0  0  0
   10.0661    4.0167  -14.0373 N   0  0  0  0  0  0  0  0  0  0  0  0
   13.6906    8.3004   -9.6233 O   0  0  0  0  0  0  0  0  0  0  0  0
    7.6357    4.5123  -12.6317 C   0  0  2  0  0  0  0  0  0  0  0  0
    6.8831    4.9171  -11.7031 C   0  0  2  0  0  0  0  0  0  0  0  0
   10.5937    6.6967   -9.1779 C   0  0  0  0  0  0  0  0  0  0  0  0
    9.5087    4.3263  -11.6925 C   0  0  2  0  0  0  0  0  0  0  0  0
   11.6359    7.4449   -8.9125 C   0  0  0  0  0  0  0  0  0  0  0  0
   11.9716    7.9159   -7.6200 C   0  0  0  0  0  0  0  0  0  0  0  0
    8.4648    3.6122  -12.2840 C   0  0  1  0  0  0  0  0  0  0  0  0
    7.9253    2.8004  -11.3926 C   0  0  0  0  0  0  0  0  0  0  0  0
    5.6047    4.5059  -11.7589 C   0  0  0  0  0  0  0  0  0  0  0  0
    7.6606    4.1297  -10.5699 C   0  0  0  0  0  0  0  0  0  0  0  0
   10.9559    7.6849   -6.6057 C   0  0  0  0  0  0  0  0  0  0  0  0
    8.0094    4.5092   -9.5664 C   0  0  0  0  0  0  0  0  0  0  0  0
    8.3033    4.0627   -8.4980 C   0  0  0  0  0  0  0  0  0  0  0  0
    6.3587    7.1012  -11.0392 O   0  0  0  0  0  0  0  0  0  0  0  0
   11.0186    3.9598  -14.9226 C   0  0  0  0  0  0  0  0  0  0  0  0
    8.1758    5.8633  -10.2511 C   0  0  1  0  0  0  0  0  0  0  0  0
   11.4648    2.7104  -15.2650 O   0  0  0  0  0  0  0  0  0  0  0  0
    9.9512    6.8220   -6.8436 C   0  0  0  0  0  0  0  0  0  0  0  0
    9.6899    6.3705   -8.1082 C   0  0  2  0  0  0  0  0  0  0  0  0
   11.2597    8.2901   -5.2396 C   0  0  0  0  0  0  0  0  0  0  0  0
   11.7295    4.9426  -15.4284 O   0  0  0  0  0  0  0  0  0  0  0  0
    9.2745    4.9481   -7.8103 C   0  0  0  0  0  0  0  0  0  0  0  0
    9.1757    2.9301  -13.7559 C   0  0  0  0  0  0  0  0  0  0  0  0
   11.9187    7.5856   -4.3294 C   0  0  0  0  0  0  0  0  0  0  0  0
   11.7781    6.4587   -4.0864 C   0  0  0  0  0  0  0  0  0  0  0  0
   10.9546    9.6992   -5.1271 C   0  0  0  0  0  0  0  0  0  0  0  0
   11.3870   10.3465   -3.9551 C   0  0  0  0  0  0  0  0  0  0  0  0
   12.3560    8.4393   -3.0038 C   0  0  0  0  0  0  0  0  0  0  0  0
   12.0516    9.7280   -2.9117 C   0  0  0  0  0  0  0  0  0  0  0  0
  1  2  1  0  0  0  0
  2  3  1  0  0  0  0
  2  7  2  0  0  0  0
  4  3  1  6  0  0  0
  4  5  1  0  0  0  0
  4  6  1  0  0  0  0
  4  8  1  0  0  0  0
  5  9  2  0  0  0  0
  6 13  1  0  0  0  0
  7 12  1  0  0  0  0
  8 19  2  0  0  0  0
 10  7  1  1  0  0  0
 10 14  1  0  0  0  0
 10 17  1  0  0  0  0
 11  8  1  6  0  0  0
 11 20  1  0  0  0  0
 11 32  1  0  0  0  0
 12 18  1  0  0  0  0
 12 30  1  1  0  0  0
 12 32  1  0  0  0  0
 13 16  2  0  0  0  0
 13 21  1  0  0  0  0
 14  5  1  1  0  0  0
 14 15  1  0  0  0  0
 14 20  1  0  0  0  0
 15 31  1  0  0  0  0
 15 39  1  0  0  0  0
 17 18  1  0  0  0  0
 17 23  1  0  0  0  0
 18 25  1  0  0  0  0
 18 26  1  0  0  0  0
 19 21  1  0  0  0  0
 19 35  1  0  0  0  0
 20 23  1  0  0  0  0
 21 22  2  0  0  0  0
 22 27  1  0  0  0  0
 23 24  1  0  0  0  0
 23 39  1  0  0  0  0
 24 26  1  0  0  0  0
 26 28  2  0  0  0  0
 27 34  2  0  0  0  0
 27 36  1  0  0  0  0
 28 29  1  0  0  0  0
 28 32  1  0  0  0  0
 29 38  1  0  0  0  0
 31 33  2  0  0  0  0
 31 37  1  0  0  0  0
 34 35  1  0  0  0  0
 35 38  1  0  0  0  0
 36 40  1  0  0  0  0
 36 42  2  0  0  0  0
 40 41  2  0  0  0  0
 40 44  1  0  0  0  0
 42 43  1  0  0  0  0
 43 45  2  0  0  0  0
 44 45  1  0  0  0  0
M  END
$$$$

 OpenBabel10082411353D

 27 29  0  0  0  0  0  0  0  0999 V2000
   12.8881    8.7759   -3.5681 C   0  0  0  0  0  0  0  0  0  0  0  0
   11.9416    9.4732   -4.1220 C   0  0  0  0  0  0  0  0  0  0  0  0
   12.3556    7.6012   -2.6527 C   0  0  0  0  0  0  0  0  0  0  0  0
   11.8805    9.3400   -5.6557 C   0  0  0  0  0  0  0  0  0  0  0  0
   11.7716    6.5414   -3.3821 C   0  0  0  0  0  0  0  0  0  0  0  0
   10.8523    8.6585   -6.3310 C   0  0  0  0  0  0  0  0  0  0  0  0
   11.1142    8.2520   -7.7289 C   0  0  0  0  0  0  0  0  0  0  0  0
   10.0478    7.6568   -8.4887 C   0  0  0  0  0  0  0  0  0  0  0  0
   12.3648    8.4339   -8.3703 C   0  0  0  0  0  0  0  0  0  0  0  0
   12.6142    8.1352   -9.7322 C   0  0  0  0  0  0  0  0  0  0  0  0
   10.2852    7.3833   -9.9138 C   0  0  0  0  0  0  0  0  0  0  0  0
   11.5161    7.5808  -10.4860 C   0  0  0  0  0  0  0  0  0  0  0  0
   11.6641    7.2285  -11.8174 O   0  0  0  0  0  0  0  0  0  0  0  0
   10.8624    6.4419  -12.4395 C   0  0  0  0  0  0  0  0  0  0  0  0
   11.2693    5.8267  -13.4966 C   0  0  0  0  0  0  0  0  0  0  0  0
   10.3973    4.9870  -14.3057 C   0  0  0  0  0  0  0  0  0  0  0  0
   12.6295    5.9759  -14.0650 O   0  0  0  0  0  0  0  0  0  0  0  0
   10.8956    4.1934  -15.4489 C   0  0  0  0  0  0  0  0  0  0  0  0
    9.2617    4.6689  -13.8393 C   0  0  0  0  0  0  0  0  0  0  0  0
    9.1278    6.8012  -10.5958 C   0  0  0  0  0  0  0  0  0  0  0  0
    9.5642    6.1571  -11.9260 C   0  0  0  0  0  0  0  0  0  0  0  0
   12.7502    6.6186  -15.2675 C   0  0  0  0  0  0  0  0  0  0  0  0
    8.7679    5.3208  -12.5840 C   0  0  0  0  0  0  0  0  0  0  0  0
    7.2049    4.9098  -12.1268 C   0  0  0  0  0  0  0  0  0  0  0  0
    6.9690    3.7786  -12.3069 O   0  0  0  0  0  0  0  0  0  0  0  0
    6.2592    3.2464  -13.3198 C   0  0  0  0  0  0  0  0  0  0  0  0
   11.2238    2.8275  -15.2059 C   0  0  0  0  0  0  0  0  0  0  0  0
  1  2  1  0  0  0  0
  1  3  1  0  0  0  0
  2  4  1  0  0  0  0
  3  5  1  0  0  0  0
  4  6  1  0  0  0  0
  6  7  1  0  0  0  0
  7  8  1  0  0  0  0
  7  9  2  0  0  0  0
  8 11  2  0  0  0  0
  9 10  1  0  0  0  0
 10 12  2  0  0  0  0
 11 12  1  0  0  0  0
 11 20  1  0  0  0  0
 12 13  1  0  0  0  0
 13 14  1  0  0  0  0
 14 15  2  0  0  0  0
 14 21  1  0  0  0  0
 15 16  1  0  0  0  0
 15 17  1  0  0  0  0
 16 18  1  0  0  0  0
 16 19  2  0  0  0  0
 17 22  1  0  0  0  0
 18 27  1  0  0  0  0
 19 23  1  0  0  0  0
 20 21  1  0  0  0  0
 21 23  2  0  0  0  0
 23 24  1  0  0  0  0
 24 25  1  0  0  0  0
 25 26  1  0  0  0  0
M  END
$$$$

 OpenBabel10082411353D

 45 56  0  0  0  0  0  0  0  0999 V2000
    8.0806    9.0240  -12.7589 C   0  0  0  0  0  0  0  0  0  0  0  0
    8.6514    7.8645  -12.2948 C   0  0  0  0  0  0  0  0  0  0  0  0
    9.9575    7.9974  -11.8426 C   0  0  0  0  0  0  0  0  0  0  0  0
   10.7657    6.8667  -11.6050 C   0  0  1  0  0  0  0  0  0  0  0  0
   10.7682    5.9590  -12.8271 C   0  0  0  0  0  0  0  0  0  0  0  0
   12.1553    7.3846  -11.2315 C   0  0  0  0  0  0  0  0  0  0  0  0
    8.0676    6.6451  -12.2974 C   0  0  0  0  0  0  0  0  0  0  0  0
   10.1892    6.1240  -10.3860 C   0  0  0  0  0  0  0  0  0  0  0  0
   11.8375    5.4373  -13.3240 O   0  0  0  0  0  0  0  0  0  0  0  0
    8.6785    5.4761  -13.0273 C   0  0  1  0  0  0  0  0  0  0  0  0
    9.1969    5.2405  -10.4969 C   0  0  2  0  0  0  0  0  0  0  0  0
    7.2213    6.2210  -11.3074 C   0  0  2  0  0  0  0  0  0  0  0  0
   12.5590    7.6872   -9.9896 C   0  0  0  0  0  0  0  0  0  0  0  0
    9.7633    5.0333  -12.9720 C   0  0  1  0  0  0  0  0  0  0  0  0
   10.0661    4.0167  -14.0373 N   0  0  0  0  0  0  0  0  0  0  0  0
   13.6906    8.3004   -9.6233 O   0  0  0  0  0  0  0  0  0  0  0  0
    7.6357    4.5123  -12.6317 C   0  0  2  0  0  0  0  0  0  0  0  0
    6.8831    4.9171  -11.7031 C   0  0  2  0  0  0  0  0  0  0  0  0
   10.5937    6.6967   -9.1779 C   0  0  0  0  0  0  0  0  0  0  0  0
    9.5087    4.3263  -11.6925 C   0  0  2  0  0  0  0  0  0  0  0  0
   11.6359    7.4449   -8.9125 C   0  0  0  0  0  0  0  0  0  0  0  0
   11.9716    7.9159   -7.6200 C   0  0  0  0  0  0  0  0  0  0  0  0
    8.4648    3.6122  -12.2840 C   0  0  1  0  0  0  0  0  0  0  0  0
    7.9253    2.8004  -11.3926 C   0  0  0  0  0  0  0  0  0  0  0  0
    5.6047    4.5059  -11.7589 C   0  0  0  0  0  0  0  0  0  0  0  0
    7.6606    4.1297  -10.5699 C   0  0  0  0  0  0  0  0  0  0  0  0
   10.9559    7.6849   -6.6057 C   0  0  0  0  0  0  0  0  0  0  0  0
    8.0094    4.5092   -9.5664 C   0  0  0  0  0  0  0  0  0  0  0  0
    8.3033    4.0627   -8.4980 C   0  0  0  0  0  0  0  0  0  0  0  0
    6.3587    7.1012  -11.0392 O   0  0  0  0  0  0  0  0  0  0  0  0
   11.0186    3.9598  -14.9226 C   0  0  0  0  0  0  0  0  0  0  0  0
    8.1758    5.8633  -10.2511 C   0  0  1  0  0  0  0  0  0  0  0  0
   11.4648    2.7104  -15.2650 O   0  0  0  0  0  0  0  0  0  0  0  0
    9.9512    6.8220   -6.8436 C   0  0  0  0  0  0  0  0  0  0  0  0
    9.6899    6.3705   -8.1082 C   0  0  2  0  0  0  0  0  0  0  0  0
   11.2597    8.2901   -5.2396 C   0  0  0  0  0  0  0  0  0  0  0  0
   10.9483    4.9354  -15.8312 C   0  0  0  0  0  0  0  0  0  0  0  0
    9.2428    4.9682   -7.8294 C   0  0  0  0  0  0  0  0  0  0  0  0
   11.9211    7.5870   -4.3303 C   0  0  0  0  0  0  0  0  0  0  0  0
   10.9171    9.6712   -4.9168 C   0  0  0  0  0  0  0  0  0  0  0  0
   12.1622    8.4094   -3.0233 C   0  0  0  0  0  0  0  0  0  0  0  0
    9.2890    2.8435  -13.6353 C   0  0  0  0  0  0  0  0  0  0  0  0
   12.8852    7.4591   -1.9365 C   0  0  0  0  0  0  0  0  0  0  0  0
   11.6730    9.6697   -2.9933 C   0  0  0  0  0  0  0  0  0  0  0  0
   11.1553   10.2874   -3.9019 N   0  0  0  0  0  0  0  0  0  0  0  0
  1  2  1  0  0  0  0
  2  3  1  0  0  0  0
  2  7  2  0  0  0  0
  4  3  1  6  0  0  0
  4  5  1  0  0  0  0
  4  6  1  0  0  0  0
  4  8  1  0  0  0  0
  5  9  2  0  0  0  0
  6 13  1  0  0  0  0
  7 12  1  0  0  0  0
  8 19  2  0  0  0  0
 10  7  1  1  0  0  0
 10 14  1  0  0  0  0
 10 17  1  0  0  0  0
 11  8  1  6  0  0  0
 11 20  1  0  0  0  0
 11 32  1  0  0  0  0
 12 18  1  0  0  0  0
 12 30  1  1  0  0  0
 12 32  1  0  0  0  0
 13 16  2  0  0  0  0
 13 21  1  0  0  0  0
 14  5  1  1  0  0  0
 14 15  1  0  0  0  0
 14 20  1  0  0  0  0
 15 31  1  0  0  0  0
 15 42  1  0  0  0  0
 17 18  1  0  0  0  0
 17 23  1  0  0  0  0
 18 25  1  0  0  0  0
 18 26  1  0  0  0  0
 19 21  1  0  0  0  0
 19 35  1  0  0  0  0
 20 23  1  0  0  0  0
 21 22  2  0  0  0  0
 22 27  1  0  0  0  0
 23 24  1  0  0  0  0
 23 42  1  0  0  0  0
 24 26  1  0  0  0  0
 26 28  2  0  0  0  0
 27 34  2  0  0  0  0
 27 36  1  0  0  0  0
 28 29  1  0  0  0  0
 28 32  1  0  0  0  0
 29 38  1  0  0  0  0
 31 33  2  0  0  0  0
 31 37  1  0  0  0  0
 34 35  1  0  0  0  0
 35 38  1  0  0  0  0
 36 39  1  0  0  0  0
 36 40  2  0  0  0  0
 39 41  2  0  0  0  0
 40 45  1  0  0  0  0
 41 43  1  0  0  0  0
 41 44  1  0  0  0  0
 44 45  2  0  0  0  0
M  END
$$$$

 OpenBabel10082411353D

 45 57  0  0  0  0  0  0  0  0999 V2000
    8.0806    9.0240  -12.7589 C   0  0  0  0  0  0  0  0  0  0  0  0
    8.6514    7.8645  -12.2948 C   0  0  0  0  0  0  0  0  0  0  0  0
    9.9575    7.9974  -11.8426 C   0  0  0  0  0  0  0  0  0  0  0  0
   10.7657    6.8667  -11.6050 C   0  0  1  0  0  0  0  0  0  0  0  0
   10.7682    5.9590  -12.8271 C   0  0  0  0  0  0  0  0  0  0  0  0
   12.1553    7.3846  -11.2315 C   0  0  0  0  0  0  0  0  0  0  0  0
    8.0676    6.6451  -12.2974 C   0  0  0  0  0  0  0  0  0  0  0  0
   10.1892    6.1240  -10.3860 C   0  0  0  0  0  0  0  0  0  0  0  0
   11.8375    5.4373  -13.3240 O   0  0  0  0  0  0  0  0  0  0  0  0
    8.6785    5.4761  -13.0273 C   0  0  1  0  0  0  0  0  0  0  0  0
    9.1969    5.2405  -10.4969 C   0  0  2  0  0  0  0  0  0  0  0  0
    7.2213    6.2210  -11.3074 C   0  0  2  0  0  0  0  0  0  0  0  0
   12.5590    7.6872   -9.9896 C   0  0  0  0  0  0  0  0  0  0  0  0
    9.7633    5.0333  -12.9720 C   0  0  1  0  0  0  0  0  0  0  0  0
   10.0661    4.0167  -14.0373 N   0  0  0  0  0  0  0  0  0  0  0  0
   13.6906    8.3004   -9.6233 O   0  0  0  0  0  0  0  0  0  0  0  0
    7.6357    4.5123  -12.6317 C   0  0  2  0  0  0  0  0  0  0  0  0
    6.8831    4.9171  -11.7031 C   0  0  2  0  0  0  0  0  0  0  0  0
   10.5937    6.6967   -9.1779 C   0  0  0  0  0  0  0  0  0  0  0  0
    9.5087    4.3263  -11.6925 C   0  0  2  0  0  0  0  0  0  0  0  0
   11.6359    7.4449   -8.9125 C   0  0  0  0  0  0  0  0  0  0  0  0
   11.9716    7.9159   -7.6200 C   0  0  0  0  0  0  0  0  0  0  0  0
    8.4648    3.6122  -12.2840 C   0  0  1  0  0  0  0  0  0  0  0  0
    7.9253    2.8004  -11.3926 C   0  0  2  0  0  0  0  0  0  0  0  0
    5.6047    4.5059  -11.7589 C   0  0  0  0  0  0  0  0  0  0  0  0
    7.6606    4.1297  -10.5699 C   0  0  0  0  0  0  0  0  0  0  0  0
   10.9559    7.6849   -6.6057 C   0  0  0  0  0  0  0  0  0  0  0  0
    8.0094    4.5092   -9.5664 C   0  0  0  0  0  0  0  0  0  0  0  0
    8.3033    4.0627   -8.4980 C   0  0  0  0  0  0  0  0  0  0  0  0
    6.3587    7.1012  -11.0392 O   0  0  0  0  0  0  0  0  0  0  0  0
   11.0186    3.9598  -14.9226 C   0  0  0  0  0  0  0  0  0  0  0  0
    8.1758    5.8633  -10.2511 C   0  0  1  0  0  0  0  0  0  0  0  0
   11.4648    2.7104  -15.2650 O   0  0  0  0  0  0  0  0  0  0  0  0
    9.9512    6.8220   -6.8436 C   0  0  0  0  0  0  0  0  0  0  0  0
    9.6899    6.3705   -8.1082 C   0  0  2  0  0  0  0  0  0  0  0  0
    9.1306    2.9610  -13.9685 C   0  0  0  0  0  0  0  0  0  0  0  0
    8.8414    5.0113   -7.7726 C   0  0  0  0  0  0  0  0  0  0  0  0
   11.6944    4.9031  -15.4200 O   0  0  0  0  0  0  0  0  0  0  0  0
   11.2282    8.3639   -5.2721 C   0  0  0  0  0  0  0  0  0  0  0  0
    8.7016    2.4223  -12.9165 C   0  0  1  0  0  0  0  0  0  0  0  0
   11.9286    7.6722   -4.3404 C   0  0  0  0  0  0  0  0  0  0  0  0
   10.7972    9.7001   -4.9421 C   0  0  0  0  0  0  0  0  0  0  0  0
   12.1696    8.4917   -3.0630 C   0  0  0  0  0  0  0  0  0  0  0  0
   11.1053   10.3384   -3.8617 N   0  0  0  0  0  0  0  0  0  0  0  0
   11.6944    9.8632   -2.9386 C   0  0  0  0  0  0  0  0  0  0  0  0
  1  2  1  0  0  0  0
  2  3  1  0  0  0  0
  2  7  2  0  0  0  0
  4  3  1  6  0  0  0
  4  5  1  0  0  0  0
  4  6  1  0  0  0  0
  4  8  1  0  0  0  0
  5  9  2  0  0  0  0
  6 13  1  0  0  0  0
  7 12  1  0  0  0  0
  8 19  2  0  0  0  0
 10  7  1  1  0  0  0
 10 14  1  0  0  0  0
 10 17  1  0  0  0  0
 11  8  1  6  0  0  0
 11 20  1  0  0  0  0
 11 32  1  0  0  0  0
 12 18  1  0  0  0  0
 12 30  1  1  0  0  0
 12 32  1  0  0  0  0
 13 16  2  0  0  0  0
 13 21  1  0  0  0  0
 14  5  1  1  0  0  0
 14 15  1  0  0  0  0
 14 20  1  0  0  0  0
 15 31  1  0  0  0  0
 15 36  1  0  0  0  0
 17 18  1  0  0  0  0
 17 23  1  0  0  0  0
 18 25  1  0  0  0  0
 18 26  1  0  0  0  0
 19 21  1  0  0  0  0
 19 35  1  0  0  0  0
 20 23  1  0  0  0  0
 21 22  2  0  0  0  0
 22 27  1  0  0  0  0
 23 24  1  0  0  0  0
 23 40  1  0  0  0  0
 24 26  1  0  0  0  0
 24 40  1  0  0  0  0
 26 28  2  0  0  0  0
 27 34  2  0  0  0  0
 27 39  1  0  0  0  0
 28 29  1  0  0  0  0
 28 32  1  0  0  0  0
 29 37  2  0  0  0  0
 31 33  2  0  0  0  0
 31 38  1  0  0  0  0
 34 35  1  0  0  0  0
 35 37  1  0  0  0  0
 36 40  1  0  0  0  0
 39 41  1  0  0  0  0
 39 42  2  0  0  0  0
 41 43  2  0  0  0  0
 42 44  1  0  0  0  0
 43 45  1  0  0  0  0
 44 45  2  0  0  0  0
M  END
$$$$

 OpenBabel10082411353D

 45 57  0  0  0  0  0  0  0  0999 V2000
    8.0806    9.0240  -12.7589 C   0  0  0  0  0  0  0  0  0  0  0  0
    8.6514    7.8645  -12.2948 C   0  0  0  0  0  0  0  0  0  0  0  0
    9.9575    7.9974  -11.8426 C   0  0  0  0  0  0  0  0  0  0  0  0
   10.7657    6.8667  -11.6050 C   0  0  1  0  0  0  0  0  0  0  0  0
   10.7682    5.9590  -12.8271 C   0  0  0  0  0  0  0  0  0  0  0  0
   12.1553    7.3846  -11.2315 C   0  0  0  0  0  0  0  0  0  0  0  0
    8.0676    6.6451  -12.2974 C   0  0  0  0  0  0  0  0  0  0  0  0
   10.1892    6.1240  -10.3860 C   0  0  0  0  0  0  0  0  0  0  0  0
   11.8375    5.4373  -13.3240 O   0  0  0  0  0  0  0  0  0  0  0  0
    8.6785    5.4761  -13.0273 C   0  0  1  0  0  0  0  0  0  0  0  0
    9.1969    5.2405  -10.4969 C   0  0  2  0  0  0  0  0  0  0  0  0
    7.2213    6.2210  -11.3074 C   0  0  2  0  0  0  0  0  0  0  0  0
   12.5590    7.6872   -9.9896 C   0  0  0  0  0  0  0  0  0  0  0  0
    9.7633    5.0333  -12.9720 C   0  0  1  0  0  0  0  0  0  0  0  0
   10.0661    4.0167  -14.0373 N   0  0  0  0  0  0  0  0  0  0  0  0
   13.6906    8.3004   -9.6233 O   0  0  0  0  0  0  0  0  0  0  0  0
    7.6357    4.5123  -12.6317 C   0  0  2  0  0  0  0  0  0  0  0  0
    6.8831    4.9171  -11.7031 C   0  0  2  0  0  0  0  0  0  0  0  0
   10.5937    6.6967   -9.1779 C   0  0  0  0  0  0  0  0  0  0  0  0
    9.5087    4.3263  -11.6925 C   0  0  2  0  0  0  0  0  0  0  0  0
   11.6359    7.4449   -8.9125 C   0  0  0  0  0  0  0  0  0  0  0  0
   11.9716    7.9159   -7.6200 C   0  0  0  0  0  0  0  0  0  0  0  0
    8.4648    3.6122  -12.2840 C   0  0  1  0  0  0  0  0  0  0  0  0
    7.9253    2.8004  -11.3926 C   0  0  2  0  0  0  0  0  0  0  0  0
    5.6047    4.5059  -11.7589 C   0  0  0  0  0  0  0  0  0  0  0  0
    7.6606    4.1297  -10.5699 C   0  0  0  0  0  0  0  0  0  0  0  0
   10.9559    7.6849   -6.6057 C   0  0  0  0  0  0  0  0  0  0  0  0
    8.0094    4.5092   -9.5664 C   0  0  0  0  0  0  0  0  0  0  0  0
    8.3033    4.0627   -8.4980 C   0  0  0  0  0  0  0  0  0  0  0  0
    6.3587    7.1012  -11.0392 O   0  0  0  0  0  0  0  0  0  0  0  0
   11.0186    3.9598  -14.9226 C   0  0  0  0  0  0  0  0  0  0  0  0
    8.1758    5.8633  -10.2511 C   0  0  1  0  0  0  0  0  0  0  0  0
   11.4648    2.7104  -15.2650 O   0  0  0  0  0  0  0  0  0  0  0  0
    9.9512    6.8220   -6.8436 C   0  0  0  0  0  0  0  0  0  0  0  0
    9.6899    6.3705   -8.1082 C   0  0  2  0  0  0  0  0  0  0  0  0
    9.1306    2.9610  -13.9685 C   0  0  0  0  0  0  0  0  0  0  0  0
    8.8414    5.0113   -7.7726 C   0  0  0  0  0  0  0  0  0  0  0  0
   11.0996    4.8769  -15.8101 O   0  0  0  0  0  0  0  0  0  0  0  0
   11.2285    8.3650   -5.2735 C   0  0  1  0  0  0  0  0  0  0  0  0
    8.6761    2.4330  -12.9285 C   0  0  1  0  0  0  0  0  0  0  0  0
   11.8773    7.7002   -4.3487 C   0  0  2  0  0  0  0  0  0  0  0  0
   12.0468    9.7005   -5.5489 C   0  0  0  0  0  0  0  0  0  0  0  0
   12.9973    9.7239   -4.3348 C   0  0  0  0  0  0  0  0  0  0  0  0
   11.1765    6.6898   -3.5373 C   0  0  0  0  0  0  0  0  0  0  0  0
   12.5371    8.4989   -3.6248 C   0  0  0  0  0  0  0  0  0  0  0  0
  1  2  1  0  0  0  0
  2  3  1  0  0  0  0
  2  7  2  0  0  0  0
  4  3  1  6  0  0  0
  4  5  1  0  0  0  0
  4  6  1  0  0  0  0
  4  8  1  0  0  0  0
  5  9  2  0  0  0  0
  6 13  1  0  0  0  0
  7 12  1  0  0  0  0
  8 19  2  0  0  0  0
 10  7  1  1  0  0  0
 10 14  1  0  0  0  0
 10 17  1  0  0  0  0
 11  8  1  6  0  0  0
 11 20  1  0  0  0  0
 11 32  1  0  0  0  0
 12 18  1  0  0  0  0
 12 30  1  1  0  0  0
 12 32  1  0  0  0  0
 13 16  2  0  0  0  0
 13 21  1  0  0  0  0
 14  5  1  1  0  0  0
 14 15  1  0  0  0  0
 14 20  1  0  0  0  0
 15 31  1  0  0  0  0
 15 36  1  0  0  0  0
 17 18  1  0  0  0  0
 17 23  1  0  0  0  0
 18 25  1  0  0  0  0
 18 26  1  0  0  0  0
 19 21  1  0  0  0  0
 19 35  1  0  0  0  0
 20 23  1  0  0  0  0
 21 22  2  0  0  0  0
 22 27  1  0  0  0  0
 23 24  1  0  0  0  0
 23 40  1  0  0  0  0
 24 26  1  0  0  0  0
 24 40  1  0  0  0  0
 26 28  2  0  0  0  0
 27 34  2  0  0  0  0
 27 39  1  0  0  0  0
 28 29  1  0  0  0  0
 28 32  1  0  0  0  0
 29 37  2  0  0  0  0
 31 33  2  0  0  0  0
 31 38  1  0  0  0  0
 34 35  1  0  0  0  0
 35 37  1  0  0  0  0
 36 40  1  0  0  0  0
 39 41  1  0  0  0  0
 39 42  1  0  0  0  0
 41 44  1  0  0  0  0
 41 45  1  0  0  0  0
 42 43  1  0  0  0  0
 43 45  1  0  0  0  0
M  END
$$$$

 OpenBabel10082411353D

 45 56  0  0  0  0  0  0  0  0999 V2000
    8.0806    9.0240  -12.7589 C   0  0  0  0  0  0  0  0  0  0  0  0
    8.6514    7.8645  -12.2948 C   0  0  0  0  0  0  0  0  0  0  0  0
    9.9575    7.9974  -11.8426 C   0  0  0  0  0  0  0  0  0  0  0  0
   10.7657    6.8667  -11.6050 C   0  0  1  0  0  0  0  0  0  0  0  0
   10.7682    5.9590  -12.8271 C   0  0  0  0  0  0  0  0  0  0  0  0
   12.1553    7.3846  -11.2315 C   0  0  0  0  0  0  0  0  0  0  0  0
    8.0676    6.6451  -12.2974 C   0  0  0  0  0  0  0  0  0  0  0  0
   10.1892    6.1240  -10.3860 C   0  0  0  0  0  0  0  0  0  0  0  0
   11.8375    5.4373  -13.3240 O   0  0  0  0  0  0  0  0  0  0  0  0
    8.6785    5.4761  -13.0273 C   0  0  1  0  0  0  0  0  0  0  0  0
    9.1969    5.2405  -10.4969 C   0  0  2  0  0  0  0  0  0  0  0  0
    7.2213    6.2210  -11.3074 C   0  0  2  0  0  0  0  0  0  0  0  0
   12.5590    7.6872   -9.9896 C   0  0  0  0  0  0  0  0  0  0  0  0
    9.7633    5.0333  -12.9720 C   0  0  1  0  0  0  0  0  0  0  0  0
   10.0661    4.0167  -14.0373 N   0  0  0  0  0  0  0  0  0  0  0  0
   13.6906    8.3004   -9.6233 O   0  0  0  0  0  0  0  0  0  0  0  0
    7.6357    4.5123  -12.6317 C   0  0  2  0  0  0  0  0  0  0  0  0
    6.8831    4.9171  -11.7031 C   0  0  2  0  0  0  0  0  0  0  0  0
   10.5937    6.6967   -9.1779 C   0  0  0  0  0  0  0  0  0  0  0  0
    9.5087    4.3263  -11.6925 C   0  0  2  0  0  0  0  0  0  0  0  0
   11.6359    7.4449   -8.9125 C   0  0  0  0  0  0  0  0  0  0  0  0
   11.9716    7.9159   -7.6200 C   0  0  0  0  0  0  0  0  0  0  0  0
    8.4648    3.6122  -12.2840 C   0  0  1  0  0  0  0  0  0  0  0  0
    7.9253    2.8004  -11.3926 C   0  0  0  0  0  0  0  0  0  0  0  0
    5.6047    4.5059  -11.7589 C   0  0  0  0  0  0  0  0  0  0  0  0
    7.6606    4.1297  -10.5699 C   0  0  0  0  0  0  0  0  0  0  0  0
   10.9559    7.6849   -6.6057 C   0  0  0  0  0  0  0  0  0  0  0  0
    8.0094    4.5092   -9.5664 C   0  0  0  0  0  0  0  0  0  0  0  0
    8.3033    4.0627   -8.4980 C   0  0  0  0  0  0  0  0  0  0  0  0
    6.3587    7.1012  -11.0392 O   0  0  0  0  0  0  0  0  0  0  0  0
   11.0186    3.9598  -14.9226 C   0  0  0  0  0  0  0  0  0  0  0  0
    8.1758    5.8633  -10.2511 C   0  0  1  0  0  0  0  0  0  0  0  0
   11.4648    2.7104  -15.2650 O   0  0  0  0  0  0  0  0  0  0  0  0
    9.9512    6.8220   -6.8436 C   0  0  0  0  0  0  0  0  0  0  0  0
    9.6899    6.3705   -8.1082 C   0  0  2  0  0  0  0  0  0  0  0  0
   11.2597    8.2901   -5.2396 C   0  0  0  0  0  0  0  0  0  0  0  0
   11.6068    9.7354   -5.2006 C   0  0  1  0  0  0  0  0  0  0  0  0
    9.4261    2.7718  -13.6670 C   0  0  0  0  0  0  0  0  0  0  0  0
    9.1568    5.0346   -7.7426 C   0  0  0  0  0  0  0  0  0  0  0  0
   11.2083    4.9304  -15.6781 O   0  0  0  0  0  0  0  0  0  0  0  0
   11.3723    7.7138   -4.0322 C   0  0  0  0  0  0  0  0  0  0  0  0
   11.4531   10.6045   -6.4008 C   0  0  0  0  0  0  0  0  0  0  0  0
   11.1721    6.2503   -3.9429 C   0  0  0  0  0  0  0  0  0  0  0  0
   11.7581    8.6450   -2.9697 C   0  0  0  0  0  0  0  0  0  0  0  0
   11.8570    9.9864   -3.6728 C   0  0  0  0  0  0  0  0  0  0  0  0
  1  2  1  0  0  0  0
  2  3  1  0  0  0  0
  2  7  2  0  0  0  0
  4  3  1  6  0  0  0
  4  5  1  0  0  0  0
  4  6  1  0  0  0  0
  4  8  1  0  0  0  0
  5  9  2  0  0  0  0
  6 13  1  0  0  0  0
  7 12  1  0  0  0  0
  8 19  2  0  0  0  0
 10  7  1  1  0  0  0
 10 14  1  0  0  0  0
 10 17  1  0  0  0  0
 11  8  1  6  0  0  0
 11 20  1  0  0  0  0
 11 32  1  0  0  0  0
 12 18  1  0  0  0  0
 12 30  1  1  0  0  0
 12 32  1  0  0  0  0
 13 16  2  0  0  0  0
 13 21  1  0  0  0  0
 14  5  1  1  0  0  0
 14 15  1  0  0  0  0
 14 20  1  0  0  0  0
 15 31  1  0  0  0  0
 15 38  1  0  0  0  0
 17 18  1  0  0  0  0
 17 23  1  0  0  0  0
 18 25  1  0  0  0  0
 18 26  1  0  0  0  0
 19 21  1  0  0  0  0
 19 35  1  0  0  0  0
 20 23  1  0  0  0  0
 21 22  2  0  0  0  0
 22 27  1  0  0  0  0
 23 24  1  0  0  0  0
 23 38  1  0  0  0  0
 24 26  1  0  0  0  0
 26 28  2  0  0  0  0
 27 34  2  0  0  0  0
 27 36  1  0  0  0  0
 28 29  1  0  0  0  0
 28 32  1  0  0  0  0
 29 39  1  0  0  0  0
 31 33  2  0  0  0  0
 31 40  1  0  0  0  0
 34 35  1  0  0  0  0
 35 39  1  0  0  0  0
 36 37  1  0  0  0  0
 36 41  2  0  0  0  0
 37 42  1  0  0  0  0
 37 45  1  0  0  0  0
 41 43  1  0  0  0  0
 41 44  1  0  0  0  0
 44 45  2  0  0  0  0
M  END
$$$$

 OpenBabel10082411353D

 45 51  0  0  0  0  0  0  0  0999 V2000
   11.6836    6.0105   -4.8831 F   0  0  0  0  0  0  0  0  0  0  0  0
   11.2562    7.2206   -5.0294 C   0  0  0  0  0  0  0  0  0  0  0  0
   12.0125    8.2418   -4.4408 C   0  0  0  0  0  0  0  0  0  0  0  0
   11.1918    7.2706   -6.5237 C   0  0  0  0  0  0  0  0  0  0  0  0
   11.6999    8.4488   -3.1704 F   0  0  0  0  0  0  0  0  0  0  0  0
    9.8648    7.0908   -4.5314 F   0  0  0  0  0  0  0  0  0  0  0  0
   11.6831    8.5291   -6.9682 C   0  0  0  0  0  0  0  0  0  0  0  0
   10.4785    6.5189   -7.4033 C   0  0  0  0  0  0  0  0  0  0  0  0
   11.6979    8.6661   -8.4760 C   0  0  0  0  0  0  0  0  0  0  0  0
   11.6248    9.5853   -5.0030 C   0  0  0  0  0  0  0  0  0  0  0  0
   11.8604    9.7907   -6.2903 O   0  0  0  0  0  0  0  0  0  0  0  0
   13.3557    8.1748   -4.5947 F   0  0  0  0  0  0  0  0  0  0  0  0
   10.5427    6.6061   -8.7190 C   0  0  0  0  0  0  0  0  0  0  0  0
   11.1158    7.7103   -9.2540 C   0  0  0  0  0  0  0  0  0  0  0  0
   11.3757    7.6656  -10.5293 N   0  0  0  0  0  0  0  0  0  0  0  0
   10.7153    7.7096  -11.5405 C   0  0  0  0  0  0  0  0  0  0  0  0
   11.2483    7.4711  -12.8542 C   0  0  0  0  0  0  0  0  0  0  0  0
    9.3980    7.7820  -11.5398 C   0  0  0  0  0  0  0  0  0  0  0  0
    8.6055    7.5889  -12.6525 C   0  0  0  0  0  0  0  0  0  0  0  0
   12.7508    7.3705  -13.0162 O   0  0  0  0  0  0  0  0  0  0  0  0
   10.5299    7.1831  -13.9856 C   0  0  0  0  0  0  0  0  0  0  0  0
    7.0533    7.7371  -12.5396 C   0  0  0  0  0  0  0  0  0  0  0  0
   11.2041    6.8490  -15.2304 C   0  0  0  0  0  0  0  0  0  0  0  0
   11.6393    5.5333  -15.3864 C   0  0  0  0  0  0  0  0  0  0  0  0
    9.1955    7.2935  -13.8301 C   0  0  0  0  0  0  0  0  0  0  0  0
   12.5294    5.1116  -16.1609 C   0  0  0  0  0  0  0  0  0  0  0  0
   11.2315    4.4703  -14.3200 C   0  0  0  0  0  0  0  0  0  0  0  0
   10.2844    4.5821  -13.3000 C   0  0  0  0  0  0  0  0  0  0  0  0
   11.6270    3.1866  -14.6052 C   0  0  0  0  0  0  0  0  0  0  0  0
    9.0868    3.8289  -13.3080 C   0  0  0  0  0  0  0  0  0  0  0  0
   11.3420    2.7039  -15.8535 C   0  0  0  0  0  0  0  0  0  0  0  0
    8.3582    4.0400  -12.0395 C   0  0  0  0  0  0  0  0  0  0  0  0
   13.0053    6.2224  -17.1322 C   0  0  0  0  0  0  0  0  0  0  0  0
   12.3338    3.1792  -16.8738 C   0  0  0  0  0  0  0  0  0  0  0  0
   12.9709    3.9849  -16.5221 O   0  0  0  0  0  0  0  0  0  0  0  0
    6.9893    3.6862  -12.1936 C   0  0  0  0  0  0  0  0  0  0  0  0
    6.0529    4.0659  -11.1662 F   0  0  0  0  0  0  0  0  0  0  0  0
   12.3817    7.3820  -16.9825 C   0  0  0  0  0  0  0  0  0  0  0  0
    8.7716    2.9048  -14.2648 C   0  0  0  0  0  0  0  0  0  0  0  0
   11.5872    7.7310  -15.9717 C   0  0  0  0  0  0  0  0  0  0  0  0
    6.5449    2.8111  -13.1790 C   0  0  0  0  0  0  0  0  0  0  0  0
    7.4673    2.4415  -14.1780 C   0  0  0  0  0  0  0  0  0  0  0  0
    7.4249    1.6869  -15.0960 N   0  0  0  0  0  0  0  0  0  0  0  0
    9.3118    2.3444  -15.0562 N   0  0  0  0  0  0  0  0  0  0  0  0
    8.5379    1.6054  -15.7236 N   0  0  0  0  0  0  0  0  0  0  0  0
  1  2  1  0  0  0  0
  2  3  1  0  0  0  0
  2  4  1  0  0  0  0
  2  6  1  0  0  0  0
  3  5  1  0  0  0  0
  3 10  1  0  0  0  0
  3 12  1  0  0  0  0
  4  7  1  0  0  0  0
  4  8  2  0  0  0  0
  7  9  2  0  0  0  0
  7 11  1  0  0  0  0
  8 13  1  0  0  0  0
  9 14  1  0  0  0  0
 10 11  1  0  0  0  0
 13 14  2  0  0  0  0
 14 15  1  0  0  0  0
 15 16  1  0  0  0  0
 16 17  1  0  0  0  0
 16 18  2  0  0  0  0
 17 20  1  0  0  0  0
 17 21  2  0  0  0  0
 18 19  1  0  0  0  0
 19 22  1  0  0  0  0
 19 25  2  0  0  0  0
 21 23  1  0  0  0  0
 21 25  1  0  0  0  0
 23 24  1  0  0  0  0
 23 40  2  0  0  0  0
 24 26  2  0  0  0  0
 24 27  1  0  0  0  0
 26 33  1  0  0  0  0
 26 35  1  0  0  0  0
 27 28  1  0  0  0  0
 27 29  2  0  0  0  0
 28 30  2  3  0  0  0
 29 31  1  0  0  0  0
 30 32  1  0  0  0  0
 30 39  1  0  0  0  0
 31 34  1  0  0  0  0
 32 36  2  0  0  0  0
 33 38  2  0  0  0  0
 34 35  1  0  0  0  0
 36 37  1  0  0  0  0
 36 41  1  0  0  0  0
 38 40  1  0  0  0  0
 39 42  1  0  0  0  0
 39 44  2  0  0  0  0
 41 42  1  0  0  0  0
 42 43  2  0  0  0  0
 43 45  1  0  0  0  0
 44 45  1  0  0  0  0
M  END
$$$$

 OpenBabel10082411353D

 45 56  0  0  0  0  0  0  0  0999 V2000
    8.0806    9.0240  -12.7589 C   0  0  0  0  0  0  0  0  0  0  0  0
    8.6514    7.8645  -12.2948 C   0  0  0  0  0  0  0  0  0  0  0  0
    9.9575    7.9974  -11.8426 C   0  0  0  0  0  0  0  0  0  0  0  0
   10.7657    6.8667  -11.6050 C   0  0  1  0  0  0  0  0  0  0  0  0
   10.7682    5.9590  -12.8271 C   0  0  0  0  0  0  0  0  0  0  0  0
   12.1553    7.3846  -11.2315 C   0  0  0  0  0  0  0  0  0  0  0  0
    8.0676    6.6451  -12.2974 C   0  0  0  0  0  0  0  0  0  0  0  0
   10.1892    6.1240  -10.3860 C   0  0  0  0  0  0  0  0  0  0  0  0
   11.8375    5.4373  -13.3240 O   0  0  0  0  0  0  0  0  0  0  0  0
    8.6785    5.4761  -13.0273 C   0  0  1  0  0  0  0  0  0  0  0  0
    9.1969    5.2405  -10.4969 C   0  0  2  0  0  0  0  0  0  0  0  0
    7.2213    6.2210  -11.3074 C   0  0  2  0  0  0  0  0  0  0  0  0
   12.5590    7.6872   -9.9896 C   0  0  0  0  0  0  0  0  0  0  0  0
    9.7633    5.0333  -12.9720 C   0  0  1  0  0  0  0  0  0  0  0  0
   10.0661    4.0167  -14.0373 N   0  0  0  0  0  0  0  0  0  0  0  0
   13.6906    8.3004   -9.6233 O   0  0  0  0  0  0  0  0  0  0  0  0
    7.6357    4.5123  -12.6317 C   0  0  2  0  0  0  0  0  0  0  0  0
    6.8831    4.9171  -11.7031 C   0  0  2  0  0  0  0  0  0  0  0  0
   10.5937    6.6967   -9.1779 C   0  0  0  0  0  0  0  0  0  0  0  0
    9.5087    4.3263  -11.6925 C   0  0  2  0  0  0  0  0  0  0  0  0
   11.6359    7.4449   -8.9125 C   0  0  0  0  0  0  0  0  0  0  0  0
   11.9716    7.9159   -7.6200 C   0  0  0  0  0  0  0  0  0  0  0  0
    8.4648    3.6122  -12.2840 C   0  0  1  0  0  0  0  0  0  0  0  0
    7.9253    2.8004  -11.3926 C   0  0  0  0  0  0  0  0  0  0  0  0
    5.6047    4.5059  -11.7589 C   0  0  0  0  0  0  0  0  0  0  0  0
    7.6606    4.1297  -10.5699 C   0  0  0  0  0  0  0  0  0  0  0  0
   10.9559    7.6849   -6.6057 C   0  0  0  0  0  0  0  0  0  0  0  0
    8.0094    4.5092   -9.5664 C   0  0  0  0  0  0  0  0  0  0  0  0
    8.3033    4.0627   -8.4980 C   0  0  0  0  0  0  0  0  0  0  0  0
    6.3587    7.1012  -11.0392 O   0  0  0  0  0  0  0  0  0  0  0  0
   11.0186    3.9598  -14.9226 C   0  0  0  0  0  0  0  0  0  0  0  0
    8.1758    5.8633  -10.2511 C   0  0  1  0  0  0  0  0  0  0  0  0
   11.4648    2.7104  -15.2650 O   0  0  0  0  0  0  0  0  0  0  0  0
    9.9512    6.8220   -6.8436 C   0  0  0  0  0  0  0  0  0  0  0  0
    9.6899    6.3705   -8.1082 C   0  0  2  0  0  0  0  0  0  0  0  0
   11.2597    8.2901   -5.2396 C   0  0  0  0  0  0  0  0  0  0  0  0
   11.7295    4.9426  -15.4284 O   0  0  0  0  0  0  0  0  0  0  0  0
    9.0704    4.8312   -7.8318 C   0  0  0  0  0  0  0  0  0  0  0  0
    9.2457    2.8662  -13.7297 C   0  0  0  0  0  0  0  0  0  0  0  0
   11.9322    7.5886   -4.3410 C   0  0  0  0  0  0  0  0  0  0  0  0
   12.3837    8.1911   -3.0498 C   0  0  0  0  0  0  0  0  0  0  0  0
   12.1266    6.2088   -4.4269 C   0  0  0  0  0  0  0  0  0  0  0  0
   10.8614    9.6241   -4.9952 C   0  0  0  0  0  0  0  0  0  0  0  0
   11.9506    9.5908   -2.8401 C   0  0  0  0  0  0  0  0  0  0  0  0
   11.2914   10.2526   -3.8250 C   0  0  0  0  0  0  0  0  0  0  0  0
  1  2  1  0  0  0  0
  2  3  1  0  0  0  0
  2  7  2  0  0  0  0
  4  3  1  6  0  0  0
  4  5  1  0  0  0  0
  4  6  1  0  0  0  0
  4  8  1  0  0  0  0
  5  9  2  0  0  0  0
  6 13  1  0  0  0  0
  7 12  1  0  0  0  0
  8 19  2  0  0  0  0
 10  7  1  1  0  0  0
 10 14  1  0  0  0  0
 10 17  1  0  0  0  0
 11  8  1  6  0  0  0
 11 20  1  0  0  0  0
 11 32  1  0  0  0  0
 12 18  1  0  0  0  0
 12 30  1  1  0  0  0
 12 32  1  0  0  0  0
 13 16  2  0  0  0  0
 13 21  1  0  0  0  0
 14  5  1  1  0  0  0
 14 15  1  0  0  0  0
 14 20  1  0  0  0  0
 15 31  1  0  0  0  0
 15 39  1  0  0  0  0
 17 18  1  0  0  0  0
 17 23  1  0  0  0  0
 18 25  1  0  0  0  0
 18 26  1  0  0  0  0
 19 21  1  0  0  0  0
 19 35  1  0  0  0  0
 20 23  1  0  0  0  0
 21 22  2  0  0  0  0
 22 27  1  0  0  0  0
 23 24  1  0  0  0  0
 23 39  1  0  0  0  0
 24 26  1  0  0  0  0
 26 28  2  0  0  0  0
 27 34  2  0  0  0  0
 27 36  1  0  0  0  0
 28 29  1  0  0  0  0
 28 32  1  0  0  0  0
 29 38  2  0  0  0  0
 31 33  2  0  0  0  0
 31 37  1  0  0  0  0
 34 35  1  0  0  0  0
 35 38  1  0  0  0  0
 36 40  1  0  0  0  0
 36 43  2  0  0  0  0
 40 41  1  0  0  0  0
 40 42  2  0  0  0  0
 41 44  2  0  0  0  0
 43 45  1  0  0  0  0
 44 45  1  0  0  0  0
M  END
$$$$

 OpenBabel10082411353D

 45 56  0  0  0  0  0  0  0  0999 V2000
    8.0806    9.0240  -12.7589 C   0  0  0  0  0  0  0  0  0  0  0  0
    8.6514    7.8645  -12.2948 C   0  0  0  0  0  0  0  0  0  0  0  0
    9.9575    7.9974  -11.8426 C   0  0  0  0  0  0  0  0  0  0  0  0
   10.7657    6.8667  -11.6050 C   0  0  1  0  0  0  0  0  0  0  0  0
   10.7682    5.9590  -12.8271 C   0  0  0  0  0  0  0  0  0  0  0  0
   12.1553    7.3846  -11.2315 C   0  0  0  0  0  0  0  0  0  0  0  0
    8.0676    6.6451  -12.2974 C   0  0  0  0  0  0  0  0  0  0  0  0
   10.1892    6.1240  -10.3860 C   0  0  0  0  0  0  0  0  0  0  0  0
   11.8375    5.4373  -13.3240 O   0  0  0  0  0  0  0  0  0  0  0  0
    8.6785    5.4761  -13.0273 C   0  0  1  0  0  0  0  0  0  0  0  0
    9.1969    5.2405  -10.4969 C   0  0  2  0  0  0  0  0  0  0  0  0
    7.2213    6.2210  -11.3074 C   0  0  2  0  0  0  0  0  0  0  0  0
   12.5590    7.6872   -9.9896 C   0  0  0  0  0  0  0  0  0  0  0  0
    9.7633    5.0333  -12.9720 C   0  0  1  0  0  0  0  0  0  0  0  0
   10.0661    4.0167  -14.0373 N   0  0  0  0  0  0  0  0  0  0  0  0
   13.6906    8.3004   -9.6233 O   0  0  0  0  0  0  0  0  0  0  0  0
    7.6357    4.5123  -12.6317 C   0  0  2  0  0  0  0  0  0  0  0  0
    6.8831    4.9171  -11.7031 C   0  0  2  0  0  0  0  0  0  0  0  0
   10.5937    6.6967   -9.1779 C   0  0  0  0  0  0  0  0  0  0  0  0
    9.5087    4.3263  -11.6925 C   0  0  2  0  0  0  0  0  0  0  0  0
   11.6359    7.4449   -8.9125 C   0  0  0  0  0  0  0  0  0  0  0  0
   11.9716    7.9159   -7.6200 C   0  0  0  0  0  0  0  0  0  0  0  0
    8.4648    3.6122  -12.2840 C   0  0  1  0  0  0  0  0  0  0  0  0
    7.9253    2.8004  -11.3926 C   0  0  0  0  0  0  0  0  0  0  0  0
    5.6047    4.5059  -11.7589 C   0  0  0  0  0  0  0  0  0  0  0  0
    7.6606    4.1297  -10.5699 C   0  0  0  0  0  0  0  0  0  0  0  0
   10.9559    7.6849   -6.6057 C   0  0  0  0  0  0  0  0  0  0  0  0
    8.0094    4.5092   -9.5664 C   0  0  0  0  0  0  0  0  0  0  0  0
    8.3033    4.0627   -8.4980 C   0  0  0  0  0  0  0  0  0  0  0  0
    6.3587    7.1012  -11.0392 O   0  0  0  0  0  0  0  0  0  0  0  0
   11.0186    3.9598  -14.9226 C   0  0  0  0  0  0  0  0  0  0  0  0
    8.1758    5.8633  -10.2511 C   0  0  1  0  0  0  0  0  0  0  0  0
   11.4648    2.7104  -15.2650 O   0  0  0  0  0  0  0  0  0  0  0  0
    9.9512    6.8220   -6.8436 C   0  0  0  0  0  0  0  0  0  0  0  0
    9.6899    6.3705   -8.1082 C   0  0  2  0  0  0  0  0  0  0  0  0
   11.2597    8.2901   -5.2396 C   0  0  0  0  0  0  0  0  0  0  0  0
   11.6068    9.7354   -5.2006 C   0  0  0  0  0  0  0  0  0  0  0  0
   10.9469    4.9352  -15.8306 C   0  0  0  0  0  0  0  0  0  0  0  0
    9.2417    4.9555   -7.8256 C   0  0  0  0  0  0  0  0  0  0  0  0
   11.3657    7.7043   -4.0379 C   0  0  0  0  0  0  0  0  0  0  0  0
    9.3036    2.8311  -13.6285 C   0  0  0  0  0  0  0  0  0  0  0  0
   11.4466   10.6213   -6.4141 C   0  0  0  0  0  0  0  0  0  0  0  0
   11.7652   10.0517   -3.9940 C   0  0  0  0  0  0  0  0  0  0  0  0
   11.1673    6.1093   -3.9809 C   0  0  0  0  0  0  0  0  0  0  0  0
   11.7479    8.4069   -2.8389 C   0  0  0  0  0  0  0  0  0  0  0  0
  1  2  1  0  0  0  0
  2  3  1  0  0  0  0
  2  7  2  0  0  0  0
  4  3  1  6  0  0  0
  4  5  1  0  0  0  0
  4  6  1  0  0  0  0
  4  8  1  0  0  0  0
  5  9  2  0  0  0  0
  6 13  1  0  0  0  0
  7 12  1  0  0  0  0
  8 19  2  0  0  0  0
 10  7  1  1  0  0  0
 10 14  1  0  0  0  0
 10 17  1  0  0  0  0
 11  8  1  6  0  0  0
 11 20  1  0  0  0  0
 11 32  1  0  0  0  0
 12 18  1  0  0  0  0
 12 30  1  1  0  0  0
 12 32  1  0  0  0  0
 13 16  2  0  0  0  0
 13 21  1  0  0  0  0
 14  5  1  1  0  0  0
 14 15  1  0  0  0  0
 14 20  1  0  0  0  0
 15 31  1  0  0  0  0
 15 41  1  0  0  0  0
 17 18  1  0  0  0  0
 17 23  1  0  0  0  0
 18 25  1  0  0  0  0
 18 26  1  0  0  0  0
 19 21  1  0  0  0  0
 19 35  1  0  0  0  0
 20 23  1  0  0  0  0
 21 22  2  0  0  0  0
 22 27  1  0  0  0  0
 23 24  1  0  0  0  0
 23 41  1  0  0  0  0
 24 26  1  0  0  0  0
 26 28  2  0  0  0  0
 27 34  2  0  0  0  0
 27 36  1  0  0  0  0
 28 29  1  0  0  0  0
 28 32  1  0  0  0  0
 29 39  2  0  0  0  0
 31 33  2  0  0  0  0
 31 38  1  0  0  0  0
 34 35  1  0  0  0  0
 35 39  1  0  0  0  0
 36 37  1  0  0  0  0
 36 40  2  0  0  0  0
 37 42  1  0  0  0  0
 37 43  2  0  0  0  0
 40 44  1  0  0  0  0
 40 45  1  0  0  0  0
 43 45  1  0  0  0  0
M  END
$$$$

 OpenBabel10082411353D

 45 53  0  0  0  0  0  0  0  0999 V2000
   11.6836    6.0105   -4.8831 C   0  0  0  0  0  0  0  0  0  0  0  0
   11.1291    7.0732   -5.4395 C   0  0  0  0  0  0  0  0  0  0  0  0
   10.6954    7.0156   -6.8073 C   0  0  0  0  0  0  0  0  0  0  0  0
   10.2502    8.1187   -7.5536 C   0  0  2  0  0  0  0  0  0  0  0  0
   11.1205    8.4712   -4.9629 C   0  0  0  0  0  0  0  0  0  0  0  0
   10.8655    8.3511   -8.7960 C   0  0  0  0  0  0  0  0  0  0  0  0
   10.2922    7.8843   -9.9985 C   0  0  0  0  0  0  0  0  0  0  0  0
   10.4654    9.6993   -5.6120 C   0  0  0  0  0  0  0  0  0  0  0  0
   10.3510    9.5971   -7.0014 C   0  0  0  0  0  0  0  0  0  0  0  0
   12.2462    6.3351   -3.5020 C   0  0  0  0  0  0  0  0  0  0  0  0
   11.0471    7.5309  -11.1063 C   0  0  0  0  0  0  0  0  0  0  0  0
   11.7288    8.6923   -3.6518 C   0  0  0  0  0  0  0  0  0  0  0  0
   12.3991    7.7501  -11.1145 C   0  0  0  0  0  0  0  0  0  0  0  0
   12.3738    7.7580   -2.9599 C   0  0  0  0  0  0  0  0  0  0  0  0
   13.1285    8.5075  -10.1661 O   0  0  0  0  0  0  0  0  0  0  0  0
    9.0407    7.3775  -10.0973 N   0  0  0  0  0  0  0  0  0  0  0  0
    8.9787    6.9473  -11.4664 N   0  0  0  0  0  0  0  0  0  0  0  0
   13.1012    7.4459  -12.3707 C   0  0  0  0  0  0  0  0  0  0  0  0
   12.2395    6.9724  -13.2444 C   0  0  0  0  0  0  0  0  0  0  0  0
   10.2768    7.0170  -11.9799 C   0  0  0  0  0  0  0  0  0  0  0  0
   12.9237    6.5822  -14.5759 O   0  0  0  0  0  0  0  0  0  0  0  0
   10.8906    6.6526  -13.2252 C   0  0  0  0  0  0  0  0  0  0  0  0
   12.2396    6.1290  -15.6916 C   0  0  0  0  0  0  0  0  0  0  0  0
    7.8036    6.1825  -11.9342 C   0  0  0  0  0  0  0  0  0  0  0  0
   12.5015    4.7115  -15.7686 C   0  0  0  0  0  0  0  0  0  0  0  0
    7.1685    6.9992  -12.8245 C   0  0  0  0  0  0  0  0  0  0  0  0
   11.2461    3.8540  -15.4851 C   0  0  0  0  0  0  0  0  0  0  0  0
    7.6237    4.9154  -11.6529 C   0  0  0  0  0  0  0  0  0  0  0  0
    6.6378    4.1960  -12.2267 C   0  0  0  0  0  0  0  0  0  0  0  0
    6.2717    2.7675  -11.9743 C   0  0  0  0  0  0  0  0  0  0  0  0
    6.6569    1.8873  -12.9460 C   0  0  0  0  0  0  0  0  0  0  0  0
    7.3895    8.4597  -13.1785 C   0  0  0  0  0  0  0  0  0  0  0  0
    6.3114    0.5653  -12.7247 C   0  0  0  0  0  0  0  0  0  0  0  0
   11.3885    2.5830  -15.4863 O   0  0  0  0  0  0  0  0  0  0  0  0
    7.4815    2.1853  -14.0878 C   0  0  0  0  0  0  0  0  0  0  0  0
   10.0671    4.4249  -15.4648 O   0  0  0  0  0  0  0  0  0  0  0  0
    6.9068   -0.3393  -13.8429 C   0  0  0  0  0  0  0  0  0  0  0  0
    7.9156    3.5885  -14.2394 C   0  0  0  0  0  0  0  0  0  0  0  0
    7.9792    1.3984  -14.7530 C   0  0  0  0  0  0  0  0  0  0  0  0
    8.9112    1.7851  -15.8925 O   0  0  0  0  0  0  0  0  0  0  0  0
    8.8206    3.7297  -15.0940 C   0  0  0  0  0  0  0  0  0  0  0  0
    7.7384    0.0239  -14.7612 C   0  0  0  0  0  0  0  0  0  0  0  0
    7.0777    4.4849  -13.5385 C   0  0  0  0  0  0  0  0  0  0  0  0
    6.8487    5.8657  -13.9602 C   0  0  0  0  0  0  0  0  0  0  0  0
    9.2125    2.8264  -16.0245 C   0  0  0  0  0  0  0  0  0  0  0  0
  1  2  1  0  0  0  0
  1 10  2  0  0  0  0
  2  3  1  0  0  0  0
  2  5  2  0  0  0  0
  3  4  1  0  0  0  0
  4  6  1  6  0  0  0
  4  9  1  0  0  0  0
  5  8  1  0  0  0  0
  5 12  1  0  0  0  0
  6  7  1  0  0  0  0
  7 11  1  0  0  0  0
  7 16  2  0  0  0  0
  8  9  1  0  0  0  0
 10 14  1  0  0  0  0
 11 13  2  0  0  0  0
 11 20  1  0  0  0  0
 12 14  2  0  0  0  0
 13 15  1  0  0  0  0
 13 18  1  0  0  0  0
 16 17  1  0  0  0  0
 17 20  1  0  0  0  0
 17 24  1  0  0  0  0
 18 19  2  0  0  0  0
 19 21  1  0  0  0  0
 19 22  1  0  0  0  0
 20 22  2  0  0  0  0
 21 23  1  0  0  0  0
 23 25  1  0  0  0  0
 24 26  2  0  0  0  0
 24 28  1  0  0  0  0
 25 27  1  0  0  0  0
 26 32  1  0  0  0  0
 26 44  1  0  0  0  0
 27 34  2  0  0  0  0
 27 36  1  0  0  0  0
 28 29  2  0  0  0  0
 29 30  1  0  0  0  0
 29 43  1  0  0  0  0
 30 31  1  0  0  0  0
 31 33  2  0  0  0  0
 31 35  1  0  0  0  0
 33 37  1  0  0  0  0
 35 38  1  0  0  0  0
 35 39  2  0  0  0  0
 36 41  1  0  0  0  0
 37 42  2  0  0  0  0
 38 41  2  0  0  0  0
 38 43  1  0  0  0  0
 39 40  1  0  0  0  0
 39 42  1  0  0  0  0
 40 45  1  0  0  0  0
 41 45  1  0  0  0  0
 43 44  2  0  0  0  0
M  END
$$$$

 OpenBabel10082411353D

 45 53  0  0  0  0  0  0  0  0999 V2000
   11.6836    6.0105   -4.8831 C   0  0  0  0  0  0  0  0  0  0  0  0
   11.1291    7.0732   -5.4395 C   0  0  0  0  0  0  0  0  0  0  0  0
   10.6954    7.0156   -6.8073 C   0  0  0  0  0  0  0  0  0  0  0  0
   10.2502    8.1187   -7.5536 C   0  0  2  0  0  0  0  0  0  0  0  0
   11.1205    8.4712   -4.9629 C   0  0  0  0  0  0  0  0  0  0  0  0
   10.8655    8.3511   -8.7960 C   0  0  0  0  0  0  0  0  0  0  0  0
   10.2922    7.8843   -9.9985 C   0  0  0  0  0  0  0  0  0  0  0  0
   10.4654    9.6993   -5.6120 C   0  0  0  0  0  0  0  0  0  0  0  0
   10.3510    9.5971   -7.0014 C   0  0  0  0  0  0  0  0  0  0  0  0
   12.2462    6.3351   -3.5020 C   0  0  0  0  0  0  0  0  0  0  0  0
   11.0471    7.5309  -11.1063 C   0  0  0  0  0  0  0  0  0  0  0  0
   11.7288    8.6923   -3.6518 C   0  0  0  0  0  0  0  0  0  0  0  0
   12.3991    7.7501  -11.1145 C   0  0  0  0  0  0  0  0  0  0  0  0
   12.3738    7.7580   -2.9599 C   0  0  0  0  0  0  0  0  0  0  0  0
   13.1285    8.5075  -10.1661 O   0  0  0  0  0  0  0  0  0  0  0  0
    9.0407    7.3775  -10.0973 N   0  0  0  0  0  0  0  0  0  0  0  0
    8.9787    6.9473  -11.4664 N   0  0  0  0  0  0  0  0  0  0  0  0
   13.1012    7.4459  -12.3707 C   0  0  0  0  0  0  0  0  0  0  0  0
   12.2395    6.9724  -13.2444 C   0  0  0  0  0  0  0  0  0  0  0  0
   10.2768    7.0170  -11.9799 C   0  0  0  0  0  0  0  0  0  0  0  0
   12.9237    6.5822  -14.5759 O   0  0  0  0  0  0  0  0  0  0  0  0
   10.8906    6.6526  -13.2252 C   0  0  0  0  0  0  0  0  0  0  0  0
   12.2396    6.1290  -15.6916 C   0  0  0  0  0  0  0  0  0  0  0  0
    7.8036    6.1825  -11.9342 C   0  0  0  0  0  0  0  0  0  0  0  0
   12.5015    4.7115  -15.7686 C   0  0  0  0  0  0  0  0  0  0  0  0
    7.1685    6.9992  -12.8245 C   0  0  0  0  0  0  0  0  0  0  0  0
   11.2461    3.8540  -15.4851 C   0  0  0  0  0  0  0  0  0  0  0  0
    7.6237    4.9154  -11.6529 C   0  0  0  0  0  0  0  0  0  0  0  0
    6.6378    4.1960  -12.2267 C   0  0  0  0  0  0  0  0  0  0  0  0
    6.2717    2.7675  -11.9743 C   0  0  0  0  0  0  0  0  0  0  0  0
    6.6569    1.8873  -12.9460 C   0  0  0  0  0  0  0  0  0  0  0  0
    7.3895    8.4597  -13.1785 C   0  0  0  0  0  0  0  0  0  0  0  0
    6.3114    0.5653  -12.7247 C   0  0  0  0  0  0  0  0  0  0  0  0
   11.3885    2.5830  -15.4863 O   0  0  0  0  0  0  0  0  0  0  0  0
    7.4815    2.1853  -14.0878 C   0  0  0  0  0  0  0  0  0  0  0  0
   10.0671    4.4249  -15.4648 O   0  0  0  0  0  0  0  0  0  0  0  0
    6.9068   -0.3393  -13.8429 C   0  0  0  0  0  0  0  0  0  0  0  0
    7.9156    3.5885  -14.2394 C   0  0  0  0  0  0  0  0  0  0  0  0
    7.9792    1.3984  -14.7530 C   0  0  0  0  0  0  0  0  0  0  0  0
    8.9112    1.7851  -15.8925 O   0  0  0  0  0  0  0  0  0  0  0  0
    8.7440    3.9164  -15.3109 C   0  0  0  0  0  0  0  0  0  0  0  0
    8.6778    2.9793  -16.4613 C   0  0  0  0  0  0  0  0  0  0  0  0
    7.1643    4.5116  -13.5275 C   0  0  0  0  0  0  0  0  0  0  0  0
    7.8183   -0.0192  -14.7696 C   0  0  0  0  0  0  0  0  0  0  0  0
    7.0422    5.9148  -14.0729 C   0  0  0  0  0  0  0  0  0  0  0  0
  1  2  1  0  0  0  0
  1 10  2  0  0  0  0
  2  3  1  0  0  0  0
  2  5  2  0  0  0  0
  3  4  1  0  0  0  0
  4  6  1  6  0  0  0
  4  9  1  0  0  0  0
  5  8  1  0  0  0  0
  5 12  1  0  0  0  0
  6  7  1  0  0  0  0
  7 11  1  0  0  0  0
  7 16  2  0  0  0  0
  8  9  1  0  0  0  0
 10 14  1  0  0  0  0
 11 13  2  0  0  0  0
 11 20  1  0  0  0  0
 12 14  2  0  0  0  0
 13 15  1  0  0  0  0
 13 18  1  0  0  0  0
 16 17  1  0  0  0  0
 17 20  1  0  0  0  0
 17 24  1  0  0  0  0
 18 19  2  0  0  0  0
 19 21  1  0  0  0  0
 19 22  1  0  0  0  0
 20 22  2  0  0  0  0
 21 23  1  0  0  0  0
 23 25  1  0  0  0  0
 24 26  2  0  0  0  0
 24 28  1  0  0  0  0
 25 27  1  0  0  0  0
 26 32  1  0  0  0  0
 26 45  1  0  0  0  0
 27 34  2  0  0  0  0
 27 36  1  0  0  0  0
 28 29  2  0  0  0  0
 29 30  1  0  0  0  0
 29 43  1  0  0  0  0
 30 31  1  0  0  0  0
 31 33  2  0  0  0  0
 31 35  1  0  0  0  0
 33 37  1  0  0  0  0
 35 38  1  0  0  0  0
 35 39  2  0  0  0  0
 36 41  1  0  0  0  0
 37 44  2  0  0  0  0
 38 41  1  0  0  0  0
 38 43  2  0  0  0  0
 39 40  1  0  0  0  0
 39 44  1  0  0  0  0
 40 42  1  0  0  0  0
 41 42  2  0  0  0  0
 43 45  1  0  0  0  0
M  END
$$$$

 OpenBabel10082411353D

 45 56  0  0  0  0  0  0  0  0999 V2000
    8.0806    9.0240  -12.7589 C   0  0  0  0  0  0  0  0  0  0  0  0
    8.6514    7.8645  -12.2948 C   0  0  0  0  0  0  0  0  0  0  0  0
    9.9575    7.9974  -11.8426 C   0  0  0  0  0  0  0  0  0  0  0  0
   10.7657    6.8667  -11.6050 C   0  0  1  0  0  0  0  0  0  0  0  0
   10.7682    5.9590  -12.8271 C   0  0  0  0  0  0  0  0  0  0  0  0
   12.1553    7.3846  -11.2315 C   0  0  0  0  0  0  0  0  0  0  0  0
    8.0676    6.6451  -12.2974 C   0  0  0  0  0  0  0  0  0  0  0  0
   10.1892    6.1240  -10.3860 C   0  0  0  0  0  0  0  0  0  0  0  0
   11.8375    5.4373  -13.3240 O   0  0  0  0  0  0  0  0  0  0  0  0
    8.6785    5.4761  -13.0273 C   0  0  1  0  0  0  0  0  0  0  0  0
    9.1969    5.2405  -10.4969 C   0  0  2  0  0  0  0  0  0  0  0  0
    7.2213    6.2210  -11.3074 C   0  0  2  0  0  0  0  0  0  0  0  0
   12.5590    7.6872   -9.9896 C   0  0  0  0  0  0  0  0  0  0  0  0
    9.7633    5.0333  -12.9720 C   0  0  1  0  0  0  0  0  0  0  0  0
   10.0661    4.0167  -14.0373 N   0  0  0  0  0  0  0  0  0  0  0  0
   13.6906    8.3004   -9.6233 O   0  0  0  0  0  0  0  0  0  0  0  0
    7.6357    4.5123  -12.6317 C   0  0  2  0  0  0  0  0  0  0  0  0
    6.8831    4.9171  -11.7031 C   0  0  2  0  0  0  0  0  0  0  0  0
   10.5937    6.6967   -9.1779 C   0  0  0  0  0  0  0  0  0  0  0  0
    9.5087    4.3263  -11.6925 C   0  0  2  0  0  0  0  0  0  0  0  0
   11.6359    7.4449   -8.9125 C   0  0  0  0  0  0  0  0  0  0  0  0
   11.9716    7.9159   -7.6200 C   0  0  0  0  0  0  0  0  0  0  0  0
    8.4648    3.6122  -12.2840 C   0  0  1  0  0  0  0  0  0  0  0  0
    7.9253    2.8004  -11.3926 C   0  0  0  0  0  0  0  0  0  0  0  0
    5.6047    4.5059  -11.7589 C   0  0  0  0  0  0  0  0  0  0  0  0
    7.6606    4.1297  -10.5699 C   0  0  0  0  0  0  0  0  0  0  0  0
   10.9559    7.6849   -6.6057 C   0  0  0  0  0  0  0  0  0  0  0  0
    8.0094    4.5092   -9.5664 C   0  0  0  0  0  0  0  0  0  0  0  0
    8.3033    4.0627   -8.4980 C   0  0  0  0  0  0  0  0  0  0  0  0
    6.3587    7.1012  -11.0392 O   0  0  0  0  0  0  0  0  0  0  0  0
   11.0186    3.9598  -14.9226 C   0  0  0  0  0  0  0  0  0  0  0  0
    8.1758    5.8633  -10.2511 C   0  0  1  0  0  0  0  0  0  0  0  0
   11.4648    2.7104  -15.2650 O   0  0  0  0  0  0  0  0  0  0  0  0
    9.9512    6.8220   -6.8436 C   0  0  0  0  0  0  0  0  0  0  0  0
    9.6899    6.3705   -8.1082 C   0  0  2  0  0  0  0  0  0  0  0  0
   11.2597    8.2901   -5.2396 C   0  0  0  0  0  0  0  0  0  0  0  0
   11.6068    9.7354   -5.2006 C   0  0  1  0  0  0  0  0  0  0  0  0
    9.4261    2.7718  -13.6670 C   0  0  0  0  0  0  0  0  0  0  0  0
    9.1568    5.0346   -7.7426 C   0  0  0  0  0  0  0  0  0  0  0  0
   11.2083    4.9304  -15.6781 O   0  0  0  0  0  0  0  0  0  0  0  0
   11.3723    7.7138   -4.0322 C   0  0  0  0  0  0  0  0  0  0  0  0
   11.4531   10.6045   -6.4008 C   0  0  0  0  0  0  0  0  0  0  0  0
   11.1721    6.2503   -3.9429 C   0  0  0  0  0  0  0  0  0  0  0  0
   11.7581    8.6450   -2.9697 C   0  0  0  0  0  0  0  0  0  0  0  0
   11.8570    9.9864   -3.6728 C   0  0  0  0  0  0  0  0  0  0  0  0
  1  2  1  0  0  0  0
  2  3  1  0  0  0  0
  2  7  2  0  0  0  0
  4  3  1  6  0  0  0
  4  5  1  0  0  0  0
  4  6  1  0  0  0  0
  4  8  1  0  0  0  0
  5  9  2  0  0  0  0
  6 13  1  0  0  0  0
  7 12  1  0  0  0  0
  8 19  2  0  0  0  0
 10  7  1  1  0  0  0
 10 14  1  0  0  0  0
 10 17  1  0  0  0  0
 11  8  1  6  0  0  0
 11 20  1  0  0  0  0
 11 32  1  0  0  0  0
 12 18  1  0  0  0  0
 12 30  1  1  0  0  0
 12 32  1  0  0  0  0
 13 16  2  0  0  0  0
 13 21  1  0  0  0  0
 14  5  1  1  0  0  0
 14 15  1  0  0  0  0
 14 20  1  0  0  0  0
 15 31  1  0  0  0  0
 15 38  1  0  0  0  0
 17 18  1  0  0  0  0
 17 23  1  0  0  0  0
 18 25  1  0  0  0  0
 18 26  1  0  0  0  0
 19 21  1  0  0  0  0
 19 35  1  0  0  0  0
 20 23  1  0  0  0  0
 21 22  2  0  0  0  0
 22 27  1  0  0  0  0
 23 24  1  0  0  0  0
 23 38  1  0  0  0  0
 24 26  1  0  0  0  0
 26 28  2  0  0  0  0
 27 34  2  0  0  0  0
 27 36  1  0  0  0  0
 28 29  1  0  0  0  0
 28 32  1  0  0  0  0
 29 39  1  0  0  0  0
 31 33  2  0  0  0  0
 31 40  1  0  0  0  0
 34 35  1  0  0  0  0
 35 39  1  0  0  0  0
 36 37  1  0  0  0  0
 36 41  2  0  0  0  0
 37 42  1  0  0  0  0
 37 45  1  0  0  0  0
 41 43  1  0  0  0  0
 41 44  1  0  0  0  0
 44 45  1  0  0  0  0
M  END
$$$$

 OpenBabel10082411353D

 27 30  0  0  0  0  0  0  0  0999 V2000
   11.6836    6.0105   -4.8831 C   0  0  0  0  0  0  0  0  0  0  0  0
   11.9279    6.9038   -3.8792 C   0  0  0  0  0  0  0  0  0  0  0  0
   11.9719    8.3126   -4.1286 C   0  0  0  0  0  0  0  0  0  0  0  0
   11.3811    6.5964   -6.0845 C   0  0  0  0  0  0  0  0  0  0  0  0
   11.0420    5.6445   -7.1434 C   0  0  1  0  0  0  0  0  0  0  0  0
   11.3536    7.9055   -6.3870 C   0  0  0  0  0  0  0  0  0  0  0  0
    9.8569    4.8089   -7.0560 C   0  0  0  0  0  0  0  0  0  0  0  0
   11.5991    8.8196   -5.3527 C   0  0  0  0  0  0  0  0  0  0  0  0
   11.5316   10.2233   -5.5794 F   0  0  0  0  0  0  0  0  0  0  0  0
   10.9798    8.5285   -7.6795 C   0  0  0  0  0  0  0  0  0  0  0  0
   10.6556    6.3745   -8.5461 C   0  0  0  0  0  0  0  0  0  0  0  0
    9.6410    3.9438   -8.1044 C   0  0  0  0  0  0  0  0  0  0  0  0
   11.0669    7.6169   -8.7871 N   0  0  0  0  0  0  0  0  0  0  0  0
    9.9214    5.7500   -9.4200 C   0  0  0  0  0  0  0  0  0  0  0  0
   12.1374    7.7991   -9.6010 C   0  0  0  0  0  0  0  0  0  0  0  0
   13.3966    8.0702   -9.2678 O   0  0  0  0  0  0  0  0  0  0  0  0
   11.9065    8.1067  -10.9940 C   0  0  0  0  0  0  0  0  0  0  0  0
    9.2226    4.5607   -9.1216 C   0  0  0  0  0  0  0  0  0  0  0  0
    9.5952    6.3666  -10.7858 C   0  0  2  0  0  0  0  0  0  0  0  0
   10.8618    7.2162  -11.6325 C   0  0  1  0  0  0  0  0  0  0  0  0
   10.3189    7.5493  -12.9087 C   0  0  0  0  0  0  0  0  0  0  0  0
    8.7313    7.4034  -10.5188 O   0  0  0  0  0  0  0  0  0  0  0  0
   11.2906    7.4163  -14.0162 C   0  0  0  0  0  0  0  0  0  0  0  0
   11.9841    6.1768  -14.0880 C   0  0  0  0  0  0  0  0  0  0  0  0
   12.8089    5.9930  -15.0921 O   0  0  0  0  0  0  0  0  0  0  0  0
   11.7270    5.2376  -13.2132 O   0  0  0  0  0  0  0  0  0  0  0  0
   11.6538    3.8624  -13.7408 C   0  0  0  0  0  0  0  0  0  0  0  0
  1  2  1  0  0  0  0
  1  4  2  0  0  0  0
  2  3  2  0  0  0  0
  3  8  1  0  0  0  0
  4  5  1  0  0  0  0
  4  6  1  0  0  0  0
  5  7  1  1  0  0  0
  5 11  1  0  0  0  0
  6  8  2  0  0  0  0
  6 10  1  0  0  0  0
  7 12  1  0  0  0  0
  8  9  1  0  0  0  0
 10 13  1  0  0  0  0
 11 13  1  0  0  0  0
 11 14  2  0  0  0  0
 12 18  1  0  0  0  0
 13 15  1  0  0  0  0
 14 18  1  0  0  0  0
 14 19  1  0  0  0  0
 15 16  2  0  0  0  0
 15 17  1  0  0  0  0
 17 20  1  0  0  0  0
 19 20  1  0  0  0  0
 19 22  1  1  0  0  0
 20 21  1  6  0  0  0
 21 23  1  0  0  0  0
 23 24  1  0  0  0  0
 24 25  2  0  0  0  0
 24 26  1  0  0  0  0
 26 27  1  0  0  0  0
M  END
$$$$

 OpenBabel10082411353D

 45 55  0  0  0  0  0  0  0  0999 V2000
    8.0806    9.0240  -12.7589 C   0  0  0  0  0  0  0  0  0  0  0  0
    8.6514    7.8645  -12.2948 C   0  0  0  0  0  0  0  0  0  0  0  0
    9.9575    7.9974  -11.8426 C   0  0  0  0  0  0  0  0  0  0  0  0
   10.7657    6.8667  -11.6050 C   0  0  1  0  0  0  0  0  0  0  0  0
   10.7682    5.9590  -12.8271 C   0  0  0  0  0  0  0  0  0  0  0  0
   12.1553    7.3846  -11.2315 C   0  0  0  0  0  0  0  0  0  0  0  0
    8.0676    6.6451  -12.2974 C   0  0  0  0  0  0  0  0  0  0  0  0
   10.1892    6.1240  -10.3860 C   0  0  0  0  0  0  0  0  0  0  0  0
   11.8375    5.4373  -13.3240 O   0  0  0  0  0  0  0  0  0  0  0  0
    8.6785    5.4761  -13.0273 C   0  0  1  0  0  0  0  0  0  0  0  0
    9.1969    5.2405  -10.4969 C   0  0  2  0  0  0  0  0  0  0  0  0
    7.2213    6.2210  -11.3074 C   0  0  2  0  0  0  0  0  0  0  0  0
   12.5590    7.6872   -9.9896 C   0  0  0  0  0  0  0  0  0  0  0  0
    9.7633    5.0333  -12.9720 C   0  0  1  0  0  0  0  0  0  0  0  0
   10.0661    4.0167  -14.0373 N   0  0  0  0  0  0  0  0  0  0  0  0
   13.6906    8.3004   -9.6233 O   0  0  0  0  0  0  0  0  0  0  0  0
    7.6357    4.5123  -12.6317 C   0  0  2  0  0  0  0  0  0  0  0  0
    6.8831    4.9171  -11.7031 C   0  0  2  0  0  0  0  0  0  0  0  0
   10.5937    6.6967   -9.1779 C   0  0  0  0  0  0  0  0  0  0  0  0
    9.5087    4.3263  -11.6925 C   0  0  2  0  0  0  0  0  0  0  0  0
   11.6359    7.4449   -8.9125 C   0  0  0  0  0  0  0  0  0  0  0  0
   11.9716    7.9159   -7.6200 C   0  0  0  0  0  0  0  0  0  0  0  0
    8.4648    3.6122  -12.2840 C   0  0  1  0  0  0  0  0  0  0  0  0
    7.9253    2.8004  -11.3926 C   0  0  0  0  0  0  0  0  0  0  0  0
    5.6047    4.5059  -11.7589 C   0  0  0  0  0  0  0  0  0  0  0  0
    7.6606    4.1297  -10.5699 C   0  0  0  0  0  0  0  0  0  0  0  0
   10.9559    7.6849   -6.6057 C   0  0  0  0  0  0  0  0  0  0  0  0
    8.0094    4.5092   -9.5664 C   0  0  0  0  0  0  0  0  0  0  0  0
    8.3033    4.0627   -8.4980 C   0  0  0  0  0  0  0  0  0  0  0  0
    6.3587    7.1012  -11.0392 O   0  0  0  0  0  0  0  0  0  0  0  0
   11.0186    3.9598  -14.9226 C   0  0  0  0  0  0  0  0  0  0  0  0
    8.1758    5.8633  -10.2511 C   0  0  1  0  0  0  0  0  0  0  0  0
    9.4315    2.8557  -13.5931 C   0  0  0  0  0  0  0  0  0  0  0  0
   11.5906    2.6986  -15.1672 C   0  0  0  0  0  0  0  0  0  0  0  0
   11.2029    4.8307  -15.6614 O   0  0  0  0  0  0  0  0  0  0  0  0
    9.9720    6.7848   -6.8417 C   0  0  0  0  0  0  0  0  0  0  0  0
    8.6966    2.9850   -8.3465 O   0  0  0  0  0  0  0  0  0  0  0  0
    8.5860    5.0154   -7.5833 C   0  0  0  0  0  0  0  0  0  0  0  0
   11.3663    8.4216   -5.0482 S   0  0  0  0  0  0  0  0  0  0  0  0
    9.6720    6.2282   -7.9788 C   0  0  2  0  0  0  0  0  0  0  0  0
   12.0887    9.7017   -5.2869 O   0  0  0  0  0  0  0  0  0  0  0  0
   12.3223    7.3900   -4.1631 C   0  0  0  0  0  0  0  0  0  0  0  0
   10.0179    8.9146   -4.5324 O   0  0  0  0  0  0  0  0  0  0  0  0
   11.5454    6.1905   -4.0274 C   0  0  0  0  0  0  0  0  0  0  0  0
   12.4553    8.1513   -2.8973 C   0  0  0  0  0  0  0  0  0  0  0  0
  1  2  1  0  0  0  0
  2  3  1  0  0  0  0
  2  7  2  0  0  0  0
  4  3  1  6  0  0  0
  4  5  1  0  0  0  0
  4  6  1  0  0  0  0
  4  8  1  0  0  0  0
  5  9  2  0  0  0  0
  6 13  1  0  0  0  0
  7 12  1  0  0  0  0
  8 19  2  0  0  0  0
 10  7  1  1  0  0  0
 10 14  1  0  0  0  0
 10 17  1  0  0  0  0
 11  8  1  6  0  0  0
 11 20  1  0  0  0  0
 11 32  1  0  0  0  0
 12 18  1  0  0  0  0
 12 30  1  1  0  0  0
 12 32  1  0  0  0  0
 13 16  2  0  0  0  0
 13 21  1  0  0  0  0
 14  5  1  1  0  0  0
 14 15  1  0  0  0  0
 14 20  1  0  0  0  0
 15 31  1  0  0  0  0
 15 33  1  0  0  0  0
 17 18  1  0  0  0  0
 17 23  1  0  0  0  0
 18 25  1  0  0  0  0
 18 26  1  0  0  0  0
 19 21  1  0  0  0  0
 19 40  1  0  0  0  0
 20 23  1  0  0  0  0
 21 22  2  0  0  0  0
 22 27  1  0  0  0  0
 23 24  1  0  0  0  0
 23 33  1  0  0  0  0
 24 26  1  0  0  0  0
 26 28  2  0  0  0  0
 27 36  2  0  0  0  0
 27 39  1  0  0  0  0
 28 29  1  0  0  0  0
 28 32  1  0  0  0  0
 29 37  2  0  0  0  0
 29 38  1  0  0  0  0
 31 34  1  0  0  0  0
 31 35  2  0  0  0  0
 36 40  1  0  0  0  0
 38 40  1  0  0  0  0
 39 41  2  0  0  0  0
 39 42  1  0  0  0  0
 39 43  2  0  0  0  0
 42 44  1  0  0  0  0
 42 45  1  0  0  0  0
M  END
$$$$

 OpenBabel10082411353D

 45 56  0  0  0  0  0  0  0  0999 V2000
    8.0806    9.0240  -12.7589 C   0  0  0  0  0  0  0  0  0  0  0  0
    8.6514    7.8645  -12.2948 C   0  0  0  0  0  0  0  0  0  0  0  0
    9.9575    7.9974  -11.8426 C   0  0  0  0  0  0  0  0  0  0  0  0
   10.7657    6.8667  -11.6050 C   0  0  1  0  0  0  0  0  0  0  0  0
   10.7682    5.9590  -12.8271 C   0  0  0  0  0  0  0  0  0  0  0  0
   12.1553    7.3846  -11.2315 C   0  0  0  0  0  0  0  0  0  0  0  0
    8.0676    6.6451  -12.2974 C   0  0  0  0  0  0  0  0  0  0  0  0
   10.1892    6.1240  -10.3860 C   0  0  0  0  0  0  0  0  0  0  0  0
   11.8375    5.4373  -13.3240 O   0  0  0  0  0  0  0  0  0  0  0  0
    8.6785    5.4761  -13.0273 C   0  0  1  0  0  0  0  0  0  0  0  0
    9.1969    5.2405  -10.4969 C   0  0  2  0  0  0  0  0  0  0  0  0
    7.2213    6.2210  -11.3074 C   0  0  2  0  0  0  0  0  0  0  0  0
   12.5590    7.6872   -9.9896 C   0  0  0  0  0  0  0  0  0  0  0  0
    9.7633    5.0333  -12.9720 C   0  0  1  0  0  0  0  0  0  0  0  0
   10.0661    4.0167  -14.0373 N   0  0  0  0  0  0  0  0  0  0  0  0
   13.6906    8.3004   -9.6233 O   0  0  0  0  0  0  0  0  0  0  0  0
    7.6357    4.5123  -12.6317 C   0  0  2  0  0  0  0  0  0  0  0  0
    6.8831    4.9171  -11.7031 C   0  0  2  0  0  0  0  0  0  0  0  0
   10.5937    6.6967   -9.1779 C   0  0  0  0  0  0  0  0  0  0  0  0
    9.5087    4.3263  -11.6925 C   0  0  2  0  0  0  0  0  0  0  0  0
   11.6359    7.4449   -8.9125 C   0  0  0  0  0  0  0  0  0  0  0  0
   11.9716    7.9159   -7.6200 C   0  0  0  0  0  0  0  0  0  0  0  0
    8.4648    3.6122  -12.2840 C   0  0  1  0  0  0  0  0  0  0  0  0
    7.9253    2.8004  -11.3926 C   0  0  0  0  0  0  0  0  0  0  0  0
    5.6047    4.5059  -11.7589 C   0  0  0  0  0  0  0  0  0  0  0  0
    7.6606    4.1297  -10.5699 C   0  0  0  0  0  0  0  0  0  0  0  0
   10.9559    7.6849   -6.6057 C   0  0  0  0  0  0  0  0  0  0  0  0
    8.0094    4.5092   -9.5664 C   0  0  0  0  0  0  0  0  0  0  0  0
    8.3033    4.0627   -8.4980 C   0  0  0  0  0  0  0  0  0  0  0  0
    6.3587    7.1012  -11.0392 O   0  0  0  0  0  0  0  0  0  0  0  0
   11.0186    3.9598  -14.9226 C   0  0  0  0  0  0  0  0  0  0  0  0
    8.1758    5.8633  -10.2511 C   0  0  1  0  0  0  0  0  0  0  0  0
   11.4648    2.7104  -15.2650 O   0  0  0  0  0  0  0  0  0  0  0  0
    9.9512    6.8220   -6.8436 C   0  0  0  0  0  0  0  0  0  0  0  0
    9.6899    6.3705   -8.1082 C   0  0  2  0  0  0  0  0  0  0  0  0
   11.2597    8.2901   -5.2396 C   0  0  0  0  0  0  0  0  0  0  0  0
   10.9483    4.9354  -15.8312 C   0  0  0  0  0  0  0  0  0  0  0  0
    9.2428    4.9682   -7.8294 C   0  0  0  0  0  0  0  0  0  0  0  0
   11.9211    7.5870   -4.3303 C   0  0  0  0  0  0  0  0  0  0  0  0
   10.9171    9.6712   -4.9168 C   0  0  0  0  0  0  0  0  0  0  0  0
    9.2892    2.8412  -13.6369 C   0  0  0  0  0  0  0  0  0  0  0  0
   10.2684   10.5097   -5.9823 F   0  0  0  0  0  0  0  0  0  0  0  0
   12.2731    8.1347   -3.0505 C   0  0  0  0  0  0  0  0  0  0  0  0
   11.9402    9.4840   -2.7817 C   0  0  0  0  0  0  0  0  0  0  0  0
   11.2875   10.2276   -3.7576 N   0  0  0  0  0  0  0  0  0  0  0  0
  1  2  1  0  0  0  0
  2  3  1  0  0  0  0
  2  7  2  0  0  0  0
  4  3  1  6  0  0  0
  4  5  1  0  0  0  0
  4  6  1  0  0  0  0
  4  8  1  0  0  0  0
  5  9  2  0  0  0  0
  6 13  1  0  0  0  0
  7 12  1  0  0  0  0
  8 19  2  0  0  0  0
 10  7  1  1  0  0  0
 10 14  1  0  0  0  0
 10 17  1  0  0  0  0
 11  8  1  6  0  0  0
 11 20  1  0  0  0  0
 11 32  1  0  0  0  0
 12 18  1  0  0  0  0
 12 30  1  1  0  0  0
 12 32  1  0  0  0  0
 13 16  2  0  0  0  0
 13 21  1  0  0  0  0
 14  5  1  1  0  0  0
 14 15  1  0  0  0  0
 14 20  1  0  0  0  0
 15 31  1  0  0  0  0
 15 41  1  0  0  0  0
 17 18  1  0  0  0  0
 17 23  1  0  0  0  0
 18 25  1  0  0  0  0
 18 26  1  0  0  0  0
 19 21  1  0  0  0  0
 19 35  1  0  0  0  0
 20 23  1  0  0  0  0
 21 22  2  0  0  0  0
 22 27  1  0  0  0  0
 23 24  1  0  0  0  0
 23 41  1  0  0  0  0
 24 26  1  0  0  0  0
 26 28  2  0  0  0  0
 27 34  2  0  0  0  0
 27 36  1  0  0  0  0
 28 29  1  0  0  0  0
 28 32  1  0  0  0  0
 29 38  1  0  0  0  0
 31 33  2  0  0  0  0
 31 37  1  0  0  0  0
 34 35  1  0  0  0  0
 35 38  1  0  0  0  0
 36 39  1  0  0  0  0
 36 40  2  0  0  0  0
 39 43  2  0  0  0  0
 40 42  1  0  0  0  0
 40 45  1  0  0  0  0
 43 44  1  0  0  0  0
 44 45  2  0  0  0  0
M  END
$$$$

 OpenBabel10082411353D

 45 55  0  0  0  0  0  0  0  0999 V2000
    8.0806    9.0240  -12.7589 C   0  0  0  0  0  0  0  0  0  0  0  0
    8.6514    7.8645  -12.2948 C   0  0  0  0  0  0  0  0  0  0  0  0
    9.9575    7.9974  -11.8426 C   0  0  0  0  0  0  0  0  0  0  0  0
   10.7657    6.8667  -11.6050 C   0  0  1  0  0  0  0  0  0  0  0  0
   10.7682    5.9590  -12.8271 C   0  0  0  0  0  0  0  0  0  0  0  0
   12.1553    7.3846  -11.2315 C   0  0  0  0  0  0  0  0  0  0  0  0
    8.0676    6.6451  -12.2974 C   0  0  0  0  0  0  0  0  0  0  0  0
   10.1892    6.1240  -10.3860 C   0  0  0  0  0  0  0  0  0  0  0  0
   11.8375    5.4373  -13.3240 O   0  0  0  0  0  0  0  0  0  0  0  0
    8.6785    5.4761  -13.0273 C   0  0  1  0  0  0  0  0  0  0  0  0
    9.1969    5.2405  -10.4969 C   0  0  2  0  0  0  0  0  0  0  0  0
    7.2213    6.2210  -11.3074 C   0  0  2  0  0  0  0  0  0  0  0  0
   12.5590    7.6872   -9.9896 C   0  0  0  0  0  0  0  0  0  0  0  0
    9.7633    5.0333  -12.9720 C   0  0  1  0  0  0  0  0  0  0  0  0
   10.0661    4.0167  -14.0373 N   0  0  0  0  0  0  0  0  0  0  0  0
   13.6906    8.3004   -9.6233 O   0  0  0  0  0  0  0  0  0  0  0  0
    7.6357    4.5123  -12.6317 C   0  0  2  0  0  0  0  0  0  0  0  0
    6.8831    4.9171  -11.7031 C   0  0  2  0  0  0  0  0  0  0  0  0
   10.5937    6.6967   -9.1779 C   0  0  0  0  0  0  0  0  0  0  0  0
    9.5087    4.3263  -11.6925 C   0  0  2  0  0  0  0  0  0  0  0  0
   11.6359    7.4449   -8.9125 C   0  0  0  0  0  0  0  0  0  0  0  0
   11.9716    7.9159   -7.6200 C   0  0  0  0  0  0  0  0  0  0  0  0
    8.4648    3.6122  -12.2840 C   0  0  1  0  0  0  0  0  0  0  0  0
    7.9253    2.8004  -11.3926 C   0  0  0  0  0  0  0  0  0  0  0  0
    5.6047    4.5059  -11.7589 C   0  0  0  0  0  0  0  0  0  0  0  0
    7.6606    4.1297  -10.5699 C   0  0  0  0  0  0  0  0  0  0  0  0
   10.9559    7.6849   -6.6057 C   0  0  0  0  0  0  0  0  0  0  0  0
    8.0094    4.5092   -9.5664 C   0  0  0  0  0  0  0  0  0  0  0  0
    8.3033    4.0627   -8.4980 C   0  0  0  0  0  0  0  0  0  0  0  0
    6.3587    7.1012  -11.0392 O   0  0  0  0  0  0  0  0  0  0  0  0
   11.0186    3.9598  -14.9226 C   0  0  0  0  0  0  0  0  0  0  0  0
    8.1758    5.8633  -10.2511 C   0  0  1  0  0  0  0  0  0  0  0  0
   11.4648    2.7104  -15.2650 O   0  0  0  0  0  0  0  0  0  0  0  0
    9.9512    6.8220   -6.8436 C   0  0  0  0  0  0  0  0  0  0  0  0
    9.6899    6.3705   -8.1082 C   0  0  2  0  0  0  0  0  0  0  0  0
   11.2597    8.2901   -5.2396 C   0  0  0  0  0  0  0  0  0  0  0  0
   11.7295    4.9426  -15.4284 O   0  0  0  0  0  0  0  0  0  0  0  0
    9.0704    4.8312   -7.8318 C   0  0  0  0  0  0  0  0  0  0  0  0
    9.2457    2.8662  -13.7297 C   0  0  0  0  0  0  0  0  0  0  0  0
   11.9322    7.5886   -4.3410 C   0  0  0  0  0  0  0  0  0  0  0  0
   12.3837    8.1911   -3.0498 C   0  0  0  0  0  0  0  0  0  0  0  0
   12.1266    6.2088   -4.4269 C   0  0  0  0  0  0  0  0  0  0  0  0
   10.8614    9.6241   -4.9952 C   0  0  0  0  0  0  0  0  0  0  0  0
   13.0560    7.4243   -2.0938 C   0  0  0  0  0  0  0  0  0  0  0  0
   11.6464    5.5042   -5.5476 C   0  0  0  0  0  0  0  0  0  0  0  0
  1  2  1  0  0  0  0
  2  3  1  0  0  0  0
  2  7  2  0  0  0  0
  4  3  1  6  0  0  0
  4  5  1  0  0  0  0
  4  6  1  0  0  0  0
  4  8  1  0  0  0  0
  5  9  2  0  0  0  0
  6 13  1  0  0  0  0
  7 12  1  0  0  0  0
  8 19  2  0  0  0  0
 10  7  1  1  0  0  0
 10 14  1  0  0  0  0
 10 17  1  0  0  0  0
 11  8  1  6  0  0  0
 11 20  1  0  0  0  0
 11 32  1  0  0  0  0
 12 18  1  0  0  0  0
 12 30  1  1  0  0  0
 12 32  1  0  0  0  0
 13 16  2  0  0  0  0
 13 21  1  0  0  0  0
 14  5  1  1  0  0  0
 14 15  1  0  0  0  0
 14 20  1  0  0  0  0
 15 31  1  0  0  0  0
 15 39  1  0  0  0  0
 17 18  1  0  0  0  0
 17 23  1  0  0  0  0
 18 25  1  0  0  0  0
 18 26  1  0  0  0  0
 19 21  1  0  0  0  0
 19 35  1  0  0  0  0
 20 23  1  0  0  0  0
 21 22  2  0  0  0  0
 22 27  1  0  0  0  0
 23 24  1  0  0  0  0
 23 39  1  0  0  0  0
 24 26  1  0  0  0  0
 26 28  2  0  0  0  0
 27 34  2  0  0  0  0
 27 36  1  0  0  0  0
 28 29  1  0  0  0  0
 28 32  1  0  0  0  0
 29 38  2  0  0  0  0
 31 33  2  0  0  0  0
 31 37  1  0  0  0  0
 34 35  1  0  0  0  0
 35 38  1  0  0  0  0
 36 40  1  0  0  0  0
 36 43  2  0  0  0  0
 40 41  1  0  0  0  0
 40 42  2  3  0  0  0
 41 44  2  0  0  0  0
 42 45  1  0  0  0  0
M  END
$$$$

 OpenBabel10082411353D

 45 57  0  0  0  0  0  0  0  0999 V2000
    8.0806    9.0240  -12.7589 C   0  0  0  0  0  0  0  0  0  0  0  0
    8.6514    7.8645  -12.2948 C   0  0  0  0  0  0  0  0  0  0  0  0
    9.9575    7.9974  -11.8426 C   0  0  0  0  0  0  0  0  0  0  0  0
   10.7657    6.8667  -11.6050 C   0  0  1  0  0  0  0  0  0  0  0  0
   10.7682    5.9590  -12.8271 C   0  0  0  0  0  0  0  0  0  0  0  0
   12.1553    7.3846  -11.2315 C   0  0  0  0  0  0  0  0  0  0  0  0
    8.0676    6.6451  -12.2974 C   0  0  0  0  0  0  0  0  0  0  0  0
   10.1892    6.1240  -10.3860 C   0  0  0  0  0  0  0  0  0  0  0  0
   11.8375    5.4373  -13.3240 O   0  0  0  0  0  0  0  0  0  0  0  0
    8.6785    5.4761  -13.0273 C   0  0  1  0  0  0  0  0  0  0  0  0
    9.1969    5.2405  -10.4969 C   0  0  2  0  0  0  0  0  0  0  0  0
    7.2213    6.2210  -11.3074 C   0  0  2  0  0  0  0  0  0  0  0  0
   12.5590    7.6872   -9.9896 C   0  0  0  0  0  0  0  0  0  0  0  0
    9.7633    5.0333  -12.9720 C   0  0  1  0  0  0  0  0  0  0  0  0
   10.0661    4.0167  -14.0373 N   0  0  0  0  0  0  0  0  0  0  0  0
   13.6906    8.3004   -9.6233 O   0  0  0  0  0  0  0  0  0  0  0  0
    7.6357    4.5123  -12.6317 C   0  0  2  0  0  0  0  0  0  0  0  0
    6.8831    4.9171  -11.7031 C   0  0  2  0  0  0  0  0  0  0  0  0
   10.5937    6.6967   -9.1779 C   0  0  0  0  0  0  0  0  0  0  0  0
    9.5087    4.3263  -11.6925 C   0  0  2  0  0  0  0  0  0  0  0  0
   11.6359    7.4449   -8.9125 C   0  0  0  0  0  0  0  0  0  0  0  0
   11.9716    7.9159   -7.6200 C   0  0  0  0  0  0  0  0  0  0  0  0
    8.4648    3.6122  -12.2840 C   0  0  1  0  0  0  0  0  0  0  0  0
    7.9253    2.8004  -11.3926 C   0  0  2  0  0  0  0  0  0  0  0  0
    5.6047    4.5059  -11.7589 C   0  0  0  0  0  0  0  0  0  0  0  0
    7.6606    4.1297  -10.5699 C   0  0  0  0  0  0  0  0  0  0  0  0
   10.9559    7.6849   -6.6057 C   0  0  0  0  0  0  0  0  0  0  0  0
    8.0094    4.5092   -9.5664 C   0  0  0  0  0  0  0  0  0  0  0  0
    8.3033    4.0627   -8.4980 C   0  0  0  0  0  0  0  0  0  0  0  0
    6.3587    7.1012  -11.0392 O   0  0  0  0  0  0  0  0  0  0  0  0
   11.0186    3.9598  -14.9226 C   0  0  0  0  0  0  0  0  0  0  0  0
    8.1758    5.8633  -10.2511 C   0  0  1  0  0  0  0  0  0  0  0  0
   11.4648    2.7104  -15.2650 O   0  0  0  0  0  0  0  0  0  0  0  0
    9.9512    6.8220   -6.8436 C   0  0  0  0  0  0  0  0  0  0  0  0
    9.6899    6.3705   -8.1082 C   0  0  2  0  0  0  0  0  0  0  0  0
    9.1306    2.9610  -13.9685 C   0  0  0  0  0  0  0  0  0  0  0  0
    8.8414    5.0113   -7.7726 C   0  0  0  0  0  0  0  0  0  0  0  0
   11.0996    4.8769  -15.8101 O   0  0  0  0  0  0  0  0  0  0  0  0
   11.2285    8.3650   -5.2735 C   0  0  1  0  0  0  0  0  0  0  0  0
    8.6761    2.4330  -12.9285 C   0  0  1  0  0  0  0  0  0  0  0  0
   11.8773    7.7002   -4.3487 C   0  0  2  0  0  0  0  0  0  0  0  0
   12.0468    9.7005   -5.5489 C   0  0  0  0  0  0  0  0  0  0  0  0
   12.9973    9.7239   -4.3348 C   0  0  0  0  0  0  0  0  0  0  0  0
   11.1765    6.6898   -3.5373 C   0  0  0  0  0  0  0  0  0  0  0  0
   12.5371    8.4989   -3.6248 O   0  0  0  0  0  0  0  0  0  0  0  0
  1  2  1  0  0  0  0
  2  3  1  0  0  0  0
  2  7  2  0  0  0  0
  4  3  1  6  0  0  0
  4  5  1  0  0  0  0
  4  6  1  0  0  0  0
  4  8  1  0  0  0  0
  5  9  2  0  0  0  0
  6 13  1  0  0  0  0
  7 12  1  0  0  0  0
  8 19  2  0  0  0  0
 10  7  1  1  0  0  0
 10 14  1  0  0  0  0
 10 17  1  0  0  0  0
 11  8  1  6  0  0  0
 11 20  1  0  0  0  0
 11 32  1  0  0  0  0
 12 18  1  0  0  0  0
 12 30  1  1  0  0  0
 12 32  1  0  0  0  0
 13 16  2  0  0  0  0
 13 21  1  0  0  0  0
 14  5  1  1  0  0  0
 14 15  1  0  0  0  0
 14 20  1  0  0  0  0
 15 31  1  0  0  0  0
 15 36  1  0  0  0  0
 17 18  1  0  0  0  0
 17 23  1  0  0  0  0
 18 25  1  0  0  0  0
 18 26  1  0  0  0  0
 19 21  1  0  0  0  0
 19 35  1  0  0  0  0
 20 23  1  0  0  0  0
 21 22  2  0  0  0  0
 22 27  1  0  0  0  0
 23 24  1  0  0  0  0
 23 40  1  0  0  0  0
 24 26  1  0  0  0  0
 24 40  1  0  0  0  0
 26 28  2  0  0  0  0
 27 34  2  0  0  0  0
 27 39  1  0  0  0  0
 28 29  1  0  0  0  0
 28 32  1  0  0  0  0
 29 37  2  0  0  0  0
 31 33  2  0  0  0  0
 31 38  1  0  0  0  0
 34 35  1  0  0  0  0
 35 37  1  0  0  0  0
 36 40  1  0  0  0  0
 39 41  1  0  0  0  0
 39 42  1  0  0  0  0
 41 44  1  0  0  0  0
 41 45  1  0  0  0  0
 42 43  1  0  0  0  0
 43 45  1  0  0  0  0
M  END
$$$$

 OpenBabel10082411353D

 45 56  0  0  0  0  0  0  0  0999 V2000
    8.0806    9.0240  -12.7589 C   0  0  0  0  0  0  0  0  0  0  0  0
    8.6514    7.8645  -12.2948 C   0  0  0  0  0  0  0  0  0  0  0  0
    9.9575    7.9974  -11.8426 C   0  0  0  0  0  0  0  0  0  0  0  0
   10.7657    6.8667  -11.6050 C   0  0  1  0  0  0  0  0  0  0  0  0
   10.7682    5.9590  -12.8271 C   0  0  0  0  0  0  0  0  0  0  0  0
   12.1553    7.3846  -11.2315 C   0  0  0  0  0  0  0  0  0  0  0  0
    8.0676    6.6451  -12.2974 C   0  0  0  0  0  0  0  0  0  0  0  0
   10.1892    6.1240  -10.3860 C   0  0  0  0  0  0  0  0  0  0  0  0
   11.8375    5.4373  -13.3240 O   0  0  0  0  0  0  0  0  0  0  0  0
    8.6785    5.4761  -13.0273 C   0  0  1  0  0  0  0  0  0  0  0  0
    9.1969    5.2405  -10.4969 C   0  0  2  0  0  0  0  0  0  0  0  0
    7.2213    6.2210  -11.3074 C   0  0  2  0  0  0  0  0  0  0  0  0
   12.5590    7.6872   -9.9896 C   0  0  0  0  0  0  0  0  0  0  0  0
    9.7633    5.0333  -12.9720 C   0  0  1  0  0  0  0  0  0  0  0  0
   10.0661    4.0167  -14.0373 N   0  0  0  0  0  0  0  0  0  0  0  0
   13.6906    8.3004   -9.6233 O   0  0  0  0  0  0  0  0  0  0  0  0
    7.6357    4.5123  -12.6317 C   0  0  2  0  0  0  0  0  0  0  0  0
    6.8831    4.9171  -11.7031 C   0  0  2  0  0  0  0  0  0  0  0  0
   10.5937    6.6967   -9.1779 C   0  0  0  0  0  0  0  0  0  0  0  0
    9.5087    4.3263  -11.6925 C   0  0  2  0  0  0  0  0  0  0  0  0
   11.6359    7.4449   -8.9125 C   0  0  0  0  0  0  0  0  0  0  0  0
   11.9716    7.9159   -7.6200 C   0  0  0  0  0  0  0  0  0  0  0  0
    8.4648    3.6122  -12.2840 C   0  0  1  0  0  0  0  0  0  0  0  0
    7.9253    2.8004  -11.3926 C   0  0  0  0  0  0  0  0  0  0  0  0
    5.6047    4.5059  -11.7589 C   0  0  0  0  0  0  0  0  0  0  0  0
    7.6606    4.1297  -10.5699 C   0  0  0  0  0  0  0  0  0  0  0  0
   10.9559    7.6849   -6.6057 C   0  0  0  0  0  0  0  0  0  0  0  0
    8.0094    4.5092   -9.5664 C   0  0  0  0  0  0  0  0  0  0  0  0
    8.3033    4.0627   -8.4980 C   0  0  0  0  0  0  0  0  0  0  0  0
    6.3587    7.1012  -11.0392 O   0  0  0  0  0  0  0  0  0  0  0  0
   11.0186    3.9598  -14.9226 C   0  0  0  0  0  0  0  0  0  0  0  0
    8.1758    5.8633  -10.2511 C   0  0  1  0  0  0  0  0  0  0  0  0
   11.4648    2.7104  -15.2650 O   0  0  0  0  0  0  0  0  0  0  0  0
    9.9512    6.8220   -6.8436 C   0  0  0  0  0  0  0  0  0  0  0  0
    9.6899    6.3705   -8.1082 C   0  0  2  0  0  0  0  0  0  0  0  0
   11.2597    8.2901   -5.2396 C   0  0  0  0  0  0  0  0  0  0  0  0
   11.6068    9.7354   -5.2006 C   0  0  0  0  0  0  0  0  0  0  0  0
   10.9469    4.9352  -15.8306 C   0  0  0  0  0  0  0  0  0  0  0  0
    9.2417    4.9555   -7.8256 C   0  0  0  0  0  0  0  0  0  0  0  0
   11.3657    7.7043   -4.0379 C   0  0  0  0  0  0  0  0  0  0  0  0
   11.4469   10.6225   -6.4157 C   0  0  0  0  0  0  0  0  0  0  0  0
    9.5389    2.7805  -13.2898 C   0  0  0  0  0  0  0  0  0  0  0  0
   11.7644   10.0518   -3.9953 N   0  0  0  0  0  0  0  0  0  0  0  0
   11.7292    8.7313   -2.8834 S   0  0  0  0  0  0  0  0  0  0  0  0
   11.0822    6.1289   -3.7592 C   0  0  0  0  0  0  0  0  0  0  0  0
  1  2  1  0  0  0  0
  2  3  1  0  0  0  0
  2  7  2  0  0  0  0
  4  3  1  6  0  0  0
  4  5  1  0  0  0  0
  4  6  1  0  0  0  0
  4  8  1  0  0  0  0
  5  9  2  0  0  0  0
  6 13  1  0  0  0  0
  7 12  1  0  0  0  0
  8 19  2  0  0  0  0
 10  7  1  1  0  0  0
 10 14  1  0  0  0  0
 10 17  1  0  0  0  0
 11  8  1  6  0  0  0
 11 20  1  0  0  0  0
 11 32  1  0  0  0  0
 12 18  1  0  0  0  0
 12 30  1  1  0  0  0
 12 32  1  0  0  0  0
 13 16  2  0  0  0  0
 13 21  1  0  0  0  0
 14  5  1  1  0  0  0
 14 15  1  0  0  0  0
 14 20  1  0  0  0  0
 15 31  1  0  0  0  0
 15 42  1  0  0  0  0
 17 18  1  0  0  0  0
 17 23  1  0  0  0  0
 18 25  1  0  0  0  0
 18 26  1  0  0  0  0
 19 21  1  0  0  0  0
 19 35  1  0  0  0  0
 20 23  1  0  0  0  0
 21 22  2  0  0  0  0
 22 27  1  0  0  0  0
 23 24  1  0  0  0  0
 23 42  1  0  0  0  0
 24 26  1  0  0  0  0
 26 28  2  0  0  0  0
 27 34  2  0  0  0  0
 27 36  1  0  0  0  0
 28 29  1  0  0  0  0
 28 32  1  0  0  0  0
 29 39  2  0  0  0  0
 31 33  2  0  0  0  0
 31 38  1  0  0  0  0
 34 35  1  0  0  0  0
 35 39  1  0  0  0  0
 36 37  1  0  0  0  0
 36 40  2  0  0  0  0
 37 41  1  0  0  0  0
 37 43  2  0  0  0  0
 40 44  1  0  0  0  0
 40 45  1  0  0  0  0
 43 44  1  0  0  0  0
M  END
$$$$

 OpenBabel10082411353D

 45 51  0  0  0  0  0  0  0  0999 V2000
   11.6836    6.0105   -4.8831 F   0  0  0  0  0  0  0  0  0  0  0  0
   11.2562    7.2206   -5.0294 C   0  0  0  0  0  0  0  0  0  0  0  0
   12.0125    8.2418   -4.4408 C   0  0  0  0  0  0  0  0  0  0  0  0
   11.1918    7.2706   -6.5237 C   0  0  2  0  0  0  0  0  0  0  0  0
   11.6999    8.4488   -3.1704 F   0  0  0  0  0  0  0  0  0  0  0  0
    9.8648    7.0908   -4.5314 F   0  0  0  0  0  0  0  0  0  0  0  0
   11.6831    8.5291   -6.9682 C   0  0  1  0  0  0  0  0  0  0  0  0
   13.3042    8.0958   -4.5769 F   0  0  0  0  0  0  0  0  0  0  0  0
   10.0051    6.7877   -7.1387 C   0  0  2  0  0  0  0  0  0  0  0  0
   12.1549    9.4036   -6.0698 C   0  0  0  0  0  0  0  0  0  0  0  0
   11.7460    9.5074   -4.8672 O   0  0  0  0  0  0  0  0  0  0  0  0
   12.5684    8.5172   -7.8652 C   0  0  0  0  0  0  0  0  0  0  0  0
   10.4250    8.9412   -7.4869 C   0  0  0  0  0  0  0  0  0  0  0  0
    9.8902    5.4070   -7.8206 C   0  0  1  0  0  0  0  0  0  0  0  0
    8.7348    4.6919   -7.6168 C   0  0  0  0  0  0  0  0  0  0  0  0
    9.5887    7.8633   -8.0188 C   0  0  1  0  0  0  0  0  0  0  0  0
   10.0149    7.4671   -9.3945 C   0  0  0  0  0  0  0  0  0  0  0  0
    8.7013    3.5197   -8.2148 C   0  0  0  0  0  0  0  0  0  0  0  0
    9.3794    3.4628   -9.4166 C   0  0  0  0  0  0  0  0  0  0  0  0
    9.7670    8.0902  -10.5147 C   0  0  0  0  0  0  0  0  0  0  0  0
   10.1630    7.7248  -11.8028 C   0  0  0  0  0  0  0  0  0  0  0  0
   10.1363    4.5235   -9.8811 C   0  0  0  0  0  0  0  0  0  0  0  0
   10.2836    5.8862   -9.1314 C   0  0  2  0  0  0  0  0  0  0  0  0
    9.2642    7.6154  -12.7688 C   0  0  0  0  0  0  0  0  0  0  0  0
    9.7352    7.0429  -13.9890 C   0  0  0  0  0  0  0  0  0  0  0  0
    8.9431    5.9978  -14.4048 C   0  0  0  0  0  0  0  0  0  0  0  0
    8.0476    5.1914  -13.6918 C   0  0  0  0  0  0  0  0  0  0  0  0
    8.1490    3.7734  -13.7660 C   0  0  0  0  0  0  0  0  0  0  0  0
    7.0453    3.1418  -12.9717 C   0  0  0  0  0  0  0  0  0  0  0  0
    6.2338    3.8839  -12.1754 C   0  0  0  0  0  0  0  0  0  0  0  0
   10.8369    7.3431  -14.6932 C   0  0  0  0  0  0  0  0  0  0  0  0
    7.2107    5.8505  -12.7998 C   0  0  0  0  0  0  0  0  0  0  0  0
    5.3001    3.0920  -11.3306 F   0  0  0  0  0  0  0  0  0  0  0  0
    7.8586    7.9143  -12.4857 C   0  0  0  0  0  0  0  0  0  0  0  0
    6.3696    5.0319  -12.1370 C   0  0  0  0  0  0  0  0  0  0  0  0
    6.9659    7.0740  -12.5678 C   0  0  0  0  0  0  0  0  0  0  0  0
   11.6802    6.2859  -15.0974 C   0  0  0  0  0  0  0  0  0  0  0  0
   11.4895    5.0617  -14.5281 C   0  0  0  0  0  0  0  0  0  0  0  0
   11.6883    3.9380  -15.1014 C   0  0  0  0  0  0  0  0  0  0  0  0
   11.4745    2.5827  -14.5535 C   0  0  0  0  0  0  0  0  0  0  0  0
   12.6629    6.4155  -15.9530 C   0  0  0  0  0  0  0  0  0  0  0  0
   12.9423    7.7359  -16.4453 O   0  0  0  0  0  0  0  0  0  0  0  0
   12.4632    4.0614  -16.3749 C   0  0  0  0  0  0  0  0  0  0  0  0
   12.8496    2.8526  -16.9882 O   0  0  0  0  0  0  0  0  0  0  0  0
   12.9872    5.2554  -16.7327 C   0  0  0  0  0  0  0  0  0  0  0  0
  1  2  1  0  0  0  0
  2  3  1  0  0  0  0
  2  6  1  0  0  0  0
  3  5  1  0  0  0  0
  3  8  1  0  0  0  0
  3 11  1  0  0  0  0
  4  2  1  1  0  0  0
  4  7  1  0  0  0  0
  4  9  1  0  0  0  0
  7 10  1  0  0  0  0
  7 12  1  6  0  0  0
  7 13  1  0  0  0  0
  9 14  1  0  0  0  0
  9 16  1  0  0  0  0
 10 11  1  0  0  0  0
 13 16  1  0  0  0  0
 14 15  1  0  0  0  0
 14 23  1  0  0  0  0
 15 18  2  0  0  0  0
 16 17  1  0  0  0  0
 17 20  2  3  0  0  0
 17 23  1  0  0  0  0
 18 19  1  0  0  0  0
 19 22  2  0  0  0  0
 20 21  1  0  0  0  0
 21 24  2  3  0  0  0
 22 23  1  0  0  0  0
 24 25  1  0  0  0  0
 24 34  1  0  0  0  0
 25 26  2  0  0  0  0
 25 31  1  0  0  0  0
 26 27  1  0  0  0  0
 27 28  2  0  0  0  0
 27 32  1  0  0  0  0
 28 29  1  0  0  0  0
 29 30  2  0  0  0  0
 30 33  1  0  0  0  0
 30 35  1  0  0  0  0
 31 37  1  0  0  0  0
 32 35  2  0  0  0  0
 32 36  1  0  0  0  0
 34 36  1  0  0  0  0
 37 38  1  0  0  0  0
 37 41  2  0  0  0  0
 38 39  2  0  0  0  0
 39 40  1  0  0  0  0
 39 43  1  0  0  0  0
 41 42  1  0  0  0  0
 41 45  1  0  0  0  0
 43 44  1  0  0  0  0
 43 45  2  0  0  0  0
M  END
$$$$

 OpenBabel10082411353D

 46 58  0  0  0  0  0  0  0  0999 V2000
    8.0806    9.0240  -12.7589 C   0  0  0  0  0  0  0  0  0  0  0  0
    8.6514    7.8645  -12.2948 C   0  0  0  0  0  0  0  0  0  0  0  0
    9.9575    7.9974  -11.8426 C   0  0  0  0  0  0  0  0  0  0  0  0
   10.7657    6.8667  -11.6050 C   0  0  1  0  0  0  0  0  0  0  0  0
   10.7682    5.9590  -12.8271 C   0  0  0  0  0  0  0  0  0  0  0  0
   12.1553    7.3846  -11.2315 C   0  0  0  0  0  0  0  0  0  0  0  0
    8.0676    6.6451  -12.2974 C   0  0  0  0  0  0  0  0  0  0  0  0
   10.1892    6.1240  -10.3860 C   0  0  0  0  0  0  0  0  0  0  0  0
   11.8375    5.4373  -13.3240 O   0  0  0  0  0  0  0  0  0  0  0  0
    8.6785    5.4761  -13.0273 C   0  0  1  0  0  0  0  0  0  0  0  0
    9.1969    5.2405  -10.4969 C   0  0  2  0  0  0  0  0  0  0  0  0
    7.2213    6.2210  -11.3074 C   0  0  2  0  0  0  0  0  0  0  0  0
   12.5590    7.6872   -9.9896 C   0  0  0  0  0  0  0  0  0  0  0  0
    9.7633    5.0333  -12.9720 C   0  0  1  0  0  0  0  0  0  0  0  0
   10.0661    4.0167  -14.0373 N   0  0  0  0  0  0  0  0  0  0  0  0
   13.6906    8.3004   -9.6233 O   0  0  0  0  0  0  0  0  0  0  0  0
    7.6357    4.5123  -12.6317 C   0  0  2  0  0  0  0  0  0  0  0  0
    6.8831    4.9171  -11.7031 C   0  0  2  0  0  0  0  0  0  0  0  0
   10.5937    6.6967   -9.1779 C   0  0  0  0  0  0  0  0  0  0  0  0
    9.5087    4.3263  -11.6925 C   0  0  2  0  0  0  0  0  0  0  0  0
   11.6359    7.4449   -8.9125 C   0  0  0  0  0  0  0  0  0  0  0  0
   11.9716    7.9159   -7.6200 C   0  0  0  0  0  0  0  0  0  0  0  0
    8.4648    3.6122  -12.2840 C   0  0  1  0  0  0  0  0  0  0  0  0
    7.9253    2.8004  -11.3926 C   0  0  2  0  0  0  0  0  0  0  0  0
    5.6047    4.5059  -11.7589 C   0  0  0  0  0  0  0  0  0  0  0  0
    7.6606    4.1297  -10.5699 C   0  0  0  0  0  0  0  0  0  0  0  0
   10.9559    7.6849   -6.6057 C   0  0  0  0  0  0  0  0  0  0  0  0
    8.0094    4.5092   -9.5664 C   0  0  0  0  0  0  0  0  0  0  0  0
    8.3033    4.0627   -8.4980 C   0  0  0  0  0  0  0  0  0  0  0  0
    6.3587    7.1012  -11.0392 O   0  0  0  0  0  0  0  0  0  0  0  0
   11.0186    3.9598  -14.9226 C   0  0  0  0  0  0  0  0  0  0  0  0
    8.1758    5.8633  -10.2511 C   0  0  1  0  0  0  0  0  0  0  0  0
   11.4648    2.7104  -15.2650 O   0  0  0  0  0  0  0  0  0  0  0  0
    9.9512    6.8220   -6.8436 C   0  0  0  0  0  0  0  0  0  0  0  0
    9.6899    6.3705   -8.1082 C   0  0  2  0  0  0  0  0  0  0  0  0
    9.1306    2.9610  -13.9685 C   0  0  0  0  0  0  0  0  0  0  0  0
    8.8414    5.0113   -7.7726 C   0  0  0  0  0  0  0  0  0  0  0  0
   11.6944    4.9031  -15.4200 O   0  0  0  0  0  0  0  0  0  0  0  0
   11.2282    8.3639   -5.2721 C   0  0  0  0  0  0  0  0  0  0  0  0
    8.7016    2.4223  -12.9165 C   0  0  1  0  0  0  0  0  0  0  0  0
   11.9286    7.6722   -4.3404 C   0  0  0  0  0  0  0  0  0  0  0  0
   10.7972    9.7001   -4.9421 C   0  0  0  0  0  0  0  0  0  0  0  0
   12.3405    6.1168   -4.5669 C   0  0  0  0  0  0  0  0  0  0  0  0
   12.3137    8.1587   -3.0956 C   0  0  0  0  0  0  0  0  0  0  0  0
   11.8737    9.7085   -2.8441 C   0  0  0  0  0  0  0  0  0  0  0  0
   11.2648   10.2728   -3.8241 C   0  0  0  0  0  0  0  0  0  0  0  0
  1  2  1  0  0  0  0
  2  3  1  0  0  0  0
  2  7  2  0  0  0  0
  4  3  1  6  0  0  0
  4  5  1  0  0  0  0
  4  6  1  0  0  0  0
  4  8  1  0  0  0  0
  5  9  2  0  0  0  0
  6 13  1  0  0  0  0
  7 12  1  0  0  0  0
  8 19  2  0  0  0  0
 10  7  1  1  0  0  0
 10 14  1  0  0  0  0
 10 17  1  0  0  0  0
 11  8  1  6  0  0  0
 11 20  1  0  0  0  0
 11 32  1  0  0  0  0
 12 18  1  0  0  0  0
 12 30  1  1  0  0  0
 12 32  1  0  0  0  0
 13 16  2  0  0  0  0
 13 21  1  0  0  0  0
 14  5  1  1  0  0  0
 14 15  1  0  0  0  0
 14 20  1  0  0  0  0
 15 31  1  0  0  0  0
 15 36  1  0  0  0  0
 17 18  1  0  0  0  0
 17 23  1  0  0  0  0
 18 25  1  0  0  0  0
 18 26  1  0  0  0  0
 19 21  1  0  0  0  0
 19 35  1  0  0  0  0
 20 23  1  0  0  0  0
 21 22  2  0  0  0  0
 22 27  1  0  0  0  0
 23 24  1  0  0  0  0
 23 40  1  0  0  0  0
 24 26  1  0  0  0  0
 24 40  1  0  0  0  0
 26 28  2  0  0  0  0
 27 34  2  0  0  0  0
 27 39  1  0  0  0  0
 28 29  1  0  0  0  0
 28 32  1  0  0  0  0
 29 37  2  0  0  0  0
 31 33  2  0  0  0  0
 31 38  1  0  0  0  0
 34 35  1  0  0  0  0
 35 37  1  0  0  0  0
 36 40  1  0  0  0  0
 39 41  1  0  0  0  0
 39 42  2  0  0  0  0
 41 43  1  0  0  0  0
 41 44  2  0  0  0  0
 42 46  1  0  0  0  0
 44 45  1  0  0  0  0
 45 46  2  0  0  0  0
M  END
$$$$

 OpenBabel10082411353D

 46 57  0  0  0  0  0  0  0  0999 V2000
    8.0806    9.0240  -12.7589 C   0  0  0  0  0  0  0  0  0  0  0  0
    8.6514    7.8645  -12.2948 C   0  0  0  0  0  0  0  0  0  0  0  0
    9.9575    7.9974  -11.8426 C   0  0  0  0  0  0  0  0  0  0  0  0
   10.7657    6.8667  -11.6050 C   0  0  1  0  0  0  0  0  0  0  0  0
   10.7682    5.9590  -12.8271 C   0  0  0  0  0  0  0  0  0  0  0  0
   12.1553    7.3846  -11.2315 C   0  0  0  0  0  0  0  0  0  0  0  0
    8.0676    6.6451  -12.2974 C   0  0  0  0  0  0  0  0  0  0  0  0
   10.1892    6.1240  -10.3860 C   0  0  0  0  0  0  0  0  0  0  0  0
   11.8375    5.4373  -13.3240 O   0  0  0  0  0  0  0  0  0  0  0  0
    8.6785    5.4761  -13.0273 C   0  0  1  0  0  0  0  0  0  0  0  0
    9.1969    5.2405  -10.4969 C   0  0  2  0  0  0  0  0  0  0  0  0
    7.2213    6.2210  -11.3074 C   0  0  2  0  0  0  0  0  0  0  0  0
   12.5590    7.6872   -9.9896 C   0  0  0  0  0  0  0  0  0  0  0  0
    9.7633    5.0333  -12.9720 C   0  0  1  0  0  0  0  0  0  0  0  0
   10.0661    4.0167  -14.0373 N   0  0  0  0  0  0  0  0  0  0  0  0
   13.6906    8.3004   -9.6233 O   0  0  0  0  0  0  0  0  0  0  0  0
    7.6357    4.5123  -12.6317 C   0  0  2  0  0  0  0  0  0  0  0  0
    6.8831    4.9171  -11.7031 C   0  0  2  0  0  0  0  0  0  0  0  0
   10.5937    6.6967   -9.1779 C   0  0  0  0  0  0  0  0  0  0  0  0
    9.5087    4.3263  -11.6925 C   0  0  2  0  0  0  0  0  0  0  0  0
   11.6359    7.4449   -8.9125 C   0  0  0  0  0  0  0  0  0  0  0  0
   11.9716    7.9159   -7.6200 C   0  0  0  0  0  0  0  0  0  0  0  0
    8.4648    3.6122  -12.2840 C   0  0  1  0  0  0  0  0  0  0  0  0
    7.9253    2.8004  -11.3926 C   0  0  0  0  0  0  0  0  0  0  0  0
    5.6047    4.5059  -11.7589 C   0  0  0  0  0  0  0  0  0  0  0  0
    7.6606    4.1297  -10.5699 C   0  0  0  0  0  0  0  0  0  0  0  0
   10.9559    7.6849   -6.6057 C   0  0  0  0  0  0  0  0  0  0  0  0
    8.0094    4.5092   -9.5664 C   0  0  0  0  0  0  0  0  0  0  0  0
    8.3033    4.0627   -8.4980 C   0  0  0  0  0  0  0  0  0  0  0  0
    6.3587    7.1012  -11.0392 O   0  0  0  0  0  0  0  0  0  0  0  0
   11.0186    3.9598  -14.9226 C   0  0  0  0  0  0  0  0  0  0  0  0
    8.1758    5.8633  -10.2511 C   0  0  1  0  0  0  0  0  0  0  0  0
   11.4648    2.7104  -15.2650 O   0  0  0  0  0  0  0  0  0  0  0  0
    9.9512    6.8220   -6.8436 C   0  0  0  0  0  0  0  0  0  0  0  0
    9.6899    6.3705   -8.1082 C   0  0  2  0  0  0  0  0  0  0  0  0
   11.2597    8.2901   -5.2396 C   0  0  0  0  0  0  0  0  0  0  0  0
   10.9483    4.9354  -15.8312 C   0  0  0  0  0  0  0  0  0  0  0  0
    9.2428    4.9682   -7.8294 C   0  0  0  0  0  0  0  0  0  0  0  0
   11.9211    7.5870   -4.3303 C   0  0  0  0  0  0  0  0  0  0  0  0
   10.9171    9.6712   -4.9168 C   0  0  0  0  0  0  0  0  0  0  0  0
    9.2892    2.8412  -13.6369 C   0  0  0  0  0  0  0  0  0  0  0  0
   10.2684   10.5097   -5.9823 F   0  0  0  0  0  0  0  0  0  0  0  0
   11.2589   10.2500   -3.8079 C   0  0  0  0  0  0  0  0  0  0  0  0
   11.9080    9.5436   -2.8524 C   0  0  0  0  0  0  0  0  0  0  0  0
   12.2800    6.1355   -4.4601 C   0  0  0  0  0  0  0  0  0  0  0  0
   12.2671    8.2500   -3.0711 C   0  0  0  0  0  0  0  0  0  0  0  0
  1  2  1  0  0  0  0
  2  3  1  0  0  0  0
  2  7  2  0  0  0  0
  4  3  1  6  0  0  0
  4  5  1  0  0  0  0
  4  6  1  0  0  0  0
  4  8  1  0  0  0  0
  5  9  2  0  0  0  0
  6 13  1  0  0  0  0
  7 12  1  0  0  0  0
  8 19  2  0  0  0  0
 10  7  1  1  0  0  0
 10 14  1  0  0  0  0
 10 17  1  0  0  0  0
 11  8  1  6  0  0  0
 11 20  1  0  0  0  0
 11 32  1  0  0  0  0
 12 18  1  0  0  0  0
 12 30  1  1  0  0  0
 12 32  1  0  0  0  0
 13 16  2  0  0  0  0
 13 21  1  0  0  0  0
 14  5  1  1  0  0  0
 14 15  1  0  0  0  0
 14 20  1  0  0  0  0
 15 31  1  0  0  0  0
 15 41  1  0  0  0  0
 17 18  1  0  0  0  0
 17 23  1  0  0  0  0
 18 25  1  0  0  0  0
 18 26  1  0  0  0  0
 19 21  1  0  0  0  0
 19 35  1  0  0  0  0
 20 23  1  0  0  0  0
 21 22  2  0  0  0  0
 22 27  1  0  0  0  0
 23 24  1  0  0  0  0
 23 41  1  0  0  0  0
 24 26  1  0  0  0  0
 26 28  2  0  0  0  0
 27 34  2  0  0  0  0
 27 36  1  0  0  0  0
 28 29  1  0  0  0  0
 28 32  1  0  0  0  0
 29 38  1  0  0  0  0
 31 33  2  0  0  0  0
 31 37  1  0  0  0  0
 34 35  1  0  0  0  0
 35 38  1  0  0  0  0
 36 39  1  0  0  0  0
 36 40  2  0  0  0  0
 39 45  1  0  0  0  0
 39 46  2  0  0  0  0
 40 42  1  0  0  0  0
 40 43  1  0  0  0  0
 43 44  2  0  0  0  0
 44 46  1  0  0  0  0
M  END
$$$$

 OpenBabel10082411353D

 46 57  0  0  0  0  0  0  0  0999 V2000
    8.0806    9.0240  -12.7589 C   0  0  0  0  0  0  0  0  0  0  0  0
    8.6514    7.8645  -12.2948 C   0  0  0  0  0  0  0  0  0  0  0  0
    9.9575    7.9974  -11.8426 C   0  0  0  0  0  0  0  0  0  0  0  0
   10.7657    6.8667  -11.6050 C   0  0  1  0  0  0  0  0  0  0  0  0
   10.7682    5.9590  -12.8271 C   0  0  0  0  0  0  0  0  0  0  0  0
   12.1553    7.3846  -11.2315 C   0  0  0  0  0  0  0  0  0  0  0  0
    8.0676    6.6451  -12.2974 C   0  0  0  0  0  0  0  0  0  0  0  0
   10.1892    6.1240  -10.3860 C   0  0  0  0  0  0  0  0  0  0  0  0
   11.8375    5.4373  -13.3240 O   0  0  0  0  0  0  0  0  0  0  0  0
    8.6785    5.4761  -13.0273 C   0  0  1  0  0  0  0  0  0  0  0  0
    9.1969    5.2405  -10.4969 C   0  0  2  0  0  0  0  0  0  0  0  0
    7.2213    6.2210  -11.3074 C   0  0  2  0  0  0  0  0  0  0  0  0
   12.5590    7.6872   -9.9896 C   0  0  0  0  0  0  0  0  0  0  0  0
    9.7633    5.0333  -12.9720 C   0  0  1  0  0  0  0  0  0  0  0  0
   10.0661    4.0167  -14.0373 N   0  0  0  0  0  0  0  0  0  0  0  0
   13.6906    8.3004   -9.6233 O   0  0  0  0  0  0  0  0  0  0  0  0
    7.6357    4.5123  -12.6317 C   0  0  2  0  0  0  0  0  0  0  0  0
    6.8831    4.9171  -11.7031 C   0  0  2  0  0  0  0  0  0  0  0  0
   10.5937    6.6967   -9.1779 C   0  0  0  0  0  0  0  0  0  0  0  0
    9.5087    4.3263  -11.6925 C   0  0  2  0  0  0  0  0  0  0  0  0
   11.6359    7.4449   -8.9125 C   0  0  0  0  0  0  0  0  0  0  0  0
   11.9716    7.9159   -7.6200 C   0  0  0  0  0  0  0  0  0  0  0  0
    8.4648    3.6122  -12.2840 C   0  0  1  0  0  0  0  0  0  0  0  0
    7.9253    2.8004  -11.3926 C   0  0  0  0  0  0  0  0  0  0  0  0
    5.6047    4.5059  -11.7589 C   0  0  0  0  0  0  0  0  0  0  0  0
    7.6606    4.1297  -10.5699 C   0  0  0  0  0  0  0  0  0  0  0  0
   10.9559    7.6849   -6.6057 C   0  0  0  0  0  0  0  0  0  0  0  0
    8.0094    4.5092   -9.5664 C   0  0  0  0  0  0  0  0  0  0  0  0
    8.3033    4.0627   -8.4980 C   0  0  0  0  0  0  0  0  0  0  0  0
    6.3587    7.1012  -11.0392 O   0  0  0  0  0  0  0  0  0  0  0  0
   11.0186    3.9598  -14.9226 C   0  0  0  0  0  0  0  0  0  0  0  0
    8.1758    5.8633  -10.2511 C   0  0  1  0  0  0  0  0  0  0  0  0
   11.4648    2.7104  -15.2650 O   0  0  0  0  0  0  0  0  0  0  0  0
    9.9512    6.8220   -6.8436 C   0  0  0  0  0  0  0  0  0  0  0  0
    9.6899    6.3705   -8.1082 C   0  0  2  0  0  0  0  0  0  0  0  0
   11.2597    8.2901   -5.2396 C   0  0  0  0  0  0  0  0  0  0  0  0
   11.6068    9.7354   -5.2006 C   0  0  0  0  0  0  0  0  0  0  0  0
    9.4261    2.7718  -13.6670 C   0  0  0  0  0  0  0  0  0  0  0  0
    9.1568    5.0346   -7.7426 C   0  0  0  0  0  0  0  0  0  0  0  0
   11.5635    4.9451  -15.5137 O   0  0  0  0  0  0  0  0  0  0  0  0
   11.3722    7.7145   -4.0316 C   0  0  0  0  0  0  0  0  0  0  0  0
   11.1755    6.1721   -3.9933 C   0  0  0  0  0  0  0  0  0  0  0  0
   11.8659    8.2759   -2.8028 C   0  0  0  0  0  0  0  0  0  0  0  0
   12.1570    7.4907   -1.6316 C   0  0  0  0  0  0  0  0  0  0  0  0
   12.1450    9.6837   -2.8275 C   0  0  0  0  0  0  0  0  0  0  0  0
   11.8500   10.4156   -4.0411 C   0  0  0  0  0  0  0  0  0  0  0  0
  1  2  1  0  0  0  0
  2  3  1  0  0  0  0
  2  7  2  0  0  0  0
  4  3  1  6  0  0  0
  4  5  1  0  0  0  0
  4  6  1  0  0  0  0
  4  8  1  0  0  0  0
  5  9  2  0  0  0  0
  6 13  1  0  0  0  0
  7 12  1  0  0  0  0
  8 19  2  0  0  0  0
 10  7  1  1  0  0  0
 10 14  1  0  0  0  0
 10 17  1  0  0  0  0
 11  8  1  6  0  0  0
 11 20  1  0  0  0  0
 11 32  1  0  0  0  0
 12 18  1  0  0  0  0
 12 30  1  1  0  0  0
 12 32  1  0  0  0  0
 13 16  2  0  0  0  0
 13 21  1  0  0  0  0
 14  5  1  1  0  0  0
 14 15  1  0  0  0  0
 14 20  1  0  0  0  0
 15 31  1  0  0  0  0
 15 38  1  0  0  0  0
 17 18  1  0  0  0  0
 17 23  1  0  0  0  0
 18 25  1  0  0  0  0
 18 26  1  0  0  0  0
 19 21  1  0  0  0  0
 19 35  1  0  0  0  0
 20 23  1  0  0  0  0
 21 22  2  0  0  0  0
 22 27  1  0  0  0  0
 23 24  1  0  0  0  0
 23 38  1  0  0  0  0
 24 26  1  0  0  0  0
 26 28  2  0  0  0  0
 27 34  2  0  0  0  0
 27 36  1  0  0  0  0
 28 29  1  0  0  0  0
 28 32  1  0  0  0  0
 29 39  1  0  0  0  0
 31 33  2  0  0  0  0
 31 40  1  0  0  0  0
 34 35  1  0  0  0  0
 35 39  1  0  0  0  0
 36 37  1  0  0  0  0
 36 41  2  0  0  0  0
 37 46  2  0  0  0  0
 41 42  1  0  0  0  0
 41 43  1  0  0  0  0
 43 44  1  0  0  0  0
 43 45  2  0  0  0  0
 45 46  1  0  0  0  0
M  END
$$$$

 OpenBabel10082411353D

 46 58  0  0  0  0  0  0  0  0999 V2000
    8.0806    9.0240  -12.7589 C   0  0  0  0  0  0  0  0  0  0  0  0
    8.6514    7.8645  -12.2948 C   0  0  0  0  0  0  0  0  0  0  0  0
    9.9575    7.9974  -11.8426 C   0  0  0  0  0  0  0  0  0  0  0  0
   10.7657    6.8667  -11.6050 C   0  0  1  0  0  0  0  0  0  0  0  0
   10.7682    5.9590  -12.8271 C   0  0  0  0  0  0  0  0  0  0  0  0
   12.1553    7.3846  -11.2315 C   0  0  0  0  0  0  0  0  0  0  0  0
    8.0676    6.6451  -12.2974 C   0  0  0  0  0  0  0  0  0  0  0  0
   10.1892    6.1240  -10.3860 C   0  0  0  0  0  0  0  0  0  0  0  0
   11.8375    5.4373  -13.3240 O   0  0  0  0  0  0  0  0  0  0  0  0
    8.6785    5.4761  -13.0273 C   0  0  1  0  0  0  0  0  0  0  0  0
    9.1969    5.2405  -10.4969 C   0  0  2  0  0  0  0  0  0  0  0  0
    7.2213    6.2210  -11.3074 C   0  0  2  0  0  0  0  0  0  0  0  0
   12.5590    7.6872   -9.9896 C   0  0  0  0  0  0  0  0  0  0  0  0
    9.7633    5.0333  -12.9720 C   0  0  1  0  0  0  0  0  0  0  0  0
   10.0661    4.0167  -14.0373 N   0  0  0  0  0  0  0  0  0  0  0  0
   13.6906    8.3004   -9.6233 O   0  0  0  0  0  0  0  0  0  0  0  0
    7.6357    4.5123  -12.6317 C   0  0  2  0  0  0  0  0  0  0  0  0
    6.8831    4.9171  -11.7031 C   0  0  2  0  0  0  0  0  0  0  0  0
   10.5937    6.6967   -9.1779 C   0  0  0  0  0  0  0  0  0  0  0  0
    9.5087    4.3263  -11.6925 C   0  0  2  0  0  0  0  0  0  0  0  0
   11.6359    7.4449   -8.9125 C   0  0  0  0  0  0  0  0  0  0  0  0
   11.9716    7.9159   -7.6200 C   0  0  0  0  0  0  0  0  0  0  0  0
    8.4648    3.6122  -12.2840 C   0  0  1  0  0  0  0  0  0  0  0  0
    7.9253    2.8004  -11.3926 C   0  0  2  0  0  0  0  0  0  0  0  0
    5.6047    4.5059  -11.7589 C   0  0  0  0  0  0  0  0  0  0  0  0
    7.6606    4.1297  -10.5699 C   0  0  0  0  0  0  0  0  0  0  0  0
   10.9559    7.6849   -6.6057 C   0  0  0  0  0  0  0  0  0  0  0  0
    8.0094    4.5092   -9.5664 C   0  0  0  0  0  0  0  0  0  0  0  0
    8.3033    4.0627   -8.4980 C   0  0  0  0  0  0  0  0  0  0  0  0
    6.3587    7.1012  -11.0392 O   0  0  0  0  0  0  0  0  0  0  0  0
   11.0186    3.9598  -14.9226 C   0  0  0  0  0  0  0  0  0  0  0  0
    8.1758    5.8633  -10.2511 C   0  0  1  0  0  0  0  0  0  0  0  0
   11.4648    2.7104  -15.2650 O   0  0  0  0  0  0  0  0  0  0  0  0
    9.9512    6.8220   -6.8436 C   0  0  0  0  0  0  0  0  0  0  0  0
    9.6899    6.3705   -8.1082 C   0  0  2  0  0  0  0  0  0  0  0  0
    9.1306    2.9610  -13.9685 C   0  0  0  0  0  0  0  0  0  0  0  0
    8.8414    5.0113   -7.7726 C   0  0  0  0  0  0  0  0  0  0  0  0
   11.6944    4.9031  -15.4200 O   0  0  0  0  0  0  0  0  0  0  0  0
   11.2282    8.3639   -5.2721 C   0  0  0  0  0  0  0  0  0  0  0  0
    8.7016    2.4223  -12.9165 C   0  0  1  0  0  0  0  0  0  0  0  0
   11.9286    7.6722   -4.3404 C   0  0  0  0  0  0  0  0  0  0  0  0
   10.7972    9.7001   -4.9421 C   0  0  0  0  0  0  0  0  0  0  0  0
   12.2581    8.1901   -3.0715 C   0  0  0  0  0  0  0  0  0  0  0  0
   10.1668   10.4828   -6.0100 F   0  0  0  0  0  0  0  0  0  0  0  0
   11.8863    9.5597   -2.8197 C   0  0  0  0  0  0  0  0  0  0  0  0
   11.2359   10.2876   -3.8138 C   0  0  0  0  0  0  0  0  0  0  0  0
  1  2  1  0  0  0  0
  2  3  1  0  0  0  0
  2  7  2  0  0  0  0
  4  3  1  6  0  0  0
  4  5  1  0  0  0  0
  4  6  1  0  0  0  0
  4  8  1  0  0  0  0
  5  9  2  0  0  0  0
  6 13  1  0  0  0  0
  7 12  1  0  0  0  0
  8 19  2  0  0  0  0
 10  7  1  1  0  0  0
 10 14  1  0  0  0  0
 10 17  1  0  0  0  0
 11  8  1  6  0  0  0
 11 20  1  0  0  0  0
 11 32  1  0  0  0  0
 12 18  1  0  0  0  0
 12 30  1  1  0  0  0
 12 32  1  0  0  0  0
 13 16  2  0  0  0  0
 13 21  1  0  0  0  0
 14  5  1  1  0  0  0
 14 15  1  0  0  0  0
 14 20  1  0  0  0  0
 15 31  1  0  0  0  0
 15 36  1  0  0  0  0
 17 18  1  0  0  0  0
 17 23  1  0  0  0  0
 18 25  1  0  0  0  0
 18 26  1  0  0  0  0
 19 21  1  0  0  0  0
 19 35  1  0  0  0  0
 20 23  1  0  0  0  0
 21 22  2  0  0  0  0
 22 27  1  0  0  0  0
 23 24  1  0  0  0  0
 23 40  1  0  0  0  0
 24 26  1  0  0  0  0
 24 40  1  0  0  0  0
 26 28  2  0  0  0  0
 27 34  2  0  0  0  0
 27 39  1  0  0  0  0
 28 29  1  0  0  0  0
 28 32  1  0  0  0  0
 29 37  2  0  0  0  0
 31 33  2  0  0  0  0
 31 38  1  0  0  0  0
 34 35  1  0  0  0  0
 35 37  1  0  0  0  0
 36 40  1  0  0  0  0
 39 41  1  0  0  0  0
 39 42  2  0  0  0  0
 41 43  2  0  0  0  0
 42 44  1  0  0  0  0
 42 46  1  0  0  0  0
 43 45  1  0  0  0  0
 45 46  2  0  0  0  0
M  END
$$$$

 OpenBabel10082411353D

 27 29  0  0  0  0  0  0  0  0999 V2000
   10.7609    9.6228   -4.2714 C   0  0  0  0  0  0  0  0  0  0  0  0
   10.4930    9.4831   -5.5343 C   0  0  0  0  0  0  0  0  0  0  0  0
   11.6139    8.5907   -3.8078 C   0  0  0  0  0  0  0  0  0  0  0  0
   10.6916    8.7185   -6.3306 C   0  0  0  0  0  0  0  0  0  0  0  0
   11.4775    7.4908   -5.9802 C   0  0  0  0  0  0  0  0  0  0  0  0
   10.1045    8.7095   -7.8164 C   0  0  0  0  0  0  0  0  0  0  0  0
   11.8703    7.5203   -4.5985 C   0  0  0  0  0  0  0  0  0  0  0  0
   10.7919    7.9248   -8.8228 C   0  0  2  0  0  0  0  0  0  0  0  0
   11.9364    8.4952   -9.3965 C   0  0  0  0  0  0  0  0  0  0  0  0
    9.8959    7.3469   -9.8494 C   0  0  0  0  0  0  0  0  0  0  0  0
   12.2659    8.0794  -10.7080 C   0  0  0  0  0  0  0  0  0  0  0  0
   10.4408    6.8044  -11.0562 C   0  0  2  0  0  0  0  0  0  0  0  0
   11.4386    7.6856  -11.6482 N   0  0  0  0  0  0  0  0  0  0  0  0
    9.4200    6.2781  -12.0473 C   0  0  2  0  0  0  0  0  0  0  0  0
   11.6788    7.6359  -13.0249 C   0  0  0  0  0  0  0  0  0  0  0  0
   12.6986    7.8374  -13.5514 O   0  0  0  0  0  0  0  0  0  0  0  0
    8.6050    5.1568  -11.5138 C   0  0  0  0  0  0  0  0  0  0  0  0
    9.9990    5.8712  -13.2928 C   0  0  1  0  0  0  0  0  0  0  0  0
   10.5693    7.3889  -13.8893 C   0  0  0  0  0  0  0  0  0  0  0  0
   11.1361    4.9366  -13.2042 C   0  0  0  0  0  0  0  0  0  0  0  0
   10.5789    3.5233  -13.7057 C   0  0  0  0  0  0  0  0  0  0  0  0
   11.3177    2.5330  -14.0069 O   0  0  0  0  0  0  0  0  0  0  0  0
    9.3191    3.3847  -13.5414 O   0  0  0  0  0  0  0  0  0  0  0  0
    9.1356    4.5347  -10.5486 O   0  0  0  0  0  0  0  0  0  0  0  0
    7.4672    4.8499  -11.9765 O   0  0  0  0  0  0  0  0  0  0  0  0
    8.6153    2.8028  -14.5965 C   0  0  0  0  0  0  0  0  0  0  0  0
    6.4525    5.7232  -12.0173 C   0  0  0  0  0  0  0  0  0  0  0  0
  1  2  1  0  0  0  0
  1  3  2  0  0  0  0
  2  4  2  0  0  0  0
  3  7  1  0  0  0  0
  4  5  1  0  0  0  0
  4  6  1  0  0  0  0
  5  7  2  0  0  0  0
  8  6  1  6  0  0  0
  8  9  1  0  0  0  0
  8 10  1  0  0  0  0
  9 11  1  0  0  0  0
 11 13  1  0  0  0  0
 12 10  1  1  0  0  0
 12 13  1  0  0  0  0
 12 14  1  0  0  0  0
 13 15  1  0  0  0  0
 14 17  1  1  0  0  0
 14 18  1  0  0  0  0
 15 16  2  0  0  0  0
 15 19  1  0  0  0  0
 17 24  2  0  0  0  0
 17 25  1  0  0  0  0
 18 19  1  0  0  0  0
 18 20  1  1  0  0  0
 20 21  1  0  0  0  0
 21 22  2  0  0  0  0
 21 23  1  0  0  0  0
 23 26  1  0  0  0  0
 25 27  1  0  0  0  0
M  END
$$$$

 OpenBabel10082411353D

 46 57  0  0  0  0  0  0  0  0999 V2000
    8.0806    9.0240  -12.7589 C   0  0  0  0  0  0  0  0  0  0  0  0
    8.6514    7.8645  -12.2948 C   0  0  0  0  0  0  0  0  0  0  0  0
    9.9575    7.9974  -11.8426 C   0  0  0  0  0  0  0  0  0  0  0  0
   10.7657    6.8667  -11.6050 C   0  0  1  0  0  0  0  0  0  0  0  0
   10.7682    5.9590  -12.8271 C   0  0  0  0  0  0  0  0  0  0  0  0
   12.1553    7.3846  -11.2315 C   0  0  0  0  0  0  0  0  0  0  0  0
    8.0676    6.6451  -12.2974 C   0  0  0  0  0  0  0  0  0  0  0  0
   10.1892    6.1240  -10.3860 C   0  0  0  0  0  0  0  0  0  0  0  0
   11.8375    5.4373  -13.3240 O   0  0  0  0  0  0  0  0  0  0  0  0
    8.6785    5.4761  -13.0273 C   0  0  1  0  0  0  0  0  0  0  0  0
    9.1969    5.2405  -10.4969 C   0  0  2  0  0  0  0  0  0  0  0  0
    7.2213    6.2210  -11.3074 C   0  0  2  0  0  0  0  0  0  0  0  0
   12.5590    7.6872   -9.9896 C   0  0  0  0  0  0  0  0  0  0  0  0
    9.7633    5.0333  -12.9720 C   0  0  1  0  0  0  0  0  0  0  0  0
   10.0661    4.0167  -14.0373 N   0  0  0  0  0  0  0  0  0  0  0  0
   13.6906    8.3004   -9.6233 O   0  0  0  0  0  0  0  0  0  0  0  0
    7.6357    4.5123  -12.6317 C   0  0  2  0  0  0  0  0  0  0  0  0
    6.8831    4.9171  -11.7031 C   0  0  2  0  0  0  0  0  0  0  0  0
   10.5937    6.6967   -9.1779 C   0  0  0  0  0  0  0  0  0  0  0  0
    9.5087    4.3263  -11.6925 C   0  0  2  0  0  0  0  0  0  0  0  0
   11.6359    7.4449   -8.9125 C   0  0  0  0  0  0  0  0  0  0  0  0
   11.9716    7.9159   -7.6200 C   0  0  0  0  0  0  0  0  0  0  0  0
    8.4648    3.6122  -12.2840 C   0  0  1  0  0  0  0  0  0  0  0  0
    7.9253    2.8004  -11.3926 C   0  0  0  0  0  0  0  0  0  0  0  0
    5.6047    4.5059  -11.7589 C   0  0  0  0  0  0  0  0  0  0  0  0
    7.6606    4.1297  -10.5699 C   0  0  0  0  0  0  0  0  0  0  0  0
   10.9559    7.6849   -6.6057 C   0  0  0  0  0  0  0  0  0  0  0  0
    8.0094    4.5092   -9.5664 C   0  0  0  0  0  0  0  0  0  0  0  0
    8.3033    4.0627   -8.4980 C   0  0  0  0  0  0  0  0  0  0  0  0
    6.3587    7.1012  -11.0392 O   0  0  0  0  0  0  0  0  0  0  0  0
   11.0186    3.9598  -14.9226 C   0  0  0  0  0  0  0  0  0  0  0  0
    8.1758    5.8633  -10.2511 C   0  0  1  0  0  0  0  0  0  0  0  0
   11.4648    2.7104  -15.2650 O   0  0  0  0  0  0  0  0  0  0  0  0
    9.9512    6.8220   -6.8436 C   0  0  0  0  0  0  0  0  0  0  0  0
    9.6899    6.3705   -8.1082 C   0  0  2  0  0  0  0  0  0  0  0  0
   11.2597    8.2901   -5.2396 C   0  0  0  0  0  0  0  0  0  0  0  0
   11.7295    4.9426  -15.4284 O   0  0  0  0  0  0  0  0  0  0  0  0
    9.2745    4.9481   -7.8103 C   0  0  0  0  0  0  0  0  0  0  0  0
    9.1757    2.9301  -13.7559 C   0  0  0  0  0  0  0  0  0  0  0  0
   11.9187    7.5856   -4.3294 C   0  0  0  0  0  0  0  0  0  0  0  0
   11.7781    6.4587   -4.0864 C   0  0  0  0  0  0  0  0  0  0  0  0
   10.9546    9.6992   -5.1271 C   0  0  0  0  0  0  0  0  0  0  0  0
   12.3266    8.5303   -3.0711 C   0  0  0  0  0  0  0  0  0  0  0  0
   12.0834    9.8035   -2.9955 C   0  0  0  0  0  0  0  0  0  0  0  0
   10.2713   10.4778   -6.2030 F   0  0  0  0  0  0  0  0  0  0  0  0
   11.4065   10.4360   -4.0332 C   0  0  0  0  0  0  0  0  0  0  0  0
  1  2  1  0  0  0  0
  2  3  1  0  0  0  0
  2  7  2  0  0  0  0
  4  3  1  6  0  0  0
  4  5  1  0  0  0  0
  4  6  1  0  0  0  0
  4  8  1  0  0  0  0
  5  9  2  0  0  0  0
  6 13  1  0  0  0  0
  7 12  1  0  0  0  0
  8 19  2  0  0  0  0
 10  7  1  1  0  0  0
 10 14  1  0  0  0  0
 10 17  1  0  0  0  0
 11  8  1  6  0  0  0
 11 20  1  0  0  0  0
 11 32  1  0  0  0  0
 12 18  1  0  0  0  0
 12 30  1  1  0  0  0
 12 32  1  0  0  0  0
 13 16  2  0  0  0  0
 13 21  1  0  0  0  0
 14  5  1  1  0  0  0
 14 15  1  0  0  0  0
 14 20  1  0  0  0  0
 15 31  1  0  0  0  0
 15 39  1  0  0  0  0
 17 18  1  0  0  0  0
 17 23  1  0  0  0  0
 18 25  1  0  0  0  0
 18 26  1  0  0  0  0
 19 21  1  0  0  0  0
 19 35  1  0  0  0  0
 20 23  1  0  0  0  0
 21 22  2  0  0  0  0
 22 27  1  0  0  0  0
 23 24  1  0  0  0  0
 23 39  1  0  0  0  0
 24 26  1  0  0  0  0
 26 28  2  0  0  0  0
 27 34  2  0  0  0  0
 27 36  1  0  0  0  0
 28 29  1  0  0  0  0
 28 32  1  0  0  0  0
 29 38  1  0  0  0  0
 31 33  2  0  0  0  0
 31 37  1  0  0  0  0
 34 35  1  0  0  0  0
 35 38  1  0  0  0  0
 36 40  1  0  0  0  0
 36 42  2  0  0  0  0
 40 41  2  0  0  0  0
 40 43  1  0  0  0  0
 42 45  1  0  0  0  0
 42 46  1  0  0  0  0
 43 44  2  0  0  0  0
 44 46  1  0  0  0  0
M  END
$$$$

 OpenBabel10082411353D

 46 57  0  0  0  0  0  0  0  0999 V2000
    8.0806    9.0240  -12.7589 C   0  0  0  0  0  0  0  0  0  0  0  0
    8.6514    7.8645  -12.2948 C   0  0  0  0  0  0  0  0  0  0  0  0
    9.9575    7.9974  -11.8426 C   0  0  0  0  0  0  0  0  0  0  0  0
   10.7657    6.8667  -11.6050 C   0  0  1  0  0  0  0  0  0  0  0  0
   10.7682    5.9590  -12.8271 C   0  0  0  0  0  0  0  0  0  0  0  0
   12.1553    7.3846  -11.2315 C   0  0  0  0  0  0  0  0  0  0  0  0
    8.0676    6.6451  -12.2974 C   0  0  0  0  0  0  0  0  0  0  0  0
   10.1892    6.1240  -10.3860 C   0  0  0  0  0  0  0  0  0  0  0  0
   11.8375    5.4373  -13.3240 O   0  0  0  0  0  0  0  0  0  0  0  0
    8.6785    5.4761  -13.0273 C   0  0  1  0  0  0  0  0  0  0  0  0
    9.1969    5.2405  -10.4969 C   0  0  2  0  0  0  0  0  0  0  0  0
    7.2213    6.2210  -11.3074 C   0  0  2  0  0  0  0  0  0  0  0  0
   12.5590    7.6872   -9.9896 C   0  0  0  0  0  0  0  0  0  0  0  0
    9.7633    5.0333  -12.9720 C   0  0  1  0  0  0  0  0  0  0  0  0
   10.0661    4.0167  -14.0373 N   0  0  0  0  0  0  0  0  0  0  0  0
   13.6906    8.3004   -9.6233 O   0  0  0  0  0  0  0  0  0  0  0  0
    7.6357    4.5123  -12.6317 C   0  0  2  0  0  0  0  0  0  0  0  0
    6.8831    4.9171  -11.7031 C   0  0  2  0  0  0  0  0  0  0  0  0
   10.5937    6.6967   -9.1779 C   0  0  0  0  0  0  0  0  0  0  0  0
    9.5087    4.3263  -11.6925 C   0  0  2  0  0  0  0  0  0  0  0  0
   11.6359    7.4449   -8.9125 C   0  0  0  0  0  0  0  0  0  0  0  0
   11.9716    7.9159   -7.6200 C   0  0  0  0  0  0  0  0  0  0  0  0
    8.4648    3.6122  -12.2840 C   0  0  1  0  0  0  0  0  0  0  0  0
    7.9253    2.8004  -11.3926 C   0  0  0  0  0  0  0  0  0  0  0  0
    5.6047    4.5059  -11.7589 C   0  0  0  0  0  0  0  0  0  0  0  0
    7.6606    4.1297  -10.5699 C   0  0  0  0  0  0  0  0  0  0  0  0
   10.9559    7.6849   -6.6057 C   0  0  0  0  0  0  0  0  0  0  0  0
    8.0094    4.5092   -9.5664 C   0  0  0  0  0  0  0  0  0  0  0  0
    8.3033    4.0627   -8.4980 C   0  0  0  0  0  0  0  0  0  0  0  0
    6.3587    7.1012  -11.0392 O   0  0  0  0  0  0  0  0  0  0  0  0
   11.0186    3.9598  -14.9226 C   0  0  0  0  0  0  0  0  0  0  0  0
    8.1758    5.8633  -10.2511 C   0  0  1  0  0  0  0  0  0  0  0  0
   11.4648    2.7104  -15.2650 O   0  0  0  0  0  0  0  0  0  0  0  0
    9.9512    6.8220   -6.8436 C   0  0  0  0  0  0  0  0  0  0  0  0
    9.6899    6.3705   -8.1082 C   0  0  2  0  0  0  0  0  0  0  0  0
   11.2597    8.2901   -5.2396 C   0  0  0  0  0  0  0  0  0  0  0  0
   11.6068    9.7354   -5.2006 C   0  0  0  0  0  0  0  0  0  0  0  0
    9.4261    2.7718  -13.6670 C   0  0  0  0  0  0  0  0  0  0  0  0
    9.1568    5.0346   -7.7426 C   0  0  0  0  0  0  0  0  0  0  0  0
   11.2083    4.9304  -15.6781 O   0  0  0  0  0  0  0  0  0  0  0  0
   11.3723    7.7138   -4.0322 C   0  0  0  0  0  0  0  0  0  0  0  0
   11.7127    8.2343   -2.8399 C   0  0  0  0  0  0  0  0  0  0  0  0
   11.4239   10.6349   -6.4294 C   0  0  0  0  0  0  0  0  0  0  0  0
   11.8963    7.3533   -1.6446 C   0  0  0  0  0  0  0  0  0  0  0  0
   12.1394    9.4429   -2.9085 C   0  0  0  0  0  0  0  0  0  0  0  0
   11.9787   10.3156   -4.0157 C   0  0  0  0  0  0  0  0  0  0  0  0
  1  2  1  0  0  0  0
  2  3  1  0  0  0  0
  2  7  2  0  0  0  0
  4  3  1  6  0  0  0
  4  5  1  0  0  0  0
  4  6  1  0  0  0  0
  4  8  1  0  0  0  0
  5  9  2  0  0  0  0
  6 13  1  0  0  0  0
  7 12  1  0  0  0  0
  8 19  2  0  0  0  0
 10  7  1  1  0  0  0
 10 14  1  0  0  0  0
 10 17  1  0  0  0  0
 11  8  1  6  0  0  0
 11 20  1  0  0  0  0
 11 32  1  0  0  0  0
 12 18  1  0  0  0  0
 12 30  1  1  0  0  0
 12 32  1  0  0  0  0
 13 16  2  0  0  0  0
 13 21  1  0  0  0  0
 14  5  1  1  0  0  0
 14 15  1  0  0  0  0
 14 20  1  0  0  0  0
 15 31  1  0  0  0  0
 15 38  1  0  0  0  0
 17 18  1  0  0  0  0
 17 23  1  0  0  0  0
 18 25  1  0  0  0  0
 18 26  1  0  0  0  0
 19 21  1  0  0  0  0
 19 35  1  0  0  0  0
 20 23  1  0  0  0  0
 21 22  2  0  0  0  0
 22 27  1  0  0  0  0
 23 24  1  0  0  0  0
 23 38  1  0  0  0  0
 24 26  1  0  0  0  0
 26 28  2  0  0  0  0
 27 34  2  0  0  0  0
 27 36  1  0  0  0  0
 28 29  1  0  0  0  0
 28 32  1  0  0  0  0
 29 39  1  0  0  0  0
 31 33  2  0  0  0  0
 31 40  1  0  0  0  0
 34 35  1  0  0  0  0
 35 39  1  0  0  0  0
 36 37  1  0  0  0  0
 36 41  2  0  0  0  0
 37 43  1  0  0  0  0
 37 46  2  0  0  0  0
 41 42  1  0  0  0  0
 42 44  1  0  0  0  0
 42 45  2  0  0  0  0
 45 46  1  0  0  0  0
M  END
$$$$

 OpenBabel10082411353D

 46 57  0  0  0  0  0  0  0  0999 V2000
    8.0806    9.0240  -12.7589 C   0  0  0  0  0  0  0  0  0  0  0  0
    8.6514    7.8645  -12.2948 C   0  0  0  0  0  0  0  0  0  0  0  0
    9.9575    7.9974  -11.8426 C   0  0  0  0  0  0  0  0  0  0  0  0
   10.7657    6.8667  -11.6050 C   0  0  1  0  0  0  0  0  0  0  0  0
   10.7682    5.9590  -12.8271 C   0  0  0  0  0  0  0  0  0  0  0  0
   12.1553    7.3846  -11.2315 C   0  0  0  0  0  0  0  0  0  0  0  0
    8.0676    6.6451  -12.2974 C   0  0  0  0  0  0  0  0  0  0  0  0
   10.1892    6.1240  -10.3860 C   0  0  0  0  0  0  0  0  0  0  0  0
   11.8375    5.4373  -13.3240 O   0  0  0  0  0  0  0  0  0  0  0  0
    8.6785    5.4761  -13.0273 C   0  0  1  0  0  0  0  0  0  0  0  0
    9.1969    5.2405  -10.4969 C   0  0  2  0  0  0  0  0  0  0  0  0
    7.2213    6.2210  -11.3074 C   0  0  2  0  0  0  0  0  0  0  0  0
   12.5590    7.6872   -9.9896 C   0  0  0  0  0  0  0  0  0  0  0  0
    9.7633    5.0333  -12.9720 C   0  0  1  0  0  0  0  0  0  0  0  0
   10.0661    4.0167  -14.0373 N   0  0  0  0  0  0  0  0  0  0  0  0
   13.6906    8.3004   -9.6233 O   0  0  0  0  0  0  0  0  0  0  0  0
    7.6357    4.5123  -12.6317 C   0  0  2  0  0  0  0  0  0  0  0  0
    6.8831    4.9171  -11.7031 C   0  0  2  0  0  0  0  0  0  0  0  0
   10.5937    6.6967   -9.1779 C   0  0  0  0  0  0  0  0  0  0  0  0
    9.5087    4.3263  -11.6925 C   0  0  2  0  0  0  0  0  0  0  0  0
   11.6359    7.4449   -8.9125 C   0  0  0  0  0  0  0  0  0  0  0  0
   11.9716    7.9159   -7.6200 C   0  0  0  0  0  0  0  0  0  0  0  0
    8.4648    3.6122  -12.2840 C   0  0  1  0  0  0  0  0  0  0  0  0
    7.9253    2.8004  -11.3926 C   0  0  0  0  0  0  0  0  0  0  0  0
    5.6047    4.5059  -11.7589 C   0  0  0  0  0  0  0  0  0  0  0  0
    7.6606    4.1297  -10.5699 C   0  0  0  0  0  0  0  0  0  0  0  0
   10.9559    7.6849   -6.6057 C   0  0  0  0  0  0  0  0  0  0  0  0
    8.0094    4.5092   -9.5664 C   0  0  0  0  0  0  0  0  0  0  0  0
    8.3033    4.0627   -8.4980 C   0  0  0  0  0  0  0  0  0  0  0  0
    6.3587    7.1012  -11.0392 O   0  0  0  0  0  0  0  0  0  0  0  0
   11.0186    3.9598  -14.9226 C   0  0  0  0  0  0  0  0  0  0  0  0
    8.1758    5.8633  -10.2511 C   0  0  1  0  0  0  0  0  0  0  0  0
    9.4315    2.8557  -13.5931 C   0  0  0  0  0  0  0  0  0  0  0  0
   11.5906    2.6986  -15.1672 C   0  0  0  0  0  0  0  0  0  0  0  0
    9.9783    6.7760   -6.8364 C   0  0  0  0  0  0  0  0  0  0  0  0
    9.7446    6.4267   -8.0721 C   0  0  2  0  0  0  0  0  0  0  0  0
   11.2061    4.8269  -15.6646 O   0  0  0  0  0  0  0  0  0  0  0  0
    9.0742    5.1188   -7.7353 C   0  0  0  0  0  0  0  0  0  0  0  0
   11.2514    8.3570   -5.2635 C   0  0  0  0  0  0  0  0  0  0  0  0
   11.7290    9.7516   -5.2520 C   0  0  0  0  0  0  0  0  0  0  0  0
   11.3145    7.7538   -4.0409 C   0  0  0  0  0  0  0  0  0  0  0  0
   11.6152   10.5942   -6.5063 C   0  0  0  0  0  0  0  0  0  0  0  0
   12.0480   10.3279   -4.0742 C   0  0  0  0  0  0  0  0  0  0  0  0
   10.9624    6.1690   -4.0166 C   0  0  0  0  0  0  0  0  0  0  0  0
   11.7028    8.2322   -2.8377 C   0  0  0  0  0  0  0  0  0  0  0  0
   12.2064    9.6092   -2.8489 C   0  0  0  0  0  0  0  0  0  0  0  0
  1  2  1  0  0  0  0
  2  3  1  0  0  0  0
  2  7  2  0  0  0  0
  4  3  1  6  0  0  0
  4  5  1  0  0  0  0
  4  6  1  0  0  0  0
  4  8  1  0  0  0  0
  5  9  2  0  0  0  0
  6 13  1  0  0  0  0
  7 12  1  0  0  0  0
  8 19  2  0  0  0  0
 10  7  1  1  0  0  0
 10 14  1  0  0  0  0
 10 17  1  0  0  0  0
 11  8  1  6  0  0  0
 11 20  1  0  0  0  0
 11 32  1  0  0  0  0
 12 18  1  0  0  0  0
 12 30  1  1  0  0  0
 12 32  1  0  0  0  0
 13 16  2  0  0  0  0
 13 21  1  0  0  0  0
 14  5  1  1  0  0  0
 14 15  1  0  0  0  0
 14 20  1  0  0  0  0
 15 31  1  0  0  0  0
 15 33  1  0  0  0  0
 17 18  1  0  0  0  0
 17 23  1  0  0  0  0
 18 25  1  0  0  0  0
 18 26  1  0  0  0  0
 19 21  1  0  0  0  0
 19 36  1  0  0  0  0
 20 23  1  0  0  0  0
 21 22  2  0  0  0  0
 22 27  1  0  0  0  0
 23 24  1  0  0  0  0
 23 33  1  0  0  0  0
 24 26  1  0  0  0  0
 26 28  2  0  0  0  0
 27 35  2  0  0  0  0
 27 39  1  0  0  0  0
 28 29  1  0  0  0  0
 28 32  1  0  0  0  0
 29 38  1  0  0  0  0
 31 34  1  0  0  0  0
 31 37  2  0  0  0  0
 35 36  1  0  0  0  0
 36 38  1  0  0  0  0
 39 40  1  0  0  0  0
 39 41  2  0  0  0  0
 40 42  1  0  0  0  0
 40 43  2  0  0  0  0
 41 44  1  0  0  0  0
 41 45  1  0  0  0  0
 43 46  1  0  0  0  0
 45 46  2  0  0  0  0
M  END
$$$$

 OpenBabel10082411353D

 46 58  0  0  0  0  0  0  0  0999 V2000
    8.0806    9.0240  -12.7589 C   0  0  0  0  0  0  0  0  0  0  0  0
    8.6514    7.8645  -12.2948 C   0  0  0  0  0  0  0  0  0  0  0  0
    9.9575    7.9974  -11.8426 C   0  0  0  0  0  0  0  0  0  0  0  0
   10.7657    6.8667  -11.6050 C   0  0  1  0  0  0  0  0  0  0  0  0
   10.7682    5.9590  -12.8271 C   0  0  0  0  0  0  0  0  0  0  0  0
   12.1553    7.3846  -11.2315 C   0  0  0  0  0  0  0  0  0  0  0  0
    8.0676    6.6451  -12.2974 C   0  0  0  0  0  0  0  0  0  0  0  0
   10.1892    6.1240  -10.3860 C   0  0  0  0  0  0  0  0  0  0  0  0
   11.8375    5.4373  -13.3240 O   0  0  0  0  0  0  0  0  0  0  0  0
    8.6785    5.4761  -13.0273 C   0  0  1  0  0  0  0  0  0  0  0  0
    9.1969    5.2405  -10.4969 C   0  0  2  0  0  0  0  0  0  0  0  0
    7.2213    6.2210  -11.3074 C   0  0  2  0  0  0  0  0  0  0  0  0
   12.5590    7.6872   -9.9896 C   0  0  0  0  0  0  0  0  0  0  0  0
    9.7633    5.0333  -12.9720 C   0  0  1  0  0  0  0  0  0  0  0  0
   10.0661    4.0167  -14.0373 N   0  0  0  0  0  0  0  0  0  0  0  0
   13.6906    8.3004   -9.6233 O   0  0  0  0  0  0  0  0  0  0  0  0
    7.6357    4.5123  -12.6317 C   0  0  2  0  0  0  0  0  0  0  0  0
    6.8831    4.9171  -11.7031 C   0  0  2  0  0  0  0  0  0  0  0  0
   10.5937    6.6967   -9.1779 C   0  0  0  0  0  0  0  0  0  0  0  0
    9.5087    4.3263  -11.6925 C   0  0  2  0  0  0  0  0  0  0  0  0
   11.6359    7.4449   -8.9125 C   0  0  0  0  0  0  0  0  0  0  0  0
   11.9716    7.9159   -7.6200 C   0  0  0  0  0  0  0  0  0  0  0  0
    8.4648    3.6122  -12.2840 C   0  0  1  0  0  0  0  0  0  0  0  0
    7.9253    2.8004  -11.3926 C   0  0  2  0  0  0  0  0  0  0  0  0
    5.6047    4.5059  -11.7589 C   0  0  0  0  0  0  0  0  0  0  0  0
    7.6606    4.1297  -10.5699 C   0  0  0  0  0  0  0  0  0  0  0  0
   10.9559    7.6849   -6.6057 C   0  0  0  0  0  0  0  0  0  0  0  0
    8.0094    4.5092   -9.5664 C   0  0  0  0  0  0  0  0  0  0  0  0
    8.3033    4.0627   -8.4980 C   0  0  0  0  0  0  0  0  0  0  0  0
    6.3587    7.1012  -11.0392 O   0  0  0  0  0  0  0  0  0  0  0  0
   11.0186    3.9598  -14.9226 C   0  0  0  0  0  0  0  0  0  0  0  0
    8.1758    5.8633  -10.2511 C   0  0  1  0  0  0  0  0  0  0  0  0
   11.4648    2.7104  -15.2650 O   0  0  0  0  0  0  0  0  0  0  0  0
    9.9512    6.8220   -6.8436 C   0  0  0  0  0  0  0  0  0  0  0  0
    9.6899    6.3705   -8.1082 C   0  0  2  0  0  0  0  0  0  0  0  0
    9.1306    2.9610  -13.9685 C   0  0  0  0  0  0  0  0  0  0  0  0
    8.8414    5.0113   -7.7726 C   0  0  0  0  0  0  0  0  0  0  0  0
   11.6944    4.9031  -15.4200 O   0  0  0  0  0  0  0  0  0  0  0  0
   11.2282    8.3639   -5.2721 C   0  0  0  0  0  0  0  0  0  0  0  0
    8.7016    2.4223  -12.9165 C   0  0  1  0  0  0  0  0  0  0  0  0
   11.9286    7.6722   -4.3404 C   0  0  0  0  0  0  0  0  0  0  0  0
   10.7972    9.7001   -4.9421 C   0  0  0  0  0  0  0  0  0  0  0  0
   12.1696    8.4917   -3.0630 C   0  0  0  0  0  0  0  0  0  0  0  0
   12.9383    7.6492   -1.9495 C   0  0  0  0  0  0  0  0  0  0  0  0
   11.8470    9.8137   -2.9330 C   0  0  0  0  0  0  0  0  0  0  0  0
   11.1812   10.4048   -3.8383 N   0  0  0  0  0  0  0  0  0  0  0  0
  1  2  1  0  0  0  0
  2  3  1  0  0  0  0
  2  7  2  0  0  0  0
  4  3  1  6  0  0  0
  4  5  1  0  0  0  0
  4  6  1  0  0  0  0
  4  8  1  0  0  0  0
  5  9  2  0  0  0  0
  6 13  1  0  0  0  0
  7 12  1  0  0  0  0
  8 19  2  0  0  0  0
 10  7  1  1  0  0  0
 10 14  1  0  0  0  0
 10 17  1  0  0  0  0
 11  8  1  6  0  0  0
 11 20  1  0  0  0  0
 11 32  1  0  0  0  0
 12 18  1  0  0  0  0
 12 30  1  1  0  0  0
 12 32  1  0  0  0  0
 13 16  2  0  0  0  0
 13 21  1  0  0  0  0
 14  5  1  1  0  0  0
 14 15  1  0  0  0  0
 14 20  1  0  0  0  0
 15 31  1  0  0  0  0
 15 36  1  0  0  0  0
 17 18  1  0  0  0  0
 17 23  1  0  0  0  0
 18 25  1  0  0  0  0
 18 26  1  0  0  0  0
 19 21  1  0  0  0  0
 19 35  1  0  0  0  0
 20 23  1  0  0  0  0
 21 22  2  0  0  0  0
 22 27  1  0  0  0  0
 23 24  1  0  0  0  0
 23 40  1  0  0  0  0
 24 26  1  0  0  0  0
 24 40  1  0  0  0  0
 26 28  2  0  0  0  0
 27 34  2  0  0  0  0
 27 39  1  0  0  0  0
 28 29  1  0  0  0  0
 28 32  1  0  0  0  0
 29 37  2  0  0  0  0
 31 33  2  0  0  0  0
 31 38  1  0  0  0  0
 34 35  1  0  0  0  0
 35 37  1  0  0  0  0
 36 40  1  0  0  0  0
 39 41  1  0  0  0  0
 39 42  2  0  0  0  0
 41 43  2  0  0  0  0
 42 46  1  0  0  0  0
 43 44  1  0  0  0  0
 43 45  1  0  0  0  0
 45 46  2  0  0  0  0
M  END
$$$$

 OpenBabel10082411353D

 46 57  0  0  0  0  0  0  0  0999 V2000
    8.0806    9.0240  -12.7589 C   0  0  0  0  0  0  0  0  0  0  0  0
    8.6514    7.8645  -12.2948 C   0  0  0  0  0  0  0  0  0  0  0  0
    9.9575    7.9974  -11.8426 C   0  0  0  0  0  0  0  0  0  0  0  0
   10.7657    6.8667  -11.6050 C   0  0  1  0  0  0  0  0  0  0  0  0
   10.7682    5.9590  -12.8271 C   0  0  0  0  0  0  0  0  0  0  0  0
   12.1553    7.3846  -11.2315 C   0  0  0  0  0  0  0  0  0  0  0  0
    8.0676    6.6451  -12.2974 C   0  0  0  0  0  0  0  0  0  0  0  0
   10.1892    6.1240  -10.3860 C   0  0  0  0  0  0  0  0  0  0  0  0
   11.8375    5.4373  -13.3240 O   0  0  0  0  0  0  0  0  0  0  0  0
    8.6785    5.4761  -13.0273 C   0  0  1  0  0  0  0  0  0  0  0  0
    9.1969    5.2405  -10.4969 C   0  0  2  0  0  0  0  0  0  0  0  0
    7.2213    6.2210  -11.3074 C   0  0  2  0  0  0  0  0  0  0  0  0
   12.5590    7.6872   -9.9896 C   0  0  0  0  0  0  0  0  0  0  0  0
    9.7633    5.0333  -12.9720 C   0  0  1  0  0  0  0  0  0  0  0  0
   10.0661    4.0167  -14.0373 N   0  0  0  0  0  0  0  0  0  0  0  0
   13.6906    8.3004   -9.6233 O   0  0  0  0  0  0  0  0  0  0  0  0
    7.6357    4.5123  -12.6317 C   0  0  2  0  0  0  0  0  0  0  0  0
    6.8831    4.9171  -11.7031 C   0  0  2  0  0  0  0  0  0  0  0  0
   10.5937    6.6967   -9.1779 C   0  0  0  0  0  0  0  0  0  0  0  0
    9.5087    4.3263  -11.6925 C   0  0  2  0  0  0  0  0  0  0  0  0
   11.6359    7.4449   -8.9125 C   0  0  0  0  0  0  0  0  0  0  0  0
   11.9716    7.9159   -7.6200 C   0  0  0  0  0  0  0  0  0  0  0  0
    8.4648    3.6122  -12.2840 C   0  0  1  0  0  0  0  0  0  0  0  0
    7.9253    2.8004  -11.3926 C   0  0  0  0  0  0  0  0  0  0  0  0
    5.6047    4.5059  -11.7589 C   0  0  0  0  0  0  0  0  0  0  0  0
    7.6606    4.1297  -10.5699 C   0  0  0  0  0  0  0  0  0  0  0  0
   10.9559    7.6849   -6.6057 C   0  0  0  0  0  0  0  0  0  0  0  0
    8.0094    4.5092   -9.5664 C   0  0  0  0  0  0  0  0  0  0  0  0
    8.3033    4.0627   -8.4980 C   0  0  0  0  0  0  0  0  0  0  0  0
    6.3587    7.1012  -11.0392 O   0  0  0  0  0  0  0  0  0  0  0  0
   11.0186    3.9598  -14.9226 C   0  0  0  0  0  0  0  0  0  0  0  0
    8.1758    5.8633  -10.2511 C   0  0  1  0  0  0  0  0  0  0  0  0
    9.4315    2.8557  -13.5931 C   0  0  0  0  0  0  0  0  0  0  0  0
   11.5906    2.6986  -15.1672 C   0  0  0  0  0  0  0  0  0  0  0  0
    9.9783    6.7760   -6.8364 C   0  0  0  0  0  0  0  0  0  0  0  0
    9.7446    6.4267   -8.0721 C   0  0  2  0  0  0  0  0  0  0  0  0
   11.2061    4.8269  -15.6646 O   0  0  0  0  0  0  0  0  0  0  0  0
    9.0742    5.1188   -7.7353 C   0  0  0  0  0  0  0  0  0  0  0  0
   11.2514    8.3570   -5.2635 C   0  0  0  0  0  0  0  0  0  0  0  0
   11.7290    9.7516   -5.2520 C   0  0  0  0  0  0  0  0  0  0  0  0
   11.3145    7.7538   -4.0409 C   0  0  0  0  0  0  0  0  0  0  0  0
   11.6911    8.2854   -2.8409 C   0  0  0  0  0  0  0  0  0  0  0  0
   11.8053    7.4229   -1.6191 C   0  0  0  0  0  0  0  0  0  0  0  0
   12.2083    9.6556   -2.8601 C   0  0  0  0  0  0  0  0  0  0  0  0
   11.5499   10.5774   -6.4725 C   0  0  0  0  0  0  0  0  0  0  0  0
   12.0224   10.4111   -4.0970 C   0  0  0  0  0  0  0  0  0  0  0  0
  1  2  1  0  0  0  0
  2  3  1  0  0  0  0
  2  7  2  0  0  0  0
  4  3  1  6  0  0  0
  4  5  1  0  0  0  0
  4  6  1  0  0  0  0
  4  8  1  0  0  0  0
  5  9  2  0  0  0  0
  6 13  1  0  0  0  0
  7 12  1  0  0  0  0
  8 19  2  0  0  0  0
 10  7  1  1  0  0  0
 10 14  1  0  0  0  0
 10 17  1  0  0  0  0
 11  8  1  6  0  0  0
 11 20  1  0  0  0  0
 11 32  1  0  0  0  0
 12 18  1  0  0  0  0
 12 30  1  1  0  0  0
 12 32  1  0  0  0  0
 13 16  2  0  0  0  0
 13 21  1  0  0  0  0
 14  5  1  1  0  0  0
 14 15  1  0  0  0  0
 14 20  1  0  0  0  0
 15 31  1  0  0  0  0
 15 33  1  0  0  0  0
 17 18  1  0  0  0  0
 17 23  1  0  0  0  0
 18 25  1  0  0  0  0
 18 26  1  0  0  0  0
 19 21  1  0  0  0  0
 19 36  1  0  0  0  0
 20 23  1  0  0  0  0
 21 22  2  0  0  0  0
 22 27  1  0  0  0  0
 23 24  1  0  0  0  0
 23 33  1  0  0  0  0
 24 26  1  0  0  0  0
 26 28  2  0  0  0  0
 27 35  2  0  0  0  0
 27 39  1  0  0  0  0
 28 29  1  0  0  0  0
 28 32  1  0  0  0  0
 29 38  1  0  0  0  0
 31 34  1  0  0  0  0
 31 37  2  0  0  0  0
 35 36  1  0  0  0  0
 36 38  1  0  0  0  0
 39 40  1  0  0  0  0
 39 41  2  0  0  0  0
 40 45  1  0  0  0  0
 40 46  2  0  0  0  0
 41 42  1  0  0  0  0
 42 43  1  0  0  0  0
 42 44  2  0  0  0  0
 44 46  1  0  0  0  0
M  END
$$$$

 OpenBabel10082411353D

 46 58  0  0  0  0  0  0  0  0999 V2000
    8.0806    9.0240  -12.7589 C   0  0  0  0  0  0  0  0  0  0  0  0
    8.6514    7.8645  -12.2948 C   0  0  0  0  0  0  0  0  0  0  0  0
    9.9575    7.9974  -11.8426 C   0  0  0  0  0  0  0  0  0  0  0  0
   10.7657    6.8667  -11.6050 C   0  0  1  0  0  0  0  0  0  0  0  0
   10.7682    5.9590  -12.8271 C   0  0  0  0  0  0  0  0  0  0  0  0
   12.1553    7.3846  -11.2315 C   0  0  0  0  0  0  0  0  0  0  0  0
    8.0676    6.6451  -12.2974 C   0  0  0  0  0  0  0  0  0  0  0  0
   10.1892    6.1240  -10.3860 C   0  0  0  0  0  0  0  0  0  0  0  0
   11.8375    5.4373  -13.3240 O   0  0  0  0  0  0  0  0  0  0  0  0
    8.6785    5.4761  -13.0273 C   0  0  1  0  0  0  0  0  0  0  0  0
    9.1969    5.2405  -10.4969 C   0  0  2  0  0  0  0  0  0  0  0  0
    7.2213    6.2210  -11.3074 C   0  0  2  0  0  0  0  0  0  0  0  0
   12.5590    7.6872   -9.9896 C   0  0  0  0  0  0  0  0  0  0  0  0
    9.7633    5.0333  -12.9720 C   0  0  1  0  0  0  0  0  0  0  0  0
   10.0661    4.0167  -14.0373 N   0  0  0  0  0  0  0  0  0  0  0  0
   13.6906    8.3004   -9.6233 O   0  0  0  0  0  0  0  0  0  0  0  0
    7.6357    4.5123  -12.6317 C   0  0  2  0  0  0  0  0  0  0  0  0
    6.8831    4.9171  -11.7031 C   0  0  2  0  0  0  0  0  0  0  0  0
   10.5937    6.6967   -9.1779 C   0  0  0  0  0  0  0  0  0  0  0  0
    9.5087    4.3263  -11.6925 C   0  0  2  0  0  0  0  0  0  0  0  0
   11.6359    7.4449   -8.9125 C   0  0  0  0  0  0  0  0  0  0  0  0
   11.9716    7.9159   -7.6200 C   0  0  0  0  0  0  0  0  0  0  0  0
    8.4648    3.6122  -12.2840 C   0  0  1  0  0  0  0  0  0  0  0  0
    7.9253    2.8004  -11.3926 C   0  0  0  0  0  0  0  0  0  0  0  0
    5.6047    4.5059  -11.7589 C   0  0  0  0  0  0  0  0  0  0  0  0
    7.6606    4.1297  -10.5699 C   0  0  0  0  0  0  0  0  0  0  0  0
   10.9559    7.6849   -6.6057 C   0  0  0  0  0  0  0  0  0  0  0  0
    8.0094    4.5092   -9.5664 C   0  0  0  0  0  0  0  0  0  0  0  0
    8.3033    4.0627   -8.4980 C   0  0  0  0  0  0  0  0  0  0  0  0
    6.3587    7.1012  -11.0392 O   0  0  0  0  0  0  0  0  0  0  0  0
   11.0186    3.9598  -14.9226 C   0  0  0  0  0  0  0  0  0  0  0  0
    8.1758    5.8633  -10.2511 C   0  0  1  0  0  0  0  0  0  0  0  0
   11.4648    2.7104  -15.2650 O   0  0  0  0  0  0  0  0  0  0  0  0
    9.9512    6.8220   -6.8436 C   0  0  0  0  0  0  0  0  0  0  0  0
    9.6899    6.3705   -8.1082 C   0  0  2  0  0  0  0  0  0  0  0  0
    9.1306    2.9610  -13.9685 C   0  0  2  0  0  0  0  0  0  0  0  0
    8.8414    5.0113   -7.7726 C   0  0  0  0  0  0  0  0  0  0  0  0
   11.0996    4.8769  -15.8101 O   0  0  0  0  0  0  0  0  0  0  0  0
    8.7802    2.3889  -15.2427 C   0  0  0  0  0  0  0  0  0  0  0  0
    7.9994    3.0782  -13.3884 C   0  0  2  0  0  0  0  0  0  0  0  0
   11.2764    8.4958   -5.0872 C   0  0  0  0  0  0  0  0  0  0  0  0
   12.1332    7.7826   -4.3271 C   0  0  0  0  0  0  0  0  0  0  0  0
   10.7995    9.7129   -4.9122 C   0  0  0  0  0  0  0  0  0  0  0  0
   11.1892   10.3341   -3.7928 C   0  0  0  0  0  0  0  0  0  0  0  0
   12.0099    9.5740   -2.8867 C   0  0  0  0  0  0  0  0  0  0  0  0
   12.4242    8.3475   -3.0726 C   0  0  0  0  0  0  0  0  0  0  0  0
  1  2  1  0  0  0  0
  2  3  1  0  0  0  0
  2  7  2  0  0  0  0
  4  3  1  6  0  0  0
  4  5  1  0  0  0  0
  4  6  1  0  0  0  0
  4  8  1  0  0  0  0
  5  9  2  0  0  0  0
  6 13  1  0  0  0  0
  7 12  1  0  0  0  0
  8 19  2  0  0  0  0
 10  7  1  1  0  0  0
 10 14  1  0  0  0  0
 10 17  1  0  0  0  0
 11  8  1  6  0  0  0
 11 20  1  0  0  0  0
 11 32  1  0  0  0  0
 12 18  1  0  0  0  0
 12 30  1  1  0  0  0
 12 32  1  0  0  0  0
 13 16  2  0  0  0  0
 13 21  1  0  0  0  0
 14  5  1  1  0  0  0
 14 15  1  0  0  0  0
 14 20  1  0  0  0  0
 15 31  1  0  0  0  0
 15 36  1  0  0  0  0
 17 18  1  0  0  0  0
 17 23  1  0  0  0  0
 17 40  1  0  0  0  0
 18 25  1  0  0  0  0
 18 26  1  0  0  0  0
 19 21  1  0  0  0  0
 19 35  1  0  0  0  0
 20 23  1  0  0  0  0
 21 22  2  0  0  0  0
 22 27  1  0  0  0  0
 23 24  1  0  0  0  0
 23 40  1  0  0  0  0
 24 26  1  0  0  0  0
 26 28  2  0  0  0  0
 27 34  2  0  0  0  0
 27 41  1  0  0  0  0
 28 29  1  0  0  0  0
 28 32  1  0  0  0  0
 29 37  2  0  0  0  0
 31 33  2  0  0  0  0
 31 38  1  0  0  0  0
 34 35  1  0  0  0  0
 35 37  1  0  0  0  0
 36 39  1  0  0  0  0
 36 40  1  0  0  0  0
 41 42  1  0  0  0  0
 41 43  2  0  0  0  0
 42 46  2  0  0  0  0
 43 44  1  0  0  0  0
 44 45  2  0  0  0  0
 45 46  1  0  0  0  0
M  END
$$$$

 OpenBabel10082411353D

 46 57  0  0  0  0  0  0  0  0999 V2000
    8.0806    9.0240  -12.7589 C   0  0  0  0  0  0  0  0  0  0  0  0
    8.6514    7.8645  -12.2948 C   0  0  0  0  0  0  0  0  0  0  0  0
    9.9575    7.9974  -11.8426 C   0  0  0  0  0  0  0  0  0  0  0  0
   10.7657    6.8667  -11.6050 C   0  0  1  0  0  0  0  0  0  0  0  0
   10.7682    5.9590  -12.8271 C   0  0  0  0  0  0  0  0  0  0  0  0
   12.1553    7.3846  -11.2315 C   0  0  0  0  0  0  0  0  0  0  0  0
    8.0676    6.6451  -12.2974 C   0  0  0  0  0  0  0  0  0  0  0  0
   10.1892    6.1240  -10.3860 C   0  0  0  0  0  0  0  0  0  0  0  0
   11.8375    5.4373  -13.3240 O   0  0  0  0  0  0  0  0  0  0  0  0
    8.6785    5.4761  -13.0273 C   0  0  1  0  0  0  0  0  0  0  0  0
    9.1969    5.2405  -10.4969 C   0  0  2  0  0  0  0  0  0  0  0  0
    7.2213    6.2210  -11.3074 C   0  0  2  0  0  0  0  0  0  0  0  0
   12.5590    7.6872   -9.9896 C   0  0  0  0  0  0  0  0  0  0  0  0
    9.7633    5.0333  -12.9720 C   0  0  1  0  0  0  0  0  0  0  0  0
   10.0661    4.0167  -14.0373 N   0  0  0  0  0  0  0  0  0  0  0  0
   13.6906    8.3004   -9.6233 O   0  0  0  0  0  0  0  0  0  0  0  0
    7.6357    4.5123  -12.6317 C   0  0  2  0  0  0  0  0  0  0  0  0
    6.8831    4.9171  -11.7031 C   0  0  2  0  0  0  0  0  0  0  0  0
   10.5937    6.6967   -9.1779 C   0  0  0  0  0  0  0  0  0  0  0  0
    9.5087    4.3263  -11.6925 C   0  0  2  0  0  0  0  0  0  0  0  0
   11.6359    7.4449   -8.9125 C   0  0  0  0  0  0  0  0  0  0  0  0
   11.9716    7.9159   -7.6200 C   0  0  0  0  0  0  0  0  0  0  0  0
    8.4648    3.6122  -12.2840 C   0  0  1  0  0  0  0  0  0  0  0  0
    7.9253    2.8004  -11.3926 C   0  0  0  0  0  0  0  0  0  0  0  0
    5.6047    4.5059  -11.7589 C   0  0  0  0  0  0  0  0  0  0  0  0
    7.6606    4.1297  -10.5699 C   0  0  0  0  0  0  0  0  0  0  0  0
   10.9559    7.6849   -6.6057 C   0  0  0  0  0  0  0  0  0  0  0  0
    8.0094    4.5092   -9.5664 C   0  0  0  0  0  0  0  0  0  0  0  0
    8.3033    4.0627   -8.4980 C   0  0  0  0  0  0  0  0  0  0  0  0
    6.3587    7.1012  -11.0392 O   0  0  0  0  0  0  0  0  0  0  0  0
   11.0186    3.9598  -14.9226 C   0  0  0  0  0  0  0  0  0  0  0  0
    8.1758    5.8633  -10.2511 C   0  0  1  0  0  0  0  0  0  0  0  0
   11.4648    2.7104  -15.2650 O   0  0  0  0  0  0  0  0  0  0  0  0
    9.9512    6.8220   -6.8436 C   0  0  0  0  0  0  0  0  0  0  0  0
    9.6899    6.3705   -8.1082 C   0  0  2  0  0  0  0  0  0  0  0  0
   11.2597    8.2901   -5.2396 C   0  0  0  0  0  0  0  0  0  0  0  0
   10.9483    4.9354  -15.8312 C   0  0  0  0  0  0  0  0  0  0  0  0
    9.2428    4.9682   -7.8294 C   0  0  0  0  0  0  0  0  0  0  0  0
   11.9211    7.5870   -4.3303 C   0  0  0  0  0  0  0  0  0  0  0  0
   10.9171    9.6712   -4.9168 C   0  0  0  0  0  0  0  0  0  0  0  0
    9.2892    2.8412  -13.6369 C   0  0  0  0  0  0  0  0  0  0  0  0
   10.2684   10.5097   -5.9823 F   0  0  0  0  0  0  0  0  0  0  0  0
   12.2731    8.1347   -3.0505 C   0  0  0  0  0  0  0  0  0  0  0  0
   12.9684    7.3075   -2.0198 C   0  0  0  0  0  0  0  0  0  0  0  0
   11.2375   10.3154   -3.7739 C   0  0  0  0  0  0  0  0  0  0  0  0
   11.9290    9.5452   -2.8113 C   0  0  0  0  0  0  0  0  0  0  0  0
  1  2  1  0  0  0  0
  2  3  1  0  0  0  0
  2  7  2  0  0  0  0
  4  3  1  6  0  0  0
  4  5  1  0  0  0  0
  4  6  1  0  0  0  0
  4  8  1  0  0  0  0
  5  9  2  0  0  0  0
  6 13  1  0  0  0  0
  7 12  1  0  0  0  0
  8 19  2  0  0  0  0
 10  7  1  1  0  0  0
 10 14  1  0  0  0  0
 10 17  1  0  0  0  0
 11  8  1  6  0  0  0
 11 20  1  0  0  0  0
 11 32  1  0  0  0  0
 12 18  1  0  0  0  0
 12 30  1  1  0  0  0
 12 32  1  0  0  0  0
 13 16  2  0  0  0  0
 13 21  1  0  0  0  0
 14  5  1  1  0  0  0
 14 15  1  0  0  0  0
 14 20  1  0  0  0  0
 15 31  1  0  0  0  0
 15 41  1  0  0  0  0
 17 18  1  0  0  0  0
 17 23  1  0  0  0  0
 18 25  1  0  0  0  0
 18 26  1  0  0  0  0
 19 21  1  0  0  0  0
 19 35  1  0  0  0  0
 20 23  1  0  0  0  0
 21 22  2  0  0  0  0
 22 27  1  0  0  0  0
 23 24  1  0  0  0  0
 23 41  1  0  0  0  0
 24 26  1  0  0  0  0
 26 28  2  0  0  0  0
 27 34  2  0  0  0  0
 27 36  1  0  0  0  0
 28 29  1  0  0  0  0
 28 32  1  0  0  0  0
 29 38  1  0  0  0  0
 31 33  2  0  0  0  0
 31 37  1  0  0  0  0
 34 35  1  0  0  0  0
 35 38  1  0  0  0  0
 36 39  1  0  0  0  0
 36 40  2  0  0  0  0
 39 43  2  0  0  0  0
 40 42  1  0  0  0  0
 40 45  1  0  0  0  0
 43 44  1  0  0  0  0
 43 46  1  0  0  0  0
 45 46  2  0  0  0  0
M  END
$$$$

 OpenBabel10082411353D

 46 58  0  0  0  0  0  0  0  0999 V2000
    8.0806    9.0240  -12.7589 C   0  0  0  0  0  0  0  0  0  0  0  0
    8.6514    7.8645  -12.2948 C   0  0  0  0  0  0  0  0  0  0  0  0
    9.9575    7.9974  -11.8426 C   0  0  0  0  0  0  0  0  0  0  0  0
   10.7657    6.8667  -11.6050 C   0  0  1  0  0  0  0  0  0  0  0  0
   10.7682    5.9590  -12.8271 C   0  0  0  0  0  0  0  0  0  0  0  0
   12.1553    7.3846  -11.2315 C   0  0  0  0  0  0  0  0  0  0  0  0
    8.0676    6.6451  -12.2974 C   0  0  0  0  0  0  0  0  0  0  0  0
   10.1892    6.1240  -10.3860 C   0  0  0  0  0  0  0  0  0  0  0  0
   11.8375    5.4373  -13.3240 O   0  0  0  0  0  0  0  0  0  0  0  0
    8.6785    5.4761  -13.0273 C   0  0  1  0  0  0  0  0  0  0  0  0
    9.1969    5.2405  -10.4969 C   0  0  2  0  0  0  0  0  0  0  0  0
    7.2213    6.2210  -11.3074 C   0  0  2  0  0  0  0  0  0  0  0  0
   12.5590    7.6872   -9.9896 C   0  0  0  0  0  0  0  0  0  0  0  0
    9.7633    5.0333  -12.9720 C   0  0  1  0  0  0  0  0  0  0  0  0
   10.0661    4.0167  -14.0373 N   0  0  0  0  0  0  0  0  0  0  0  0
   13.6906    8.3004   -9.6233 O   0  0  0  0  0  0  0  0  0  0  0  0
    7.6357    4.5123  -12.6317 C   0  0  2  0  0  0  0  0  0  0  0  0
    6.8831    4.9171  -11.7031 C   0  0  2  0  0  0  0  0  0  0  0  0
   10.5937    6.6967   -9.1779 C   0  0  0  0  0  0  0  0  0  0  0  0
    9.5087    4.3263  -11.6925 C   0  0  2  0  0  0  0  0  0  0  0  0
   11.6359    7.4449   -8.9125 C   0  0  0  0  0  0  0  0  0  0  0  0
   11.9716    7.9159   -7.6200 C   0  0  0  0  0  0  0  0  0  0  0  0
    8.4648    3.6122  -12.2840 C   0  0  1  0  0  0  0  0  0  0  0  0
    7.9253    2.8004  -11.3926 C   0  0  2  0  0  0  0  0  0  0  0  0
    5.6047    4.5059  -11.7589 C   0  0  0  0  0  0  0  0  0  0  0  0
    7.6606    4.1297  -10.5699 C   0  0  0  0  0  0  0  0  0  0  0  0
   10.9559    7.6849   -6.6057 C   0  0  0  0  0  0  0  0  0  0  0  0
    8.0094    4.5092   -9.5664 C   0  0  0  0  0  0  0  0  0  0  0  0
    8.3033    4.0627   -8.4980 C   0  0  0  0  0  0  0  0  0  0  0  0
    6.3587    7.1012  -11.0392 O   0  0  0  0  0  0  0  0  0  0  0  0
   11.0186    3.9598  -14.9226 C   0  0  0  0  0  0  0  0  0  0  0  0
    8.1758    5.8633  -10.2511 C   0  0  1  0  0  0  0  0  0  0  0  0
   11.4648    2.7104  -15.2650 O   0  0  0  0  0  0  0  0  0  0  0  0
    9.9512    6.8220   -6.8436 C   0  0  0  0  0  0  0  0  0  0  0  0
    9.6899    6.3705   -8.1082 C   0  0  2  0  0  0  0  0  0  0  0  0
    9.1306    2.9610  -13.9685 C   0  0  0  0  0  0  0  0  0  0  0  0
    8.8414    5.0113   -7.7726 C   0  0  0  0  0  0  0  0  0  0  0  0
   11.6944    4.9031  -15.4200 O   0  0  0  0  0  0  0  0  0  0  0  0
   11.2282    8.3639   -5.2721 C   0  0  0  0  0  0  0  0  0  0  0  0
    8.7016    2.4223  -12.9165 C   0  0  1  0  0  0  0  0  0  0  0  0
   11.9286    7.6722   -4.3404 C   0  0  0  0  0  0  0  0  0  0  0  0
   10.7972    9.7001   -4.9421 C   0  0  0  0  0  0  0  0  0  0  0  0
   11.1903   10.2716   -3.8075 C   0  0  0  0  0  0  0  0  0  0  0  0
   12.2449    8.2538   -3.0745 C   0  0  0  0  0  0  0  0  0  0  0  0
   12.9556    7.5196   -1.9320 C   0  0  0  0  0  0  0  0  0  0  0  0
   11.8291    9.6154   -2.8559 C   0  0  0  0  0  0  0  0  0  0  0  0
  1  2  1  0  0  0  0
  2  3  1  0  0  0  0
  2  7  2  0  0  0  0
  4  3  1  6  0  0  0
  4  5  1  0  0  0  0
  4  6  1  0  0  0  0
  4  8  1  0  0  0  0
  5  9  2  0  0  0  0
  6 13  1  0  0  0  0
  7 12  1  0  0  0  0
  8 19  2  0  0  0  0
 10  7  1  1  0  0  0
 10 14  1  0  0  0  0
 10 17  1  0  0  0  0
 11  8  1  6  0  0  0
 11 20  1  0  0  0  0
 11 32  1  0  0  0  0
 12 18  1  0  0  0  0
 12 30  1  1  0  0  0
 12 32  1  0  0  0  0
 13 16  2  0  0  0  0
 13 21  1  0  0  0  0
 14  5  1  1  0  0  0
 14 15  1  0  0  0  0
 14 20  1  0  0  0  0
 15 31  1  0  0  0  0
 15 36  1  0  0  0  0
 17 18  1  0  0  0  0
 17 23  1  0  0  0  0
 18 25  1  0  0  0  0
 18 26  1  0  0  0  0
 19 21  1  0  0  0  0
 19 35  1  0  0  0  0
 20 23  1  0  0  0  0
 21 22  2  0  0  0  0
 22 27  1  0  0  0  0
 23 24  1  0  0  0  0
 23 40  1  0  0  0  0
 24 26  1  0  0  0  0
 24 40  1  0  0  0  0
 26 28  2  0  0  0  0
 27 34  2  0  0  0  0
 27 39  1  0  0  0  0
 28 29  1  0  0  0  0
 28 32  1  0  0  0  0
 29 37  2  0  0  0  0
 31 33  2  0  0  0  0
 31 38  1  0  0  0  0
 34 35  1  0  0  0  0
 35 37  1  0  0  0  0
 36 40  1  0  0  0  0
 39 41  1  0  0  0  0
 39 42  2  0  0  0  0
 41 44  2  0  0  0  0
 42 43  1  0  0  0  0
 43 46  2  0  0  0  0
 44 45  1  0  0  0  0
 44 46  1  0  0  0  0
M  END
$$$$

 OpenBabel10082411353D

 46 57  0  0  0  0  0  0  0  0999 V2000
    8.0806    9.0240  -12.7589 C   0  0  0  0  0  0  0  0  0  0  0  0
    8.6514    7.8645  -12.2948 C   0  0  0  0  0  0  0  0  0  0  0  0
    9.9575    7.9974  -11.8426 C   0  0  0  0  0  0  0  0  0  0  0  0
   10.7657    6.8667  -11.6050 C   0  0  1  0  0  0  0  0  0  0  0  0
   10.7682    5.9590  -12.8271 C   0  0  0  0  0  0  0  0  0  0  0  0
   12.1553    7.3846  -11.2315 C   0  0  0  0  0  0  0  0  0  0  0  0
    8.0676    6.6451  -12.2974 C   0  0  0  0  0  0  0  0  0  0  0  0
   10.1892    6.1240  -10.3860 C   0  0  0  0  0  0  0  0  0  0  0  0
   11.8375    5.4373  -13.3240 O   0  0  0  0  0  0  0  0  0  0  0  0
    8.6785    5.4761  -13.0273 C   0  0  1  0  0  0  0  0  0  0  0  0
    9.1969    5.2405  -10.4969 C   0  0  2  0  0  0  0  0  0  0  0  0
    7.2213    6.2210  -11.3074 C   0  0  2  0  0  0  0  0  0  0  0  0
   12.5590    7.6872   -9.9896 C   0  0  0  0  0  0  0  0  0  0  0  0
    9.7633    5.0333  -12.9720 C   0  0  1  0  0  0  0  0  0  0  0  0
   10.0661    4.0167  -14.0373 N   0  0  0  0  0  0  0  0  0  0  0  0
   13.6906    8.3004   -9.6233 O   0  0  0  0  0  0  0  0  0  0  0  0
    7.6357    4.5123  -12.6317 C   0  0  2  0  0  0  0  0  0  0  0  0
    6.8831    4.9171  -11.7031 C   0  0  2  0  0  0  0  0  0  0  0  0
   10.5937    6.6967   -9.1779 C   0  0  0  0  0  0  0  0  0  0  0  0
    9.5087    4.3263  -11.6925 C   0  0  2  0  0  0  0  0  0  0  0  0
   11.6359    7.4449   -8.9125 C   0  0  0  0  0  0  0  0  0  0  0  0
   11.9716    7.9159   -7.6200 C   0  0  0  0  0  0  0  0  0  0  0  0
    8.4648    3.6122  -12.2840 C   0  0  1  0  0  0  0  0  0  0  0  0
    7.9253    2.8004  -11.3926 C   0  0  0  0  0  0  0  0  0  0  0  0
    5.6047    4.5059  -11.7589 C   0  0  0  0  0  0  0  0  0  0  0  0
    7.6606    4.1297  -10.5699 C   0  0  0  0  0  0  0  0  0  0  0  0
   10.9559    7.6849   -6.6057 C   0  0  0  0  0  0  0  0  0  0  0  0
    8.0094    4.5092   -9.5664 C   0  0  0  0  0  0  0  0  0  0  0  0
    8.3033    4.0627   -8.4980 C   0  0  0  0  0  0  0  0  0  0  0  0
    6.3587    7.1012  -11.0392 O   0  0  0  0  0  0  0  0  0  0  0  0
   11.0186    3.9598  -14.9226 C   0  0  0  0  0  0  0  0  0  0  0  0
    8.1758    5.8633  -10.2511 C   0  0  1  0  0  0  0  0  0  0  0  0
   11.4648    2.7104  -15.2650 O   0  0  0  0  0  0  0  0  0  0  0  0
    9.9512    6.8220   -6.8436 C   0  0  0  0  0  0  0  0  0  0  0  0
    9.6899    6.3705   -8.1082 C   0  0  2  0  0  0  0  0  0  0  0  0
   11.2597    8.2901   -5.2396 C   0  0  0  0  0  0  0  0  0  0  0  0
   11.6068    9.7354   -5.2006 C   0  0  0  0  0  0  0  0  0  0  0  0
    9.4261    2.7718  -13.6670 C   0  0  0  0  0  0  0  0  0  0  0  0
    9.1568    5.0346   -7.7426 C   0  0  0  0  0  0  0  0  0  0  0  0
   11.5635    4.9451  -15.5137 O   0  0  0  0  0  0  0  0  0  0  0  0
   11.3722    7.7145   -4.0316 C   0  0  0  0  0  0  0  0  0  0  0  0
   11.1755    6.1721   -3.9933 C   0  0  0  0  0  0  0  0  0  0  0  0
   11.8659    8.2759   -2.8028 C   0  0  0  0  0  0  0  0  0  0  0  0
   12.0571    9.6796   -2.7854 C   0  0  0  0  0  0  0  0  0  0  0  0
   11.3752   10.6123   -6.3792 C   0  0  0  0  0  0  0  0  0  0  0  0
   11.9093   10.3870   -3.9907 C   0  0  0  0  0  0  0  0  0  0  0  0
  1  2  1  0  0  0  0
  2  3  1  0  0  0  0
  2  7  2  0  0  0  0
  4  3  1  6  0  0  0
  4  5  1  0  0  0  0
  4  6  1  0  0  0  0
  4  8  1  0  0  0  0
  5  9  2  0  0  0  0
  6 13  1  0  0  0  0
  7 12  1  0  0  0  0
  8 19  2  0  0  0  0
 10  7  1  1  0  0  0
 10 14  1  0  0  0  0
 10 17  1  0  0  0  0
 11  8  1  6  0  0  0
 11 20  1  0  0  0  0
 11 32  1  0  0  0  0
 12 18  1  0  0  0  0
 12 30  1  1  0  0  0
 12 32  1  0  0  0  0
 13 16  2  0  0  0  0
 13 21  1  0  0  0  0
 14  5  1  1  0  0  0
 14 15  1  0  0  0  0
 14 20  1  0  0  0  0
 15 31  1  0  0  0  0
 15 38  1  0  0  0  0
 17 18  1  0  0  0  0
 17 23  1  0  0  0  0
 18 25  1  0  0  0  0
 18 26  1  0  0  0  0
 19 21  1  0  0  0  0
 19 35  1  0  0  0  0
 20 23  1  0  0  0  0
 21 22  2  0  0  0  0
 22 27  1  0  0  0  0
 23 24  1  0  0  0  0
 23 38  1  0  0  0  0
 24 26  1  0  0  0  0
 26 28  2  0  0  0  0
 27 34  2  0  0  0  0
 27 36  1  0  0  0  0
 28 29  1  0  0  0  0
 28 32  1  0  0  0  0
 29 39  1  0  0  0  0
 31 33  2  0  0  0  0
 31 40  1  0  0  0  0
 34 35  1  0  0  0  0
 35 39  1  0  0  0  0
 36 37  1  0  0  0  0
 36 41  2  0  0  0  0
 37 45  1  0  0  0  0
 37 46  2  0  0  0  0
 41 42  1  0  0  0  0
 41 43  1  0  0  0  0
 43 44  2  0  0  0  0
 44 46  1  0  0  0  0
M  END
$$$$

 OpenBabel10082411353D

 46 57  0  0  0  0  0  0  0  0999 V2000
    8.0806    9.0240  -12.7589 C   0  0  0  0  0  0  0  0  0  0  0  0
    8.6514    7.8645  -12.2948 C   0  0  0  0  0  0  0  0  0  0  0  0
    9.9575    7.9974  -11.8426 C   0  0  0  0  0  0  0  0  0  0  0  0
   10.7657    6.8667  -11.6050 C   0  0  1  0  0  0  0  0  0  0  0  0
   10.7682    5.9590  -12.8271 C   0  0  0  0  0  0  0  0  0  0  0  0
   12.1553    7.3846  -11.2315 C   0  0  0  0  0  0  0  0  0  0  0  0
    8.0676    6.6451  -12.2974 C   0  0  0  0  0  0  0  0  0  0  0  0
   10.1892    6.1240  -10.3860 C   0  0  0  0  0  0  0  0  0  0  0  0
   11.8375    5.4373  -13.3240 O   0  0  0  0  0  0  0  0  0  0  0  0
    8.6785    5.4761  -13.0273 C   0  0  1  0  0  0  0  0  0  0  0  0
    9.1969    5.2405  -10.4969 C   0  0  2  0  0  0  0  0  0  0  0  0
    7.2213    6.2210  -11.3074 C   0  0  2  0  0  0  0  0  0  0  0  0
   12.5590    7.6872   -9.9896 C   0  0  0  0  0  0  0  0  0  0  0  0
    9.7633    5.0333  -12.9720 C   0  0  1  0  0  0  0  0  0  0  0  0
   10.0661    4.0167  -14.0373 N   0  0  0  0  0  0  0  0  0  0  0  0
   13.6906    8.3004   -9.6233 O   0  0  0  0  0  0  0  0  0  0  0  0
    7.6357    4.5123  -12.6317 C   0  0  2  0  0  0  0  0  0  0  0  0
    6.8831    4.9171  -11.7031 C   0  0  2  0  0  0  0  0  0  0  0  0
   10.5937    6.6967   -9.1779 C   0  0  0  0  0  0  0  0  0  0  0  0
    9.5087    4.3263  -11.6925 C   0  0  2  0  0  0  0  0  0  0  0  0
   11.6359    7.4449   -8.9125 C   0  0  0  0  0  0  0  0  0  0  0  0
   11.9716    7.9159   -7.6200 C   0  0  0  0  0  0  0  0  0  0  0  0
    8.4648    3.6122  -12.2840 C   0  0  1  0  0  0  0  0  0  0  0  0
    7.9253    2.8004  -11.3926 C   0  0  0  0  0  0  0  0  0  0  0  0
    5.6047    4.5059  -11.7589 C   0  0  0  0  0  0  0  0  0  0  0  0
    7.6606    4.1297  -10.5699 C   0  0  0  0  0  0  0  0  0  0  0  0
   10.9559    7.6849   -6.6057 C   0  0  0  0  0  0  0  0  0  0  0  0
    8.0094    4.5092   -9.5664 C   0  0  0  0  0  0  0  0  0  0  0  0
    8.3033    4.0627   -8.4980 C   0  0  0  0  0  0  0  0  0  0  0  0
    6.3587    7.1012  -11.0392 O   0  0  0  0  0  0  0  0  0  0  0  0
   11.0186    3.9598  -14.9226 C   0  0  0  0  0  0  0  0  0  0  0  0
    8.1758    5.8633  -10.2511 C   0  0  1  0  0  0  0  0  0  0  0  0
   11.4648    2.7104  -15.2650 O   0  0  0  0  0  0  0  0  0  0  0  0
    9.9512    6.8220   -6.8436 C   0  0  0  0  0  0  0  0  0  0  0  0
    9.6899    6.3705   -8.1082 C   0  0  2  0  0  0  0  0  0  0  0  0
   11.2597    8.2901   -5.2396 C   0  0  0  0  0  0  0  0  0  0  0  0
   11.7295    4.9426  -15.4284 O   0  0  0  0  0  0  0  0  0  0  0  0
    9.2745    4.9481   -7.8103 C   0  0  0  0  0  0  0  0  0  0  0  0
    9.2182    2.8872  -13.7570 C   0  0  0  0  0  0  0  0  0  0  0  0
   11.9188    7.5853   -4.3293 C   0  0  0  0  0  0  0  0  0  0  0  0
   11.7780    6.4589   -4.0859 C   0  0  0  0  0  0  0  0  0  0  0  0
   12.3068    8.5128   -3.0579 C   0  0  0  0  0  0  0  0  0  0  0  0
   11.0012    9.7012   -5.1219 C   0  0  0  0  0  0  0  0  0  0  0  0
   12.9527    7.7236   -1.9868 C   0  0  0  0  0  0  0  0  0  0  0  0
   11.9669    9.7714   -3.0647 C   0  0  0  0  0  0  0  0  0  0  0  0
   11.4150   10.4222   -3.9938 C   0  0  0  0  0  0  0  0  0  0  0  0
  1  2  1  0  0  0  0
  2  3  1  0  0  0  0
  2  7  2  0  0  0  0
  4  3  1  6  0  0  0
  4  5  1  0  0  0  0
  4  6  1  0  0  0  0
  4  8  1  0  0  0  0
  5  9  2  0  0  0  0
  6 13  1  0  0  0  0
  7 12  1  0  0  0  0
  8 19  2  0  0  0  0
 10  7  1  1  0  0  0
 10 14  1  0  0  0  0
 10 17  1  0  0  0  0
 11  8  1  6  0  0  0
 11 20  1  0  0  0  0
 11 32  1  0  0  0  0
 12 18  1  0  0  0  0
 12 30  1  1  0  0  0
 12 32  1  0  0  0  0
 13 16  2  0  0  0  0
 13 21  1  0  0  0  0
 14  5  1  1  0  0  0
 14 15  1  0  0  0  0
 14 20  1  0  0  0  0
 15 31  1  0  0  0  0
 15 39  1  0  0  0  0
 17 18  1  0  0  0  0
 17 23  1  0  0  0  0
 18 25  1  0  0  0  0
 18 26  1  0  0  0  0
 19 21  1  0  0  0  0
 19 35  1  0  0  0  0
 20 23  1  0  0  0  0
 21 22  2  0  0  0  0
 22 27  1  0  0  0  0
 23 24  1  0  0  0  0
 23 39  1  0  0  0  0
 24 26  1  0  0  0  0
 26 28  2  0  0  0  0
 27 34  2  0  0  0  0
 27 36  1  0  0  0  0
 28 29  1  0  0  0  0
 28 32  1  0  0  0  0
 29 38  1  0  0  0  0
 31 33  2  0  0  0  0
 31 37  1  0  0  0  0
 34 35  1  0  0  0  0
 35 38  1  0  0  0  0
 36 40  1  0  0  0  0
 36 43  2  0  0  0  0
 40 41  2  0  0  0  0
 40 42  1  0  0  0  0
 42 44  1  0  0  0  0
 42 45  2  0  0  0  0
 43 46  1  0  0  0  0
 45 46  1  0  0  0  0
M  END
$$$$

 OpenBabel10082411353D

 27 31  0  0  0  0  0  0  0  0999 V2000
   12.8881    8.7759   -3.5681 C   0  0  0  0  0  0  0  0  0  0  0  0
   11.9416    9.4732   -4.1220 C   0  0  0  0  0  0  0  0  0  0  0  0
   12.1782    9.3707   -5.6407 C   0  0  0  0  0  0  0  0  0  0  0  0
   11.3825    8.3447   -6.3966 C   0  0  0  0  0  0  0  0  0  0  0  0
   11.8188    8.0044   -7.6822 C   0  0  0  0  0  0  0  0  0  0  0  0
   10.3120    7.6600   -5.7120 C   0  0  0  0  0  0  0  0  0  0  0  0
   10.8678    7.0723   -8.2897 C   0  0  0  0  0  0  0  0  0  0  0  0
    9.5717    6.7245   -6.3809 C   0  0  0  0  0  0  0  0  0  0  0  0
    9.8820    6.4468   -7.7081 C   0  0  0  0  0  0  0  0  0  0  0  0
   11.2611    6.6953   -9.7105 C   0  0  1  0  0  0  0  0  0  0  0  0
   10.0425    6.5460  -10.5971 C   0  0  0  0  0  0  0  0  0  0  0  0
   11.8062    7.8130  -10.4883 C   0  0  0  0  0  0  0  0  0  0  0  0
    8.8746    5.5265   -8.4149 C   0  0  0  0  0  0  0  0  0  0  0  0
   13.1546    8.1022  -10.4049 O   0  0  0  0  0  0  0  0  0  0  0  0
   10.3114    6.7627  -11.8786 C   0  0  0  0  0  0  0  0  0  0  0  0
   11.3906    7.6694  -11.8036 N   0  0  0  0  0  0  0  0  0  0  0  0
   11.9779    8.2398  -13.0316 C   0  0  0  0  0  0  0  0  0  0  0  0
    8.8154    6.0162   -9.9613 C   0  0  0  0  0  0  0  0  0  0  0  0
    9.6102    6.3636  -13.0859 C   0  0  0  0  0  0  0  0  0  0  0  0
   11.8804    7.4718  -14.1937 C   0  0  0  0  0  0  0  0  0  0  0  0
   10.7017    6.3981  -14.2482 C   0  0  0  0  0  0  0  0  0  0  0  0
   10.3813    5.8427  -15.4547 C   0  0  0  0  0  0  0  0  0  0  0  0
    9.2579    5.0507  -15.6184 C   0  0  0  0  0  0  0  0  0  0  0  0
   11.6009    5.0735  -15.6795 C   0  0  0  0  0  0  0  0  0  0  0  0
   11.6469    3.8214  -15.1591 C   0  0  0  0  0  0  0  0  0  0  0  0
    9.2599    3.8172  -15.2639 C   0  0  0  0  0  0  0  0  0  0  0  0
   10.4715    2.9810  -15.4422 C   0  0  0  0  0  0  0  0  0  0  0  0
  1  2  1  0  0  0  0
  2  3  1  0  0  0  0
  3  4  1  0  0  0  0
  4  5  2  0  0  0  0
  4  6  1  0  0  0  0
  5  7  1  0  0  0  0
  6  8  2  0  0  0  0
  7  9  2  0  0  0  0
  8  9  1  0  0  0  0
  9 13  1  0  0  0  0
 10  7  1  1  0  0  0
 10 11  1  0  0  0  0
 10 12  1  0  0  0  0
 11 15  2  0  0  0  0
 11 18  1  0  0  0  0
 12 14  2  0  0  0  0
 12 16  1  0  0  0  0
 13 18  1  0  0  0  0
 15 16  1  0  0  0  0
 15 19  1  0  0  0  0
 16 17  1  0  0  0  0
 17 20  1  0  0  0  0
 19 21  1  0  0  0  0
 20 21  2  0  0  0  0
 21 22  1  0  0  0  0
 22 23  1  0  0  0  0
 22 24  1  0  0  0  0
 23 26  1  0  0  0  0
 24 25  1  0  0  0  0
 25 27  1  0  0  0  0
 26 27  1  0  0  0  0
M  END
$$$$

 OpenBabel10082411353D

 46 57  0  0  0  0  0  0  0  0999 V2000
    8.0806    9.0240  -12.7589 C   0  0  0  0  0  0  0  0  0  0  0  0
    8.6514    7.8645  -12.2948 C   0  0  0  0  0  0  0  0  0  0  0  0
    9.9575    7.9974  -11.8426 C   0  0  0  0  0  0  0  0  0  0  0  0
   10.7657    6.8667  -11.6050 C   0  0  1  0  0  0  0  0  0  0  0  0
   10.7682    5.9590  -12.8271 C   0  0  0  0  0  0  0  0  0  0  0  0
   12.1553    7.3846  -11.2315 C   0  0  0  0  0  0  0  0  0  0  0  0
    8.0676    6.6451  -12.2974 C   0  0  0  0  0  0  0  0  0  0  0  0
   10.1892    6.1240  -10.3860 C   0  0  0  0  0  0  0  0  0  0  0  0
   11.8375    5.4373  -13.3240 O   0  0  0  0  0  0  0  0  0  0  0  0
    8.6785    5.4761  -13.0273 C   0  0  1  0  0  0  0  0  0  0  0  0
    9.1969    5.2405  -10.4969 C   0  0  2  0  0  0  0  0  0  0  0  0
    7.2213    6.2210  -11.3074 C   0  0  2  0  0  0  0  0  0  0  0  0
   12.5590    7.6872   -9.9896 C   0  0  0  0  0  0  0  0  0  0  0  0
    9.7633    5.0333  -12.9720 C   0  0  1  0  0  0  0  0  0  0  0  0
   10.0661    4.0167  -14.0373 N   0  0  0  0  0  0  0  0  0  0  0  0
   13.6906    8.3004   -9.6233 O   0  0  0  0  0  0  0  0  0  0  0  0
    7.6357    4.5123  -12.6317 C   0  0  2  0  0  0  0  0  0  0  0  0
    6.8831    4.9171  -11.7031 C   0  0  2  0  0  0  0  0  0  0  0  0
   10.5937    6.6967   -9.1779 C   0  0  0  0  0  0  0  0  0  0  0  0
    9.5087    4.3263  -11.6925 C   0  0  2  0  0  0  0  0  0  0  0  0
   11.6359    7.4449   -8.9125 C   0  0  0  0  0  0  0  0  0  0  0  0
   11.9716    7.9159   -7.6200 C   0  0  0  0  0  0  0  0  0  0  0  0
    8.4648    3.6122  -12.2840 C   0  0  1  0  0  0  0  0  0  0  0  0
    7.9253    2.8004  -11.3926 C   0  0  0  0  0  0  0  0  0  0  0  0
    5.6047    4.5059  -11.7589 C   0  0  0  0  0  0  0  0  0  0  0  0
    7.6606    4.1297  -10.5699 C   0  0  0  0  0  0  0  0  0  0  0  0
   10.9559    7.6849   -6.6057 C   0  0  0  0  0  0  0  0  0  0  0  0
    8.0094    4.5092   -9.5664 C   0  0  0  0  0  0  0  0  0  0  0  0
    8.3033    4.0627   -8.4980 C   0  0  0  0  0  0  0  0  0  0  0  0
    6.3587    7.1012  -11.0392 O   0  0  0  0  0  0  0  0  0  0  0  0
   11.0186    3.9598  -14.9226 C   0  0  0  0  0  0  0  0  0  0  0  0
    8.1758    5.8633  -10.2511 C   0  0  1  0  0  0  0  0  0  0  0  0
   11.4648    2.7104  -15.2650 O   0  0  0  0  0  0  0  0  0  0  0  0
    9.9512    6.8220   -6.8436 C   0  0  0  0  0  0  0  0  0  0  0  0
    9.6899    6.3705   -8.1082 C   0  0  2  0  0  0  0  0  0  0  0  0
   11.2597    8.2901   -5.2396 C   0  0  0  0  0  0  0  0  0  0  0  0
   10.9483    4.9354  -15.8312 C   0  0  0  0  0  0  0  0  0  0  0  0
    9.2428    4.9682   -7.8294 C   0  0  0  0  0  0  0  0  0  0  0  0
   11.9211    7.5870   -4.3303 C   0  0  0  0  0  0  0  0  0  0  0  0
    9.5730    2.7786  -13.2723 C   0  0  0  0  0  0  0  0  0  0  0  0
   12.4043    8.2063   -3.0501 C   0  0  0  0  0  0  0  0  0  0  0  0
   12.0960    6.1974   -4.3938 C   0  0  0  0  0  0  0  0  0  0  0  0
   10.8961    9.6344   -5.0170 C   0  0  0  0  0  0  0  0  0  0  0  0
   13.0542    7.4313   -2.1065 C   0  0  0  0  0  0  0  0  0  0  0  0
   12.6820    5.5214   -3.3292 C   0  0  0  0  0  0  0  0  0  0  0  0
   13.1356    6.1524   -2.2511 C   0  0  0  0  0  0  0  0  0  0  0  0
  1  2  1  0  0  0  0
  2  3  1  0  0  0  0
  2  7  2  0  0  0  0
  4  3  1  6  0  0  0
  4  5  1  0  0  0  0
  4  6  1  0  0  0  0
  4  8  1  0  0  0  0
  5  9  2  0  0  0  0
  6 13  1  0  0  0  0
  7 12  1  0  0  0  0
  8 19  2  0  0  0  0
 10  7  1  1  0  0  0
 10 14  1  0  0  0  0
 10 17  1  0  0  0  0
 11  8  1  6  0  0  0
 11 20  1  0  0  0  0
 11 32  1  0  0  0  0
 12 18  1  0  0  0  0
 12 30  1  1  0  0  0
 12 32  1  0  0  0  0
 13 16  2  0  0  0  0
 13 21  1  0  0  0  0
 14  5  1  1  0  0  0
 14 15  1  0  0  0  0
 14 20  1  0  0  0  0
 15 31  1  0  0  0  0
 15 40  1  0  0  0  0
 17 18  1  0  0  0  0
 17 23  1  0  0  0  0
 18 25  1  0  0  0  0
 18 26  1  0  0  0  0
 19 21  1  0  0  0  0
 19 35  1  0  0  0  0
 20 23  1  0  0  0  0
 21 22  2  0  0  0  0
 22 27  1  0  0  0  0
 23 24  1  0  0  0  0
 23 40  1  0  0  0  0
 24 26  1  0  0  0  0
 26 28  2  0  0  0  0
 27 34  2  0  0  0  0
 27 36  1  0  0  0  0
 28 29  1  0  0  0  0
 28 32  1  0  0  0  0
 29 38  1  0  0  0  0
 31 33  2  0  0  0  0
 31 37  1  0  0  0  0
 34 35  1  0  0  0  0
 35 38  1  0  0  0  0
 36 39  1  0  0  0  0
 36 43  2  0  0  0  0
 39 41  1  0  0  0  0
 39 42  2  0  0  0  0
 41 44  2  0  0  0  0
 42 45  1  0  0  0  0
 44 46  1  0  0  0  0
 45 46  2  0  0  0  0
M  END
$$$$

 OpenBabel10082411353D

 46 57  0  0  0  0  0  0  0  0999 V2000
    8.0806    9.0240  -12.7589 C   0  0  0  0  0  0  0  0  0  0  0  0
    8.6514    7.8645  -12.2948 C   0  0  0  0  0  0  0  0  0  0  0  0
    9.9575    7.9974  -11.8426 C   0  0  0  0  0  0  0  0  0  0  0  0
   10.7657    6.8667  -11.6050 C   0  0  1  0  0  0  0  0  0  0  0  0
   10.7682    5.9590  -12.8271 C   0  0  0  0  0  0  0  0  0  0  0  0
   12.1553    7.3846  -11.2315 C   0  0  0  0  0  0  0  0  0  0  0  0
    8.0676    6.6451  -12.2974 C   0  0  0  0  0  0  0  0  0  0  0  0
   10.1892    6.1240  -10.3860 C   0  0  0  0  0  0  0  0  0  0  0  0
   11.8375    5.4373  -13.3240 O   0  0  0  0  0  0  0  0  0  0  0  0
    8.6785    5.4761  -13.0273 C   0  0  1  0  0  0  0  0  0  0  0  0
    9.1969    5.2405  -10.4969 C   0  0  2  0  0  0  0  0  0  0  0  0
    7.2213    6.2210  -11.3074 C   0  0  2  0  0  0  0  0  0  0  0  0
   12.5590    7.6872   -9.9896 C   0  0  0  0  0  0  0  0  0  0  0  0
    9.7633    5.0333  -12.9720 C   0  0  1  0  0  0  0  0  0  0  0  0
   10.0661    4.0167  -14.0373 N   0  0  0  0  0  0  0  0  0  0  0  0
   13.6906    8.3004   -9.6233 O   0  0  0  0  0  0  0  0  0  0  0  0
    7.6357    4.5123  -12.6317 C   0  0  2  0  0  0  0  0  0  0  0  0
    6.8831    4.9171  -11.7031 C   0  0  2  0  0  0  0  0  0  0  0  0
   10.5937    6.6967   -9.1779 C   0  0  0  0  0  0  0  0  0  0  0  0
    9.5087    4.3263  -11.6925 C   0  0  2  0  0  0  0  0  0  0  0  0
   11.6359    7.4449   -8.9125 C   0  0  0  0  0  0  0  0  0  0  0  0
   11.9716    7.9159   -7.6200 C   0  0  0  0  0  0  0  0  0  0  0  0
    8.4648    3.6122  -12.2840 C   0  0  1  0  0  0  0  0  0  0  0  0
    7.9253    2.8004  -11.3926 C   0  0  0  0  0  0  0  0  0  0  0  0
    5.6047    4.5059  -11.7589 C   0  0  0  0  0  0  0  0  0  0  0  0
    7.6606    4.1297  -10.5699 C   0  0  0  0  0  0  0  0  0  0  0  0
   10.9559    7.6849   -6.6057 C   0  0  0  0  0  0  0  0  0  0  0  0
    8.0094    4.5092   -9.5664 C   0  0  0  0  0  0  0  0  0  0  0  0
    8.3033    4.0627   -8.4980 C   0  0  0  0  0  0  0  0  0  0  0  0
    6.3587    7.1012  -11.0392 O   0  0  0  0  0  0  0  0  0  0  0  0
   11.0186    3.9598  -14.9226 C   0  0  0  0  0  0  0  0  0  0  0  0
    8.1758    5.8633  -10.2511 C   0  0  1  0  0  0  0  0  0  0  0  0
   11.4648    2.7104  -15.2650 O   0  0  0  0  0  0  0  0  0  0  0  0
    9.9512    6.8220   -6.8436 C   0  0  0  0  0  0  0  0  0  0  0  0
    9.6899    6.3705   -8.1082 C   0  0  2  0  0  0  0  0  0  0  0  0
   11.2597    8.2901   -5.2396 C   0  0  0  0  0  0  0  0  0  0  0  0
   11.6068    9.7354   -5.2006 C   0  0  0  0  0  0  0  0  0  0  0  0
   10.9469    4.9352  -15.8306 C   0  0  0  0  0  0  0  0  0  0  0  0
    9.2064    3.0392  -13.7313 C   0  0  0  0  0  0  0  0  0  0  0  0
    8.9002    4.9389   -7.7678 C   0  0  0  0  0  0  0  0  0  0  0  0
   11.3513    7.7140   -4.0324 C   0  0  0  0  0  0  0  0  0  0  0  0
   11.6995    8.2365   -2.8351 C   0  0  0  0  0  0  0  0  0  0  0  0
   11.4229   10.6499   -6.4288 C   0  0  0  0  0  0  0  0  0  0  0  0
   11.8718    7.3398   -1.6411 C   0  0  0  0  0  0  0  0  0  0  0  0
   12.1368    9.4283   -2.8784 C   0  0  0  0  0  0  0  0  0  0  0  0
   11.9758   10.3468   -4.0790 C   0  0  0  0  0  0  0  0  0  0  0  0
  1  2  1  0  0  0  0
  2  3  1  0  0  0  0
  2  7  2  0  0  0  0
  4  3  1  6  0  0  0
  4  5  1  0  0  0  0
  4  6  1  0  0  0  0
  4  8  1  0  0  0  0
  5  9  2  0  0  0  0
  6 13  1  0  0  0  0
  7 12  1  0  0  0  0
  8 19  2  0  0  0  0
 10  7  1  1  0  0  0
 10 14  1  0  0  0  0
 10 17  1  0  0  0  0
 11  8  1  6  0  0  0
 11 20  1  0  0  0  0
 11 32  1  0  0  0  0
 12 18  1  0  0  0  0
 12 30  1  1  0  0  0
 12 32  1  0  0  0  0
 13 16  2  0  0  0  0
 13 21  1  0  0  0  0
 14  5  1  1  0  0  0
 14 15  1  0  0  0  0
 14 20  1  0  0  0  0
 15 31  1  0  0  0  0
 15 39  1  0  0  0  0
 17 18  1  0  0  0  0
 17 23  1  0  0  0  0
 18 25  1  0  0  0  0
 18 26  1  0  0  0  0
 19 21  1  0  0  0  0
 19 35  1  0  0  0  0
 20 23  1  0  0  0  0
 21 22  2  0  0  0  0
 22 27  1  0  0  0  0
 23 24  1  0  0  0  0
 23 39  1  0  0  0  0
 24 26  1  0  0  0  0
 26 28  2  0  0  0  0
 27 34  2  0  0  0  0
 27 36  1  0  0  0  0
 28 29  1  0  0  0  0
 28 32  1  0  0  0  0
 29 40  2  0  0  0  0
 31 33  2  0  0  0  0
 31 38  1  0  0  0  0
 34 35  1  0  0  0  0
 35 40  1  0  0  0  0
 36 37  1  0  0  0  0
 36 41  2  0  0  0  0
 37 43  1  0  0  0  0
 37 46  2  0  0  0  0
 41 42  1  0  0  0  0
 42 44  1  0  0  0  0
 42 45  2  0  0  0  0
 45 46  1  0  0  0  0
M  END
$$$$

 OpenBabel10082411353D

 46 57  0  0  0  0  0  0  0  0999 V2000
    8.0806    9.0240  -12.7589 C   0  0  0  0  0  0  0  0  0  0  0  0
    8.6514    7.8645  -12.2948 C   0  0  0  0  0  0  0  0  0  0  0  0
    9.9575    7.9974  -11.8426 C   0  0  0  0  0  0  0  0  0  0  0  0
   10.7657    6.8667  -11.6050 C   0  0  1  0  0  0  0  0  0  0  0  0
   10.7682    5.9590  -12.8271 C   0  0  0  0  0  0  0  0  0  0  0  0
   12.1553    7.3846  -11.2315 C   0  0  0  0  0  0  0  0  0  0  0  0
    8.0676    6.6451  -12.2974 C   0  0  0  0  0  0  0  0  0  0  0  0
   10.1892    6.1240  -10.3860 C   0  0  0  0  0  0  0  0  0  0  0  0
   11.8375    5.4373  -13.3240 O   0  0  0  0  0  0  0  0  0  0  0  0
    8.6785    5.4761  -13.0273 C   0  0  1  0  0  0  0  0  0  0  0  0
    9.1969    5.2405  -10.4969 C   0  0  2  0  0  0  0  0  0  0  0  0
    7.2213    6.2210  -11.3074 C   0  0  2  0  0  0  0  0  0  0  0  0
   12.5590    7.6872   -9.9896 C   0  0  0  0  0  0  0  0  0  0  0  0
    9.7633    5.0333  -12.9720 C   0  0  1  0  0  0  0  0  0  0  0  0
   10.0661    4.0167  -14.0373 N   0  0  0  0  0  0  0  0  0  0  0  0
   13.6906    8.3004   -9.6233 O   0  0  0  0  0  0  0  0  0  0  0  0
    7.6357    4.5123  -12.6317 C   0  0  2  0  0  0  0  0  0  0  0  0
    6.8831    4.9171  -11.7031 C   0  0  2  0  0  0  0  0  0  0  0  0
   10.5937    6.6967   -9.1779 C   0  0  0  0  0  0  0  0  0  0  0  0
    9.5087    4.3263  -11.6925 C   0  0  2  0  0  0  0  0  0  0  0  0
   11.6359    7.4449   -8.9125 C   0  0  0  0  0  0  0  0  0  0  0  0
   11.9716    7.9159   -7.6200 C   0  0  0  0  0  0  0  0  0  0  0  0
    8.4648    3.6122  -12.2840 C   0  0  1  0  0  0  0  0  0  0  0  0
    7.9253    2.8004  -11.3926 C   0  0  0  0  0  0  0  0  0  0  0  0
    5.6047    4.5059  -11.7589 C   0  0  0  0  0  0  0  0  0  0  0  0
    7.6606    4.1297  -10.5699 C   0  0  0  0  0  0  0  0  0  0  0  0
   10.9559    7.6849   -6.6057 C   0  0  0  0  0  0  0  0  0  0  0  0
    8.0094    4.5092   -9.5664 C   0  0  0  0  0  0  0  0  0  0  0  0
    8.3033    4.0627   -8.4980 C   0  0  0  0  0  0  0  0  0  0  0  0
    6.3587    7.1012  -11.0392 O   0  0  0  0  0  0  0  0  0  0  0  0
   11.0186    3.9598  -14.9226 C   0  0  0  0  0  0  0  0  0  0  0  0
    8.1758    5.8633  -10.2511 C   0  0  1  0  0  0  0  0  0  0  0  0
   11.4648    2.7104  -15.2650 O   0  0  0  0  0  0  0  0  0  0  0  0
    9.9512    6.8220   -6.8436 C   0  0  0  0  0  0  0  0  0  0  0  0
    9.6899    6.3705   -8.1082 C   0  0  2  0  0  0  0  0  0  0  0  0
   11.2597    8.2901   -5.2396 C   0  0  0  0  0  0  0  0  0  0  0  0
   11.7295    4.9426  -15.4284 O   0  0  0  0  0  0  0  0  0  0  0  0
    9.2745    4.9481   -7.8103 C   0  0  0  0  0  0  0  0  0  0  0  0
    9.1757    2.9301  -13.7559 C   0  0  0  0  0  0  0  0  0  0  0  0
   11.9187    7.5856   -4.3294 C   0  0  0  0  0  0  0  0  0  0  0  0
   12.4320    8.2240   -3.0545 C   0  0  0  0  0  0  0  0  0  0  0  0
   12.0707    6.1971   -4.3592 C   0  0  0  0  0  0  0  0  0  0  0  0
   10.8961    9.6357   -5.0141 C   0  0  0  0  0  0  0  0  0  0  0  0
   13.0649    7.4380   -2.1164 C   0  0  0  0  0  0  0  0  0  0  0  0
   12.6495    5.5190   -3.3094 C   0  0  0  0  0  0  0  0  0  0  0  0
   13.1120    6.1615   -2.2348 C   0  0  0  0  0  0  0  0  0  0  0  0
  1  2  1  0  0  0  0
  2  3  1  0  0  0  0
  2  7  2  0  0  0  0
  4  3  1  6  0  0  0
  4  5  1  0  0  0  0
  4  6  1  0  0  0  0
  4  8  1  0  0  0  0
  5  9  2  0  0  0  0
  6 13  1  0  0  0  0
  7 12  1  0  0  0  0
  8 19  2  0  0  0  0
 10  7  1  1  0  0  0
 10 14  1  0  0  0  0
 10 17  1  0  0  0  0
 11  8  1  6  0  0  0
 11 20  1  0  0  0  0
 11 32  1  0  0  0  0
 12 18  1  0  0  0  0
 12 30  1  1  0  0  0
 12 32  1  0  0  0  0
 13 16  2  0  0  0  0
 13 21  1  0  0  0  0
 14  5  1  1  0  0  0
 14 15  1  0  0  0  0
 14 20  1  0  0  0  0
 15 31  1  0  0  0  0
 15 39  1  0  0  0  0
 17 18  1  0  0  0  0
 17 23  1  0  0  0  0
 18 25  1  0  0  0  0
 18 26  1  0  0  0  0
 19 21  1  0  0  0  0
 19 35  1  0  0  0  0
 20 23  1  0  0  0  0
 21 22  2  0  0  0  0
 22 27  1  0  0  0  0
 23 24  1  0  0  0  0
 23 39  1  0  0  0  0
 24 26  1  0  0  0  0
 26 28  2  0  0  0  0
 27 34  2  0  0  0  0
 27 36  1  0  0  0  0
 28 29  1  0  0  0  0
 28 32  1  0  0  0  0
 29 38  1  0  0  0  0
 31 33  2  0  0  0  0
 31 37  1  0  0  0  0
 34 35  1  0  0  0  0
 35 38  1  0  0  0  0
 36 40  1  0  0  0  0
 36 43  2  0  0  0  0
 40 41  1  0  0  0  0
 40 42  2  0  0  0  0
 41 44  2  0  0  0  0
 42 45  1  0  0  0  0
 44 46  1  0  0  0  0
 45 46  2  0  0  0  0
M  END
$$$$

 OpenBabel10082411353D

 46 57  0  0  0  0  0  0  0  0999 V2000
    8.0806    9.0240  -12.7589 C   0  0  0  0  0  0  0  0  0  0  0  0
    8.6514    7.8645  -12.2948 C   0  0  0  0  0  0  0  0  0  0  0  0
    9.9575    7.9974  -11.8426 C   0  0  0  0  0  0  0  0  0  0  0  0
   10.7657    6.8667  -11.6050 C   0  0  1  0  0  0  0  0  0  0  0  0
   10.7682    5.9590  -12.8271 C   0  0  0  0  0  0  0  0  0  0  0  0
   12.1553    7.3846  -11.2315 C   0  0  0  0  0  0  0  0  0  0  0  0
    8.0676    6.6451  -12.2974 C   0  0  0  0  0  0  0  0  0  0  0  0
   10.1892    6.1240  -10.3860 C   0  0  0  0  0  0  0  0  0  0  0  0
   11.8375    5.4373  -13.3240 O   0  0  0  0  0  0  0  0  0  0  0  0
    8.6785    5.4761  -13.0273 C   0  0  1  0  0  0  0  0  0  0  0  0
    9.1969    5.2405  -10.4969 C   0  0  2  0  0  0  0  0  0  0  0  0
    7.2213    6.2210  -11.3074 C   0  0  2  0  0  0  0  0  0  0  0  0
   12.5590    7.6872   -9.9896 C   0  0  0  0  0  0  0  0  0  0  0  0
    9.7633    5.0333  -12.9720 C   0  0  1  0  0  0  0  0  0  0  0  0
   10.0661    4.0167  -14.0373 N   0  0  0  0  0  0  0  0  0  0  0  0
   13.6906    8.3004   -9.6233 O   0  0  0  0  0  0  0  0  0  0  0  0
    7.6357    4.5123  -12.6317 C   0  0  2  0  0  0  0  0  0  0  0  0
    6.8831    4.9171  -11.7031 C   0  0  2  0  0  0  0  0  0  0  0  0
   10.5937    6.6967   -9.1779 C   0  0  0  0  0  0  0  0  0  0  0  0
    9.5087    4.3263  -11.6925 C   0  0  2  0  0  0  0  0  0  0  0  0
   11.6359    7.4449   -8.9125 C   0  0  0  0  0  0  0  0  0  0  0  0
   11.9716    7.9159   -7.6200 C   0  0  0  0  0  0  0  0  0  0  0  0
    8.4648    3.6122  -12.2840 C   0  0  1  0  0  0  0  0  0  0  0  0
    7.9253    2.8004  -11.3926 C   0  0  0  0  0  0  0  0  0  0  0  0
    5.6047    4.5059  -11.7589 C   0  0  0  0  0  0  0  0  0  0  0  0
    7.6606    4.1297  -10.5699 C   0  0  0  0  0  0  0  0  0  0  0  0
   10.9559    7.6849   -6.6057 C   0  0  0  0  0  0  0  0  0  0  0  0
    8.0094    4.5092   -9.5664 C   0  0  0  0  0  0  0  0  0  0  0  0
    8.3033    4.0627   -8.4980 C   0  0  0  0  0  0  0  0  0  0  0  0
    6.3587    7.1012  -11.0392 O   0  0  0  0  0  0  0  0  0  0  0  0
   11.0186    3.9598  -14.9226 C   0  0  0  0  0  0  0  0  0  0  0  0
    8.1758    5.8633  -10.2511 C   0  0  1  0  0  0  0  0  0  0  0  0
   11.4648    2.7104  -15.2650 O   0  0  0  0  0  0  0  0  0  0  0  0
    9.9512    6.8220   -6.8436 C   0  0  0  0  0  0  0  0  0  0  0  0
    9.6899    6.3705   -8.1082 C   0  0  2  0  0  0  0  0  0  0  0  0
   11.2597    8.2901   -5.2396 C   0  0  0  0  0  0  0  0  0  0  0  0
   11.7295    4.9426  -15.4284 O   0  0  0  0  0  0  0  0  0  0  0  0
    9.2745    4.9481   -7.8103 C   0  0  0  0  0  0  0  0  0  0  0  0
   11.9189    7.5859   -4.3309 C   0  0  0  0  0  0  0  0  0  0  0  0
   12.8427    8.2581   -3.4188 C   0  0  0  0  0  0  0  0  0  0  0  0
   11.7265    6.1960   -4.1386 C   0  0  0  0  0  0  0  0  0  0  0  0
   10.8967    9.6309   -4.9879 C   0  0  0  0  0  0  0  0  0  0  0  0
    9.1774    2.9279  -13.7503 C   0  0  0  0  0  0  0  0  0  0  0  0
   12.4462    9.6340   -3.0349 C   0  0  0  0  0  0  0  0  0  0  0  0
   10.0404   10.4421   -5.8415 O   0  0  0  0  0  0  0  0  0  0  0  0
   11.5432   10.3694   -3.8918 C   0  0  0  0  0  0  0  0  0  0  0  0
  1  2  1  0  0  0  0
  2  3  1  0  0  0  0
  2  7  2  0  0  0  0
  4  3  1  6  0  0  0
  4  5  1  0  0  0  0
  4  6  1  0  0  0  0
  4  8  1  0  0  0  0
  5  9  2  0  0  0  0
  6 13  1  0  0  0  0
  7 12  1  0  0  0  0
  8 19  2  0  0  0  0
 10  7  1  1  0  0  0
 10 14  1  0  0  0  0
 10 17  1  0  0  0  0
 11  8  1  6  0  0  0
 11 20  1  0  0  0  0
 11 32  1  0  0  0  0
 12 18  1  0  0  0  0
 12 30  1  1  0  0  0
 12 32  1  0  0  0  0
 13 16  2  0  0  0  0
 13 21  1  0  0  0  0
 14  5  1  1  0  0  0
 14 15  1  0  0  0  0
 14 20  1  0  0  0  0
 15 31  1  0  0  0  0
 15 43  1  0  0  0  0
 17 18  1  0  0  0  0
 17 23  1  0  0  0  0
 18 25  1  0  0  0  0
 18 26  1  0  0  0  0
 19 21  1  0  0  0  0
 19 35  1  0  0  0  0
 20 23  1  0  0  0  0
 21 22  2  0  0  0  0
 22 27  1  0  0  0  0
 23 24  1  0  0  0  0
 23 43  1  0  0  0  0
 24 26  1  0  0  0  0
 26 28  2  0  0  0  0
 27 34  2  0  0  0  0
 27 36  1  0  0  0  0
 28 29  1  0  0  0  0
 28 32  1  0  0  0  0
 29 38  1  0  0  0  0
 31 33  2  0  0  0  0
 31 37  1  0  0  0  0
 34 35  1  0  0  0  0
 35 38  1  0  0  0  0
 36 39  1  0  0  0  0
 36 42  2  0  0  0  0
 39 40  1  0  0  0  0
 39 41  2  0  0  0  0
 40 44  2  0  0  0  0
 42 45  1  0  0  0  0
 42 46  1  0  0  0  0
 44 46  1  0  0  0  0
M  END
$$$$

 OpenBabel10082411353D

 46 56  0  0  0  0  0  0  0  0999 V2000
    8.0806    9.0240  -12.7589 C   0  0  0  0  0  0  0  0  0  0  0  0
    8.6514    7.8645  -12.2948 C   0  0  0  0  0  0  0  0  0  0  0  0
    9.9575    7.9974  -11.8426 C   0  0  0  0  0  0  0  0  0  0  0  0
   10.7657    6.8667  -11.6050 C   0  0  1  0  0  0  0  0  0  0  0  0
   10.7682    5.9590  -12.8271 C   0  0  0  0  0  0  0  0  0  0  0  0
   12.1553    7.3846  -11.2315 C   0  0  0  0  0  0  0  0  0  0  0  0
    8.0676    6.6451  -12.2974 C   0  0  0  0  0  0  0  0  0  0  0  0
   10.1892    6.1240  -10.3860 C   0  0  0  0  0  0  0  0  0  0  0  0
   11.8375    5.4373  -13.3240 O   0  0  0  0  0  0  0  0  0  0  0  0
    8.6785    5.4761  -13.0273 C   0  0  1  0  0  0  0  0  0  0  0  0
    9.1969    5.2405  -10.4969 C   0  0  2  0  0  0  0  0  0  0  0  0
    7.2213    6.2210  -11.3074 C   0  0  2  0  0  0  0  0  0  0  0  0
   12.5590    7.6872   -9.9896 C   0  0  0  0  0  0  0  0  0  0  0  0
    9.7633    5.0333  -12.9720 C   0  0  1  0  0  0  0  0  0  0  0  0
   10.0661    4.0167  -14.0373 N   0  0  0  0  0  0  0  0  0  0  0  0
   13.6906    8.3004   -9.6233 O   0  0  0  0  0  0  0  0  0  0  0  0
    7.6357    4.5123  -12.6317 C   0  0  2  0  0  0  0  0  0  0  0  0
    6.8831    4.9171  -11.7031 C   0  0  2  0  0  0  0  0  0  0  0  0
   10.5937    6.6967   -9.1779 C   0  0  0  0  0  0  0  0  0  0  0  0
    9.5087    4.3263  -11.6925 C   0  0  2  0  0  0  0  0  0  0  0  0
   11.6359    7.4449   -8.9125 C   0  0  0  0  0  0  0  0  0  0  0  0
   11.9716    7.9159   -7.6200 C   0  0  0  0  0  0  0  0  0  0  0  0
    8.4648    3.6122  -12.2840 C   0  0  1  0  0  0  0  0  0  0  0  0
    7.9253    2.8004  -11.3926 C   0  0  0  0  0  0  0  0  0  0  0  0
    5.6047    4.5059  -11.7589 C   0  0  0  0  0  0  0  0  0  0  0  0
    7.6606    4.1297  -10.5699 C   0  0  0  0  0  0  0  0  0  0  0  0
   10.9559    7.6849   -6.6057 C   0  0  0  0  0  0  0  0  0  0  0  0
    8.0094    4.5092   -9.5664 C   0  0  0  0  0  0  0  0  0  0  0  0
    8.3033    4.0627   -8.4980 C   0  0  0  0  0  0  0  0  0  0  0  0
    6.3587    7.1012  -11.0392 O   0  0  0  0  0  0  0  0  0  0  0  0
   11.1885    8.2709   -5.2029 C   0  0  0  0  0  0  0  0  0  0  0  0
    8.1551    5.8688  -10.2415 C   0  0  0  0  0  0  0  0  0  0  0  0
    9.3562    2.8931  -13.4173 C   0  0  0  0  0  0  0  0  0  0  0  0
    9.4006    1.8057  -13.6789 O   0  0  0  0  0  0  0  0  0  0  0  0
   10.6448    3.9324  -15.2556 C   0  0  0  0  0  0  0  0  0  0  0  0
    9.9004    6.8953   -6.7235 C   0  0  0  0  0  0  0  0  0  0  0  0
    8.1584    4.7418   -7.5351 O   0  0  0  0  0  0  0  0  0  0  0  0
    8.5999    2.9050   -8.2804 O   0  0  0  0  0  0  0  0  0  0  0  0
   11.6420    7.3504   -4.2035 C   0  0  0  0  0  0  0  0  0  0  0  0
    9.6081    6.4128   -8.0398 C   0  0  1  0  0  0  0  0  0  0  0  0
    8.3828    5.9446   -7.9275 C   0  0  0  0  0  0  0  0  0  0  0  0
   11.1933    9.6919   -4.9542 C   0  0  0  0  0  0  0  0  0  0  0  0
   11.7827    5.9124   -4.4646 C   0  0  0  0  0  0  0  0  0  0  0  0
   11.4309   10.1732   -3.7160 C   0  0  0  0  0  0  0  0  0  0  0  0
   11.9091    7.8390   -2.9904 C   0  0  0  0  0  0  0  0  0  0  0  0
   11.8567    9.4532   -2.7172 C   0  0  0  0  0  0  0  0  0  0  0  0
  1  2  1  0  0  0  0
  2  3  1  0  0  0  0
  2  7  2  0  0  0  0
  4  3  1  6  0  0  0
  4  5  1  0  0  0  0
  4  6  1  0  0  0  0
  4  8  1  0  0  0  0
  5  9  2  0  0  0  0
  6 13  1  0  0  0  0
  7 12  1  0  0  0  0
  8 11  1  0  0  0  0
  8 19  2  0  0  0  0
 10  7  1  1  0  0  0
 10 14  1  0  0  0  0
 10 17  1  0  0  0  0
 11 20  1  0  0  0  0
 11 32  1  6  0  0  0
 12 18  1  0  0  0  0
 12 30  1  6  0  0  0
 13 16  2  0  0  0  0
 13 21  1  0  0  0  0
 14  5  1  1  0  0  0
 14 15  1  0  0  0  0
 14 20  1  0  0  0  0
 15 33  1  0  0  0  0
 15 35  1  0  0  0  0
 17 18  1  0  0  0  0
 17 23  1  0  0  0  0
 18 25  1  0  0  0  0
 18 26  1  0  0  0  0
 19 21  1  0  0  0  0
 19 40  1  0  0  0  0
 20 23  1  0  0  0  0
 21 22  2  0  0  0  0
 22 27  1  0  0  0  0
 23 24  1  0  0  0  0
 23 33  1  0  0  0  0
 24 26  1  0  0  0  0
 26 28  2  0  0  0  0
 27 31  1  0  0  0  0
 27 36  2  0  0  0  0
 28 29  1  0  0  0  0
 28 32  1  0  0  0  0
 29 37  1  0  0  0  0
 29 38  2  0  0  0  0
 31 39  1  0  0  0  0
 31 42  2  0  0  0  0
 33 34  2  0  0  0  0
 36 40  1  0  0  0  0
 37 41  1  0  0  0  0
 39 43  1  0  0  0  0
 39 45  2  0  0  0  0
 40 41  1  0  0  0  0
 42 44  1  0  0  0  0
 44 46  2  0  0  0  0
 45 46  1  0  0  0  0
M  END
$$$$

 OpenBabel10082411353D

 46 57  0  0  0  0  0  0  0  0999 V2000
    8.0806    9.0240  -12.7589 C   0  0  0  0  0  0  0  0  0  0  0  0
    8.6514    7.8645  -12.2948 C   0  0  0  0  0  0  0  0  0  0  0  0
    9.9575    7.9974  -11.8426 C   0  0  0  0  0  0  0  0  0  0  0  0
   10.7657    6.8667  -11.6050 C   0  0  1  0  0  0  0  0  0  0  0  0
   10.7682    5.9590  -12.8271 C   0  0  0  0  0  0  0  0  0  0  0  0
   12.1553    7.3846  -11.2315 C   0  0  0  0  0  0  0  0  0  0  0  0
    8.0676    6.6451  -12.2974 C   0  0  0  0  0  0  0  0  0  0  0  0
   10.1892    6.1240  -10.3860 C   0  0  0  0  0  0  0  0  0  0  0  0
   11.8375    5.4373  -13.3240 O   0  0  0  0  0  0  0  0  0  0  0  0
    8.6785    5.4761  -13.0273 C   0  0  1  0  0  0  0  0  0  0  0  0
    9.1969    5.2405  -10.4969 C   0  0  2  0  0  0  0  0  0  0  0  0
    7.2213    6.2210  -11.3074 C   0  0  2  0  0  0  0  0  0  0  0  0
   12.5590    7.6872   -9.9896 C   0  0  0  0  0  0  0  0  0  0  0  0
    9.7633    5.0333  -12.9720 C   0  0  1  0  0  0  0  0  0  0  0  0
   10.0661    4.0167  -14.0373 N   0  0  0  0  0  0  0  0  0  0  0  0
   13.6906    8.3004   -9.6233 O   0  0  0  0  0  0  0  0  0  0  0  0
    7.6357    4.5123  -12.6317 C   0  0  2  0  0  0  0  0  0  0  0  0
    6.8831    4.9171  -11.7031 C   0  0  2  0  0  0  0  0  0  0  0  0
   10.5937    6.6967   -9.1779 C   0  0  0  0  0  0  0  0  0  0  0  0
    9.5087    4.3263  -11.6925 C   0  0  2  0  0  0  0  0  0  0  0  0
   11.6359    7.4449   -8.9125 C   0  0  0  0  0  0  0  0  0  0  0  0
   11.9716    7.9159   -7.6200 C   0  0  0  0  0  0  0  0  0  0  0  0
    8.4648    3.6122  -12.2840 C   0  0  1  0  0  0  0  0  0  0  0  0
    7.9253    2.8004  -11.3926 C   0  0  0  0  0  0  0  0  0  0  0  0
    5.6047    4.5059  -11.7589 C   0  0  0  0  0  0  0  0  0  0  0  0
    7.6606    4.1297  -10.5699 C   0  0  0  0  0  0  0  0  0  0  0  0
   10.9559    7.6849   -6.6057 C   0  0  0  0  0  0  0  0  0  0  0  0
    8.0094    4.5092   -9.5664 C   0  0  0  0  0  0  0  0  0  0  0  0
    8.3033    4.0627   -8.4980 C   0  0  0  0  0  0  0  0  0  0  0  0
    6.3587    7.1012  -11.0392 O   0  0  0  0  0  0  0  0  0  0  0  0
   11.0186    3.9598  -14.9226 C   0  0  0  0  0  0  0  0  0  0  0  0
    8.1758    5.8633  -10.2511 C   0  0  1  0  0  0  0  0  0  0  0  0
   11.4648    2.7104  -15.2650 O   0  0  0  0  0  0  0  0  0  0  0  0
    9.9512    6.8220   -6.8436 C   0  0  0  0  0  0  0  0  0  0  0  0
    9.6899    6.3705   -8.1082 C   0  0  2  0  0  0  0  0  0  0  0  0
   11.2597    8.2901   -5.2396 C   0  0  0  0  0  0  0  0  0  0  0  0
   11.6068    9.7354   -5.2006 C   0  0  0  0  0  0  0  0  0  0  0  0
   10.9469    4.9352  -15.8306 C   0  0  0  0  0  0  0  0  0  0  0  0
    9.2417    4.9555   -7.8256 C   0  0  0  0  0  0  0  0  0  0  0  0
   11.3657    7.7043   -4.0379 C   0  0  0  0  0  0  0  0  0  0  0  0
   11.4469   10.6225   -6.4157 C   0  0  0  0  0  0  0  0  0  0  0  0
   11.9077   10.2897   -3.9889 C   0  0  0  0  0  0  0  0  0  0  0  0
   11.9472    9.5143   -2.8307 C   0  0  0  0  0  0  0  0  0  0  0  0
    9.3030    2.8335  -13.6243 C   0  0  0  0  0  0  0  0  0  0  0  0
   11.0706    6.0966   -4.1041 C   0  0  0  0  0  0  0  0  0  0  0  0
   11.7225    8.2263   -2.8770 C   0  0  0  0  0  0  0  0  0  0  0  0
  1  2  1  0  0  0  0
  2  3  1  0  0  0  0
  2  7  2  0  0  0  0
  4  3  1  6  0  0  0
  4  5  1  0  0  0  0
  4  6  1  0  0  0  0
  4  8  1  0  0  0  0
  5  9  2  0  0  0  0
  6 13  1  0  0  0  0
  7 12  1  0  0  0  0
  8 19  2  0  0  0  0
 10  7  1  1  0  0  0
 10 14  1  0  0  0  0
 10 17  1  0  0  0  0
 11  8  1  6  0  0  0
 11 20  1  0  0  0  0
 11 32  1  0  0  0  0
 12 18  1  0  0  0  0
 12 30  1  1  0  0  0
 12 32  1  0  0  0  0
 13 16  2  0  0  0  0
 13 21  1  0  0  0  0
 14  5  1  1  0  0  0
 14 15  1  0  0  0  0
 14 20  1  0  0  0  0
 15 31  1  0  0  0  0
 15 44  1  0  0  0  0
 17 18  1  0  0  0  0
 17 23  1  0  0  0  0
 18 25  1  0  0  0  0
 18 26  1  0  0  0  0
 19 21  1  0  0  0  0
 19 35  1  0  0  0  0
 20 23  1  0  0  0  0
 21 22  2  0  0  0  0
 22 27  1  0  0  0  0
 23 24  1  0  0  0  0
 23 44  1  0  0  0  0
 24 26  1  0  0  0  0
 26 28  2  0  0  0  0
 27 34  2  0  0  0  0
 27 36  1  0  0  0  0
 28 29  1  0  0  0  0
 28 32  1  0  0  0  0
 29 39  2  0  0  0  0
 31 33  2  0  0  0  0
 31 38  1  0  0  0  0
 34 35  1  0  0  0  0
 35 39  1  0  0  0  0
 36 37  1  0  0  0  0
 36 40  2  0  0  0  0
 37 41  1  0  0  0  0
 37 42  2  0  0  0  0
 40 45  1  0  0  0  0
 40 46  1  0  0  0  0
 42 43  1  0  0  0  0
 43 46  2  0  0  0  0
M  END
$$$$

 OpenBabel10082411353D

 46 57  0  0  0  0  0  0  0  0999 V2000
    8.0806    9.0240  -12.7589 C   0  0  0  0  0  0  0  0  0  0  0  0
    8.6514    7.8645  -12.2948 C   0  0  0  0  0  0  0  0  0  0  0  0
    9.9575    7.9974  -11.8426 C   0  0  0  0  0  0  0  0  0  0  0  0
   10.7657    6.8667  -11.6050 C   0  0  1  0  0  0  0  0  0  0  0  0
   10.7682    5.9590  -12.8271 C   0  0  0  0  0  0  0  0  0  0  0  0
   12.1553    7.3846  -11.2315 C   0  0  0  0  0  0  0  0  0  0  0  0
    8.0676    6.6451  -12.2974 C   0  0  0  0  0  0  0  0  0  0  0  0
   10.1892    6.1240  -10.3860 C   0  0  0  0  0  0  0  0  0  0  0  0
   11.8375    5.4373  -13.3240 O   0  0  0  0  0  0  0  0  0  0  0  0
    8.6785    5.4761  -13.0273 C   0  0  1  0  0  0  0  0  0  0  0  0
    9.1969    5.2405  -10.4969 C   0  0  2  0  0  0  0  0  0  0  0  0
    7.2213    6.2210  -11.3074 C   0  0  2  0  0  0  0  0  0  0  0  0
   12.5590    7.6872   -9.9896 C   0  0  0  0  0  0  0  0  0  0  0  0
    9.7633    5.0333  -12.9720 C   0  0  1  0  0  0  0  0  0  0  0  0
   10.0661    4.0167  -14.0373 N   0  0  0  0  0  0  0  0  0  0  0  0
   13.6906    8.3004   -9.6233 O   0  0  0  0  0  0  0  0  0  0  0  0
    7.6357    4.5123  -12.6317 C   0  0  2  0  0  0  0  0  0  0  0  0
    6.8831    4.9171  -11.7031 C   0  0  2  0  0  0  0  0  0  0  0  0
   10.5937    6.6967   -9.1779 C   0  0  0  0  0  0  0  0  0  0  0  0
    9.5087    4.3263  -11.6925 C   0  0  2  0  0  0  0  0  0  0  0  0
   11.6359    7.4449   -8.9125 C   0  0  0  0  0  0  0  0  0  0  0  0
   11.9716    7.9159   -7.6200 C   0  0  0  0  0  0  0  0  0  0  0  0
    8.4648    3.6122  -12.2840 C   0  0  1  0  0  0  0  0  0  0  0  0
    7.9253    2.8004  -11.3926 C   0  0  0  0  0  0  0  0  0  0  0  0
    5.6047    4.5059  -11.7589 C   0  0  0  0  0  0  0  0  0  0  0  0
    7.6606    4.1297  -10.5699 C   0  0  0  0  0  0  0  0  0  0  0  0
   10.9559    7.6849   -6.6057 C   0  0  0  0  0  0  0  0  0  0  0  0
    8.0094    4.5092   -9.5664 C   0  0  0  0  0  0  0  0  0  0  0  0
    8.3033    4.0627   -8.4980 C   0  0  0  0  0  0  0  0  0  0  0  0
    6.3587    7.1012  -11.0392 O   0  0  0  0  0  0  0  0  0  0  0  0
   11.0186    3.9598  -14.9226 C   0  0  0  0  0  0  0  0  0  0  0  0
    8.1758    5.8633  -10.2511 C   0  0  1  0  0  0  0  0  0  0  0  0
   11.4648    2.7104  -15.2650 O   0  0  0  0  0  0  0  0  0  0  0  0
    9.9512    6.8220   -6.8436 C   0  0  0  0  0  0  0  0  0  0  0  0
    9.6899    6.3705   -8.1082 C   0  0  2  0  0  0  0  0  0  0  0  0
   11.2597    8.2901   -5.2396 C   0  0  0  0  0  0  0  0  0  0  0  0
   11.6068    9.7354   -5.2006 C   0  0  1  0  0  0  0  0  0  0  0  0
    9.4261    2.7718  -13.6670 C   0  0  0  0  0  0  0  0  0  0  0  0
    9.1568    5.0346   -7.7426 C   0  0  0  0  0  0  0  0  0  0  0  0
   11.2083    4.9304  -15.6781 O   0  0  0  0  0  0  0  0  0  0  0  0
   11.3723    7.7138   -4.0322 C   0  0  0  0  0  0  0  0  0  0  0  0
   11.4531   10.6045   -6.4008 C   0  0  0  0  0  0  0  0  0  0  0  0
   11.1721    6.2503   -3.9429 C   0  0  0  0  0  0  0  0  0  0  0  0
   11.7581    8.6450   -2.9697 C   0  0  0  0  0  0  0  0  0  0  0  0
   12.3477    9.7900   -3.2625 C   0  0  0  0  0  0  0  0  0  0  0  0
   11.8177   10.5064   -4.2745 O   0  0  0  0  0  0  0  0  0  0  0  0
  1  2  1  0  0  0  0
  2  3  1  0  0  0  0
  2  7  2  0  0  0  0
  4  3  1  6  0  0  0
  4  5  1  0  0  0  0
  4  6  1  0  0  0  0
  4  8  1  0  0  0  0
  5  9  2  0  0  0  0
  6 13  1  0  0  0  0
  7 12  1  0  0  0  0
  8 19  2  0  0  0  0
 10  7  1  1  0  0  0
 10 14  1  0  0  0  0
 10 17  1  0  0  0  0
 11  8  1  6  0  0  0
 11 20  1  0  0  0  0
 11 32  1  0  0  0  0
 12 18  1  0  0  0  0
 12 30  1  1  0  0  0
 12 32  1  0  0  0  0
 13 16  2  0  0  0  0
 13 21  1  0  0  0  0
 14  5  1  1  0  0  0
 14 15  1  0  0  0  0
 14 20  1  0  0  0  0
 15 31  1  0  0  0  0
 15 38  1  0  0  0  0
 17 18  1  0  0  0  0
 17 23  1  0  0  0  0
 18 25  1  0  0  0  0
 18 26  1  0  0  0  0
 19 21  1  0  0  0  0
 19 35  1  0  0  0  0
 20 23  1  0  0  0  0
 21 22  2  0  0  0  0
 22 27  1  0  0  0  0
 23 24  1  0  0  0  0
 23 38  1  0  0  0  0
 24 26  1  0  0  0  0
 26 28  2  0  0  0  0
 27 34  2  0  0  0  0
 27 36  1  0  0  0  0
 28 29  1  0  0  0  0
 28 32  1  0  0  0  0
 29 39  1  0  0  0  0
 31 33  2  0  0  0  0
 31 40  1  0  0  0  0
 34 35  1  0  0  0  0
 35 39  1  0  0  0  0
 36 37  1  0  0  0  0
 36 41  2  0  0  0  0
 37 42  1  0  0  0  0
 37 46  1  0  0  0  0
 41 43  1  0  0  0  0
 41 44  1  0  0  0  0
 44 45  1  0  0  0  0
 45 46  1  0  0  0  0
M  END
$$$$

 OpenBabel10082411353D

 46 57  0  0  0  0  0  0  0  0999 V2000
    8.0806    9.0240  -12.7589 C   0  0  0  0  0  0  0  0  0  0  0  0
    8.6514    7.8645  -12.2948 C   0  0  0  0  0  0  0  0  0  0  0  0
    9.9575    7.9974  -11.8426 C   0  0  0  0  0  0  0  0  0  0  0  0
   10.7657    6.8667  -11.6050 C   0  0  1  0  0  0  0  0  0  0  0  0
   10.7682    5.9590  -12.8271 C   0  0  0  0  0  0  0  0  0  0  0  0
   12.1553    7.3846  -11.2315 C   0  0  0  0  0  0  0  0  0  0  0  0
    8.0676    6.6451  -12.2974 C   0  0  0  0  0  0  0  0  0  0  0  0
   10.1892    6.1240  -10.3860 C   0  0  0  0  0  0  0  0  0  0  0  0
   11.8375    5.4373  -13.3240 O   0  0  0  0  0  0  0  0  0  0  0  0
    8.6785    5.4761  -13.0273 C   0  0  1  0  0  0  0  0  0  0  0  0
    9.1969    5.2405  -10.4969 C   0  0  2  0  0  0  0  0  0  0  0  0
    7.2213    6.2210  -11.3074 C   0  0  2  0  0  0  0  0  0  0  0  0
   12.5590    7.6872   -9.9896 C   0  0  0  0  0  0  0  0  0  0  0  0
    9.7633    5.0333  -12.9720 C   0  0  1  0  0  0  0  0  0  0  0  0
   10.0661    4.0167  -14.0373 N   0  0  0  0  0  0  0  0  0  0  0  0
   13.6906    8.3004   -9.6233 O   0  0  0  0  0  0  0  0  0  0  0  0
    7.6357    4.5123  -12.6317 C   0  0  2  0  0  0  0  0  0  0  0  0
    6.8831    4.9171  -11.7031 C   0  0  2  0  0  0  0  0  0  0  0  0
   10.5937    6.6967   -9.1779 C   0  0  0  0  0  0  0  0  0  0  0  0
    9.5087    4.3263  -11.6925 C   0  0  2  0  0  0  0  0  0  0  0  0
   11.6359    7.4449   -8.9125 C   0  0  0  0  0  0  0  0  0  0  0  0
   11.9716    7.9159   -7.6200 C   0  0  0  0  0  0  0  0  0  0  0  0
    8.4648    3.6122  -12.2840 C   0  0  1  0  0  0  0  0  0  0  0  0
    7.9253    2.8004  -11.3926 C   0  0  0  0  0  0  0  0  0  0  0  0
    5.6047    4.5059  -11.7589 C   0  0  0  0  0  0  0  0  0  0  0  0
    7.6606    4.1297  -10.5699 C   0  0  0  0  0  0  0  0  0  0  0  0
   10.9559    7.6849   -6.6057 C   0  0  0  0  0  0  0  0  0  0  0  0
    8.0094    4.5092   -9.5664 C   0  0  0  0  0  0  0  0  0  0  0  0
    8.3033    4.0627   -8.4980 C   0  0  0  0  0  0  0  0  0  0  0  0
    6.3587    7.1012  -11.0392 O   0  0  0  0  0  0  0  0  0  0  0  0
   11.0186    3.9598  -14.9226 C   0  0  0  0  0  0  0  0  0  0  0  0
    8.1758    5.8633  -10.2511 C   0  0  1  0  0  0  0  0  0  0  0  0
   11.4648    2.7104  -15.2650 O   0  0  0  0  0  0  0  0  0  0  0  0
    9.9512    6.8220   -6.8436 C   0  0  0  0  0  0  0  0  0  0  0  0
    9.6899    6.3705   -8.1082 C   0  0  2  0  0  0  0  0  0  0  0  0
   11.2597    8.2901   -5.2396 C   0  0  0  0  0  0  0  0  0  0  0  0
   11.6068    9.7354   -5.2006 C   0  0  0  0  0  0  0  0  0  0  0  0
   10.9469    4.9352  -15.8306 C   0  0  0  0  0  0  0  0  0  0  0  0
    9.2417    4.9555   -7.8256 C   0  0  0  0  0  0  0  0  0  0  0  0
   11.3657    7.7043   -4.0379 C   0  0  0  0  0  0  0  0  0  0  0  0
    9.3036    2.8311  -13.6285 C   0  0  0  0  0  0  0  0  0  0  0  0
   11.4466   10.6213   -6.4141 C   0  0  0  0  0  0  0  0  0  0  0  0
   11.7652   10.0517   -3.9940 C   0  0  0  0  0  0  0  0  0  0  0  0
   11.1673    6.1093   -3.9809 C   0  0  0  0  0  0  0  0  0  0  0  0
   11.7479    8.4069   -2.8389 S   0  0  0  0  0  0  0  0  0  0  0  0
   12.0041    9.7312   -2.8660 C   0  0  0  0  0  0  0  0  0  0  0  0
  1  2  1  0  0  0  0
  2  3  1  0  0  0  0
  2  7  2  0  0  0  0
  4  3  1  6  0  0  0
  4  5  1  0  0  0  0
  4  6  1  0  0  0  0
  4  8  1  0  0  0  0
  5  9  2  0  0  0  0
  6 13  1  0  0  0  0
  7 12  1  0  0  0  0
  8 19  2  0  0  0  0
 10  7  1  1  0  0  0
 10 14  1  0  0  0  0
 10 17  1  0  0  0  0
 11  8  1  6  0  0  0
 11 20  1  0  0  0  0
 11 32  1  0  0  0  0
 12 18  1  0  0  0  0
 12 30  1  1  0  0  0
 12 32  1  0  0  0  0
 13 16  2  0  0  0  0
 13 21  1  0  0  0  0
 14  5  1  1  0  0  0
 14 15  1  0  0  0  0
 14 20  1  0  0  0  0
 15 31  1  0  0  0  0
 15 41  1  0  0  0  0
 17 18  1  0  0  0  0
 17 23  1  0  0  0  0
 18 25  1  0  0  0  0
 18 26  1  0  0  0  0
 19 21  1  0  0  0  0
 19 35  1  0  0  0  0
 20 23  1  0  0  0  0
 21 22  2  0  0  0  0
 22 27  1  0  0  0  0
 23 24  1  0  0  0  0
 23 41  1  0  0  0  0
 24 26  1  0  0  0  0
 26 28  2  0  0  0  0
 27 34  2  0  0  0  0
 27 36  1  0  0  0  0
 28 29  1  0  0  0  0
 28 32  1  0  0  0  0
 29 39  2  0  0  0  0
 31 33  2  0  0  0  0
 31 38  1  0  0  0  0
 34 35  1  0  0  0  0
 35 39  1  0  0  0  0
 36 37  1  0  0  0  0
 36 40  2  0  0  0  0
 37 42  1  0  0  0  0
 37 43  2  0  0  0  0
 40 44  1  0  0  0  0
 40 45  1  0  0  0  0
 43 46  1  0  0  0  0
 45 46  1  0  0  0  0
M  END
$$$$

 OpenBabel10082411353D

 46 57  0  0  0  0  0  0  0  0999 V2000
    8.0806    9.0240  -12.7589 C   0  0  0  0  0  0  0  0  0  0  0  0
    8.6514    7.8645  -12.2948 C   0  0  0  0  0  0  0  0  0  0  0  0
    9.9575    7.9974  -11.8426 C   0  0  0  0  0  0  0  0  0  0  0  0
   10.7657    6.8667  -11.6050 C   0  0  1  0  0  0  0  0  0  0  0  0
   10.7682    5.9590  -12.8271 C   0  0  0  0  0  0  0  0  0  0  0  0
   12.1553    7.3846  -11.2315 C   0  0  0  0  0  0  0  0  0  0  0  0
    8.0676    6.6451  -12.2974 C   0  0  0  0  0  0  0  0  0  0  0  0
   10.1892    6.1240  -10.3860 C   0  0  0  0  0  0  0  0  0  0  0  0
   11.8375    5.4373  -13.3240 O   0  0  0  0  0  0  0  0  0  0  0  0
    8.6785    5.4761  -13.0273 C   0  0  1  0  0  0  0  0  0  0  0  0
    9.1969    5.2405  -10.4969 C   0  0  2  0  0  0  0  0  0  0  0  0
    7.2213    6.2210  -11.3074 C   0  0  2  0  0  0  0  0  0  0  0  0
   12.5590    7.6872   -9.9896 C   0  0  0  0  0  0  0  0  0  0  0  0
    9.7633    5.0333  -12.9720 C   0  0  1  0  0  0  0  0  0  0  0  0
   10.0661    4.0167  -14.0373 N   0  0  0  0  0  0  0  0  0  0  0  0
   13.6906    8.3004   -9.6233 O   0  0  0  0  0  0  0  0  0  0  0  0
    7.6357    4.5123  -12.6317 C   0  0  2  0  0  0  0  0  0  0  0  0
    6.8831    4.9171  -11.7031 C   0  0  2  0  0  0  0  0  0  0  0  0
   10.5937    6.6967   -9.1779 C   0  0  0  0  0  0  0  0  0  0  0  0
    9.5087    4.3263  -11.6925 C   0  0  2  0  0  0  0  0  0  0  0  0
   11.6359    7.4449   -8.9125 C   0  0  0  0  0  0  0  0  0  0  0  0
   11.9716    7.9159   -7.6200 C   0  0  0  0  0  0  0  0  0  0  0  0
    8.4648    3.6122  -12.2840 C   0  0  1  0  0  0  0  0  0  0  0  0
    7.9253    2.8004  -11.3926 C   0  0  0  0  0  0  0  0  0  0  0  0
    5.6047    4.5059  -11.7589 C   0  0  0  0  0  0  0  0  0  0  0  0
    7.6606    4.1297  -10.5699 C   0  0  0  0  0  0  0  0  0  0  0  0
   10.9559    7.6849   -6.6057 C   0  0  0  0  0  0  0  0  0  0  0  0
    8.0094    4.5092   -9.5664 C   0  0  0  0  0  0  0  0  0  0  0  0
    8.3033    4.0627   -8.4980 C   0  0  0  0  0  0  0  0  0  0  0  0
    6.3587    7.1012  -11.0392 O   0  0  0  0  0  0  0  0  0  0  0  0
   11.0186    3.9598  -14.9226 C   0  0  0  0  0  0  0  0  0  0  0  0
    8.1758    5.8633  -10.2511 C   0  0  1  0  0  0  0  0  0  0  0  0
   11.4648    2.7104  -15.2650 O   0  0  0  0  0  0  0  0  0  0  0  0
    9.9512    6.8220   -6.8436 C   0  0  0  0  0  0  0  0  0  0  0  0
    9.6899    6.3705   -8.1082 C   0  0  2  0  0  0  0  0  0  0  0  0
   11.2597    8.2901   -5.2396 C   0  0  0  0  0  0  0  0  0  0  0  0
   11.7295    4.9426  -15.4284 O   0  0  0  0  0  0  0  0  0  0  0  0
    9.0704    4.8312   -7.8318 C   0  0  0  0  0  0  0  0  0  0  0  0
    9.2457    2.8662  -13.7297 C   0  0  0  0  0  0  0  0  0  0  0  0
   11.9322    7.5886   -4.3410 C   0  0  0  0  0  0  0  0  0  0  0  0
   12.3837    8.1911   -3.0498 C   0  0  0  0  0  0  0  0  0  0  0  0
   12.1266    6.2088   -4.4269 C   0  0  0  0  0  0  0  0  0  0  0  0
   10.8614    9.6241   -4.9952 C   0  0  0  0  0  0  0  0  0  0  0  0
   13.0560    7.4243   -2.0938 C   0  0  0  0  0  0  0  0  0  0  0  0
   13.1706    6.1244   -2.2630 C   0  0  0  0  0  0  0  0  0  0  0  0
   12.7749    5.5735   -3.4317 C   0  0  0  0  0  0  0  0  0  0  0  0
  1  2  1  0  0  0  0
  2  3  1  0  0  0  0
  2  7  2  0  0  0  0
  4  3  1  6  0  0  0
  4  5  1  0  0  0  0
  4  6  1  0  0  0  0
  4  8  1  0  0  0  0
  5  9  2  0  0  0  0
  6 13  1  0  0  0  0
  7 12  1  0  0  0  0
  8 19  2  0  0  0  0
 10  7  1  1  0  0  0
 10 14  1  0  0  0  0
 10 17  1  0  0  0  0
 11  8  1  6  0  0  0
 11 20  1  0  0  0  0
 11 32  1  0  0  0  0
 12 18  1  0  0  0  0
 12 30  1  1  0  0  0
 12 32  1  0  0  0  0
 13 16  2  0  0  0  0
 13 21  1  0  0  0  0
 14  5  1  1  0  0  0
 14 15  1  0  0  0  0
 14 20  1  0  0  0  0
 15 31  1  0  0  0  0
 15 39  1  0  0  0  0
 17 18  1  0  0  0  0
 17 23  1  0  0  0  0
 18 25  1  0  0  0  0
 18 26  1  0  0  0  0
 19 21  1  0  0  0  0
 19 35  1  0  0  0  0
 20 23  1  0  0  0  0
 21 22  2  0  0  0  0
 22 27  1  0  0  0  0
 23 24  1  0  0  0  0
 23 39  1  0  0  0  0
 24 26  1  0  0  0  0
 26 28  2  0  0  0  0
 27 34  2  0  0  0  0
 27 36  1  0  0  0  0
 28 29  1  0  0  0  0
 28 32  1  0  0  0  0
 29 38  2  0  0  0  0
 31 33  2  0  0  0  0
 31 37  1  0  0  0  0
 34 35  1  0  0  0  0
 35 38  1  0  0  0  0
 36 40  1  0  0  0  0
 36 43  2  0  0  0  0
 40 41  1  0  0  0  0
 40 42  2  0  0  0  0
 41 44  2  0  0  0  0
 42 46  1  0  0  0  0
 44 45  1  0  0  0  0
 45 46  2  0  0  0  0
M  END
$$$$

 OpenBabel10082411353D

 46 56  0  0  0  0  0  0  0  0999 V2000
    8.0806    9.0240  -12.7589 C   0  0  0  0  0  0  0  0  0  0  0  0
    8.6514    7.8645  -12.2948 C   0  0  0  0  0  0  0  0  0  0  0  0
    9.9575    7.9974  -11.8426 C   0  0  0  0  0  0  0  0  0  0  0  0
   10.7657    6.8667  -11.6050 C   0  0  1  0  0  0  0  0  0  0  0  0
   10.7682    5.9590  -12.8271 C   0  0  0  0  0  0  0  0  0  0  0  0
   12.1553    7.3846  -11.2315 C   0  0  0  0  0  0  0  0  0  0  0  0
    8.0676    6.6451  -12.2974 C   0  0  0  0  0  0  0  0  0  0  0  0
   10.1892    6.1240  -10.3860 C   0  0  0  0  0  0  0  0  0  0  0  0
   11.8375    5.4373  -13.3240 O   0  0  0  0  0  0  0  0  0  0  0  0
    8.6785    5.4761  -13.0273 C   0  0  1  0  0  0  0  0  0  0  0  0
    9.1969    5.2405  -10.4969 C   0  0  2  0  0  0  0  0  0  0  0  0
    7.2213    6.2210  -11.3074 C   0  0  2  0  0  0  0  0  0  0  0  0
   12.5590    7.6872   -9.9896 C   0  0  0  0  0  0  0  0  0  0  0  0
    9.7633    5.0333  -12.9720 C   0  0  1  0  0  0  0  0  0  0  0  0
   10.0661    4.0167  -14.0373 N   0  0  0  0  0  0  0  0  0  0  0  0
   13.6906    8.3004   -9.6233 O   0  0  0  0  0  0  0  0  0  0  0  0
    7.6357    4.5123  -12.6317 C   0  0  2  0  0  0  0  0  0  0  0  0
    6.8831    4.9171  -11.7031 C   0  0  2  0  0  0  0  0  0  0  0  0
   10.5937    6.6967   -9.1779 C   0  0  0  0  0  0  0  0  0  0  0  0
    9.5087    4.3263  -11.6925 C   0  0  2  0  0  0  0  0  0  0  0  0
   11.6359    7.4449   -8.9125 C   0  0  0  0  0  0  0  0  0  0  0  0
   11.9716    7.9159   -7.6200 C   0  0  0  0  0  0  0  0  0  0  0  0
    8.4648    3.6122  -12.2840 C   0  0  1  0  0  0  0  0  0  0  0  0
    7.9253    2.8004  -11.3926 C   0  0  0  0  0  0  0  0  0  0  0  0
    5.6047    4.5059  -11.7589 C   0  0  0  0  0  0  0  0  0  0  0  0
    7.6606    4.1297  -10.5699 C   0  0  0  0  0  0  0  0  0  0  0  0
   10.9559    7.6849   -6.6057 C   0  0  0  0  0  0  0  0  0  0  0  0
    8.0094    4.5092   -9.5664 C   0  0  0  0  0  0  0  0  0  0  0  0
    8.3033    4.0627   -8.4980 C   0  0  0  0  0  0  0  0  0  0  0  0
    6.3587    7.1012  -11.0392 O   0  0  0  0  0  0  0  0  0  0  0  0
   11.1885    8.2709   -5.2029 C   0  0  0  0  0  0  0  0  0  0  0  0
    8.1551    5.8688  -10.2415 C   0  0  0  0  0  0  0  0  0  0  0  0
    9.3562    2.8931  -13.4173 C   0  0  0  0  0  0  0  0  0  0  0  0
    9.4006    1.8057  -13.6789 O   0  0  0  0  0  0  0  0  0  0  0  0
   10.6448    3.9324  -15.2556 C   0  0  0  0  0  0  0  0  0  0  0  0
    9.9004    6.8953   -6.7235 C   0  0  0  0  0  0  0  0  0  0  0  0
    8.1584    4.7418   -7.5351 O   0  0  0  0  0  0  0  0  0  0  0  0
    8.5999    2.9050   -8.2804 O   0  0  0  0  0  0  0  0  0  0  0  0
   11.6420    7.3504   -4.2035 C   0  0  0  0  0  0  0  0  0  0  0  0
    9.6081    6.4128   -8.0398 C   0  0  1  0  0  0  0  0  0  0  0  0
    8.3828    5.9446   -7.9275 C   0  0  0  0  0  0  0  0  0  0  0  0
   11.1933    9.6919   -4.9542 C   0  0  0  0  0  0  0  0  0  0  0  0
   10.7525   10.6554   -6.1095 F   0  0  0  0  0  0  0  0  0  0  0  0
   11.4560   10.2966   -3.8062 C   0  0  0  0  0  0  0  0  0  0  0  0
   11.9110    8.0537   -2.9360 C   0  0  0  0  0  0  0  0  0  0  0  0
   11.8857    9.4426   -2.7338 C   0  0  0  0  0  0  0  0  0  0  0  0
  1  2  1  0  0  0  0
  2  3  1  0  0  0  0
  2  7  2  0  0  0  0
  4  3  1  6  0  0  0
  4  5  1  0  0  0  0
  4  6  1  0  0  0  0
  4  8  1  0  0  0  0
  5  9  2  0  0  0  0
  6 13  1  0  0  0  0
  7 12  1  0  0  0  0
  8 11  1  0  0  0  0
  8 19  2  0  0  0  0
 10  7  1  1  0  0  0
 10 14  1  0  0  0  0
 10 17  1  0  0  0  0
 11 20  1  0  0  0  0
 11 32  1  6  0  0  0
 12 18  1  0  0  0  0
 12 30  1  6  0  0  0
 13 16  2  0  0  0  0
 13 21  1  0  0  0  0
 14  5  1  1  0  0  0
 14 15  1  0  0  0  0
 14 20  1  0  0  0  0
 15 33  1  0  0  0  0
 15 35  1  0  0  0  0
 17 18  1  0  0  0  0
 17 23  1  0  0  0  0
 18 25  1  0  0  0  0
 18 26  1  0  0  0  0
 19 21  1  0  0  0  0
 19 40  1  0  0  0  0
 20 23  1  0  0  0  0
 21 22  2  0  0  0  0
 22 27  1  0  0  0  0
 23 24  1  0  0  0  0
 23 33  1  0  0  0  0
 24 26  1  0  0  0  0
 26 28  2  0  0  0  0
 27 31  1  0  0  0  0
 27 36  2  0  0  0  0
 28 29  1  0  0  0  0
 28 32  1  0  0  0  0
 29 37  1  0  0  0  0
 29 38  2  0  0  0  0
 31 39  1  0  0  0  0
 31 42  2  0  0  0  0
 33 34  2  0  0  0  0
 36 40  1  0  0  0  0
 37 41  1  0  0  0  0
 39 45  2  0  0  0  0
 40 41  1  0  0  0  0
 42 43  1  0  0  0  0
 42 44  1  0  0  0  0
 44 46  2  0  0  0  0
 45 46  1  0  0  0  0
M  END
$$$$

 OpenBabel10082411353D

 27 30  0  0  0  0  0  0  0  0999 V2000
   12.8881    8.7759   -3.5681 C   0  0  0  0  0  0  0  0  0  0  0  0
   11.9416    9.4732   -4.1220 C   0  0  0  0  0  0  0  0  0  0  0  0
   12.1782    9.3707   -5.6407 C   0  0  0  0  0  0  0  0  0  0  0  0
   11.3825    8.3447   -6.3966 C   0  0  0  0  0  0  0  0  0  0  0  0
   11.8188    8.0044   -7.6822 C   0  0  0  0  0  0  0  0  0  0  0  0
   10.3120    7.6600   -5.7120 C   0  0  0  0  0  0  0  0  0  0  0  0
   10.8678    7.0723   -8.2897 C   0  0  0  0  0  0  0  0  0  0  0  0
    9.5717    6.7245   -6.3809 C   0  0  0  0  0  0  0  0  0  0  0  0
    9.8820    6.4468   -7.7081 C   0  0  0  0  0  0  0  0  0  0  0  0
   11.2611    6.6953   -9.7105 C   0  0  0  0  0  0  0  0  0  0  0  0
   10.0425    6.5460  -10.5971 C   0  0  0  0  0  0  0  0  0  0  0  0
    9.7273    7.6207  -11.3847 C   0  0  1  0  0  0  0  0  0  0  0  0
    9.9764    7.6413  -12.5696 O   0  0  0  0  0  0  0  0  0  0  0  0
    8.9346    5.4564   -8.3902 C   0  0  0  0  0  0  0  0  0  0  0  0
    8.2490    7.9349  -11.1820 O   0  0  0  0  0  0  0  0  0  0  0  0
   10.1841    6.7003  -13.2223 C   0  0  0  0  0  0  0  0  0  0  0  0
    9.5958    5.5854  -13.1076 C   0  0  0  0  0  0  0  0  0  0  0  0
    8.4924    5.3473  -12.1285 C   0  0  0  0  0  0  0  0  0  0  0  0
    9.8209    4.3589  -14.0027 C   0  0  0  0  0  0  0  0  0  0  0  0
    7.6536    4.3101  -12.3765 O   0  0  0  0  0  0  0  0  0  0  0  0
   11.1109    4.2107  -14.4593 C   0  0  0  0  0  0  0  0  0  0  0  0
    8.9804    5.5270  -10.7091 C   0  0  0  0  0  0  0  0  0  0  0  0
   11.2994    6.8338  -14.2857 C   0  0  0  0  0  0  0  0  0  0  0  0
   11.6514    5.5959  -14.9864 C   0  0  0  0  0  0  0  0  0  0  0  0
    8.8174    4.7438   -9.6368 C   0  0  0  0  0  0  0  0  0  0  0  0
   12.0525    3.7444  -13.3976 C   0  0  0  0  0  0  0  0  0  0  0  0
   11.2852    3.2361  -15.5411 C   0  0  0  0  0  0  0  0  0  0  0  0
  1  2  1  0  0  0  0
  2  3  1  0  0  0  0
  3  4  1  0  0  0  0
  4  5  2  0  0  0  0
  4  6  1  0  0  0  0
  5  7  1  0  0  0  0
  6  8  2  0  0  0  0
  7  9  2  0  0  0  0
  7 10  1  0  0  0  0
  8  9  1  0  0  0  0
  9 14  1  0  0  0  0
 10 11  1  0  0  0  0
 11 12  1  0  0  0  0
 11 22  2  0  0  0  0
 12 13  1  0  0  0  0
 12 15  1  6  0  0  0
 13 16  1  0  0  0  0
 14 25  2  0  0  0  0
 16 17  2  0  0  0  0
 16 23  1  0  0  0  0
 17 18  1  0  0  0  0
 17 19  1  0  0  0  0
 18 20  2  0  0  0  0
 18 22  1  0  0  0  0
 19 21  1  0  0  0  0
 21 24  1  0  0  0  0
 21 26  1  0  0  0  0
 21 27  1  0  0  0  0
 22 25  1  0  0  0  0
 23 24  2  0  0  0  0
M  END
$$$$

 OpenBabel10082411353D

 46 57  0  0  0  0  0  0  0  0999 V2000
    8.0806    9.0240  -12.7589 C   0  0  0  0  0  0  0  0  0  0  0  0
    8.6514    7.8645  -12.2948 C   0  0  0  0  0  0  0  0  0  0  0  0
    9.9575    7.9974  -11.8426 C   0  0  0  0  0  0  0  0  0  0  0  0
   10.7657    6.8667  -11.6050 C   0  0  1  0  0  0  0  0  0  0  0  0
   10.7682    5.9590  -12.8271 C   0  0  0  0  0  0  0  0  0  0  0  0
   12.1553    7.3846  -11.2315 C   0  0  0  0  0  0  0  0  0  0  0  0
    8.0676    6.6451  -12.2974 C   0  0  0  0  0  0  0  0  0  0  0  0
   10.1892    6.1240  -10.3860 C   0  0  0  0  0  0  0  0  0  0  0  0
   11.8375    5.4373  -13.3240 O   0  0  0  0  0  0  0  0  0  0  0  0
    8.6785    5.4761  -13.0273 C   0  0  1  0  0  0  0  0  0  0  0  0
    9.1969    5.2405  -10.4969 C   0  0  2  0  0  0  0  0  0  0  0  0
    7.2213    6.2210  -11.3074 C   0  0  2  0  0  0  0  0  0  0  0  0
   12.5590    7.6872   -9.9896 C   0  0  0  0  0  0  0  0  0  0  0  0
    9.7633    5.0333  -12.9720 C   0  0  1  0  0  0  0  0  0  0  0  0
   10.0661    4.0167  -14.0373 N   0  0  0  0  0  0  0  0  0  0  0  0
   13.6906    8.3004   -9.6233 O   0  0  0  0  0  0  0  0  0  0  0  0
    7.6357    4.5123  -12.6317 C   0  0  2  0  0  0  0  0  0  0  0  0
    6.8831    4.9171  -11.7031 C   0  0  2  0  0  0  0  0  0  0  0  0
   10.5937    6.6967   -9.1779 C   0  0  0  0  0  0  0  0  0  0  0  0
    9.5087    4.3263  -11.6925 C   0  0  2  0  0  0  0  0  0  0  0  0
   11.6359    7.4449   -8.9125 C   0  0  0  0  0  0  0  0  0  0  0  0
   11.9716    7.9159   -7.6200 C   0  0  0  0  0  0  0  0  0  0  0  0
    8.4648    3.6122  -12.2840 C   0  0  1  0  0  0  0  0  0  0  0  0
    7.9253    2.8004  -11.3926 C   0  0  0  0  0  0  0  0  0  0  0  0
    5.6047    4.5059  -11.7589 C   0  0  0  0  0  0  0  0  0  0  0  0
    7.6606    4.1297  -10.5699 C   0  0  0  0  0  0  0  0  0  0  0  0
   10.9559    7.6849   -6.6057 C   0  0  0  0  0  0  0  0  0  0  0  0
    8.0094    4.5092   -9.5664 C   0  0  0  0  0  0  0  0  0  0  0  0
    8.3033    4.0627   -8.4980 C   0  0  0  0  0  0  0  0  0  0  0  0
    6.3587    7.1012  -11.0392 O   0  0  0  0  0  0  0  0  0  0  0  0
   11.0186    3.9598  -14.9226 C   0  0  0  0  0  0  0  0  0  0  0  0
    8.1758    5.8633  -10.2511 C   0  0  1  0  0  0  0  0  0  0  0  0
   11.4648    2.7104  -15.2650 O   0  0  0  0  0  0  0  0  0  0  0  0
    9.9512    6.8220   -6.8436 C   0  0  0  0  0  0  0  0  0  0  0  0
    9.6899    6.3705   -8.1082 C   0  0  2  0  0  0  0  0  0  0  0  0
   11.2597    8.2901   -5.2396 C   0  0  0  0  0  0  0  0  0  0  0  0
   11.7295    4.9426  -15.4284 O   0  0  0  0  0  0  0  0  0  0  0  0
    9.2745    4.9481   -7.8103 C   0  0  0  0  0  0  0  0  0  0  0  0
    9.1757    2.9301  -13.7559 C   0  0  0  0  0  0  0  0  0  0  0  0
   11.9187    7.5856   -4.3294 C   0  0  0  0  0  0  0  0  0  0  0  0
   11.7781    6.4587   -4.0864 C   0  0  0  0  0  0  0  0  0  0  0  0
   10.9546    9.6992   -5.1271 C   0  0  0  0  0  0  0  0  0  0  0  0
   12.7574    8.4431   -3.4035 C   0  0  0  0  0  0  0  0  0  0  0  0
   13.3571    7.7115   -2.3579 C   0  0  0  0  0  0  0  0  0  0  0  0
   12.7180    6.4522   -2.3494 C   0  0  0  0  0  0  0  0  0  0  0  0
   12.2292    5.7902   -3.1484 C   0  0  0  0  0  0  0  0  0  0  0  0
  1  2  1  0  0  0  0
  2  3  1  0  0  0  0
  2  7  2  0  0  0  0
  4  3  1  6  0  0  0
  4  5  1  0  0  0  0
  4  6  1  0  0  0  0
  4  8  1  0  0  0  0
  5  9  2  0  0  0  0
  6 13  1  0  0  0  0
  7 12  1  0  0  0  0
  8 19  2  0  0  0  0
 10  7  1  1  0  0  0
 10 14  1  0  0  0  0
 10 17  1  0  0  0  0
 11  8  1  6  0  0  0
 11 20  1  0  0  0  0
 11 32  1  0  0  0  0
 12 18  1  0  0  0  0
 12 30  1  1  0  0  0
 12 32  1  0  0  0  0
 13 16  2  0  0  0  0
 13 21  1  0  0  0  0
 14  5  1  1  0  0  0
 14 15  1  0  0  0  0
 14 20  1  0  0  0  0
 15 31  1  0  0  0  0
 15 39  1  0  0  0  0
 17 18  1  0  0  0  0
 17 23  1  0  0  0  0
 18 25  1  0  0  0  0
 18 26  1  0  0  0  0
 19 21  1  0  0  0  0
 19 35  1  0  0  0  0
 20 23  1  0  0  0  0
 21 22  2  0  0  0  0
 22 27  1  0  0  0  0
 23 24  1  0  0  0  0
 23 39  1  0  0  0  0
 24 26  1  0  0  0  0
 26 28  2  0  0  0  0
 27 34  2  0  0  0  0
 27 36  1  0  0  0  0
 28 29  1  0  0  0  0
 28 32  1  0  0  0  0
 29 38  1  0  0  0  0
 31 33  2  0  0  0  0
 31 37  1  0  0  0  0
 34 35  1  0  0  0  0
 35 38  1  0  0  0  0
 36 40  1  0  0  0  0
 36 42  2  0  0  0  0
 40 41  2  0  0  0  0
 40 43  1  0  0  0  0
 41 46  1  0  0  0  0
 43 44  1  0  0  0  0
 44 45  1  0  0  0  0
 45 46  1  0  0  0  0
M  END
$$$$

 OpenBabel10082411353D

 46 57  0  0  0  0  0  0  0  0999 V2000
    8.0806    9.0240  -12.7589 C   0  0  0  0  0  0  0  0  0  0  0  0
    8.6514    7.8645  -12.2948 C   0  0  0  0  0  0  0  0  0  0  0  0
    9.9575    7.9974  -11.8426 C   0  0  0  0  0  0  0  0  0  0  0  0
   10.7657    6.8667  -11.6050 C   0  0  1  0  0  0  0  0  0  0  0  0
   10.7682    5.9590  -12.8271 C   0  0  0  0  0  0  0  0  0  0  0  0
   12.1553    7.3846  -11.2315 C   0  0  0  0  0  0  0  0  0  0  0  0
    8.0676    6.6451  -12.2974 C   0  0  0  0  0  0  0  0  0  0  0  0
   10.1892    6.1240  -10.3860 C   0  0  0  0  0  0  0  0  0  0  0  0
   11.8375    5.4373  -13.3240 O   0  0  0  0  0  0  0  0  0  0  0  0
    8.6785    5.4761  -13.0273 C   0  0  1  0  0  0  0  0  0  0  0  0
    9.1969    5.2405  -10.4969 C   0  0  2  0  0  0  0  0  0  0  0  0
    7.2213    6.2210  -11.3074 C   0  0  2  0  0  0  0  0  0  0  0  0
   12.5590    7.6872   -9.9896 C   0  0  0  0  0  0  0  0  0  0  0  0
    9.7633    5.0333  -12.9720 C   0  0  1  0  0  0  0  0  0  0  0  0
   10.0661    4.0167  -14.0373 N   0  0  0  0  0  0  0  0  0  0  0  0
   13.6906    8.3004   -9.6233 O   0  0  0  0  0  0  0  0  0  0  0  0
    7.6357    4.5123  -12.6317 C   0  0  2  0  0  0  0  0  0  0  0  0
    6.8831    4.9171  -11.7031 C   0  0  2  0  0  0  0  0  0  0  0  0
   10.5937    6.6967   -9.1779 C   0  0  0  0  0  0  0  0  0  0  0  0
    9.5087    4.3263  -11.6925 C   0  0  2  0  0  0  0  0  0  0  0  0
   11.6359    7.4449   -8.9125 C   0  0  0  0  0  0  0  0  0  0  0  0
   11.9716    7.9159   -7.6200 C   0  0  0  0  0  0  0  0  0  0  0  0
    8.4648    3.6122  -12.2840 C   0  0  1  0  0  0  0  0  0  0  0  0
    7.9253    2.8004  -11.3926 C   0  0  0  0  0  0  0  0  0  0  0  0
    5.6047    4.5059  -11.7589 C   0  0  0  0  0  0  0  0  0  0  0  0
    7.6606    4.1297  -10.5699 C   0  0  0  0  0  0  0  0  0  0  0  0
   10.9559    7.6849   -6.6057 C   0  0  0  0  0  0  0  0  0  0  0  0
    8.0094    4.5092   -9.5664 C   0  0  0  0  0  0  0  0  0  0  0  0
    8.3033    4.0627   -8.4980 C   0  0  0  0  0  0  0  0  0  0  0  0
    6.3587    7.1012  -11.0392 O   0  0  0  0  0  0  0  0  0  0  0  0
   11.0186    3.9598  -14.9226 C   0  0  0  0  0  0  0  0  0  0  0  0
    8.1758    5.8633  -10.2511 C   0  0  1  0  0  0  0  0  0  0  0  0
   11.4648    2.7104  -15.2650 O   0  0  0  0  0  0  0  0  0  0  0  0
    9.9512    6.8220   -6.8436 C   0  0  0  0  0  0  0  0  0  0  0  0
    9.6899    6.3705   -8.1082 C   0  0  2  0  0  0  0  0  0  0  0  0
   11.2597    8.2901   -5.2396 C   0  0  0  0  0  0  0  0  0  0  0  0
   11.6068    9.7354   -5.2006 C   0  0  0  0  0  0  0  0  0  0  0  0
    9.4261    2.7718  -13.6670 C   0  0  0  0  0  0  0  0  0  0  0  0
    9.1568    5.0346   -7.7426 C   0  0  0  0  0  0  0  0  0  0  0  0
   11.2083    4.9304  -15.6781 O   0  0  0  0  0  0  0  0  0  0  0  0
   11.3723    7.7138   -4.0322 C   0  0  0  0  0  0  0  0  0  0  0  0
   11.4531   10.6045   -6.4008 C   0  0  0  0  0  0  0  0  0  0  0  0
   11.1721    6.2503   -3.9429 C   0  0  0  0  0  0  0  0  0  0  0  0
   11.7581    8.6450   -2.9697 C   0  0  0  0  0  0  0  0  0  0  0  0
   12.3477    9.7900   -3.2625 C   0  0  0  0  0  0  0  0  0  0  0  0
   11.7783   10.4324   -4.2122 N   0  0  0  0  0  0  0  0  0  0  0  0
  1  2  1  0  0  0  0
  2  3  1  0  0  0  0
  2  7  2  0  0  0  0
  4  3  1  6  0  0  0
  4  5  1  0  0  0  0
  4  6  1  0  0  0  0
  4  8  1  0  0  0  0
  5  9  2  0  0  0  0
  6 13  1  0  0  0  0
  7 12  1  0  0  0  0
  8 19  2  0  0  0  0
 10  7  1  1  0  0  0
 10 14  1  0  0  0  0
 10 17  1  0  0  0  0
 11  8  1  6  0  0  0
 11 20  1  0  0  0  0
 11 32  1  0  0  0  0
 12 18  1  0  0  0  0
 12 30  1  1  0  0  0
 12 32  1  0  0  0  0
 13 16  2  0  0  0  0
 13 21  1  0  0  0  0
 14  5  1  1  0  0  0
 14 15  1  0  0  0  0
 14 20  1  0  0  0  0
 15 31  1  0  0  0  0
 15 38  1  0  0  0  0
 17 18  1  0  0  0  0
 17 23  1  0  0  0  0
 18 25  1  0  0  0  0
 18 26  1  0  0  0  0
 19 21  1  0  0  0  0
 19 35  1  0  0  0  0
 20 23  1  0  0  0  0
 21 22  2  0  0  0  0
 22 27  1  0  0  0  0
 23 24  1  0  0  0  0
 23 38  1  0  0  0  0
 24 26  1  0  0  0  0
 26 28  2  0  0  0  0
 27 34  2  0  0  0  0
 27 36  1  0  0  0  0
 28 29  1  0  0  0  0
 28 32  1  0  0  0  0
 29 39  1  0  0  0  0
 31 33  2  0  0  0  0
 31 40  1  0  0  0  0
 34 35  1  0  0  0  0
 35 39  1  0  0  0  0
 36 37  1  0  0  0  0
 36 41  2  0  0  0  0
 37 42  1  0  0  0  0
 37 46  2  0  0  0  0
 41 43  1  0  0  0  0
 41 44  1  0  0  0  0
 44 45  1  0  0  0  0
 45 46  1  0  0  0  0
M  END
$$$$

 OpenBabel10082411353D

 47 59  0  0  0  0  0  0  0  0999 V2000
    8.0806    9.0240  -12.7589 C   0  0  0  0  0  0  0  0  0  0  0  0
    8.6514    7.8645  -12.2948 C   0  0  0  0  0  0  0  0  0  0  0  0
    9.9575    7.9974  -11.8426 C   0  0  0  0  0  0  0  0  0  0  0  0
   10.7657    6.8667  -11.6050 C   0  0  1  0  0  0  0  0  0  0  0  0
   10.7682    5.9590  -12.8271 C   0  0  0  0  0  0  0  0  0  0  0  0
   12.1553    7.3846  -11.2315 C   0  0  0  0  0  0  0  0  0  0  0  0
    8.0676    6.6451  -12.2974 C   0  0  0  0  0  0  0  0  0  0  0  0
   10.1892    6.1240  -10.3860 C   0  0  0  0  0  0  0  0  0  0  0  0
   11.8375    5.4373  -13.3240 O   0  0  0  0  0  0  0  0  0  0  0  0
    8.6785    5.4761  -13.0273 C   0  0  1  0  0  0  0  0  0  0  0  0
    9.1969    5.2405  -10.4969 C   0  0  2  0  0  0  0  0  0  0  0  0
    7.2213    6.2210  -11.3074 C   0  0  2  0  0  0  0  0  0  0  0  0
   12.5590    7.6872   -9.9896 C   0  0  0  0  0  0  0  0  0  0  0  0
    9.7633    5.0333  -12.9720 C   0  0  1  0  0  0  0  0  0  0  0  0
   10.0661    4.0167  -14.0373 N   0  0  0  0  0  0  0  0  0  0  0  0
   13.6906    8.3004   -9.6233 O   0  0  0  0  0  0  0  0  0  0  0  0
    7.6357    4.5123  -12.6317 C   0  0  2  0  0  0  0  0  0  0  0  0
    6.8831    4.9171  -11.7031 C   0  0  2  0  0  0  0  0  0  0  0  0
   10.5937    6.6967   -9.1779 C   0  0  0  0  0  0  0  0  0  0  0  0
    9.5087    4.3263  -11.6925 C   0  0  2  0  0  0  0  0  0  0  0  0
   11.6359    7.4449   -8.9125 C   0  0  0  0  0  0  0  0  0  0  0  0
   11.9716    7.9159   -7.6200 C   0  0  0  0  0  0  0  0  0  0  0  0
    8.4648    3.6122  -12.2840 C   0  0  1  0  0  0  0  0  0  0  0  0
    7.9253    2.8004  -11.3926 C   0  0  2  0  0  0  0  0  0  0  0  0
    5.6047    4.5059  -11.7589 C   0  0  0  0  0  0  0  0  0  0  0  0
    7.6606    4.1297  -10.5699 C   0  0  0  0  0  0  0  0  0  0  0  0
   10.9559    7.6849   -6.6057 C   0  0  0  0  0  0  0  0  0  0  0  0
    8.0094    4.5092   -9.5664 C   0  0  0  0  0  0  0  0  0  0  0  0
    8.3033    4.0627   -8.4980 C   0  0  0  0  0  0  0  0  0  0  0  0
    6.3587    7.1012  -11.0392 O   0  0  0  0  0  0  0  0  0  0  0  0
   11.0186    3.9598  -14.9226 C   0  0  0  0  0  0  0  0  0  0  0  0
    8.1758    5.8633  -10.2511 C   0  0  1  0  0  0  0  0  0  0  0  0
   11.4648    2.7104  -15.2650 O   0  0  0  0  0  0  0  0  0  0  0  0
    9.9512    6.8220   -6.8436 C   0  0  0  0  0  0  0  0  0  0  0  0
    9.6899    6.3705   -8.1082 C   0  0  2  0  0  0  0  0  0  0  0  0
    9.1306    2.9610  -13.9685 C   0  0  0  0  0  0  0  0  0  0  0  0
    8.8414    5.0113   -7.7726 C   0  0  0  0  0  0  0  0  0  0  0  0
   11.6944    4.9031  -15.4200 O   0  0  0  0  0  0  0  0  0  0  0  0
   11.2282    8.3639   -5.2721 C   0  0  0  0  0  0  0  0  0  0  0  0
    8.7016    2.4223  -12.9165 C   0  0  1  0  0  0  0  0  0  0  0  0
   11.9286    7.6722   -4.3404 C   0  0  0  0  0  0  0  0  0  0  0  0
   10.7972    9.7001   -4.9421 C   0  0  0  0  0  0  0  0  0  0  0  0
   12.2581    8.1901   -3.0715 C   0  0  0  0  0  0  0  0  0  0  0  0
   10.1668   10.4828   -6.0100 F   0  0  0  0  0  0  0  0  0  0  0  0
   12.9614    7.3845   -2.0397 C   0  0  0  0  0  0  0  0  0  0  0  0
   11.8103    9.6565   -2.7741 C   0  0  0  0  0  0  0  0  0  0  0  0
   11.2069   10.2930   -3.7892 N   0  0  0  0  0  0  0  0  0  0  0  0
  1  2  1  0  0  0  0
  2  3  1  0  0  0  0
  2  7  2  0  0  0  0
  4  3  1  6  0  0  0
  4  5  1  0  0  0  0
  4  6  1  0  0  0  0
  4  8  1  0  0  0  0
  5  9  2  0  0  0  0
  6 13  1  0  0  0  0
  7 12  1  0  0  0  0
  8 19  2  0  0  0  0
 10  7  1  1  0  0  0
 10 14  1  0  0  0  0
 10 17  1  0  0  0  0
 11  8  1  6  0  0  0
 11 20  1  0  0  0  0
 11 32  1  0  0  0  0
 12 18  1  0  0  0  0
 12 30  1  1  0  0  0
 12 32  1  0  0  0  0
 13 16  2  0  0  0  0
 13 21  1  0  0  0  0
 14  5  1  1  0  0  0
 14 15  1  0  0  0  0
 14 20  1  0  0  0  0
 15 31  1  0  0  0  0
 15 36  1  0  0  0  0
 17 18  1  0  0  0  0
 17 23  1  0  0  0  0
 18 25  1  0  0  0  0
 18 26  1  0  0  0  0
 19 21  1  0  0  0  0
 19 35  1  0  0  0  0
 20 23  1  0  0  0  0
 21 22  2  0  0  0  0
 22 27  1  0  0  0  0
 23 24  1  0  0  0  0
 23 40  1  0  0  0  0
 24 26  1  0  0  0  0
 24 40  1  0  0  0  0
 26 28  2  0  0  0  0
 27 34  2  0  0  0  0
 27 39  1  0  0  0  0
 28 29  1  0  0  0  0
 28 32  1  0  0  0  0
 29 37  2  0  0  0  0
 31 33  2  0  0  0  0
 31 38  1  0  0  0  0
 34 35  1  0  0  0  0
 35 37  1  0  0  0  0
 36 40  1  0  0  0  0
 39 41  1  0  0  0  0
 39 42  2  0  0  0  0
 41 43  2  0  0  0  0
 42 44  1  0  0  0  0
 42 47  1  0  0  0  0
 43 45  1  0  0  0  0
 43 46  1  0  0  0  0
 46 47  2  0  0  0  0
M  END
$$$$

 OpenBabel10082411353D

 47 58  0  0  0  0  0  0  0  0999 V2000
    8.0806    9.0240  -12.7589 C   0  0  0  0  0  0  0  0  0  0  0  0
    8.6514    7.8645  -12.2948 C   0  0  0  0  0  0  0  0  0  0  0  0
    9.9575    7.9974  -11.8426 C   0  0  0  0  0  0  0  0  0  0  0  0
   10.7657    6.8667  -11.6050 C   0  0  1  0  0  0  0  0  0  0  0  0
   10.7682    5.9590  -12.8271 C   0  0  0  0  0  0  0  0  0  0  0  0
   12.1553    7.3846  -11.2315 C   0  0  0  0  0  0  0  0  0  0  0  0
    8.0676    6.6451  -12.2974 C   0  0  0  0  0  0  0  0  0  0  0  0
   10.1892    6.1240  -10.3860 C   0  0  0  0  0  0  0  0  0  0  0  0
   11.8375    5.4373  -13.3240 O   0  0  0  0  0  0  0  0  0  0  0  0
    8.6785    5.4761  -13.0273 C   0  0  1  0  0  0  0  0  0  0  0  0
    9.1969    5.2405  -10.4969 C   0  0  2  0  0  0  0  0  0  0  0  0
    7.2213    6.2210  -11.3074 C   0  0  2  0  0  0  0  0  0  0  0  0
   12.5590    7.6872   -9.9896 C   0  0  0  0  0  0  0  0  0  0  0  0
    9.7633    5.0333  -12.9720 C   0  0  1  0  0  0  0  0  0  0  0  0
   10.0661    4.0167  -14.0373 N   0  0  0  0  0  0  0  0  0  0  0  0
   13.6906    8.3004   -9.6233 O   0  0  0  0  0  0  0  0  0  0  0  0
    7.6357    4.5123  -12.6317 C   0  0  2  0  0  0  0  0  0  0  0  0
    6.8831    4.9171  -11.7031 C   0  0  2  0  0  0  0  0  0  0  0  0
   10.5937    6.6967   -9.1779 C   0  0  0  0  0  0  0  0  0  0  0  0
    9.5087    4.3263  -11.6925 C   0  0  2  0  0  0  0  0  0  0  0  0
   11.6359    7.4449   -8.9125 C   0  0  0  0  0  0  0  0  0  0  0  0
   11.9716    7.9159   -7.6200 C   0  0  0  0  0  0  0  0  0  0  0  0
    8.4648    3.6122  -12.2840 C   0  0  1  0  0  0  0  0  0  0  0  0
    7.9253    2.8004  -11.3926 C   0  0  0  0  0  0  0  0  0  0  0  0
    5.6047    4.5059  -11.7589 C   0  0  0  0  0  0  0  0  0  0  0  0
    7.6606    4.1297  -10.5699 C   0  0  0  0  0  0  0  0  0  0  0  0
   10.9559    7.6849   -6.6057 C   0  0  0  0  0  0  0  0  0  0  0  0
    8.0094    4.5092   -9.5664 C   0  0  0  0  0  0  0  0  0  0  0  0
    8.3033    4.0627   -8.4980 C   0  0  0  0  0  0  0  0  0  0  0  0
    6.3587    7.1012  -11.0392 O   0  0  0  0  0  0  0  0  0  0  0  0
   11.0186    3.9598  -14.9226 C   0  0  0  0  0  0  0  0  0  0  0  0
    8.1758    5.8633  -10.2511 C   0  0  1  0  0  0  0  0  0  0  0  0
   11.4648    2.7104  -15.2650 O   0  0  0  0  0  0  0  0  0  0  0  0
    9.9512    6.8220   -6.8436 C   0  0  0  0  0  0  0  0  0  0  0  0
    9.6899    6.3705   -8.1082 C   0  0  2  0  0  0  0  0  0  0  0  0
   11.2597    8.2901   -5.2396 C   0  0  0  0  0  0  0  0  0  0  0  0
   11.7295    4.9426  -15.4284 O   0  0  0  0  0  0  0  0  0  0  0  0
    9.2745    4.9481   -7.8103 C   0  0  0  0  0  0  0  0  0  0  0  0
    9.2182    2.8872  -13.7570 C   0  0  0  0  0  0  0  0  0  0  0  0
   11.9188    7.5853   -4.3293 C   0  0  0  0  0  0  0  0  0  0  0  0
   12.4318    8.2238   -3.0545 C   0  0  0  0  0  0  0  0  0  0  0  0
   12.0711    6.1970   -4.3595 C   0  0  0  0  0  0  0  0  0  0  0  0
   10.8964    9.6362   -5.0136 C   0  0  0  0  0  0  0  0  0  0  0  0
   13.0649    7.4381   -2.1156 C   0  0  0  0  0  0  0  0  0  0  0  0
   13.4838    8.1636   -0.9034 C   0  0  0  0  0  0  0  0  0  0  0  0
   12.6144    5.5256   -3.3280 C   0  0  0  0  0  0  0  0  0  0  0  0
   13.0909    6.2186   -2.4167 C   0  0  0  0  0  0  0  0  0  0  0  0
  1  2  1  0  0  0  0
  2  3  1  0  0  0  0
  2  7  2  0  0  0  0
  4  3  1  6  0  0  0
  4  5  1  0  0  0  0
  4  6  1  0  0  0  0
  4  8  1  0  0  0  0
  5  9  2  0  0  0  0
  6 13  1  0  0  0  0
  7 12  1  0  0  0  0
  8 19  2  0  0  0  0
 10  7  1  1  0  0  0
 10 14  1  0  0  0  0
 10 17  1  0  0  0  0
 11  8  1  6  0  0  0
 11 20  1  0  0  0  0
 11 32  1  0  0  0  0
 12 18  1  0  0  0  0
 12 30  1  1  0  0  0
 12 32  1  0  0  0  0
 13 16  2  0  0  0  0
 13 21  1  0  0  0  0
 14  5  1  1  0  0  0
 14 15  1  0  0  0  0
 14 20  1  0  0  0  0
 15 31  1  0  0  0  0
 15 39  1  0  0  0  0
 17 18  1  0  0  0  0
 17 23  1  0  0  0  0
 18 25  1  0  0  0  0
 18 26  1  0  0  0  0
 19 21  1  0  0  0  0
 19 35  1  0  0  0  0
 20 23  1  0  0  0  0
 21 22  2  0  0  0  0
 22 27  1  0  0  0  0
 23 24  1  0  0  0  0
 23 39  1  0  0  0  0
 24 26  1  0  0  0  0
 26 28  2  0  0  0  0
 27 34  2  0  0  0  0
 27 36  1  0  0  0  0
 28 29  1  0  0  0  0
 28 32  1  0  0  0  0
 29 38  1  0  0  0  0
 31 33  2  0  0  0  0
 31 37  1  0  0  0  0
 34 35  1  0  0  0  0
 35 38  1  0  0  0  0
 36 40  1  0  0  0  0
 36 43  2  0  0  0  0
 40 41  1  0  0  0  0
 40 42  2  0  0  0  0
 41 44  2  0  0  0  0
 42 46  1  0  0  0  0
 44 45  1  0  0  0  0
 44 47  1  0  0  0  0
 46 47  2  0  0  0  0
M  END
$$$$

 OpenBabel10082411353D

 47 58  0  0  0  0  0  0  0  0999 V2000
    8.0806    9.0240  -12.7589 C   0  0  0  0  0  0  0  0  0  0  0  0
    8.6514    7.8645  -12.2948 C   0  0  0  0  0  0  0  0  0  0  0  0
    9.9575    7.9974  -11.8426 C   0  0  0  0  0  0  0  0  0  0  0  0
   10.7657    6.8667  -11.6050 C   0  0  1  0  0  0  0  0  0  0  0  0
   10.7682    5.9590  -12.8271 C   0  0  0  0  0  0  0  0  0  0  0  0
   12.1553    7.3846  -11.2315 C   0  0  0  0  0  0  0  0  0  0  0  0
    8.0676    6.6451  -12.2974 C   0  0  0  0  0  0  0  0  0  0  0  0
   10.1892    6.1240  -10.3860 C   0  0  0  0  0  0  0  0  0  0  0  0
   11.8375    5.4373  -13.3240 O   0  0  0  0  0  0  0  0  0  0  0  0
    8.6785    5.4761  -13.0273 C   0  0  1  0  0  0  0  0  0  0  0  0
    9.1969    5.2405  -10.4969 C   0  0  2  0  0  0  0  0  0  0  0  0
    7.2213    6.2210  -11.3074 C   0  0  2  0  0  0  0  0  0  0  0  0
   12.5590    7.6872   -9.9896 C   0  0  0  0  0  0  0  0  0  0  0  0
    9.7633    5.0333  -12.9720 C   0  0  1  0  0  0  0  0  0  0  0  0
   10.0661    4.0167  -14.0373 N   0  0  0  0  0  0  0  0  0  0  0  0
   13.6906    8.3004   -9.6233 O   0  0  0  0  0  0  0  0  0  0  0  0
    7.6357    4.5123  -12.6317 C   0  0  2  0  0  0  0  0  0  0  0  0
    6.8831    4.9171  -11.7031 C   0  0  2  0  0  0  0  0  0  0  0  0
   10.5937    6.6967   -9.1779 C   0  0  0  0  0  0  0  0  0  0  0  0
    9.5087    4.3263  -11.6925 C   0  0  2  0  0  0  0  0  0  0  0  0
   11.6359    7.4449   -8.9125 C   0  0  0  0  0  0  0  0  0  0  0  0
   11.9716    7.9159   -7.6200 C   0  0  0  0  0  0  0  0  0  0  0  0
    8.4648    3.6122  -12.2840 C   0  0  1  0  0  0  0  0  0  0  0  0
    7.9253    2.8004  -11.3926 C   0  0  0  0  0  0  0  0  0  0  0  0
    5.6047    4.5059  -11.7589 C   0  0  0  0  0  0  0  0  0  0  0  0
    7.6606    4.1297  -10.5699 C   0  0  0  0  0  0  0  0  0  0  0  0
   10.9559    7.6849   -6.6057 C   0  0  0  0  0  0  0  0  0  0  0  0
    8.0094    4.5092   -9.5664 C   0  0  0  0  0  0  0  0  0  0  0  0
    8.3033    4.0627   -8.4980 C   0  0  0  0  0  0  0  0  0  0  0  0
    6.3587    7.1012  -11.0392 O   0  0  0  0  0  0  0  0  0  0  0  0
   11.0186    3.9598  -14.9226 C   0  0  0  0  0  0  0  0  0  0  0  0
    8.1758    5.8633  -10.2511 C   0  0  1  0  0  0  0  0  0  0  0  0
   11.4648    2.7104  -15.2650 O   0  0  0  0  0  0  0  0  0  0  0  0
    9.9512    6.8220   -6.8436 C   0  0  0  0  0  0  0  0  0  0  0  0
    9.6899    6.3705   -8.1082 C   0  0  2  0  0  0  0  0  0  0  0  0
   11.2597    8.2901   -5.2396 C   0  0  0  0  0  0  0  0  0  0  0  0
   10.9483    4.9354  -15.8312 C   0  0  0  0  0  0  0  0  0  0  0  0
    9.2428    4.9682   -7.8294 C   0  0  0  0  0  0  0  0  0  0  0  0
   11.9211    7.5870   -4.3303 C   0  0  0  0  0  0  0  0  0  0  0  0
    9.5730    2.7786  -13.2723 C   0  0  0  0  0  0  0  0  0  0  0  0
   12.4043    8.2063   -3.0501 C   0  0  0  0  0  0  0  0  0  0  0  0
   12.0960    6.1974   -4.3938 C   0  0  0  0  0  0  0  0  0  0  0  0
   10.8961    9.6344   -5.0170 C   0  0  0  0  0  0  0  0  0  0  0  0
   13.0542    7.4313   -2.1065 C   0  0  0  0  0  0  0  0  0  0  0  0
   13.4566    8.1549   -0.8901 C   0  0  0  0  0  0  0  0  0  0  0  0
   13.2646    5.9692   -2.4296 C   0  0  0  0  0  0  0  0  0  0  0  0
   12.7673    5.5276   -3.3989 C   0  0  0  0  0  0  0  0  0  0  0  0
  1  2  1  0  0  0  0
  2  3  1  0  0  0  0
  2  7  2  0  0  0  0
  4  3  1  6  0  0  0
  4  5  1  0  0  0  0
  4  6  1  0  0  0  0
  4  8  1  0  0  0  0
  5  9  2  0  0  0  0
  6 13  1  0  0  0  0
  7 12  1  0  0  0  0
  8 19  2  0  0  0  0
 10  7  1  1  0  0  0
 10 14  1  0  0  0  0
 10 17  1  0  0  0  0
 11  8  1  6  0  0  0
 11 20  1  0  0  0  0
 11 32  1  0  0  0  0
 12 18  1  0  0  0  0
 12 30  1  1  0  0  0
 12 32  1  0  0  0  0
 13 16  2  0  0  0  0
 13 21  1  0  0  0  0
 14  5  1  1  0  0  0
 14 15  1  0  0  0  0
 14 20  1  0  0  0  0
 15 31  1  0  0  0  0
 15 40  1  0  0  0  0
 17 18  1  0  0  0  0
 17 23  1  0  0  0  0
 18 25  1  0  0  0  0
 18 26  1  0  0  0  0
 19 21  1  0  0  0  0
 19 35  1  0  0  0  0
 20 23  1  0  0  0  0
 21 22  2  0  0  0  0
 22 27  1  0  0  0  0
 23 24  1  0  0  0  0
 23 40  1  0  0  0  0
 24 26  1  0  0  0  0
 26 28  2  0  0  0  0
 27 34  2  0  0  0  0
 27 36  1  0  0  0  0
 28 29  1  0  0  0  0
 28 32  1  0  0  0  0
 29 38  1  0  0  0  0
 31 33  2  0  0  0  0
 31 37  1  0  0  0  0
 34 35  1  0  0  0  0
 35 38  1  0  0  0  0
 36 39  1  0  0  0  0
 36 43  2  0  0  0  0
 39 41  1  0  0  0  0
 39 42  2  0  0  0  0
 41 44  2  0  0  0  0
 42 47  1  0  0  0  0
 44 45  1  0  0  0  0
 44 46  1  0  0  0  0
 46 47  2  0  0  0  0
M  END
$$$$

 OpenBabel10082411353D

 47 59  0  0  0  0  0  0  0  0999 V2000
    8.0806    9.0240  -12.7589 C   0  0  0  0  0  0  0  0  0  0  0  0
    8.6514    7.8645  -12.2948 C   0  0  0  0  0  0  0  0  0  0  0  0
    9.9575    7.9974  -11.8426 C   0  0  0  0  0  0  0  0  0  0  0  0
   10.7657    6.8667  -11.6050 C   0  0  1  0  0  0  0  0  0  0  0  0
   10.7682    5.9590  -12.8271 C   0  0  0  0  0  0  0  0  0  0  0  0
   12.1553    7.3846  -11.2315 C   0  0  0  0  0  0  0  0  0  0  0  0
    8.0676    6.6451  -12.2974 C   0  0  0  0  0  0  0  0  0  0  0  0
   10.1892    6.1240  -10.3860 C   0  0  0  0  0  0  0  0  0  0  0  0
   11.8375    5.4373  -13.3240 O   0  0  0  0  0  0  0  0  0  0  0  0
    8.6785    5.4761  -13.0273 C   0  0  1  0  0  0  0  0  0  0  0  0
    9.1969    5.2405  -10.4969 C   0  0  2  0  0  0  0  0  0  0  0  0
    7.2213    6.2210  -11.3074 C   0  0  2  0  0  0  0  0  0  0  0  0
   12.5590    7.6872   -9.9896 C   0  0  0  0  0  0  0  0  0  0  0  0
    9.7633    5.0333  -12.9720 C   0  0  1  0  0  0  0  0  0  0  0  0
   10.0661    4.0167  -14.0373 N   0  0  0  0  0  0  0  0  0  0  0  0
   13.6906    8.3004   -9.6233 O   0  0  0  0  0  0  0  0  0  0  0  0
    7.6357    4.5123  -12.6317 C   0  0  2  0  0  0  0  0  0  0  0  0
    6.8831    4.9171  -11.7031 C   0  0  2  0  0  0  0  0  0  0  0  0
   10.5937    6.6967   -9.1779 C   0  0  0  0  0  0  0  0  0  0  0  0
    9.5087    4.3263  -11.6925 C   0  0  2  0  0  0  0  0  0  0  0  0
   11.6359    7.4449   -8.9125 C   0  0  0  0  0  0  0  0  0  0  0  0
   11.9716    7.9159   -7.6200 C   0  0  0  0  0  0  0  0  0  0  0  0
    8.4648    3.6122  -12.2840 C   0  0  1  0  0  0  0  0  0  0  0  0
    7.9253    2.8004  -11.3926 C   0  0  0  0  0  0  0  0  0  0  0  0
    5.6047    4.5059  -11.7589 C   0  0  0  0  0  0  0  0  0  0  0  0
    7.6606    4.1297  -10.5699 C   0  0  0  0  0  0  0  0  0  0  0  0
   10.9559    7.6849   -6.6057 C   0  0  0  0  0  0  0  0  0  0  0  0
    8.0094    4.5092   -9.5664 C   0  0  0  0  0  0  0  0  0  0  0  0
    8.3033    4.0627   -8.4980 C   0  0  0  0  0  0  0  0  0  0  0  0
    6.3587    7.1012  -11.0392 O   0  0  0  0  0  0  0  0  0  0  0  0
   11.0186    3.9598  -14.9226 C   0  0  0  0  0  0  0  0  0  0  0  0
    8.1758    5.8633  -10.2511 C   0  0  1  0  0  0  0  0  0  0  0  0
   11.4648    2.7104  -15.2650 O   0  0  0  0  0  0  0  0  0  0  0  0
    9.9512    6.8220   -6.8436 C   0  0  0  0  0  0  0  0  0  0  0  0
    9.6899    6.3705   -8.1082 C   0  0  2  0  0  0  0  0  0  0  0  0
   11.2597    8.2901   -5.2396 C   0  0  0  0  0  0  0  0  0  0  0  0
   11.7295    4.9426  -15.4284 O   0  0  0  0  0  0  0  0  0  0  0  0
    9.2745    4.9481   -7.8103 C   0  0  0  0  0  0  0  0  0  0  0  0
    9.2182    2.8872  -13.7570 C   0  0  0  0  0  0  0  0  0  0  0  0
   11.9188    7.5853   -4.3293 C   0  0  0  0  0  0  0  0  0  0  0  0
   11.7780    6.4589   -4.0859 C   0  0  0  0  0  0  0  0  0  0  0  0
   12.5991    8.4195   -3.2071 C   0  0  0  0  0  0  0  0  0  0  0  0
   10.9410    9.6801   -5.0871 C   0  0  0  0  0  0  0  0  0  0  0  0
   13.1715    7.6467   -2.2033 C   0  0  0  0  0  0  0  0  0  0  0  0
   12.6589    6.3228   -2.4484 C   0  0  0  0  0  0  0  0  0  0  0  0
   12.3797    9.7186   -3.2727 C   0  0  0  0  0  0  0  0  0  0  0  0
   11.5659   10.4094   -4.2219 C   0  0  0  0  0  0  0  0  0  0  0  0
  1  2  1  0  0  0  0
  2  3  1  0  0  0  0
  2  7  2  0  0  0  0
  4  3  1  6  0  0  0
  4  5  1  0  0  0  0
  4  6  1  0  0  0  0
  4  8  1  0  0  0  0
  5  9  2  0  0  0  0
  6 13  1  0  0  0  0
  7 12  1  0  0  0  0
  8 19  2  0  0  0  0
 10  7  1  1  0  0  0
 10 14  1  0  0  0  0
 10 17  1  0  0  0  0
 11  8  1  6  0  0  0
 11 20  1  0  0  0  0
 11 32  1  0  0  0  0
 12 18  1  0  0  0  0
 12 30  1  1  0  0  0
 12 32  1  0  0  0  0
 13 16  2  0  0  0  0
 13 21  1  0  0  0  0
 14  5  1  1  0  0  0
 14 15  1  0  0  0  0
 14 20  1  0  0  0  0
 15 31  1  0  0  0  0
 15 39  1  0  0  0  0
 17 18  1  0  0  0  0
 17 23  1  0  0  0  0
 18 25  1  0  0  0  0
 18 26  1  0  0  0  0
 19 21  1  0  0  0  0
 19 35  1  0  0  0  0
 20 23  1  0  0  0  0
 21 22  2  0  0  0  0
 22 27  1  0  0  0  0
 23 24  1  0  0  0  0
 23 39  1  0  0  0  0
 24 26  1  0  0  0  0
 26 28  2  0  0  0  0
 27 34  2  0  0  0  0
 27 36  1  0  0  0  0
 28 29  1  0  0  0  0
 28 32  1  0  0  0  0
 29 38  1  0  0  0  0
 31 33  2  0  0  0  0
 31 37  1  0  0  0  0
 34 35  1  0  0  0  0
 35 38  1  0  0  0  0
 36 40  1  0  0  0  0
 36 43  2  0  0  0  0
 40 41  2  0  0  0  0
 40 42  1  0  0  0  0
 41 45  1  0  0  0  0
 42 44  1  0  0  0  0
 42 46  2  0  0  0  0
 43 47  1  0  0  0  0
 44 45  2  0  0  0  0
 46 47  1  0  0  0  0
M  END
$$$$

 OpenBabel10082411353D

 47 57  0  0  0  0  0  0  0  0999 V2000
    8.0806    9.0240  -12.7589 C   0  0  0  0  0  0  0  0  0  0  0  0
    8.6514    7.8645  -12.2948 C   0  0  0  0  0  0  0  0  0  0  0  0
    9.9575    7.9974  -11.8426 C   0  0  0  0  0  0  0  0  0  0  0  0
   10.7657    6.8667  -11.6050 C   0  0  1  0  0  0  0  0  0  0  0  0
   10.7682    5.9590  -12.8271 C   0  0  0  0  0  0  0  0  0  0  0  0
   12.1553    7.3846  -11.2315 C   0  0  0  0  0  0  0  0  0  0  0  0
    8.0676    6.6451  -12.2974 C   0  0  0  0  0  0  0  0  0  0  0  0
   10.1892    6.1240  -10.3860 C   0  0  0  0  0  0  0  0  0  0  0  0
   11.8375    5.4373  -13.3240 O   0  0  0  0  0  0  0  0  0  0  0  0
    8.6785    5.4761  -13.0273 C   0  0  1  0  0  0  0  0  0  0  0  0
    9.1969    5.2405  -10.4969 C   0  0  2  0  0  0  0  0  0  0  0  0
    7.2213    6.2210  -11.3074 C   0  0  2  0  0  0  0  0  0  0  0  0
   12.5590    7.6872   -9.9896 C   0  0  0  0  0  0  0  0  0  0  0  0
    9.7633    5.0333  -12.9720 C   0  0  1  0  0  0  0  0  0  0  0  0
   10.0661    4.0167  -14.0373 N   0  0  0  0  0  0  0  0  0  0  0  0
   13.6906    8.3004   -9.6233 O   0  0  0  0  0  0  0  0  0  0  0  0
    7.6357    4.5123  -12.6317 C   0  0  2  0  0  0  0  0  0  0  0  0
    6.8831    4.9171  -11.7031 C   0  0  2  0  0  0  0  0  0  0  0  0
   10.5937    6.6967   -9.1779 C   0  0  0  0  0  0  0  0  0  0  0  0
    9.5087    4.3263  -11.6925 C   0  0  2  0  0  0  0  0  0  0  0  0
   11.6359    7.4449   -8.9125 C   0  0  0  0  0  0  0  0  0  0  0  0
   11.9716    7.9159   -7.6200 C   0  0  0  0  0  0  0  0  0  0  0  0
    8.4648    3.6122  -12.2840 C   0  0  1  0  0  0  0  0  0  0  0  0
    7.9253    2.8004  -11.3926 C   0  0  0  0  0  0  0  0  0  0  0  0
    5.6047    4.5059  -11.7589 C   0  0  0  0  0  0  0  0  0  0  0  0
    7.6606    4.1297  -10.5699 C   0  0  0  0  0  0  0  0  0  0  0  0
   10.9559    7.6849   -6.6057 C   0  0  0  0  0  0  0  0  0  0  0  0
    8.0094    4.5092   -9.5664 C   0  0  0  0  0  0  0  0  0  0  0  0
    8.3033    4.0627   -8.4980 C   0  0  0  0  0  0  0  0  0  0  0  0
    6.3587    7.1012  -11.0392 O   0  0  0  0  0  0  0  0  0  0  0  0
   11.1885    8.2709   -5.2029 C   0  0  0  0  0  0  0  0  0  0  0  0
    8.1551    5.8688  -10.2415 C   0  0  0  0  0  0  0  0  0  0  0  0
    9.3562    2.8931  -13.4173 C   0  0  0  0  0  0  0  0  0  0  0  0
    9.4006    1.8057  -13.6789 O   0  0  0  0  0  0  0  0  0  0  0  0
   10.6448    3.9324  -15.2556 C   0  0  0  0  0  0  0  0  0  0  0  0
    9.9004    6.8953   -6.7235 C   0  0  0  0  0  0  0  0  0  0  0  0
    8.1584    4.7418   -7.5351 O   0  0  0  0  0  0  0  0  0  0  0  0
    8.5999    2.9050   -8.2804 O   0  0  0  0  0  0  0  0  0  0  0  0
   11.6420    7.3504   -4.2035 C   0  0  0  0  0  0  0  0  0  0  0  0
    9.6081    6.4128   -8.0398 C   0  0  1  0  0  0  0  0  0  0  0  0
    8.3828    5.9446   -7.9275 C   0  0  0  0  0  0  0  0  0  0  0  0
   11.1933    9.6919   -4.9542 C   0  0  0  0  0  0  0  0  0  0  0  0
   10.7525   10.6554   -6.1095 F   0  0  0  0  0  0  0  0  0  0  0  0
   11.4280   10.2615   -3.7601 C   0  0  0  0  0  0  0  0  0  0  0  0
   11.8049    9.4083   -2.7313 C   0  0  0  0  0  0  0  0  0  0  0  0
   11.7095    5.9867   -4.3372 C   0  0  0  0  0  0  0  0  0  0  0  0
   11.9296    8.0273   -2.8715 C   0  0  0  0  0  0  0  0  0  0  0  0
  1  2  1  0  0  0  0
  2  3  1  0  0  0  0
  2  7  2  0  0  0  0
  4  3  1  6  0  0  0
  4  5  1  0  0  0  0
  4  6  1  0  0  0  0
  4  8  1  0  0  0  0
  5  9  2  0  0  0  0
  6 13  1  0  0  0  0
  7 12  1  0  0  0  0
  8 11  1  0  0  0  0
  8 19  2  0  0  0  0
 10  7  1  1  0  0  0
 10 14  1  0  0  0  0
 10 17  1  0  0  0  0
 11 20  1  0  0  0  0
 11 32  1  6  0  0  0
 12 18  1  0  0  0  0
 12 30  1  6  0  0  0
 13 16  2  0  0  0  0
 13 21  1  0  0  0  0
 14  5  1  1  0  0  0
 14 15  1  0  0  0  0
 14 20  1  0  0  0  0
 15 33  1  0  0  0  0
 15 35  1  0  0  0  0
 17 18  1  0  0  0  0
 17 23  1  0  0  0  0
 18 25  1  0  0  0  0
 18 26  1  0  0  0  0
 19 21  1  0  0  0  0
 19 40  1  0  0  0  0
 20 23  1  0  0  0  0
 21 22  2  0  0  0  0
 22 27  1  0  0  0  0
 23 24  1  0  0  0  0
 23 33  1  0  0  0  0
 24 26  1  0  0  0  0
 26 28  2  0  0  0  0
 27 31  1  0  0  0  0
 27 36  2  0  0  0  0
 28 29  1  0  0  0  0
 28 32  1  0  0  0  0
 29 37  1  0  0  0  0
 29 38  2  0  0  0  0
 31 39  1  0  0  0  0
 31 42  2  0  0  0  0
 33 34  2  0  0  0  0
 36 40  1  0  0  0  0
 37 41  1  0  0  0  0
 39 46  1  0  0  0  0
 39 47  2  0  0  0  0
 40 41  1  0  0  0  0
 42 43  1  0  0  0  0
 42 44  1  0  0  0  0
 44 45  2  0  0  0  0
 45 47  1  0  0  0  0
M  END
$$$$

 OpenBabel10082411353D

 47 59  0  0  0  0  0  0  0  0999 V2000
    8.0806    9.0240  -12.7589 C   0  0  0  0  0  0  0  0  0  0  0  0
    8.6514    7.8645  -12.2948 C   0  0  0  0  0  0  0  0  0  0  0  0
    9.9575    7.9974  -11.8426 C   0  0  0  0  0  0  0  0  0  0  0  0
   10.7657    6.8667  -11.6050 C   0  0  1  0  0  0  0  0  0  0  0  0
   10.7682    5.9590  -12.8271 C   0  0  0  0  0  0  0  0  0  0  0  0
   12.1553    7.3846  -11.2315 C   0  0  0  0  0  0  0  0  0  0  0  0
    8.0676    6.6451  -12.2974 C   0  0  0  0  0  0  0  0  0  0  0  0
   10.1892    6.1240  -10.3860 C   0  0  0  0  0  0  0  0  0  0  0  0
   11.8375    5.4373  -13.3240 O   0  0  0  0  0  0  0  0  0  0  0  0
    8.6785    5.4761  -13.0273 C   0  0  1  0  0  0  0  0  0  0  0  0
    9.1969    5.2405  -10.4969 C   0  0  2  0  0  0  0  0  0  0  0  0
    7.2213    6.2210  -11.3074 C   0  0  2  0  0  0  0  0  0  0  0  0
   12.5590    7.6872   -9.9896 C   0  0  0  0  0  0  0  0  0  0  0  0
    9.7633    5.0333  -12.9720 C   0  0  1  0  0  0  0  0  0  0  0  0
   10.0661    4.0167  -14.0373 N   0  0  0  0  0  0  0  0  0  0  0  0
   13.6906    8.3004   -9.6233 O   0  0  0  0  0  0  0  0  0  0  0  0
    7.6357    4.5123  -12.6317 C   0  0  2  0  0  0  0  0  0  0  0  0
    6.8831    4.9171  -11.7031 C   0  0  2  0  0  0  0  0  0  0  0  0
   10.5937    6.6967   -9.1779 C   0  0  0  0  0  0  0  0  0  0  0  0
    9.5087    4.3263  -11.6925 C   0  0  2  0  0  0  0  0  0  0  0  0
   11.6359    7.4449   -8.9125 C   0  0  0  0  0  0  0  0  0  0  0  0
   11.9716    7.9159   -7.6200 C   0  0  0  0  0  0  0  0  0  0  0  0
    8.4648    3.6122  -12.2840 C   0  0  1  0  0  0  0  0  0  0  0  0
    7.9253    2.8004  -11.3926 C   0  0  2  0  0  0  0  0  0  0  0  0
    5.6047    4.5059  -11.7589 C   0  0  0  0  0  0  0  0  0  0  0  0
    7.6606    4.1297  -10.5699 C   0  0  0  0  0  0  0  0  0  0  0  0
   10.9559    7.6849   -6.6057 C   0  0  0  0  0  0  0  0  0  0  0  0
    8.0094    4.5092   -9.5664 C   0  0  0  0  0  0  0  0  0  0  0  0
    8.3033    4.0627   -8.4980 C   0  0  0  0  0  0  0  0  0  0  0  0
    6.3587    7.1012  -11.0392 O   0  0  0  0  0  0  0  0  0  0  0  0
   11.0186    3.9598  -14.9226 C   0  0  0  0  0  0  0  0  0  0  0  0
    8.1758    5.8633  -10.2511 C   0  0  1  0  0  0  0  0  0  0  0  0
   11.4648    2.7104  -15.2650 O   0  0  0  0  0  0  0  0  0  0  0  0
    9.9512    6.8220   -6.8436 C   0  0  0  0  0  0  0  0  0  0  0  0
    9.6899    6.3705   -8.1082 C   0  0  2  0  0  0  0  0  0  0  0  0
    9.1306    2.9610  -13.9685 C   0  0  0  0  0  0  0  0  0  0  0  0
    8.8414    5.0113   -7.7726 C   0  0  0  0  0  0  0  0  0  0  0  0
   11.6944    4.9031  -15.4200 O   0  0  0  0  0  0  0  0  0  0  0  0
   11.2282    8.3639   -5.2721 C   0  0  0  0  0  0  0  0  0  0  0  0
    8.7016    2.4223  -12.9165 C   0  0  1  0  0  0  0  0  0  0  0  0
   11.9286    7.6722   -4.3404 C   0  0  0  0  0  0  0  0  0  0  0  0
   10.7972    9.7001   -4.9421 C   0  0  0  0  0  0  0  0  0  0  0  0
   12.2581    8.1901   -3.0715 C   0  0  0  0  0  0  0  0  0  0  0  0
   10.1668   10.4828   -6.0100 F   0  0  0  0  0  0  0  0  0  0  0  0
   12.9614    7.3845   -2.0397 C   0  0  0  0  0  0  0  0  0  0  0  0
   11.1607   10.3525   -3.8068 C   0  0  0  0  0  0  0  0  0  0  0  0
   11.8687    9.5958   -2.8378 C   0  0  0  0  0  0  0  0  0  0  0  0
  1  2  1  0  0  0  0
  2  3  1  0  0  0  0
  2  7  2  0  0  0  0
  4  3  1  6  0  0  0
  4  5  1  0  0  0  0
  4  6  1  0  0  0  0
  4  8  1  0  0  0  0
  5  9  2  0  0  0  0
  6 13  1  0  0  0  0
  7 12  1  0  0  0  0
  8 19  2  0  0  0  0
 10  7  1  1  0  0  0
 10 14  1  0  0  0  0
 10 17  1  0  0  0  0
 11  8  1  6  0  0  0
 11 20  1  0  0  0  0
 11 32  1  0  0  0  0
 12 18  1  0  0  0  0
 12 30  1  1  0  0  0
 12 32  1  0  0  0  0
 13 16  2  0  0  0  0
 13 21  1  0  0  0  0
 14  5  1  1  0  0  0
 14 15  1  0  0  0  0
 14 20  1  0  0  0  0
 15 31  1  0  0  0  0
 15 36  1  0  0  0  0
 17 18  1  0  0  0  0
 17 23  1  0  0  0  0
 18 25  1  0  0  0  0
 18 26  1  0  0  0  0
 19 21  1  0  0  0  0
 19 35  1  0  0  0  0
 20 23  1  0  0  0  0
 21 22  2  0  0  0  0
 22 27  1  0  0  0  0
 23 24  1  0  0  0  0
 23 40  1  0  0  0  0
 24 26  1  0  0  0  0
 24 40  1  0  0  0  0
 26 28  2  0  0  0  0
 27 34  2  0  0  0  0
 27 39  1  0  0  0  0
 28 29  1  0  0  0  0
 28 32  1  0  0  0  0
 29 37  2  0  0  0  0
 31 33  2  0  0  0  0
 31 38  1  0  0  0  0
 34 35  1  0  0  0  0
 35 37  1  0  0  0  0
 36 40  1  0  0  0  0
 39 41  1  0  0  0  0
 39 42  2  0  0  0  0
 41 43  2  0  0  0  0
 42 44  1  0  0  0  0
 42 46  1  0  0  0  0
 43 45  1  0  0  0  0
 43 47  1  0  0  0  0
 46 47  2  0  0  0  0
M  END
$$$$

 OpenBabel10082411353D

 47 58  0  0  0  0  0  0  0  0999 V2000
    8.0806    9.0240  -12.7589 C   0  0  0  0  0  0  0  0  0  0  0  0
    8.6514    7.8645  -12.2948 C   0  0  0  0  0  0  0  0  0  0  0  0
    9.9575    7.9974  -11.8426 C   0  0  0  0  0  0  0  0  0  0  0  0
   10.7657    6.8667  -11.6050 C   0  0  1  0  0  0  0  0  0  0  0  0
   10.7682    5.9590  -12.8271 C   0  0  0  0  0  0  0  0  0  0  0  0
   12.1553    7.3846  -11.2315 C   0  0  0  0  0  0  0  0  0  0  0  0
    8.0676    6.6451  -12.2974 C   0  0  0  0  0  0  0  0  0  0  0  0
   10.1892    6.1240  -10.3860 C   0  0  0  0  0  0  0  0  0  0  0  0
   11.8375    5.4373  -13.3240 O   0  0  0  0  0  0  0  0  0  0  0  0
    8.6785    5.4761  -13.0273 C   0  0  1  0  0  0  0  0  0  0  0  0
    9.1969    5.2405  -10.4969 C   0  0  2  0  0  0  0  0  0  0  0  0
    7.2213    6.2210  -11.3074 C   0  0  2  0  0  0  0  0  0  0  0  0
   12.5590    7.6872   -9.9896 C   0  0  0  0  0  0  0  0  0  0  0  0
    9.7633    5.0333  -12.9720 C   0  0  1  0  0  0  0  0  0  0  0  0
   10.0661    4.0167  -14.0373 N   0  0  0  0  0  0  0  0  0  0  0  0
   13.6906    8.3004   -9.6233 O   0  0  0  0  0  0  0  0  0  0  0  0
    7.6357    4.5123  -12.6317 C   0  0  2  0  0  0  0  0  0  0  0  0
    6.8831    4.9171  -11.7031 C   0  0  2  0  0  0  0  0  0  0  0  0
   10.5937    6.6967   -9.1779 C   0  0  0  0  0  0  0  0  0  0  0  0
    9.5087    4.3263  -11.6925 C   0  0  2  0  0  0  0  0  0  0  0  0
   11.6359    7.4449   -8.9125 C   0  0  0  0  0  0  0  0  0  0  0  0
   11.9716    7.9159   -7.6200 C   0  0  0  0  0  0  0  0  0  0  0  0
    8.4648    3.6122  -12.2840 C   0  0  1  0  0  0  0  0  0  0  0  0
    7.9253    2.8004  -11.3926 C   0  0  0  0  0  0  0  0  0  0  0  0
    5.6047    4.5059  -11.7589 C   0  0  0  0  0  0  0  0  0  0  0  0
    7.6606    4.1297  -10.5699 C   0  0  0  0  0  0  0  0  0  0  0  0
   10.9559    7.6849   -6.6057 C   0  0  0  0  0  0  0  0  0  0  0  0
    8.0094    4.5092   -9.5664 C   0  0  0  0  0  0  0  0  0  0  0  0
    8.3033    4.0627   -8.4980 C   0  0  0  0  0  0  0  0  0  0  0  0
    6.3587    7.1012  -11.0392 O   0  0  0  0  0  0  0  0  0  0  0  0
   11.0186    3.9598  -14.9226 C   0  0  0  0  0  0  0  0  0  0  0  0
    8.1758    5.8633  -10.2511 C   0  0  1  0  0  0  0  0  0  0  0  0
   11.4648    2.7104  -15.2650 O   0  0  0  0  0  0  0  0  0  0  0  0
    9.9512    6.8220   -6.8436 C   0  0  0  0  0  0  0  0  0  0  0  0
    9.6899    6.3705   -8.1082 C   0  0  2  0  0  0  0  0  0  0  0  0
   11.2597    8.2901   -5.2396 C   0  0  0  0  0  0  0  0  0  0  0  0
   11.6068    9.7354   -5.2006 C   0  0  0  0  0  0  0  0  0  0  0  0
   10.9469    4.9352  -15.8306 C   0  0  0  0  0  0  0  0  0  0  0  0
    9.2417    4.9555   -7.8256 C   0  0  0  0  0  0  0  0  0  0  0  0
   11.3657    7.7043   -4.0379 C   0  0  0  0  0  0  0  0  0  0  0  0
   11.4469   10.6225   -6.4157 C   0  0  0  0  0  0  0  0  0  0  0  0
    9.5389    2.7805  -13.2898 C   0  0  0  0  0  0  0  0  0  0  0  0
   11.7644   10.0518   -3.9953 C   0  0  0  0  0  0  0  0  0  0  0  0
   11.8955    9.5084   -2.8252 C   0  0  0  0  0  0  0  0  0  0  0  0
   11.0758    6.0367   -4.1510 S   0  0  0  0  0  0  0  0  0  0  0  0
   11.6922    8.1401   -2.8680 C   0  0  0  0  0  0  0  0  0  0  0  0
   12.5322    5.3322   -3.7857 C   0  0  0  0  0  0  0  0  0  0  0  0
  1  2  1  0  0  0  0
  2  3  1  0  0  0  0
  2  7  2  0  0  0  0
  4  3  1  6  0  0  0
  4  5  1  0  0  0  0
  4  6  1  0  0  0  0
  4  8  1  0  0  0  0
  5  9  2  0  0  0  0
  6 13  1  0  0  0  0
  7 12  1  0  0  0  0
  8 19  2  0  0  0  0
 10  7  1  1  0  0  0
 10 14  1  0  0  0  0
 10 17  1  0  0  0  0
 11  8  1  6  0  0  0
 11 20  1  0  0  0  0
 11 32  1  0  0  0  0
 12 18  1  0  0  0  0
 12 30  1  1  0  0  0
 12 32  1  0  0  0  0
 13 16  2  0  0  0  0
 13 21  1  0  0  0  0
 14  5  1  1  0  0  0
 14 15  1  0  0  0  0
 14 20  1  0  0  0  0
 15 31  1  0  0  0  0
 15 42  1  0  0  0  0
 17 18  1  0  0  0  0
 17 23  1  0  0  0  0
 18 25  1  0  0  0  0
 18 26  1  0  0  0  0
 19 21  1  0  0  0  0
 19 35  1  0  0  0  0
 20 23  1  0  0  0  0
 21 22  2  0  0  0  0
 22 27  1  0  0  0  0
 23 24  1  0  0  0  0
 23 42  1  0  0  0  0
 24 26  1  0  0  0  0
 26 28  2  0  0  0  0
 27 34  2  0  0  0  0
 27 36  1  0  0  0  0
 28 29  1  0  0  0  0
 28 32  1  0  0  0  0
 29 39  2  0  0  0  0
 31 33  2  0  0  0  0
 31 38  1  0  0  0  0
 34 35  1  0  0  0  0
 35 39  1  0  0  0  0
 36 37  1  0  0  0  0
 36 40  2  0  0  0  0
 37 41  1  0  0  0  0
 37 43  2  0  0  0  0
 40 45  1  0  0  0  0
 40 46  1  0  0  0  0
 43 44  1  0  0  0  0
 44 46  2  0  0  0  0
 45 47  2  0  0  0  0
M  END
$$$$

 OpenBabel10082411353D

 47 58  0  0  0  0  0  0  0  0999 V2000
    8.0806    9.0240  -12.7589 C   0  0  0  0  0  0  0  0  0  0  0  0
    8.6514    7.8645  -12.2948 C   0  0  0  0  0  0  0  0  0  0  0  0
    9.9575    7.9974  -11.8426 C   0  0  0  0  0  0  0  0  0  0  0  0
   10.7657    6.8667  -11.6050 C   0  0  1  0  0  0  0  0  0  0  0  0
   10.7682    5.9590  -12.8271 C   0  0  0  0  0  0  0  0  0  0  0  0
   12.1553    7.3846  -11.2315 C   0  0  0  0  0  0  0  0  0  0  0  0
    8.0676    6.6451  -12.2974 C   0  0  0  0  0  0  0  0  0  0  0  0
   10.1892    6.1240  -10.3860 C   0  0  0  0  0  0  0  0  0  0  0  0
   11.8375    5.4373  -13.3240 O   0  0  0  0  0  0  0  0  0  0  0  0
    8.6785    5.4761  -13.0273 C   0  0  1  0  0  0  0  0  0  0  0  0
    9.1969    5.2405  -10.4969 C   0  0  2  0  0  0  0  0  0  0  0  0
    7.2213    6.2210  -11.3074 C   0  0  2  0  0  0  0  0  0  0  0  0
   12.5590    7.6872   -9.9896 C   0  0  0  0  0  0  0  0  0  0  0  0
    9.7633    5.0333  -12.9720 C   0  0  1  0  0  0  0  0  0  0  0  0
   10.0661    4.0167  -14.0373 N   0  0  0  0  0  0  0  0  0  0  0  0
   13.6906    8.3004   -9.6233 O   0  0  0  0  0  0  0  0  0  0  0  0
    7.6357    4.5123  -12.6317 C   0  0  2  0  0  0  0  0  0  0  0  0
    6.8831    4.9171  -11.7031 C   0  0  2  0  0  0  0  0  0  0  0  0
   10.5937    6.6967   -9.1779 C   0  0  0  0  0  0  0  0  0  0  0  0
    9.5087    4.3263  -11.6925 C   0  0  2  0  0  0  0  0  0  0  0  0
   11.6359    7.4449   -8.9125 C   0  0  0  0  0  0  0  0  0  0  0  0
   11.9716    7.9159   -7.6200 C   0  0  0  0  0  0  0  0  0  0  0  0
    8.4648    3.6122  -12.2840 C   0  0  1  0  0  0  0  0  0  0  0  0
    7.9253    2.8004  -11.3926 C   0  0  0  0  0  0  0  0  0  0  0  0
    5.6047    4.5059  -11.7589 C   0  0  0  0  0  0  0  0  0  0  0  0
    7.6606    4.1297  -10.5699 C   0  0  0  0  0  0  0  0  0  0  0  0
   10.9559    7.6849   -6.6057 C   0  0  0  0  0  0  0  0  0  0  0  0
    8.0094    4.5092   -9.5664 C   0  0  0  0  0  0  0  0  0  0  0  0
    8.3033    4.0627   -8.4980 C   0  0  0  0  0  0  0  0  0  0  0  0
    6.3587    7.1012  -11.0392 O   0  0  0  0  0  0  0  0  0  0  0  0
   11.0186    3.9598  -14.9226 C   0  0  0  0  0  0  0  0  0  0  0  0
    8.1758    5.8633  -10.2511 C   0  0  1  0  0  0  0  0  0  0  0  0
   11.4648    2.7104  -15.2650 O   0  0  0  0  0  0  0  0  0  0  0  0
    9.9512    6.8220   -6.8436 C   0  0  0  0  0  0  0  0  0  0  0  0
    9.6899    6.3705   -8.1082 C   0  0  2  0  0  0  0  0  0  0  0  0
   11.2597    8.2901   -5.2396 C   0  0  0  0  0  0  0  0  0  0  0  0
   11.6068    9.7354   -5.2006 C   0  0  0  0  0  0  0  0  0  0  0  0
   10.9469    4.9352  -15.8306 C   0  0  0  0  0  0  0  0  0  0  0  0
    9.2417    4.9555   -7.8256 C   0  0  0  0  0  0  0  0  0  0  0  0
   11.3657    7.7043   -4.0379 C   0  0  0  0  0  0  0  0  0  0  0  0
   11.4469   10.6225   -6.4157 C   0  0  0  0  0  0  0  0  0  0  0  0
   11.9077   10.2897   -3.9889 C   0  0  0  0  0  0  0  0  0  0  0  0
   11.9472    9.5143   -2.8307 C   0  0  0  0  0  0  0  0  0  0  0  0
    9.3030    2.8335  -13.6243 C   0  0  0  0  0  0  0  0  0  0  0  0
   11.0706    6.0966   -4.1041 S   0  0  0  0  0  0  0  0  0  0  0  0
   11.7378    8.1950   -2.8653 C   0  0  0  0  0  0  0  0  0  0  0  0
   12.5925    5.3669   -3.8149 C   0  0  0  0  0  0  0  0  0  0  0  0
  1  2  1  0  0  0  0
  2  3  1  0  0  0  0
  2  7  2  0  0  0  0
  4  3  1  6  0  0  0
  4  5  1  0  0  0  0
  4  6  1  0  0  0  0
  4  8  1  0  0  0  0
  5  9  2  0  0  0  0
  6 13  1  0  0  0  0
  7 12  1  0  0  0  0
  8 19  2  0  0  0  0
 10  7  1  1  0  0  0
 10 14  1  0  0  0  0
 10 17  1  0  0  0  0
 11  8  1  6  0  0  0
 11 20  1  0  0  0  0
 11 32  1  0  0  0  0
 12 18  1  0  0  0  0
 12 30  1  1  0  0  0
 12 32  1  0  0  0  0
 13 16  2  0  0  0  0
 13 21  1  0  0  0  0
 14  5  1  1  0  0  0
 14 15  1  0  0  0  0
 14 20  1  0  0  0  0
 15 31  1  0  0  0  0
 15 44  1  0  0  0  0
 17 18  1  0  0  0  0
 17 23  1  0  0  0  0
 18 25  1  0  0  0  0
 18 26  1  0  0  0  0
 19 21  1  0  0  0  0
 19 35  1  0  0  0  0
 20 23  1  0  0  0  0
 21 22  2  0  0  0  0
 22 27  1  0  0  0  0
 23 24  1  0  0  0  0
 23 44  1  0  0  0  0
 24 26  1  0  0  0  0
 26 28  2  0  0  0  0
 27 34  2  0  0  0  0
 27 36  1  0  0  0  0
 28 29  1  0  0  0  0
 28 32  1  0  0  0  0
 29 39  2  0  0  0  0
 31 33  2  0  0  0  0
 31 38  1  0  0  0  0
 34 35  1  0  0  0  0
 35 39  1  0  0  0  0
 36 37  1  0  0  0  0
 36 40  2  0  0  0  0
 37 41  1  0  0  0  0
 37 42  2  0  0  0  0
 40 45  1  0  0  0  0
 40 46  1  0  0  0  0
 42 43  1  0  0  0  0
 43 46  2  0  0  0  0
 45 47  1  0  0  0  0
M  END
$$$$

 OpenBabel10082411353D

 27 31  0  0  0  0  0  0  0  0999 V2000
   13.2485    9.2493   -6.3668 O   0  0  0  0  0  0  0  0  0  0  0  0
   12.3055    9.1779   -7.4488 C   0  0  1  0  0  0  0  0  0  0  0  0
   12.5005    8.1033   -8.2440 C   0  0  0  0  0  0  0  0  0  0  0  0
   11.7072    8.0925   -9.4886 C   0  0  2  0  0  0  0  0  0  0  0  0
   10.9116    9.4148   -7.0662 C   0  0  1  0  0  0  0  0  0  0  0  0
    9.9386    8.9657   -8.0654 C   0  0  0  0  0  0  0  0  0  0  0  0
   10.3196    7.8315   -8.9317 C   0  0  2  0  0  0  0  0  0  0  0  0
   10.1237    6.6155   -7.9733 C   0  0  2  0  0  0  0  0  0  0  0  0
    9.4711    7.7025  -10.1389 N   0  0  0  0  0  0  0  0  0  0  0  0
    8.9853    6.2010   -7.9545 O   0  0  0  0  0  0  0  0  0  0  0  0
   10.4471    8.5719   -5.8263 C   0  0  0  0  0  0  0  0  0  0  0  0
    8.8277    4.9823   -8.7016 C   0  0  0  0  0  0  0  0  0  0  0  0
   10.5671    7.0796   -6.5308 C   0  0  0  0  0  0  0  0  0  0  0  0
    9.9809    7.4743  -11.3743 C   0  0  2  0  0  0  0  0  0  0  0  0
    9.0505    7.4285  -12.4193 C   0  0  0  0  0  0  0  0  0  0  0  0
    9.0477    6.2588  -13.0112 C   0  0  0  0  0  0  0  0  0  0  0  0
    9.6784    5.1775  -12.7575 C   0  0  0  0  0  0  0  0  0  0  0  0
   10.5822    5.1916  -11.6999 C   0  0  0  0  0  0  0  0  0  0  0  0
    9.3533    3.8390  -13.6913 C   0  0  0  0  0  0  0  0  0  0  0  0
   10.5579    3.1878  -14.1006 C   0  0  0  0  0  0  0  0  0  0  0  0
   10.6254    6.3435  -10.9236 C   0  0  1  0  0  0  0  0  0  0  0  0
    8.2474    3.2747  -13.8261 C   0  0  0  0  0  0  0  0  0  0  0  0
   11.9175    6.5451  -10.2988 C   0  0  0  0  0  0  0  0  0  0  0  0
   10.2119    2.1490  -14.8514 C   0  0  0  0  0  0  0  0  0  0  0  0
    6.9230    3.9768  -13.2538 C   0  0  0  0  0  0  0  0  0  0  0  0
    8.6879    1.7975  -14.8653 S   0  0  0  0  0  0  0  0  0  0  0  0
    8.3052    8.6297  -12.6650 C   0  0  0  0  0  0  0  0  0  0  0  0
  2  1  1  1  0  0  0
  2  3  1  0  0  0  0
  2  5  1  0  0  0  0
  4  3  1  1  0  0  0
  4  7  1  0  0  0  0
  4 23  1  0  0  0  0
  5  6  1  6  0  0  0
  5 11  1  0  0  0  0
  7  6  1  1  0  0  0
  7  8  1  0  0  0  0
  7  9  1  0  0  0  0
  8 10  1  1  0  0  0
  8 13  1  0  0  0  0
 10 12  1  0  0  0  0
 11 13  1  0  0  0  0
 14  9  1  1  0  0  0
 14 15  1  0  0  0  0
 14 21  1  0  0  0  0
 15 16  2  0  0  0  0
 15 27  1  0  0  0  0
 16 17  1  0  0  0  0
 17 18  2  0  0  0  0
 17 19  1  0  0  0  0
 19 20  1  0  0  0  0
 19 22  2  0  0  0  0
 20 24  2  0  0  0  0
 21 18  1  6  0  0  0
 21 23  1  0  0  0  0
 22 25  1  0  0  0  0
 22 26  1  0  0  0  0
 24 26  1  0  0  0  0
M  END
$$$$

 OpenBabel10082411353D

 47 58  0  0  0  0  0  0  0  0999 V2000
    8.0806    9.0240  -12.7589 C   0  0  0  0  0  0  0  0  0  0  0  0
    8.6514    7.8645  -12.2948 C   0  0  0  0  0  0  0  0  0  0  0  0
    9.9575    7.9974  -11.8426 C   0  0  0  0  0  0  0  0  0  0  0  0
   10.7657    6.8667  -11.6050 C   0  0  1  0  0  0  0  0  0  0  0  0
   10.7682    5.9590  -12.8271 C   0  0  0  0  0  0  0  0  0  0  0  0
   12.1553    7.3846  -11.2315 C   0  0  0  0  0  0  0  0  0  0  0  0
    8.0676    6.6451  -12.2974 C   0  0  0  0  0  0  0  0  0  0  0  0
   10.1892    6.1240  -10.3860 C   0  0  0  0  0  0  0  0  0  0  0  0
   11.8375    5.4373  -13.3240 O   0  0  0  0  0  0  0  0  0  0  0  0
    8.6785    5.4761  -13.0273 C   0  0  1  0  0  0  0  0  0  0  0  0
    9.1969    5.2405  -10.4969 C   0  0  2  0  0  0  0  0  0  0  0  0
    7.2213    6.2210  -11.3074 C   0  0  2  0  0  0  0  0  0  0  0  0
   12.5590    7.6872   -9.9896 C   0  0  0  0  0  0  0  0  0  0  0  0
    9.7633    5.0333  -12.9720 C   0  0  1  0  0  0  0  0  0  0  0  0
   10.0661    4.0167  -14.0373 N   0  0  0  0  0  0  0  0  0  0  0  0
   13.6906    8.3004   -9.6233 O   0  0  0  0  0  0  0  0  0  0  0  0
    7.6357    4.5123  -12.6317 C   0  0  2  0  0  0  0  0  0  0  0  0
    6.8831    4.9171  -11.7031 C   0  0  2  0  0  0  0  0  0  0  0  0
   10.5937    6.6967   -9.1779 C   0  0  0  0  0  0  0  0  0  0  0  0
    9.5087    4.3263  -11.6925 C   0  0  2  0  0  0  0  0  0  0  0  0
   11.6359    7.4449   -8.9125 C   0  0  0  0  0  0  0  0  0  0  0  0
   11.9716    7.9159   -7.6200 C   0  0  0  0  0  0  0  0  0  0  0  0
    8.4648    3.6122  -12.2840 C   0  0  1  0  0  0  0  0  0  0  0  0
    7.9253    2.8004  -11.3926 C   0  0  0  0  0  0  0  0  0  0  0  0
    5.6047    4.5059  -11.7589 C   0  0  0  0  0  0  0  0  0  0  0  0
    7.6606    4.1297  -10.5699 C   0  0  0  0  0  0  0  0  0  0  0  0
   10.9559    7.6849   -6.6057 C   0  0  0  0  0  0  0  0  0  0  0  0
    8.0094    4.5092   -9.5664 C   0  0  0  0  0  0  0  0  0  0  0  0
    8.3033    4.0627   -8.4980 C   0  0  0  0  0  0  0  0  0  0  0  0
    6.3587    7.1012  -11.0392 O   0  0  0  0  0  0  0  0  0  0  0  0
   11.0186    3.9598  -14.9226 C   0  0  0  0  0  0  0  0  0  0  0  0
    8.1758    5.8633  -10.2511 C   0  0  1  0  0  0  0  0  0  0  0  0
   11.4648    2.7104  -15.2650 O   0  0  0  0  0  0  0  0  0  0  0  0
    9.9512    6.8220   -6.8436 C   0  0  0  0  0  0  0  0  0  0  0  0
    9.6899    6.3705   -8.1082 C   0  0  2  0  0  0  0  0  0  0  0  0
   11.2597    8.2901   -5.2396 C   0  0  0  0  0  0  0  0  0  0  0  0
   11.6068    9.7354   -5.2006 C   0  0  0  0  0  0  0  0  0  0  0  0
    9.4261    2.7718  -13.6670 C   0  0  0  0  0  0  0  0  0  0  0  0
    9.1568    5.0346   -7.7426 C   0  0  0  0  0  0  0  0  0  0  0  0
   11.5635    4.9451  -15.5137 O   0  0  0  0  0  0  0  0  0  0  0  0
   11.3722    7.7145   -4.0316 C   0  0  0  0  0  0  0  0  0  0  0  0
   11.1755    6.1721   -3.9933 C   0  0  0  0  0  0  0  0  0  0  0  0
   11.8659    8.2759   -2.8028 C   0  0  0  0  0  0  0  0  0  0  0  0
   12.1570    7.4907   -1.6316 C   0  0  0  0  0  0  0  0  0  0  0  0
   12.1450    9.6837   -2.8275 C   0  0  0  0  0  0  0  0  0  0  0  0
   11.2963   10.5868   -6.3925 C   0  0  0  0  0  0  0  0  0  0  0  0
   11.8858   10.3762   -3.9889 C   0  0  0  0  0  0  0  0  0  0  0  0
  1  2  1  0  0  0  0
  2  3  1  0  0  0  0
  2  7  2  0  0  0  0
  4  3  1  6  0  0  0
  4  5  1  0  0  0  0
  4  6  1  0  0  0  0
  4  8  1  0  0  0  0
  5  9  2  0  0  0  0
  6 13  1  0  0  0  0
  7 12  1  0  0  0  0
  8 19  2  0  0  0  0
 10  7  1  1  0  0  0
 10 14  1  0  0  0  0
 10 17  1  0  0  0  0
 11  8  1  6  0  0  0
 11 20  1  0  0  0  0
 11 32  1  0  0  0  0
 12 18  1  0  0  0  0
 12 30  1  1  0  0  0
 12 32  1  0  0  0  0
 13 16  2  0  0  0  0
 13 21  1  0  0  0  0
 14  5  1  1  0  0  0
 14 15  1  0  0  0  0
 14 20  1  0  0  0  0
 15 31  1  0  0  0  0
 15 38  1  0  0  0  0
 17 18  1  0  0  0  0
 17 23  1  0  0  0  0
 18 25  1  0  0  0  0
 18 26  1  0  0  0  0
 19 21  1  0  0  0  0
 19 35  1  0  0  0  0
 20 23  1  0  0  0  0
 21 22  2  0  0  0  0
 22 27  1  0  0  0  0
 23 24  1  0  0  0  0
 23 38  1  0  0  0  0
 24 26  1  0  0  0  0
 26 28  2  0  0  0  0
 27 34  2  0  0  0  0
 27 36  1  0  0  0  0
 28 29  1  0  0  0  0
 28 32  1  0  0  0  0
 29 39  1  0  0  0  0
 31 33  2  0  0  0  0
 31 40  1  0  0  0  0
 34 35  1  0  0  0  0
 35 39  1  0  0  0  0
 36 37  1  0  0  0  0
 36 41  2  0  0  0  0
 37 46  1  0  0  0  0
 37 47  2  0  0  0  0
 41 42  1  0  0  0  0
 41 43  1  0  0  0  0
 43 44  1  0  0  0  0
 43 45  2  0  0  0  0
 45 47  1  0  0  0  0
M  END
$$$$

 OpenBabel10082411353D

 47 59  0  0  0  0  0  0  0  0999 V2000
    8.0806    9.0240  -12.7589 C   0  0  0  0  0  0  0  0  0  0  0  0
    8.6514    7.8645  -12.2948 C   0  0  0  0  0  0  0  0  0  0  0  0
    9.9575    7.9974  -11.8426 C   0  0  0  0  0  0  0  0  0  0  0  0
   10.7657    6.8667  -11.6050 C   0  0  1  0  0  0  0  0  0  0  0  0
   10.7682    5.9590  -12.8271 C   0  0  0  0  0  0  0  0  0  0  0  0
   12.1553    7.3846  -11.2315 C   0  0  0  0  0  0  0  0  0  0  0  0
    8.0676    6.6451  -12.2974 C   0  0  0  0  0  0  0  0  0  0  0  0
   10.1892    6.1240  -10.3860 C   0  0  0  0  0  0  0  0  0  0  0  0
   11.8375    5.4373  -13.3240 O   0  0  0  0  0  0  0  0  0  0  0  0
    8.6785    5.4761  -13.0273 C   0  0  1  0  0  0  0  0  0  0  0  0
    9.1969    5.2405  -10.4969 C   0  0  2  0  0  0  0  0  0  0  0  0
    7.2213    6.2210  -11.3074 C   0  0  2  0  0  0  0  0  0  0  0  0
   12.5590    7.6872   -9.9896 C   0  0  0  0  0  0  0  0  0  0  0  0
    9.7633    5.0333  -12.9720 C   0  0  1  0  0  0  0  0  0  0  0  0
   10.0661    4.0167  -14.0373 N   0  0  0  0  0  0  0  0  0  0  0  0
   13.6906    8.3004   -9.6233 O   0  0  0  0  0  0  0  0  0  0  0  0
    7.6357    4.5123  -12.6317 C   0  0  2  0  0  0  0  0  0  0  0  0
    6.8831    4.9171  -11.7031 C   0  0  2  0  0  0  0  0  0  0  0  0
   10.5937    6.6967   -9.1779 C   0  0  0  0  0  0  0  0  0  0  0  0
    9.5087    4.3263  -11.6925 C   0  0  2  0  0  0  0  0  0  0  0  0
   11.6359    7.4449   -8.9125 C   0  0  0  0  0  0  0  0  0  0  0  0
   11.9716    7.9159   -7.6200 C   0  0  0  0  0  0  0  0  0  0  0  0
    8.4648    3.6122  -12.2840 C   0  0  1  0  0  0  0  0  0  0  0  0
    7.9253    2.8004  -11.3926 C   0  0  2  0  0  0  0  0  0  0  0  0
    5.6047    4.5059  -11.7589 C   0  0  0  0  0  0  0  0  0  0  0  0
    7.6606    4.1297  -10.5699 C   0  0  0  0  0  0  0  0  0  0  0  0
   10.9559    7.6849   -6.6057 C   0  0  0  0  0  0  0  0  0  0  0  0
    8.0094    4.5092   -9.5664 C   0  0  0  0  0  0  0  0  0  0  0  0
    8.3033    4.0627   -8.4980 C   0  0  0  0  0  0  0  0  0  0  0  0
    6.3587    7.1012  -11.0392 O   0  0  0  0  0  0  0  0  0  0  0  0
   11.0186    3.9598  -14.9226 C   0  0  0  0  0  0  0  0  0  0  0  0
    8.1758    5.8633  -10.2511 C   0  0  1  0  0  0  0  0  0  0  0  0
   11.4648    2.7104  -15.2650 O   0  0  0  0  0  0  0  0  0  0  0  0
    9.9512    6.8220   -6.8436 C   0  0  0  0  0  0  0  0  0  0  0  0
    9.6899    6.3705   -8.1082 C   0  0  2  0  0  0  0  0  0  0  0  0
    9.1306    2.9610  -13.9685 C   0  0  0  0  0  0  0  0  0  0  0  0
    8.8414    5.0113   -7.7726 C   0  0  0  0  0  0  0  0  0  0  0  0
   11.6944    4.9031  -15.4200 O   0  0  0  0  0  0  0  0  0  0  0  0
   11.2282    8.3639   -5.2721 C   0  0  0  0  0  0  0  0  0  0  0  0
    8.7016    2.4223  -12.9165 C   0  0  1  0  0  0  0  0  0  0  0  0
   11.9286    7.6722   -4.3404 C   0  0  0  0  0  0  0  0  0  0  0  0
   10.7972    9.7001   -4.9421 C   0  0  0  0  0  0  0  0  0  0  0  0
   12.3405    6.1168   -4.5669 C   0  0  0  0  0  0  0  0  0  0  0  0
   12.3137    8.1587   -3.0956 C   0  0  0  0  0  0  0  0  0  0  0  0
   13.0538    7.4153   -1.9549 C   0  0  0  0  0  0  0  0  0  0  0  0
   12.1166    9.6254   -2.8204 C   0  0  0  0  0  0  0  0  0  0  0  0
   11.2857   10.2809   -3.8064 C   0  0  0  0  0  0  0  0  0  0  0  0
  1  2  1  0  0  0  0
  2  3  1  0  0  0  0
  2  7  2  0  0  0  0
  4  3  1  6  0  0  0
  4  5  1  0  0  0  0
  4  6  1  0  0  0  0
  4  8  1  0  0  0  0
  5  9  2  0  0  0  0
  6 13  1  0  0  0  0
  7 12  1  0  0  0  0
  8 19  2  0  0  0  0
 10  7  1  1  0  0  0
 10 14  1  0  0  0  0
 10 17  1  0  0  0  0
 11  8  1  6  0  0  0
 11 20  1  0  0  0  0
 11 32  1  0  0  0  0
 12 18  1  0  0  0  0
 12 30  1  1  0  0  0
 12 32  1  0  0  0  0
 13 16  2  0  0  0  0
 13 21  1  0  0  0  0
 14  5  1  1  0  0  0
 14 15  1  0  0  0  0
 14 20  1  0  0  0  0
 15 31  1  0  0  0  0
 15 36  1  0  0  0  0
 17 18  1  0  0  0  0
 17 23  1  0  0  0  0
 18 25  1  0  0  0  0
 18 26  1  0  0  0  0
 19 21  1  0  0  0  0
 19 35  1  0  0  0  0
 20 23  1  0  0  0  0
 21 22  2  0  0  0  0
 22 27  1  0  0  0  0
 23 24  1  0  0  0  0
 23 40  1  0  0  0  0
 24 26  1  0  0  0  0
 24 40  1  0  0  0  0
 26 28  2  0  0  0  0
 27 34  2  0  0  0  0
 27 39  1  0  0  0  0
 28 29  1  0  0  0  0
 28 32  1  0  0  0  0
 29 37  2  0  0  0  0
 31 33  2  0  0  0  0
 31 38  1  0  0  0  0
 34 35  1  0  0  0  0
 35 37  1  0  0  0  0
 36 40  1  0  0  0  0
 39 41  1  0  0  0  0
 39 42  2  0  0  0  0
 41 43  1  0  0  0  0
 41 44  2  0  0  0  0
 42 47  1  0  0  0  0
 44 45  1  0  0  0  0
 44 46  1  0  0  0  0
 46 47  2  0  0  0  0
M  END
$$$$

 OpenBabel10082411353D

 47 57  0  0  0  0  0  0  0  0999 V2000
    8.0806    9.0240  -12.7589 C   0  0  0  0  0  0  0  0  0  0  0  0
    8.6514    7.8645  -12.2948 C   0  0  0  0  0  0  0  0  0  0  0  0
    9.9575    7.9974  -11.8426 C   0  0  0  0  0  0  0  0  0  0  0  0
   10.7657    6.8667  -11.6050 C   0  0  1  0  0  0  0  0  0  0  0  0
   10.7682    5.9590  -12.8271 C   0  0  0  0  0  0  0  0  0  0  0  0
   12.1553    7.3846  -11.2315 C   0  0  0  0  0  0  0  0  0  0  0  0
    8.0676    6.6451  -12.2974 C   0  0  0  0  0  0  0  0  0  0  0  0
   10.1892    6.1240  -10.3860 C   0  0  0  0  0  0  0  0  0  0  0  0
   11.8375    5.4373  -13.3240 O   0  0  0  0  0  0  0  0  0  0  0  0
    8.6785    5.4761  -13.0273 C   0  0  1  0  0  0  0  0  0  0  0  0
    9.1969    5.2405  -10.4969 C   0  0  2  0  0  0  0  0  0  0  0  0
    7.2213    6.2210  -11.3074 C   0  0  2  0  0  0  0  0  0  0  0  0
   12.5590    7.6872   -9.9896 C   0  0  0  0  0  0  0  0  0  0  0  0
    9.7633    5.0333  -12.9720 C   0  0  1  0  0  0  0  0  0  0  0  0
   10.0661    4.0167  -14.0373 N   0  0  0  0  0  0  0  0  0  0  0  0
   13.6906    8.3004   -9.6233 O   0  0  0  0  0  0  0  0  0  0  0  0
    7.6357    4.5123  -12.6317 C   0  0  2  0  0  0  0  0  0  0  0  0
    6.8831    4.9171  -11.7031 C   0  0  2  0  0  0  0  0  0  0  0  0
   10.5937    6.6967   -9.1779 C   0  0  0  0  0  0  0  0  0  0  0  0
    9.5087    4.3263  -11.6925 C   0  0  2  0  0  0  0  0  0  0  0  0
   11.6359    7.4449   -8.9125 C   0  0  0  0  0  0  0  0  0  0  0  0
   11.9716    7.9159   -7.6200 C   0  0  0  0  0  0  0  0  0  0  0  0
    8.4648    3.6122  -12.2840 C   0  0  1  0  0  0  0  0  0  0  0  0
    7.9253    2.8004  -11.3926 C   0  0  0  0  0  0  0  0  0  0  0  0
    5.6047    4.5059  -11.7589 C   0  0  0  0  0  0  0  0  0  0  0  0
    7.6606    4.1297  -10.5699 C   0  0  0  0  0  0  0  0  0  0  0  0
   10.9559    7.6849   -6.6057 C   0  0  0  0  0  0  0  0  0  0  0  0
    8.0094    4.5092   -9.5664 C   0  0  0  0  0  0  0  0  0  0  0  0
    8.3033    4.0627   -8.4980 C   0  0  0  0  0  0  0  0  0  0  0  0
    6.3587    7.1012  -11.0392 O   0  0  0  0  0  0  0  0  0  0  0  0
   11.1885    8.2709   -5.2029 C   0  0  0  0  0  0  0  0  0  0  0  0
    8.1551    5.8688  -10.2415 C   0  0  0  0  0  0  0  0  0  0  0  0
    9.3562    2.8931  -13.4173 C   0  0  0  0  0  0  0  0  0  0  0  0
    9.4006    1.8057  -13.6789 O   0  0  0  0  0  0  0  0  0  0  0  0
   10.6448    3.9324  -15.2556 C   0  0  0  0  0  0  0  0  0  0  0  0
    9.9004    6.8953   -6.7235 C   0  0  0  0  0  0  0  0  0  0  0  0
    8.1584    4.7418   -7.5351 O   0  0  0  0  0  0  0  0  0  0  0  0
    8.5999    2.9050   -8.2804 O   0  0  0  0  0  0  0  0  0  0  0  0
   11.6420    7.3504   -4.2035 C   0  0  0  0  0  0  0  0  0  0  0  0
    9.6081    6.4128   -8.0398 C   0  0  1  0  0  0  0  0  0  0  0  0
    8.3828    5.9446   -7.9275 C   0  0  0  0  0  0  0  0  0  0  0  0
   11.1933    9.6919   -4.9542 C   0  0  0  0  0  0  0  0  0  0  0  0
   11.7827    5.9124   -4.4646 C   0  0  0  0  0  0  0  0  0  0  0  0
   10.7919   10.6366   -6.1001 C   0  0  0  0  0  0  0  0  0  0  0  0
   11.9226    7.9584   -2.9803 C   0  0  0  0  0  0  0  0  0  0  0  0
   11.9299    9.4961   -2.8150 C   0  0  0  0  0  0  0  0  0  0  0  0
   11.5111   10.2182   -3.8073 N   0  0  0  0  0  0  0  0  0  0  0  0
  1  2  1  0  0  0  0
  2  3  1  0  0  0  0
  2  7  2  0  0  0  0
  4  3  1  6  0  0  0
  4  5  1  0  0  0  0
  4  6  1  0  0  0  0
  4  8  1  0  0  0  0
  5  9  2  0  0  0  0
  6 13  1  0  0  0  0
  7 12  1  0  0  0  0
  8 11  1  0  0  0  0
  8 19  2  0  0  0  0
 10  7  1  1  0  0  0
 10 14  1  0  0  0  0
 10 17  1  0  0  0  0
 11 20  1  0  0  0  0
 11 32  1  6  0  0  0
 12 18  1  0  0  0  0
 12 30  1  6  0  0  0
 13 16  2  0  0  0  0
 13 21  1  0  0  0  0
 14  5  1  1  0  0  0
 14 15  1  0  0  0  0
 14 20  1  0  0  0  0
 15 33  1  0  0  0  0
 15 35  1  0  0  0  0
 17 18  1  0  0  0  0
 17 23  1  0  0  0  0
 18 25  1  0  0  0  0
 18 26  1  0  0  0  0
 19 21  1  0  0  0  0
 19 40  1  0  0  0  0
 20 23  1  0  0  0  0
 21 22  2  0  0  0  0
 22 27  1  0  0  0  0
 23 24  1  0  0  0  0
 23 33  1  0  0  0  0
 24 26  1  0  0  0  0
 26 28  2  0  0  0  0
 27 31  1  0  0  0  0
 27 36  2  0  0  0  0
 28 29  1  0  0  0  0
 28 32  1  0  0  0  0
 29 37  1  0  0  0  0
 29 38  2  0  0  0  0
 31 39  1  0  0  0  0
 31 42  2  0  0  0  0
 33 34  2  0  0  0  0
 36 40  1  0  0  0  0
 37 41  1  0  0  0  0
 39 43  1  0  0  0  0
 39 45  2  0  0  0  0
 40 41  1  0  0  0  0
 42 44  1  0  0  0  0
 42 47  1  0  0  0  0
 45 46  1  0  0  0  0
 46 47  2  0  0  0  0
M  END
$$$$

 OpenBabel10082411353D

 47 59  0  0  0  0  0  0  0  0999 V2000
    8.0806    9.0240  -12.7589 C   0  0  0  0  0  0  0  0  0  0  0  0
    8.6514    7.8645  -12.2948 C   0  0  0  0  0  0  0  0  0  0  0  0
    9.9575    7.9974  -11.8426 C   0  0  0  0  0  0  0  0  0  0  0  0
   10.7657    6.8667  -11.6050 C   0  0  1  0  0  0  0  0  0  0  0  0
   10.7682    5.9590  -12.8271 C   0  0  0  0  0  0  0  0  0  0  0  0
   12.1553    7.3846  -11.2315 C   0  0  0  0  0  0  0  0  0  0  0  0
    8.0676    6.6451  -12.2974 C   0  0  0  0  0  0  0  0  0  0  0  0
   10.1892    6.1240  -10.3860 C   0  0  0  0  0  0  0  0  0  0  0  0
   11.8375    5.4373  -13.3240 O   0  0  0  0  0  0  0  0  0  0  0  0
    8.6785    5.4761  -13.0273 C   0  0  1  0  0  0  0  0  0  0  0  0
    9.1969    5.2405  -10.4969 C   0  0  2  0  0  0  0  0  0  0  0  0
    7.2213    6.2210  -11.3074 C   0  0  2  0  0  0  0  0  0  0  0  0
   12.5590    7.6872   -9.9896 C   0  0  0  0  0  0  0  0  0  0  0  0
    9.7633    5.0333  -12.9720 C   0  0  1  0  0  0  0  0  0  0  0  0
   10.0661    4.0167  -14.0373 N   0  0  0  0  0  0  0  0  0  0  0  0
   13.6906    8.3004   -9.6233 O   0  0  0  0  0  0  0  0  0  0  0  0
    7.6357    4.5123  -12.6317 C   0  0  2  0  0  0  0  0  0  0  0  0
    6.8831    4.9171  -11.7031 C   0  0  2  0  0  0  0  0  0  0  0  0
   10.5937    6.6967   -9.1779 C   0  0  0  0  0  0  0  0  0  0  0  0
    9.5087    4.3263  -11.6925 C   0  0  2  0  0  0  0  0  0  0  0  0
   11.6359    7.4449   -8.9125 C   0  0  0  0  0  0  0  0  0  0  0  0
   11.9716    7.9159   -7.6200 C   0  0  0  0  0  0  0  0  0  0  0  0
    8.4648    3.6122  -12.2840 C   0  0  1  0  0  0  0  0  0  0  0  0
    7.9253    2.8004  -11.3926 C   0  0  2  0  0  0  0  0  0  0  0  0
    5.6047    4.5059  -11.7589 C   0  0  0  0  0  0  0  0  0  0  0  0
    7.6606    4.1297  -10.5699 C   0  0  0  0  0  0  0  0  0  0  0  0
   10.9559    7.6849   -6.6057 C   0  0  0  0  0  0  0  0  0  0  0  0
    8.0094    4.5092   -9.5664 C   0  0  0  0  0  0  0  0  0  0  0  0
    8.3033    4.0627   -8.4980 C   0  0  0  0  0  0  0  0  0  0  0  0
    6.3587    7.1012  -11.0392 O   0  0  0  0  0  0  0  0  0  0  0  0
   11.0186    3.9598  -14.9226 C   0  0  0  0  0  0  0  0  0  0  0  0
    8.1758    5.8633  -10.2511 C   0  0  1  0  0  0  0  0  0  0  0  0
   11.4648    2.7104  -15.2650 O   0  0  0  0  0  0  0  0  0  0  0  0
    9.9512    6.8220   -6.8436 C   0  0  0  0  0  0  0  0  0  0  0  0
    9.6899    6.3705   -8.1082 C   0  0  2  0  0  0  0  0  0  0  0  0
    9.1306    2.9610  -13.9685 C   0  0  0  0  0  0  0  0  0  0  0  0
    8.8414    5.0113   -7.7726 C   0  0  0  0  0  0  0  0  0  0  0  0
   11.6944    4.9031  -15.4200 O   0  0  0  0  0  0  0  0  0  0  0  0
   11.2282    8.3639   -5.2721 C   0  0  0  0  0  0  0  0  0  0  0  0
    8.7016    2.4223  -12.9165 C   0  0  1  0  0  0  0  0  0  0  0  0
   11.9286    7.6722   -4.3404 C   0  0  0  0  0  0  0  0  0  0  0  0
   10.7972    9.7001   -4.9421 C   0  0  0  0  0  0  0  0  0  0  0  0
   12.3405    6.1168   -4.5669 C   0  0  0  0  0  0  0  0  0  0  0  0
   12.3137    8.1587   -3.0956 C   0  0  0  0  0  0  0  0  0  0  0  0
   13.0538    7.4153   -1.9549 C   0  0  0  0  0  0  0  0  0  0  0  0
   11.7996    9.6302   -2.8153 C   0  0  0  0  0  0  0  0  0  0  0  0
   11.1792   10.2485   -3.7869 N   0  0  0  0  0  0  0  0  0  0  0  0
  1  2  1  0  0  0  0
  2  3  1  0  0  0  0
  2  7  2  0  0  0  0
  4  3  1  6  0  0  0
  4  5  1  0  0  0  0
  4  6  1  0  0  0  0
  4  8  1  0  0  0  0
  5  9  2  0  0  0  0
  6 13  1  0  0  0  0
  7 12  1  0  0  0  0
  8 19  2  0  0  0  0
 10  7  1  1  0  0  0
 10 14  1  0  0  0  0
 10 17  1  0  0  0  0
 11  8  1  6  0  0  0
 11 20  1  0  0  0  0
 11 32  1  0  0  0  0
 12 18  1  0  0  0  0
 12 30  1  1  0  0  0
 12 32  1  0  0  0  0
 13 16  2  0  0  0  0
 13 21  1  0  0  0  0
 14  5  1  1  0  0  0
 14 15  1  0  0  0  0
 14 20  1  0  0  0  0
 15 31  1  0  0  0  0
 15 36  1  0  0  0  0
 17 18  1  0  0  0  0
 17 23  1  0  0  0  0
 18 25  1  0  0  0  0
 18 26  1  0  0  0  0
 19 21  1  0  0  0  0
 19 35  1  0  0  0  0
 20 23  1  0  0  0  0
 21 22  2  0  0  0  0
 22 27  1  0  0  0  0
 23 24  1  0  0  0  0
 23 40  1  0  0  0  0
 24 26  1  0  0  0  0
 24 40  1  0  0  0  0
 26 28  2  0  0  0  0
 27 34  2  0  0  0  0
 27 39  1  0  0  0  0
 28 29  1  0  0  0  0
 28 32  1  0  0  0  0
 29 37  2  0  0  0  0
 31 33  2  0  0  0  0
 31 38  1  0  0  0  0
 34 35  1  0  0  0  0
 35 37  1  0  0  0  0
 36 40  1  0  0  0  0
 39 41  1  0  0  0  0
 39 42  2  0  0  0  0
 41 43  1  0  0  0  0
 41 44  2  0  0  0  0
 42 47  1  0  0  0  0
 44 45  1  0  0  0  0
 44 46  1  0  0  0  0
 46 47  2  0  0  0  0
M  END
$$$$

 OpenBabel10082411353D

 47 58  0  0  0  0  0  0  0  0999 V2000
    8.0806    9.0240  -12.7589 C   0  0  0  0  0  0  0  0  0  0  0  0
    8.6514    7.8645  -12.2948 C   0  0  0  0  0  0  0  0  0  0  0  0
    9.9575    7.9974  -11.8426 C   0  0  0  0  0  0  0  0  0  0  0  0
   10.7657    6.8667  -11.6050 C   0  0  1  0  0  0  0  0  0  0  0  0
   10.7682    5.9590  -12.8271 C   0  0  0  0  0  0  0  0  0  0  0  0
   12.1553    7.3846  -11.2315 C   0  0  0  0  0  0  0  0  0  0  0  0
    8.0676    6.6451  -12.2974 C   0  0  0  0  0  0  0  0  0  0  0  0
   10.1892    6.1240  -10.3860 C   0  0  0  0  0  0  0  0  0  0  0  0
   11.8375    5.4373  -13.3240 O   0  0  0  0  0  0  0  0  0  0  0  0
    8.6785    5.4761  -13.0273 C   0  0  1  0  0  0  0  0  0  0  0  0
    9.1969    5.2405  -10.4969 C   0  0  2  0  0  0  0  0  0  0  0  0
    7.2213    6.2210  -11.3074 C   0  0  2  0  0  0  0  0  0  0  0  0
   12.5590    7.6872   -9.9896 C   0  0  0  0  0  0  0  0  0  0  0  0
    9.7633    5.0333  -12.9720 C   0  0  1  0  0  0  0  0  0  0  0  0
   10.0661    4.0167  -14.0373 N   0  0  0  0  0  0  0  0  0  0  0  0
   13.6906    8.3004   -9.6233 O   0  0  0  0  0  0  0  0  0  0  0  0
    7.6357    4.5123  -12.6317 C   0  0  2  0  0  0  0  0  0  0  0  0
    6.8831    4.9171  -11.7031 C   0  0  2  0  0  0  0  0  0  0  0  0
   10.5937    6.6967   -9.1779 C   0  0  0  0  0  0  0  0  0  0  0  0
    9.5087    4.3263  -11.6925 C   0  0  2  0  0  0  0  0  0  0  0  0
   11.6359    7.4449   -8.9125 C   0  0  0  0  0  0  0  0  0  0  0  0
   11.9716    7.9159   -7.6200 C   0  0  0  0  0  0  0  0  0  0  0  0
    8.4648    3.6122  -12.2840 C   0  0  1  0  0  0  0  0  0  0  0  0
    7.9253    2.8004  -11.3926 C   0  0  0  0  0  0  0  0  0  0  0  0
    5.6047    4.5059  -11.7589 C   0  0  0  0  0  0  0  0  0  0  0  0
    7.6606    4.1297  -10.5699 C   0  0  0  0  0  0  0  0  0  0  0  0
   10.9559    7.6849   -6.6057 C   0  0  0  0  0  0  0  0  0  0  0  0
    8.0094    4.5092   -9.5664 C   0  0  0  0  0  0  0  0  0  0  0  0
    8.3033    4.0627   -8.4980 C   0  0  0  0  0  0  0  0  0  0  0  0
    6.3587    7.1012  -11.0392 O   0  0  0  0  0  0  0  0  0  0  0  0
   11.0186    3.9598  -14.9226 C   0  0  0  0  0  0  0  0  0  0  0  0
    8.1758    5.8633  -10.2511 C   0  0  1  0  0  0  0  0  0  0  0  0
    9.4315    2.8557  -13.5931 C   0  0  0  0  0  0  0  0  0  0  0  0
   11.5906    2.6986  -15.1672 C   0  0  0  0  0  0  0  0  0  0  0  0
    9.9783    6.7760   -6.8364 C   0  0  0  0  0  0  0  0  0  0  0  0
    9.7446    6.4267   -8.0721 C   0  0  2  0  0  0  0  0  0  0  0  0
   11.2061    4.8269  -15.6646 O   0  0  0  0  0  0  0  0  0  0  0  0
    9.0742    5.1188   -7.7353 C   0  0  0  0  0  0  0  0  0  0  0  0
   11.2514    8.3570   -5.2635 C   0  0  0  0  0  0  0  0  0  0  0  0
   11.7290    9.7516   -5.2520 C   0  0  0  0  0  0  0  0  0  0  0  0
   11.3145    7.7538   -4.0409 C   0  0  0  0  0  0  0  0  0  0  0  0
   11.6152   10.5942   -6.5063 C   0  0  0  0  0  0  0  0  0  0  0  0
   12.0480   10.3279   -4.0742 C   0  0  0  0  0  0  0  0  0  0  0  0
   10.9624    6.1690   -4.0166 C   0  0  0  0  0  0  0  0  0  0  0  0
   11.7028    8.2322   -2.8377 C   0  0  0  0  0  0  0  0  0  0  0  0
   11.7575    7.5028   -1.5461 C   0  0  0  0  0  0  0  0  0  0  0  0
   12.0736    9.6448   -2.8406 C   0  0  0  0  0  0  0  0  0  0  0  0
  1  2  1  0  0  0  0
  2  3  1  0  0  0  0
  2  7  2  0  0  0  0
  4  3  1  6  0  0  0
  4  5  1  0  0  0  0
  4  6  1  0  0  0  0
  4  8  1  0  0  0  0
  5  9  2  0  0  0  0
  6 13  1  0  0  0  0
  7 12  1  0  0  0  0
  8 19  2  0  0  0  0
 10  7  1  1  0  0  0
 10 14  1  0  0  0  0
 10 17  1  0  0  0  0
 11  8  1  6  0  0  0
 11 20  1  0  0  0  0
 11 32  1  0  0  0  0
 12 18  1  0  0  0  0
 12 30  1  1  0  0  0
 12 32  1  0  0  0  0
 13 16  2  0  0  0  0
 13 21  1  0  0  0  0
 14  5  1  1  0  0  0
 14 15  1  0  0  0  0
 14 20  1  0  0  0  0
 15 31  1  0  0  0  0
 15 33  1  0  0  0  0
 17 18  1  0  0  0  0
 17 23  1  0  0  0  0
 18 25  1  0  0  0  0
 18 26  1  0  0  0  0
 19 21  1  0  0  0  0
 19 36  1  0  0  0  0
 20 23  1  0  0  0  0
 21 22  2  0  0  0  0
 22 27  1  0  0  0  0
 23 24  1  0  0  0  0
 23 33  1  0  0  0  0
 24 26  1  0  0  0  0
 26 28  2  0  0  0  0
 27 35  2  0  0  0  0
 27 39  1  0  0  0  0
 28 29  1  0  0  0  0
 28 32  1  0  0  0  0
 29 38  1  0  0  0  0
 31 34  1  0  0  0  0
 31 37  2  0  0  0  0
 35 36  1  0  0  0  0
 36 38  1  0  0  0  0
 39 40  1  0  0  0  0
 39 41  2  0  0  0  0
 40 42  1  0  0  0  0
 40 43  2  0  0  0  0
 41 44  1  0  0  0  0
 41 45  1  0  0  0  0
 43 47  1  0  0  0  0
 45 46  1  0  0  0  0
 45 47  2  0  0  0  0
M  END
$$$$

 OpenBabel10082411353D

 47 57  0  0  0  0  0  0  0  0999 V2000
    8.0806    9.0240  -12.7589 C   0  0  0  0  0  0  0  0  0  0  0  0
    8.6514    7.8645  -12.2948 C   0  0  0  0  0  0  0  0  0  0  0  0
    9.9575    7.9974  -11.8426 C   0  0  0  0  0  0  0  0  0  0  0  0
   10.7657    6.8667  -11.6050 C   0  0  1  0  0  0  0  0  0  0  0  0
   10.7682    5.9590  -12.8271 C   0  0  0  0  0  0  0  0  0  0  0  0
   12.1553    7.3846  -11.2315 C   0  0  0  0  0  0  0  0  0  0  0  0
    8.0676    6.6451  -12.2974 C   0  0  0  0  0  0  0  0  0  0  0  0
   10.1892    6.1240  -10.3860 C   0  0  0  0  0  0  0  0  0  0  0  0
   11.8375    5.4373  -13.3240 O   0  0  0  0  0  0  0  0  0  0  0  0
    8.6785    5.4761  -13.0273 C   0  0  1  0  0  0  0  0  0  0  0  0
    9.1969    5.2405  -10.4969 C   0  0  2  0  0  0  0  0  0  0  0  0
    7.2213    6.2210  -11.3074 C   0  0  2  0  0  0  0  0  0  0  0  0
   12.5590    7.6872   -9.9896 C   0  0  0  0  0  0  0  0  0  0  0  0
    9.7633    5.0333  -12.9720 C   0  0  1  0  0  0  0  0  0  0  0  0
   10.0661    4.0167  -14.0373 N   0  0  0  0  0  0  0  0  0  0  0  0
   13.6906    8.3004   -9.6233 O   0  0  0  0  0  0  0  0  0  0  0  0
    7.6357    4.5123  -12.6317 C   0  0  2  0  0  0  0  0  0  0  0  0
    6.8831    4.9171  -11.7031 C   0  0  2  0  0  0  0  0  0  0  0  0
   10.5937    6.6967   -9.1779 C   0  0  0  0  0  0  0  0  0  0  0  0
    9.5087    4.3263  -11.6925 C   0  0  2  0  0  0  0  0  0  0  0  0
   11.6359    7.4449   -8.9125 C   0  0  0  0  0  0  0  0  0  0  0  0
   11.9716    7.9159   -7.6200 C   0  0  0  0  0  0  0  0  0  0  0  0
    8.4648    3.6122  -12.2840 C   0  0  1  0  0  0  0  0  0  0  0  0
    7.9253    2.8004  -11.3926 C   0  0  0  0  0  0  0  0  0  0  0  0
    5.6047    4.5059  -11.7589 C   0  0  0  0  0  0  0  0  0  0  0  0
    7.6606    4.1297  -10.5699 C   0  0  0  0  0  0  0  0  0  0  0  0
   10.9559    7.6849   -6.6057 C   0  0  0  0  0  0  0  0  0  0  0  0
    8.0094    4.5092   -9.5664 C   0  0  0  0  0  0  0  0  0  0  0  0
    8.3033    4.0627   -8.4980 C   0  0  0  0  0  0  0  0  0  0  0  0
    6.3587    7.1012  -11.0392 O   0  0  0  0  0  0  0  0  0  0  0  0
   11.1885    8.2709   -5.2029 C   0  0  0  0  0  0  0  0  0  0  0  0
    8.1551    5.8688  -10.2415 C   0  0  0  0  0  0  0  0  0  0  0  0
    9.3562    2.8931  -13.4173 C   0  0  0  0  0  0  0  0  0  0  0  0
    9.4006    1.8057  -13.6789 O   0  0  0  0  0  0  0  0  0  0  0  0
   10.6448    3.9324  -15.2556 C   0  0  0  0  0  0  0  0  0  0  0  0
    9.9004    6.8953   -6.7235 C   0  0  0  0  0  0  0  0  0  0  0  0
    8.1584    4.7418   -7.5351 O   0  0  0  0  0  0  0  0  0  0  0  0
    8.5999    2.9050   -8.2804 O   0  0  0  0  0  0  0  0  0  0  0  0
   11.6420    7.3504   -4.2035 C   0  0  0  0  0  0  0  0  0  0  0  0
    9.6081    6.4128   -8.0398 C   0  0  1  0  0  0  0  0  0  0  0  0
    8.3828    5.9446   -7.9275 C   0  0  0  0  0  0  0  0  0  0  0  0
   11.1933    9.6919   -4.9542 C   0  0  0  0  0  0  0  0  0  0  0  0
   11.7827    5.9124   -4.4646 C   0  0  0  0  0  0  0  0  0  0  0  0
   10.7919   10.6366   -6.1001 C   0  0  0  0  0  0  0  0  0  0  0  0
   11.9226    7.9584   -2.9803 C   0  0  0  0  0  0  0  0  0  0  0  0
   11.9299    9.4961   -2.8150 C   0  0  0  0  0  0  0  0  0  0  0  0
   11.5667   10.2292   -3.8262 C   0  0  0  0  0  0  0  0  0  0  0  0
  1  2  1  0  0  0  0
  2  3  1  0  0  0  0
  2  7  2  0  0  0  0
  4  3  1  6  0  0  0
  4  5  1  0  0  0  0
  4  6  1  0  0  0  0
  4  8  1  0  0  0  0
  5  9  2  0  0  0  0
  6 13  1  0  0  0  0
  7 12  1  0  0  0  0
  8 11  1  0  0  0  0
  8 19  2  0  0  0  0
 10  7  1  1  0  0  0
 10 14  1  0  0  0  0
 10 17  1  0  0  0  0
 11 20  1  0  0  0  0
 11 32  1  6  0  0  0
 12 18  1  0  0  0  0
 12 30  1  6  0  0  0
 13 16  2  0  0  0  0
 13 21  1  0  0  0  0
 14  5  1  1  0  0  0
 14 15  1  0  0  0  0
 14 20  1  0  0  0  0
 15 33  1  0  0  0  0
 15 35  1  0  0  0  0
 17 18  1  0  0  0  0
 17 23  1  0  0  0  0
 18 25  1  0  0  0  0
 18 26  1  0  0  0  0
 19 21  1  0  0  0  0
 19 40  1  0  0  0  0
 20 23  1  0  0  0  0
 21 22  2  0  0  0  0
 22 27  1  0  0  0  0
 23 24  1  0  0  0  0
 23 33  1  0  0  0  0
 24 26  1  0  0  0  0
 26 28  2  0  0  0  0
 27 31  1  0  0  0  0
 27 36  2  0  0  0  0
 28 29  1  0  0  0  0
 28 32  1  0  0  0  0
 29 37  1  0  0  0  0
 29 38  2  0  0  0  0
 31 39  1  0  0  0  0
 31 42  2  0  0  0  0
 33 34  2  0  0  0  0
 36 40  1  0  0  0  0
 37 41  1  0  0  0  0
 39 43  1  0  0  0  0
 39 45  2  0  0  0  0
 40 41  1  0  0  0  0
 42 44  1  0  0  0  0
 42 47  1  0  0  0  0
 45 46  1  0  0  0  0
 46 47  2  0  0  0  0
M  END
$$$$

 OpenBabel10082411353D

 47 59  0  0  0  0  0  0  0  0999 V2000
    8.0806    9.0240  -12.7589 C   0  0  0  0  0  0  0  0  0  0  0  0
    8.6514    7.8645  -12.2948 C   0  0  0  0  0  0  0  0  0  0  0  0
    9.9575    7.9974  -11.8426 C   0  0  0  0  0  0  0  0  0  0  0  0
   10.7657    6.8667  -11.6050 C   0  0  1  0  0  0  0  0  0  0  0  0
   10.7682    5.9590  -12.8271 C   0  0  0  0  0  0  0  0  0  0  0  0
   12.1553    7.3846  -11.2315 C   0  0  0  0  0  0  0  0  0  0  0  0
    8.0676    6.6451  -12.2974 C   0  0  0  0  0  0  0  0  0  0  0  0
   10.1892    6.1240  -10.3860 C   0  0  0  0  0  0  0  0  0  0  0  0
   11.8375    5.4373  -13.3240 O   0  0  0  0  0  0  0  0  0  0  0  0
    8.6785    5.4761  -13.0273 C   0  0  1  0  0  0  0  0  0  0  0  0
    9.1969    5.2405  -10.4969 C   0  0  2  0  0  0  0  0  0  0  0  0
    7.2213    6.2210  -11.3074 C   0  0  2  0  0  0  0  0  0  0  0  0
   12.5590    7.6872   -9.9896 C   0  0  0  0  0  0  0  0  0  0  0  0
    9.7633    5.0333  -12.9720 C   0  0  1  0  0  0  0  0  0  0  0  0
   10.0661    4.0167  -14.0373 N   0  0  0  0  0  0  0  0  0  0  0  0
   13.6906    8.3004   -9.6233 O   0  0  0  0  0  0  0  0  0  0  0  0
    7.6357    4.5123  -12.6317 C   0  0  2  0  0  0  0  0  0  0  0  0
    6.8831    4.9171  -11.7031 C   0  0  2  0  0  0  0  0  0  0  0  0
   10.5937    6.6967   -9.1779 C   0  0  0  0  0  0  0  0  0  0  0  0
    9.5087    4.3263  -11.6925 C   0  0  2  0  0  0  0  0  0  0  0  0
   11.6359    7.4449   -8.9125 C   0  0  0  0  0  0  0  0  0  0  0  0
   11.9716    7.9159   -7.6200 C   0  0  0  0  0  0  0  0  0  0  0  0
    8.4648    3.6122  -12.2840 C   0  0  1  0  0  0  0  0  0  0  0  0
    7.9253    2.8004  -11.3926 C   0  0  2  0  0  0  0  0  0  0  0  0
    5.6047    4.5059  -11.7589 C   0  0  0  0  0  0  0  0  0  0  0  0
    7.6606    4.1297  -10.5699 C   0  0  0  0  0  0  0  0  0  0  0  0
   10.9559    7.6849   -6.6057 C   0  0  0  0  0  0  0  0  0  0  0  0
    8.0094    4.5092   -9.5664 C   0  0  0  0  0  0  0  0  0  0  0  0
    8.3033    4.0627   -8.4980 C   0  0  0  0  0  0  0  0  0  0  0  0
    6.3587    7.1012  -11.0392 O   0  0  0  0  0  0  0  0  0  0  0  0
   11.0186    3.9598  -14.9226 C   0  0  0  0  0  0  0  0  0  0  0  0
    8.1758    5.8633  -10.2511 C   0  0  1  0  0  0  0  0  0  0  0  0
   11.4648    2.7104  -15.2650 O   0  0  0  0  0  0  0  0  0  0  0  0
    9.9512    6.8220   -6.8436 C   0  0  0  0  0  0  0  0  0  0  0  0
    9.6899    6.3705   -8.1082 C   0  0  2  0  0  0  0  0  0  0  0  0
    9.1306    2.9610  -13.9685 C   0  0  0  0  0  0  0  0  0  0  0  0
    8.8414    5.0113   -7.7726 C   0  0  0  0  0  0  0  0  0  0  0  0
   11.6944    4.9031  -15.4200 O   0  0  0  0  0  0  0  0  0  0  0  0
   11.2282    8.3639   -5.2721 C   0  0  0  0  0  0  0  0  0  0  0  0
    8.7016    2.4223  -12.9165 C   0  0  1  0  0  0  0  0  0  0  0  0
   11.9286    7.6722   -4.3404 C   0  0  0  0  0  0  0  0  0  0  0  0
   10.7972    9.7001   -4.9421 C   0  0  0  0  0  0  0  0  0  0  0  0
   12.3405    6.1168   -4.5669 C   0  0  0  0  0  0  0  0  0  0  0  0
   12.1061    8.0320   -3.2680 C   0  0  0  0  0  0  0  0  0  0  0  0
   11.7635    9.5711   -2.8243 C   0  0  0  0  0  0  0  0  0  0  0  0
   10.2285   10.5041   -6.0136 F   0  0  0  0  0  0  0  0  0  0  0  0
   11.2090   10.2406   -3.8127 C   0  0  0  0  0  0  0  0  0  0  0  0
  1  2  1  0  0  0  0
  2  3  1  0  0  0  0
  2  7  2  0  0  0  0
  4  3  1  6  0  0  0
  4  5  1  0  0  0  0
  4  6  1  0  0  0  0
  4  8  1  0  0  0  0
  5  9  2  0  0  0  0
  6 13  1  0  0  0  0
  7 12  1  0  0  0  0
  8 19  2  0  0  0  0
 10  7  1  1  0  0  0
 10 14  1  0  0  0  0
 10 17  1  0  0  0  0
 11  8  1  6  0  0  0
 11 20  1  0  0  0  0
 11 32  1  0  0  0  0
 12 18  1  0  0  0  0
 12 30  1  1  0  0  0
 12 32  1  0  0  0  0
 13 16  2  0  0  0  0
 13 21  1  0  0  0  0
 14  5  1  1  0  0  0
 14 15  1  0  0  0  0
 14 20  1  0  0  0  0
 15 31  1  0  0  0  0
 15 36  1  0  0  0  0
 17 18  1  0  0  0  0
 17 23  1  0  0  0  0
 18 25  1  0  0  0  0
 18 26  1  0  0  0  0
 19 21  1  0  0  0  0
 19 35  1  0  0  0  0
 20 23  1  0  0  0  0
 21 22  2  0  0  0  0
 22 27  1  0  0  0  0
 23 24  1  0  0  0  0
 23 40  1  0  0  0  0
 24 26  1  0  0  0  0
 24 40  1  0  0  0  0
 26 28  2  0  0  0  0
 27 34  2  0  0  0  0
 27 39  1  0  0  0  0
 28 29  1  0  0  0  0
 28 32  1  0  0  0  0
 29 37  2  0  0  0  0
 31 33  2  0  0  0  0
 31 38  1  0  0  0  0
 34 35  1  0  0  0  0
 35 37  1  0  0  0  0
 36 40  1  0  0  0  0
 39 41  1  0  0  0  0
 39 42  2  0  0  0  0
 41 43  1  0  0  0  0
 41 44  2  0  0  0  0
 42 46  1  0  0  0  0
 42 47  1  0  0  0  0
 44 45  1  0  0  0  0
 45 47  2  0  0  0  0
M  END
$$$$

 OpenBabel10082411353D

 47 59  0  0  0  0  0  0  0  0999 V2000
    8.0806    9.0240  -12.7589 C   0  0  0  0  0  0  0  0  0  0  0  0
    8.6514    7.8645  -12.2948 C   0  0  0  0  0  0  0  0  0  0  0  0
    9.9575    7.9974  -11.8426 C   0  0  0  0  0  0  0  0  0  0  0  0
   10.7657    6.8667  -11.6050 C   0  0  1  0  0  0  0  0  0  0  0  0
   10.7682    5.9590  -12.8271 C   0  0  0  0  0  0  0  0  0  0  0  0
   12.1553    7.3846  -11.2315 C   0  0  0  0  0  0  0  0  0  0  0  0
    8.0676    6.6451  -12.2974 C   0  0  0  0  0  0  0  0  0  0  0  0
   10.1892    6.1240  -10.3860 C   0  0  0  0  0  0  0  0  0  0  0  0
   11.8375    5.4373  -13.3240 O   0  0  0  0  0  0  0  0  0  0  0  0
    8.6785    5.4761  -13.0273 C   0  0  1  0  0  0  0  0  0  0  0  0
    9.1969    5.2405  -10.4969 C   0  0  2  0  0  0  0  0  0  0  0  0
    7.2213    6.2210  -11.3074 C   0  0  2  0  0  0  0  0  0  0  0  0
   12.5590    7.6872   -9.9896 C   0  0  0  0  0  0  0  0  0  0  0  0
    9.7633    5.0333  -12.9720 C   0  0  1  0  0  0  0  0  0  0  0  0
   10.0661    4.0167  -14.0373 N   0  0  0  0  0  0  0  0  0  0  0  0
   13.6906    8.3004   -9.6233 O   0  0  0  0  0  0  0  0  0  0  0  0
    7.6357    4.5123  -12.6317 C   0  0  2  0  0  0  0  0  0  0  0  0
    6.8831    4.9171  -11.7031 C   0  0  2  0  0  0  0  0  0  0  0  0
   10.5937    6.6967   -9.1779 C   0  0  0  0  0  0  0  0  0  0  0  0
    9.5087    4.3263  -11.6925 C   0  0  2  0  0  0  0  0  0  0  0  0
   11.6359    7.4449   -8.9125 C   0  0  0  0  0  0  0  0  0  0  0  0
   11.9716    7.9159   -7.6200 C   0  0  0  0  0  0  0  0  0  0  0  0
    8.4648    3.6122  -12.2840 C   0  0  1  0  0  0  0  0  0  0  0  0
    7.9253    2.8004  -11.3926 C   0  0  2  0  0  0  0  0  0  0  0  0
    5.6047    4.5059  -11.7589 C   0  0  0  0  0  0  0  0  0  0  0  0
    7.6606    4.1297  -10.5699 C   0  0  0  0  0  0  0  0  0  0  0  0
   10.9559    7.6849   -6.6057 C   0  0  0  0  0  0  0  0  0  0  0  0
    8.0094    4.5092   -9.5664 C   0  0  0  0  0  0  0  0  0  0  0  0
    8.3033    4.0627   -8.4980 C   0  0  0  0  0  0  0  0  0  0  0  0
    6.3587    7.1012  -11.0392 O   0  0  0  0  0  0  0  0  0  0  0  0
   11.0186    3.9598  -14.9226 C   0  0  0  0  0  0  0  0  0  0  0  0
    8.1758    5.8633  -10.2511 C   0  0  1  0  0  0  0  0  0  0  0  0
   11.4648    2.7104  -15.2650 O   0  0  0  0  0  0  0  0  0  0  0  0
    9.9512    6.8220   -6.8436 C   0  0  0  0  0  0  0  0  0  0  0  0
    9.6899    6.3705   -8.1082 C   0  0  2  0  0  0  0  0  0  0  0  0
    9.1306    2.9610  -13.9685 C   0  0  0  0  0  0  0  0  0  0  0  0
    8.8414    5.0113   -7.7726 C   0  0  0  0  0  0  0  0  0  0  0  0
   11.6944    4.9031  -15.4200 O   0  0  0  0  0  0  0  0  0  0  0  0
   11.2282    8.3639   -5.2721 C   0  0  0  0  0  0  0  0  0  0  0  0
   11.7377    9.7620   -5.2848 C   0  0  0  0  0  0  0  0  0  0  0  0
    8.7016    2.4230  -12.9159 C   0  0  1  0  0  0  0  0  0  0  0  0
   11.3537    7.7273   -4.0820 C   0  0  0  0  0  0  0  0  0  0  0  0
   11.5918   10.6348   -6.5192 C   0  0  0  0  0  0  0  0  0  0  0  0
   12.0352   10.3211   -4.0625 C   0  0  0  0  0  0  0  0  0  0  0  0
   12.0409    9.3077   -2.8817 C   0  0  0  0  0  0  0  0  0  0  0  0
   10.9683    6.1273   -4.2142 C   0  0  0  0  0  0  0  0  0  0  0  0
   11.7612    8.1942   -3.0790 C   0  0  0  0  0  0  0  0  0  0  0  0
  1  2  1  0  0  0  0
  2  3  1  0  0  0  0
  2  7  2  0  0  0  0
  4  3  1  6  0  0  0
  4  5  1  0  0  0  0
  4  6  1  0  0  0  0
  4  8  1  0  0  0  0
  5  9  2  0  0  0  0
  6 13  1  0  0  0  0
  7 12  1  0  0  0  0
  8 19  2  0  0  0  0
 10  7  1  1  0  0  0
 10 14  1  0  0  0  0
 10 17  1  0  0  0  0
 11  8  1  6  0  0  0
 11 20  1  0  0  0  0
 11 32  1  0  0  0  0
 12 18  1  0  0  0  0
 12 30  1  1  0  0  0
 12 32  1  0  0  0  0
 13 16  2  0  0  0  0
 13 21  1  0  0  0  0
 14  5  1  1  0  0  0
 14 15  1  0  0  0  0
 14 20  1  0  0  0  0
 15 31  1  0  0  0  0
 15 36  1  0  0  0  0
 17 18  1  0  0  0  0
 17 23  1  0  0  0  0
 18 25  1  0  0  0  0
 18 26  1  0  0  0  0
 19 21  1  0  0  0  0
 19 35  1  0  0  0  0
 20 23  1  0  0  0  0
 21 22  2  0  0  0  0
 22 27  1  0  0  0  0
 23 24  1  0  0  0  0
 23 41  1  0  0  0  0
 24 26  1  0  0  0  0
 24 41  1  0  0  0  0
 26 28  2  0  0  0  0
 27 34  2  0  0  0  0
 27 39  1  0  0  0  0
 28 29  1  0  0  0  0
 28 32  1  0  0  0  0
 29 37  2  0  0  0  0
 31 33  2  0  0  0  0
 31 38  1  0  0  0  0
 34 35  1  0  0  0  0
 35 37  1  0  0  0  0
 36 41  1  0  0  0  0
 39 40  1  0  0  0  0
 39 42  2  0  0  0  0
 40 43  1  0  0  0  0
 40 44  2  0  0  0  0
 42 46  1  0  0  0  0
 42 47  1  0  0  0  0
 44 45  1  0  0  0  0
 45 47  2  0  0  0  0
M  END
$$$$

 OpenBabel10082411353D

 47 57  0  0  0  0  0  0  0  0999 V2000
    8.0806    9.0240  -12.7589 C   0  0  0  0  0  0  0  0  0  0  0  0
    8.6514    7.8645  -12.2948 C   0  0  0  0  0  0  0  0  0  0  0  0
    9.9575    7.9974  -11.8426 C   0  0  0  0  0  0  0  0  0  0  0  0
   10.7657    6.8667  -11.6050 C   0  0  1  0  0  0  0  0  0  0  0  0
   10.7682    5.9590  -12.8271 C   0  0  0  0  0  0  0  0  0  0  0  0
   12.1553    7.3846  -11.2315 C   0  0  0  0  0  0  0  0  0  0  0  0
    8.0676    6.6451  -12.2974 C   0  0  0  0  0  0  0  0  0  0  0  0
   10.1892    6.1240  -10.3860 C   0  0  0  0  0  0  0  0  0  0  0  0
   11.8375    5.4373  -13.3240 O   0  0  0  0  0  0  0  0  0  0  0  0
    8.6785    5.4761  -13.0273 C   0  0  1  0  0  0  0  0  0  0  0  0
    9.1969    5.2405  -10.4969 C   0  0  2  0  0  0  0  0  0  0  0  0
    7.2213    6.2210  -11.3074 C   0  0  2  0  0  0  0  0  0  0  0  0
   12.5590    7.6872   -9.9896 C   0  0  0  0  0  0  0  0  0  0  0  0
    9.7633    5.0333  -12.9720 C   0  0  1  0  0  0  0  0  0  0  0  0
   10.0661    4.0167  -14.0373 N   0  0  0  0  0  0  0  0  0  0  0  0
   13.6906    8.3004   -9.6233 O   0  0  0  0  0  0  0  0  0  0  0  0
    7.6357    4.5123  -12.6317 C   0  0  2  0  0  0  0  0  0  0  0  0
    6.8831    4.9171  -11.7031 C   0  0  2  0  0  0  0  0  0  0  0  0
   10.5937    6.6967   -9.1779 C   0  0  0  0  0  0  0  0  0  0  0  0
    9.5087    4.3263  -11.6925 C   0  0  2  0  0  0  0  0  0  0  0  0
   11.6359    7.4449   -8.9125 C   0  0  0  0  0  0  0  0  0  0  0  0
   11.9716    7.9159   -7.6200 C   0  0  0  0  0  0  0  0  0  0  0  0
    8.4648    3.6122  -12.2840 C   0  0  1  0  0  0  0  0  0  0  0  0
    7.9253    2.8004  -11.3926 C   0  0  0  0  0  0  0  0  0  0  0  0
    5.6047    4.5059  -11.7589 C   0  0  0  0  0  0  0  0  0  0  0  0
    7.6606    4.1297  -10.5699 C   0  0  0  0  0  0  0  0  0  0  0  0
   10.9559    7.6849   -6.6057 C   0  0  0  0  0  0  0  0  0  0  0  0
    8.0094    4.5092   -9.5664 C   0  0  0  0  0  0  0  0  0  0  0  0
    8.3033    4.0627   -8.4980 C   0  0  0  0  0  0  0  0  0  0  0  0
    6.3587    7.1012  -11.0392 O   0  0  0  0  0  0  0  0  0  0  0  0
   11.1885    8.2709   -5.2029 C   0  0  0  0  0  0  0  0  0  0  0  0
    8.1551    5.8688  -10.2415 C   0  0  0  0  0  0  0  0  0  0  0  0
    9.3562    2.8931  -13.4173 C   0  0  0  0  0  0  0  0  0  0  0  0
    9.4006    1.8057  -13.6789 O   0  0  0  0  0  0  0  0  0  0  0  0
   10.6448    3.9324  -15.2556 C   0  0  0  0  0  0  0  0  0  0  0  0
    9.9004    6.8953   -6.7235 C   0  0  0  0  0  0  0  0  0  0  0  0
    8.1584    4.7418   -7.5351 O   0  0  0  0  0  0  0  0  0  0  0  0
    8.5999    2.9050   -8.2804 O   0  0  0  0  0  0  0  0  0  0  0  0
   11.6420    7.3504   -4.2035 C   0  0  0  0  0  0  0  0  0  0  0  0
    9.6081    6.4128   -8.0398 C   0  0  1  0  0  0  0  0  0  0  0  0
    8.3828    5.9446   -7.9275 C   0  0  0  0  0  0  0  0  0  0  0  0
   11.1933    9.6919   -4.9542 C   0  0  0  0  0  0  0  0  0  0  0  0
   10.7525   10.6554   -6.1095 F   0  0  0  0  0  0  0  0  0  0  0  0
   12.0138    7.8751   -3.0370 C   0  0  0  0  0  0  0  0  0  0  0  0
   12.4268    6.9600   -1.9203 C   0  0  0  0  0  0  0  0  0  0  0  0
   11.9985    9.3183   -2.7747 C   0  0  0  0  0  0  0  0  0  0  0  0
   11.6556   10.1721   -3.6691 C   0  0  0  0  0  0  0  0  0  0  0  0
  1  2  1  0  0  0  0
  2  3  1  0  0  0  0
  2  7  2  0  0  0  0
  4  3  1  6  0  0  0
  4  5  1  0  0  0  0
  4  6  1  0  0  0  0
  4  8  1  0  0  0  0
  5  9  2  0  0  0  0
  6 13  1  0  0  0  0
  7 12  1  0  0  0  0
  8 11  1  0  0  0  0
  8 19  2  0  0  0  0
 10  7  1  1  0  0  0
 10 14  1  0  0  0  0
 10 17  1  0  0  0  0
 11 20  1  0  0  0  0
 11 32  1  6  0  0  0
 12 18  1  0  0  0  0
 12 30  1  6  0  0  0
 13 16  2  0  0  0  0
 13 21  1  0  0  0  0
 14  5  1  1  0  0  0
 14 15  1  0  0  0  0
 14 20  1  0  0  0  0
 15 33  1  0  0  0  0
 15 35  1  0  0  0  0
 17 18  1  0  0  0  0
 17 23  1  0  0  0  0
 18 25  1  0  0  0  0
 18 26  1  0  0  0  0
 19 21  1  0  0  0  0
 19 40  1  0  0  0  0
 20 23  1  0  0  0  0
 21 22  2  0  0  0  0
 22 27  1  0  0  0  0
 23 24  1  0  0  0  0
 23 33  1  0  0  0  0
 24 26  1  0  0  0  0
 26 28  2  0  0  0  0
 27 31  1  0  0  0  0
 27 36  2  0  0  0  0
 28 29  1  0  0  0  0
 28 32  1  0  0  0  0
 29 37  1  0  0  0  0
 29 38  2  0  0  0  0
 31 39  1  0  0  0  0
 31 42  2  0  0  0  0
 33 34  2  0  0  0  0
 36 40  1  0  0  0  0
 37 41  1  0  0  0  0
 39 44  2  0  0  0  0
 40 41  1  0  0  0  0
 42 43  1  0  0  0  0
 42 47  1  0  0  0  0
 44 45  1  0  0  0  0
 44 46  1  0  0  0  0
 46 47  2  0  0  0  0
M  END
$$$$

 OpenBabel10082411353D

 47 59  0  0  0  0  0  0  0  0999 V2000
    8.0806    9.0240  -12.7589 C   0  0  0  0  0  0  0  0  0  0  0  0
    8.6514    7.8645  -12.2948 C   0  0  0  0  0  0  0  0  0  0  0  0
    9.9575    7.9974  -11.8426 C   0  0  0  0  0  0  0  0  0  0  0  0
   10.7657    6.8667  -11.6050 C   0  0  1  0  0  0  0  0  0  0  0  0
   10.7682    5.9590  -12.8271 C   0  0  0  0  0  0  0  0  0  0  0  0
   12.1553    7.3846  -11.2315 C   0  0  0  0  0  0  0  0  0  0  0  0
    8.0676    6.6451  -12.2974 C   0  0  0  0  0  0  0  0  0  0  0  0
   10.1892    6.1240  -10.3860 C   0  0  0  0  0  0  0  0  0  0  0  0
   11.8375    5.4373  -13.3240 O   0  0  0  0  0  0  0  0  0  0  0  0
    8.6785    5.4761  -13.0273 C   0  0  1  0  0  0  0  0  0  0  0  0
    9.1969    5.2405  -10.4969 C   0  0  2  0  0  0  0  0  0  0  0  0
    7.2213    6.2210  -11.3074 C   0  0  2  0  0  0  0  0  0  0  0  0
   12.5590    7.6872   -9.9896 C   0  0  0  0  0  0  0  0  0  0  0  0
    9.7633    5.0333  -12.9720 C   0  0  1  0  0  0  0  0  0  0  0  0
   10.0661    4.0167  -14.0373 N   0  0  0  0  0  0  0  0  0  0  0  0
   13.6906    8.3004   -9.6233 O   0  0  0  0  0  0  0  0  0  0  0  0
    7.6357    4.5123  -12.6317 C   0  0  2  0  0  0  0  0  0  0  0  0
    6.8831    4.9171  -11.7031 C   0  0  2  0  0  0  0  0  0  0  0  0
   10.5937    6.6967   -9.1779 C   0  0  0  0  0  0  0  0  0  0  0  0
    9.5087    4.3263  -11.6925 C   0  0  2  0  0  0  0  0  0  0  0  0
   11.6359    7.4449   -8.9125 C   0  0  0  0  0  0  0  0  0  0  0  0
   11.9716    7.9159   -7.6200 C   0  0  0  0  0  0  0  0  0  0  0  0
    8.4648    3.6122  -12.2840 C   0  0  1  0  0  0  0  0  0  0  0  0
    7.9253    2.8004  -11.3926 C   0  0  0  0  0  0  0  0  0  0  0  0
    5.6047    4.5059  -11.7589 C   0  0  0  0  0  0  0  0  0  0  0  0
    7.6606    4.1297  -10.5699 C   0  0  0  0  0  0  0  0  0  0  0  0
   10.9559    7.6849   -6.6057 C   0  0  0  0  0  0  0  0  0  0  0  0
    8.0094    4.5092   -9.5664 C   0  0  0  0  0  0  0  0  0  0  0  0
    8.3033    4.0627   -8.4980 C   0  0  0  0  0  0  0  0  0  0  0  0
    6.3587    7.1012  -11.0392 O   0  0  0  0  0  0  0  0  0  0  0  0
   11.1885    8.2709   -5.2029 C   0  0  0  0  0  0  0  0  0  0  0  0
    8.1551    5.8688  -10.2415 C   0  0  1  0  0  0  0  0  0  0  0  0
    9.3562    2.8931  -13.4173 C   0  0  0  0  0  0  0  0  0  0  0  0
    9.4006    1.8057  -13.6789 O   0  0  0  0  0  0  0  0  0  0  0  0
   10.6448    3.9324  -15.2556 C   0  0  0  0  0  0  0  0  0  0  0  0
    9.9004    6.8953   -6.7235 C   0  0  0  0  0  0  0  0  0  0  0  0
    8.1584    4.7418   -7.5351 O   0  0  0  0  0  0  0  0  0  0  0  0
    8.5999    2.9050   -8.2804 O   0  0  0  0  0  0  0  0  0  0  0  0
   11.6420    7.3504   -4.2035 C   0  0  0  0  0  0  0  0  0  0  0  0
    9.6081    6.4128   -8.0398 C   0  0  2  0  0  0  0  0  0  0  0  0
    8.3828    5.9446   -7.9275 C   0  0  1  0  0  0  0  0  0  0  0  0
   11.1933    9.6919   -4.9542 C   0  0  0  0  0  0  0  0  0  0  0  0
   10.7525   10.6554   -6.1095 F   0  0  0  0  0  0  0  0  0  0  0  0
   11.4280   10.2615   -3.7601 C   0  0  0  0  0  0  0  0  0  0  0  0
   11.8049    9.4083   -2.7313 C   0  0  0  0  0  0  0  0  0  0  0  0
   11.9279    7.8735   -2.8976 C   0  0  0  0  0  0  0  0  0  0  0  0
    8.7237    6.3135   -9.0876 C   0  0  2  0  0  0  0  0  0  0  0  0
  1  2  1  0  0  0  0
  2  3  1  0  0  0  0
  2  7  2  0  0  0  0
  4  3  1  6  0  0  0
  4  5  1  0  0  0  0
  4  6  1  0  0  0  0
  4  8  1  0  0  0  0
  5  9  2  0  0  0  0
  6 13  1  0  0  0  0
  7 12  1  0  0  0  0
  8 19  2  0  0  0  0
 10  7  1  1  0  0  0
 10 14  1  0  0  0  0
 10 17  1  0  0  0  0
 11  8  1  6  0  0  0
 11 20  1  0  0  0  0
 11 32  1  0  0  0  0
 12 18  1  0  0  0  0
 12 30  1  6  0  0  0
 13 16  2  0  0  0  0
 13 21  1  0  0  0  0
 14  5  1  1  0  0  0
 14 15  1  0  0  0  0
 14 20  1  0  0  0  0
 15 33  1  0  0  0  0
 15 35  1  0  0  0  0
 17 18  1  0  0  0  0
 17 23  1  0  0  0  0
 18 25  1  0  0  0  0
 18 26  1  0  0  0  0
 19 21  1  0  0  0  0
 19 40  1  0  0  0  0
 20 23  1  0  0  0  0
 21 22  2  0  0  0  0
 22 27  1  0  0  0  0
 23 24  1  0  0  0  0
 23 33  1  0  0  0  0
 24 26  1  0  0  0  0
 26 28  2  0  0  0  0
 27 31  1  0  0  0  0
 27 36  2  0  0  0  0
 28 29  1  0  0  0  0
 28 32  1  0  0  0  0
 29 37  1  0  0  0  0
 29 38  2  0  0  0  0
 31 39  1  0  0  0  0
 31 42  2  0  0  0  0
 32 47  1  0  0  0  0
 33 34  2  0  0  0  0
 36 40  1  0  0  0  0
 37 41  1  0  0  0  0
 39 46  2  0  0  0  0
 40 41  1  0  0  0  0
 40 47  1  0  0  0  0
 41 47  1  0  0  0  0
 42 43  1  0  0  0  0
 42 44  1  0  0  0  0
 44 45  2  0  0  0  0
 45 46  1  0  0  0  0
M  END
$$$$

 OpenBabel10082411353D

 27 30  0  0  0  0  0  0  0  0999 V2000
   11.9925    6.6083   -4.7728 C   0  0  0  0  0  0  0  0  0  0  0  0
   11.4477    7.7141   -5.2577 C   0  0  0  0  0  0  0  0  0  0  0  0
   12.2896    6.5964   -3.2881 C   0  0  0  0  0  0  0  0  0  0  0  0
   11.4087    8.9270   -4.5689 C   0  0  0  0  0  0  0  0  0  0  0  0
   11.0700    7.6482   -6.7180 C   0  0  1  0  0  0  0  0  0  0  0  0
   11.9031    8.9562   -3.1377 C   0  0  0  0  0  0  0  0  0  0  0  0
   12.3774    7.8477   -2.5217 C   0  0  0  0  0  0  0  0  0  0  0  0
   10.4761    6.5776   -7.2169 C   0  0  0  0  0  0  0  0  0  0  0  0
   10.6681    8.9492   -7.1472 C   0  0  0  0  0  0  0  0  0  0  0  0
   10.1085    6.6234   -8.6282 C   0  0  0  0  0  0  0  0  0  0  0  0
   10.4500    9.0125   -8.6924 C   0  0  0  0  0  0  0  0  0  0  0  0
    9.6601    7.9334   -9.1481 N   0  0  0  0  0  0  0  0  0  0  0  0
    9.4452    7.9310  -10.5569 C   0  0  0  0  0  0  0  0  0  0  0  0
    9.6484    6.9783  -11.2444 C   0  0  0  0  0  0  0  0  0  0  0  0
    9.2204    9.1620  -11.1118 O   0  0  0  0  0  0  0  0  0  0  0  0
   10.5657    6.7658  -12.1141 C   0  0  0  0  0  0  0  0  0  0  0  0
   10.7064    5.5554  -13.0017 C   0  0  0  0  0  0  0  0  0  0  0  0
    9.6996    4.5994  -12.9126 C   0  0  0  0  0  0  0  0  0  0  0  0
   11.7328    5.3294  -13.9320 C   0  0  2  0  0  0  0  0  0  0  0  0
    8.5764    5.9747  -11.2233 C   0  0  0  0  0  0  0  0  0  0  0  0
    8.6480    4.8586  -11.9452 C   0  0  0  0  0  0  0  0  0  0  0  0
    9.7241    3.4223  -13.5777 C   0  0  0  0  0  0  0  0  0  0  0  0
    8.7727    2.5318  -13.5749 O   0  0  0  0  0  0  0  0  0  0  0  0
   10.8423    3.2580  -14.4815 N   0  0  0  0  0  0  0  0  0  0  0  0
   11.6889    4.1295  -14.6209 C   0  0  0  0  0  0  0  0  0  0  0  0
   12.7377    6.2891  -14.1181 C   0  0  0  0  0  0  0  0  0  0  0  0
   12.3074    7.6898  -14.1525 C   0  0  0  0  0  0  0  0  0  0  0  0
  1  2  1  0  0  0  0
  1  3  2  0  0  0  0
  2  4  2  0  0  0  0
  3  7  1  0  0  0  0
  4  6  1  0  0  0  0
  5  2  1  1  0  0  0
  5  8  1  0  0  0  0
  5  9  1  0  0  0  0
  6  7  2  0  0  0  0
  8 10  1  0  0  0  0
  9 11  1  0  0  0  0
 10 12  1  0  0  0  0
 11 12  1  0  0  0  0
 12 13  1  0  0  0  0
 13 14  1  0  0  0  0
 13 15  2  0  0  0  0
 14 16  2  0  0  0  0
 14 20  1  0  0  0  0
 16 17  1  0  0  0  0
 17 18  2  0  0  0  0
 17 19  1  0  0  0  0
 18 21  1  0  0  0  0
 18 22  1  0  0  0  0
 19 25  1  0  0  0  0
 19 26  1  1  0  0  0
 20 21  2  0  0  0  0
 22 23  2  0  0  0  0
 22 24  1  0  0  0  0
 24 25  2  0  0  0  0
 26 27  1  0  0  0  0
M  END
$$$$

 OpenBabel10082411353D

 14 15  0  0  0  0  0  0  0  0999 V2000
   12.7863    7.8241  -14.2109 C   0  0  0  0  0  0  0  0  0  0  0  0
   12.4233    7.7158  -13.0289 C   0  0  0  0  0  0  0  0  0  0  0  0
   12.4433    6.9162  -15.2300 C   0  0  0  0  0  0  0  0  0  0  0  0
   11.8059    5.7673  -14.8411 C   0  0  0  0  0  0  0  0  0  0  0  0
   11.4625    5.5889  -13.5188 C   0  0  0  0  0  0  0  0  0  0  0  0
   10.6775    4.3679  -13.2132 C   0  0  0  0  0  0  0  0  0  0  0  0
    9.5420    4.5738  -12.4652 N   0  0  0  0  0  0  0  0  0  0  0  0
   10.7236    3.2061  -13.8321 C   0  0  0  0  0  0  0  0  0  0  0  0
    8.9628    3.3865  -12.4719 N   0  0  0  0  0  0  0  0  0  0  0  0
    9.5983    2.5873  -13.3082 N   0  0  0  0  0  0  0  0  0  0  0  0
   11.6849    6.6461  -12.5829 C   0  0  0  0  0  0  0  0  0  0  0  0
    7.7579    3.0990  -11.7382 C   0  0  0  0  0  0  0  0  0  0  0  0
    6.4985    3.1837  -12.5894 C   0  0  0  0  0  0  0  0  0  0  0  0
    6.1028    4.5967  -12.5545 C   0  0  0  0  0  0  0  0  0  0  0  0
  1  2  1  0  0  0  0
  1  3  2  0  0  0  0
  2 11  2  0  0  0  0
  3  4  1  0  0  0  0
  4  5  2  0  0  0  0
  5  6  1  0  0  0  0
  5 11  1  0  0  0  0
  6  7  2  0  0  0  0
  6  8  1  0  0  0  0
  7  9  1  0  0  0  0
  8 10  2  0  0  0  0
  9 10  1  0  0  0  0
  9 12  1  0  0  0  0
 12 13  1  0  0  0  0
 13 14  1  0  0  0  0
M  END
$$$$

 OpenBabel10082411353D

 47 59  0  0  0  0  0  0  0  0999 V2000
    8.0806    9.0240  -12.7589 C   0  0  0  0  0  0  0  0  0  0  0  0
    8.6514    7.8645  -12.2948 C   0  0  0  0  0  0  0  0  0  0  0  0
    9.9575    7.9974  -11.8426 C   0  0  0  0  0  0  0  0  0  0  0  0
   10.7657    6.8667  -11.6050 C   0  0  1  0  0  0  0  0  0  0  0  0
   10.7682    5.9590  -12.8271 C   0  0  0  0  0  0  0  0  0  0  0  0
   12.1553    7.3846  -11.2315 C   0  0  0  0  0  0  0  0  0  0  0  0
    8.0676    6.6451  -12.2974 C   0  0  0  0  0  0  0  0  0  0  0  0
   10.1892    6.1240  -10.3860 C   0  0  0  0  0  0  0  0  0  0  0  0
   11.8375    5.4373  -13.3240 O   0  0  0  0  0  0  0  0  0  0  0  0
    8.6785    5.4761  -13.0273 C   0  0  1  0  0  0  0  0  0  0  0  0
    9.1969    5.2405  -10.4969 C   0  0  2  0  0  0  0  0  0  0  0  0
    7.2213    6.2210  -11.3074 C   0  0  2  0  0  0  0  0  0  0  0  0
   12.5590    7.6872   -9.9896 C   0  0  0  0  0  0  0  0  0  0  0  0
    9.7633    5.0333  -12.9720 C   0  0  1  0  0  0  0  0  0  0  0  0
   10.0661    4.0167  -14.0373 N   0  0  0  0  0  0  0  0  0  0  0  0
   13.6906    8.3004   -9.6233 O   0  0  0  0  0  0  0  0  0  0  0  0
    7.6357    4.5123  -12.6317 C   0  0  2  0  0  0  0  0  0  0  0  0
    6.8831    4.9171  -11.7031 C   0  0  2  0  0  0  0  0  0  0  0  0
   10.5937    6.6967   -9.1779 C   0  0  0  0  0  0  0  0  0  0  0  0
    9.5087    4.3263  -11.6925 C   0  0  2  0  0  0  0  0  0  0  0  0
   11.6359    7.4449   -8.9125 C   0  0  0  0  0  0  0  0  0  0  0  0
   11.9716    7.9159   -7.6200 C   0  0  0  0  0  0  0  0  0  0  0  0
    8.4648    3.6122  -12.2840 C   0  0  1  0  0  0  0  0  0  0  0  0
    7.9253    2.8004  -11.3926 C   0  0  0  0  0  0  0  0  0  0  0  0
    5.6047    4.5059  -11.7589 C   0  0  0  0  0  0  0  0  0  0  0  0
    7.6606    4.1297  -10.5699 C   0  0  0  0  0  0  0  0  0  0  0  0
   10.9559    7.6849   -6.6057 C   0  0  0  0  0  0  0  0  0  0  0  0
    8.0094    4.5092   -9.5664 C   0  0  0  0  0  0  0  0  0  0  0  0
    8.3033    4.0627   -8.4980 C   0  0  0  0  0  0  0  0  0  0  0  0
    6.3587    7.1012  -11.0392 O   0  0  0  0  0  0  0  0  0  0  0  0
   11.0186    3.9598  -14.9226 C   0  0  0  0  0  0  0  0  0  0  0  0
    8.1758    5.8633  -10.2511 C   0  0  1  0  0  0  0  0  0  0  0  0
   11.4648    2.7104  -15.2650 O   0  0  0  0  0  0  0  0  0  0  0  0
    9.9512    6.8220   -6.8436 C   0  0  0  0  0  0  0  0  0  0  0  0
    9.6899    6.3705   -8.1082 C   0  0  2  0  0  0  0  0  0  0  0  0
   11.2597    8.2901   -5.2396 C   0  0  0  0  0  0  0  0  0  0  0  0
   11.7295    4.9426  -15.4284 O   0  0  0  0  0  0  0  0  0  0  0  0
    9.2745    4.9481   -7.8103 C   0  0  0  0  0  0  0  0  0  0  0  0
    9.1757    2.9301  -13.7559 C   0  0  0  0  0  0  0  0  0  0  0  0
   11.9187    7.5856   -4.3294 C   0  0  0  0  0  0  0  0  0  0  0  0
   11.7781    6.4587   -4.0864 C   0  0  0  0  0  0  0  0  0  0  0  0
   10.9546    9.6992   -5.1271 C   0  0  0  0  0  0  0  0  0  0  0  0
   12.7574    8.4431   -3.4035 C   0  0  2  0  0  0  0  0  0  0  0  0
   13.3571    7.7115   -2.3579 C   0  0  0  0  0  0  0  0  0  0  0  0
   12.0915    9.6102   -3.0680 C   0  0  0  0  0  0  0  0  0  0  0  0
   11.3835   10.3358   -3.9962 C   0  0  0  0  0  0  0  0  0  0  0  0
   12.6143    6.0796   -2.8074 C   0  0  0  0  0  0  0  0  0  0  0  0
  1  2  1  0  0  0  0
  2  3  1  0  0  0  0
  2  7  2  0  0  0  0
  4  3  1  6  0  0  0
  4  5  1  0  0  0  0
  4  6  1  0  0  0  0
  4  8  1  0  0  0  0
  5  9  2  0  0  0  0
  6 13  1  0  0  0  0
  7 12  1  0  0  0  0
  8 19  2  0  0  0  0
 10  7  1  1  0  0  0
 10 14  1  0  0  0  0
 10 17  1  0  0  0  0
 11  8  1  6  0  0  0
 11 20  1  0  0  0  0
 11 32  1  0  0  0  0
 12 18  1  0  0  0  0
 12 30  1  1  0  0  0
 12 32  1  0  0  0  0
 13 16  2  0  0  0  0
 13 21  1  0  0  0  0
 14  5  1  1  0  0  0
 14 15  1  0  0  0  0
 14 20  1  0  0  0  0
 15 31  1  0  0  0  0
 15 39  1  0  0  0  0
 17 18  1  0  0  0  0
 17 23  1  0  0  0  0
 18 25  1  0  0  0  0
 18 26  1  0  0  0  0
 19 21  1  0  0  0  0
 19 35  1  0  0  0  0
 20 23  1  0  0  0  0
 21 22  2  0  0  0  0
 22 27  1  0  0  0  0
 23 24  1  0  0  0  0
 23 39  1  0  0  0  0
 24 26  1  0  0  0  0
 26 28  2  0  0  0  0
 27 34  2  0  0  0  0
 27 36  1  0  0  0  0
 28 29  1  0  0  0  0
 28 32  1  0  0  0  0
 29 38  1  0  0  0  0
 31 33  2  0  0  0  0
 31 37  1  0  0  0  0
 34 35  1  0  0  0  0
 35 38  1  0  0  0  0
 36 40  1  0  0  0  0
 36 42  2  0  0  0  0
 40 41  2  0  0  0  0
 40 43  1  0  0  0  0
 41 47  1  0  0  0  0
 42 46  1  0  0  0  0
 43 44  1  0  0  0  0
 43 45  1  0  0  0  0
 44 47  2  0  0  0  0
 45 46  2  0  0  0  0
M  END
$$$$

 OpenBabel10082411353D

 47 58  0  0  0  0  0  0  0  0999 V2000
    8.0806    9.0240  -12.7589 C   0  0  0  0  0  0  0  0  0  0  0  0
    8.6514    7.8645  -12.2948 C   0  0  0  0  0  0  0  0  0  0  0  0
    9.9575    7.9974  -11.8426 C   0  0  0  0  0  0  0  0  0  0  0  0
   10.7657    6.8667  -11.6050 C   0  0  1  0  0  0  0  0  0  0  0  0
   10.7682    5.9590  -12.8271 C   0  0  0  0  0  0  0  0  0  0  0  0
   12.1553    7.3846  -11.2315 C   0  0  0  0  0  0  0  0  0  0  0  0
    8.0676    6.6451  -12.2974 C   0  0  0  0  0  0  0  0  0  0  0  0
   10.1892    6.1240  -10.3860 C   0  0  0  0  0  0  0  0  0  0  0  0
   11.8375    5.4373  -13.3240 O   0  0  0  0  0  0  0  0  0  0  0  0
    8.6785    5.4761  -13.0273 C   0  0  1  0  0  0  0  0  0  0  0  0
    9.1969    5.2405  -10.4969 C   0  0  2  0  0  0  0  0  0  0  0  0
    7.2213    6.2210  -11.3074 C   0  0  2  0  0  0  0  0  0  0  0  0
   12.5590    7.6872   -9.9896 C   0  0  0  0  0  0  0  0  0  0  0  0
    9.7633    5.0333  -12.9720 C   0  0  1  0  0  0  0  0  0  0  0  0
   10.0661    4.0167  -14.0373 N   0  0  0  0  0  0  0  0  0  0  0  0
   13.6906    8.3004   -9.6233 O   0  0  0  0  0  0  0  0  0  0  0  0
    7.6357    4.5123  -12.6317 C   0  0  2  0  0  0  0  0  0  0  0  0
    6.8831    4.9171  -11.7031 C   0  0  2  0  0  0  0  0  0  0  0  0
   10.5937    6.6967   -9.1779 C   0  0  0  0  0  0  0  0  0  0  0  0
    9.5087    4.3263  -11.6925 C   0  0  2  0  0  0  0  0  0  0  0  0
   11.6359    7.4449   -8.9125 C   0  0  0  0  0  0  0  0  0  0  0  0
   11.9716    7.9159   -7.6200 C   0  0  0  0  0  0  0  0  0  0  0  0
    8.4648    3.6122  -12.2840 C   0  0  1  0  0  0  0  0  0  0  0  0
    7.9253    2.8004  -11.3926 C   0  0  0  0  0  0  0  0  0  0  0  0
    5.6047    4.5059  -11.7589 C   0  0  0  0  0  0  0  0  0  0  0  0
    7.6606    4.1297  -10.5699 C   0  0  0  0  0  0  0  0  0  0  0  0
   10.9559    7.6849   -6.6057 C   0  0  0  0  0  0  0  0  0  0  0  0
    8.0094    4.5092   -9.5664 C   0  0  0  0  0  0  0  0  0  0  0  0
    8.3033    4.0627   -8.4980 C   0  0  0  0  0  0  0  0  0  0  0  0
    6.3587    7.1012  -11.0392 O   0  0  0  0  0  0  0  0  0  0  0  0
   11.0186    3.9598  -14.9226 C   0  0  0  0  0  0  0  0  0  0  0  0
    8.1758    5.8633  -10.2511 C   0  0  1  0  0  0  0  0  0  0  0  0
   11.4648    2.7104  -15.2650 O   0  0  0  0  0  0  0  0  0  0  0  0
    9.9512    6.8220   -6.8436 C   0  0  0  0  0  0  0  0  0  0  0  0
    9.6899    6.3705   -8.1082 C   0  0  2  0  0  0  0  0  0  0  0  0
   11.2597    8.2901   -5.2396 C   0  0  0  0  0  0  0  0  0  0  0  0
   11.7295    4.9426  -15.4284 O   0  0  0  0  0  0  0  0  0  0  0  0
    9.0704    4.8312   -7.8318 C   0  0  0  0  0  0  0  0  0  0  0  0
    9.2457    2.8662  -13.7297 C   0  0  0  0  0  0  0  0  0  0  0  0
   11.9322    7.5886   -4.3410 C   0  0  0  0  0  0  0  0  0  0  0  0
   12.3837    8.1911   -3.0498 C   0  0  0  0  0  0  0  0  0  0  0  0
   12.1266    6.2088   -4.4269 C   0  0  0  0  0  0  0  0  0  0  0  0
   10.8614    9.6241   -4.9952 C   0  0  0  0  0  0  0  0  0  0  0  0
   13.0560    7.4243   -2.0938 C   0  0  0  0  0  0  0  0  0  0  0  0
   13.4369    8.1480   -0.8795 C   0  0  0  0  0  0  0  0  0  0  0  0
   12.8172    5.6882   -3.2134 C   0  0  0  0  0  0  0  0  0  0  0  0
   13.1683    6.1308   -2.2429 C   0  0  0  0  0  0  0  0  0  0  0  0
  1  2  1  0  0  0  0
  2  3  1  0  0  0  0
  2  7  2  0  0  0  0
  4  3  1  6  0  0  0
  4  5  1  0  0  0  0
  4  6  1  0  0  0  0
  4  8  1  0  0  0  0
  5  9  2  0  0  0  0
  6 13  1  0  0  0  0
  7 12  1  0  0  0  0
  8 19  2  0  0  0  0
 10  7  1  1  0  0  0
 10 14  1  0  0  0  0
 10 17  1  0  0  0  0
 11  8  1  6  0  0  0
 11 20  1  0  0  0  0
 11 32  1  0  0  0  0
 12 18  1  0  0  0  0
 12 30  1  1  0  0  0
 12 32  1  0  0  0  0
 13 16  2  0  0  0  0
 13 21  1  0  0  0  0
 14  5  1  1  0  0  0
 14 15  1  0  0  0  0
 14 20  1  0  0  0  0
 15 31  1  0  0  0  0
 15 39  1  0  0  0  0
 17 18  1  0  0  0  0
 17 23  1  0  0  0  0
 18 25  1  0  0  0  0
 18 26  1  0  0  0  0
 19 21  1  0  0  0  0
 19 35  1  0  0  0  0
 20 23  1  0  0  0  0
 21 22  2  0  0  0  0
 22 27  1  0  0  0  0
 23 24  1  0  0  0  0
 23 39  1  0  0  0  0
 24 26  1  0  0  0  0
 26 28  2  0  0  0  0
 27 34  2  0  0  0  0
 27 36  1  0  0  0  0
 28 29  1  0  0  0  0
 28 32  1  0  0  0  0
 29 38  2  0  0  0  0
 31 33  2  0  0  0  0
 31 37  1  0  0  0  0
 34 35  1  0  0  0  0
 35 38  1  0  0  0  0
 36 40  1  0  0  0  0
 36 43  2  0  0  0  0
 40 41  1  0  0  0  0
 40 42  2  0  0  0  0
 41 44  2  0  0  0  0
 42 46  1  0  0  0  0
 44 45  1  0  0  0  0
 44 47  1  0  0  0  0
 46 47  2  0  0  0  0
M  END
$$$$

 OpenBabel10082411353D

 47 59  0  0  0  0  0  0  0  0999 V2000
    8.0806    9.0240  -12.7589 C   0  0  0  0  0  0  0  0  0  0  0  0
    8.6514    7.8645  -12.2948 C   0  0  0  0  0  0  0  0  0  0  0  0
    9.9575    7.9974  -11.8426 C   0  0  0  0  0  0  0  0  0  0  0  0
   10.7657    6.8667  -11.6050 C   0  0  1  0  0  0  0  0  0  0  0  0
   10.7682    5.9590  -12.8271 C   0  0  0  0  0  0  0  0  0  0  0  0
   12.1553    7.3846  -11.2315 C   0  0  0  0  0  0  0  0  0  0  0  0
    8.0676    6.6451  -12.2974 C   0  0  0  0  0  0  0  0  0  0  0  0
   10.1892    6.1240  -10.3860 C   0  0  0  0  0  0  0  0  0  0  0  0
   11.8375    5.4373  -13.3240 O   0  0  0  0  0  0  0  0  0  0  0  0
    8.6785    5.4761  -13.0273 C   0  0  1  0  0  0  0  0  0  0  0  0
    9.1969    5.2405  -10.4969 C   0  0  2  0  0  0  0  0  0  0  0  0
    7.2213    6.2210  -11.3074 C   0  0  2  0  0  0  0  0  0  0  0  0
   12.5590    7.6872   -9.9896 C   0  0  0  0  0  0  0  0  0  0  0  0
    9.7633    5.0333  -12.9720 C   0  0  1  0  0  0  0  0  0  0  0  0
   10.0661    4.0167  -14.0373 N   0  0  0  0  0  0  0  0  0  0  0  0
   13.6906    8.3004   -9.6233 O   0  0  0  0  0  0  0  0  0  0  0  0
    7.6357    4.5123  -12.6317 C   0  0  2  0  0  0  0  0  0  0  0  0
    6.8831    4.9171  -11.7031 C   0  0  2  0  0  0  0  0  0  0  0  0
   10.5937    6.6967   -9.1779 C   0  0  0  0  0  0  0  0  0  0  0  0
    9.5087    4.3263  -11.6925 C   0  0  2  0  0  0  0  0  0  0  0  0
   11.6359    7.4449   -8.9125 C   0  0  0  0  0  0  0  0  0  0  0  0
   11.9716    7.9159   -7.6200 C   0  0  0  0  0  0  0  0  0  0  0  0
    8.4648    3.6122  -12.2840 C   0  0  1  0  0  0  0  0  0  0  0  0
    7.9253    2.8004  -11.3926 C   0  0  0  0  0  0  0  0  0  0  0  0
    5.6047    4.5059  -11.7589 C   0  0  0  0  0  0  0  0  0  0  0  0
    7.6606    4.1297  -10.5699 C   0  0  0  0  0  0  0  0  0  0  0  0
   10.9559    7.6849   -6.6057 C   0  0  0  0  0  0  0  0  0  0  0  0
    8.0094    4.5092   -9.5664 C   0  0  0  0  0  0  0  0  0  0  0  0
    8.3033    4.0627   -8.4980 C   0  0  0  0  0  0  0  0  0  0  0  0
    6.3587    7.1012  -11.0392 O   0  0  0  0  0  0  0  0  0  0  0  0
   11.0186    3.9598  -14.9226 C   0  0  0  0  0  0  0  0  0  0  0  0
    8.1758    5.8633  -10.2511 C   0  0  1  0  0  0  0  0  0  0  0  0
   11.4648    2.7104  -15.2650 O   0  0  0  0  0  0  0  0  0  0  0  0
    9.9512    6.8220   -6.8436 C   0  0  0  0  0  0  0  0  0  0  0  0
    9.6899    6.3705   -8.1082 C   0  0  2  0  0  0  0  0  0  0  0  0
   11.2597    8.2901   -5.2396 C   0  0  0  0  0  0  0  0  0  0  0  0
   11.7295    4.9426  -15.4284 O   0  0  0  0  0  0  0  0  0  0  0  0
    9.2745    4.9481   -7.8103 C   0  0  0  0  0  0  0  0  0  0  0  0
    9.1757    2.9301  -13.7559 C   0  0  0  0  0  0  0  0  0  0  0  0
   11.9187    7.5856   -4.3294 C   0  0  0  0  0  0  0  0  0  0  0  0
   11.7781    6.4587   -4.0864 C   0  0  0  0  0  0  0  0  0  0  0  0
   10.9546    9.6992   -5.1271 C   0  0  0  0  0  0  0  0  0  0  0  0
   11.4597   10.2269   -3.9089 C   0  0  0  0  0  0  0  0  0  0  0  0
   12.2995    8.3720   -3.0571 C   0  0  0  0  0  0  0  0  0  0  0  0
   12.0481    9.6260   -2.9739 C   0  0  0  0  0  0  0  0  0  0  0  0
   12.7456    7.3805   -2.1416 N   0  0  0  0  0  0  0  0  0  0  0  0
   12.5557    6.2193   -2.7828 C   0  0  0  0  0  0  0  0  0  0  0  0
  1  2  1  0  0  0  0
  2  3  1  0  0  0  0
  2  7  2  0  0  0  0
  4  3  1  6  0  0  0
  4  5  1  0  0  0  0
  4  6  1  0  0  0  0
  4  8  1  0  0  0  0
  5  9  2  0  0  0  0
  6 13  1  0  0  0  0
  7 12  1  0  0  0  0
  8 19  2  0  0  0  0
 10  7  1  1  0  0  0
 10 14  1  0  0  0  0
 10 17  1  0  0  0  0
 11  8  1  6  0  0  0
 11 20  1  0  0  0  0
 11 32  1  0  0  0  0
 12 18  1  0  0  0  0
 12 30  1  1  0  0  0
 12 32  1  0  0  0  0
 13 16  2  0  0  0  0
 13 21  1  0  0  0  0
 14  5  1  1  0  0  0
 14 15  1  0  0  0  0
 14 20  1  0  0  0  0
 15 31  1  0  0  0  0
 15 39  1  0  0  0  0
 17 18  1  0  0  0  0
 17 23  1  0  0  0  0
 18 25  1  0  0  0  0
 18 26  1  0  0  0  0
 19 21  1  0  0  0  0
 19 35  1  0  0  0  0
 20 23  1  0  0  0  0
 21 22  2  0  0  0  0
 22 27  1  0  0  0  0
 23 24  1  0  0  0  0
 23 39  1  0  0  0  0
 24 26  1  0  0  0  0
 26 28  2  0  0  0  0
 27 34  2  0  0  0  0
 27 36  1  0  0  0  0
 28 29  1  0  0  0  0
 28 32  1  0  0  0  0
 29 38  1  0  0  0  0
 31 33  2  0  0  0  0
 31 37  1  0  0  0  0
 34 35  1  0  0  0  0
 35 38  1  0  0  0  0
 36 40  1  0  0  0  0
 36 42  2  0  0  0  0
 40 41  2  0  0  0  0
 40 44  1  0  0  0  0
 41 47  1  0  0  0  0
 42 43  1  0  0  0  0
 43 45  2  0  0  0  0
 44 45  1  0  0  0  0
 44 46  2  0  0  0  0
 46 47  1  0  0  0  0
M  END
$$$$

 OpenBabel10082411353D

 47 59  0  0  0  0  0  0  0  0999 V2000
    8.0806    9.0240  -12.7589 C   0  0  0  0  0  0  0  0  0  0  0  0
    8.6514    7.8645  -12.2948 C   0  0  0  0  0  0  0  0  0  0  0  0
    9.9575    7.9974  -11.8426 C   0  0  0  0  0  0  0  0  0  0  0  0
   10.7657    6.8667  -11.6050 C   0  0  1  0  0  0  0  0  0  0  0  0
   10.7682    5.9590  -12.8271 C   0  0  0  0  0  0  0  0  0  0  0  0
   12.1553    7.3846  -11.2315 C   0  0  0  0  0  0  0  0  0  0  0  0
    8.0676    6.6451  -12.2974 C   0  0  0  0  0  0  0  0  0  0  0  0
   10.1892    6.1240  -10.3860 C   0  0  0  0  0  0  0  0  0  0  0  0
   11.8375    5.4373  -13.3240 O   0  0  0  0  0  0  0  0  0  0  0  0
    8.6785    5.4761  -13.0273 C   0  0  1  0  0  0  0  0  0  0  0  0
    9.1969    5.2405  -10.4969 C   0  0  2  0  0  0  0  0  0  0  0  0
    7.2213    6.2210  -11.3074 C   0  0  2  0  0  0  0  0  0  0  0  0
   12.5590    7.6872   -9.9896 C   0  0  0  0  0  0  0  0  0  0  0  0
    9.7633    5.0333  -12.9720 C   0  0  1  0  0  0  0  0  0  0  0  0
   10.0661    4.0167  -14.0373 N   0  0  0  0  0  0  0  0  0  0  0  0
   13.6906    8.3004   -9.6233 O   0  0  0  0  0  0  0  0  0  0  0  0
    7.6357    4.5123  -12.6317 C   0  0  2  0  0  0  0  0  0  0  0  0
    6.8831    4.9171  -11.7031 C   0  0  2  0  0  0  0  0  0  0  0  0
   10.5937    6.6967   -9.1779 C   0  0  0  0  0  0  0  0  0  0  0  0
    9.5087    4.3263  -11.6925 C   0  0  2  0  0  0  0  0  0  0  0  0
   11.6359    7.4449   -8.9125 C   0  0  0  0  0  0  0  0  0  0  0  0
   11.9716    7.9159   -7.6200 C   0  0  0  0  0  0  0  0  0  0  0  0
    8.4648    3.6122  -12.2840 C   0  0  1  0  0  0  0  0  0  0  0  0
    7.9253    2.8004  -11.3926 C   0  0  0  0  0  0  0  0  0  0  0  0
    5.6047    4.5059  -11.7589 C   0  0  0  0  0  0  0  0  0  0  0  0
    7.6606    4.1297  -10.5699 C   0  0  0  0  0  0  0  0  0  0  0  0
   10.9559    7.6849   -6.6057 C   0  0  0  0  0  0  0  0  0  0  0  0
    8.0094    4.5092   -9.5664 C   0  0  0  0  0  0  0  0  0  0  0  0
    8.3033    4.0627   -8.4980 C   0  0  0  0  0  0  0  0  0  0  0  0
    6.3587    7.1012  -11.0392 O   0  0  0  0  0  0  0  0  0  0  0  0
   11.0186    3.9598  -14.9226 C   0  0  0  0  0  0  0  0  0  0  0  0
    8.1758    5.8633  -10.2511 C   0  0  1  0  0  0  0  0  0  0  0  0
   11.4648    2.7104  -15.2650 O   0  0  0  0  0  0  0  0  0  0  0  0
    9.9512    6.8220   -6.8436 C   0  0  0  0  0  0  0  0  0  0  0  0
    9.6899    6.3705   -8.1082 C   0  0  2  0  0  0  0  0  0  0  0  0
   11.2597    8.2901   -5.2396 C   0  0  0  0  0  0  0  0  0  0  0  0
   11.7295    4.9426  -15.4284 O   0  0  0  0  0  0  0  0  0  0  0  0
    9.2745    4.9481   -7.8103 C   0  0  0  0  0  0  0  0  0  0  0  0
    9.1757    2.9301  -13.7559 C   0  0  0  0  0  0  0  0  0  0  0  0
   11.9187    7.5856   -4.3294 C   0  0  0  0  0  0  0  0  0  0  0  0
   11.7781    6.4587   -4.0864 C   0  0  0  0  0  0  0  0  0  0  0  0
   10.9546    9.6992   -5.1271 C   0  0  0  0  0  0  0  0  0  0  0  0
   12.7574    8.4431   -3.4035 C   0  0  0  0  0  0  0  0  0  0  0  0
   13.3571    7.7115   -2.3579 C   0  0  0  0  0  0  0  0  0  0  0  0
   12.3940    9.7859   -3.2657 C   0  0  0  0  0  0  0  0  0  0  0  0
   12.8951    6.4177   -2.4111 C   0  0  0  0  0  0  0  0  0  0  0  0
   11.5964   10.4303   -4.2196 C   0  0  0  0  0  0  0  0  0  0  0  0
  1  2  1  0  0  0  0
  2  3  1  0  0  0  0
  2  7  2  0  0  0  0
  4  3  1  6  0  0  0
  4  5  1  0  0  0  0
  4  6  1  0  0  0  0
  4  8  1  0  0  0  0
  5  9  2  0  0  0  0
  6 13  1  0  0  0  0
  7 12  1  0  0  0  0
  8 19  2  0  0  0  0
 10  7  1  1  0  0  0
 10 14  1  0  0  0  0
 10 17  1  0  0  0  0
 11  8  1  6  0  0  0
 11 20  1  0  0  0  0
 11 32  1  0  0  0  0
 12 18  1  0  0  0  0
 12 30  1  1  0  0  0
 12 32  1  0  0  0  0
 13 16  2  0  0  0  0
 13 21  1  0  0  0  0
 14  5  1  1  0  0  0
 14 15  1  0  0  0  0
 14 20  1  0  0  0  0
 15 31  1  0  0  0  0
 15 39  1  0  0  0  0
 17 18  1  0  0  0  0
 17 23  1  0  0  0  0
 18 25  1  0  0  0  0
 18 26  1  0  0  0  0
 19 21  1  0  0  0  0
 19 35  1  0  0  0  0
 20 23  1  0  0  0  0
 21 22  2  0  0  0  0
 22 27  1  0  0  0  0
 23 24  1  0  0  0  0
 23 39  1  0  0  0  0
 24 26  1  0  0  0  0
 26 28  2  0  0  0  0
 27 34  2  0  0  0  0
 27 36  1  0  0  0  0
 28 29  1  0  0  0  0
 28 32  1  0  0  0  0
 29 38  1  0  0  0  0
 31 33  2  0  0  0  0
 31 37  1  0  0  0  0
 34 35  1  0  0  0  0
 35 38  1  0  0  0  0
 36 40  1  0  0  0  0
 36 42  2  0  0  0  0
 40 41  2  0  0  0  0
 40 43  1  0  0  0  0
 41 46  1  0  0  0  0
 42 47  1  0  0  0  0
 43 44  1  0  0  0  0
 43 45  2  0  0  0  0
 44 46  1  0  0  0  0
 45 47  1  0  0  0  0
M  END
$$$$

 OpenBabel10082411353D

 47 59  0  0  0  0  0  0  0  0999 V2000
    8.0806    9.0240  -12.7589 C   0  0  0  0  0  0  0  0  0  0  0  0
    8.6514    7.8645  -12.2948 C   0  0  0  0  0  0  0  0  0  0  0  0
    9.9575    7.9974  -11.8426 C   0  0  0  0  0  0  0  0  0  0  0  0
   10.7657    6.8667  -11.6050 C   0  0  1  0  0  0  0  0  0  0  0  0
   10.7682    5.9590  -12.8271 C   0  0  0  0  0  0  0  0  0  0  0  0
   12.1553    7.3846  -11.2315 C   0  0  0  0  0  0  0  0  0  0  0  0
    8.0676    6.6451  -12.2974 C   0  0  0  0  0  0  0  0  0  0  0  0
   10.1892    6.1240  -10.3860 C   0  0  0  0  0  0  0  0  0  0  0  0
   11.8375    5.4373  -13.3240 O   0  0  0  0  0  0  0  0  0  0  0  0
    8.6785    5.4761  -13.0273 C   0  0  1  0  0  0  0  0  0  0  0  0
    9.1969    5.2405  -10.4969 C   0  0  2  0  0  0  0  0  0  0  0  0
    7.2213    6.2210  -11.3074 C   0  0  2  0  0  0  0  0  0  0  0  0
   12.5590    7.6872   -9.9896 C   0  0  0  0  0  0  0  0  0  0  0  0
    9.7633    5.0333  -12.9720 C   0  0  1  0  0  0  0  0  0  0  0  0
   10.0661    4.0167  -14.0373 N   0  0  0  0  0  0  0  0  0  0  0  0
   13.6906    8.3004   -9.6233 O   0  0  0  0  0  0  0  0  0  0  0  0
    7.6357    4.5123  -12.6317 C   0  0  2  0  0  0  0  0  0  0  0  0
    6.8831    4.9171  -11.7031 C   0  0  2  0  0  0  0  0  0  0  0  0
   10.5937    6.6967   -9.1779 C   0  0  0  0  0  0  0  0  0  0  0  0
    9.5087    4.3263  -11.6925 C   0  0  2  0  0  0  0  0  0  0  0  0
   11.6359    7.4449   -8.9125 C   0  0  0  0  0  0  0  0  0  0  0  0
   11.9716    7.9159   -7.6200 C   0  0  0  0  0  0  0  0  0  0  0  0
    8.4648    3.6122  -12.2840 C   0  0  1  0  0  0  0  0  0  0  0  0
    7.9253    2.8004  -11.3926 C   0  0  0  0  0  0  0  0  0  0  0  0
    5.6047    4.5059  -11.7589 C   0  0  0  0  0  0  0  0  0  0  0  0
    7.6606    4.1297  -10.5699 C   0  0  0  0  0  0  0  0  0  0  0  0
   10.9559    7.6849   -6.6057 C   0  0  0  0  0  0  0  0  0  0  0  0
    8.0094    4.5092   -9.5664 C   0  0  0  0  0  0  0  0  0  0  0  0
    8.3033    4.0627   -8.4980 C   0  0  0  0  0  0  0  0  0  0  0  0
    6.3587    7.1012  -11.0392 O   0  0  0  0  0  0  0  0  0  0  0  0
   11.0186    3.9598  -14.9226 C   0  0  0  0  0  0  0  0  0  0  0  0
    8.1758    5.8633  -10.2511 C   0  0  1  0  0  0  0  0  0  0  0  0
   11.4648    2.7104  -15.2650 O   0  0  0  0  0  0  0  0  0  0  0  0
    9.9512    6.8220   -6.8436 C   0  0  0  0  0  0  0  0  0  0  0  0
    9.6899    6.3705   -8.1082 C   0  0  2  0  0  0  0  0  0  0  0  0
   11.2597    8.2901   -5.2396 C   0  0  0  0  0  0  0  0  0  0  0  0
   11.7295    4.9426  -15.4284 O   0  0  0  0  0  0  0  0  0  0  0  0
    9.2745    4.9481   -7.8103 C   0  0  0  0  0  0  0  0  0  0  0  0
    9.2182    2.8872  -13.7570 C   0  0  0  0  0  0  0  0  0  0  0  0
   11.9188    7.5853   -4.3293 C   0  0  0  0  0  0  0  0  0  0  0  0
   12.4318    8.2238   -3.0545 C   0  0  0  0  0  0  0  0  0  0  0  0
   12.0711    6.1970   -4.3595 C   0  0  0  0  0  0  0  0  0  0  0  0
   10.8964    9.6362   -5.0136 C   0  0  0  0  0  0  0  0  0  0  0  0
   13.0649    7.4381   -2.1156 C   0  0  0  0  0  0  0  0  0  0  0  0
   12.9705    5.9110   -2.6139 S   0  0  0  0  0  0  0  0  0  0  0  0
   12.1955    9.6881   -2.8889 C   0  0  0  0  0  0  0  0  0  0  0  0
   11.3558   10.2415   -3.8294 C   0  0  0  0  0  0  0  0  0  0  0  0
  1  2  1  0  0  0  0
  2  3  1  0  0  0  0
  2  7  2  0  0  0  0
  4  3  1  6  0  0  0
  4  5  1  0  0  0  0
  4  6  1  0  0  0  0
  4  8  1  0  0  0  0
  5  9  2  0  0  0  0
  6 13  1  0  0  0  0
  7 12  1  0  0  0  0
  8 19  2  0  0  0  0
 10  7  1  1  0  0  0
 10 14  1  0  0  0  0
 10 17  1  0  0  0  0
 11  8  1  6  0  0  0
 11 20  1  0  0  0  0
 11 32  1  0  0  0  0
 12 18  1  0  0  0  0
 12 30  1  1  0  0  0
 12 32  1  0  0  0  0
 13 16  2  0  0  0  0
 13 21  1  0  0  0  0
 14  5  1  1  0  0  0
 14 15  1  0  0  0  0
 14 20  1  0  0  0  0
 15 31  1  0  0  0  0
 15 39  1  0  0  0  0
 17 18  1  0  0  0  0
 17 23  1  0  0  0  0
 18 25  1  0  0  0  0
 18 26  1  0  0  0  0
 19 21  1  0  0  0  0
 19 35  1  0  0  0  0
 20 23  1  0  0  0  0
 21 22  2  0  0  0  0
 22 27  1  0  0  0  0
 23 24  1  0  0  0  0
 23 39  1  0  0  0  0
 24 26  1  0  0  0  0
 26 28  2  0  0  0  0
 27 34  2  0  0  0  0
 27 36  1  0  0  0  0
 28 29  1  0  0  0  0
 28 32  1  0  0  0  0
 29 38  1  0  0  0  0
 31 33  2  0  0  0  0
 31 37  1  0  0  0  0
 34 35  1  0  0  0  0
 35 38  1  0  0  0  0
 36 40  1  0  0  0  0
 36 43  2  0  0  0  0
 40 41  1  0  0  0  0
 40 42  2  0  0  0  0
 41 44  2  0  0  0  0
 41 46  1  0  0  0  0
 42 45  1  0  0  0  0
 43 47  1  0  0  0  0
 44 45  1  0  0  0  0
 46 47  2  0  0  0  0
M  END
$$$$

 OpenBabel10082411353D

 47 59  0  0  0  0  0  0  0  0999 V2000
    8.0806    9.0240  -12.7589 C   0  0  0  0  0  0  0  0  0  0  0  0
    8.6514    7.8645  -12.2948 C   0  0  0  0  0  0  0  0  0  0  0  0
    9.9575    7.9974  -11.8426 C   0  0  0  0  0  0  0  0  0  0  0  0
   10.7657    6.8667  -11.6050 C   0  0  1  0  0  0  0  0  0  0  0  0
   10.7682    5.9590  -12.8271 C   0  0  0  0  0  0  0  0  0  0  0  0
   12.1553    7.3846  -11.2315 C   0  0  0  0  0  0  0  0  0  0  0  0
    8.0676    6.6451  -12.2974 C   0  0  0  0  0  0  0  0  0  0  0  0
   10.1892    6.1240  -10.3860 C   0  0  0  0  0  0  0  0  0  0  0  0
   11.8375    5.4373  -13.3240 O   0  0  0  0  0  0  0  0  0  0  0  0
    8.6785    5.4761  -13.0273 C   0  0  1  0  0  0  0  0  0  0  0  0
    9.1969    5.2405  -10.4969 C   0  0  2  0  0  0  0  0  0  0  0  0
    7.2213    6.2210  -11.3074 C   0  0  2  0  0  0  0  0  0  0  0  0
   12.5590    7.6872   -9.9896 C   0  0  0  0  0  0  0  0  0  0  0  0
    9.7633    5.0333  -12.9720 C   0  0  1  0  0  0  0  0  0  0  0  0
   10.0661    4.0167  -14.0373 N   0  0  0  0  0  0  0  0  0  0  0  0
   13.6906    8.3004   -9.6233 O   0  0  0  0  0  0  0  0  0  0  0  0
    7.6357    4.5123  -12.6317 C   0  0  2  0  0  0  0  0  0  0  0  0
    6.8831    4.9171  -11.7031 C   0  0  2  0  0  0  0  0  0  0  0  0
   10.5937    6.6967   -9.1779 C   0  0  0  0  0  0  0  0  0  0  0  0
    9.5087    4.3263  -11.6925 C   0  0  2  0  0  0  0  0  0  0  0  0
   11.6359    7.4449   -8.9125 C   0  0  0  0  0  0  0  0  0  0  0  0
   11.9716    7.9159   -7.6200 C   0  0  0  0  0  0  0  0  0  0  0  0
    8.4648    3.6122  -12.2840 C   0  0  1  0  0  0  0  0  0  0  0  0
    7.9253    2.8004  -11.3926 C   0  0  0  0  0  0  0  0  0  0  0  0
    5.6047    4.5059  -11.7589 C   0  0  0  0  0  0  0  0  0  0  0  0
    7.6606    4.1297  -10.5699 C   0  0  0  0  0  0  0  0  0  0  0  0
   10.9559    7.6849   -6.6057 C   0  0  0  0  0  0  0  0  0  0  0  0
    8.0094    4.5092   -9.5664 C   0  0  0  0  0  0  0  0  0  0  0  0
    8.3033    4.0627   -8.4980 C   0  0  0  0  0  0  0  0  0  0  0  0
    6.3587    7.1012  -11.0392 O   0  0  0  0  0  0  0  0  0  0  0  0
   11.0186    3.9598  -14.9226 C   0  0  0  0  0  0  0  0  0  0  0  0
    8.1758    5.8633  -10.2511 C   0  0  1  0  0  0  0  0  0  0  0  0
   11.4648    2.7104  -15.2650 O   0  0  0  0  0  0  0  0  0  0  0  0
    9.9512    6.8220   -6.8436 C   0  0  0  0  0  0  0  0  0  0  0  0
    9.6899    6.3705   -8.1082 C   0  0  2  0  0  0  0  0  0  0  0  0
   11.2597    8.2901   -5.2396 C   0  0  0  0  0  0  0  0  0  0  0  0
   11.7295    4.9426  -15.4284 O   0  0  0  0  0  0  0  0  0  0  0  0
    9.2745    4.9481   -7.8103 C   0  0  0  0  0  0  0  0  0  0  0  0
    9.1757    2.9301  -13.7559 C   0  0  0  0  0  0  0  0  0  0  0  0
   11.9187    7.5856   -4.3294 C   0  0  0  0  0  0  0  0  0  0  0  0
   11.7781    6.4587   -4.0864 C   0  0  0  0  0  0  0  0  0  0  0  0
   10.9546    9.6992   -5.1271 C   0  0  0  0  0  0  0  0  0  0  0  0
   11.4597   10.2269   -3.9089 C   0  0  0  0  0  0  0  0  0  0  0  0
   12.2995    8.3720   -3.0571 C   0  0  0  0  0  0  0  0  0  0  0  0
   12.1101    9.6267   -2.9483 C   0  0  0  0  0  0  0  0  0  0  0  0
   12.7510    7.3831   -2.1389 C   0  0  0  0  0  0  0  0  0  0  0  0
   12.5779    6.1501   -2.7585 C   0  0  0  0  0  0  0  0  0  0  0  0
  1  2  1  0  0  0  0
  2  3  1  0  0  0  0
  2  7  2  0  0  0  0
  4  3  1  6  0  0  0
  4  5  1  0  0  0  0
  4  6  1  0  0  0  0
  4  8  1  0  0  0  0
  5  9  2  0  0  0  0
  6 13  1  0  0  0  0
  7 12  1  0  0  0  0
  8 19  2  0  0  0  0
 10  7  1  1  0  0  0
 10 14  1  0  0  0  0
 10 17  1  0  0  0  0
 11  8  1  6  0  0  0
 11 20  1  0  0  0  0
 11 32  1  0  0  0  0
 12 18  1  0  0  0  0
 12 30  1  1  0  0  0
 12 32  1  0  0  0  0
 13 16  2  0  0  0  0
 13 21  1  0  0  0  0
 14  5  1  1  0  0  0
 14 15  1  0  0  0  0
 14 20  1  0  0  0  0
 15 31  1  0  0  0  0
 15 39  1  0  0  0  0
 17 18  1  0  0  0  0
 17 23  1  0  0  0  0
 18 25  1  0  0  0  0
 18 26  1  0  0  0  0
 19 21  1  0  0  0  0
 19 35  1  0  0  0  0
 20 23  1  0  0  0  0
 21 22  2  0  0  0  0
 22 27  1  0  0  0  0
 23 24  1  0  0  0  0
 23 39  1  0  0  0  0
 24 26  1  0  0  0  0
 26 28  2  0  0  0  0
 27 34  2  0  0  0  0
 27 36  1  0  0  0  0
 28 29  1  0  0  0  0
 28 32  1  0  0  0  0
 29 38  1  0  0  0  0
 31 33  2  0  0  0  0
 31 37  1  0  0  0  0
 34 35  1  0  0  0  0
 35 38  1  0  0  0  0
 36 40  1  0  0  0  0
 36 42  2  0  0  0  0
 40 41  2  0  0  0  0
 40 44  1  0  0  0  0
 41 47  1  0  0  0  0
 42 43  1  0  0  0  0
 43 45  2  0  0  0  0
 44 45  1  0  0  0  0
 44 46  2  0  0  0  0
 46 47  1  0  0  0  0
M  END
$$$$

 OpenBabel10082411353D

 47 59  0  0  0  0  0  0  0  0999 V2000
    8.0806    9.0240  -12.7589 C   0  0  0  0  0  0  0  0  0  0  0  0
    8.6514    7.8645  -12.2948 C   0  0  0  0  0  0  0  0  0  0  0  0
    9.9575    7.9974  -11.8426 C   0  0  0  0  0  0  0  0  0  0  0  0
   10.7657    6.8667  -11.6050 C   0  0  1  0  0  0  0  0  0  0  0  0
   10.7682    5.9590  -12.8271 C   0  0  0  0  0  0  0  0  0  0  0  0
   12.1553    7.3846  -11.2315 C   0  0  0  0  0  0  0  0  0  0  0  0
    8.0676    6.6451  -12.2974 C   0  0  0  0  0  0  0  0  0  0  0  0
   10.1892    6.1240  -10.3860 C   0  0  0  0  0  0  0  0  0  0  0  0
   11.8375    5.4373  -13.3240 O   0  0  0  0  0  0  0  0  0  0  0  0
    8.6785    5.4761  -13.0273 C   0  0  1  0  0  0  0  0  0  0  0  0
    9.1969    5.2405  -10.4969 C   0  0  2  0  0  0  0  0  0  0  0  0
    7.2213    6.2210  -11.3074 C   0  0  2  0  0  0  0  0  0  0  0  0
   12.5590    7.6872   -9.9896 C   0  0  0  0  0  0  0  0  0  0  0  0
    9.7633    5.0333  -12.9720 C   0  0  1  0  0  0  0  0  0  0  0  0
   10.0661    4.0167  -14.0373 N   0  0  0  0  0  0  0  0  0  0  0  0
   13.6906    8.3004   -9.6233 O   0  0  0  0  0  0  0  0  0  0  0  0
    7.6357    4.5123  -12.6317 C   0  0  2  0  0  0  0  0  0  0  0  0
    6.8831    4.9171  -11.7031 C   0  0  2  0  0  0  0  0  0  0  0  0
   10.5937    6.6967   -9.1779 C   0  0  0  0  0  0  0  0  0  0  0  0
    9.5087    4.3263  -11.6925 C   0  0  2  0  0  0  0  0  0  0  0  0
   11.6359    7.4449   -8.9125 C   0  0  0  0  0  0  0  0  0  0  0  0
   11.9716    7.9159   -7.6200 C   0  0  0  0  0  0  0  0  0  0  0  0
    8.4648    3.6122  -12.2840 C   0  0  1  0  0  0  0  0  0  0  0  0
    7.9253    2.8004  -11.3926 C   0  0  0  0  0  0  0  0  0  0  0  0
    5.6047    4.5059  -11.7589 C   0  0  0  0  0  0  0  0  0  0  0  0
    7.6606    4.1297  -10.5699 C   0  0  0  0  0  0  0  0  0  0  0  0
   10.9559    7.6849   -6.6057 C   0  0  0  0  0  0  0  0  0  0  0  0
    8.0094    4.5092   -9.5664 C   0  0  0  0  0  0  0  0  0  0  0  0
    8.3033    4.0627   -8.4980 C   0  0  0  0  0  0  0  0  0  0  0  0
    6.3587    7.1012  -11.0392 O   0  0  0  0  0  0  0  0  0  0  0  0
   11.0186    3.9598  -14.9226 C   0  0  0  0  0  0  0  0  0  0  0  0
    8.1758    5.8633  -10.2511 C   0  0  1  0  0  0  0  0  0  0  0  0
   11.4648    2.7104  -15.2650 O   0  0  0  0  0  0  0  0  0  0  0  0
    9.9512    6.8220   -6.8436 C   0  0  0  0  0  0  0  0  0  0  0  0
    9.6899    6.3705   -8.1082 C   0  0  2  0  0  0  0  0  0  0  0  0
    9.1306    2.9610  -13.9685 C   0  0  2  0  0  0  0  0  0  0  0  0
    8.8414    5.0113   -7.7726 C   0  0  0  0  0  0  0  0  0  0  0  0
   11.0996    4.8769  -15.8101 O   0  0  0  0  0  0  0  0  0  0  0  0
    8.7802    2.3889  -15.2427 C   0  0  0  0  0  0  0  0  0  0  0  0
    7.9994    3.0782  -13.3884 C   0  0  2  0  0  0  0  0  0  0  0  0
   11.2764    8.4958   -5.0872 C   0  0  0  0  0  0  0  0  0  0  0  0
   12.1332    7.7826   -4.3271 C   0  0  0  0  0  0  0  0  0  0  0  0
   10.7995    9.7129   -4.9122 C   0  0  0  0  0  0  0  0  0  0  0  0
   11.1892   10.3341   -3.7928 C   0  0  0  0  0  0  0  0  0  0  0  0
   12.0099    9.5740   -2.8867 C   0  0  0  0  0  0  0  0  0  0  0  0
   12.5300    6.3121   -4.5828 C   0  0  0  0  0  0  0  0  0  0  0  0
   12.4575    8.3591   -3.0675 C   0  0  0  0  0  0  0  0  0  0  0  0
  1  2  1  0  0  0  0
  2  3  1  0  0  0  0
  2  7  2  0  0  0  0
  4  3  1  6  0  0  0
  4  5  1  0  0  0  0
  4  6  1  0  0  0  0
  4  8  1  0  0  0  0
  5  9  2  0  0  0  0
  6 13  1  0  0  0  0
  7 12  1  0  0  0  0
  8 19  2  0  0  0  0
 10  7  1  1  0  0  0
 10 14  1  0  0  0  0
 10 17  1  0  0  0  0
 11  8  1  6  0  0  0
 11 20  1  0  0  0  0
 11 32  1  0  0  0  0
 12 18  1  0  0  0  0
 12 30  1  1  0  0  0
 12 32  1  0  0  0  0
 13 16  2  0  0  0  0
 13 21  1  0  0  0  0
 14  5  1  1  0  0  0
 14 15  1  0  0  0  0
 14 20  1  0  0  0  0
 15 31  1  0  0  0  0
 15 36  1  0  0  0  0
 17 18  1  0  0  0  0
 17 23  1  0  0  0  0
 17 40  1  0  0  0  0
 18 25  1  0  0  0  0
 18 26  1  0  0  0  0
 19 21  1  0  0  0  0
 19 35  1  0  0  0  0
 20 23  1  0  0  0  0
 21 22  2  0  0  0  0
 22 27  1  0  0  0  0
 23 24  1  0  0  0  0
 23 40  1  0  0  0  0
 24 26  1  0  0  0  0
 26 28  2  0  0  0  0
 27 34  2  0  0  0  0
 27 41  1  0  0  0  0
 28 29  1  0  0  0  0
 28 32  1  0  0  0  0
 29 37  2  0  0  0  0
 31 33  2  0  0  0  0
 31 38  1  0  0  0  0
 34 35  1  0  0  0  0
 35 37  1  0  0  0  0
 36 39  1  0  0  0  0
 36 40  1  0  0  0  0
 41 42  1  0  0  0  0
 41 43  2  0  0  0  0
 42 46  1  0  0  0  0
 42 47  2  0  0  0  0
 43 44  1  0  0  0  0
 44 45  2  0  0  0  0
 45 47  1  0  0  0  0
M  END
$$$$

 OpenBabel10082411353D

 47 58  0  0  0  0  0  0  0  0999 V2000
    8.0806    9.0240  -12.7589 C   0  0  0  0  0  0  0  0  0  0  0  0
    8.6514    7.8645  -12.2948 C   0  0  0  0  0  0  0  0  0  0  0  0
    9.9575    7.9974  -11.8426 C   0  0  0  0  0  0  0  0  0  0  0  0
   10.7657    6.8667  -11.6050 C   0  0  1  0  0  0  0  0  0  0  0  0
   10.7682    5.9590  -12.8271 C   0  0  0  0  0  0  0  0  0  0  0  0
   12.1553    7.3846  -11.2315 C   0  0  0  0  0  0  0  0  0  0  0  0
    8.0676    6.6451  -12.2974 C   0  0  0  0  0  0  0  0  0  0  0  0
   10.1892    6.1240  -10.3860 C   0  0  0  0  0  0  0  0  0  0  0  0
   11.8375    5.4373  -13.3240 O   0  0  0  0  0  0  0  0  0  0  0  0
    8.6785    5.4761  -13.0273 C   0  0  1  0  0  0  0  0  0  0  0  0
    9.1969    5.2405  -10.4969 C   0  0  2  0  0  0  0  0  0  0  0  0
    7.2213    6.2210  -11.3074 C   0  0  2  0  0  0  0  0  0  0  0  0
   12.5590    7.6872   -9.9896 C   0  0  0  0  0  0  0  0  0  0  0  0
    9.7633    5.0333  -12.9720 C   0  0  1  0  0  0  0  0  0  0  0  0
   10.0661    4.0167  -14.0373 N   0  0  0  0  0  0  0  0  0  0  0  0
   13.6906    8.3004   -9.6233 O   0  0  0  0  0  0  0  0  0  0  0  0
    7.6357    4.5123  -12.6317 C   0  0  2  0  0  0  0  0  0  0  0  0
    6.8831    4.9171  -11.7031 C   0  0  2  0  0  0  0  0  0  0  0  0
   10.5937    6.6967   -9.1779 C   0  0  0  0  0  0  0  0  0  0  0  0
    9.5087    4.3263  -11.6925 C   0  0  2  0  0  0  0  0  0  0  0  0
   11.6359    7.4449   -8.9125 C   0  0  0  0  0  0  0  0  0  0  0  0
   11.9716    7.9159   -7.6200 C   0  0  0  0  0  0  0  0  0  0  0  0
    8.4648    3.6122  -12.2840 C   0  0  1  0  0  0  0  0  0  0  0  0
    7.9253    2.8004  -11.3926 C   0  0  0  0  0  0  0  0  0  0  0  0
    5.6047    4.5059  -11.7589 C   0  0  0  0  0  0  0  0  0  0  0  0
    7.6606    4.1297  -10.5699 C   0  0  0  0  0  0  0  0  0  0  0  0
   10.9559    7.6849   -6.6057 C   0  0  0  0  0  0  0  0  0  0  0  0
    8.0094    4.5092   -9.5664 C   0  0  0  0  0  0  0  0  0  0  0  0
    8.3033    4.0627   -8.4980 C   0  0  0  0  0  0  0  0  0  0  0  0
    6.3587    7.1012  -11.0392 O   0  0  0  0  0  0  0  0  0  0  0  0
   11.1885    8.2709   -5.2029 C   0  0  0  0  0  0  0  0  0  0  0  0
    8.1551    5.8688  -10.2415 C   0  0  1  0  0  0  0  0  0  0  0  0
    9.3562    2.8931  -13.4173 C   0  0  0  0  0  0  0  0  0  0  0  0
    9.4006    1.8057  -13.6789 O   0  0  0  0  0  0  0  0  0  0  0  0
   10.6448    3.9324  -15.2556 C   0  0  0  0  0  0  0  0  0  0  0  0
    9.9004    6.8953   -6.7235 C   0  0  0  0  0  0  0  0  0  0  0  0
    8.1584    4.7418   -7.5351 O   0  0  0  0  0  0  0  0  0  0  0  0
    8.5999    2.9050   -8.2804 O   0  0  0  0  0  0  0  0  0  0  0  0
   11.6420    7.3504   -4.2035 C   0  0  0  0  0  0  0  0  0  0  0  0
    9.6081    6.4128   -8.0398 C   0  0  1  0  0  0  0  0  0  0  0  0
    8.3828    5.9446   -7.9275 C   0  0  1  0  0  0  0  0  0  0  0  0
   11.1933    9.6919   -4.9542 C   0  0  0  0  0  0  0  0  0  0  0  0
   10.7525   10.6554   -6.1095 F   0  0  0  0  0  0  0  0  0  0  0  0
   12.0138    7.8751   -3.0370 C   0  0  0  0  0  0  0  0  0  0  0  0
   11.5529   10.2309   -3.8015 C   0  0  0  0  0  0  0  0  0  0  0  0
   11.9472    9.3043   -2.7734 C   0  0  0  0  0  0  0  0  0  0  0  0
    8.7260    6.3101   -9.0832 O   0  0  0  0  0  0  0  0  0  0  0  0
  1  2  1  0  0  0  0
  2  3  1  0  0  0  0
  2  7  2  0  0  0  0
  4  3  1  6  0  0  0
  4  5  1  0  0  0  0
  4  6  1  0  0  0  0
  4  8  1  0  0  0  0
  5  9  2  0  0  0  0
  6 13  1  0  0  0  0
  7 12  1  0  0  0  0
  8 19  2  0  0  0  0
 10  7  1  1  0  0  0
 10 14  1  0  0  0  0
 10 17  1  0  0  0  0
 11  8  1  6  0  0  0
 11 20  1  0  0  0  0
 11 32  1  0  0  0  0
 12 18  1  0  0  0  0
 12 30  1  6  0  0  0
 13 16  2  0  0  0  0
 13 21  1  0  0  0  0
 14  5  1  1  0  0  0
 14 15  1  0  0  0  0
 14 20  1  0  0  0  0
 15 33  1  0  0  0  0
 15 35  1  0  0  0  0
 17 18  1  0  0  0  0
 17 23  1  0  0  0  0
 18 25  1  0  0  0  0
 18 26  1  0  0  0  0
 19 21  1  0  0  0  0
 19 40  1  0  0  0  0
 20 23  1  0  0  0  0
 21 22  2  0  0  0  0
 22 27  1  0  0  0  0
 23 24  1  0  0  0  0
 23 33  1  0  0  0  0
 24 26  1  0  0  0  0
 26 28  2  0  0  0  0
 27 31  1  0  0  0  0
 27 36  2  0  0  0  0
 28 29  1  0  0  0  0
 28 32  1  0  0  0  0
 29 37  1  0  0  0  0
 29 38  2  0  0  0  0
 31 39  1  0  0  0  0
 31 42  2  0  0  0  0
 32 47  1  0  0  0  0
 33 34  2  0  0  0  0
 36 40  1  0  0  0  0
 37 41  1  0  0  0  0
 39 44  2  0  0  0  0
 40 41  1  0  0  0  0
 41 47  1  0  0  0  0
 42 43  1  0  0  0  0
 42 45  1  0  0  0  0
 44 46  1  0  0  0  0
 45 46  2  0  0  0  0
M  END
$$$$

 OpenBabel10082411353D

 47 58  0  0  0  0  0  0  0  0999 V2000
    8.0806    9.0240  -12.7589 C   0  0  0  0  0  0  0  0  0  0  0  0
    8.6514    7.8645  -12.2948 C   0  0  0  0  0  0  0  0  0  0  0  0
    9.9575    7.9974  -11.8426 C   0  0  0  0  0  0  0  0  0  0  0  0
   10.7657    6.8667  -11.6050 C   0  0  1  0  0  0  0  0  0  0  0  0
   10.7682    5.9590  -12.8271 C   0  0  0  0  0  0  0  0  0  0  0  0
   12.1553    7.3846  -11.2315 C   0  0  0  0  0  0  0  0  0  0  0  0
    8.0676    6.6451  -12.2974 C   0  0  0  0  0  0  0  0  0  0  0  0
   10.1892    6.1240  -10.3860 C   0  0  0  0  0  0  0  0  0  0  0  0
   11.8375    5.4373  -13.3240 O   0  0  0  0  0  0  0  0  0  0  0  0
    8.6785    5.4761  -13.0273 C   0  0  1  0  0  0  0  0  0  0  0  0
    9.1969    5.2405  -10.4969 C   0  0  2  0  0  0  0  0  0  0  0  0
    7.2213    6.2210  -11.3074 C   0  0  2  0  0  0  0  0  0  0  0  0
   12.5590    7.6872   -9.9896 C   0  0  0  0  0  0  0  0  0  0  0  0
    9.7633    5.0333  -12.9720 C   0  0  1  0  0  0  0  0  0  0  0  0
   10.0661    4.0167  -14.0373 N   0  0  0  0  0  0  0  0  0  0  0  0
   13.6906    8.3004   -9.6233 O   0  0  0  0  0  0  0  0  0  0  0  0
    7.6357    4.5123  -12.6317 C   0  0  2  0  0  0  0  0  0  0  0  0
    6.8831    4.9171  -11.7031 C   0  0  2  0  0  0  0  0  0  0  0  0
   10.5937    6.6967   -9.1779 C   0  0  0  0  0  0  0  0  0  0  0  0
    9.5087    4.3263  -11.6925 C   0  0  2  0  0  0  0  0  0  0  0  0
   11.6359    7.4449   -8.9125 C   0  0  0  0  0  0  0  0  0  0  0  0
   11.9716    7.9159   -7.6200 C   0  0  0  0  0  0  0  0  0  0  0  0
    8.4648    3.6122  -12.2840 C   0  0  1  0  0  0  0  0  0  0  0  0
    7.9253    2.8004  -11.3926 C   0  0  0  0  0  0  0  0  0  0  0  0
    5.6047    4.5059  -11.7589 C   0  0  0  0  0  0  0  0  0  0  0  0
    7.6606    4.1297  -10.5699 C   0  0  0  0  0  0  0  0  0  0  0  0
   10.9559    7.6849   -6.6057 C   0  0  0  0  0  0  0  0  0  0  0  0
    8.0094    4.5092   -9.5664 C   0  0  0  0  0  0  0  0  0  0  0  0
    8.3033    4.0627   -8.4980 C   0  0  0  0  0  0  0  0  0  0  0  0
    6.3587    7.1012  -11.0392 O   0  0  0  0  0  0  0  0  0  0  0  0
   11.0186    3.9598  -14.9226 C   0  0  0  0  0  0  0  0  0  0  0  0
    8.1758    5.8633  -10.2511 C   0  0  1  0  0  0  0  0  0  0  0  0
   11.4648    2.7104  -15.2650 O   0  0  0  0  0  0  0  0  0  0  0  0
    9.9512    6.8220   -6.8436 C   0  0  0  0  0  0  0  0  0  0  0  0
    9.6899    6.3705   -8.1082 C   0  0  2  0  0  0  0  0  0  0  0  0
   11.2597    8.2901   -5.2396 C   0  0  0  0  0  0  0  0  0  0  0  0
   10.9483    4.9354  -15.8312 C   0  0  0  0  0  0  0  0  0  0  0  0
    9.2428    4.9682   -7.8294 C   0  0  0  0  0  0  0  0  0  0  0  0
   11.9211    7.5870   -4.3303 C   0  0  0  0  0  0  0  0  0  0  0  0
   10.9171    9.6712   -4.9168 C   0  0  0  0  0  0  0  0  0  0  0  0
    9.5671    2.7782  -13.2744 C   0  0  0  0  0  0  0  0  0  0  0  0
   10.2689   10.5089   -5.9818 F   0  0  0  0  0  0  0  0  0  0  0  0
   11.2729   10.3100   -3.8282 C   0  0  0  0  0  0  0  0  0  0  0  0
   12.2902    6.0789   -4.5025 C   0  0  0  0  0  0  0  0  0  0  0  0
   12.2562    8.1879   -3.0955 C   0  0  0  0  0  0  0  0  0  0  0  0
   12.9162    7.4321   -1.9124 C   0  0  0  0  0  0  0  0  0  0  0  0
   11.8958    9.5636   -2.8282 C   0  0  0  0  0  0  0  0  0  0  0  0
  1  2  1  0  0  0  0
  2  3  1  0  0  0  0
  2  7  2  0  0  0  0
  4  3  1  6  0  0  0
  4  5  1  0  0  0  0
  4  6  1  0  0  0  0
  4  8  1  0  0  0  0
  5  9  2  0  0  0  0
  6 13  1  0  0  0  0
  7 12  1  0  0  0  0
  8 19  2  0  0  0  0
 10  7  1  1  0  0  0
 10 14  1  0  0  0  0
 10 17  1  0  0  0  0
 11  8  1  6  0  0  0
 11 20  1  0  0  0  0
 11 32  1  0  0  0  0
 12 18  1  0  0  0  0
 12 30  1  1  0  0  0
 12 32  1  0  0  0  0
 13 16  2  0  0  0  0
 13 21  1  0  0  0  0
 14  5  1  1  0  0  0
 14 15  1  0  0  0  0
 14 20  1  0  0  0  0
 15 31  1  0  0  0  0
 15 41  1  0  0  0  0
 17 18  1  0  0  0  0
 17 23  1  0  0  0  0
 18 25  1  0  0  0  0
 18 26  1  0  0  0  0
 19 21  1  0  0  0  0
 19 35  1  0  0  0  0
 20 23  1  0  0  0  0
 21 22  2  0  0  0  0
 22 27  1  0  0  0  0
 23 24  1  0  0  0  0
 23 41  1  0  0  0  0
 24 26  1  0  0  0  0
 26 28  2  0  0  0  0
 27 34  2  0  0  0  0
 27 36  1  0  0  0  0
 28 29  1  0  0  0  0
 28 32  1  0  0  0  0
 29 38  1  0  0  0  0
 31 33  2  0  0  0  0
 31 37  1  0  0  0  0
 34 35  1  0  0  0  0
 35 38  1  0  0  0  0
 36 39  1  0  0  0  0
 36 40  2  0  0  0  0
 39 44  1  0  0  0  0
 39 45  2  0  0  0  0
 40 42  1  0  0  0  0
 40 43  1  0  0  0  0
 43 47  2  0  0  0  0
 45 46  1  0  0  0  0
 45 47  1  0  0  0  0
M  END
$$$$

 OpenBabel10082411353D

 48 58  0  0  0  0  0  0  0  0999 V2000
    8.0806    9.0240  -12.7589 C   0  0  0  0  0  0  0  0  0  0  0  0
    8.6514    7.8645  -12.2948 C   0  0  0  0  0  0  0  0  0  0  0  0
    9.9575    7.9974  -11.8426 C   0  0  0  0  0  0  0  0  0  0  0  0
   10.7657    6.8667  -11.6050 C   0  0  1  0  0  0  0  0  0  0  0  0
   10.7682    5.9590  -12.8271 C   0  0  0  0  0  0  0  0  0  0  0  0
   12.1553    7.3846  -11.2315 C   0  0  0  0  0  0  0  0  0  0  0  0
    8.0676    6.6451  -12.2974 C   0  0  0  0  0  0  0  0  0  0  0  0
   10.1892    6.1240  -10.3860 C   0  0  0  0  0  0  0  0  0  0  0  0
   11.8375    5.4373  -13.3240 O   0  0  0  0  0  0  0  0  0  0  0  0
    8.6785    5.4761  -13.0273 C   0  0  1  0  0  0  0  0  0  0  0  0
    9.1969    5.2405  -10.4969 C   0  0  2  0  0  0  0  0  0  0  0  0
    7.2213    6.2210  -11.3074 C   0  0  2  0  0  0  0  0  0  0  0  0
   12.5590    7.6872   -9.9896 C   0  0  0  0  0  0  0  0  0  0  0  0
    9.7633    5.0333  -12.9720 C   0  0  1  0  0  0  0  0  0  0  0  0
   10.0661    4.0167  -14.0373 N   0  0  0  0  0  0  0  0  0  0  0  0
   13.6906    8.3004   -9.6233 O   0  0  0  0  0  0  0  0  0  0  0  0
    7.6357    4.5123  -12.6317 C   0  0  2  0  0  0  0  0  0  0  0  0
    6.8831    4.9171  -11.7031 C   0  0  2  0  0  0  0  0  0  0  0  0
   10.5937    6.6967   -9.1779 C   0  0  0  0  0  0  0  0  0  0  0  0
    9.5087    4.3263  -11.6925 C   0  0  2  0  0  0  0  0  0  0  0  0
   11.6359    7.4449   -8.9125 C   0  0  0  0  0  0  0  0  0  0  0  0
   11.9716    7.9159   -7.6200 C   0  0  0  0  0  0  0  0  0  0  0  0
    8.4648    3.6122  -12.2840 C   0  0  1  0  0  0  0  0  0  0  0  0
    7.9253    2.8004  -11.3926 C   0  0  0  0  0  0  0  0  0  0  0  0
    5.6047    4.5059  -11.7589 C   0  0  0  0  0  0  0  0  0  0  0  0
    7.6606    4.1297  -10.5699 C   0  0  0  0  0  0  0  0  0  0  0  0
   10.9559    7.6849   -6.6057 C   0  0  0  0  0  0  0  0  0  0  0  0
    8.0094    4.5092   -9.5664 C   0  0  0  0  0  0  0  0  0  0  0  0
    8.3033    4.0627   -8.4980 C   0  0  0  0  0  0  0  0  0  0  0  0
    6.3587    7.1012  -11.0392 O   0  0  0  0  0  0  0  0  0  0  0  0
   11.1885    8.2709   -5.2029 C   0  0  0  0  0  0  0  0  0  0  0  0
    8.1551    5.8688  -10.2415 C   0  0  0  0  0  0  0  0  0  0  0  0
    9.3562    2.8931  -13.4173 C   0  0  0  0  0  0  0  0  0  0  0  0
    9.4006    1.8057  -13.6789 O   0  0  0  0  0  0  0  0  0  0  0  0
   10.6448    3.9324  -15.2556 C   0  0  0  0  0  0  0  0  0  0  0  0
    9.9004    6.8953   -6.7235 C   0  0  0  0  0  0  0  0  0  0  0  0
    8.1584    4.7418   -7.5351 O   0  0  0  0  0  0  0  0  0  0  0  0
    8.5999    2.9050   -8.2804 O   0  0  0  0  0  0  0  0  0  0  0  0
   11.6420    7.3504   -4.2035 C   0  0  0  0  0  0  0  0  0  0  0  0
    9.6081    6.4128   -8.0398 C   0  0  1  0  0  0  0  0  0  0  0  0
    8.3828    5.9446   -7.9275 C   0  0  0  0  0  0  0  0  0  0  0  0
   11.1933    9.6919   -4.9542 C   0  0  0  0  0  0  0  0  0  0  0  0
   11.7827    5.9124   -4.4646 C   0  0  0  0  0  0  0  0  0  0  0  0
   10.7919   10.6366   -6.1001 C   0  0  0  0  0  0  0  0  0  0  0  0
   11.7024    7.9028   -3.1143 C   0  0  0  0  0  0  0  0  0  0  0  0
   12.1477    7.0211   -1.9009 C   0  0  0  0  0  0  0  0  0  0  0  0
   11.3373   10.0513   -3.5776 C   0  0  0  0  0  0  0  0  0  0  0  0
   11.8271    9.2685   -2.6861 C   0  0  0  0  0  0  0  0  0  0  0  0
  1  2  1  0  0  0  0
  2  3  1  0  0  0  0
  2  7  2  0  0  0  0
  4  3  1  6  0  0  0
  4  5  1  0  0  0  0
  4  6  1  0  0  0  0
  4  8  1  0  0  0  0
  5  9  2  0  0  0  0
  6 13  1  0  0  0  0
  7 12  1  0  0  0  0
  8 11  1  0  0  0  0
  8 19  2  0  0  0  0
 10  7  1  1  0  0  0
 10 14  1  0  0  0  0
 10 17  1  0  0  0  0
 11 20  1  0  0  0  0
 11 32  1  6  0  0  0
 12 18  1  0  0  0  0
 12 30  1  6  0  0  0
 13 16  2  0  0  0  0
 13 21  1  0  0  0  0
 14  5  1  1  0  0  0
 14 15  1  0  0  0  0
 14 20  1  0  0  0  0
 15 33  1  0  0  0  0
 15 35  1  0  0  0  0
 17 18  1  0  0  0  0
 17 23  1  0  0  0  0
 18 25  1  0  0  0  0
 18 26  1  0  0  0  0
 19 21  1  0  0  0  0
 19 40  1  0  0  0  0
 20 23  1  0  0  0  0
 21 22  2  0  0  0  0
 22 27  1  0  0  0  0
 23 24  1  0  0  0  0
 23 33  1  0  0  0  0
 24 26  1  0  0  0  0
 26 28  2  0  0  0  0
 27 31  1  0  0  0  0
 27 36  2  0  0  0  0
 28 29  1  0  0  0  0
 28 32  1  0  0  0  0
 29 37  1  0  0  0  0
 29 38  2  0  0  0  0
 31 39  1  0  0  0  0
 31 42  2  0  0  0  0
 33 34  2  0  0  0  0
 36 40  1  0  0  0  0
 37 41  1  0  0  0  0
 39 43  1  0  0  0  0
 39 45  2  0  0  0  0
 40 41  1  0  0  0  0
 42 44  1  0  0  0  0
 42 47  1  0  0  0  0
 45 46  1  0  0  0  0
 45 48  1  0  0  0  0
 47 48  2  0  0  0  0
M  END
$$$$

 OpenBabel10082411353D

 27 30  0  0  0  0  0  0  0  0999 V2000
   10.5338    9.5630   -5.0683 C   0  0  0  0  0  0  0  0  0  0  0  0
   11.6326    9.3232   -4.4343 C   0  0  0  0  0  0  0  0  0  0  0  0
   10.1175    8.4558   -5.9583 O   0  0  0  0  0  0  0  0  0  0  0  0
   11.2137    7.9307   -6.4519 C   0  0  1  0  0  0  0  0  0  0  0  0
   12.3805    8.4362   -5.4668 C   0  0  0  0  0  0  0  0  0  0  0  0
   11.1829    6.4410   -6.3835 C   0  0  0  0  0  0  0  0  0  0  0  0
   11.5307    8.4278   -7.8431 C   0  0  0  0  0  0  0  0  0  0  0  0
   10.9695    7.6928   -8.9182 C   0  0  0  0  0  0  0  0  0  0  0  0
   10.6724    8.2768  -10.0336 C   0  0  0  0  0  0  0  0  0  0  0  0
   10.0385    7.4564  -11.1366 C   0  0  0  0  0  0  0  0  0  0  0  0
   10.1397    6.1099  -11.1838 C   0  0  0  0  0  0  0  0  0  0  0  0
    9.3255    8.2273  -12.2243 C   0  0  0  0  0  0  0  0  0  0  0  0
    8.1145    8.9106  -11.7538 C   0  0  0  0  0  0  0  0  0  0  0  0
   10.4444    5.4278  -10.0118 C   0  0  0  0  0  0  0  0  0  0  0  0
   10.9789    6.1875   -8.8320 C   0  0  0  0  0  0  0  0  0  0  0  0
   11.0092    5.6276   -7.5622 C   0  0  0  0  0  0  0  0  0  0  0  0
   11.2416    5.7595   -5.1973 C   0  0  0  0  0  0  0  0  0  0  0  0
   10.0090    5.3078  -12.3223 C   0  0  0  0  0  0  0  0  0  0  0  0
    8.8572    4.8126  -12.7440 C   0  0  0  0  0  0  0  0  0  0  0  0
    8.7621    3.9990  -13.8805 C   0  0  1  0  0  0  0  0  0  0  0  0
    7.5415    4.9426  -12.0072 C   0  0  0  0  0  0  0  0  0  0  0  0
    6.6661    3.7905  -12.2556 C   0  0  0  0  0  0  0  0  0  0  0  0
   10.0176    3.9221  -14.6890 C   0  0  0  0  0  0  0  0  0  0  0  0
    6.7402    3.2052  -13.5595 C   0  0  0  0  0  0  0  0  0  0  0  0
    7.8337    3.1422  -14.0720 N   0  0  0  0  0  0  0  0  0  0  0  0
   10.1884    4.8049  -15.6387 O   0  0  0  0  0  0  0  0  0  0  0  0
   10.9897    3.0133  -14.5283 O   0  0  0  0  0  0  0  0  0  0  0  0
  1  2  1  0  0  0  0
  1  3  1  0  0  0  0
  2  5  1  0  0  0  0
  3  4  1  0  0  0  0
  4  5  1  1  0  0  0
  4  6  1  0  0  0  0
  4  7  1  0  0  0  0
  6 16  2  0  0  0  0
  6 17  1  0  0  0  0
  7  8  1  0  0  0  0
  8  9  2  0  0  0  0
  8 15  1  0  0  0  0
  9 10  1  0  0  0  0
 10 11  2  0  0  0  0
 10 12  1  0  0  0  0
 11 14  1  0  0  0  0
 11 18  1  0  0  0  0
 12 13  1  0  0  0  0
 14 15  2  0  0  0  0
 15 16  1  0  0  0  0
 18 19  2  3  0  0  0
 19 20  1  0  0  0  0
 19 21  1  0  0  0  0
 20 23  1  1  0  0  0
 20 25  1  0  0  0  0
 21 22  1  0  0  0  0
 22 24  1  0  0  0  0
 23 26  2  0  0  0  0
 23 27  1  0  0  0  0
 24 25  1  0  0  0  0
M  END
$$$$

 OpenBabel10082411353D

 48 60  0  0  0  0  0  0  0  0999 V2000
    8.0806    9.0240  -12.7589 C   0  0  0  0  0  0  0  0  0  0  0  0
    8.6514    7.8645  -12.2948 C   0  0  0  0  0  0  0  0  0  0  0  0
    9.9575    7.9974  -11.8426 C   0  0  0  0  0  0  0  0  0  0  0  0
   10.7657    6.8667  -11.6050 C   0  0  1  0  0  0  0  0  0  0  0  0
   10.7682    5.9590  -12.8271 C   0  0  0  0  0  0  0  0  0  0  0  0
   12.1553    7.3846  -11.2315 C   0  0  0  0  0  0  0  0  0  0  0  0
    8.0676    6.6451  -12.2974 C   0  0  0  0  0  0  0  0  0  0  0  0
   10.1892    6.1240  -10.3860 C   0  0  0  0  0  0  0  0  0  0  0  0
   11.8375    5.4373  -13.3240 O   0  0  0  0  0  0  0  0  0  0  0  0
    8.6785    5.4761  -13.0273 C   0  0  1  0  0  0  0  0  0  0  0  0
    9.1969    5.2405  -10.4969 C   0  0  2  0  0  0  0  0  0  0  0  0
    7.2213    6.2210  -11.3074 C   0  0  2  0  0  0  0  0  0  0  0  0
   12.5590    7.6872   -9.9896 C   0  0  0  0  0  0  0  0  0  0  0  0
    9.7633    5.0333  -12.9720 C   0  0  1  0  0  0  0  0  0  0  0  0
   10.0661    4.0167  -14.0373 N   0  0  0  0  0  0  0  0  0  0  0  0
   13.6906    8.3004   -9.6233 O   0  0  0  0  0  0  0  0  0  0  0  0
    7.6357    4.5123  -12.6317 C   0  0  2  0  0  0  0  0  0  0  0  0
    6.8831    4.9171  -11.7031 C   0  0  2  0  0  0  0  0  0  0  0  0
   10.5937    6.6967   -9.1779 C   0  0  0  0  0  0  0  0  0  0  0  0
    9.5087    4.3263  -11.6925 C   0  0  2  0  0  0  0  0  0  0  0  0
   11.6359    7.4449   -8.9125 C   0  0  0  0  0  0  0  0  0  0  0  0
   11.9716    7.9159   -7.6200 C   0  0  0  0  0  0  0  0  0  0  0  0
    8.4648    3.6122  -12.2840 C   0  0  1  0  0  0  0  0  0  0  0  0
    7.9253    2.8004  -11.3926 C   0  0  0  0  0  0  0  0  0  0  0  0
    5.6047    4.5059  -11.7589 C   0  0  0  0  0  0  0  0  0  0  0  0
    7.6606    4.1297  -10.5699 C   0  0  0  0  0  0  0  0  0  0  0  0
   10.9559    7.6849   -6.6057 C   0  0  0  0  0  0  0  0  0  0  0  0
    8.0094    4.5092   -9.5664 C   0  0  0  0  0  0  0  0  0  0  0  0
    8.3033    4.0627   -8.4980 C   0  0  0  0  0  0  0  0  0  0  0  0
    6.3587    7.1012  -11.0392 O   0  0  0  0  0  0  0  0  0  0  0  0
   11.0186    3.9598  -14.9226 C   0  0  0  0  0  0  0  0  0  0  0  0
    8.1758    5.8633  -10.2511 C   0  0  1  0  0  0  0  0  0  0  0  0
   11.4648    2.7104  -15.2650 O   0  0  0  0  0  0  0  0  0  0  0  0
    9.9512    6.8220   -6.8436 C   0  0  0  0  0  0  0  0  0  0  0  0
    9.6899    6.3705   -8.1082 C   0  0  2  0  0  0  0  0  0  0  0  0
   11.2597    8.2901   -5.2396 C   0  0  0  0  0  0  0  0  0  0  0  0
   11.7295    4.9426  -15.4284 O   0  0  0  0  0  0  0  0  0  0  0  0
    9.2745    4.9481   -7.8103 C   0  0  0  0  0  0  0  0  0  0  0  0
    9.2182    2.8872  -13.7570 C   0  0  0  0  0  0  0  0  0  0  0  0
   11.9188    7.5853   -4.3293 C   0  0  0  0  0  0  0  0  0  0  0  0
   11.7780    6.4589   -4.0859 C   0  0  0  0  0  0  0  0  0  0  0  0
   12.5991    8.4195   -3.2071 C   0  0  0  0  0  0  0  0  0  0  0  0
   10.9410    9.6801   -5.0871 C   0  0  0  0  0  0  0  0  0  0  0  0
   13.1715    7.6467   -2.2033 C   0  0  0  0  0  0  0  0  0  0  0  0
   12.1796    9.7493   -3.1271 C   0  0  0  0  0  0  0  0  0  0  0  0
   12.4360    5.6956   -3.0557 C   0  0  0  0  0  0  0  0  0  0  0  0
   11.5036   10.3969   -4.0581 C   0  0  0  0  0  0  0  0  0  0  0  0
   12.9620    6.3910   -2.1454 C   0  0  0  0  0  0  0  0  0  0  0  0
  1  2  1  0  0  0  0
  2  3  1  0  0  0  0
  2  7  2  0  0  0  0
  4  3  1  6  0  0  0
  4  5  1  0  0  0  0
  4  6  1  0  0  0  0
  4  8  1  0  0  0  0
  5  9  2  0  0  0  0
  6 13  1  0  0  0  0
  7 12  1  0  0  0  0
  8 19  2  0  0  0  0
 10  7  1  1  0  0  0
 10 14  1  0  0  0  0
 10 17  1  0  0  0  0
 11  8  1  6  0  0  0
 11 20  1  0  0  0  0
 11 32  1  0  0  0  0
 12 18  1  0  0  0  0
 12 30  1  1  0  0  0
 12 32  1  0  0  0  0
 13 16  2  0  0  0  0
 13 21  1  0  0  0  0
 14  5  1  1  0  0  0
 14 15  1  0  0  0  0
 14 20  1  0  0  0  0
 15 31  1  0  0  0  0
 15 39  1  0  0  0  0
 17 18  1  0  0  0  0
 17 23  1  0  0  0  0
 18 25  1  0  0  0  0
 18 26  1  0  0  0  0
 19 21  1  0  0  0  0
 19 35  1  0  0  0  0
 20 23  1  0  0  0  0
 21 22  2  0  0  0  0
 22 27  1  0  0  0  0
 23 24  1  0  0  0  0
 23 39  1  0  0  0  0
 24 26  1  0  0  0  0
 26 28  2  0  0  0  0
 27 34  2  0  0  0  0
 27 36  1  0  0  0  0
 28 29  1  0  0  0  0
 28 32  1  0  0  0  0
 29 38  1  0  0  0  0
 31 33  2  0  0  0  0
 31 37  1  0  0  0  0
 34 35  1  0  0  0  0
 35 38  1  0  0  0  0
 36 40  1  0  0  0  0
 36 43  2  0  0  0  0
 40 41  2  0  0  0  0
 40 42  1  0  0  0  0
 41 46  1  0  0  0  0
 42 44  1  0  0  0  0
 42 45  2  0  0  0  0
 43 47  1  0  0  0  0
 44 48  1  0  0  0  0
 45 47  1  0  0  0  0
 46 48  1  0  0  0  0
M  END
$$$$

 OpenBabel10082411353D

 48 60  0  0  0  0  0  0  0  0999 V2000
    8.0806    9.0240  -12.7589 C   0  0  0  0  0  0  0  0  0  0  0  0
    8.6514    7.8645  -12.2948 C   0  0  0  0  0  0  0  0  0  0  0  0
    9.9575    7.9974  -11.8426 C   0  0  0  0  0  0  0  0  0  0  0  0
   10.7657    6.8667  -11.6050 C   0  0  1  0  0  0  0  0  0  0  0  0
   10.7682    5.9590  -12.8271 C   0  0  0  0  0  0  0  0  0  0  0  0
   12.1553    7.3846  -11.2315 C   0  0  0  0  0  0  0  0  0  0  0  0
    8.0676    6.6451  -12.2974 C   0  0  0  0  0  0  0  0  0  0  0  0
   10.1892    6.1240  -10.3860 C   0  0  0  0  0  0  0  0  0  0  0  0
   11.8375    5.4373  -13.3240 O   0  0  0  0  0  0  0  0  0  0  0  0
    8.6785    5.4761  -13.0273 C   0  0  1  0  0  0  0  0  0  0  0  0
    9.1969    5.2405  -10.4969 C   0  0  2  0  0  0  0  0  0  0  0  0
    7.2213    6.2210  -11.3074 C   0  0  2  0  0  0  0  0  0  0  0  0
   12.5590    7.6872   -9.9896 C   0  0  0  0  0  0  0  0  0  0  0  0
    9.7633    5.0333  -12.9720 C   0  0  1  0  0  0  0  0  0  0  0  0
   10.0661    4.0167  -14.0373 N   0  0  0  0  0  0  0  0  0  0  0  0
   13.6906    8.3004   -9.6233 O   0  0  0  0  0  0  0  0  0  0  0  0
    7.6357    4.5123  -12.6317 C   0  0  2  0  0  0  0  0  0  0  0  0
    6.8831    4.9171  -11.7031 C   0  0  2  0  0  0  0  0  0  0  0  0
   10.5937    6.6967   -9.1779 C   0  0  0  0  0  0  0  0  0  0  0  0
    9.5087    4.3263  -11.6925 C   0  0  2  0  0  0  0  0  0  0  0  0
   11.6359    7.4449   -8.9125 C   0  0  0  0  0  0  0  0  0  0  0  0
   11.9716    7.9159   -7.6200 C   0  0  0  0  0  0  0  0  0  0  0  0
    8.4648    3.6122  -12.2840 C   0  0  1  0  0  0  0  0  0  0  0  0
    7.9253    2.8004  -11.3926 C   0  0  0  0  0  0  0  0  0  0  0  0
    5.6047    4.5059  -11.7589 C   0  0  0  0  0  0  0  0  0  0  0  0
    7.6606    4.1297  -10.5699 C   0  0  0  0  0  0  0  0  0  0  0  0
   10.9559    7.6849   -6.6057 C   0  0  0  0  0  0  0  0  0  0  0  0
    8.0094    4.5092   -9.5664 C   0  0  0  0  0  0  0  0  0  0  0  0
    8.3033    4.0627   -8.4980 C   0  0  0  0  0  0  0  0  0  0  0  0
    6.3587    7.1012  -11.0392 O   0  0  0  0  0  0  0  0  0  0  0  0
   11.0186    3.9598  -14.9226 C   0  0  0  0  0  0  0  0  0  0  0  0
    8.1758    5.8633  -10.2511 C   0  0  1  0  0  0  0  0  0  0  0  0
   11.4648    2.7104  -15.2650 O   0  0  0  0  0  0  0  0  0  0  0  0
    9.9512    6.8220   -6.8436 C   0  0  0  0  0  0  0  0  0  0  0  0
    9.6899    6.3705   -8.1082 C   0  0  2  0  0  0  0  0  0  0  0  0
   11.2597    8.2901   -5.2396 C   0  0  0  0  0  0  0  0  0  0  0  0
   11.7295    4.9426  -15.4284 O   0  0  0  0  0  0  0  0  0  0  0  0
    9.2745    4.9481   -7.8103 C   0  0  0  0  0  0  0  0  0  0  0  0
    9.2182    2.8872  -13.7570 C   0  0  0  0  0  0  0  0  0  0  0  0
   11.9188    7.5853   -4.3293 C   0  0  0  0  0  0  0  0  0  0  0  0
   11.7780    6.4589   -4.0859 C   0  0  0  0  0  0  0  0  0  0  0  0
   12.3068    8.5128   -3.0579 C   0  0  0  0  0  0  0  0  0  0  0  0
   11.0012    9.7012   -5.1219 C   0  0  0  0  0  0  0  0  0  0  0  0
   12.9527    7.7236   -1.9868 C   0  0  0  0  0  0  0  0  0  0  0  0
   12.7835    6.3836   -1.9748 C   0  0  0  0  0  0  0  0  0  0  0  0
   12.0093    9.8279   -3.2531 C   0  0  0  0  0  0  0  0  0  0  0  0
   12.2903    5.7877   -3.1223 C   0  0  0  0  0  0  0  0  0  0  0  0
   11.4321   10.4265   -4.1717 C   0  0  0  0  0  0  0  0  0  0  0  0
  1  2  1  0  0  0  0
  2  3  1  0  0  0  0
  2  7  2  0  0  0  0
  4  3  1  6  0  0  0
  4  5  1  0  0  0  0
  4  6  1  0  0  0  0
  4  8  1  0  0  0  0
  5  9  2  0  0  0  0
  6 13  1  0  0  0  0
  7 12  1  0  0  0  0
  8 19  2  0  0  0  0
 10  7  1  1  0  0  0
 10 14  1  0  0  0  0
 10 17  1  0  0  0  0
 11  8  1  6  0  0  0
 11 20  1  0  0  0  0
 11 32  1  0  0  0  0
 12 18  1  0  0  0  0
 12 30  1  1  0  0  0
 12 32  1  0  0  0  0
 13 16  2  0  0  0  0
 13 21  1  0  0  0  0
 14  5  1  1  0  0  0
 14 15  1  0  0  0  0
 14 20  1  0  0  0  0
 15 31  1  0  0  0  0
 15 39  1  0  0  0  0
 17 18  1  0  0  0  0
 17 23  1  0  0  0  0
 18 25  1  0  0  0  0
 18 26  1  0  0  0  0
 19 21  1  0  0  0  0
 19 35  1  0  0  0  0
 20 23  1  0  0  0  0
 21 22  2  0  0  0  0
 22 27  1  0  0  0  0
 23 24  1  0  0  0  0
 23 39  1  0  0  0  0
 24 26  1  0  0  0  0
 26 28  2  0  0  0  0
 27 34  2  0  0  0  0
 27 36  1  0  0  0  0
 28 29  1  0  0  0  0
 28 32  1  0  0  0  0
 29 38  1  0  0  0  0
 31 33  2  0  0  0  0
 31 37  1  0  0  0  0
 34 35  1  0  0  0  0
 35 38  1  0  0  0  0
 36 40  1  0  0  0  0
 36 43  2  0  0  0  0
 40 41  2  0  0  0  0
 40 42  1  0  0  0  0
 41 47  1  0  0  0  0
 42 44  1  0  0  0  0
 42 46  2  0  0  0  0
 43 48  1  0  0  0  0
 44 45  2  0  0  0  0
 45 47  1  0  0  0  0
 46 48  1  0  0  0  0
M  END
$$$$

 OpenBabel10082411353D

 48 59  0  0  0  0  0  0  0  0999 V2000
    8.0806    9.0240  -12.7589 C   0  0  0  0  0  0  0  0  0  0  0  0
    8.6514    7.8645  -12.2948 C   0  0  0  0  0  0  0  0  0  0  0  0
    9.9575    7.9974  -11.8426 C   0  0  0  0  0  0  0  0  0  0  0  0
   10.7657    6.8667  -11.6050 C   0  0  1  0  0  0  0  0  0  0  0  0
   10.7682    5.9590  -12.8271 C   0  0  0  0  0  0  0  0  0  0  0  0
   12.1553    7.3846  -11.2315 C   0  0  0  0  0  0  0  0  0  0  0  0
    8.0676    6.6451  -12.2974 C   0  0  0  0  0  0  0  0  0  0  0  0
   10.1892    6.1240  -10.3860 C   0  0  0  0  0  0  0  0  0  0  0  0
   11.8375    5.4373  -13.3240 O   0  0  0  0  0  0  0  0  0  0  0  0
    8.6785    5.4761  -13.0273 C   0  0  1  0  0  0  0  0  0  0  0  0
    9.1969    5.2405  -10.4969 C   0  0  2  0  0  0  0  0  0  0  0  0
    7.2213    6.2210  -11.3074 C   0  0  2  0  0  0  0  0  0  0  0  0
   12.5590    7.6872   -9.9896 C   0  0  0  0  0  0  0  0  0  0  0  0
    9.7633    5.0333  -12.9720 C   0  0  1  0  0  0  0  0  0  0  0  0
   10.0661    4.0167  -14.0373 N   0  0  0  0  0  0  0  0  0  0  0  0
   13.6906    8.3004   -9.6233 O   0  0  0  0  0  0  0  0  0  0  0  0
    7.6357    4.5123  -12.6317 C   0  0  2  0  0  0  0  0  0  0  0  0
    6.8831    4.9171  -11.7031 C   0  0  2  0  0  0  0  0  0  0  0  0
   10.5937    6.6967   -9.1779 C   0  0  0  0  0  0  0  0  0  0  0  0
    9.5087    4.3263  -11.6925 C   0  0  2  0  0  0  0  0  0  0  0  0
   11.6359    7.4449   -8.9125 C   0  0  0  0  0  0  0  0  0  0  0  0
   11.9716    7.9159   -7.6200 C   0  0  0  0  0  0  0  0  0  0  0  0
    8.4648    3.6122  -12.2840 C   0  0  1  0  0  0  0  0  0  0  0  0
    7.9253    2.8004  -11.3926 C   0  0  0  0  0  0  0  0  0  0  0  0
    5.6047    4.5059  -11.7589 C   0  0  0  0  0  0  0  0  0  0  0  0
    7.6606    4.1297  -10.5699 C   0  0  0  0  0  0  0  0  0  0  0  0
   10.9559    7.6849   -6.6057 C   0  0  0  0  0  0  0  0  0  0  0  0
    8.0094    4.5092   -9.5664 C   0  0  0  0  0  0  0  0  0  0  0  0
    8.3033    4.0627   -8.4980 C   0  0  0  0  0  0  0  0  0  0  0  0
    6.3587    7.1012  -11.0392 O   0  0  0  0  0  0  0  0  0  0  0  0
   11.1885    8.2709   -5.2029 C   0  0  0  0  0  0  0  0  0  0  0  0
    8.1551    5.8688  -10.2415 C   0  0  1  0  0  0  0  0  0  0  0  0
    9.3562    2.8931  -13.4173 C   0  0  0  0  0  0  0  0  0  0  0  0
    9.4006    1.8057  -13.6789 O   0  0  0  0  0  0  0  0  0  0  0  0
   10.6448    3.9324  -15.2556 C   0  0  0  0  0  0  0  0  0  0  0  0
    9.9004    6.8953   -6.7235 C   0  0  0  0  0  0  0  0  0  0  0  0
    8.1584    4.7418   -7.5351 O   0  0  0  0  0  0  0  0  0  0  0  0
    8.5999    2.9050   -8.2804 O   0  0  0  0  0  0  0  0  0  0  0  0
   11.6420    7.3504   -4.2035 C   0  0  0  0  0  0  0  0  0  0  0  0
    9.6081    6.4128   -8.0398 C   0  0  1  0  0  0  0  0  0  0  0  0
    8.3828    5.9446   -7.9275 C   0  0  1  0  0  0  0  0  0  0  0  0
   11.1933    9.6919   -4.9542 C   0  0  0  0  0  0  0  0  0  0  0  0
   10.7525   10.6554   -6.1095 F   0  0  0  0  0  0  0  0  0  0  0  0
   11.7302    5.9412   -4.4414 F   0  0  0  0  0  0  0  0  0  0  0  0
   11.9547    7.8788   -2.9448 C   0  0  0  0  0  0  0  0  0  0  0  0
   11.5277   10.2257   -3.7963 C   0  0  0  0  0  0  0  0  0  0  0  0
    8.7729    6.2884   -9.0903 O   0  0  0  0  0  0  0  0  0  0  0  0
   11.9779    9.2917   -2.7248 C   0  0  0  0  0  0  0  0  0  0  0  0
  1  2  1  0  0  0  0
  2  3  1  0  0  0  0
  2  7  2  0  0  0  0
  4  3  1  6  0  0  0
  4  5  1  0  0  0  0
  4  6  1  0  0  0  0
  4  8  1  0  0  0  0
  5  9  2  0  0  0  0
  6 13  1  0  0  0  0
  7 12  1  0  0  0  0
  8 19  2  0  0  0  0
 10  7  1  1  0  0  0
 10 14  1  0  0  0  0
 10 17  1  0  0  0  0
 11  8  1  6  0  0  0
 11 20  1  0  0  0  0
 11 32  1  0  0  0  0
 12 18  1  0  0  0  0
 12 30  1  6  0  0  0
 13 16  2  0  0  0  0
 13 21  1  0  0  0  0
 14  5  1  1  0  0  0
 14 15  1  0  0  0  0
 14 20  1  0  0  0  0
 15 33  1  0  0  0  0
 15 35  1  0  0  0  0
 17 18  1  0  0  0  0
 17 23  1  0  0  0  0
 18 25  1  0  0  0  0
 18 26  1  0  0  0  0
 19 21  1  0  0  0  0
 19 40  1  0  0  0  0
 20 23  1  0  0  0  0
 21 22  2  0  0  0  0
 22 27  1  0  0  0  0
 23 24  1  0  0  0  0
 23 33  1  0  0  0  0
 24 26  1  0  0  0  0
 26 28  2  0  0  0  0
 27 31  1  0  0  0  0
 27 36  2  0  0  0  0
 28 29  1  0  0  0  0
 28 32  1  0  0  0  0
 29 37  1  0  0  0  0
 29 38  2  0  0  0  0
 31 39  1  0  0  0  0
 31 42  2  0  0  0  0
 32 47  1  0  0  0  0
 33 34  2  0  0  0  0
 36 40  1  0  0  0  0
 37 41  1  0  0  0  0
 39 44  1  0  0  0  0
 39 45  2  0  0  0  0
 40 41  1  0  0  0  0
 41 47  1  0  0  0  0
 42 43  1  0  0  0  0
 42 46  1  0  0  0  0
 45 48  1  0  0  0  0
 46 48  2  0  0  0  0
M  END
$$$$

 OpenBabel10082411353D

 48 58  0  0  0  0  0  0  0  0999 V2000
    8.0806    9.0240  -12.7589 C   0  0  0  0  0  0  0  0  0  0  0  0
    8.6514    7.8645  -12.2948 C   0  0  0  0  0  0  0  0  0  0  0  0
    9.9575    7.9974  -11.8426 C   0  0  0  0  0  0  0  0  0  0  0  0
   10.7657    6.8667  -11.6050 C   0  0  1  0  0  0  0  0  0  0  0  0
   10.7682    5.9590  -12.8271 C   0  0  0  0  0  0  0  0  0  0  0  0
   12.1553    7.3846  -11.2315 C   0  0  0  0  0  0  0  0  0  0  0  0
    8.0676    6.6451  -12.2974 C   0  0  0  0  0  0  0  0  0  0  0  0
   10.1892    6.1240  -10.3860 C   0  0  0  0  0  0  0  0  0  0  0  0
   11.8375    5.4373  -13.3240 O   0  0  0  0  0  0  0  0  0  0  0  0
    8.6785    5.4761  -13.0273 C   0  0  1  0  0  0  0  0  0  0  0  0
    9.1969    5.2405  -10.4969 C   0  0  2  0  0  0  0  0  0  0  0  0
    7.2213    6.2210  -11.3074 C   0  0  2  0  0  0  0  0  0  0  0  0
   12.5590    7.6872   -9.9896 C   0  0  0  0  0  0  0  0  0  0  0  0
    9.7633    5.0333  -12.9720 C   0  0  1  0  0  0  0  0  0  0  0  0
   10.0661    4.0167  -14.0373 N   0  0  0  0  0  0  0  0  0  0  0  0
   13.6906    8.3004   -9.6233 O   0  0  0  0  0  0  0  0  0  0  0  0
    7.6357    4.5123  -12.6317 C   0  0  2  0  0  0  0  0  0  0  0  0
    6.8831    4.9171  -11.7031 C   0  0  2  0  0  0  0  0  0  0  0  0
   10.5937    6.6967   -9.1779 C   0  0  0  0  0  0  0  0  0  0  0  0
    9.5087    4.3263  -11.6925 C   0  0  2  0  0  0  0  0  0  0  0  0
   11.6359    7.4449   -8.9125 C   0  0  0  0  0  0  0  0  0  0  0  0
   11.9716    7.9159   -7.6200 C   0  0  0  0  0  0  0  0  0  0  0  0
    8.4648    3.6122  -12.2840 C   0  0  1  0  0  0  0  0  0  0  0  0
    7.9253    2.8004  -11.3926 C   0  0  0  0  0  0  0  0  0  0  0  0
    5.6047    4.5059  -11.7589 C   0  0  0  0  0  0  0  0  0  0  0  0
    7.6606    4.1297  -10.5699 C   0  0  0  0  0  0  0  0  0  0  0  0
   10.9559    7.6849   -6.6057 C   0  0  0  0  0  0  0  0  0  0  0  0
    8.0094    4.5092   -9.5664 C   0  0  0  0  0  0  0  0  0  0  0  0
    8.3033    4.0627   -8.4980 C   0  0  0  0  0  0  0  0  0  0  0  0
    6.3587    7.1012  -11.0392 O   0  0  0  0  0  0  0  0  0  0  0  0
   11.1885    8.2709   -5.2029 C   0  0  0  0  0  0  0  0  0  0  0  0
    8.1551    5.8688  -10.2415 C   0  0  0  0  0  0  0  0  0  0  0  0
    9.3562    2.8931  -13.4173 C   0  0  0  0  0  0  0  0  0  0  0  0
    9.4006    1.8057  -13.6789 O   0  0  0  0  0  0  0  0  0  0  0  0
   10.6448    3.9324  -15.2556 C   0  0  0  0  0  0  0  0  0  0  0  0
    9.9004    6.8953   -6.7235 C   0  0  0  0  0  0  0  0  0  0  0  0
    8.1584    4.7418   -7.5351 O   0  0  0  0  0  0  0  0  0  0  0  0
    8.5999    2.9050   -8.2804 O   0  0  0  0  0  0  0  0  0  0  0  0
   11.6420    7.3504   -4.2035 C   0  0  0  0  0  0  0  0  0  0  0  0
    9.6081    6.4128   -8.0398 C   0  0  1  0  0  0  0  0  0  0  0  0
    8.3828    5.9446   -7.9275 C   0  0  0  0  0  0  0  0  0  0  0  0
   11.1933    9.6919   -4.9542 C   0  0  0  0  0  0  0  0  0  0  0  0
   11.7827    5.9124   -4.4646 C   0  0  0  0  0  0  0  0  0  0  0  0
   10.7919   10.6366   -6.1001 C   0  0  0  0  0  0  0  0  0  0  0  0
   11.7024    7.9028   -3.1143 C   0  0  0  0  0  0  0  0  0  0  0  0
   12.1477    7.0211   -1.9009 C   0  0  0  0  0  0  0  0  0  0  0  0
   11.7251    9.3375   -2.7997 C   0  0  0  0  0  0  0  0  0  0  0  0
   11.4386   10.1743   -3.7682 N   0  0  0  0  0  0  0  0  0  0  0  0
  1  2  1  0  0  0  0
  2  3  1  0  0  0  0
  2  7  2  0  0  0  0
  4  3  1  6  0  0  0
  4  5  1  0  0  0  0
  4  6  1  0  0  0  0
  4  8  1  0  0  0  0
  5  9  2  0  0  0  0
  6 13  1  0  0  0  0
  7 12  1  0  0  0  0
  8 11  1  0  0  0  0
  8 19  2  0  0  0  0
 10  7  1  1  0  0  0
 10 14  1  0  0  0  0
 10 17  1  0  0  0  0
 11 20  1  0  0  0  0
 11 32  1  6  0  0  0
 12 18  1  0  0  0  0
 12 30  1  6  0  0  0
 13 16  2  0  0  0  0
 13 21  1  0  0  0  0
 14  5  1  1  0  0  0
 14 15  1  0  0  0  0
 14 20  1  0  0  0  0
 15 33  1  0  0  0  0
 15 35  1  0  0  0  0
 17 18  1  0  0  0  0
 17 23  1  0  0  0  0
 18 25  1  0  0  0  0
 18 26  1  0  0  0  0
 19 21  1  0  0  0  0
 19 40  1  0  0  0  0
 20 23  1  0  0  0  0
 21 22  2  0  0  0  0
 22 27  1  0  0  0  0
 23 24  1  0  0  0  0
 23 33  1  0  0  0  0
 24 26  1  0  0  0  0
 26 28  2  0  0  0  0
 27 31  1  0  0  0  0
 27 36  2  0  0  0  0
 28 29  1  0  0  0  0
 28 32  1  0  0  0  0
 29 37  1  0  0  0  0
 29 38  2  0  0  0  0
 31 39  1  0  0  0  0
 31 42  2  0  0  0  0
 33 34  2  0  0  0  0
 36 40  1  0  0  0  0
 37 41  1  0  0  0  0
 39 43  1  0  0  0  0
 39 45  2  0  0  0  0
 40 41  1  0  0  0  0
 42 44  1  0  0  0  0
 42 48  1  0  0  0  0
 45 46  1  0  0  0  0
 45 47  1  0  0  0  0
 47 48  2  0  0  0  0
M  END
$$$$

 OpenBabel10082411353D

 48 60  0  0  0  0  0  0  0  0999 V2000
    8.0806    9.0240  -12.7589 C   0  0  0  0  0  0  0  0  0  0  0  0
    8.6514    7.8645  -12.2948 C   0  0  0  0  0  0  0  0  0  0  0  0
    9.9575    7.9974  -11.8426 C   0  0  0  0  0  0  0  0  0  0  0  0
   10.7657    6.8667  -11.6050 C   0  0  1  0  0  0  0  0  0  0  0  0
   10.7682    5.9590  -12.8271 C   0  0  0  0  0  0  0  0  0  0  0  0
   12.1553    7.3846  -11.2315 C   0  0  0  0  0  0  0  0  0  0  0  0
    8.0676    6.6451  -12.2974 C   0  0  0  0  0  0  0  0  0  0  0  0
   10.1892    6.1240  -10.3860 C   0  0  0  0  0  0  0  0  0  0  0  0
   11.8375    5.4373  -13.3240 O   0  0  0  0  0  0  0  0  0  0  0  0
    8.6785    5.4761  -13.0273 C   0  0  1  0  0  0  0  0  0  0  0  0
    9.1969    5.2405  -10.4969 C   0  0  2  0  0  0  0  0  0  0  0  0
    7.2213    6.2210  -11.3074 C   0  0  2  0  0  0  0  0  0  0  0  0
   12.5590    7.6872   -9.9896 C   0  0  0  0  0  0  0  0  0  0  0  0
    9.7633    5.0333  -12.9720 C   0  0  1  0  0  0  0  0  0  0  0  0
   10.0661    4.0167  -14.0373 N   0  0  0  0  0  0  0  0  0  0  0  0
   13.6906    8.3004   -9.6233 O   0  0  0  0  0  0  0  0  0  0  0  0
    7.6357    4.5123  -12.6317 C   0  0  2  0  0  0  0  0  0  0  0  0
    6.8831    4.9171  -11.7031 C   0  0  2  0  0  0  0  0  0  0  0  0
   10.5937    6.6967   -9.1779 C   0  0  0  0  0  0  0  0  0  0  0  0
    9.5087    4.3263  -11.6925 C   0  0  2  0  0  0  0  0  0  0  0  0
   11.6359    7.4449   -8.9125 C   0  0  0  0  0  0  0  0  0  0  0  0
   11.9716    7.9159   -7.6200 C   0  0  0  0  0  0  0  0  0  0  0  0
    8.4648    3.6122  -12.2840 C   0  0  1  0  0  0  0  0  0  0  0  0
    7.9253    2.8004  -11.3926 C   0  0  0  0  0  0  0  0  0  0  0  0
    5.6047    4.5059  -11.7589 C   0  0  0  0  0  0  0  0  0  0  0  0
    7.6606    4.1297  -10.5699 C   0  0  0  0  0  0  0  0  0  0  0  0
   10.9559    7.6849   -6.6057 C   0  0  0  0  0  0  0  0  0  0  0  0
    8.0094    4.5092   -9.5664 C   0  0  0  0  0  0  0  0  0  0  0  0
    8.3033    4.0627   -8.4980 C   0  0  0  0  0  0  0  0  0  0  0  0
    6.3587    7.1012  -11.0392 O   0  0  0  0  0  0  0  0  0  0  0  0
   11.0186    3.9598  -14.9226 C   0  0  0  0  0  0  0  0  0  0  0  0
    8.1758    5.8633  -10.2511 C   0  0  1  0  0  0  0  0  0  0  0  0
   11.4648    2.7104  -15.2650 O   0  0  0  0  0  0  0  0  0  0  0  0
    9.9512    6.8220   -6.8436 C   0  0  0  0  0  0  0  0  0  0  0  0
    9.6899    6.3705   -8.1082 C   0  0  2  0  0  0  0  0  0  0  0  0
   11.2597    8.2901   -5.2396 C   0  0  0  0  0  0  0  0  0  0  0  0
   11.7295    4.9426  -15.4284 O   0  0  0  0  0  0  0  0  0  0  0  0
    9.2745    4.9481   -7.8103 C   0  0  0  0  0  0  0  0  0  0  0  0
    9.1757    2.9301  -13.7559 C   0  0  0  0  0  0  0  0  0  0  0  0
   11.9187    7.5856   -4.3294 C   0  0  0  0  0  0  0  0  0  0  0  0
   11.7781    6.4587   -4.0864 C   0  0  0  0  0  0  0  0  0  0  0  0
   10.9546    9.6992   -5.1271 C   0  0  0  0  0  0  0  0  0  0  0  0
   11.4597   10.2269   -3.9089 C   0  0  0  0  0  0  0  0  0  0  0  0
   12.0024    9.5682   -2.9097 C   0  0  0  0  0  0  0  0  0  0  0  0
   12.2774    8.3819   -2.9964 C   0  0  0  0  0  0  0  0  0  0  0  0
   12.7976    7.6631   -1.9636 C   0  0  0  0  0  0  0  0  0  0  0  0
   12.7632    6.1236   -2.2552 C   0  0  0  0  0  0  0  0  0  0  0  0
   12.4351    5.6553   -3.1665 C   0  0  0  0  0  0  0  0  0  0  0  0
  1  2  1  0  0  0  0
  2  3  1  0  0  0  0
  2  7  2  0  0  0  0
  4  3  1  6  0  0  0
  4  5  1  0  0  0  0
  4  6  1  0  0  0  0
  4  8  1  0  0  0  0
  5  9  2  0  0  0  0
  6 13  1  0  0  0  0
  7 12  1  0  0  0  0
  8 19  2  0  0  0  0
 10  7  1  1  0  0  0
 10 14  1  0  0  0  0
 10 17  1  0  0  0  0
 11  8  1  6  0  0  0
 11 20  1  0  0  0  0
 11 32  1  0  0  0  0
 12 18  1  0  0  0  0
 12 30  1  1  0  0  0
 12 32  1  0  0  0  0
 13 16  2  0  0  0  0
 13 21  1  0  0  0  0
 14  5  1  1  0  0  0
 14 15  1  0  0  0  0
 14 20  1  0  0  0  0
 15 31  1  0  0  0  0
 15 39  1  0  0  0  0
 17 18  1  0  0  0  0
 17 23  1  0  0  0  0
 18 25  1  0  0  0  0
 18 26  1  0  0  0  0
 19 21  1  0  0  0  0
 19 35  1  0  0  0  0
 20 23  1  0  0  0  0
 21 22  2  0  0  0  0
 22 27  1  0  0  0  0
 23 24  1  0  0  0  0
 23 39  1  0  0  0  0
 24 26  1  0  0  0  0
 26 28  2  0  0  0  0
 27 34  2  0  0  0  0
 27 36  1  0  0  0  0
 28 29  1  0  0  0  0
 28 32  1  0  0  0  0
 29 38  1  0  0  0  0
 31 33  2  0  0  0  0
 31 37  1  0  0  0  0
 34 35  1  0  0  0  0
 35 38  1  0  0  0  0
 36 40  1  0  0  0  0
 36 42  2  0  0  0  0
 40 41  2  0  0  0  0
 40 45  1  0  0  0  0
 41 48  1  0  0  0  0
 42 43  1  0  0  0  0
 43 44  2  0  0  0  0
 44 45  1  0  0  0  0
 45 46  2  0  0  0  0
 46 47  1  0  0  0  0
 47 48  2  0  0  0  0
M  END
$$$$

 OpenBabel10082411353D

 48 58  0  0  0  0  0  0  0  0999 V2000
    8.0806    9.0240  -12.7589 C   0  0  0  0  0  0  0  0  0  0  0  0
    8.6514    7.8645  -12.2948 C   0  0  0  0  0  0  0  0  0  0  0  0
    9.9575    7.9974  -11.8426 C   0  0  0  0  0  0  0  0  0  0  0  0
   10.7657    6.8667  -11.6050 C   0  0  1  0  0  0  0  0  0  0  0  0
   10.7682    5.9590  -12.8271 C   0  0  0  0  0  0  0  0  0  0  0  0
   12.1553    7.3846  -11.2315 C   0  0  0  0  0  0  0  0  0  0  0  0
    8.0676    6.6451  -12.2974 C   0  0  0  0  0  0  0  0  0  0  0  0
   10.1892    6.1240  -10.3860 C   0  0  0  0  0  0  0  0  0  0  0  0
   11.8375    5.4373  -13.3240 O   0  0  0  0  0  0  0  0  0  0  0  0
    8.6785    5.4761  -13.0273 C   0  0  1  0  0  0  0  0  0  0  0  0
    9.1969    5.2405  -10.4969 C   0  0  2  0  0  0  0  0  0  0  0  0
    7.2213    6.2210  -11.3074 C   0  0  2  0  0  0  0  0  0  0  0  0
   12.5590    7.6872   -9.9896 C   0  0  0  0  0  0  0  0  0  0  0  0
    9.7633    5.0333  -12.9720 C   0  0  1  0  0  0  0  0  0  0  0  0
   10.0661    4.0167  -14.0373 N   0  0  0  0  0  0  0  0  0  0  0  0
   13.6906    8.3004   -9.6233 O   0  0  0  0  0  0  0  0  0  0  0  0
    7.6357    4.5123  -12.6317 C   0  0  2  0  0  0  0  0  0  0  0  0
    6.8831    4.9171  -11.7031 C   0  0  2  0  0  0  0  0  0  0  0  0
   10.5937    6.6967   -9.1779 C   0  0  0  0  0  0  0  0  0  0  0  0
    9.5087    4.3263  -11.6925 C   0  0  2  0  0  0  0  0  0  0  0  0
   11.6359    7.4449   -8.9125 C   0  0  0  0  0  0  0  0  0  0  0  0
   11.9716    7.9159   -7.6200 C   0  0  0  0  0  0  0  0  0  0  0  0
    8.4648    3.6122  -12.2840 C   0  0  1  0  0  0  0  0  0  0  0  0
    7.9253    2.8004  -11.3926 C   0  0  0  0  0  0  0  0  0  0  0  0
    5.6047    4.5059  -11.7589 C   0  0  0  0  0  0  0  0  0  0  0  0
    7.6606    4.1297  -10.5699 C   0  0  0  0  0  0  0  0  0  0  0  0
   10.9559    7.6849   -6.6057 C   0  0  0  0  0  0  0  0  0  0  0  0
    8.0094    4.5092   -9.5664 C   0  0  0  0  0  0  0  0  0  0  0  0
    8.3033    4.0627   -8.4980 C   0  0  0  0  0  0  0  0  0  0  0  0
    6.3587    7.1012  -11.0392 O   0  0  0  0  0  0  0  0  0  0  0  0
   11.1885    8.2709   -5.2029 C   0  0  0  0  0  0  0  0  0  0  0  0
    8.1551    5.8688  -10.2415 C   0  0  0  0  0  0  0  0  0  0  0  0
    9.3562    2.8931  -13.4173 C   0  0  0  0  0  0  0  0  0  0  0  0
    9.4006    1.8057  -13.6789 O   0  0  0  0  0  0  0  0  0  0  0  0
   10.6448    3.9324  -15.2556 C   0  0  0  0  0  0  0  0  0  0  0  0
    9.9004    6.8953   -6.7235 C   0  0  0  0  0  0  0  0  0  0  0  0
    8.1584    4.7418   -7.5351 O   0  0  0  0  0  0  0  0  0  0  0  0
    8.5999    2.9050   -8.2804 O   0  0  0  0  0  0  0  0  0  0  0  0
   11.6420    7.3504   -4.2035 C   0  0  0  0  0  0  0  0  0  0  0  0
    9.6081    6.4128   -8.0398 C   0  0  1  0  0  0  0  0  0  0  0  0
    8.3828    5.9446   -7.9275 C   0  0  0  0  0  0  0  0  0  0  0  0
   11.1933    9.6919   -4.9542 C   0  0  0  0  0  0  0  0  0  0  0  0
   11.7827    5.9124   -4.4646 C   0  0  0  0  0  0  0  0  0  0  0  0
   10.7919   10.6366   -6.1001 F   0  0  0  0  0  0  0  0  0  0  0  0
   11.9532    7.8959   -3.1890 C   0  0  0  0  0  0  0  0  0  0  0  0
   12.4191    7.0139   -1.9860 C   0  0  0  0  0  0  0  0  0  0  0  0
   11.5042   10.1925   -3.7399 C   0  0  0  0  0  0  0  0  0  0  0  0
   11.9832    9.2668   -2.7889 C   0  0  0  0  0  0  0  0  0  0  0  0
  1  2  1  0  0  0  0
  2  3  1  0  0  0  0
  2  7  2  0  0  0  0
  4  3  1  6  0  0  0
  4  5  1  0  0  0  0
  4  6  1  0  0  0  0
  4  8  1  0  0  0  0
  5  9  2  0  0  0  0
  6 13  1  0  0  0  0
  7 12  1  0  0  0  0
  8 11  1  0  0  0  0
  8 19  2  0  0  0  0
 10  7  1  1  0  0  0
 10 14  1  0  0  0  0
 10 17  1  0  0  0  0
 11 20  1  0  0  0  0
 11 32  1  6  0  0  0
 12 18  1  0  0  0  0
 12 30  1  6  0  0  0
 13 16  2  0  0  0  0
 13 21  1  0  0  0  0
 14  5  1  1  0  0  0
 14 15  1  0  0  0  0
 14 20  1  0  0  0  0
 15 33  1  0  0  0  0
 15 35  1  0  0  0  0
 17 18  1  0  0  0  0
 17 23  1  0  0  0  0
 18 25  1  0  0  0  0
 18 26  1  0  0  0  0
 19 21  1  0  0  0  0
 19 40  1  0  0  0  0
 20 23  1  0  0  0  0
 21 22  2  0  0  0  0
 22 27  1  0  0  0  0
 23 24  1  0  0  0  0
 23 33  1  0  0  0  0
 24 26  1  0  0  0  0
 26 28  2  0  0  0  0
 27 31  1  0  0  0  0
 27 36  2  0  0  0  0
 28 29  1  0  0  0  0
 28 32  1  0  0  0  0
 29 37  1  0  0  0  0
 29 38  2  0  0  0  0
 31 39  1  0  0  0  0
 31 42  2  0  0  0  0
 33 34  2  0  0  0  0
 36 40  1  0  0  0  0
 37 41  1  0  0  0  0
 39 43  1  0  0  0  0
 39 45  2  0  0  0  0
 40 41  1  0  0  0  0
 42 44  1  0  0  0  0
 42 47  1  0  0  0  0
 45 46  1  0  0  0  0
 45 48  1  0  0  0  0
 47 48  2  0  0  0  0
M  END
$$$$

 OpenBabel10082411353D

 48 60  0  0  0  0  0  0  0  0999 V2000
    8.0806    9.0240  -12.7589 C   0  0  0  0  0  0  0  0  0  0  0  0
    8.6514    7.8645  -12.2948 C   0  0  0  0  0  0  0  0  0  0  0  0
    9.9575    7.9974  -11.8426 C   0  0  0  0  0  0  0  0  0  0  0  0
   10.7657    6.8667  -11.6050 C   0  0  1  0  0  0  0  0  0  0  0  0
   10.7682    5.9590  -12.8271 C   0  0  0  0  0  0  0  0  0  0  0  0
   12.1553    7.3846  -11.2315 C   0  0  0  0  0  0  0  0  0  0  0  0
    8.0676    6.6451  -12.2974 C   0  0  0  0  0  0  0  0  0  0  0  0
   10.1892    6.1240  -10.3860 C   0  0  0  0  0  0  0  0  0  0  0  0
   11.8375    5.4373  -13.3240 O   0  0  0  0  0  0  0  0  0  0  0  0
    8.6785    5.4761  -13.0273 C   0  0  1  0  0  0  0  0  0  0  0  0
    9.1969    5.2405  -10.4969 C   0  0  2  0  0  0  0  0  0  0  0  0
    7.2213    6.2210  -11.3074 C   0  0  2  0  0  0  0  0  0  0  0  0
   12.5590    7.6872   -9.9896 C   0  0  0  0  0  0  0  0  0  0  0  0
    9.7633    5.0333  -12.9720 C   0  0  1  0  0  0  0  0  0  0  0  0
   10.0661    4.0167  -14.0373 N   0  0  0  0  0  0  0  0  0  0  0  0
   13.6906    8.3004   -9.6233 O   0  0  0  0  0  0  0  0  0  0  0  0
    7.6357    4.5123  -12.6317 C   0  0  2  0  0  0  0  0  0  0  0  0
    6.8831    4.9171  -11.7031 C   0  0  2  0  0  0  0  0  0  0  0  0
   10.5937    6.6967   -9.1779 C   0  0  0  0  0  0  0  0  0  0  0  0
    9.5087    4.3263  -11.6925 C   0  0  2  0  0  0  0  0  0  0  0  0
   11.6359    7.4449   -8.9125 C   0  0  0  0  0  0  0  0  0  0  0  0
   11.9716    7.9159   -7.6200 C   0  0  0  0  0  0  0  0  0  0  0  0
    8.4648    3.6122  -12.2840 C   0  0  1  0  0  0  0  0  0  0  0  0
    7.9253    2.8004  -11.3926 C   0  0  0  0  0  0  0  0  0  0  0  0
    5.6047    4.5059  -11.7589 C   0  0  0  0  0  0  0  0  0  0  0  0
    7.6606    4.1297  -10.5699 C   0  0  0  0  0  0  0  0  0  0  0  0
   10.9559    7.6849   -6.6057 C   0  0  0  0  0  0  0  0  0  0  0  0
    8.0094    4.5092   -9.5664 C   0  0  0  0  0  0  0  0  0  0  0  0
    8.3033    4.0627   -8.4980 C   0  0  0  0  0  0  0  0  0  0  0  0
    6.3587    7.1012  -11.0392 O   0  0  0  0  0  0  0  0  0  0  0  0
   11.0186    3.9598  -14.9226 C   0  0  0  0  0  0  0  0  0  0  0  0
    8.1758    5.8633  -10.2511 C   0  0  1  0  0  0  0  0  0  0  0  0
   11.4648    2.7104  -15.2650 O   0  0  0  0  0  0  0  0  0  0  0  0
    9.9512    6.8220   -6.8436 C   0  0  0  0  0  0  0  0  0  0  0  0
    9.6899    6.3705   -8.1082 C   0  0  2  0  0  0  0  0  0  0  0  0
   11.2597    8.2901   -5.2396 C   0  0  0  0  0  0  0  0  0  0  0  0
   11.7295    4.9426  -15.4284 O   0  0  0  0  0  0  0  0  0  0  0  0
    9.2745    4.9481   -7.8103 C   0  0  0  0  0  0  0  0  0  0  0  0
    9.1757    2.9301  -13.7559 C   0  0  0  0  0  0  0  0  0  0  0  0
   11.9187    7.5856   -4.3294 C   0  0  0  0  0  0  0  0  0  0  0  0
   11.7781    6.4587   -4.0864 C   0  0  0  0  0  0  0  0  0  0  0  0
   10.9546    9.6992   -5.1271 C   0  0  0  0  0  0  0  0  0  0  0  0
   12.7574    8.4431   -3.4035 C   0  0  0  0  0  0  0  0  0  0  0  0
   13.3571    7.7115   -2.3579 C   0  0  0  0  0  0  0  0  0  0  0  0
   12.3940    9.7859   -3.2657 C   0  0  0  0  0  0  0  0  0  0  0  0
   12.8951    6.4177   -2.4111 C   0  0  0  0  0  0  0  0  0  0  0  0
   10.1244   10.4354   -6.1935 F   0  0  0  0  0  0  0  0  0  0  0  0
   11.6077   10.4438   -4.2472 C   0  0  0  0  0  0  0  0  0  0  0  0
  1  2  1  0  0  0  0
  2  3  1  0  0  0  0
  2  7  2  0  0  0  0
  4  3  1  6  0  0  0
  4  5  1  0  0  0  0
  4  6  1  0  0  0  0
  4  8  1  0  0  0  0
  5  9  2  0  0  0  0
  6 13  1  0  0  0  0
  7 12  1  0  0  0  0
  8 19  2  0  0  0  0
 10  7  1  1  0  0  0
 10 14  1  0  0  0  0
 10 17  1  0  0  0  0
 11  8  1  6  0  0  0
 11 20  1  0  0  0  0
 11 32  1  0  0  0  0
 12 18  1  0  0  0  0
 12 30  1  1  0  0  0
 12 32  1  0  0  0  0
 13 16  2  0  0  0  0
 13 21  1  0  0  0  0
 14  5  1  1  0  0  0
 14 15  1  0  0  0  0
 14 20  1  0  0  0  0
 15 31  1  0  0  0  0
 15 39  1  0  0  0  0
 17 18  1  0  0  0  0
 17 23  1  0  0  0  0
 18 25  1  0  0  0  0
 18 26  1  0  0  0  0
 19 21  1  0  0  0  0
 19 35  1  0  0  0  0
 20 23  1  0  0  0  0
 21 22  2  0  0  0  0
 22 27  1  0  0  0  0
 23 24  1  0  0  0  0
 23 39  1  0  0  0  0
 24 26  1  0  0  0  0
 26 28  2  0  0  0  0
 27 34  2  0  0  0  0
 27 36  1  0  0  0  0
 28 29  1  0  0  0  0
 28 32  1  0  0  0  0
 29 38  1  0  0  0  0
 31 33  2  0  0  0  0
 31 37  1  0  0  0  0
 34 35  1  0  0  0  0
 35 38  1  0  0  0  0
 36 40  1  0  0  0  0
 36 42  2  0  0  0  0
 40 41  2  0  0  0  0
 40 43  1  0  0  0  0
 41 46  1  0  0  0  0
 42 47  1  0  0  0  0
 42 48  1  0  0  0  0
 43 44  1  0  0  0  0
 43 45  2  0  0  0  0
 44 46  1  0  0  0  0
 45 48  1  0  0  0  0
M  END
$$$$

 OpenBabel10082411353D

 48 60  0  0  0  0  0  0  0  0999 V2000
    8.0806    9.0240  -12.7589 C   0  0  0  0  0  0  0  0  0  0  0  0
    8.6514    7.8645  -12.2948 C   0  0  0  0  0  0  0  0  0  0  0  0
    9.9575    7.9974  -11.8426 C   0  0  0  0  0  0  0  0  0  0  0  0
   10.7657    6.8667  -11.6050 C   0  0  1  0  0  0  0  0  0  0  0  0
   10.7682    5.9590  -12.8271 C   0  0  0  0  0  0  0  0  0  0  0  0
   12.1553    7.3846  -11.2315 C   0  0  0  0  0  0  0  0  0  0  0  0
    8.0676    6.6451  -12.2974 C   0  0  0  0  0  0  0  0  0  0  0  0
   10.1892    6.1240  -10.3860 C   0  0  0  0  0  0  0  0  0  0  0  0
   11.8375    5.4373  -13.3240 O   0  0  0  0  0  0  0  0  0  0  0  0
    8.6785    5.4761  -13.0273 C   0  0  1  0  0  0  0  0  0  0  0  0
    9.1969    5.2405  -10.4969 C   0  0  2  0  0  0  0  0  0  0  0  0
    7.2213    6.2210  -11.3074 C   0  0  2  0  0  0  0  0  0  0  0  0
   12.5590    7.6872   -9.9896 C   0  0  0  0  0  0  0  0  0  0  0  0
    9.7633    5.0333  -12.9720 C   0  0  1  0  0  0  0  0  0  0  0  0
   10.0661    4.0167  -14.0373 N   0  0  0  0  0  0  0  0  0  0  0  0
   13.6906    8.3004   -9.6233 O   0  0  0  0  0  0  0  0  0  0  0  0
    7.6357    4.5123  -12.6317 C   0  0  2  0  0  0  0  0  0  0  0  0
    6.8831    4.9171  -11.7031 C   0  0  2  0  0  0  0  0  0  0  0  0
   10.5937    6.6967   -9.1779 C   0  0  0  0  0  0  0  0  0  0  0  0
    9.5087    4.3263  -11.6925 C   0  0  2  0  0  0  0  0  0  0  0  0
   11.6359    7.4449   -8.9125 C   0  0  0  0  0  0  0  0  0  0  0  0
   11.9716    7.9159   -7.6200 C   0  0  0  0  0  0  0  0  0  0  0  0
    8.4648    3.6122  -12.2840 C   0  0  1  0  0  0  0  0  0  0  0  0
    7.9253    2.8004  -11.3926 C   0  0  0  0  0  0  0  0  0  0  0  0
    5.6047    4.5059  -11.7589 C   0  0  0  0  0  0  0  0  0  0  0  0
    7.6606    4.1297  -10.5699 C   0  0  0  0  0  0  0  0  0  0  0  0
   10.9559    7.6849   -6.6057 C   0  0  0  0  0  0  0  0  0  0  0  0
    8.0094    4.5092   -9.5664 C   0  0  0  0  0  0  0  0  0  0  0  0
    8.3033    4.0627   -8.4980 C   0  0  0  0  0  0  0  0  0  0  0  0
    6.3587    7.1012  -11.0392 O   0  0  0  0  0  0  0  0  0  0  0  0
   11.1885    8.2709   -5.2029 C   0  0  0  0  0  0  0  0  0  0  0  0
    8.1551    5.8688  -10.2415 C   0  0  1  0  0  0  0  0  0  0  0  0
    9.3562    2.8931  -13.4173 C   0  0  0  0  0  0  0  0  0  0  0  0
    9.4006    1.8057  -13.6789 O   0  0  0  0  0  0  0  0  0  0  0  0
   10.6448    3.9324  -15.2556 C   0  0  0  0  0  0  0  0  0  0  0  0
    9.9004    6.8953   -6.7235 C   0  0  0  0  0  0  0  0  0  0  0  0
    8.1584    4.7418   -7.5351 O   0  0  0  0  0  0  0  0  0  0  0  0
    8.5999    2.9050   -8.2804 O   0  0  0  0  0  0  0  0  0  0  0  0
   11.6420    7.3504   -4.2035 C   0  0  0  0  0  0  0  0  0  0  0  0
    9.6081    6.4128   -8.0398 C   0  0  2  0  0  0  0  0  0  0  0  0
    8.3828    5.9446   -7.9275 C   0  0  1  0  0  0  0  0  0  0  0  0
   11.1933    9.6919   -4.9542 C   0  0  0  0  0  0  0  0  0  0  0  0
   10.7525   10.6554   -6.1095 F   0  0  0  0  0  0  0  0  0  0  0  0
   11.7302    5.9412   -4.4414 F   0  0  0  0  0  0  0  0  0  0  0  0
   11.9547    7.8788   -2.9448 C   0  0  0  0  0  0  0  0  0  0  0  0
   11.5208   10.2444   -3.7358 C   0  0  0  0  0  0  0  0  0  0  0  0
   11.9678    9.2915   -2.7157 C   0  0  0  0  0  0  0  0  0  0  0  0
    8.7463    6.3074   -9.0802 C   0  0  2  0  0  0  0  0  0  0  0  0
  1  2  1  0  0  0  0
  2  3  1  0  0  0  0
  2  7  2  0  0  0  0
  4  3  1  6  0  0  0
  4  5  1  0  0  0  0
  4  6  1  0  0  0  0
  4  8  1  0  0  0  0
  5  9  2  0  0  0  0
  6 13  1  0  0  0  0
  7 12  1  0  0  0  0
  8 19  2  0  0  0  0
 10  7  1  1  0  0  0
 10 14  1  0  0  0  0
 10 17  1  0  0  0  0
 11  8  1  6  0  0  0
 11 20  1  0  0  0  0
 11 32  1  0  0  0  0
 12 18  1  0  0  0  0
 12 30  1  6  0  0  0
 13 16  2  0  0  0  0
 13 21  1  0  0  0  0
 14  5  1  1  0  0  0
 14 15  1  0  0  0  0
 14 20  1  0  0  0  0
 15 33  1  0  0  0  0
 15 35  1  0  0  0  0
 17 18  1  0  0  0  0
 17 23  1  0  0  0  0
 18 25  1  0  0  0  0
 18 26  1  0  0  0  0
 19 21  1  0  0  0  0
 19 40  1  0  0  0  0
 20 23  1  0  0  0  0
 21 22  2  0  0  0  0
 22 27  1  0  0  0  0
 23 24  1  0  0  0  0
 23 33  1  0  0  0  0
 24 26  1  0  0  0  0
 26 28  2  0  0  0  0
 27 31  1  0  0  0  0
 27 36  2  0  0  0  0
 28 29  1  0  0  0  0
 28 32  1  0  0  0  0
 29 37  1  0  0  0  0
 29 38  2  0  0  0  0
 31 39  1  0  0  0  0
 31 42  2  0  0  0  0
 32 48  1  0  0  0  0
 33 34  2  0  0  0  0
 36 40  1  0  0  0  0
 37 41  1  0  0  0  0
 39 44  1  0  0  0  0
 39 45  2  0  0  0  0
 40 41  1  0  0  0  0
 40 48  1  0  0  0  0
 41 48  1  0  0  0  0
 42 43  1  0  0  0  0
 42 46  1  0  0  0  0
 45 47  1  0  0  0  0
 46 47  2  0  0  0  0
M  END
$$$$

 OpenBabel10082411353D

 48 60  0  0  0  0  0  0  0  0999 V2000
    8.0806    9.0240  -12.7589 C   0  0  0  0  0  0  0  0  0  0  0  0
    8.6514    7.8645  -12.2948 C   0  0  0  0  0  0  0  0  0  0  0  0
    9.9575    7.9974  -11.8426 C   0  0  0  0  0  0  0  0  0  0  0  0
   10.7657    6.8667  -11.6050 C   0  0  1  0  0  0  0  0  0  0  0  0
   10.7682    5.9590  -12.8271 C   0  0  0  0  0  0  0  0  0  0  0  0
   12.1553    7.3846  -11.2315 C   0  0  0  0  0  0  0  0  0  0  0  0
    8.0676    6.6451  -12.2974 C   0  0  0  0  0  0  0  0  0  0  0  0
   10.1892    6.1240  -10.3860 C   0  0  0  0  0  0  0  0  0  0  0  0
   11.8375    5.4373  -13.3240 O   0  0  0  0  0  0  0  0  0  0  0  0
    8.6785    5.4761  -13.0273 C   0  0  1  0  0  0  0  0  0  0  0  0
    9.1969    5.2405  -10.4969 C   0  0  2  0  0  0  0  0  0  0  0  0
    7.2213    6.2210  -11.3074 C   0  0  2  0  0  0  0  0  0  0  0  0
   12.5590    7.6872   -9.9896 C   0  0  0  0  0  0  0  0  0  0  0  0
    9.7633    5.0333  -12.9720 C   0  0  1  0  0  0  0  0  0  0  0  0
   10.0661    4.0167  -14.0373 N   0  0  0  0  0  0  0  0  0  0  0  0
   13.6906    8.3004   -9.6233 O   0  0  0  0  0  0  0  0  0  0  0  0
    7.6357    4.5123  -12.6317 C   0  0  2  0  0  0  0  0  0  0  0  0
    6.8831    4.9171  -11.7031 C   0  0  2  0  0  0  0  0  0  0  0  0
   10.5937    6.6967   -9.1779 C   0  0  0  0  0  0  0  0  0  0  0  0
    9.5087    4.3263  -11.6925 C   0  0  2  0  0  0  0  0  0  0  0  0
   11.6359    7.4449   -8.9125 C   0  0  0  0  0  0  0  0  0  0  0  0
   11.9716    7.9159   -7.6200 C   0  0  0  0  0  0  0  0  0  0  0  0
    8.4648    3.6122  -12.2840 C   0  0  1  0  0  0  0  0  0  0  0  0
    7.9253    2.8004  -11.3926 C   0  0  0  0  0  0  0  0  0  0  0  0
    5.6047    4.5059  -11.7589 C   0  0  0  0  0  0  0  0  0  0  0  0
    7.6606    4.1297  -10.5699 C   0  0  0  0  0  0  0  0  0  0  0  0
   10.9559    7.6849   -6.6057 C   0  0  0  0  0  0  0  0  0  0  0  0
    8.0094    4.5092   -9.5664 C   0  0  0  0  0  0  0  0  0  0  0  0
    8.3033    4.0627   -8.4980 C   0  0  0  0  0  0  0  0  0  0  0  0
    6.3587    7.1012  -11.0392 O   0  0  0  0  0  0  0  0  0  0  0  0
   11.0186    3.9598  -14.9226 C   0  0  0  0  0  0  0  0  0  0  0  0
    8.1758    5.8633  -10.2511 C   0  0  1  0  0  0  0  0  0  0  0  0
   11.4648    2.7104  -15.2650 O   0  0  0  0  0  0  0  0  0  0  0  0
    9.9512    6.8220   -6.8436 C   0  0  0  0  0  0  0  0  0  0  0  0
    9.6899    6.3705   -8.1082 C   0  0  2  0  0  0  0  0  0  0  0  0
   11.2597    8.2901   -5.2396 C   0  0  0  0  0  0  0  0  0  0  0  0
   11.7295    4.9426  -15.4284 O   0  0  0  0  0  0  0  0  0  0  0  0
    9.2745    4.9481   -7.8103 C   0  0  0  0  0  0  0  0  0  0  0  0
    9.1757    2.9301  -13.7559 C   0  0  0  0  0  0  0  0  0  0  0  0
   11.9187    7.5856   -4.3294 C   0  0  0  0  0  0  0  0  0  0  0  0
   11.7781    6.4587   -4.0864 C   0  0  0  0  0  0  0  0  0  0  0  0
   10.9546    9.6992   -5.1271 C   0  0  0  0  0  0  0  0  0  0  0  0
   12.7574    8.4431   -3.4035 C   0  0  0  0  0  0  0  0  0  0  0  0
   13.3571    7.7115   -2.3579 C   0  0  0  0  0  0  0  0  0  0  0  0
   12.3940    9.7859   -3.2657 C   0  0  0  0  0  0  0  0  0  0  0  0
   11.5389   10.4100   -4.2247 C   0  0  0  0  0  0  0  0  0  0  0  0
   12.4774    5.7131   -3.0915 C   0  0  0  0  0  0  0  0  0  0  0  0
   13.0307    6.4129   -2.1883 C   0  0  0  0  0  0  0  0  0  0  0  0
  1  2  1  0  0  0  0
  2  3  1  0  0  0  0
  2  7  2  0  0  0  0
  4  3  1  6  0  0  0
  4  5  1  0  0  0  0
  4  6  1  0  0  0  0
  4  8  1  0  0  0  0
  5  9  2  0  0  0  0
  6 13  1  0  0  0  0
  7 12  1  0  0  0  0
  8 19  2  0  0  0  0
 10  7  1  1  0  0  0
 10 14  1  0  0  0  0
 10 17  1  0  0  0  0
 11  8  1  6  0  0  0
 11 20  1  0  0  0  0
 11 32  1  0  0  0  0
 12 18  1  0  0  0  0
 12 30  1  1  0  0  0
 12 32  1  0  0  0  0
 13 16  2  0  0  0  0
 13 21  1  0  0  0  0
 14  5  1  1  0  0  0
 14 15  1  0  0  0  0
 14 20  1  0  0  0  0
 15 31  1  0  0  0  0
 15 39  1  0  0  0  0
 17 18  1  0  0  0  0
 17 23  1  0  0  0  0
 18 25  1  0  0  0  0
 18 26  1  0  0  0  0
 19 21  1  0  0  0  0
 19 35  1  0  0  0  0
 20 23  1  0  0  0  0
 21 22  2  0  0  0  0
 22 27  1  0  0  0  0
 23 24  1  0  0  0  0
 23 39  1  0  0  0  0
 24 26  1  0  0  0  0
 26 28  2  0  0  0  0
 27 34  2  0  0  0  0
 27 36  1  0  0  0  0
 28 29  1  0  0  0  0
 28 32  1  0  0  0  0
 29 38  1  0  0  0  0
 31 33  2  0  0  0  0
 31 37  1  0  0  0  0
 34 35  1  0  0  0  0
 35 38  1  0  0  0  0
 36 40  1  0  0  0  0
 36 42  2  0  0  0  0
 40 41  2  0  0  0  0
 40 43  1  0  0  0  0
 41 47  1  0  0  0  0
 42 46  1  0  0  0  0
 43 44  1  0  0  0  0
 43 45  2  0  0  0  0
 44 48  1  0  0  0  0
 45 46  1  0  0  0  0
 47 48  2  0  0  0  0
M  END
$$$$

 OpenBabel10082411353D

 48 60  0  0  0  0  0  0  0  0999 V2000
    8.0806    9.0240  -12.7589 C   0  0  0  0  0  0  0  0  0  0  0  0
    8.6514    7.8645  -12.2948 C   0  0  0  0  0  0  0  0  0  0  0  0
    9.9575    7.9974  -11.8426 C   0  0  0  0  0  0  0  0  0  0  0  0
   10.7657    6.8667  -11.6050 C   0  0  1  0  0  0  0  0  0  0  0  0
   10.7682    5.9590  -12.8271 C   0  0  0  0  0  0  0  0  0  0  0  0
   12.1553    7.3846  -11.2315 C   0  0  0  0  0  0  0  0  0  0  0  0
    8.0676    6.6451  -12.2974 C   0  0  0  0  0  0  0  0  0  0  0  0
   10.1892    6.1240  -10.3860 C   0  0  0  0  0  0  0  0  0  0  0  0
   11.8375    5.4373  -13.3240 O   0  0  0  0  0  0  0  0  0  0  0  0
    8.6785    5.4761  -13.0273 C   0  0  1  0  0  0  0  0  0  0  0  0
    9.1969    5.2405  -10.4969 C   0  0  2  0  0  0  0  0  0  0  0  0
    7.2213    6.2210  -11.3074 C   0  0  2  0  0  0  0  0  0  0  0  0
   12.5590    7.6872   -9.9896 C   0  0  0  0  0  0  0  0  0  0  0  0
    9.7633    5.0333  -12.9720 C   0  0  1  0  0  0  0  0  0  0  0  0
   10.0661    4.0167  -14.0373 N   0  0  0  0  0  0  0  0  0  0  0  0
   13.6906    8.3004   -9.6233 O   0  0  0  0  0  0  0  0  0  0  0  0
    7.6357    4.5123  -12.6317 C   0  0  2  0  0  0  0  0  0  0  0  0
    6.8831    4.9171  -11.7031 C   0  0  2  0  0  0  0  0  0  0  0  0
   10.5937    6.6967   -9.1779 C   0  0  0  0  0  0  0  0  0  0  0  0
    9.5087    4.3263  -11.6925 C   0  0  2  0  0  0  0  0  0  0  0  0
   11.6359    7.4449   -8.9125 C   0  0  0  0  0  0  0  0  0  0  0  0
   11.9716    7.9159   -7.6200 C   0  0  0  0  0  0  0  0  0  0  0  0
    8.4648    3.6122  -12.2840 C   0  0  1  0  0  0  0  0  0  0  0  0
    7.9253    2.8004  -11.3926 C   0  0  0  0  0  0  0  0  0  0  0  0
    5.6047    4.5059  -11.7589 C   0  0  0  0  0  0  0  0  0  0  0  0
    7.6606    4.1297  -10.5699 C   0  0  0  0  0  0  0  0  0  0  0  0
   10.9559    7.6849   -6.6057 C   0  0  0  0  0  0  0  0  0  0  0  0
    8.0094    4.5092   -9.5664 C   0  0  0  0  0  0  0  0  0  0  0  0
    8.3033    4.0627   -8.4980 C   0  0  0  0  0  0  0  0  0  0  0  0
    6.3587    7.1012  -11.0392 O   0  0  0  0  0  0  0  0  0  0  0  0
   11.0186    3.9598  -14.9226 C   0  0  0  0  0  0  0  0  0  0  0  0
    8.1758    5.8633  -10.2511 C   0  0  1  0  0  0  0  0  0  0  0  0
   11.4648    2.7104  -15.2650 O   0  0  0  0  0  0  0  0  0  0  0  0
    9.9512    6.8220   -6.8436 C   0  0  0  0  0  0  0  0  0  0  0  0
    9.6899    6.3705   -8.1082 C   0  0  2  0  0  0  0  0  0  0  0  0
   11.2597    8.2901   -5.2396 C   0  0  0  0  0  0  0  0  0  0  0  0
   11.7295    4.9426  -15.4284 O   0  0  0  0  0  0  0  0  0  0  0  0
    9.2745    4.9481   -7.8103 C   0  0  0  0  0  0  0  0  0  0  0  0
    9.1757    2.9301  -13.7559 C   0  0  0  0  0  0  0  0  0  0  0  0
   11.9187    7.5856   -4.3294 C   0  0  0  0  0  0  0  0  0  0  0  0
   11.7781    6.4587   -4.0864 C   0  0  0  0  0  0  0  0  0  0  0  0
   10.9546    9.6992   -5.1271 C   0  0  0  0  0  0  0  0  0  0  0  0
   11.3870   10.3465   -3.9551 C   0  0  0  0  0  0  0  0  0  0  0  0
   12.3560    8.4393   -3.0038 C   0  0  0  0  0  0  0  0  0  0  0  0
   12.9262    7.6128   -1.9663 C   0  0  0  0  0  0  0  0  0  0  0  0
   12.2873    9.7995   -3.0816 C   0  0  0  0  0  0  0  0  0  0  0  0
   12.7193    6.1496   -2.2869 S   0  0  0  0  0  0  0  0  0  0  0  0
   12.1633    5.7396   -3.2240 C   0  0  0  0  0  0  0  0  0  0  0  0
  1  2  1  0  0  0  0
  2  3  1  0  0  0  0
  2  7  2  0  0  0  0
  4  3  1  6  0  0  0
  4  5  1  0  0  0  0
  4  6  1  0  0  0  0
  4  8  1  0  0  0  0
  5  9  2  0  0  0  0
  6 13  1  0  0  0  0
  7 12  1  0  0  0  0
  8 19  2  0  0  0  0
 10  7  1  1  0  0  0
 10 14  1  0  0  0  0
 10 17  1  0  0  0  0
 11  8  1  6  0  0  0
 11 20  1  0  0  0  0
 11 32  1  0  0  0  0
 12 18  1  0  0  0  0
 12 30  1  1  0  0  0
 12 32  1  0  0  0  0
 13 16  2  0  0  0  0
 13 21  1  0  0  0  0
 14  5  1  1  0  0  0
 14 15  1  0  0  0  0
 14 20  1  0  0  0  0
 15 31  1  0  0  0  0
 15 39  1  0  0  0  0
 17 18  1  0  0  0  0
 17 23  1  0  0  0  0
 18 25  1  0  0  0  0
 18 26  1  0  0  0  0
 19 21  1  0  0  0  0
 19 35  1  0  0  0  0
 20 23  1  0  0  0  0
 21 22  2  0  0  0  0
 22 27  1  0  0  0  0
 23 24  1  0  0  0  0
 23 39  1  0  0  0  0
 24 26  1  0  0  0  0
 26 28  2  0  0  0  0
 27 34  2  0  0  0  0
 27 36  1  0  0  0  0
 28 29  1  0  0  0  0
 28 32  1  0  0  0  0
 29 38  1  0  0  0  0
 31 33  2  0  0  0  0
 31 37  1  0  0  0  0
 34 35  1  0  0  0  0
 35 38  1  0  0  0  0
 36 40  1  0  0  0  0
 36 42  2  0  0  0  0
 40 41  2  0  0  0  0
 40 44  1  0  0  0  0
 41 48  1  0  0  0  0
 42 43  1  0  0  0  0
 43 46  2  0  0  0  0
 44 45  2  0  0  0  0
 44 46  1  0  0  0  0
 45 47  1  0  0  0  0
 47 48  2  0  0  0  0
M  END
$$$$

 OpenBabel10082411353D

 27 30  0  0  0  0  0  0  0  0999 V2000
   12.8881    8.7759   -3.5681 C   0  0  0  0  0  0  0  0  0  0  0  0
   11.9416    9.4732   -4.1220 C   0  0  0  0  0  0  0  0  0  0  0  0
   12.1782    9.3707   -5.6407 C   0  0  0  0  0  0  0  0  0  0  0  0
   11.3825    8.3447   -6.3966 C   0  0  0  0  0  0  0  0  0  0  0  0
   11.8188    8.0044   -7.6822 C   0  0  0  0  0  0  0  0  0  0  0  0
   10.3120    7.6600   -5.7120 C   0  0  0  0  0  0  0  0  0  0  0  0
   10.8678    7.0723   -8.2897 C   0  0  0  0  0  0  0  0  0  0  0  0
    9.5717    6.7245   -6.3809 C   0  0  0  0  0  0  0  0  0  0  0  0
    9.8820    6.4468   -7.7081 C   0  0  0  0  0  0  0  0  0  0  0  0
   11.2611    6.6953   -9.7105 C   0  0  0  0  0  0  0  0  0  0  0  0
   10.0425    6.5460  -10.5971 C   0  0  0  0  0  0  0  0  0  0  0  0
    9.7273    7.6207  -11.3847 C   0  0  1  0  0  0  0  0  0  0  0  0
    9.9764    7.6413  -12.5696 O   0  0  0  0  0  0  0  0  0  0  0  0
    8.9346    5.4564   -8.3902 C   0  0  0  0  0  0  0  0  0  0  0  0
    8.2490    7.9349  -11.1820 O   0  0  0  0  0  0  0  0  0  0  0  0
   10.1841    6.7003  -13.2223 C   0  0  0  0  0  0  0  0  0  0  0  0
    9.5958    5.5854  -13.1076 C   0  0  0  0  0  0  0  0  0  0  0  0
    8.4924    5.3473  -12.1285 C   0  0  0  0  0  0  0  0  0  0  0  0
    9.8209    4.3589  -14.0027 C   0  0  0  0  0  0  0  0  0  0  0  0
    7.6536    4.3101  -12.3765 O   0  0  0  0  0  0  0  0  0  0  0  0
   11.1109    4.2107  -14.4593 C   0  0  0  0  0  0  0  0  0  0  0  0
    8.9804    5.5270  -10.7091 C   0  0  0  0  0  0  0  0  0  0  0  0
   11.5375    6.7339  -14.0672 C   0  0  0  0  0  0  0  0  0  0  0  0
    8.7811    4.7842   -9.6169 C   0  0  0  0  0  0  0  0  0  0  0  0
   12.1462    7.8354  -14.3080 O   0  0  0  0  0  0  0  0  0  0  0  0
   11.9596    5.4352  -14.5548 C   0  0  0  0  0  0  0  0  0  0  0  0
   11.6438    3.1273  -15.1365 C   0  0  0  0  0  0  0  0  0  0  0  0
  1  2  1  0  0  0  0
  2  3  1  0  0  0  0
  3  4  1  0  0  0  0
  4  5  2  0  0  0  0
  4  6  1  0  0  0  0
  5  7  1  0  0  0  0
  6  8  2  0  0  0  0
  7  9  2  0  0  0  0
  7 10  1  0  0  0  0
  8  9  1  0  0  0  0
  9 14  1  0  0  0  0
 10 11  1  0  0  0  0
 11 12  1  0  0  0  0
 11 22  2  0  0  0  0
 12 13  1  0  0  0  0
 12 15  1  6  0  0  0
 13 16  1  0  0  0  0
 14 24  2  0  0  0  0
 16 17  2  0  0  0  0
 16 23  1  0  0  0  0
 17 18  1  0  0  0  0
 17 19  1  0  0  0  0
 18 20  2  0  0  0  0
 18 22  1  0  0  0  0
 19 21  1  0  0  0  0
 21 26  2  0  0  0  0
 21 27  1  0  0  0  0
 22 24  1  0  0  0  0
 23 25  2  0  0  0  0
 23 26  1  0  0  0  0
M  END
$$$$

 OpenBabel10082411353D

 48 60  0  0  0  0  0  0  0  0999 V2000
    8.0806    9.0240  -12.7589 C   0  0  0  0  0  0  0  0  0  0  0  0
    8.6514    7.8645  -12.2948 C   0  0  0  0  0  0  0  0  0  0  0  0
    9.9575    7.9974  -11.8426 C   0  0  0  0  0  0  0  0  0  0  0  0
   10.7657    6.8667  -11.6050 C   0  0  1  0  0  0  0  0  0  0  0  0
   10.7682    5.9590  -12.8271 C   0  0  0  0  0  0  0  0  0  0  0  0
   12.1553    7.3846  -11.2315 C   0  0  0  0  0  0  0  0  0  0  0  0
    8.0676    6.6451  -12.2974 C   0  0  0  0  0  0  0  0  0  0  0  0
   10.1892    6.1240  -10.3860 C   0  0  0  0  0  0  0  0  0  0  0  0
   11.8375    5.4373  -13.3240 O   0  0  0  0  0  0  0  0  0  0  0  0
    8.6785    5.4761  -13.0273 C   0  0  1  0  0  0  0  0  0  0  0  0
    9.1969    5.2405  -10.4969 C   0  0  2  0  0  0  0  0  0  0  0  0
    7.2213    6.2210  -11.3074 C   0  0  2  0  0  0  0  0  0  0  0  0
   12.5590    7.6872   -9.9896 C   0  0  0  0  0  0  0  0  0  0  0  0
    9.7633    5.0333  -12.9720 C   0  0  1  0  0  0  0  0  0  0  0  0
   10.0661    4.0167  -14.0373 N   0  0  0  0  0  0  0  0  0  0  0  0
   13.6906    8.3004   -9.6233 O   0  0  0  0  0  0  0  0  0  0  0  0
    7.6357    4.5123  -12.6317 C   0  0  2  0  0  0  0  0  0  0  0  0
    6.8831    4.9171  -11.7031 C   0  0  2  0  0  0  0  0  0  0  0  0
   10.5937    6.6967   -9.1779 C   0  0  0  0  0  0  0  0  0  0  0  0
    9.5087    4.3263  -11.6925 C   0  0  2  0  0  0  0  0  0  0  0  0
   11.6359    7.4449   -8.9125 C   0  0  0  0  0  0  0  0  0  0  0  0
   11.9716    7.9159   -7.6200 C   0  0  0  0  0  0  0  0  0  0  0  0
    8.4648    3.6122  -12.2840 C   0  0  1  0  0  0  0  0  0  0  0  0
    7.9253    2.8004  -11.3926 C   0  0  0  0  0  0  0  0  0  0  0  0
    5.6047    4.5059  -11.7589 C   0  0  0  0  0  0  0  0  0  0  0  0
    7.6606    4.1297  -10.5699 C   0  0  0  0  0  0  0  0  0  0  0  0
   10.9559    7.6849   -6.6057 C   0  0  0  0  0  0  0  0  0  0  0  0
    8.0094    4.5092   -9.5664 C   0  0  0  0  0  0  0  0  0  0  0  0
    8.3033    4.0627   -8.4980 C   0  0  0  0  0  0  0  0  0  0  0  0
    6.3587    7.1012  -11.0392 O   0  0  0  0  0  0  0  0  0  0  0  0
   11.0186    3.9598  -14.9226 C   0  0  0  0  0  0  0  0  0  0  0  0
    8.1758    5.8633  -10.2511 C   0  0  1  0  0  0  0  0  0  0  0  0
   11.4648    2.7104  -15.2650 O   0  0  0  0  0  0  0  0  0  0  0  0
    9.9512    6.8220   -6.8436 C   0  0  0  0  0  0  0  0  0  0  0  0
    9.6899    6.3705   -8.1082 C   0  0  2  0  0  0  0  0  0  0  0  0
   11.2597    8.2901   -5.2396 C   0  0  0  0  0  0  0  0  0  0  0  0
   11.7295    4.9426  -15.4284 O   0  0  0  0  0  0  0  0  0  0  0  0
    9.2745    4.9481   -7.8103 C   0  0  0  0  0  0  0  0  0  0  0  0
    9.2182    2.8872  -13.7570 C   0  0  0  0  0  0  0  0  0  0  0  0
   11.9188    7.5853   -4.3293 C   0  0  0  0  0  0  0  0  0  0  0  0
   11.7780    6.4589   -4.0859 C   0  0  0  0  0  0  0  0  0  0  0  0
   12.5991    8.4195   -3.2071 C   0  0  0  0  0  0  0  0  0  0  0  0
   10.9410    9.6801   -5.0871 C   0  0  0  0  0  0  0  0  0  0  0  0
   13.1715    7.6467   -2.2033 C   0  0  0  0  0  0  0  0  0  0  0  0
   12.6589    6.3228   -2.4484 C   0  0  0  0  0  0  0  0  0  0  0  0
   12.3797    9.7186   -3.2727 C   0  0  0  0  0  0  0  0  0  0  0  0
   10.1942   10.4565   -6.2202 F   0  0  0  0  0  0  0  0  0  0  0  0
   11.6562   10.5262   -4.1351 C   0  0  0  0  0  0  0  0  0  0  0  0
  1  2  1  0  0  0  0
  2  3  1  0  0  0  0
  2  7  2  0  0  0  0
  4  3  1  6  0  0  0
  4  5  1  0  0  0  0
  4  6  1  0  0  0  0
  4  8  1  0  0  0  0
  5  9  2  0  0  0  0
  6 13  1  0  0  0  0
  7 12  1  0  0  0  0
  8 19  2  0  0  0  0
 10  7  1  1  0  0  0
 10 14  1  0  0  0  0
 10 17  1  0  0  0  0
 11  8  1  6  0  0  0
 11 20  1  0  0  0  0
 11 32  1  0  0  0  0
 12 18  1  0  0  0  0
 12 30  1  1  0  0  0
 12 32  1  0  0  0  0
 13 16  2  0  0  0  0
 13 21  1  0  0  0  0
 14  5  1  1  0  0  0
 14 15  1  0  0  0  0
 14 20  1  0  0  0  0
 15 31  1  0  0  0  0
 15 39  1  0  0  0  0
 17 18  1  0  0  0  0
 17 23  1  0  0  0  0
 18 25  1  0  0  0  0
 18 26  1  0  0  0  0
 19 21  1  0  0  0  0
 19 35  1  0  0  0  0
 20 23  1  0  0  0  0
 21 22  2  0  0  0  0
 22 27  1  0  0  0  0
 23 24  1  0  0  0  0
 23 39  1  0  0  0  0
 24 26  1  0  0  0  0
 26 28  2  0  0  0  0
 27 34  2  0  0  0  0
 27 36  1  0  0  0  0
 28 29  1  0  0  0  0
 28 32  1  0  0  0  0
 29 38  1  0  0  0  0
 31 33  2  0  0  0  0
 31 37  1  0  0  0  0
 34 35  1  0  0  0  0
 35 38  1  0  0  0  0
 36 40  1  0  0  0  0
 36 43  2  0  0  0  0
 40 41  2  0  0  0  0
 40 42  1  0  0  0  0
 41 45  1  0  0  0  0
 42 44  1  0  0  0  0
 42 46  2  0  0  0  0
 43 47  1  0  0  0  0
 43 48  1  0  0  0  0
 44 45  2  0  0  0  0
 46 48  1  0  0  0  0
M  END
$$$$

 OpenBabel10082411353D

 48 60  0  0  0  0  0  0  0  0999 V2000
    8.0806    9.0240  -12.7589 C   0  0  0  0  0  0  0  0  0  0  0  0
    8.6514    7.8645  -12.2948 C   0  0  0  0  0  0  0  0  0  0  0  0
    9.9575    7.9974  -11.8426 C   0  0  0  0  0  0  0  0  0  0  0  0
   10.7657    6.8667  -11.6050 C   0  0  1  0  0  0  0  0  0  0  0  0
   10.7682    5.9590  -12.8271 C   0  0  0  0  0  0  0  0  0  0  0  0
   12.1553    7.3846  -11.2315 C   0  0  0  0  0  0  0  0  0  0  0  0
    8.0676    6.6451  -12.2974 C   0  0  0  0  0  0  0  0  0  0  0  0
   10.1892    6.1240  -10.3860 C   0  0  0  0  0  0  0  0  0  0  0  0
   11.8375    5.4373  -13.3240 O   0  0  0  0  0  0  0  0  0  0  0  0
    8.6785    5.4761  -13.0273 C   0  0  1  0  0  0  0  0  0  0  0  0
    9.1969    5.2405  -10.4969 C   0  0  2  0  0  0  0  0  0  0  0  0
    7.2213    6.2210  -11.3074 C   0  0  2  0  0  0  0  0  0  0  0  0
   12.5590    7.6872   -9.9896 C   0  0  0  0  0  0  0  0  0  0  0  0
    9.7633    5.0333  -12.9720 C   0  0  1  0  0  0  0  0  0  0  0  0
   10.0661    4.0167  -14.0373 N   0  0  0  0  0  0  0  0  0  0  0  0
   13.6906    8.3004   -9.6233 O   0  0  0  0  0  0  0  0  0  0  0  0
    7.6357    4.5123  -12.6317 C   0  0  2  0  0  0  0  0  0  0  0  0
    6.8831    4.9171  -11.7031 C   0  0  2  0  0  0  0  0  0  0  0  0
   10.5937    6.6967   -9.1779 C   0  0  0  0  0  0  0  0  0  0  0  0
    9.5087    4.3263  -11.6925 C   0  0  2  0  0  0  0  0  0  0  0  0
   11.6359    7.4449   -8.9125 C   0  0  0  0  0  0  0  0  0  0  0  0
   11.9716    7.9159   -7.6200 C   0  0  0  0  0  0  0  0  0  0  0  0
    8.4648    3.6122  -12.2840 C   0  0  1  0  0  0  0  0  0  0  0  0
    7.9253    2.8004  -11.3926 C   0  0  2  0  0  0  0  0  0  0  0  0
    5.6047    4.5059  -11.7589 C   0  0  0  0  0  0  0  0  0  0  0  0
    7.6606    4.1297  -10.5699 C   0  0  0  0  0  0  0  0  0  0  0  0
   10.9559    7.6849   -6.6057 C   0  0  0  0  0  0  0  0  0  0  0  0
    8.0094    4.5092   -9.5664 C   0  0  0  0  0  0  0  0  0  0  0  0
    8.3033    4.0627   -8.4980 C   0  0  0  0  0  0  0  0  0  0  0  0
    6.3587    7.1012  -11.0392 O   0  0  0  0  0  0  0  0  0  0  0  0
   11.0186    3.9598  -14.9226 C   0  0  0  0  0  0  0  0  0  0  0  0
    8.1758    5.8633  -10.2511 C   0  0  1  0  0  0  0  0  0  0  0  0
   11.4648    2.7104  -15.2650 O   0  0  0  0  0  0  0  0  0  0  0  0
    9.9512    6.8220   -6.8436 C   0  0  0  0  0  0  0  0  0  0  0  0
    9.6899    6.3705   -8.1082 C   0  0  2  0  0  0  0  0  0  0  0  0
    9.1306    2.9610  -13.9685 C   0  0  0  0  0  0  0  0  0  0  0  0
    8.8414    5.0113   -7.7726 C   0  0  0  0  0  0  0  0  0  0  0  0
   11.6944    4.9031  -15.4200 O   0  0  0  0  0  0  0  0  0  0  0  0
   11.2282    8.3639   -5.2721 C   0  0  0  0  0  0  0  0  0  0  0  0
    8.7016    2.4223  -12.9165 C   0  0  1  0  0  0  0  0  0  0  0  0
   11.9286    7.6722   -4.3404 C   0  0  0  0  0  0  0  0  0  0  0  0
   10.7972    9.7001   -4.9421 C   0  0  0  0  0  0  0  0  0  0  0  0
   12.3405    6.1168   -4.5669 C   0  0  0  0  0  0  0  0  0  0  0  0
   12.3137    8.1587   -3.0956 C   0  0  0  0  0  0  0  0  0  0  0  0
   13.0538    7.4153   -1.9549 C   0  0  0  0  0  0  0  0  0  0  0  0
   10.1573   10.4643   -5.9926 F   0  0  0  0  0  0  0  0  0  0  0  0
   12.0557    9.5998   -2.8605 C   0  0  0  0  0  0  0  0  0  0  0  0
   11.3059   10.3099   -3.7725 C   0  0  0  0  0  0  0  0  0  0  0  0
  1  2  1  0  0  0  0
  2  3  1  0  0  0  0
  2  7  2  0  0  0  0
  4  3  1  6  0  0  0
  4  5  1  0  0  0  0
  4  6  1  0  0  0  0
  4  8  1  0  0  0  0
  5  9  2  0  0  0  0
  6 13  1  0  0  0  0
  7 12  1  0  0  0  0
  8 19  2  0  0  0  0
 10  7  1  1  0  0  0
 10 14  1  0  0  0  0
 10 17  1  0  0  0  0
 11  8  1  6  0  0  0
 11 20  1  0  0  0  0
 11 32  1  0  0  0  0
 12 18  1  0  0  0  0
 12 30  1  1  0  0  0
 12 32  1  0  0  0  0
 13 16  2  0  0  0  0
 13 21  1  0  0  0  0
 14  5  1  1  0  0  0
 14 15  1  0  0  0  0
 14 20  1  0  0  0  0
 15 31  1  0  0  0  0
 15 36  1  0  0  0  0
 17 18  1  0  0  0  0
 17 23  1  0  0  0  0
 18 25  1  0  0  0  0
 18 26  1  0  0  0  0
 19 21  1  0  0  0  0
 19 35  1  0  0  0  0
 20 23  1  0  0  0  0
 21 22  2  0  0  0  0
 22 27  1  0  0  0  0
 23 24  1  0  0  0  0
 23 40  1  0  0  0  0
 24 26  1  0  0  0  0
 24 40  1  0  0  0  0
 26 28  2  0  0  0  0
 27 34  2  0  0  0  0
 27 39  1  0  0  0  0
 28 29  1  0  0  0  0
 28 32  1  0  0  0  0
 29 37  2  0  0  0  0
 31 33  2  0  0  0  0
 31 38  1  0  0  0  0
 34 35  1  0  0  0  0
 35 37  1  0  0  0  0
 36 40  1  0  0  0  0
 39 41  1  0  0  0  0
 39 42  2  0  0  0  0
 41 43  1  0  0  0  0
 41 44  2  0  0  0  0
 42 46  1  0  0  0  0
 42 48  1  0  0  0  0
 44 45  1  0  0  0  0
 44 47  1  0  0  0  0
 47 48  2  0  0  0  0
M  END
$$$$

 OpenBabel10082411353D

 48 60  0  0  0  0  0  0  0  0999 V2000
    8.0806    9.0240  -12.7589 C   0  0  0  0  0  0  0  0  0  0  0  0
    8.6514    7.8645  -12.2948 C   0  0  0  0  0  0  0  0  0  0  0  0
    9.9575    7.9974  -11.8426 C   0  0  0  0  0  0  0  0  0  0  0  0
   10.7657    6.8667  -11.6050 C   0  0  1  0  0  0  0  0  0  0  0  0
   10.7682    5.9590  -12.8271 C   0  0  0  0  0  0  0  0  0  0  0  0
   12.1553    7.3846  -11.2315 C   0  0  0  0  0  0  0  0  0  0  0  0
    8.0676    6.6451  -12.2974 C   0  0  0  0  0  0  0  0  0  0  0  0
   10.1892    6.1240  -10.3860 C   0  0  0  0  0  0  0  0  0  0  0  0
   11.8375    5.4373  -13.3240 O   0  0  0  0  0  0  0  0  0  0  0  0
    8.6785    5.4761  -13.0273 C   0  0  1  0  0  0  0  0  0  0  0  0
    9.1969    5.2405  -10.4969 C   0  0  2  0  0  0  0  0  0  0  0  0
    7.2213    6.2210  -11.3074 C   0  0  2  0  0  0  0  0  0  0  0  0
   12.5590    7.6872   -9.9896 C   0  0  0  0  0  0  0  0  0  0  0  0
    9.7633    5.0333  -12.9720 C   0  0  1  0  0  0  0  0  0  0  0  0
   10.0661    4.0167  -14.0373 N   0  0  0  0  0  0  0  0  0  0  0  0
   13.6906    8.3004   -9.6233 O   0  0  0  0  0  0  0  0  0  0  0  0
    7.6357    4.5123  -12.6317 C   0  0  2  0  0  0  0  0  0  0  0  0
    6.8831    4.9171  -11.7031 C   0  0  2  0  0  0  0  0  0  0  0  0
   10.5937    6.6967   -9.1779 C   0  0  0  0  0  0  0  0  0  0  0  0
    9.5087    4.3263  -11.6925 C   0  0  2  0  0  0  0  0  0  0  0  0
   11.6359    7.4449   -8.9125 C   0  0  0  0  0  0  0  0  0  0  0  0
   11.9716    7.9159   -7.6200 C   0  0  0  0  0  0  0  0  0  0  0  0
    8.4648    3.6122  -12.2840 C   0  0  1  0  0  0  0  0  0  0  0  0
    7.9253    2.8004  -11.3926 C   0  0  0  0  0  0  0  0  0  0  0  0
    5.6047    4.5059  -11.7589 C   0  0  0  0  0  0  0  0  0  0  0  0
    7.6606    4.1297  -10.5699 C   0  0  0  0  0  0  0  0  0  0  0  0
   10.9559    7.6849   -6.6057 C   0  0  0  0  0  0  0  0  0  0  0  0
    8.0094    4.5092   -9.5664 C   0  0  0  0  0  0  0  0  0  0  0  0
    8.3033    4.0627   -8.4980 C   0  0  0  0  0  0  0  0  0  0  0  0
    6.3587    7.1012  -11.0392 O   0  0  0  0  0  0  0  0  0  0  0  0
   11.0186    3.9598  -14.9226 C   0  0  0  0  0  0  0  0  0  0  0  0
    8.1758    5.8633  -10.2511 C   0  0  1  0  0  0  0  0  0  0  0  0
   11.4648    2.7104  -15.2650 O   0  0  0  0  0  0  0  0  0  0  0  0
    9.9512    6.8220   -6.8436 C   0  0  0  0  0  0  0  0  0  0  0  0
    9.6899    6.3705   -8.1082 C   0  0  2  0  0  0  0  0  0  0  0  0
   11.2597    8.2901   -5.2396 C   0  0  0  0  0  0  0  0  0  0  0  0
   11.7295    4.9426  -15.4284 O   0  0  0  0  0  0  0  0  0  0  0  0
    9.2745    4.9481   -7.8103 C   0  0  0  0  0  0  0  0  0  0  0  0
    9.1757    2.9301  -13.7559 C   0  0  0  0  0  0  0  0  0  0  0  0
   11.9187    7.5856   -4.3294 C   0  0  0  0  0  0  0  0  0  0  0  0
   11.7781    6.4587   -4.0864 C   0  0  0  0  0  0  0  0  0  0  0  0
   10.9546    9.6992   -5.1271 C   0  0  0  0  0  0  0  0  0  0  0  0
   10.2713   10.5528   -6.1587 F   0  0  0  0  0  0  0  0  0  0  0  0
   12.3228    8.5445   -3.1024 C   0  0  0  0  0  0  0  0  0  0  0  0
   11.4237   10.4607   -4.0195 C   0  0  0  0  0  0  0  0  0  0  0  0
   12.0391    9.8250   -3.0051 C   0  0  0  0  0  0  0  0  0  0  0  0
   12.8026    7.6101   -2.1020 C   0  0  0  0  0  0  0  0  0  0  0  0
   12.6741    6.2163   -2.5110 S   0  0  0  0  0  0  0  0  0  0  0  0
  1  2  1  0  0  0  0
  2  3  1  0  0  0  0
  2  7  2  0  0  0  0
  4  3  1  6  0  0  0
  4  5  1  0  0  0  0
  4  6  1  0  0  0  0
  4  8  1  0  0  0  0
  5  9  2  0  0  0  0
  6 13  1  0  0  0  0
  7 12  1  0  0  0  0
  8 19  2  0  0  0  0
 10  7  1  1  0  0  0
 10 14  1  0  0  0  0
 10 17  1  0  0  0  0
 11  8  1  6  0  0  0
 11 20  1  0  0  0  0
 11 32  1  0  0  0  0
 12 18  1  0  0  0  0
 12 30  1  1  0  0  0
 12 32  1  0  0  0  0
 13 16  2  0  0  0  0
 13 21  1  0  0  0  0
 14  5  1  1  0  0  0
 14 15  1  0  0  0  0
 14 20  1  0  0  0  0
 15 31  1  0  0  0  0
 15 39  1  0  0  0  0
 17 18  1  0  0  0  0
 17 23  1  0  0  0  0
 18 25  1  0  0  0  0
 18 26  1  0  0  0  0
 19 21  1  0  0  0  0
 19 35  1  0  0  0  0
 20 23  1  0  0  0  0
 21 22  2  0  0  0  0
 22 27  1  0  0  0  0
 23 24  1  0  0  0  0
 23 39  1  0  0  0  0
 24 26  1  0  0  0  0
 26 28  2  0  0  0  0
 27 34  2  0  0  0  0
 27 36  1  0  0  0  0
 28 29  1  0  0  0  0
 28 32  1  0  0  0  0
 29 38  1  0  0  0  0
 31 33  2  0  0  0  0
 31 37  1  0  0  0  0
 34 35  1  0  0  0  0
 35 38  1  0  0  0  0
 36 40  1  0  0  0  0
 36 42  2  0  0  0  0
 40 41  2  0  0  0  0
 40 44  1  0  0  0  0
 41 48  1  0  0  0  0
 42 43  1  0  0  0  0
 42 45  1  0  0  0  0
 44 46  1  0  0  0  0
 44 47  2  0  0  0  0
 45 46  2  0  0  0  0
 47 48  1  0  0  0  0
M  END
$$$$

 OpenBabel10082411353D

 48 60  0  0  0  0  0  0  0  0999 V2000
    8.0806    9.0240  -12.7589 C   0  0  0  0  0  0  0  0  0  0  0  0
    8.6514    7.8645  -12.2948 C   0  0  0  0  0  0  0  0  0  0  0  0
    9.9575    7.9974  -11.8426 C   0  0  0  0  0  0  0  0  0  0  0  0
   10.7657    6.8667  -11.6050 C   0  0  1  0  0  0  0  0  0  0  0  0
   10.7682    5.9590  -12.8271 C   0  0  0  0  0  0  0  0  0  0  0  0
   12.1553    7.3846  -11.2315 C   0  0  0  0  0  0  0  0  0  0  0  0
    8.0676    6.6451  -12.2974 C   0  0  0  0  0  0  0  0  0  0  0  0
   10.1892    6.1240  -10.3860 C   0  0  0  0  0  0  0  0  0  0  0  0
   11.8375    5.4373  -13.3240 O   0  0  0  0  0  0  0  0  0  0  0  0
    8.6785    5.4761  -13.0273 C   0  0  1  0  0  0  0  0  0  0  0  0
    9.1969    5.2405  -10.4969 C   0  0  2  0  0  0  0  0  0  0  0  0
    7.2213    6.2210  -11.3074 C   0  0  2  0  0  0  0  0  0  0  0  0
   12.5590    7.6872   -9.9896 C   0  0  0  0  0  0  0  0  0  0  0  0
    9.7633    5.0333  -12.9720 C   0  0  1  0  0  0  0  0  0  0  0  0
   10.0661    4.0167  -14.0373 N   0  0  0  0  0  0  0  0  0  0  0  0
   13.6906    8.3004   -9.6233 O   0  0  0  0  0  0  0  0  0  0  0  0
    7.6357    4.5123  -12.6317 C   0  0  2  0  0  0  0  0  0  0  0  0
    6.8831    4.9171  -11.7031 C   0  0  2  0  0  0  0  0  0  0  0  0
   10.5937    6.6967   -9.1779 C   0  0  0  0  0  0  0  0  0  0  0  0
    9.5087    4.3263  -11.6925 C   0  0  2  0  0  0  0  0  0  0  0  0
   11.6359    7.4449   -8.9125 C   0  0  0  0  0  0  0  0  0  0  0  0
   11.9716    7.9159   -7.6200 C   0  0  0  0  0  0  0  0  0  0  0  0
    8.4648    3.6122  -12.2840 C   0  0  1  0  0  0  0  0  0  0  0  0
    7.9253    2.8004  -11.3926 C   0  0  0  0  0  0  0  0  0  0  0  0
    5.6047    4.5059  -11.7589 C   0  0  0  0  0  0  0  0  0  0  0  0
    7.6606    4.1297  -10.5699 C   0  0  0  0  0  0  0  0  0  0  0  0
   10.9559    7.6849   -6.6057 C   0  0  0  0  0  0  0  0  0  0  0  0
    8.0094    4.5092   -9.5664 C   0  0  0  0  0  0  0  0  0  0  0  0
    8.3033    4.0627   -8.4980 C   0  0  0  0  0  0  0  0  0  0  0  0
    6.3587    7.1012  -11.0392 O   0  0  0  0  0  0  0  0  0  0  0  0
   11.1885    8.2709   -5.2029 C   0  0  0  0  0  0  0  0  0  0  0  0
    8.1551    5.8688  -10.2415 C   0  0  1  0  0  0  0  0  0  0  0  0
    9.3562    2.8931  -13.4173 C   0  0  0  0  0  0  0  0  0  0  0  0
    9.4006    1.8057  -13.6789 O   0  0  0  0  0  0  0  0  0  0  0  0
   10.6448    3.9324  -15.2556 C   0  0  0  0  0  0  0  0  0  0  0  0
    9.9004    6.8953   -6.7235 C   0  0  0  0  0  0  0  0  0  0  0  0
    8.1584    4.7418   -7.5351 O   0  0  0  0  0  0  0  0  0  0  0  0
    8.5999    2.9050   -8.2804 O   0  0  0  0  0  0  0  0  0  0  0  0
   11.6420    7.3504   -4.2035 C   0  0  0  0  0  0  0  0  0  0  0  0
    9.6081    6.4128   -8.0398 C   0  0  2  0  0  0  0  0  0  0  0  0
    8.3828    5.9446   -7.9275 C   0  0  1  0  0  0  0  0  0  0  0  0
   11.1933    9.6919   -4.9542 C   0  0  0  0  0  0  0  0  0  0  0  0
   10.7525   10.6554   -6.1095 F   0  0  0  0  0  0  0  0  0  0  0  0
   12.0138    7.8751   -3.0370 C   0  0  0  0  0  0  0  0  0  0  0  0
   12.4268    6.9600   -1.9203 C   0  0  0  0  0  0  0  0  0  0  0  0
   11.9826    9.4203   -2.7313 C   0  0  0  0  0  0  0  0  0  0  0  0
   11.5763   10.2251   -3.7793 C   0  0  0  0  0  0  0  0  0  0  0  0
    8.7229    6.3135   -9.0859 C   0  0  2  0  0  0  0  0  0  0  0  0
  1  2  1  0  0  0  0
  2  3  1  0  0  0  0
  2  7  2  0  0  0  0
  4  3  1  6  0  0  0
  4  5  1  0  0  0  0
  4  6  1  0  0  0  0
  4  8  1  0  0  0  0
  5  9  2  0  0  0  0
  6 13  1  0  0  0  0
  7 12  1  0  0  0  0
  8 19  2  0  0  0  0
 10  7  1  1  0  0  0
 10 14  1  0  0  0  0
 10 17  1  0  0  0  0
 11  8  1  6  0  0  0
 11 20  1  0  0  0  0
 11 32  1  0  0  0  0
 12 18  1  0  0  0  0
 12 30  1  6  0  0  0
 13 16  2  0  0  0  0
 13 21  1  0  0  0  0
 14  5  1  1  0  0  0
 14 15  1  0  0  0  0
 14 20  1  0  0  0  0
 15 33  1  0  0  0  0
 15 35  1  0  0  0  0
 17 18  1  0  0  0  0
 17 23  1  0  0  0  0
 18 25  1  0  0  0  0
 18 26  1  0  0  0  0
 19 21  1  0  0  0  0
 19 40  1  0  0  0  0
 20 23  1  0  0  0  0
 21 22  2  0  0  0  0
 22 27  1  0  0  0  0
 23 24  1  0  0  0  0
 23 33  1  0  0  0  0
 24 26  1  0  0  0  0
 26 28  2  0  0  0  0
 27 31  1  0  0  0  0
 27 36  2  0  0  0  0
 28 29  1  0  0  0  0
 28 32  1  0  0  0  0
 29 37  1  0  0  0  0
 29 38  2  0  0  0  0
 31 39  1  0  0  0  0
 31 42  2  0  0  0  0
 32 48  1  0  0  0  0
 33 34  2  0  0  0  0
 36 40  1  0  0  0  0
 37 41  1  0  0  0  0
 39 44  2  0  0  0  0
 40 41  1  0  0  0  0
 40 48  1  0  0  0  0
 41 48  1  0  0  0  0
 42 43  1  0  0  0  0
 42 47  1  0  0  0  0
 44 45  1  0  0  0  0
 44 46  1  0  0  0  0
 46 47  2  0  0  0  0
M  END
$$$$

 OpenBabel10082411353D

 48 60  0  0  0  0  0  0  0  0999 V2000
    8.0806    9.0240  -12.7589 C   0  0  0  0  0  0  0  0  0  0  0  0
    8.6514    7.8645  -12.2948 C   0  0  0  0  0  0  0  0  0  0  0  0
    9.9575    7.9974  -11.8426 C   0  0  0  0  0  0  0  0  0  0  0  0
   10.7657    6.8667  -11.6050 C   0  0  1  0  0  0  0  0  0  0  0  0
   10.7682    5.9590  -12.8271 C   0  0  0  0  0  0  0  0  0  0  0  0
   12.1553    7.3846  -11.2315 C   0  0  0  0  0  0  0  0  0  0  0  0
    8.0676    6.6451  -12.2974 C   0  0  0  0  0  0  0  0  0  0  0  0
   10.1892    6.1240  -10.3860 C   0  0  0  0  0  0  0  0  0  0  0  0
   11.8375    5.4373  -13.3240 O   0  0  0  0  0  0  0  0  0  0  0  0
    8.6785    5.4761  -13.0273 C   0  0  1  0  0  0  0  0  0  0  0  0
    9.1969    5.2405  -10.4969 C   0  0  2  0  0  0  0  0  0  0  0  0
    7.2213    6.2210  -11.3074 C   0  0  2  0  0  0  0  0  0  0  0  0
   12.5590    7.6872   -9.9896 C   0  0  0  0  0  0  0  0  0  0  0  0
    9.7633    5.0333  -12.9720 C   0  0  1  0  0  0  0  0  0  0  0  0
   10.0661    4.0167  -14.0373 N   0  0  0  0  0  0  0  0  0  0  0  0
   13.6906    8.3004   -9.6233 O   0  0  0  0  0  0  0  0  0  0  0  0
    7.6357    4.5123  -12.6317 C   0  0  2  0  0  0  0  0  0  0  0  0
    6.8831    4.9171  -11.7031 C   0  0  2  0  0  0  0  0  0  0  0  0
   10.5937    6.6967   -9.1779 C   0  0  0  0  0  0  0  0  0  0  0  0
    9.5087    4.3263  -11.6925 C   0  0  2  0  0  0  0  0  0  0  0  0
   11.6359    7.4449   -8.9125 C   0  0  0  0  0  0  0  0  0  0  0  0
   11.9716    7.9159   -7.6200 C   0  0  0  0  0  0  0  0  0  0  0  0
    8.4648    3.6122  -12.2840 C   0  0  1  0  0  0  0  0  0  0  0  0
    7.9253    2.8004  -11.3926 C   0  0  0  0  0  0  0  0  0  0  0  0
    5.6047    4.5059  -11.7589 C   0  0  0  0  0  0  0  0  0  0  0  0
    7.6606    4.1297  -10.5699 C   0  0  0  0  0  0  0  0  0  0  0  0
   10.9559    7.6849   -6.6057 C   0  0  0  0  0  0  0  0  0  0  0  0
    8.0094    4.5092   -9.5664 C   0  0  0  0  0  0  0  0  0  0  0  0
    8.3033    4.0627   -8.4980 C   0  0  0  0  0  0  0  0  0  0  0  0
    6.3587    7.1012  -11.0392 O   0  0  0  0  0  0  0  0  0  0  0  0
   11.0186    3.9598  -14.9226 C   0  0  0  0  0  0  0  0  0  0  0  0
    8.1758    5.8633  -10.2511 C   0  0  1  0  0  0  0  0  0  0  0  0
   11.4648    2.7104  -15.2650 O   0  0  0  0  0  0  0  0  0  0  0  0
    9.9512    6.8220   -6.8436 C   0  0  0  0  0  0  0  0  0  0  0  0
    9.6899    6.3705   -8.1082 C   0  0  2  0  0  0  0  0  0  0  0  0
   11.2597    8.2901   -5.2396 C   0  0  0  0  0  0  0  0  0  0  0  0
   11.7295    4.9426  -15.4284 O   0  0  0  0  0  0  0  0  0  0  0  0
    9.2745    4.9481   -7.8103 C   0  0  0  0  0  0  0  0  0  0  0  0
    9.1757    2.9301  -13.7559 C   0  0  0  0  0  0  0  0  0  0  0  0
   11.9187    7.5856   -4.3294 C   0  0  0  0  0  0  0  0  0  0  0  0
   11.7781    6.4587   -4.0864 C   0  0  0  0  0  0  0  0  0  0  0  0
   10.9546    9.6992   -5.1271 C   0  0  0  0  0  0  0  0  0  0  0  0
   10.2713   10.5528   -6.1587 F   0  0  0  0  0  0  0  0  0  0  0  0
   12.3228    8.5445   -3.1024 C   0  0  2  0  0  0  0  0  0  0  0  0
   11.4237   10.4607   -4.0195 C   0  0  0  0  0  0  0  0  0  0  0  0
   12.9105    7.7538   -2.0110 C   0  0  0  0  0  0  0  0  0  0  0  0
   12.0168    9.8147   -3.0135 C   0  0  0  0  0  0  0  0  0  0  0  0
   12.5268    6.3941   -2.4945 C   0  0  0  0  0  0  0  0  0  0  0  0
  1  2  1  0  0  0  0
  2  3  1  0  0  0  0
  2  7  2  0  0  0  0
  4  3  1  6  0  0  0
  4  5  1  0  0  0  0
  4  6  1  0  0  0  0
  4  8  1  0  0  0  0
  5  9  2  0  0  0  0
  6 13  1  0  0  0  0
  7 12  1  0  0  0  0
  8 19  2  0  0  0  0
 10  7  1  1  0  0  0
 10 14  1  0  0  0  0
 10 17  1  0  0  0  0
 11  8  1  6  0  0  0
 11 20  1  0  0  0  0
 11 32  1  0  0  0  0
 12 18  1  0  0  0  0
 12 30  1  1  0  0  0
 12 32  1  0  0  0  0
 13 16  2  0  0  0  0
 13 21  1  0  0  0  0
 14  5  1  1  0  0  0
 14 15  1  0  0  0  0
 14 20  1  0  0  0  0
 15 31  1  0  0  0  0
 15 39  1  0  0  0  0
 17 18  1  0  0  0  0
 17 23  1  0  0  0  0
 18 25  1  0  0  0  0
 18 26  1  0  0  0  0
 19 21  1  0  0  0  0
 19 35  1  0  0  0  0
 20 23  1  0  0  0  0
 21 22  2  0  0  0  0
 22 27  1  0  0  0  0
 23 24  1  0  0  0  0
 23 39  1  0  0  0  0
 24 26  1  0  0  0  0
 26 28  2  0  0  0  0
 27 34  2  0  0  0  0
 27 36  1  0  0  0  0
 28 29  1  0  0  0  0
 28 32  1  0  0  0  0
 29 38  1  0  0  0  0
 31 33  2  0  0  0  0
 31 37  1  0  0  0  0
 34 35  1  0  0  0  0
 35 38  1  0  0  0  0
 36 40  1  0  0  0  0
 36 42  2  0  0  0  0
 40 41  2  0  0  0  0
 40 44  1  0  0  0  0
 41 48  1  0  0  0  0
 42 43  1  0  0  0  0
 42 45  1  0  0  0  0
 44 46  1  0  0  0  0
 44 47  1  0  0  0  0
 45 47  1  0  0  0  0
 46 48  1  0  0  0  0
M  END
$$$$

 OpenBabel10082411353D

 48 60  0  0  0  0  0  0  0  0999 V2000
    8.0806    9.0240  -12.7589 C   0  0  0  0  0  0  0  0  0  0  0  0
    8.6514    7.8645  -12.2948 C   0  0  0  0  0  0  0  0  0  0  0  0
    9.9575    7.9974  -11.8426 C   0  0  0  0  0  0  0  0  0  0  0  0
   10.7657    6.8667  -11.6050 C   0  0  1  0  0  0  0  0  0  0  0  0
   10.7682    5.9590  -12.8271 C   0  0  0  0  0  0  0  0  0  0  0  0
   12.1553    7.3846  -11.2315 C   0  0  0  0  0  0  0  0  0  0  0  0
    8.0676    6.6451  -12.2974 C   0  0  0  0  0  0  0  0  0  0  0  0
   10.1892    6.1240  -10.3860 C   0  0  0  0  0  0  0  0  0  0  0  0
   11.8375    5.4373  -13.3240 O   0  0  0  0  0  0  0  0  0  0  0  0
    8.6785    5.4761  -13.0273 C   0  0  1  0  0  0  0  0  0  0  0  0
    9.1969    5.2405  -10.4969 C   0  0  2  0  0  0  0  0  0  0  0  0
    7.2213    6.2210  -11.3074 C   0  0  2  0  0  0  0  0  0  0  0  0
   12.5590    7.6872   -9.9896 C   0  0  0  0  0  0  0  0  0  0  0  0
    9.7633    5.0333  -12.9720 C   0  0  1  0  0  0  0  0  0  0  0  0
   10.0661    4.0167  -14.0373 N   0  0  0  0  0  0  0  0  0  0  0  0
   13.6906    8.3004   -9.6233 O   0  0  0  0  0  0  0  0  0  0  0  0
    7.6357    4.5123  -12.6317 C   0  0  2  0  0  0  0  0  0  0  0  0
    6.8831    4.9171  -11.7031 C   0  0  2  0  0  0  0  0  0  0  0  0
   10.5937    6.6967   -9.1779 C   0  0  0  0  0  0  0  0  0  0  0  0
    9.5087    4.3263  -11.6925 C   0  0  2  0  0  0  0  0  0  0  0  0
   11.6359    7.4449   -8.9125 C   0  0  0  0  0  0  0  0  0  0  0  0
   11.9716    7.9159   -7.6200 C   0  0  0  0  0  0  0  0  0  0  0  0
    8.4648    3.6122  -12.2840 C   0  0  1  0  0  0  0  0  0  0  0  0
    7.9253    2.8004  -11.3926 C   0  0  0  0  0  0  0  0  0  0  0  0
    5.6047    4.5059  -11.7589 C   0  0  0  0  0  0  0  0  0  0  0  0
    7.6606    4.1297  -10.5699 C   0  0  0  0  0  0  0  0  0  0  0  0
   10.9559    7.6849   -6.6057 C   0  0  0  0  0  0  0  0  0  0  0  0
    8.0094    4.5092   -9.5664 C   0  0  0  0  0  0  0  0  0  0  0  0
    8.3033    4.0627   -8.4980 C   0  0  0  0  0  0  0  0  0  0  0  0
    6.3587    7.1012  -11.0392 O   0  0  0  0  0  0  0  0  0  0  0  0
   11.0186    3.9598  -14.9226 C   0  0  0  0  0  0  0  0  0  0  0  0
    8.1758    5.8633  -10.2511 C   0  0  1  0  0  0  0  0  0  0  0  0
   11.4648    2.7104  -15.2650 O   0  0  0  0  0  0  0  0  0  0  0  0
    9.9512    6.8220   -6.8436 C   0  0  0  0  0  0  0  0  0  0  0  0
    9.6899    6.3705   -8.1082 C   0  0  2  0  0  0  0  0  0  0  0  0
   11.2597    8.2901   -5.2396 C   0  0  0  0  0  0  0  0  0  0  0  0
   11.7295    4.9426  -15.4284 O   0  0  0  0  0  0  0  0  0  0  0  0
    9.2745    4.9481   -7.8103 C   0  0  0  0  0  0  0  0  0  0  0  0
    9.1757    2.9301  -13.7559 C   0  0  0  0  0  0  0  0  0  0  0  0
   11.9187    7.5856   -4.3294 C   0  0  0  0  0  0  0  0  0  0  0  0
   11.7781    6.4587   -4.0864 C   0  0  0  0  0  0  0  0  0  0  0  0
   10.9546    9.6992   -5.1271 C   0  0  0  0  0  0  0  0  0  0  0  0
   10.2713   10.5528   -6.1587 F   0  0  0  0  0  0  0  0  0  0  0  0
   12.3228    8.5445   -3.1024 C   0  0  0  0  0  0  0  0  0  0  0  0
   11.4237   10.4607   -4.0195 C   0  0  0  0  0  0  0  0  0  0  0  0
   12.0523    9.7340   -3.0661 C   0  0  0  0  0  0  0  0  0  0  0  0
   12.8699    7.8531   -2.0217 C   0  0  0  0  0  0  0  0  0  0  0  0
   12.7751    6.2749   -2.2261 C   0  0  0  0  0  0  0  0  0  0  0  0
  1  2  1  0  0  0  0
  2  3  1  0  0  0  0
  2  7  2  0  0  0  0
  4  3  1  6  0  0  0
  4  5  1  0  0  0  0
  4  6  1  0  0  0  0
  4  8  1  0  0  0  0
  5  9  2  0  0  0  0
  6 13  1  0  0  0  0
  7 12  1  0  0  0  0
  8 19  2  0  0  0  0
 10  7  1  1  0  0  0
 10 14  1  0  0  0  0
 10 17  1  0  0  0  0
 11  8  1  6  0  0  0
 11 20  1  0  0  0  0
 11 32  1  0  0  0  0
 12 18  1  0  0  0  0
 12 30  1  1  0  0  0
 12 32  1  0  0  0  0
 13 16  2  0  0  0  0
 13 21  1  0  0  0  0
 14  5  1  1  0  0  0
 14 15  1  0  0  0  0
 14 20  1  0  0  0  0
 15 31  1  0  0  0  0
 15 39  1  0  0  0  0
 17 18  1  0  0  0  0
 17 23  1  0  0  0  0
 18 25  1  0  0  0  0
 18 26  1  0  0  0  0
 19 21  1  0  0  0  0
 19 35  1  0  0  0  0
 20 23  1  0  0  0  0
 21 22  2  0  0  0  0
 22 27  1  0  0  0  0
 23 24  1  0  0  0  0
 23 39  1  0  0  0  0
 24 26  1  0  0  0  0
 26 28  2  0  0  0  0
 27 34  2  0  0  0  0
 27 36  1  0  0  0  0
 28 29  1  0  0  0  0
 28 32  1  0  0  0  0
 29 38  1  0  0  0  0
 31 33  2  0  0  0  0
 31 37  1  0  0  0  0
 34 35  1  0  0  0  0
 35 38  1  0  0  0  0
 36 40  1  0  0  0  0
 36 42  2  0  0  0  0
 40 41  2  0  0  0  0
 40 44  1  0  0  0  0
 41 48  1  0  0  0  0
 42 43  1  0  0  0  0
 42 45  1  0  0  0  0
 44 46  1  0  0  0  0
 44 47  2  0  0  0  0
 45 46  2  0  0  0  0
 47 48  1  0  0  0  0
M  END
$$$$

 OpenBabel10082411353D

 48 60  0  0  0  0  0  0  0  0999 V2000
    8.0806    9.0240  -12.7589 C   0  0  0  0  0  0  0  0  0  0  0  0
    8.6514    7.8645  -12.2948 C   0  0  0  0  0  0  0  0  0  0  0  0
    9.9575    7.9974  -11.8426 C   0  0  0  0  0  0  0  0  0  0  0  0
   10.7657    6.8667  -11.6050 C   0  0  1  0  0  0  0  0  0  0  0  0
   10.7682    5.9590  -12.8271 C   0  0  0  0  0  0  0  0  0  0  0  0
   12.1553    7.3846  -11.2315 C   0  0  0  0  0  0  0  0  0  0  0  0
    8.0676    6.6451  -12.2974 C   0  0  0  0  0  0  0  0  0  0  0  0
   10.1892    6.1240  -10.3860 C   0  0  0  0  0  0  0  0  0  0  0  0
   11.8375    5.4373  -13.3240 O   0  0  0  0  0  0  0  0  0  0  0  0
    8.6785    5.4761  -13.0273 C   0  0  1  0  0  0  0  0  0  0  0  0
    9.1969    5.2405  -10.4969 C   0  0  2  0  0  0  0  0  0  0  0  0
    7.2213    6.2210  -11.3074 C   0  0  2  0  0  0  0  0  0  0  0  0
   12.5590    7.6872   -9.9896 C   0  0  0  0  0  0  0  0  0  0  0  0
    9.7633    5.0333  -12.9720 C   0  0  1  0  0  0  0  0  0  0  0  0
   10.0661    4.0167  -14.0373 N   0  0  0  0  0  0  0  0  0  0  0  0
   13.6906    8.3004   -9.6233 O   0  0  0  0  0  0  0  0  0  0  0  0
    7.6357    4.5123  -12.6317 C   0  0  2  0  0  0  0  0  0  0  0  0
    6.8831    4.9171  -11.7031 C   0  0  2  0  0  0  0  0  0  0  0  0
   10.5937    6.6967   -9.1779 C   0  0  0  0  0  0  0  0  0  0  0  0
    9.5087    4.3263  -11.6925 C   0  0  2  0  0  0  0  0  0  0  0  0
   11.6359    7.4449   -8.9125 C   0  0  0  0  0  0  0  0  0  0  0  0
   11.9716    7.9159   -7.6200 C   0  0  0  0  0  0  0  0  0  0  0  0
    8.4648    3.6122  -12.2840 C   0  0  1  0  0  0  0  0  0  0  0  0
    7.9253    2.8004  -11.3926 C   0  0  0  0  0  0  0  0  0  0  0  0
    5.6047    4.5059  -11.7589 C   0  0  0  0  0  0  0  0  0  0  0  0
    7.6606    4.1297  -10.5699 C   0  0  0  0  0  0  0  0  0  0  0  0
   10.9559    7.6849   -6.6057 C   0  0  0  0  0  0  0  0  0  0  0  0
    8.0094    4.5092   -9.5664 C   0  0  0  0  0  0  0  0  0  0  0  0
    8.3033    4.0627   -8.4980 C   0  0  0  0  0  0  0  0  0  0  0  0
    6.3587    7.1012  -11.0392 O   0  0  0  0  0  0  0  0  0  0  0  0
   11.0186    3.9598  -14.9226 C   0  0  0  0  0  0  0  0  0  0  0  0
    8.1758    5.8633  -10.2511 C   0  0  1  0  0  0  0  0  0  0  0  0
   11.4648    2.7104  -15.2650 O   0  0  0  0  0  0  0  0  0  0  0  0
    9.9512    6.8220   -6.8436 C   0  0  0  0  0  0  0  0  0  0  0  0
    9.6899    6.3705   -8.1082 C   0  0  2  0  0  0  0  0  0  0  0  0
   11.2597    8.2901   -5.2396 C   0  0  0  0  0  0  0  0  0  0  0  0
   11.7295    4.9426  -15.4284 O   0  0  0  0  0  0  0  0  0  0  0  0
    9.2745    4.9481   -7.8103 C   0  0  0  0  0  0  0  0  0  0  0  0
    9.1757    2.9301  -13.7559 C   0  0  0  0  0  0  0  0  0  0  0  0
   11.9187    7.5856   -4.3294 C   0  0  0  0  0  0  0  0  0  0  0  0
   11.7781    6.4587   -4.0864 C   0  0  0  0  0  0  0  0  0  0  0  0
   10.9546    9.6992   -5.1271 C   0  0  0  0  0  0  0  0  0  0  0  0
   12.7574    8.4431   -3.4035 C   0  0  2  0  0  0  0  0  0  0  0  0
   13.3571    7.7115   -2.3579 C   0  0  0  0  0  0  0  0  0  0  0  0
   12.0915    9.6102   -3.0680 C   0  0  0  0  0  0  0  0  0  0  0  0
   11.3835   10.3358   -3.9962 C   0  0  0  0  0  0  0  0  0  0  0  0
   12.4777    5.6966   -3.1082 C   0  0  0  0  0  0  0  0  0  0  0  0
   13.1302    6.3993   -2.1572 C   0  0  0  0  0  0  0  0  0  0  0  0
  1  2  1  0  0  0  0
  2  3  1  0  0  0  0
  2  7  2  0  0  0  0
  4  3  1  6  0  0  0
  4  5  1  0  0  0  0
  4  6  1  0  0  0  0
  4  8  1  0  0  0  0
  5  9  2  0  0  0  0
  6 13  1  0  0  0  0
  7 12  1  0  0  0  0
  8 19  2  0  0  0  0
 10  7  1  1  0  0  0
 10 14  1  0  0  0  0
 10 17  1  0  0  0  0
 11  8  1  6  0  0  0
 11 20  1  0  0  0  0
 11 32  1  0  0  0  0
 12 18  1  0  0  0  0
 12 30  1  1  0  0  0
 12 32  1  0  0  0  0
 13 16  2  0  0  0  0
 13 21  1  0  0  0  0
 14  5  1  1  0  0  0
 14 15  1  0  0  0  0
 14 20  1  0  0  0  0
 15 31  1  0  0  0  0
 15 39  1  0  0  0  0
 17 18  1  0  0  0  0
 17 23  1  0  0  0  0
 18 25  1  0  0  0  0
 18 26  1  0  0  0  0
 19 21  1  0  0  0  0
 19 35  1  0  0  0  0
 20 23  1  0  0  0  0
 21 22  2  0  0  0  0
 22 27  1  0  0  0  0
 23 24  1  0  0  0  0
 23 39  1  0  0  0  0
 24 26  1  0  0  0  0
 26 28  2  0  0  0  0
 27 34  2  0  0  0  0
 27 36  1  0  0  0  0
 28 29  1  0  0  0  0
 28 32  1  0  0  0  0
 29 38  1  0  0  0  0
 31 33  2  0  0  0  0
 31 37  1  0  0  0  0
 34 35  1  0  0  0  0
 35 38  1  0  0  0  0
 36 40  1  0  0  0  0
 36 42  2  0  0  0  0
 40 41  2  0  0  0  0
 40 43  1  0  0  0  0
 41 47  1  0  0  0  0
 42 46  1  0  0  0  0
 43 44  1  0  0  0  0
 43 45  1  0  0  0  0
 44 48  1  0  0  0  0
 45 46  2  0  0  0  0
 47 48  1  0  0  0  0
M  END
$$$$

 OpenBabel10082411353D

 48 60  0  0  0  0  0  0  0  0999 V2000
    8.0806    9.0240  -12.7589 C   0  0  0  0  0  0  0  0  0  0  0  0
    8.6514    7.8645  -12.2948 C   0  0  0  0  0  0  0  0  0  0  0  0
    9.9575    7.9974  -11.8426 C   0  0  0  0  0  0  0  0  0  0  0  0
   10.7657    6.8667  -11.6050 C   0  0  1  0  0  0  0  0  0  0  0  0
   10.7682    5.9590  -12.8271 C   0  0  0  0  0  0  0  0  0  0  0  0
   12.1553    7.3846  -11.2315 C   0  0  0  0  0  0  0  0  0  0  0  0
    8.0676    6.6451  -12.2974 C   0  0  0  0  0  0  0  0  0  0  0  0
   10.1892    6.1240  -10.3860 C   0  0  0  0  0  0  0  0  0  0  0  0
   11.8375    5.4373  -13.3240 O   0  0  0  0  0  0  0  0  0  0  0  0
    8.6785    5.4761  -13.0273 C   0  0  1  0  0  0  0  0  0  0  0  0
    9.1969    5.2405  -10.4969 C   0  0  2  0  0  0  0  0  0  0  0  0
    7.2213    6.2210  -11.3074 C   0  0  2  0  0  0  0  0  0  0  0  0
   12.5590    7.6872   -9.9896 C   0  0  0  0  0  0  0  0  0  0  0  0
    9.7633    5.0333  -12.9720 C   0  0  1  0  0  0  0  0  0  0  0  0
   10.0661    4.0167  -14.0373 N   0  0  0  0  0  0  0  0  0  0  0  0
   13.6906    8.3004   -9.6233 O   0  0  0  0  0  0  0  0  0  0  0  0
    7.6357    4.5123  -12.6317 C   0  0  2  0  0  0  0  0  0  0  0  0
    6.8831    4.9171  -11.7031 C   0  0  2  0  0  0  0  0  0  0  0  0
   10.5937    6.6967   -9.1779 C   0  0  0  0  0  0  0  0  0  0  0  0
    9.5087    4.3263  -11.6925 C   0  0  2  0  0  0  0  0  0  0  0  0
   11.6359    7.4449   -8.9125 C   0  0  0  0  0  0  0  0  0  0  0  0
   11.9716    7.9159   -7.6200 C   0  0  0  0  0  0  0  0  0  0  0  0
    8.4648    3.6122  -12.2840 C   0  0  1  0  0  0  0  0  0  0  0  0
    7.9253    2.8004  -11.3926 C   0  0  0  0  0  0  0  0  0  0  0  0
    5.6047    4.5059  -11.7589 C   0  0  0  0  0  0  0  0  0  0  0  0
    7.6606    4.1297  -10.5699 C   0  0  0  0  0  0  0  0  0  0  0  0
   10.9559    7.6849   -6.6057 C   0  0  0  0  0  0  0  0  0  0  0  0
    8.0094    4.5092   -9.5664 C   0  0  0  0  0  0  0  0  0  0  0  0
    8.3033    4.0627   -8.4980 C   0  0  0  0  0  0  0  0  0  0  0  0
    6.3587    7.1012  -11.0392 O   0  0  0  0  0  0  0  0  0  0  0  0
   11.0186    3.9598  -14.9226 C   0  0  0  0  0  0  0  0  0  0  0  0
    8.1758    5.8633  -10.2511 C   0  0  1  0  0  0  0  0  0  0  0  0
   11.4648    2.7104  -15.2650 O   0  0  0  0  0  0  0  0  0  0  0  0
    9.9512    6.8220   -6.8436 C   0  0  0  0  0  0  0  0  0  0  0  0
    9.6899    6.3705   -8.1082 C   0  0  2  0  0  0  0  0  0  0  0  0
   11.2597    8.2901   -5.2396 C   0  0  0  0  0  0  0  0  0  0  0  0
   11.7295    4.9426  -15.4284 O   0  0  0  0  0  0  0  0  0  0  0  0
    9.2745    4.9481   -7.8103 C   0  0  0  0  0  0  0  0  0  0  0  0
    9.1757    2.9301  -13.7559 C   0  0  0  0  0  0  0  0  0  0  0  0
   11.9187    7.5856   -4.3294 C   0  0  0  0  0  0  0  0  0  0  0  0
   11.7781    6.4587   -4.0864 C   0  0  0  0  0  0  0  0  0  0  0  0
   10.9546    9.6992   -5.1271 C   0  0  0  0  0  0  0  0  0  0  0  0
   11.4597   10.2269   -3.9089 C   0  0  0  0  0  0  0  0  0  0  0  0
   12.0024    9.5682   -2.9097 C   0  0  0  0  0  0  0  0  0  0  0  0
   12.3074    8.2306   -2.9263 C   0  0  0  0  0  0  0  0  0  0  0  0
   12.7761    7.6213   -1.9788 C   0  0  0  0  0  0  0  0  0  0  0  0
   12.7504    6.0889   -2.2871 S   0  0  0  0  0  0  0  0  0  0  0  0
   12.3204    5.6325   -3.4317 C   0  0  0  0  0  0  0  0  0  0  0  0
  1  2  1  0  0  0  0
  2  3  1  0  0  0  0
  2  7  2  0  0  0  0
  4  3  1  6  0  0  0
  4  5  1  0  0  0  0
  4  6  1  0  0  0  0
  4  8  1  0  0  0  0
  5  9  2  0  0  0  0
  6 13  1  0  0  0  0
  7 12  1  0  0  0  0
  8 19  2  0  0  0  0
 10  7  1  1  0  0  0
 10 14  1  0  0  0  0
 10 17  1  0  0  0  0
 11  8  1  6  0  0  0
 11 20  1  0  0  0  0
 11 32  1  0  0  0  0
 12 18  1  0  0  0  0
 12 30  1  1  0  0  0
 12 32  1  0  0  0  0
 13 16  2  0  0  0  0
 13 21  1  0  0  0  0
 14  5  1  1  0  0  0
 14 15  1  0  0  0  0
 14 20  1  0  0  0  0
 15 31  1  0  0  0  0
 15 39  1  0  0  0  0
 17 18  1  0  0  0  0
 17 23  1  0  0  0  0
 18 25  1  0  0  0  0
 18 26  1  0  0  0  0
 19 21  1  0  0  0  0
 19 35  1  0  0  0  0
 20 23  1  0  0  0  0
 21 22  2  0  0  0  0
 22 27  1  0  0  0  0
 23 24  1  0  0  0  0
 23 39  1  0  0  0  0
 24 26  1  0  0  0  0
 26 28  2  0  0  0  0
 27 34  2  0  0  0  0
 27 36  1  0  0  0  0
 28 29  1  0  0  0  0
 28 32  1  0  0  0  0
 29 38  1  0  0  0  0
 31 33  2  0  0  0  0
 31 37  1  0  0  0  0
 34 35  1  0  0  0  0
 35 38  1  0  0  0  0
 36 40  1  0  0  0  0
 36 42  2  0  0  0  0
 40 41  2  0  0  0  0
 40 45  1  0  0  0  0
 41 48  1  0  0  0  0
 42 43  1  0  0  0  0
 43 44  2  0  0  0  0
 44 45  1  0  0  0  0
 45 46  2  0  0  0  0
 46 47  1  0  0  0  0
 47 48  1  0  0  0  0
M  END
$$$$

 OpenBabel10082411353D

 48 60  0  0  0  0  0  0  0  0999 V2000
    8.0806    9.0240  -12.7589 C   0  0  0  0  0  0  0  0  0  0  0  0
    8.6514    7.8645  -12.2948 C   0  0  0  0  0  0  0  0  0  0  0  0
    9.9575    7.9974  -11.8426 C   0  0  0  0  0  0  0  0  0  0  0  0
   10.7657    6.8667  -11.6050 C   0  0  1  0  0  0  0  0  0  0  0  0
   10.7682    5.9590  -12.8271 C   0  0  0  0  0  0  0  0  0  0  0  0
   12.1553    7.3846  -11.2315 C   0  0  0  0  0  0  0  0  0  0  0  0
    8.0676    6.6451  -12.2974 C   0  0  0  0  0  0  0  0  0  0  0  0
   10.1892    6.1240  -10.3860 C   0  0  0  0  0  0  0  0  0  0  0  0
   11.8375    5.4373  -13.3240 O   0  0  0  0  0  0  0  0  0  0  0  0
    8.6785    5.4761  -13.0273 C   0  0  1  0  0  0  0  0  0  0  0  0
    9.1969    5.2405  -10.4969 C   0  0  2  0  0  0  0  0  0  0  0  0
    7.2213    6.2210  -11.3074 C   0  0  2  0  0  0  0  0  0  0  0  0
   12.5590    7.6872   -9.9896 C   0  0  0  0  0  0  0  0  0  0  0  0
    9.7633    5.0333  -12.9720 C   0  0  1  0  0  0  0  0  0  0  0  0
   10.0661    4.0167  -14.0373 N   0  0  0  0  0  0  0  0  0  0  0  0
   13.6906    8.3004   -9.6233 O   0  0  0  0  0  0  0  0  0  0  0  0
    7.6357    4.5123  -12.6317 C   0  0  2  0  0  0  0  0  0  0  0  0
    6.8831    4.9171  -11.7031 C   0  0  2  0  0  0  0  0  0  0  0  0
   10.5937    6.6967   -9.1779 C   0  0  0  0  0  0  0  0  0  0  0  0
    9.5087    4.3263  -11.6925 C   0  0  2  0  0  0  0  0  0  0  0  0
   11.6359    7.4449   -8.9125 C   0  0  0  0  0  0  0  0  0  0  0  0
   11.9716    7.9159   -7.6200 C   0  0  0  0  0  0  0  0  0  0  0  0
    8.4648    3.6122  -12.2840 C   0  0  1  0  0  0  0  0  0  0  0  0
    7.9253    2.8004  -11.3926 C   0  0  0  0  0  0  0  0  0  0  0  0
    5.6047    4.5059  -11.7589 C   0  0  0  0  0  0  0  0  0  0  0  0
    7.6606    4.1297  -10.5699 C   0  0  0  0  0  0  0  0  0  0  0  0
   10.9559    7.6849   -6.6057 C   0  0  0  0  0  0  0  0  0  0  0  0
    8.0094    4.5092   -9.5664 C   0  0  0  0  0  0  0  0  0  0  0  0
    8.3033    4.0627   -8.4980 C   0  0  0  0  0  0  0  0  0  0  0  0
    6.3587    7.1012  -11.0392 O   0  0  0  0  0  0  0  0  0  0  0  0
   11.0186    3.9598  -14.9226 C   0  0  0  0  0  0  0  0  0  0  0  0
    8.1758    5.8633  -10.2511 C   0  0  1  0  0  0  0  0  0  0  0  0
   11.4648    2.7104  -15.2650 O   0  0  0  0  0  0  0  0  0  0  0  0
    9.9512    6.8220   -6.8436 C   0  0  0  0  0  0  0  0  0  0  0  0
    9.6899    6.3705   -8.1082 C   0  0  2  0  0  0  0  0  0  0  0  0
   11.2597    8.2901   -5.2396 C   0  0  0  0  0  0  0  0  0  0  0  0
   11.7295    4.9426  -15.4284 O   0  0  0  0  0  0  0  0  0  0  0  0
    9.2745    4.9481   -7.8103 C   0  0  0  0  0  0  0  0  0  0  0  0
    9.1757    2.9301  -13.7559 C   0  0  0  0  0  0  0  0  0  0  0  0
   11.9187    7.5856   -4.3294 C   0  0  0  0  0  0  0  0  0  0  0  0
   11.7781    6.4587   -4.0864 C   0  0  0  0  0  0  0  0  0  0  0  0
   10.9546    9.6992   -5.1271 C   0  0  0  0  0  0  0  0  0  0  0  0
   12.7574    8.4431   -3.4035 C   0  0  2  0  0  0  0  0  0  0  0  0
   13.3571    7.7115   -2.3579 C   0  0  0  0  0  0  0  0  0  0  0  0
   12.0915    9.6102   -3.0680 C   0  0  0  0  0  0  0  0  0  0  0  0
   11.3835   10.3358   -3.9962 C   0  0  0  0  0  0  0  0  0  0  0  0
   12.4777    5.6966   -3.1082 C   0  0  0  0  0  0  0  0  0  0  0  0
   12.9462    6.3352   -2.1831 C   0  0  0  0  0  0  0  0  0  0  0  0
  1  2  1  0  0  0  0
  2  3  1  0  0  0  0
  2  7  2  0  0  0  0
  4  3  1  6  0  0  0
  4  5  1  0  0  0  0
  4  6  1  0  0  0  0
  4  8  1  0  0  0  0
  5  9  2  0  0  0  0
  6 13  1  0  0  0  0
  7 12  1  0  0  0  0
  8 19  2  0  0  0  0
 10  7  1  1  0  0  0
 10 14  1  0  0  0  0
 10 17  1  0  0  0  0
 11  8  1  6  0  0  0
 11 20  1  0  0  0  0
 11 32  1  0  0  0  0
 12 18  1  0  0  0  0
 12 30  1  1  0  0  0
 12 32  1  0  0  0  0
 13 16  2  0  0  0  0
 13 21  1  0  0  0  0
 14  5  1  1  0  0  0
 14 15  1  0  0  0  0
 14 20  1  0  0  0  0
 15 31  1  0  0  0  0
 15 39  1  0  0  0  0
 17 18  1  0  0  0  0
 17 23  1  0  0  0  0
 18 25  1  0  0  0  0
 18 26  1  0  0  0  0
 19 21  1  0  0  0  0
 19 35  1  0  0  0  0
 20 23  1  0  0  0  0
 21 22  2  0  0  0  0
 22 27  1  0  0  0  0
 23 24  1  0  0  0  0
 23 39  1  0  0  0  0
 24 26  1  0  0  0  0
 26 28  2  0  0  0  0
 27 34  2  0  0  0  0
 27 36  1  0  0  0  0
 28 29  1  0  0  0  0
 28 32  1  0  0  0  0
 29 38  1  0  0  0  0
 31 33  2  0  0  0  0
 31 37  1  0  0  0  0
 34 35  1  0  0  0  0
 35 38  1  0  0  0  0
 36 40  1  0  0  0  0
 36 42  2  0  0  0  0
 40 41  2  0  0  0  0
 40 43  1  0  0  0  0
 41 47  1  0  0  0  0
 42 46  1  0  0  0  0
 43 44  1  0  0  0  0
 43 45  1  0  0  0  0
 44 48  1  0  0  0  0
 45 46  2  0  0  0  0
 47 48  2  0  0  0  0
M  END
$$$$

 OpenBabel10082411353D

 49 61  0  0  0  0  0  0  0  0999 V2000
    8.0806    9.0240  -12.7589 C   0  0  0  0  0  0  0  0  0  0  0  0
    8.6514    7.8645  -12.2948 C   0  0  0  0  0  0  0  0  0  0  0  0
    9.9575    7.9974  -11.8426 C   0  0  0  0  0  0  0  0  0  0  0  0
   10.7657    6.8667  -11.6050 C   0  0  1  0  0  0  0  0  0  0  0  0
   10.7682    5.9590  -12.8271 C   0  0  0  0  0  0  0  0  0  0  0  0
   12.1553    7.3846  -11.2315 C   0  0  0  0  0  0  0  0  0  0  0  0
    8.0676    6.6451  -12.2974 C   0  0  0  0  0  0  0  0  0  0  0  0
   10.1892    6.1240  -10.3860 C   0  0  0  0  0  0  0  0  0  0  0  0
   11.8375    5.4373  -13.3240 O   0  0  0  0  0  0  0  0  0  0  0  0
    8.6785    5.4761  -13.0273 C   0  0  1  0  0  0  0  0  0  0  0  0
    9.1969    5.2405  -10.4969 C   0  0  2  0  0  0  0  0  0  0  0  0
    7.2213    6.2210  -11.3074 C   0  0  2  0  0  0  0  0  0  0  0  0
   12.5590    7.6872   -9.9896 C   0  0  0  0  0  0  0  0  0  0  0  0
    9.7633    5.0333  -12.9720 C   0  0  1  0  0  0  0  0  0  0  0  0
   10.0661    4.0167  -14.0373 N   0  0  0  0  0  0  0  0  0  0  0  0
   13.6906    8.3004   -9.6233 O   0  0  0  0  0  0  0  0  0  0  0  0
    7.6357    4.5123  -12.6317 C   0  0  2  0  0  0  0  0  0  0  0  0
    6.8831    4.9171  -11.7031 C   0  0  2  0  0  0  0  0  0  0  0  0
   10.5937    6.6967   -9.1779 C   0  0  0  0  0  0  0  0  0  0  0  0
    9.5087    4.3263  -11.6925 C   0  0  2  0  0  0  0  0  0  0  0  0
   11.6359    7.4449   -8.9125 C   0  0  0  0  0  0  0  0  0  0  0  0
   11.9716    7.9159   -7.6200 C   0  0  0  0  0  0  0  0  0  0  0  0
    8.4648    3.6122  -12.2840 C   0  0  1  0  0  0  0  0  0  0  0  0
    7.9253    2.8004  -11.3926 C   0  0  0  0  0  0  0  0  0  0  0  0
    5.6047    4.5059  -11.7589 C   0  0  0  0  0  0  0  0  0  0  0  0
    7.6606    4.1297  -10.5699 C   0  0  0  0  0  0  0  0  0  0  0  0
   10.9559    7.6849   -6.6057 C   0  0  0  0  0  0  0  0  0  0  0  0
    8.0094    4.5092   -9.5664 C   0  0  0  0  0  0  0  0  0  0  0  0
    8.3033    4.0627   -8.4980 C   0  0  0  0  0  0  0  0  0  0  0  0
    6.3587    7.1012  -11.0392 O   0  0  0  0  0  0  0  0  0  0  0  0
   11.0186    3.9598  -14.9226 C   0  0  0  0  0  0  0  0  0  0  0  0
    8.1758    5.8633  -10.2511 C   0  0  1  0  0  0  0  0  0  0  0  0
   11.4648    2.7104  -15.2650 O   0  0  0  0  0  0  0  0  0  0  0  0
    9.9512    6.8220   -6.8436 C   0  0  0  0  0  0  0  0  0  0  0  0
    9.6899    6.3705   -8.1082 C   0  0  2  0  0  0  0  0  0  0  0  0
   11.2597    8.2901   -5.2396 C   0  0  0  0  0  0  0  0  0  0  0  0
   11.7295    4.9426  -15.4284 O   0  0  0  0  0  0  0  0  0  0  0  0
    9.2745    4.9481   -7.8103 C   0  0  0  0  0  0  0  0  0  0  0  0
    9.1757    2.9301  -13.7559 C   0  0  0  0  0  0  0  0  0  0  0  0
   11.9187    7.5856   -4.3294 C   0  0  0  0  0  0  0  0  0  0  0  0
   11.7781    6.4587   -4.0864 C   0  0  0  0  0  0  0  0  0  0  0  0
   12.3066    8.5124   -3.0580 C   0  0  0  0  0  0  0  0  0  0  0  0
   11.0009    9.7015   -5.1224 C   0  0  0  0  0  0  0  0  0  0  0  0
   12.9527    7.7232   -1.9865 C   0  0  0  0  0  0  0  0  0  0  0  0
   12.7832    6.3836   -1.9750 C   0  0  0  0  0  0  0  0  0  0  0  0
   12.0085    9.7678   -3.3462 C   0  0  0  0  0  0  0  0  0  0  0  0
   10.2533   10.4504   -6.2977 F   0  0  0  0  0  0  0  0  0  0  0  0
   11.4509   10.4369   -4.2044 C   0  0  0  0  0  0  0  0  0  0  0  0
   12.3836    5.7661   -3.0371 C   0  0  0  0  0  0  0  0  0  0  0  0
  1  2  1  0  0  0  0
  2  3  1  0  0  0  0
  2  7  2  0  0  0  0
  4  3  1  6  0  0  0
  4  5  1  0  0  0  0
  4  6  1  0  0  0  0
  4  8  1  0  0  0  0
  5  9  2  0  0  0  0
  6 13  1  0  0  0  0
  7 12  1  0  0  0  0
  8 19  2  0  0  0  0
 10  7  1  1  0  0  0
 10 14  1  0  0  0  0
 10 17  1  0  0  0  0
 11  8  1  6  0  0  0
 11 20  1  0  0  0  0
 11 32  1  0  0  0  0
 12 18  1  0  0  0  0
 12 30  1  1  0  0  0
 12 32  1  0  0  0  0
 13 16  2  0  0  0  0
 13 21  1  0  0  0  0
 14  5  1  1  0  0  0
 14 15  1  0  0  0  0
 14 20  1  0  0  0  0
 15 31  1  0  0  0  0
 15 39  1  0  0  0  0
 17 18  1  0  0  0  0
 17 23  1  0  0  0  0
 18 25  1  0  0  0  0
 18 26  1  0  0  0  0
 19 21  1  0  0  0  0
 19 35  1  0  0  0  0
 20 23  1  0  0  0  0
 21 22  2  0  0  0  0
 22 27  1  0  0  0  0
 23 24  1  0  0  0  0
 23 39  1  0  0  0  0
 24 26  1  0  0  0  0
 26 28  2  0  0  0  0
 27 34  2  0  0  0  0
 27 36  1  0  0  0  0
 28 29  1  0  0  0  0
 28 32  1  0  0  0  0
 29 38  1  0  0  0  0
 31 33  2  0  0  0  0
 31 37  1  0  0  0  0
 34 35  1  0  0  0  0
 35 38  1  0  0  0  0
 36 40  1  0  0  0  0
 36 43  2  0  0  0  0
 40 41  2  0  0  0  0
 40 42  1  0  0  0  0
 41 49  1  0  0  0  0
 42 44  1  0  0  0  0
 42 46  2  0  0  0  0
 43 47  1  0  0  0  0
 43 48  1  0  0  0  0
 44 45  2  0  0  0  0
 45 49  1  0  0  0  0
 46 48  1  0  0  0  0
M  END
$$$$

 OpenBabel10082411353D

 27 30  0  0  0  0  0  0  0  0999 V2000
   11.9925    6.6083   -4.7728 C   0  0  0  0  0  0  0  0  0  0  0  0
   11.4477    7.7141   -5.2577 C   0  0  0  0  0  0  0  0  0  0  0  0
   12.2896    6.5964   -3.2881 C   0  0  0  0  0  0  0  0  0  0  0  0
   11.4087    8.9270   -4.5689 C   0  0  0  0  0  0  0  0  0  0  0  0
   11.0700    7.6482   -6.7180 C   0  0  1  0  0  0  0  0  0  0  0  0
   11.9031    8.9562   -3.1377 C   0  0  0  0  0  0  0  0  0  0  0  0
   12.3774    7.8477   -2.5217 C   0  0  0  0  0  0  0  0  0  0  0  0
   10.4761    6.5776   -7.2169 C   0  0  0  0  0  0  0  0  0  0  0  0
   10.6681    8.9492   -7.1472 C   0  0  0  0  0  0  0  0  0  0  0  0
   10.1085    6.6234   -8.6282 C   0  0  0  0  0  0  0  0  0  0  0  0
   10.4500    9.0125   -8.6924 C   0  0  0  0  0  0  0  0  0  0  0  0
    9.6601    7.9334   -9.1481 N   0  0  0  0  0  0  0  0  0  0  0  0
    9.4452    7.9310  -10.5569 C   0  0  0  0  0  0  0  0  0  0  0  0
    9.6484    6.9783  -11.2444 C   0  0  0  0  0  0  0  0  0  0  0  0
    9.2204    9.1620  -11.1118 O   0  0  0  0  0  0  0  0  0  0  0  0
    8.7362    5.9509  -11.2837 C   0  0  0  0  0  0  0  0  0  0  0  0
    8.8536    4.7666  -12.1368 C   0  0  0  0  0  0  0  0  0  0  0  0
   10.6809    6.9310  -12.3353 C   0  0  0  0  0  0  0  0  0  0  0  0
    9.8671    4.6993  -13.0577 C   0  0  0  0  0  0  0  0  0  0  0  0
   11.5765    7.9772  -12.5141 O   0  0  0  0  0  0  0  0  0  0  0  0
   10.8020    5.8254  -13.2017 C   0  0  0  0  0  0  0  0  0  0  0  0
   10.0433    3.8155  -13.8024 N   0  0  0  0  0  0  0  0  0  0  0  0
    9.3779    2.5500  -13.8153 N   0  0  0  0  0  0  0  0  0  0  0  0
   11.3389    3.4656  -14.5529 C   0  0  0  0  0  0  0  0  0  0  0  0
   12.5214    7.8553  -13.5787 C   0  0  0  0  0  0  0  0  0  0  0  0
   10.9479    2.3418  -15.3854 C   0  0  0  0  0  0  0  0  0  0  0  0
    9.6020    1.8240  -14.8255 C   0  0  0  0  0  0  0  0  0  0  0  0
  1  2  1  0  0  0  0
  1  3  2  0  0  0  0
  2  4  2  0  0  0  0
  3  7  1  0  0  0  0
  4  6  1  0  0  0  0
  5  2  1  1  0  0  0
  5  8  1  0  0  0  0
  5  9  1  0  0  0  0
  6  7  2  0  0  0  0
  8 10  1  0  0  0  0
  9 11  1  0  0  0  0
 10 12  1  0  0  0  0
 11 12  1  0  0  0  0
 12 13  1  0  0  0  0
 13 14  1  0  0  0  0
 13 15  2  0  0  0  0
 14 16  2  0  0  0  0
 14 18  1  0  0  0  0
 16 17  1  0  0  0  0
 17 19  2  0  0  0  0
 18 20  1  0  0  0  0
 18 21  2  0  0  0  0
 19 21  1  0  0  0  0
 19 22  1  0  0  0  0
 20 25  1  0  0  0  0
 22 23  1  0  0  0  0
 22 24  1  0  0  0  0
 23 27  2  0  0  0  0
 24 26  1  0  0  0  0
 26 27  1  0  0  0  0
M  END
$$$$

 OpenBabel10082411353D

 49 61  0  0  0  0  0  0  0  0999 V2000
    8.0806    9.0240  -12.7589 C   0  0  0  0  0  0  0  0  0  0  0  0
    8.6514    7.8645  -12.2948 C   0  0  0  0  0  0  0  0  0  0  0  0
    9.9575    7.9974  -11.8426 C   0  0  0  0  0  0  0  0  0  0  0  0
   10.7657    6.8667  -11.6050 C   0  0  1  0  0  0  0  0  0  0  0  0
   10.7682    5.9590  -12.8271 C   0  0  0  0  0  0  0  0  0  0  0  0
   12.1553    7.3846  -11.2315 C   0  0  0  0  0  0  0  0  0  0  0  0
    8.0676    6.6451  -12.2974 C   0  0  0  0  0  0  0  0  0  0  0  0
   10.1892    6.1240  -10.3860 C   0  0  0  0  0  0  0  0  0  0  0  0
   11.8375    5.4373  -13.3240 O   0  0  0  0  0  0  0  0  0  0  0  0
    8.6785    5.4761  -13.0273 C   0  0  1  0  0  0  0  0  0  0  0  0
    9.1969    5.2405  -10.4969 C   0  0  2  0  0  0  0  0  0  0  0  0
    7.2213    6.2210  -11.3074 C   0  0  2  0  0  0  0  0  0  0  0  0
   12.5590    7.6872   -9.9896 C   0  0  0  0  0  0  0  0  0  0  0  0
    9.7633    5.0333  -12.9720 C   0  0  1  0  0  0  0  0  0  0  0  0
   10.0661    4.0167  -14.0373 N   0  0  0  0  0  0  0  0  0  0  0  0
   13.6906    8.3004   -9.6233 O   0  0  0  0  0  0  0  0  0  0  0  0
    7.6357    4.5123  -12.6317 C   0  0  2  0  0  0  0  0  0  0  0  0
    6.8831    4.9171  -11.7031 C   0  0  2  0  0  0  0  0  0  0  0  0
   10.5937    6.6967   -9.1779 C   0  0  0  0  0  0  0  0  0  0  0  0
    9.5087    4.3263  -11.6925 C   0  0  2  0  0  0  0  0  0  0  0  0
   11.6359    7.4449   -8.9125 C   0  0  0  0  0  0  0  0  0  0  0  0
   11.9716    7.9159   -7.6200 C   0  0  0  0  0  0  0  0  0  0  0  0
    8.4648    3.6122  -12.2840 C   0  0  1  0  0  0  0  0  0  0  0  0
    7.9253    2.8004  -11.3926 C   0  0  0  0  0  0  0  0  0  0  0  0
    5.6047    4.5059  -11.7589 C   0  0  0  0  0  0  0  0  0  0  0  0
    7.6606    4.1297  -10.5699 C   0  0  0  0  0  0  0  0  0  0  0  0
   10.9559    7.6849   -6.6057 C   0  0  0  0  0  0  0  0  0  0  0  0
    8.0094    4.5092   -9.5664 C   0  0  0  0  0  0  0  0  0  0  0  0
    8.3033    4.0627   -8.4980 C   0  0  0  0  0  0  0  0  0  0  0  0
    6.3587    7.1012  -11.0392 O   0  0  0  0  0  0  0  0  0  0  0  0
   11.0186    3.9598  -14.9226 C   0  0  0  0  0  0  0  0  0  0  0  0
    8.1758    5.8633  -10.2511 C   0  0  1  0  0  0  0  0  0  0  0  0
   11.4648    2.7104  -15.2650 O   0  0  0  0  0  0  0  0  0  0  0  0
    9.9512    6.8220   -6.8436 C   0  0  0  0  0  0  0  0  0  0  0  0
    9.6899    6.3705   -8.1082 C   0  0  2  0  0  0  0  0  0  0  0  0
   11.2597    8.2901   -5.2396 C   0  0  0  0  0  0  0  0  0  0  0  0
   11.7295    4.9426  -15.4284 O   0  0  0  0  0  0  0  0  0  0  0  0
    9.2745    4.9481   -7.8103 C   0  0  0  0  0  0  0  0  0  0  0  0
    9.2182    2.8872  -13.7570 C   0  0  0  0  0  0  0  0  0  0  0  0
   11.9188    7.5853   -4.3293 C   0  0  0  0  0  0  0  0  0  0  0  0
   11.7780    6.4589   -4.0859 C   0  0  0  0  0  0  0  0  0  0  0  0
   12.3068    8.5128   -3.0579 C   0  0  0  0  0  0  0  0  0  0  0  0
   11.0012    9.7012   -5.1219 C   0  0  0  0  0  0  0  0  0  0  0  0
   12.9527    7.7236   -1.9868 C   0  0  0  0  0  0  0  0  0  0  0  0
   12.5075    6.5377   -2.1459 C   0  0  0  0  0  0  0  0  0  0  0  0
   12.2082    5.9425   -3.0106 C   0  0  0  0  0  0  0  0  0  0  0  0
   12.1879    9.8574   -3.1427 C   0  0  0  0  0  0  0  0  0  0  0  0
   10.2950   10.4578   -6.2898 F   0  0  0  0  0  0  0  0  0  0  0  0
   11.5593   10.5700   -4.1207 C   0  0  0  0  0  0  0  0  0  0  0  0
  1  2  1  0  0  0  0
  2  3  1  0  0  0  0
  2  7  2  0  0  0  0
  4  3  1  6  0  0  0
  4  5  1  0  0  0  0
  4  6  1  0  0  0  0
  4  8  1  0  0  0  0
  5  9  2  0  0  0  0
  6 13  1  0  0  0  0
  7 12  1  0  0  0  0
  8 19  2  0  0  0  0
 10  7  1  1  0  0  0
 10 14  1  0  0  0  0
 10 17  1  0  0  0  0
 11  8  1  6  0  0  0
 11 20  1  0  0  0  0
 11 32  1  0  0  0  0
 12 18  1  0  0  0  0
 12 30  1  1  0  0  0
 12 32  1  0  0  0  0
 13 16  2  0  0  0  0
 13 21  1  0  0  0  0
 14  5  1  1  0  0  0
 14 15  1  0  0  0  0
 14 20  1  0  0  0  0
 15 31  1  0  0  0  0
 15 39  1  0  0  0  0
 17 18  1  0  0  0  0
 17 23  1  0  0  0  0
 18 25  1  0  0  0  0
 18 26  1  0  0  0  0
 19 21  1  0  0  0  0
 19 35  1  0  0  0  0
 20 23  1  0  0  0  0
 21 22  2  0  0  0  0
 22 27  1  0  0  0  0
 23 24  1  0  0  0  0
 23 39  1  0  0  0  0
 24 26  1  0  0  0  0
 26 28  2  0  0  0  0
 27 34  2  0  0  0  0
 27 36  1  0  0  0  0
 28 29  1  0  0  0  0
 28 32  1  0  0  0  0
 29 38  1  0  0  0  0
 31 33  2  0  0  0  0
 31 37  1  0  0  0  0
 34 35  1  0  0  0  0
 35 38  1  0  0  0  0
 36 40  1  0  0  0  0
 36 43  2  0  0  0  0
 40 41  2  0  0  0  0
 40 42  1  0  0  0  0
 41 46  1  0  0  0  0
 42 44  1  0  0  0  0
 42 47  2  0  0  0  0
 43 48  1  0  0  0  0
 43 49  1  0  0  0  0
 44 45  1  0  0  0  0
 45 46  2  0  0  0  0
 47 49  1  0  0  0  0
M  END
$$$$

 OpenBabel10082411353D

 49 61  0  0  0  0  0  0  0  0999 V2000
    8.0806    9.0240  -12.7589 C   0  0  0  0  0  0  0  0  0  0  0  0
    8.6514    7.8645  -12.2948 C   0  0  0  0  0  0  0  0  0  0  0  0
    9.9575    7.9974  -11.8426 C   0  0  0  0  0  0  0  0  0  0  0  0
   10.7657    6.8667  -11.6050 C   0  0  1  0  0  0  0  0  0  0  0  0
   10.7682    5.9590  -12.8271 C   0  0  0  0  0  0  0  0  0  0  0  0
   12.1553    7.3846  -11.2315 C   0  0  0  0  0  0  0  0  0  0  0  0
    8.0676    6.6451  -12.2974 C   0  0  0  0  0  0  0  0  0  0  0  0
   10.1892    6.1240  -10.3860 C   0  0  0  0  0  0  0  0  0  0  0  0
   11.8375    5.4373  -13.3240 O   0  0  0  0  0  0  0  0  0  0  0  0
    8.6785    5.4761  -13.0273 C   0  0  1  0  0  0  0  0  0  0  0  0
    9.1969    5.2405  -10.4969 C   0  0  2  0  0  0  0  0  0  0  0  0
    7.2213    6.2210  -11.3074 C   0  0  2  0  0  0  0  0  0  0  0  0
   12.5590    7.6872   -9.9896 C   0  0  0  0  0  0  0  0  0  0  0  0
    9.7633    5.0333  -12.9720 C   0  0  1  0  0  0  0  0  0  0  0  0
   10.0661    4.0167  -14.0373 N   0  0  0  0  0  0  0  0  0  0  0  0
   13.6906    8.3004   -9.6233 O   0  0  0  0  0  0  0  0  0  0  0  0
    7.6357    4.5123  -12.6317 C   0  0  2  0  0  0  0  0  0  0  0  0
    6.8831    4.9171  -11.7031 C   0  0  2  0  0  0  0  0  0  0  0  0
   10.5937    6.6967   -9.1779 C   0  0  0  0  0  0  0  0  0  0  0  0
    9.5087    4.3263  -11.6925 C   0  0  2  0  0  0  0  0  0  0  0  0
   11.6359    7.4449   -8.9125 C   0  0  0  0  0  0  0  0  0  0  0  0
   11.9716    7.9159   -7.6200 C   0  0  0  0  0  0  0  0  0  0  0  0
    8.4648    3.6122  -12.2840 C   0  0  1  0  0  0  0  0  0  0  0  0
    7.9253    2.8004  -11.3926 C   0  0  0  0  0  0  0  0  0  0  0  0
    5.6047    4.5059  -11.7589 C   0  0  0  0  0  0  0  0  0  0  0  0
    7.6606    4.1297  -10.5699 C   0  0  0  0  0  0  0  0  0  0  0  0
   10.9559    7.6849   -6.6057 C   0  0  0  0  0  0  0  0  0  0  0  0
    8.0094    4.5092   -9.5664 C   0  0  0  0  0  0  0  0  0  0  0  0
    8.3033    4.0627   -8.4980 C   0  0  0  0  0  0  0  0  0  0  0  0
    6.3587    7.1012  -11.0392 O   0  0  0  0  0  0  0  0  0  0  0  0
   11.1885    8.2709   -5.2029 C   0  0  0  0  0  0  0  0  0  0  0  0
    8.1551    5.8688  -10.2415 C   0  0  1  0  0  0  0  0  0  0  0  0
    9.3562    2.8931  -13.4173 C   0  0  0  0  0  0  0  0  0  0  0  0
    9.4006    1.8057  -13.6789 O   0  0  0  0  0  0  0  0  0  0  0  0
   10.6448    3.9324  -15.2556 C   0  0  0  0  0  0  0  0  0  0  0  0
    9.9004    6.8953   -6.7235 C   0  0  0  0  0  0  0  0  0  0  0  0
    8.1584    4.7418   -7.5351 O   0  0  0  0  0  0  0  0  0  0  0  0
    8.5999    2.9050   -8.2804 O   0  0  0  0  0  0  0  0  0  0  0  0
   11.6420    7.3504   -4.2035 C   0  0  0  0  0  0  0  0  0  0  0  0
    9.6081    6.4128   -8.0398 C   0  0  2  0  0  0  0  0  0  0  0  0
    8.3828    5.9446   -7.9275 C   0  0  1  0  0  0  0  0  0  0  0  0
   11.1933    9.6919   -4.9542 C   0  0  0  0  0  0  0  0  0  0  0  0
   10.7525   10.6554   -6.1095 F   0  0  0  0  0  0  0  0  0  0  0  0
   11.7302    5.9412   -4.4414 F   0  0  0  0  0  0  0  0  0  0  0  0
   11.9547    7.8788   -2.9448 C   0  0  0  0  0  0  0  0  0  0  0  0
   11.9407    9.2888   -2.7337 C   0  0  0  0  0  0  0  0  0  0  0  0
   12.2334    9.7104   -1.5017 F   0  0  0  0  0  0  0  0  0  0  0  0
   11.5283   10.2452   -3.6855 C   0  0  0  0  0  0  0  0  0  0  0  0
    8.7449    6.3091   -9.0812 C   0  0  2  0  0  0  0  0  0  0  0  0
  1  2  1  0  0  0  0
  2  3  1  0  0  0  0
  2  7  2  0  0  0  0
  4  3  1  6  0  0  0
  4  5  1  0  0  0  0
  4  6  1  0  0  0  0
  4  8  1  0  0  0  0
  5  9  2  0  0  0  0
  6 13  1  0  0  0  0
  7 12  1  0  0  0  0
  8 19  2  0  0  0  0
 10  7  1  1  0  0  0
 10 14  1  0  0  0  0
 10 17  1  0  0  0  0
 11  8  1  6  0  0  0
 11 20  1  0  0  0  0
 11 32  1  0  0  0  0
 12 18  1  0  0  0  0
 12 30  1  6  0  0  0
 13 16  2  0  0  0  0
 13 21  1  0  0  0  0
 14  5  1  1  0  0  0
 14 15  1  0  0  0  0
 14 20  1  0  0  0  0
 15 33  1  0  0  0  0
 15 35  1  0  0  0  0
 17 18  1  0  0  0  0
 17 23  1  0  0  0  0
 18 25  1  0  0  0  0
 18 26  1  0  0  0  0
 19 21  1  0  0  0  0
 19 40  1  0  0  0  0
 20 23  1  0  0  0  0
 21 22  2  0  0  0  0
 22 27  1  0  0  0  0
 23 24  1  0  0  0  0
 23 33  1  0  0  0  0
 24 26  1  0  0  0  0
 26 28  2  0  0  0  0
 27 31  1  0  0  0  0
 27 36  2  0  0  0  0
 28 29  1  0  0  0  0
 28 32  1  0  0  0  0
 29 37  1  0  0  0  0
 29 38  2  0  0  0  0
 31 39  1  0  0  0  0
 31 42  2  0  0  0  0
 32 49  1  0  0  0  0
 33 34  2  0  0  0  0
 36 40  1  0  0  0  0
 37 41  1  0  0  0  0
 39 44  1  0  0  0  0
 39 45  2  0  0  0  0
 40 41  1  0  0  0  0
 40 49  1  0  0  0  0
 41 49  1  0  0  0  0
 42 43  1  0  0  0  0
 42 48  1  0  0  0  0
 45 46  1  0  0  0  0
 46 47  1  0  0  0  0
 46 48  2  0  0  0  0
M  END
$$$$

 OpenBabel10082411353D

 49 61  0  0  0  0  0  0  0  0999 V2000
    8.0806    9.0240  -12.7589 C   0  0  0  0  0  0  0  0  0  0  0  0
    8.6514    7.8645  -12.2948 C   0  0  0  0  0  0  0  0  0  0  0  0
    9.9575    7.9974  -11.8426 C   0  0  0  0  0  0  0  0  0  0  0  0
   10.7657    6.8667  -11.6050 C   0  0  1  0  0  0  0  0  0  0  0  0
   10.7682    5.9590  -12.8271 C   0  0  0  0  0  0  0  0  0  0  0  0
   12.1553    7.3846  -11.2315 C   0  0  0  0  0  0  0  0  0  0  0  0
    8.0676    6.6451  -12.2974 C   0  0  0  0  0  0  0  0  0  0  0  0
   10.1892    6.1240  -10.3860 C   0  0  0  0  0  0  0  0  0  0  0  0
   11.8375    5.4373  -13.3240 O   0  0  0  0  0  0  0  0  0  0  0  0
    8.6785    5.4761  -13.0273 C   0  0  1  0  0  0  0  0  0  0  0  0
    9.1969    5.2405  -10.4969 C   0  0  2  0  0  0  0  0  0  0  0  0
    7.2213    6.2210  -11.3074 C   0  0  2  0  0  0  0  0  0  0  0  0
   12.5590    7.6872   -9.9896 C   0  0  0  0  0  0  0  0  0  0  0  0
    9.7633    5.0333  -12.9720 C   0  0  1  0  0  0  0  0  0  0  0  0
   10.0661    4.0167  -14.0373 N   0  0  0  0  0  0  0  0  0  0  0  0
   13.6906    8.3004   -9.6233 O   0  0  0  0  0  0  0  0  0  0  0  0
    7.6357    4.5123  -12.6317 C   0  0  2  0  0  0  0  0  0  0  0  0
    6.8831    4.9171  -11.7031 C   0  0  2  0  0  0  0  0  0  0  0  0
   10.5937    6.6967   -9.1779 C   0  0  0  0  0  0  0  0  0  0  0  0
    9.5087    4.3263  -11.6925 C   0  0  2  0  0  0  0  0  0  0  0  0
   11.6359    7.4449   -8.9125 C   0  0  0  0  0  0  0  0  0  0  0  0
   11.9716    7.9159   -7.6200 C   0  0  0  0  0  0  0  0  0  0  0  0
    8.4648    3.6122  -12.2840 C   0  0  1  0  0  0  0  0  0  0  0  0
    7.9253    2.8004  -11.3926 C   0  0  0  0  0  0  0  0  0  0  0  0
    5.6047    4.5059  -11.7589 C   0  0  0  0  0  0  0  0  0  0  0  0
    7.6606    4.1297  -10.5699 C   0  0  0  0  0  0  0  0  0  0  0  0
   10.9559    7.6849   -6.6057 C   0  0  0  0  0  0  0  0  0  0  0  0
    8.0094    4.5092   -9.5664 C   0  0  0  0  0  0  0  0  0  0  0  0
    8.3033    4.0627   -8.4980 C   0  0  0  0  0  0  0  0  0  0  0  0
    6.3587    7.1012  -11.0392 O   0  0  0  0  0  0  0  0  0  0  0  0
   11.0186    3.9598  -14.9226 C   0  0  0  0  0  0  0  0  0  0  0  0
    8.1758    5.8633  -10.2511 C   0  0  1  0  0  0  0  0  0  0  0  0
   11.4648    2.7104  -15.2650 O   0  0  0  0  0  0  0  0  0  0  0  0
    9.9512    6.8220   -6.8436 C   0  0  0  0  0  0  0  0  0  0  0  0
    9.6899    6.3705   -8.1082 C   0  0  2  0  0  0  0  0  0  0  0  0
   11.2597    8.2901   -5.2396 C   0  0  0  0  0  0  0  0  0  0  0  0
   11.7295    4.9426  -15.4284 O   0  0  0  0  0  0  0  0  0  0  0  0
    9.2745    4.9481   -7.8103 C   0  0  0  0  0  0  0  0  0  0  0  0
    9.1757    2.9301  -13.7559 C   0  0  0  0  0  0  0  0  0  0  0  0
   11.9187    7.5856   -4.3294 C   0  0  0  0  0  0  0  0  0  0  0  0
   11.7781    6.4587   -4.0864 C   0  0  0  0  0  0  0  0  0  0  0  0
   10.9546    9.6992   -5.1271 C   0  0  0  0  0  0  0  0  0  0  0  0
   10.2713   10.5528   -6.1587 F   0  0  0  0  0  0  0  0  0  0  0  0
   12.3228    8.5445   -3.1024 C   0  0  0  0  0  0  0  0  0  0  0  0
   11.4087   10.4760   -4.0709 C   0  0  0  0  0  0  0  0  0  0  0  0
   12.0547    9.7306   -3.0952 C   0  0  0  0  0  0  0  0  0  0  0  0
   12.8684    7.8599   -2.0290 C   0  0  0  0  0  0  0  0  0  0  0  0
   12.9610    6.4808   -1.9686 C   0  0  0  0  0  0  0  0  0  0  0  0
   12.4518    5.7876   -2.9483 C   0  0  0  0  0  0  0  0  0  0  0  0
  1  2  1  0  0  0  0
  2  3  1  0  0  0  0
  2  7  2  0  0  0  0
  4  3  1  6  0  0  0
  4  5  1  0  0  0  0
  4  6  1  0  0  0  0
  4  8  1  0  0  0  0
  5  9  2  0  0  0  0
  6 13  1  0  0  0  0
  7 12  1  0  0  0  0
  8 19  2  0  0  0  0
 10  7  1  1  0  0  0
 10 14  1  0  0  0  0
 10 17  1  0  0  0  0
 11  8  1  6  0  0  0
 11 20  1  0  0  0  0
 11 32  1  0  0  0  0
 12 18  1  0  0  0  0
 12 30  1  1  0  0  0
 12 32  1  0  0  0  0
 13 16  2  0  0  0  0
 13 21  1  0  0  0  0
 14  5  1  1  0  0  0
 14 15  1  0  0  0  0
 14 20  1  0  0  0  0
 15 31  1  0  0  0  0
 15 39  1  0  0  0  0
 17 18  1  0  0  0  0
 17 23  1  0  0  0  0
 18 25  1  0  0  0  0
 18 26  1  0  0  0  0
 19 21  1  0  0  0  0
 19 35  1  0  0  0  0
 20 23  1  0  0  0  0
 21 22  2  0  0  0  0
 22 27  1  0  0  0  0
 23 24  1  0  0  0  0
 23 39  1  0  0  0  0
 24 26  1  0  0  0  0
 26 28  2  0  0  0  0
 27 34  2  0  0  0  0
 27 36  1  0  0  0  0
 28 29  1  0  0  0  0
 28 32  1  0  0  0  0
 29 38  1  0  0  0  0
 31 33  2  0  0  0  0
 31 37  1  0  0  0  0
 34 35  1  0  0  0  0
 35 38  1  0  0  0  0
 36 40  1  0  0  0  0
 36 42  2  0  0  0  0
 40 41  2  0  0  0  0
 40 44  1  0  0  0  0
 41 49  1  0  0  0  0
 42 43  1  0  0  0  0
 42 45  1  0  0  0  0
 44 46  1  0  0  0  0
 44 47  2  0  0  0  0
 45 46  2  0  0  0  0
 47 48  1  0  0  0  0
 48 49  2  0  0  0  0
M  END
$$$$

 OpenBabel10082411353D

 49 61  0  0  0  0  0  0  0  0999 V2000
    8.0806    9.0240  -12.7589 C   0  0  0  0  0  0  0  0  0  0  0  0
    8.6514    7.8645  -12.2948 C   0  0  0  0  0  0  0  0  0  0  0  0
    9.9575    7.9974  -11.8426 C   0  0  0  0  0  0  0  0  0  0  0  0
   10.7657    6.8667  -11.6050 C   0  0  1  0  0  0  0  0  0  0  0  0
   10.7682    5.9590  -12.8271 C   0  0  0  0  0  0  0  0  0  0  0  0
   12.1553    7.3846  -11.2315 C   0  0  0  0  0  0  0  0  0  0  0  0
    8.0676    6.6451  -12.2974 C   0  0  0  0  0  0  0  0  0  0  0  0
   10.1892    6.1240  -10.3860 C   0  0  0  0  0  0  0  0  0  0  0  0
   11.8375    5.4373  -13.3240 O   0  0  0  0  0  0  0  0  0  0  0  0
    8.6785    5.4761  -13.0273 C   0  0  1  0  0  0  0  0  0  0  0  0
    9.1969    5.2405  -10.4969 C   0  0  2  0  0  0  0  0  0  0  0  0
    7.2213    6.2210  -11.3074 C   0  0  2  0  0  0  0  0  0  0  0  0
   12.5590    7.6872   -9.9896 C   0  0  0  0  0  0  0  0  0  0  0  0
    9.7633    5.0333  -12.9720 C   0  0  1  0  0  0  0  0  0  0  0  0
   10.0661    4.0167  -14.0373 N   0  0  0  0  0  0  0  0  0  0  0  0
   13.6906    8.3004   -9.6233 O   0  0  0  0  0  0  0  0  0  0  0  0
    7.6357    4.5123  -12.6317 C   0  0  2  0  0  0  0  0  0  0  0  0
    6.8831    4.9171  -11.7031 C   0  0  2  0  0  0  0  0  0  0  0  0
   10.5937    6.6967   -9.1779 C   0  0  0  0  0  0  0  0  0  0  0  0
    9.5087    4.3263  -11.6925 C   0  0  2  0  0  0  0  0  0  0  0  0
   11.6359    7.4449   -8.9125 C   0  0  0  0  0  0  0  0  0  0  0  0
   11.9716    7.9159   -7.6200 C   0  0  0  0  0  0  0  0  0  0  0  0
    8.4648    3.6122  -12.2840 C   0  0  1  0  0  0  0  0  0  0  0  0
    7.9253    2.8004  -11.3926 C   0  0  0  0  0  0  0  0  0  0  0  0
    5.6047    4.5059  -11.7589 C   0  0  0  0  0  0  0  0  0  0  0  0
    7.6606    4.1297  -10.5699 C   0  0  0  0  0  0  0  0  0  0  0  0
   10.9559    7.6849   -6.6057 C   0  0  0  0  0  0  0  0  0  0  0  0
    8.0094    4.5092   -9.5664 C   0  0  0  0  0  0  0  0  0  0  0  0
    8.3033    4.0627   -8.4980 C   0  0  0  0  0  0  0  0  0  0  0  0
    6.3587    7.1012  -11.0392 O   0  0  0  0  0  0  0  0  0  0  0  0
   11.1885    8.2709   -5.2029 C   0  0  0  0  0  0  0  0  0  0  0  0
    8.1551    5.8688  -10.2415 C   0  0  1  0  0  0  0  0  0  0  0  0
    9.3562    2.8931  -13.4173 C   0  0  0  0  0  0  0  0  0  0  0  0
    9.4006    1.8057  -13.6789 O   0  0  0  0  0  0  0  0  0  0  0  0
   10.6448    3.9324  -15.2556 C   0  0  0  0  0  0  0  0  0  0  0  0
    9.9004    6.8953   -6.7235 C   0  0  0  0  0  0  0  0  0  0  0  0
    8.1584    4.7418   -7.5351 O   0  0  0  0  0  0  0  0  0  0  0  0
    8.5999    2.9050   -8.2804 O   0  0  0  0  0  0  0  0  0  0  0  0
   11.6420    7.3504   -4.2035 C   0  0  0  0  0  0  0  0  0  0  0  0
    9.6081    6.4128   -8.0398 C   0  0  2  0  0  0  0  0  0  0  0  0
    8.3828    5.9446   -7.9275 C   0  0  1  0  0  0  0  0  0  0  0  0
   11.1933    9.6919   -4.9542 C   0  0  0  0  0  0  0  0  0  0  0  0
   10.7525   10.6554   -6.1095 F   0  0  0  0  0  0  0  0  0  0  0  0
   11.7302    5.9412   -4.4414 F   0  0  0  0  0  0  0  0  0  0  0  0
   11.9282    7.7409   -2.9586 C   0  0  0  0  0  0  0  0  0  0  0  0
   11.4751   10.2108   -3.7175 C   0  0  0  0  0  0  0  0  0  0  0  0
   12.3016    6.9744   -1.8005 C   0  0  0  0  0  0  0  0  0  0  0  0
    8.7713    6.2893   -9.0794 C   0  0  2  0  0  0  0  0  0  0  0  0
   11.9149    9.2736   -2.7242 C   0  0  0  0  0  0  0  0  0  0  0  0
  1  2  1  0  0  0  0
  2  3  1  0  0  0  0
  2  7  2  0  0  0  0
  4  3  1  6  0  0  0
  4  5  1  0  0  0  0
  4  6  1  0  0  0  0
  4  8  1  0  0  0  0
  5  9  2  0  0  0  0
  6 13  1  0  0  0  0
  7 12  1  0  0  0  0
  8 19  2  0  0  0  0
 10  7  1  1  0  0  0
 10 14  1  0  0  0  0
 10 17  1  0  0  0  0
 11  8  1  6  0  0  0
 11 20  1  0  0  0  0
 11 32  1  0  0  0  0
 12 18  1  0  0  0  0
 12 30  1  6  0  0  0
 13 16  2  0  0  0  0
 13 21  1  0  0  0  0
 14  5  1  1  0  0  0
 14 15  1  0  0  0  0
 14 20  1  0  0  0  0
 15 33  1  0  0  0  0
 15 35  1  0  0  0  0
 17 18  1  0  0  0  0
 17 23  1  0  0  0  0
 18 25  1  0  0  0  0
 18 26  1  0  0  0  0
 19 21  1  0  0  0  0
 19 40  1  0  0  0  0
 20 23  1  0  0  0  0
 21 22  2  0  0  0  0
 22 27  1  0  0  0  0
 23 24  1  0  0  0  0
 23 33  1  0  0  0  0
 24 26  1  0  0  0  0
 26 28  2  0  0  0  0
 27 31  1  0  0  0  0
 27 36  2  0  0  0  0
 28 29  1  0  0  0  0
 28 32  1  0  0  0  0
 29 37  1  0  0  0  0
 29 38  2  0  0  0  0
 31 39  1  0  0  0  0
 31 42  2  0  0  0  0
 32 48  1  0  0  0  0
 33 34  2  0  0  0  0
 36 40  1  0  0  0  0
 37 41  1  0  0  0  0
 39 44  1  0  0  0  0
 39 45  2  0  0  0  0
 40 41  1  0  0  0  0
 40 48  1  0  0  0  0
 41 48  1  0  0  0  0
 42 43  1  0  0  0  0
 42 46  1  0  0  0  0
 45 47  1  0  0  0  0
 45 49  1  0  0  0  0
 46 49  2  0  0  0  0
M  END
$$$$

 OpenBabel10082411353D

 49 60  0  0  0  0  0  0  0  0999 V2000
    8.0806    9.0240  -12.7589 C   0  0  0  0  0  0  0  0  0  0  0  0
    8.6514    7.8645  -12.2948 C   0  0  0  0  0  0  0  0  0  0  0  0
    9.9575    7.9974  -11.8426 C   0  0  0  0  0  0  0  0  0  0  0  0
   10.7657    6.8667  -11.6050 C   0  0  1  0  0  0  0  0  0  0  0  0
   10.7682    5.9590  -12.8271 C   0  0  0  0  0  0  0  0  0  0  0  0
   12.1553    7.3846  -11.2315 C   0  0  0  0  0  0  0  0  0  0  0  0
    8.0676    6.6451  -12.2974 C   0  0  0  0  0  0  0  0  0  0  0  0
   10.1892    6.1240  -10.3860 C   0  0  0  0  0  0  0  0  0  0  0  0
   11.8375    5.4373  -13.3240 O   0  0  0  0  0  0  0  0  0  0  0  0
    8.6785    5.4761  -13.0273 C   0  0  1  0  0  0  0  0  0  0  0  0
    9.1969    5.2405  -10.4969 C   0  0  2  0  0  0  0  0  0  0  0  0
    7.2213    6.2210  -11.3074 C   0  0  2  0  0  0  0  0  0  0  0  0
   12.5590    7.6872   -9.9896 C   0  0  0  0  0  0  0  0  0  0  0  0
    9.7633    5.0333  -12.9720 C   0  0  1  0  0  0  0  0  0  0  0  0
   10.0661    4.0167  -14.0373 N   0  0  0  0  0  0  0  0  0  0  0  0
   13.6906    8.3004   -9.6233 O   0  0  0  0  0  0  0  0  0  0  0  0
    7.6357    4.5123  -12.6317 C   0  0  2  0  0  0  0  0  0  0  0  0
    6.8831    4.9171  -11.7031 C   0  0  2  0  0  0  0  0  0  0  0  0
   10.5937    6.6967   -9.1779 C   0  0  0  0  0  0  0  0  0  0  0  0
    9.5087    4.3263  -11.6925 C   0  0  2  0  0  0  0  0  0  0  0  0
   11.6359    7.4449   -8.9125 C   0  0  0  0  0  0  0  0  0  0  0  0
   11.9716    7.9159   -7.6200 C   0  0  0  0  0  0  0  0  0  0  0  0
    8.4648    3.6122  -12.2840 C   0  0  1  0  0  0  0  0  0  0  0  0
    7.9253    2.8004  -11.3926 C   0  0  0  0  0  0  0  0  0  0  0  0
    5.6047    4.5059  -11.7589 C   0  0  0  0  0  0  0  0  0  0  0  0
    7.6606    4.1297  -10.5699 C   0  0  0  0  0  0  0  0  0  0  0  0
   10.9559    7.6849   -6.6057 C   0  0  0  0  0  0  0  0  0  0  0  0
    8.0094    4.5092   -9.5664 C   0  0  0  0  0  0  0  0  0  0  0  0
    8.3033    4.0627   -8.4980 C   0  0  0  0  0  0  0  0  0  0  0  0
    6.3587    7.1012  -11.0392 O   0  0  0  0  0  0  0  0  0  0  0  0
   11.0186    3.9598  -14.9226 C   0  0  0  0  0  0  0  0  0  0  0  0
    8.1758    5.8633  -10.2511 C   0  0  1  0  0  0  0  0  0  0  0  0
   11.4648    2.7104  -15.2650 O   0  0  0  0  0  0  0  0  0  0  0  0
    9.9512    6.8220   -6.8436 C   0  0  0  0  0  0  0  0  0  0  0  0
    9.6899    6.3705   -8.1082 C   0  0  2  0  0  0  0  0  0  0  0  0
   11.2597    8.2901   -5.2396 C   0  0  0  0  0  0  0  0  0  0  0  0
   11.6068    9.7354   -5.2006 C   0  0  0  0  0  0  0  0  0  0  0  0
   10.9469    4.9352  -15.8306 C   0  0  0  0  0  0  0  0  0  0  0  0
    9.2417    4.9555   -7.8256 C   0  0  0  0  0  0  0  0  0  0  0  0
   11.3657    7.7043   -4.0379 C   0  0  0  0  0  0  0  0  0  0  0  0
   11.4469   10.6225   -6.4157 C   0  0  0  0  0  0  0  0  0  0  0  0
   11.9077   10.2897   -3.9889 C   0  0  0  0  0  0  0  0  0  0  0  0
   11.9472    9.5143   -2.8307 C   0  0  0  0  0  0  0  0  0  0  0  0
    9.3030    2.8335  -13.6243 C   0  0  0  0  0  0  0  0  0  0  0  0
   11.0706    6.0966   -4.1041 S   0  0  0  0  0  0  0  0  0  0  0  0
   11.7685    8.3184   -2.7897 C   0  0  0  0  0  0  0  0  0  0  0  0
   12.1427    5.5065   -4.8531 O   0  0  0  0  0  0  0  0  0  0  0  0
    9.8916    5.5767   -4.4833 O   0  0  0  0  0  0  0  0  0  0  0  0
   11.5078    5.5567   -2.5169 O   0  0  0  0  0  0  0  0  0  0  0  0
  1  2  1  0  0  0  0
  2  3  1  0  0  0  0
  2  7  2  0  0  0  0
  4  3  1  6  0  0  0
  4  5  1  0  0  0  0
  4  6  1  0  0  0  0
  4  8  1  0  0  0  0
  5  9  2  0  0  0  0
  6 13  1  0  0  0  0
  7 12  1  0  0  0  0
  8 19  2  0  0  0  0
 10  7  1  1  0  0  0
 10 14  1  0  0  0  0
 10 17  1  0  0  0  0
 11  8  1  6  0  0  0
 11 20  1  0  0  0  0
 11 32  1  0  0  0  0
 12 18  1  0  0  0  0
 12 30  1  1  0  0  0
 12 32  1  0  0  0  0
 13 16  2  0  0  0  0
 13 21  1  0  0  0  0
 14  5  1  1  0  0  0
 14 15  1  0  0  0  0
 14 20  1  0  0  0  0
 15 31  1  0  0  0  0
 15 44  1  0  0  0  0
 17 18  1  0  0  0  0
 17 23  1  0  0  0  0
 18 25  1  0  0  0  0
 18 26  1  0  0  0  0
 19 21  1  0  0  0  0
 19 35  1  0  0  0  0
 20 23  1  0  0  0  0
 21 22  2  0  0  0  0
 22 27  1  0  0  0  0
 23 24  1  0  0  0  0
 23 44  1  0  0  0  0
 24 26  1  0  0  0  0
 26 28  2  0  0  0  0
 27 34  2  0  0  0  0
 27 36  1  0  0  0  0
 28 29  1  0  0  0  0
 28 32  1  0  0  0  0
 29 39  2  0  0  0  0
 31 33  2  0  0  0  0
 31 38  1  0  0  0  0
 34 35  1  0  0  0  0
 35 39  1  0  0  0  0
 36 37  1  0  0  0  0
 36 40  2  0  0  0  0
 37 41  1  0  0  0  0
 37 42  2  0  0  0  0
 40 45  1  0  0  0  0
 40 46  1  0  0  0  0
 42 43  1  0  0  0  0
 43 46  2  0  0  0  0
 45 47  2  0  0  0  0
 45 48  2  0  0  0  0
 45 49  1  0  0  0  0
M  END
$$$$

 OpenBabel10082411353D

 49 61  0  0  0  0  0  0  0  0999 V2000
    8.0806    9.0240  -12.7589 C   0  0  0  0  0  0  0  0  0  0  0  0
    8.6514    7.8645  -12.2948 C   0  0  0  0  0  0  0  0  0  0  0  0
    9.9575    7.9974  -11.8426 C   0  0  0  0  0  0  0  0  0  0  0  0
   10.7657    6.8667  -11.6050 C   0  0  1  0  0  0  0  0  0  0  0  0
   10.7682    5.9590  -12.8271 C   0  0  0  0  0  0  0  0  0  0  0  0
   12.1553    7.3846  -11.2315 C   0  0  0  0  0  0  0  0  0  0  0  0
    8.0676    6.6451  -12.2974 C   0  0  0  0  0  0  0  0  0  0  0  0
   10.1892    6.1240  -10.3860 C   0  0  0  0  0  0  0  0  0  0  0  0
   11.8375    5.4373  -13.3240 O   0  0  0  0  0  0  0  0  0  0  0  0
    8.6785    5.4761  -13.0273 C   0  0  1  0  0  0  0  0  0  0  0  0
    9.1969    5.2405  -10.4969 C   0  0  2  0  0  0  0  0  0  0  0  0
    7.2213    6.2210  -11.3074 C   0  0  2  0  0  0  0  0  0  0  0  0
   12.5590    7.6872   -9.9896 C   0  0  0  0  0  0  0  0  0  0  0  0
    9.7633    5.0333  -12.9720 C   0  0  1  0  0  0  0  0  0  0  0  0
   10.0661    4.0167  -14.0373 N   0  0  0  0  0  0  0  0  0  0  0  0
   13.6906    8.3004   -9.6233 O   0  0  0  0  0  0  0  0  0  0  0  0
    7.6357    4.5123  -12.6317 C   0  0  2  0  0  0  0  0  0  0  0  0
    6.8831    4.9171  -11.7031 C   0  0  2  0  0  0  0  0  0  0  0  0
   10.5937    6.6967   -9.1779 C   0  0  0  0  0  0  0  0  0  0  0  0
    9.5087    4.3263  -11.6925 C   0  0  2  0  0  0  0  0  0  0  0  0
   11.6359    7.4449   -8.9125 C   0  0  0  0  0  0  0  0  0  0  0  0
   11.9716    7.9159   -7.6200 C   0  0  0  0  0  0  0  0  0  0  0  0
    8.4648    3.6122  -12.2840 C   0  0  1  0  0  0  0  0  0  0  0  0
    7.9253    2.8004  -11.3926 C   0  0  0  0  0  0  0  0  0  0  0  0
    5.6047    4.5059  -11.7589 C   0  0  0  0  0  0  0  0  0  0  0  0
    7.6606    4.1297  -10.5699 C   0  0  0  0  0  0  0  0  0  0  0  0
   10.9559    7.6849   -6.6057 C   0  0  0  0  0  0  0  0  0  0  0  0
    8.0094    4.5092   -9.5664 C   0  0  0  0  0  0  0  0  0  0  0  0
    8.3033    4.0627   -8.4980 C   0  0  0  0  0  0  0  0  0  0  0  0
    6.3587    7.1012  -11.0392 O   0  0  0  0  0  0  0  0  0  0  0  0
   11.0186    3.9598  -14.9226 C   0  0  0  0  0  0  0  0  0  0  0  0
    8.1758    5.8633  -10.2511 C   0  0  1  0  0  0  0  0  0  0  0  0
   11.4648    2.7104  -15.2650 O   0  0  0  0  0  0  0  0  0  0  0  0
    9.9512    6.8220   -6.8436 C   0  0  0  0  0  0  0  0  0  0  0  0
    9.6899    6.3705   -8.1082 C   0  0  2  0  0  0  0  0  0  0  0  0
   11.2597    8.2901   -5.2396 C   0  0  0  0  0  0  0  0  0  0  0  0
   11.7295    4.9426  -15.4284 O   0  0  0  0  0  0  0  0  0  0  0  0
    9.2745    4.9481   -7.8103 C   0  0  0  0  0  0  0  0  0  0  0  0
    9.1757    2.9301  -13.7559 C   0  0  0  0  0  0  0  0  0  0  0  0
   11.9187    7.5856   -4.3294 C   0  0  0  0  0  0  0  0  0  0  0  0
   11.7781    6.4587   -4.0864 C   0  0  0  0  0  0  0  0  0  0  0  0
   10.9546    9.6992   -5.1271 C   0  0  0  0  0  0  0  0  0  0  0  0
   10.2713   10.5528   -6.1587 F   0  0  0  0  0  0  0  0  0  0  0  0
   12.3228    8.5445   -3.1024 C   0  0  2  0  0  0  0  0  0  0  0  0
   11.4237   10.4607   -4.0195 C   0  0  0  0  0  0  0  0  0  0  0  0
   12.9105    7.7538   -2.0110 C   0  0  0  0  0  0  0  0  0  0  0  0
   12.7694    6.4482   -1.9609 C   0  0  0  0  0  0  0  0  0  0  0  0
   12.0689    9.7992   -3.1093 C   0  0  0  0  0  0  0  0  0  0  0  0
   12.3698    5.8086   -2.9177 C   0  0  0  0  0  0  0  0  0  0  0  0
  1  2  1  0  0  0  0
  2  3  1  0  0  0  0
  2  7  2  0  0  0  0
  4  3  1  6  0  0  0
  4  5  1  0  0  0  0
  4  6  1  0  0  0  0
  4  8  1  0  0  0  0
  5  9  2  0  0  0  0
  6 13  1  0  0  0  0
  7 12  1  0  0  0  0
  8 19  2  0  0  0  0
 10  7  1  1  0  0  0
 10 14  1  0  0  0  0
 10 17  1  0  0  0  0
 11  8  1  6  0  0  0
 11 20  1  0  0  0  0
 11 32  1  0  0  0  0
 12 18  1  0  0  0  0
 12 30  1  1  0  0  0
 12 32  1  0  0  0  0
 13 16  2  0  0  0  0
 13 21  1  0  0  0  0
 14  5  1  1  0  0  0
 14 15  1  0  0  0  0
 14 20  1  0  0  0  0
 15 31  1  0  0  0  0
 15 39  1  0  0  0  0
 17 18  1  0  0  0  0
 17 23  1  0  0  0  0
 18 25  1  0  0  0  0
 18 26  1  0  0  0  0
 19 21  1  0  0  0  0
 19 35  1  0  0  0  0
 20 23  1  0  0  0  0
 21 22  2  0  0  0  0
 22 27  1  0  0  0  0
 23 24  1  0  0  0  0
 23 39  1  0  0  0  0
 24 26  1  0  0  0  0
 26 28  2  0  0  0  0
 27 34  2  0  0  0  0
 27 36  1  0  0  0  0
 28 29  1  0  0  0  0
 28 32  1  0  0  0  0
 29 38  1  0  0  0  0
 31 33  2  0  0  0  0
 31 37  1  0  0  0  0
 34 35  1  0  0  0  0
 35 38  1  0  0  0  0
 36 40  1  0  0  0  0
 36 42  2  0  0  0  0
 40 41  2  0  0  0  0
 40 44  1  0  0  0  0
 41 49  1  0  0  0  0
 42 43  1  0  0  0  0
 42 45  1  0  0  0  0
 44 46  1  0  0  0  0
 44 48  1  0  0  0  0
 45 48  2  0  0  0  0
 46 47  2  0  0  0  0
 47 49  1  0  0  0  0
M  END
$$$$

 OpenBabel10082411353D

 49 60  0  0  0  0  0  0  0  0999 V2000
    8.0806    9.0240  -12.7589 C   0  0  0  0  0  0  0  0  0  0  0  0
    8.6514    7.8645  -12.2948 C   0  0  0  0  0  0  0  0  0  0  0  0
    9.9575    7.9974  -11.8426 C   0  0  0  0  0  0  0  0  0  0  0  0
   10.7657    6.8667  -11.6050 C   0  0  1  0  0  0  0  0  0  0  0  0
   10.7682    5.9590  -12.8271 C   0  0  0  0  0  0  0  0  0  0  0  0
   12.1553    7.3846  -11.2315 C   0  0  0  0  0  0  0  0  0  0  0  0
    8.0676    6.6451  -12.2974 C   0  0  0  0  0  0  0  0  0  0  0  0
   10.1892    6.1240  -10.3860 C   0  0  0  0  0  0  0  0  0  0  0  0
   11.8375    5.4373  -13.3240 O   0  0  0  0  0  0  0  0  0  0  0  0
    8.6785    5.4761  -13.0273 C   0  0  1  0  0  0  0  0  0  0  0  0
    9.1969    5.2405  -10.4969 C   0  0  2  0  0  0  0  0  0  0  0  0
    7.2213    6.2210  -11.3074 C   0  0  2  0  0  0  0  0  0  0  0  0
   12.5590    7.6872   -9.9896 C   0  0  0  0  0  0  0  0  0  0  0  0
    9.7633    5.0333  -12.9720 C   0  0  1  0  0  0  0  0  0  0  0  0
   10.0661    4.0167  -14.0373 N   0  0  0  0  0  0  0  0  0  0  0  0
   13.6906    8.3004   -9.6233 O   0  0  0  0  0  0  0  0  0  0  0  0
    7.6357    4.5123  -12.6317 C   0  0  2  0  0  0  0  0  0  0  0  0
    6.8831    4.9171  -11.7031 C   0  0  2  0  0  0  0  0  0  0  0  0
   10.5937    6.6967   -9.1779 C   0  0  0  0  0  0  0  0  0  0  0  0
    9.5087    4.3263  -11.6925 C   0  0  2  0  0  0  0  0  0  0  0  0
   11.6359    7.4449   -8.9125 C   0  0  0  0  0  0  0  0  0  0  0  0
   11.9716    7.9159   -7.6200 C   0  0  0  0  0  0  0  0  0  0  0  0
    8.4648    3.6122  -12.2840 C   0  0  1  0  0  0  0  0  0  0  0  0
    7.9253    2.8004  -11.3926 C   0  0  0  0  0  0  0  0  0  0  0  0
    5.6047    4.5059  -11.7589 C   0  0  0  0  0  0  0  0  0  0  0  0
    7.6606    4.1297  -10.5699 C   0  0  0  0  0  0  0  0  0  0  0  0
   10.9559    7.6849   -6.6057 C   0  0  0  0  0  0  0  0  0  0  0  0
    8.0094    4.5092   -9.5664 C   0  0  0  0  0  0  0  0  0  0  0  0
    8.3033    4.0627   -8.4980 C   0  0  0  0  0  0  0  0  0  0  0  0
    6.3587    7.1012  -11.0392 O   0  0  0  0  0  0  0  0  0  0  0  0
   11.0186    3.9598  -14.9226 C   0  0  0  0  0  0  0  0  0  0  0  0
    8.1758    5.8633  -10.2511 C   0  0  1  0  0  0  0  0  0  0  0  0
   11.4648    2.7104  -15.2650 O   0  0  0  0  0  0  0  0  0  0  0  0
    9.9512    6.8220   -6.8436 C   0  0  0  0  0  0  0  0  0  0  0  0
    9.6899    6.3705   -8.1082 C   0  0  2  0  0  0  0  0  0  0  0  0
   11.2597    8.2901   -5.2396 C   0  0  0  0  0  0  0  0  0  0  0  0
   11.6068    9.7354   -5.2006 C   0  0  0  0  0  0  0  0  0  0  0  0
   10.9469    4.9352  -15.8306 C   0  0  0  0  0  0  0  0  0  0  0  0
    9.2417    4.9555   -7.8256 C   0  0  0  0  0  0  0  0  0  0  0  0
   11.3657    7.7043   -4.0379 C   0  0  0  0  0  0  0  0  0  0  0  0
   11.4469   10.6225   -6.4157 C   0  0  0  0  0  0  0  0  0  0  0  0
    9.5389    2.7805  -13.2898 C   0  0  0  0  0  0  0  0  0  0  0  0
   11.7644   10.0518   -3.9953 C   0  0  0  0  0  0  0  0  0  0  0  0
   11.8955    9.5084   -2.8252 C   0  0  0  0  0  0  0  0  0  0  0  0
   11.0758    6.0367   -4.1510 S   0  0  0  0  0  0  0  0  0  0  0  0
   12.3504    5.5044   -4.7241 O   0  0  0  0  0  0  0  0  0  0  0  0
   10.1439    5.4441   -4.8943 O   0  0  0  0  0  0  0  0  0  0  0  0
   11.0785    5.5084   -2.7621 O   0  0  0  0  0  0  0  0  0  0  0  0
   11.7248    8.1665   -2.8681 C   0  0  0  0  0  0  0  0  0  0  0  0
  1  2  1  0  0  0  0
  2  3  1  0  0  0  0
  2  7  2  0  0  0  0
  4  3  1  6  0  0  0
  4  5  1  0  0  0  0
  4  6  1  0  0  0  0
  4  8  1  0  0  0  0
  5  9  2  0  0  0  0
  6 13  1  0  0  0  0
  7 12  1  0  0  0  0
  8 19  2  0  0  0  0
 10  7  1  1  0  0  0
 10 14  1  0  0  0  0
 10 17  1  0  0  0  0
 11  8  1  6  0  0  0
 11 20  1  0  0  0  0
 11 32  1  0  0  0  0
 12 18  1  0  0  0  0
 12 30  1  1  0  0  0
 12 32  1  0  0  0  0
 13 16  2  0  0  0  0
 13 21  1  0  0  0  0
 14  5  1  1  0  0  0
 14 15  1  0  0  0  0
 14 20  1  0  0  0  0
 15 31  1  0  0  0  0
 15 42  1  0  0  0  0
 17 18  1  0  0  0  0
 17 23  1  0  0  0  0
 18 25  1  0  0  0  0
 18 26  1  0  0  0  0
 19 21  1  0  0  0  0
 19 35  1  0  0  0  0
 20 23  1  0  0  0  0
 21 22  2  0  0  0  0
 22 27  1  0  0  0  0
 23 24  1  0  0  0  0
 23 42  1  0  0  0  0
 24 26  1  0  0  0  0
 26 28  2  0  0  0  0
 27 34  2  0  0  0  0
 27 36  1  0  0  0  0
 28 29  1  0  0  0  0
 28 32  1  0  0  0  0
 29 39  2  0  0  0  0
 31 33  2  0  0  0  0
 31 38  1  0  0  0  0
 34 35  1  0  0  0  0
 35 39  1  0  0  0  0
 36 37  1  0  0  0  0
 36 40  2  0  0  0  0
 37 41  1  0  0  0  0
 37 43  2  0  0  0  0
 40 45  1  0  0  0  0
 40 49  1  0  0  0  0
 43 44  1  0  0  0  0
 44 49  2  0  0  0  0
 45 46  1  0  0  0  0
 45 47  1  0  0  0  0
 45 48  1  0  0  0  0
M  END
$$$$

 OpenBabel10082411353D

 49 61  0  0  0  0  0  0  0  0999 V2000
    8.0806    9.0240  -12.7589 C   0  0  0  0  0  0  0  0  0  0  0  0
    8.6514    7.8645  -12.2948 C   0  0  0  0  0  0  0  0  0  0  0  0
    9.9575    7.9974  -11.8426 C   0  0  0  0  0  0  0  0  0  0  0  0
   10.7657    6.8667  -11.6050 C   0  0  1  0  0  0  0  0  0  0  0  0
   10.7682    5.9590  -12.8271 C   0  0  0  0  0  0  0  0  0  0  0  0
   12.1553    7.3846  -11.2315 C   0  0  0  0  0  0  0  0  0  0  0  0
    8.0676    6.6451  -12.2974 C   0  0  0  0  0  0  0  0  0  0  0  0
   10.1892    6.1240  -10.3860 C   0  0  0  0  0  0  0  0  0  0  0  0
   11.8375    5.4373  -13.3240 O   0  0  0  0  0  0  0  0  0  0  0  0
    8.6785    5.4761  -13.0273 C   0  0  1  0  0  0  0  0  0  0  0  0
    9.1969    5.2405  -10.4969 C   0  0  2  0  0  0  0  0  0  0  0  0
    7.2213    6.2210  -11.3074 C   0  0  2  0  0  0  0  0  0  0  0  0
   12.5590    7.6872   -9.9896 C   0  0  0  0  0  0  0  0  0  0  0  0
    9.7633    5.0333  -12.9720 C   0  0  1  0  0  0  0  0  0  0  0  0
   10.0661    4.0167  -14.0373 N   0  0  0  0  0  0  0  0  0  0  0  0
   13.6906    8.3004   -9.6233 O   0  0  0  0  0  0  0  0  0  0  0  0
    7.6357    4.5123  -12.6317 C   0  0  2  0  0  0  0  0  0  0  0  0
    6.8831    4.9171  -11.7031 C   0  0  2  0  0  0  0  0  0  0  0  0
   10.5937    6.6967   -9.1779 C   0  0  0  0  0  0  0  0  0  0  0  0
    9.5087    4.3263  -11.6925 C   0  0  2  0  0  0  0  0  0  0  0  0
   11.6359    7.4449   -8.9125 C   0  0  0  0  0  0  0  0  0  0  0  0
   11.9716    7.9159   -7.6200 C   0  0  0  0  0  0  0  0  0  0  0  0
    8.4648    3.6122  -12.2840 C   0  0  1  0  0  0  0  0  0  0  0  0
    7.9253    2.8004  -11.3926 C   0  0  0  0  0  0  0  0  0  0  0  0
    5.6047    4.5059  -11.7589 C   0  0  0  0  0  0  0  0  0  0  0  0
    7.6606    4.1297  -10.5699 C   0  0  0  0  0  0  0  0  0  0  0  0
   10.9559    7.6849   -6.6057 C   0  0  0  0  0  0  0  0  0  0  0  0
    8.0094    4.5092   -9.5664 C   0  0  0  0  0  0  0  0  0  0  0  0
    8.3033    4.0627   -8.4980 C   0  0  0  0  0  0  0  0  0  0  0  0
    6.3587    7.1012  -11.0392 O   0  0  0  0  0  0  0  0  0  0  0  0
   11.0186    3.9598  -14.9226 C   0  0  0  0  0  0  0  0  0  0  0  0
    8.1758    5.8633  -10.2511 C   0  0  1  0  0  0  0  0  0  0  0  0
   11.4648    2.7104  -15.2650 O   0  0  0  0  0  0  0  0  0  0  0  0
    9.9512    6.8220   -6.8436 C   0  0  0  0  0  0  0  0  0  0  0  0
    9.6899    6.3705   -8.1082 C   0  0  2  0  0  0  0  0  0  0  0  0
   11.2597    8.2901   -5.2396 C   0  0  0  0  0  0  0  0  0  0  0  0
   11.7295    4.9426  -15.4284 O   0  0  0  0  0  0  0  0  0  0  0  0
    9.2745    4.9481   -7.8103 C   0  0  0  0  0  0  0  0  0  0  0  0
    9.2182    2.8872  -13.7570 C   0  0  0  0  0  0  0  0  0  0  0  0
   11.9188    7.5853   -4.3293 C   0  0  0  0  0  0  0  0  0  0  0  0
   11.7780    6.4589   -4.0859 C   0  0  0  0  0  0  0  0  0  0  0  0
   12.3068    8.5128   -3.0579 C   0  0  0  0  0  0  0  0  0  0  0  0
   11.0012    9.7012   -5.1219 C   0  0  0  0  0  0  0  0  0  0  0  0
   12.9527    7.7236   -1.9868 C   0  0  0  0  0  0  0  0  0  0  0  0
   12.5075    6.5377   -2.1459 C   0  0  0  0  0  0  0  0  0  0  0  0
   12.3800    5.7998   -3.1500 C   0  0  0  0  0  0  0  0  0  0  0  0
   12.1069    9.8144   -3.0647 C   0  0  0  0  0  0  0  0  0  0  0  0
   10.3179   10.4751   -6.2733 F   0  0  0  0  0  0  0  0  0  0  0  0
   11.4910   10.4719   -4.1311 C   0  0  0  0  0  0  0  0  0  0  0  0
  1  2  1  0  0  0  0
  2  3  1  0  0  0  0
  2  7  2  0  0  0  0
  4  3  1  6  0  0  0
  4  5  1  0  0  0  0
  4  6  1  0  0  0  0
  4  8  1  0  0  0  0
  5  9  2  0  0  0  0
  6 13  1  0  0  0  0
  7 12  1  0  0  0  0
  8 19  2  0  0  0  0
 10  7  1  1  0  0  0
 10 14  1  0  0  0  0
 10 17  1  0  0  0  0
 11  8  1  6  0  0  0
 11 20  1  0  0  0  0
 11 32  1  0  0  0  0
 12 18  1  0  0  0  0
 12 30  1  1  0  0  0
 12 32  1  0  0  0  0
 13 16  2  0  0  0  0
 13 21  1  0  0  0  0
 14  5  1  1  0  0  0
 14 15  1  0  0  0  0
 14 20  1  0  0  0  0
 15 31  1  0  0  0  0
 15 39  1  0  0  0  0
 17 18  1  0  0  0  0
 17 23  1  0  0  0  0
 18 25  1  0  0  0  0
 18 26  1  0  0  0  0
 19 21  1  0  0  0  0
 19 35  1  0  0  0  0
 20 23  1  0  0  0  0
 21 22  2  0  0  0  0
 22 27  1  0  0  0  0
 23 24  1  0  0  0  0
 23 39  1  0  0  0  0
 24 26  1  0  0  0  0
 26 28  2  0  0  0  0
 27 34  2  0  0  0  0
 27 36  1  0  0  0  0
 28 29  1  0  0  0  0
 28 32  1  0  0  0  0
 29 38  1  0  0  0  0
 31 33  2  0  0  0  0
 31 37  1  0  0  0  0
 34 35  1  0  0  0  0
 35 38  1  0  0  0  0
 36 40  1  0  0  0  0
 36 43  2  0  0  0  0
 40 41  2  0  0  0  0
 40 42  1  0  0  0  0
 41 46  1  0  0  0  0
 42 44  1  0  0  0  0
 42 47  2  0  0  0  0
 43 48  1  0  0  0  0
 43 49  1  0  0  0  0
 44 45  1  0  0  0  0
 45 46  1  0  0  0  0
 47 49  1  0  0  0  0
M  END
$$$$

 OpenBabel10082411353D

 49 61  0  0  0  0  0  0  0  0999 V2000
    8.0806    9.0240  -12.7589 C   0  0  0  0  0  0  0  0  0  0  0  0
    8.6514    7.8645  -12.2948 C   0  0  0  0  0  0  0  0  0  0  0  0
    9.9575    7.9974  -11.8426 C   0  0  0  0  0  0  0  0  0  0  0  0
   10.7657    6.8667  -11.6050 C   0  0  1  0  0  0  0  0  0  0  0  0
   10.7682    5.9590  -12.8271 C   0  0  0  0  0  0  0  0  0  0  0  0
   12.1553    7.3846  -11.2315 C   0  0  0  0  0  0  0  0  0  0  0  0
    8.0676    6.6451  -12.2974 C   0  0  0  0  0  0  0  0  0  0  0  0
   10.1892    6.1240  -10.3860 C   0  0  0  0  0  0  0  0  0  0  0  0
   11.8375    5.4373  -13.3240 O   0  0  0  0  0  0  0  0  0  0  0  0
    8.6785    5.4761  -13.0273 C   0  0  1  0  0  0  0  0  0  0  0  0
    9.1969    5.2405  -10.4969 C   0  0  2  0  0  0  0  0  0  0  0  0
    7.2213    6.2210  -11.3074 C   0  0  2  0  0  0  0  0  0  0  0  0
   12.5590    7.6872   -9.9896 C   0  0  0  0  0  0  0  0  0  0  0  0
    9.7633    5.0333  -12.9720 C   0  0  1  0  0  0  0  0  0  0  0  0
   10.0661    4.0167  -14.0373 N   0  0  0  0  0  0  0  0  0  0  0  0
   13.6906    8.3004   -9.6233 O   0  0  0  0  0  0  0  0  0  0  0  0
    7.6357    4.5123  -12.6317 C   0  0  2  0  0  0  0  0  0  0  0  0
    6.8831    4.9171  -11.7031 C   0  0  2  0  0  0  0  0  0  0  0  0
   10.5937    6.6967   -9.1779 C   0  0  0  0  0  0  0  0  0  0  0  0
    9.5087    4.3263  -11.6925 C   0  0  2  0  0  0  0  0  0  0  0  0
   11.6359    7.4449   -8.9125 C   0  0  0  0  0  0  0  0  0  0  0  0
   11.9716    7.9159   -7.6200 C   0  0  0  0  0  0  0  0  0  0  0  0
    8.4648    3.6122  -12.2840 C   0  0  1  0  0  0  0  0  0  0  0  0
    7.9253    2.8004  -11.3926 C   0  0  0  0  0  0  0  0  0  0  0  0
    5.6047    4.5059  -11.7589 C   0  0  0  0  0  0  0  0  0  0  0  0
    7.6606    4.1297  -10.5699 C   0  0  0  0  0  0  0  0  0  0  0  0
   10.9559    7.6849   -6.6057 C   0  0  0  0  0  0  0  0  0  0  0  0
    8.0094    4.5092   -9.5664 C   0  0  0  0  0  0  0  0  0  0  0  0
    8.3033    4.0627   -8.4980 C   0  0  0  0  0  0  0  0  0  0  0  0
    6.3587    7.1012  -11.0392 O   0  0  0  0  0  0  0  0  0  0  0  0
   11.0186    3.9598  -14.9226 C   0  0  0  0  0  0  0  0  0  0  0  0
    8.1758    5.8633  -10.2511 C   0  0  1  0  0  0  0  0  0  0  0  0
   11.4648    2.7104  -15.2650 O   0  0  0  0  0  0  0  0  0  0  0  0
    9.9512    6.8220   -6.8436 C   0  0  0  0  0  0  0  0  0  0  0  0
    9.6899    6.3705   -8.1082 C   0  0  2  0  0  0  0  0  0  0  0  0
   11.2597    8.2901   -5.2396 C   0  0  0  0  0  0  0  0  0  0  0  0
   11.6068    9.7354   -5.2006 C   0  0  0  0  0  0  0  0  0  0  0  0
   10.9469    4.9352  -15.8306 C   0  0  0  0  0  0  0  0  0  0  0  0
    9.2417    4.9555   -7.8256 C   0  0  0  0  0  0  0  0  0  0  0  0
   11.3657    7.7043   -4.0379 C   0  0  0  0  0  0  0  0  0  0  0  0
    9.3036    2.8311  -13.6285 C   0  0  0  0  0  0  0  0  0  0  0  0
   11.4466   10.6213   -6.4141 C   0  0  0  0  0  0  0  0  0  0  0  0
   11.7652   10.0517   -3.9940 C   0  0  0  0  0  0  0  0  0  0  0  0
   11.8959    9.5083   -2.8248 C   0  0  0  0  0  0  0  0  0  0  0  0
   11.0755    6.0368   -4.1516 S   0  0  1  0  0  0  0  0  0  0  0  0
   11.7806    8.1542   -2.7730 C   0  0  0  0  0  0  0  0  0  0  0  0
   12.0908    5.5103   -4.9828 O   0  0  0  0  0  0  0  0  0  0  0  0
   11.3453    5.7085   -2.5633 C   0  0  0  0  0  0  0  0  0  0  0  0
   11.8026    7.1421   -1.8589 C   0  0  0  0  0  0  0  0  0  0  0  0
  1  2  1  0  0  0  0
  2  3  1  0  0  0  0
  2  7  2  0  0  0  0
  4  3  1  6  0  0  0
  4  5  1  0  0  0  0
  4  6  1  0  0  0  0
  4  8  1  0  0  0  0
  5  9  2  0  0  0  0
  6 13  1  0  0  0  0
  7 12  1  0  0  0  0
  8 19  2  0  0  0  0
 10  7  1  1  0  0  0
 10 14  1  0  0  0  0
 10 17  1  0  0  0  0
 11  8  1  6  0  0  0
 11 20  1  0  0  0  0
 11 32  1  0  0  0  0
 12 18  1  0  0  0  0
 12 30  1  1  0  0  0
 12 32  1  0  0  0  0
 13 16  2  0  0  0  0
 13 21  1  0  0  0  0
 14  5  1  1  0  0  0
 14 15  1  0  0  0  0
 14 20  1  0  0  0  0
 15 31  1  0  0  0  0
 15 41  1  0  0  0  0
 17 18  1  0  0  0  0
 17 23  1  0  0  0  0
 18 25  1  0  0  0  0
 18 26  1  0  0  0  0
 19 21  1  0  0  0  0
 19 35  1  0  0  0  0
 20 23  1  0  0  0  0
 21 22  2  0  0  0  0
 22 27  1  0  0  0  0
 23 24  1  0  0  0  0
 23 41  1  0  0  0  0
 24 26  1  0  0  0  0
 26 28  2  0  0  0  0
 27 34  2  0  0  0  0
 27 36  1  0  0  0  0
 28 29  1  0  0  0  0
 28 32  1  0  0  0  0
 29 39  2  0  0  0  0
 31 33  2  0  0  0  0
 31 38  1  0  0  0  0
 34 35  1  0  0  0  0
 35 39  1  0  0  0  0
 36 37  1  0  0  0  0
 36 40  2  0  0  0  0
 37 42  1  0  0  0  0
 37 43  2  0  0  0  0
 40 45  1  0  0  0  0
 40 46  1  0  0  0  0
 43 44  1  0  0  0  0
 44 46  2  0  0  0  0
 45 47  2  0  0  0  0
 45 48  2  0  0  0  0
 46 49  1  0  0  0  0
 48 49  1  0  0  0  0
M  END
$$$$

 OpenBabel10082411353D

 49 60  0  0  0  0  0  0  0  0999 V2000
    8.0806    9.0240  -12.7589 C   0  0  0  0  0  0  0  0  0  0  0  0
    8.6514    7.8645  -12.2948 C   0  0  0  0  0  0  0  0  0  0  0  0
    9.9575    7.9974  -11.8426 C   0  0  0  0  0  0  0  0  0  0  0  0
   10.7657    6.8667  -11.6050 C   0  0  1  0  0  0  0  0  0  0  0  0
   10.7682    5.9590  -12.8271 C   0  0  0  0  0  0  0  0  0  0  0  0
   12.1553    7.3846  -11.2315 C   0  0  0  0  0  0  0  0  0  0  0  0
    8.0676    6.6451  -12.2974 C   0  0  0  0  0  0  0  0  0  0  0  0
   10.1892    6.1240  -10.3860 C   0  0  0  0  0  0  0  0  0  0  0  0
   11.8375    5.4373  -13.3240 O   0  0  0  0  0  0  0  0  0  0  0  0
    8.6785    5.4761  -13.0273 C   0  0  1  0  0  0  0  0  0  0  0  0
    9.1969    5.2405  -10.4969 C   0  0  2  0  0  0  0  0  0  0  0  0
    7.2213    6.2210  -11.3074 C   0  0  2  0  0  0  0  0  0  0  0  0
   12.5590    7.6872   -9.9896 C   0  0  0  0  0  0  0  0  0  0  0  0
    9.7633    5.0333  -12.9720 C   0  0  1  0  0  0  0  0  0  0  0  0
   10.0661    4.0167  -14.0373 N   0  0  0  0  0  0  0  0  0  0  0  0
   13.6906    8.3004   -9.6233 O   0  0  0  0  0  0  0  0  0  0  0  0
    7.6357    4.5123  -12.6317 C   0  0  2  0  0  0  0  0  0  0  0  0
    6.8831    4.9171  -11.7031 C   0  0  2  0  0  0  0  0  0  0  0  0
   10.5937    6.6967   -9.1779 C   0  0  0  0  0  0  0  0  0  0  0  0
    9.5087    4.3263  -11.6925 C   0  0  2  0  0  0  0  0  0  0  0  0
   11.6359    7.4449   -8.9125 C   0  0  0  0  0  0  0  0  0  0  0  0
   11.9716    7.9159   -7.6200 C   0  0  0  0  0  0  0  0  0  0  0  0
    8.4648    3.6122  -12.2840 C   0  0  1  0  0  0  0  0  0  0  0  0
    7.9253    2.8004  -11.3926 C   0  0  0  0  0  0  0  0  0  0  0  0
    5.6047    4.5059  -11.7589 C   0  0  0  0  0  0  0  0  0  0  0  0
    7.6606    4.1297  -10.5699 C   0  0  0  0  0  0  0  0  0  0  0  0
   10.9559    7.6849   -6.6057 C   0  0  0  0  0  0  0  0  0  0  0  0
    8.0094    4.5092   -9.5664 C   0  0  0  0  0  0  0  0  0  0  0  0
    8.3033    4.0627   -8.4980 C   0  0  0  0  0  0  0  0  0  0  0  0
    6.3587    7.1012  -11.0392 O   0  0  0  0  0  0  0  0  0  0  0  0
   11.1885    8.2709   -5.2029 C   0  0  0  0  0  0  0  0  0  0  0  0
    8.1551    5.8688  -10.2415 C   0  0  1  0  0  0  0  0  0  0  0  0
    9.3562    2.8931  -13.4173 C   0  0  0  0  0  0  0  0  0  0  0  0
    9.4006    1.8057  -13.6789 O   0  0  0  0  0  0  0  0  0  0  0  0
   10.6448    3.9324  -15.2556 C   0  0  0  0  0  0  0  0  0  0  0  0
    9.9004    6.8953   -6.7235 C   0  0  0  0  0  0  0  0  0  0  0  0
    8.1584    4.7418   -7.5351 O   0  0  0  0  0  0  0  0  0  0  0  0
    8.5999    2.9050   -8.2804 O   0  0  0  0  0  0  0  0  0  0  0  0
   11.6420    7.3504   -4.2035 C   0  0  0  0  0  0  0  0  0  0  0  0
    9.6081    6.4128   -8.0398 C   0  0  1  0  0  0  0  0  0  0  0  0
    8.3828    5.9446   -7.9275 C   0  0  1  0  0  0  0  0  0  0  0  0
   11.1933    9.6919   -4.9542 C   0  0  0  0  0  0  0  0  0  0  0  0
   10.7525   10.6554   -6.1095 F   0  0  0  0  0  0  0  0  0  0  0  0
   11.7302    5.9412   -4.4414 F   0  0  0  0  0  0  0  0  0  0  0  0
   11.9547    7.8788   -2.9448 C   0  0  0  0  0  0  0  0  0  0  0  0
   11.9390    9.5065   -2.7723 C   0  0  0  0  0  0  0  0  0  0  0  0
   12.2340    9.9162   -1.5883 F   0  0  0  0  0  0  0  0  0  0  0  0
   11.5241   10.2450   -3.8122 C   0  0  0  0  0  0  0  0  0  0  0  0
    8.7458    6.3088   -9.0813 C   0  0  0  0  0  0  0  0  0  0  0  0
  1  2  1  0  0  0  0
  2  3  1  0  0  0  0
  2  7  2  0  0  0  0
  4  3  1  6  0  0  0
  4  5  1  0  0  0  0
  4  6  1  0  0  0  0
  4  8  1  0  0  0  0
  5  9  2  0  0  0  0
  6 13  1  0  0  0  0
  7 12  1  0  0  0  0
  8 19  2  0  0  0  0
 10  7  1  1  0  0  0
 10 14  1  0  0  0  0
 10 17  1  0  0  0  0
 11  8  1  6  0  0  0
 11 20  1  0  0  0  0
 11 32  1  0  0  0  0
 12 18  1  0  0  0  0
 12 30  1  6  0  0  0
 13 16  2  0  0  0  0
 13 21  1  0  0  0  0
 14  5  1  1  0  0  0
 14 15  1  0  0  0  0
 14 20  1  0  0  0  0
 15 33  1  0  0  0  0
 15 35  1  0  0  0  0
 17 18  1  0  0  0  0
 17 23  1  0  0  0  0
 18 25  1  0  0  0  0
 18 26  1  0  0  0  0
 19 21  1  0  0  0  0
 19 40  1  0  0  0  0
 20 23  1  0  0  0  0
 21 22  2  0  0  0  0
 22 27  1  0  0  0  0
 23 24  1  0  0  0  0
 23 33  1  0  0  0  0
 24 26  1  0  0  0  0
 26 28  2  0  0  0  0
 27 31  1  0  0  0  0
 27 36  2  0  0  0  0
 28 29  1  0  0  0  0
 28 32  1  0  0  0  0
 29 37  1  0  0  0  0
 29 38  2  0  0  0  0
 31 39  1  0  0  0  0
 31 42  2  0  0  0  0
 32 49  1  0  0  0  0
 33 34  2  0  0  0  0
 36 40  1  0  0  0  0
 37 41  1  0  0  0  0
 39 44  1  0  0  0  0
 39 45  2  0  0  0  0
 40 41  1  0  0  0  0
 41 49  1  0  0  0  0
 42 43  1  0  0  0  0
 42 48  1  0  0  0  0
 45 46  1  0  0  0  0
 46 47  1  0  0  0  0
 46 48  2  0  0  0  0
M  END
$$$$

 OpenBabel10082411353D

 27 29  0  0  0  0  0  0  0  0999 V2000
   12.7863    7.8241  -14.2109 C   0  0  0  0  0  0  0  0  0  0  0  0
   12.4233    7.7158  -13.0289 C   0  0  0  0  0  0  0  0  0  0  0  0
   12.9219    8.1949  -11.8668 C   0  0  0  0  0  0  0  0  0  0  0  0
   11.4275    6.6086  -12.7931 C   0  0  0  0  0  0  0  0  0  0  0  0
   10.3411    6.8404  -12.0679 C   0  0  0  0  0  0  0  0  0  0  0  0
   10.7226    7.4332  -10.7281 C   0  0  0  0  0  0  0  0  0  0  0  0
    9.0684    5.8539  -11.9851 C   0  0  0  0  0  0  0  0  0  0  0  0
    9.8080    7.4062   -9.6015 C   0  0  0  0  0  0  0  0  0  0  0  0
   11.9300    8.1400  -10.6702 C   0  0  0  0  0  0  0  0  0  0  0  0
   11.0289    6.0120  -14.2884 C   0  0  0  0  0  0  0  0  0  0  0  0
    9.9681    6.1425   -8.6941 C   0  0  0  0  0  0  0  0  0  0  0  0
    7.9946    6.5885  -12.1474 C   0  0  0  0  0  0  0  0  0  0  0  0
   10.2822    6.4890   -7.2771 C   0  0  0  0  0  0  0  0  0  0  0  0
   11.5540    6.8919   -6.8963 C   0  0  0  0  0  0  0  0  0  0  0  0
   11.8977    7.2299   -5.5785 C   0  0  1  0  0  0  0  0  0  0  0  0
   11.9395    6.5440  -15.2769 C   0  0  0  0  0  0  0  0  0  0  0  0
    6.8195    5.8154  -12.4332 C   0  0  0  0  0  0  0  0  0  0  0  0
    9.1018    4.4928  -12.2349 C   0  0  0  0  0  0  0  0  0  0  0  0
   10.4159    3.8089  -12.0037 O   0  0  0  0  0  0  0  0  0  0  0  0
   12.1092    8.5752   -5.2125 C   0  0  0  0  0  0  0  0  0  0  0  0
    7.7775    8.1342  -11.9166 C   0  0  0  0  0  0  0  0  0  0  0  0
    8.1476    3.6226  -12.3952 C   0  0  0  0  0  0  0  0  0  0  0  0
    6.9107    4.3931  -12.5659 C   0  0  0  0  0  0  0  0  0  0  0  0
    5.6912    3.7007  -12.9024 C   0  0  0  0  0  0  0  0  0  0  0  0
   11.2321    6.6315   -4.5064 C   0  0  0  0  0  0  0  0  0  0  0  0
   12.7677    9.3693   -6.0903 O   0  0  0  0  0  0  0  0  0  0  0  0
   11.6909    9.1852   -4.1256 O   0  0  0  0  0  0  0  0  0  0  0  0
  1  2  1  0  0  0  0
  1 16  1  0  0  0  0
  2  3  1  0  0  0  0
  2  4  2  0  0  0  0
  3  9  2  0  0  0  0
  4  5  1  0  0  0  0
  4 10  1  0  0  0  0
  5  6  2  0  0  0  0
  5  7  1  0  0  0  0
  6  8  1  0  0  0  0
  6  9  1  0  0  0  0
  7 12  1  0  0  0  0
  7 18  2  0  0  0  0
  8 11  1  0  0  0  0
 10 16  1  0  0  0  0
 11 13  1  0  0  0  0
 12 17  2  0  0  0  0
 12 21  1  0  0  0  0
 13 14  2  3  0  0  0
 14 15  1  0  0  0  0
 15 20  1  0  0  0  0
 15 25  1  1  0  0  0
 17 23  1  0  0  0  0
 18 19  1  0  0  0  0
 18 22  1  0  0  0  0
 20 26  1  0  0  0  0
 20 27  2  0  0  0  0
 22 23  2  0  0  0  0
 23 24  1  0  0  0  0
M  END
$$$$

 OpenBabel10082411353D

 49 61  0  0  0  0  0  0  0  0999 V2000
    8.0806    9.0240  -12.7589 C   0  0  0  0  0  0  0  0  0  0  0  0
    8.6514    7.8645  -12.2948 C   0  0  0  0  0  0  0  0  0  0  0  0
    9.9575    7.9974  -11.8426 C   0  0  0  0  0  0  0  0  0  0  0  0
   10.7657    6.8667  -11.6050 C   0  0  1  0  0  0  0  0  0  0  0  0
   10.7682    5.9590  -12.8271 C   0  0  0  0  0  0  0  0  0  0  0  0
   12.1553    7.3846  -11.2315 C   0  0  0  0  0  0  0  0  0  0  0  0
    8.0676    6.6451  -12.2974 C   0  0  0  0  0  0  0  0  0  0  0  0
   10.1892    6.1240  -10.3860 C   0  0  0  0  0  0  0  0  0  0  0  0
   11.8375    5.4373  -13.3240 O   0  0  0  0  0  0  0  0  0  0  0  0
    8.6785    5.4761  -13.0273 C   0  0  1  0  0  0  0  0  0  0  0  0
    9.1969    5.2405  -10.4969 C   0  0  2  0  0  0  0  0  0  0  0  0
    7.2213    6.2210  -11.3074 C   0  0  2  0  0  0  0  0  0  0  0  0
   12.5590    7.6872   -9.9896 C   0  0  0  0  0  0  0  0  0  0  0  0
    9.7633    5.0333  -12.9720 C   0  0  1  0  0  0  0  0  0  0  0  0
   10.0661    4.0167  -14.0373 N   0  0  0  0  0  0  0  0  0  0  0  0
   13.6906    8.3004   -9.6233 O   0  0  0  0  0  0  0  0  0  0  0  0
    7.6357    4.5123  -12.6317 C   0  0  2  0  0  0  0  0  0  0  0  0
    6.8831    4.9171  -11.7031 C   0  0  2  0  0  0  0  0  0  0  0  0
   10.5937    6.6967   -9.1779 C   0  0  0  0  0  0  0  0  0  0  0  0
    9.5087    4.3263  -11.6925 C   0  0  2  0  0  0  0  0  0  0  0  0
   11.6359    7.4449   -8.9125 C   0  0  0  0  0  0  0  0  0  0  0  0
   11.9716    7.9159   -7.6200 C   0  0  0  0  0  0  0  0  0  0  0  0
    8.4648    3.6122  -12.2840 C   0  0  1  0  0  0  0  0  0  0  0  0
    7.9253    2.8004  -11.3926 C   0  0  0  0  0  0  0  0  0  0  0  0
    5.6047    4.5059  -11.7589 C   0  0  0  0  0  0  0  0  0  0  0  0
    7.6606    4.1297  -10.5699 C   0  0  0  0  0  0  0  0  0  0  0  0
   10.9559    7.6849   -6.6057 C   0  0  0  0  0  0  0  0  0  0  0  0
    8.0094    4.5092   -9.5664 C   0  0  0  0  0  0  0  0  0  0  0  0
    8.3033    4.0627   -8.4980 C   0  0  0  0  0  0  0  0  0  0  0  0
    6.3587    7.1012  -11.0392 O   0  0  0  0  0  0  0  0  0  0  0  0
   11.0186    3.9598  -14.9226 C   0  0  0  0  0  0  0  0  0  0  0  0
    8.1758    5.8633  -10.2511 C   0  0  1  0  0  0  0  0  0  0  0  0
   11.4648    2.7104  -15.2650 O   0  0  0  0  0  0  0  0  0  0  0  0
    9.9512    6.8220   -6.8436 C   0  0  0  0  0  0  0  0  0  0  0  0
    9.6899    6.3705   -8.1082 C   0  0  2  0  0  0  0  0  0  0  0  0
   11.2597    8.2901   -5.2396 C   0  0  0  0  0  0  0  0  0  0  0  0
   11.7295    4.9426  -15.4284 O   0  0  0  0  0  0  0  0  0  0  0  0
    9.2745    4.9481   -7.8103 C   0  0  0  0  0  0  0  0  0  0  0  0
    9.1757    2.9301  -13.7559 C   0  0  0  0  0  0  0  0  0  0  0  0
   11.9187    7.5856   -4.3294 C   0  0  0  0  0  0  0  0  0  0  0  0
   11.7781    6.4587   -4.0864 C   0  0  0  0  0  0  0  0  0  0  0  0
   10.9546    9.6992   -5.1271 C   0  0  0  0  0  0  0  0  0  0  0  0
   10.2713   10.5528   -6.1587 F   0  0  0  0  0  0  0  0  0  0  0  0
   12.3228    8.5445   -3.1024 C   0  0  2  0  0  0  0  0  0  0  0  0
   11.4237   10.4607   -4.0195 C   0  0  0  0  0  0  0  0  0  0  0  0
   12.9105    7.7538   -2.0110 C   0  0  0  0  0  0  0  0  0  0  0  0
   12.0168    9.8147   -3.0135 C   0  0  0  0  0  0  0  0  0  0  0  0
   12.7788    6.4178   -2.1352 C   0  0  0  0  0  0  0  0  0  0  0  0
   12.3303    5.8236   -3.2030 C   0  0  0  0  0  0  0  0  0  0  0  0
  1  2  1  0  0  0  0
  2  3  1  0  0  0  0
  2  7  2  0  0  0  0
  4  3  1  6  0  0  0
  4  5  1  0  0  0  0
  4  6  1  0  0  0  0
  4  8  1  0  0  0  0
  5  9  2  0  0  0  0
  6 13  1  0  0  0  0
  7 12  1  0  0  0  0
  8 19  2  0  0  0  0
 10  7  1  1  0  0  0
 10 14  1  0  0  0  0
 10 17  1  0  0  0  0
 11  8  1  6  0  0  0
 11 20  1  0  0  0  0
 11 32  1  0  0  0  0
 12 18  1  0  0  0  0
 12 30  1  1  0  0  0
 12 32  1  0  0  0  0
 13 16  2  0  0  0  0
 13 21  1  0  0  0  0
 14  5  1  1  0  0  0
 14 15  1  0  0  0  0
 14 20  1  0  0  0  0
 15 31  1  0  0  0  0
 15 39  1  0  0  0  0
 17 18  1  0  0  0  0
 17 23  1  0  0  0  0
 18 25  1  0  0  0  0
 18 26  1  0  0  0  0
 19 21  1  0  0  0  0
 19 35  1  0  0  0  0
 20 23  1  0  0  0  0
 21 22  2  0  0  0  0
 22 27  1  0  0  0  0
 23 24  1  0  0  0  0
 23 39  1  0  0  0  0
 24 26  1  0  0  0  0
 26 28  2  0  0  0  0
 27 34  2  0  0  0  0
 27 36  1  0  0  0  0
 28 29  1  0  0  0  0
 28 32  1  0  0  0  0
 29 38  1  0  0  0  0
 31 33  2  0  0  0  0
 31 37  1  0  0  0  0
 34 35  1  0  0  0  0
 35 38  1  0  0  0  0
 36 40  1  0  0  0  0
 36 42  2  0  0  0  0
 40 41  2  0  0  0  0
 40 44  1  0  0  0  0
 41 49  1  0  0  0  0
 42 43  1  0  0  0  0
 42 45  1  0  0  0  0
 44 46  1  0  0  0  0
 44 47  1  0  0  0  0
 45 47  1  0  0  0  0
 46 48  2  0  0  0  0
 48 49  1  0  0  0  0
M  END
$$$$

 OpenBabel10082411353D

 49 61  0  0  0  0  0  0  0  0999 V2000
    8.0806    9.0240  -12.7589 C   0  0  0  0  0  0  0  0  0  0  0  0
    8.6514    7.8645  -12.2948 C   0  0  0  0  0  0  0  0  0  0  0  0
    9.9575    7.9974  -11.8426 C   0  0  0  0  0  0  0  0  0  0  0  0
   10.7657    6.8667  -11.6050 C   0  0  1  0  0  0  0  0  0  0  0  0
   10.7682    5.9590  -12.8271 C   0  0  0  0  0  0  0  0  0  0  0  0
   12.1553    7.3846  -11.2315 C   0  0  0  0  0  0  0  0  0  0  0  0
    8.0676    6.6451  -12.2974 C   0  0  0  0  0  0  0  0  0  0  0  0
   10.1892    6.1240  -10.3860 C   0  0  0  0  0  0  0  0  0  0  0  0
   11.8375    5.4373  -13.3240 O   0  0  0  0  0  0  0  0  0  0  0  0
    8.6785    5.4761  -13.0273 C   0  0  1  0  0  0  0  0  0  0  0  0
    9.1969    5.2405  -10.4969 C   0  0  2  0  0  0  0  0  0  0  0  0
    7.2213    6.2210  -11.3074 C   0  0  2  0  0  0  0  0  0  0  0  0
   12.5590    7.6872   -9.9896 C   0  0  0  0  0  0  0  0  0  0  0  0
    9.7633    5.0333  -12.9720 C   0  0  1  0  0  0  0  0  0  0  0  0
   10.0661    4.0167  -14.0373 N   0  0  0  0  0  0  0  0  0  0  0  0
   13.6906    8.3004   -9.6233 O   0  0  0  0  0  0  0  0  0  0  0  0
    7.6357    4.5123  -12.6317 C   0  0  2  0  0  0  0  0  0  0  0  0
    6.8831    4.9171  -11.7031 C   0  0  2  0  0  0  0  0  0  0  0  0
   10.5937    6.6967   -9.1779 C   0  0  0  0  0  0  0  0  0  0  0  0
    9.5087    4.3263  -11.6925 C   0  0  2  0  0  0  0  0  0  0  0  0
   11.6359    7.4449   -8.9125 C   0  0  0  0  0  0  0  0  0  0  0  0
   11.9716    7.9159   -7.6200 C   0  0  0  0  0  0  0  0  0  0  0  0
    8.4648    3.6122  -12.2840 C   0  0  1  0  0  0  0  0  0  0  0  0
    7.9253    2.8004  -11.3926 C   0  0  0  0  0  0  0  0  0  0  0  0
    5.6047    4.5059  -11.7589 C   0  0  0  0  0  0  0  0  0  0  0  0
    7.6606    4.1297  -10.5699 C   0  0  0  0  0  0  0  0  0  0  0  0
   10.9559    7.6849   -6.6057 C   0  0  0  0  0  0  0  0  0  0  0  0
    8.0094    4.5092   -9.5664 C   0  0  0  0  0  0  0  0  0  0  0  0
    8.3033    4.0627   -8.4980 C   0  0  0  0  0  0  0  0  0  0  0  0
    6.3587    7.1012  -11.0392 O   0  0  0  0  0  0  0  0  0  0  0  0
   11.0186    3.9598  -14.9226 C   0  0  0  0  0  0  0  0  0  0  0  0
    8.1758    5.8633  -10.2511 C   0  0  1  0  0  0  0  0  0  0  0  0
   11.4648    2.7104  -15.2650 O   0  0  0  0  0  0  0  0  0  0  0  0
    9.9512    6.8220   -6.8436 C   0  0  0  0  0  0  0  0  0  0  0  0
    9.6899    6.3705   -8.1082 C   0  0  2  0  0  0  0  0  0  0  0  0
   11.2597    8.2901   -5.2396 C   0  0  0  0  0  0  0  0  0  0  0  0
   11.7295    4.9426  -15.4284 O   0  0  0  0  0  0  0  0  0  0  0  0
    9.2745    4.9481   -7.8103 C   0  0  0  0  0  0  0  0  0  0  0  0
    9.1757    2.9301  -13.7559 C   0  0  0  0  0  0  0  0  0  0  0  0
   11.9187    7.5856   -4.3294 C   0  0  0  0  0  0  0  0  0  0  0  0
   11.7781    6.4587   -4.0864 C   0  0  0  0  0  0  0  0  0  0  0  0
   10.9546    9.6992   -5.1271 C   0  0  0  0  0  0  0  0  0  0  0  0
   10.2713   10.5528   -6.1587 F   0  0  0  0  0  0  0  0  0  0  0  0
   12.3228    8.5445   -3.1024 C   0  0  2  0  0  0  0  0  0  0  0  0
   11.4237   10.4607   -4.0195 C   0  0  0  0  0  0  0  0  0  0  0  0
   12.9105    7.7538   -2.0110 C   0  0  0  0  0  0  0  0  0  0  0  0
   12.0168    9.8147   -3.0135 C   0  0  0  0  0  0  0  0  0  0  0  0
   12.4197    5.7344   -3.0364 C   0  0  0  0  0  0  0  0  0  0  0  0
   12.7844    6.4077   -2.0471 C   0  0  0  0  0  0  0  0  0  0  0  0
  1  2  1  0  0  0  0
  2  3  1  0  0  0  0
  2  7  2  0  0  0  0
  4  3  1  6  0  0  0
  4  5  1  0  0  0  0
  4  6  1  0  0  0  0
  4  8  1  0  0  0  0
  5  9  2  0  0  0  0
  6 13  1  0  0  0  0
  7 12  1  0  0  0  0
  8 19  2  0  0  0  0
 10  7  1  1  0  0  0
 10 14  1  0  0  0  0
 10 17  1  0  0  0  0
 11  8  1  6  0  0  0
 11 20  1  0  0  0  0
 11 32  1  0  0  0  0
 12 18  1  0  0  0  0
 12 30  1  1  0  0  0
 12 32  1  0  0  0  0
 13 16  2  0  0  0  0
 13 21  1  0  0  0  0
 14  5  1  1  0  0  0
 14 15  1  0  0  0  0
 14 20  1  0  0  0  0
 15 31  1  0  0  0  0
 15 39  1  0  0  0  0
 17 18  1  0  0  0  0
 17 23  1  0  0  0  0
 18 25  1  0  0  0  0
 18 26  1  0  0  0  0
 19 21  1  0  0  0  0
 19 35  1  0  0  0  0
 20 23  1  0  0  0  0
 21 22  2  0  0  0  0
 22 27  1  0  0  0  0
 23 24  1  0  0  0  0
 23 39  1  0  0  0  0
 24 26  1  0  0  0  0
 26 28  2  0  0  0  0
 27 34  2  0  0  0  0
 27 36  1  0  0  0  0
 28 29  1  0  0  0  0
 28 32  1  0  0  0  0
 29 38  1  0  0  0  0
 31 33  2  0  0  0  0
 31 37  1  0  0  0  0
 34 35  1  0  0  0  0
 35 38  1  0  0  0  0
 36 40  1  0  0  0  0
 36 42  2  0  0  0  0
 40 41  2  0  0  0  0
 40 44  1  0  0  0  0
 41 48  1  0  0  0  0
 42 43  1  0  0  0  0
 42 45  1  0  0  0  0
 44 46  1  0  0  0  0
 44 47  1  0  0  0  0
 45 47  1  0  0  0  0
 46 49  1  0  0  0  0
 48 49  1  0  0  0  0
M  END
$$$$

 OpenBabel10082411353D

 49 60  0  0  0  0  0  0  0  0999 V2000
    8.0806    9.0240  -12.7589 C   0  0  0  0  0  0  0  0  0  0  0  0
    8.6514    7.8645  -12.2948 C   0  0  0  0  0  0  0  0  0  0  0  0
    9.9575    7.9974  -11.8426 C   0  0  0  0  0  0  0  0  0  0  0  0
   10.7657    6.8667  -11.6050 C   0  0  1  0  0  0  0  0  0  0  0  0
   10.7682    5.9590  -12.8271 C   0  0  0  0  0  0  0  0  0  0  0  0
   12.1553    7.3846  -11.2315 C   0  0  0  0  0  0  0  0  0  0  0  0
    8.0676    6.6451  -12.2974 C   0  0  0  0  0  0  0  0  0  0  0  0
   10.1892    6.1240  -10.3860 C   0  0  0  0  0  0  0  0  0  0  0  0
   11.8375    5.4373  -13.3240 O   0  0  0  0  0  0  0  0  0  0  0  0
    8.6785    5.4761  -13.0273 C   0  0  1  0  0  0  0  0  0  0  0  0
    9.1969    5.2405  -10.4969 C   0  0  2  0  0  0  0  0  0  0  0  0
    7.2213    6.2210  -11.3074 C   0  0  2  0  0  0  0  0  0  0  0  0
   12.5590    7.6872   -9.9896 C   0  0  0  0  0  0  0  0  0  0  0  0
    9.7633    5.0333  -12.9720 C   0  0  1  0  0  0  0  0  0  0  0  0
   10.0661    4.0167  -14.0373 N   0  0  0  0  0  0  0  0  0  0  0  0
   13.6906    8.3004   -9.6233 O   0  0  0  0  0  0  0  0  0  0  0  0
    7.6357    4.5123  -12.6317 C   0  0  2  0  0  0  0  0  0  0  0  0
    6.8831    4.9171  -11.7031 C   0  0  2  0  0  0  0  0  0  0  0  0
   10.5937    6.6967   -9.1779 C   0  0  0  0  0  0  0  0  0  0  0  0
    9.5087    4.3263  -11.6925 C   0  0  2  0  0  0  0  0  0  0  0  0
   11.6359    7.4449   -8.9125 C   0  0  0  0  0  0  0  0  0  0  0  0
   11.9716    7.9159   -7.6200 C   0  0  0  0  0  0  0  0  0  0  0  0
    8.4648    3.6122  -12.2840 C   0  0  1  0  0  0  0  0  0  0  0  0
    7.9253    2.8004  -11.3926 C   0  0  0  0  0  0  0  0  0  0  0  0
    5.6047    4.5059  -11.7589 C   0  0  0  0  0  0  0  0  0  0  0  0
    7.6606    4.1297  -10.5699 C   0  0  0  0  0  0  0  0  0  0  0  0
   10.9559    7.6849   -6.6057 C   0  0  0  0  0  0  0  0  0  0  0  0
    8.0094    4.5092   -9.5664 C   0  0  0  0  0  0  0  0  0  0  0  0
    8.3033    4.0627   -8.4980 C   0  0  0  0  0  0  0  0  0  0  0  0
    6.3587    7.1012  -11.0392 O   0  0  0  0  0  0  0  0  0  0  0  0
   11.1885    8.2709   -5.2029 C   0  0  0  0  0  0  0  0  0  0  0  0
    8.1551    5.8688  -10.2415 C   0  0  1  0  0  0  0  0  0  0  0  0
    9.3562    2.8931  -13.4173 C   0  0  0  0  0  0  0  0  0  0  0  0
    9.4006    1.8057  -13.6789 O   0  0  0  0  0  0  0  0  0  0  0  0
   10.6448    3.9324  -15.2556 C   0  0  0  0  0  0  0  0  0  0  0  0
    9.9004    6.8953   -6.7235 C   0  0  0  0  0  0  0  0  0  0  0  0
    8.1584    4.7418   -7.5351 O   0  0  0  0  0  0  0  0  0  0  0  0
    8.5999    2.9050   -8.2804 O   0  0  0  0  0  0  0  0  0  0  0  0
   11.6420    7.3504   -4.2035 C   0  0  0  0  0  0  0  0  0  0  0  0
    9.6081    6.4128   -8.0398 C   0  0  1  0  0  0  0  0  0  0  0  0
    8.3828    5.9446   -7.9275 C   0  0  1  0  0  0  0  0  0  0  0  0
   11.1933    9.6919   -4.9542 C   0  0  0  0  0  0  0  0  0  0  0  0
   10.7525   10.6554   -6.1095 F   0  0  0  0  0  0  0  0  0  0  0  0
   11.7302    5.9412   -4.4414 F   0  0  0  0  0  0  0  0  0  0  0  0
   11.9282    7.7409   -2.9586 C   0  0  0  0  0  0  0  0  0  0  0  0
   12.3074    6.8991   -1.8333 C   0  0  0  0  0  0  0  0  0  0  0  0
   11.9818    9.1855   -2.7406 C   0  0  0  0  0  0  0  0  0  0  0  0
   11.5575   10.0914   -3.6970 C   0  0  0  0  0  0  0  0  0  0  0  0
    8.7294    6.3087   -9.0769 O   0  0  0  0  0  0  0  0  0  0  0  0
  1  2  1  0  0  0  0
  2  3  1  0  0  0  0
  2  7  2  0  0  0  0
  4  3  1  6  0  0  0
  4  5  1  0  0  0  0
  4  6  1  0  0  0  0
  4  8  1  0  0  0  0
  5  9  2  0  0  0  0
  6 13  1  0  0  0  0
  7 12  1  0  0  0  0
  8 19  2  0  0  0  0
 10  7  1  1  0  0  0
 10 14  1  0  0  0  0
 10 17  1  0  0  0  0
 11  8  1  6  0  0  0
 11 20  1  0  0  0  0
 11 32  1  0  0  0  0
 12 18  1  0  0  0  0
 12 30  1  6  0  0  0
 13 16  2  0  0  0  0
 13 21  1  0  0  0  0
 14  5  1  1  0  0  0
 14 15  1  0  0  0  0
 14 20  1  0  0  0  0
 15 33  1  0  0  0  0
 15 35  1  0  0  0  0
 17 18  1  0  0  0  0
 17 23  1  0  0  0  0
 18 25  1  0  0  0  0
 18 26  1  0  0  0  0
 19 21  1  0  0  0  0
 19 40  1  0  0  0  0
 20 23  1  0  0  0  0
 21 22  2  0  0  0  0
 22 27  1  0  0  0  0
 23 24  1  0  0  0  0
 23 33  1  0  0  0  0
 24 26  1  0  0  0  0
 26 28  2  0  0  0  0
 27 31  1  0  0  0  0
 27 36  2  0  0  0  0
 28 29  1  0  0  0  0
 28 32  1  0  0  0  0
 29 37  1  0  0  0  0
 29 38  2  0  0  0  0
 31 39  1  0  0  0  0
 31 42  2  0  0  0  0
 32 49  1  0  0  0  0
 33 34  2  0  0  0  0
 36 40  1  0  0  0  0
 37 41  1  0  0  0  0
 39 44  1  0  0  0  0
 39 45  2  0  0  0  0
 40 41  1  0  0  0  0
 41 49  1  0  0  0  0
 42 43  1  0  0  0  0
 42 48  1  0  0  0  0
 45 46  1  0  0  0  0
 45 47  1  0  0  0  0
 47 48  2  0  0  0  0
M  END
$$$$

 OpenBabel10082411353D

 49 61  0  0  0  0  0  0  0  0999 V2000
    8.0806    9.0240  -12.7589 C   0  0  0  0  0  0  0  0  0  0  0  0
    8.6514    7.8645  -12.2948 C   0  0  0  0  0  0  0  0  0  0  0  0
    9.9575    7.9974  -11.8426 C   0  0  0  0  0  0  0  0  0  0  0  0
   10.7657    6.8667  -11.6050 C   0  0  1  0  0  0  0  0  0  0  0  0
   10.7682    5.9590  -12.8271 C   0  0  0  0  0  0  0  0  0  0  0  0
   12.1553    7.3846  -11.2315 C   0  0  0  0  0  0  0  0  0  0  0  0
    8.0676    6.6451  -12.2974 C   0  0  0  0  0  0  0  0  0  0  0  0
   10.1892    6.1240  -10.3860 C   0  0  0  0  0  0  0  0  0  0  0  0
   11.8375    5.4373  -13.3240 O   0  0  0  0  0  0  0  0  0  0  0  0
    8.6785    5.4761  -13.0273 C   0  0  1  0  0  0  0  0  0  0  0  0
    9.1969    5.2405  -10.4969 C   0  0  2  0  0  0  0  0  0  0  0  0
    7.2213    6.2210  -11.3074 C   0  0  2  0  0  0  0  0  0  0  0  0
   12.5590    7.6872   -9.9896 C   0  0  0  0  0  0  0  0  0  0  0  0
    9.7633    5.0333  -12.9720 C   0  0  1  0  0  0  0  0  0  0  0  0
   10.0661    4.0167  -14.0373 N   0  0  0  0  0  0  0  0  0  0  0  0
   13.6906    8.3004   -9.6233 O   0  0  0  0  0  0  0  0  0  0  0  0
    7.6357    4.5123  -12.6317 C   0  0  2  0  0  0  0  0  0  0  0  0
    6.8831    4.9171  -11.7031 C   0  0  2  0  0  0  0  0  0  0  0  0
   10.5937    6.6967   -9.1779 C   0  0  0  0  0  0  0  0  0  0  0  0
    9.5087    4.3263  -11.6925 C   0  0  2  0  0  0  0  0  0  0  0  0
   11.6359    7.4449   -8.9125 C   0  0  0  0  0  0  0  0  0  0  0  0
   11.9716    7.9159   -7.6200 C   0  0  0  0  0  0  0  0  0  0  0  0
    8.4648    3.6122  -12.2840 C   0  0  1  0  0  0  0  0  0  0  0  0
    7.9253    2.8004  -11.3926 C   0  0  0  0  0  0  0  0  0  0  0  0
    5.6047    4.5059  -11.7589 C   0  0  0  0  0  0  0  0  0  0  0  0
    7.6606    4.1297  -10.5699 C   0  0  0  0  0  0  0  0  0  0  0  0
   10.9559    7.6849   -6.6057 C   0  0  0  0  0  0  0  0  0  0  0  0
    8.0094    4.5092   -9.5664 C   0  0  0  0  0  0  0  0  0  0  0  0
    8.3033    4.0627   -8.4980 C   0  0  0  0  0  0  0  0  0  0  0  0
    6.3587    7.1012  -11.0392 O   0  0  0  0  0  0  0  0  0  0  0  0
   11.0186    3.9598  -14.9226 C   0  0  0  0  0  0  0  0  0  0  0  0
    8.1758    5.8633  -10.2511 C   0  0  1  0  0  0  0  0  0  0  0  0
   11.4648    2.7104  -15.2650 O   0  0  0  0  0  0  0  0  0  0  0  0
    9.9512    6.8220   -6.8436 C   0  0  0  0  0  0  0  0  0  0  0  0
    9.6899    6.3705   -8.1082 C   0  0  2  0  0  0  0  0  0  0  0  0
   11.2597    8.2901   -5.2396 C   0  0  0  0  0  0  0  0  0  0  0  0
   11.6068    9.7354   -5.2006 C   0  0  0  0  0  0  0  0  0  0  0  0
   10.9469    4.9352  -15.8306 C   0  0  0  0  0  0  0  0  0  0  0  0
    9.2417    4.9555   -7.8256 C   0  0  0  0  0  0  0  0  0  0  0  0
   11.3657    7.7043   -4.0379 C   0  0  0  0  0  0  0  0  0  0  0  0
   11.4469   10.6225   -6.4157 C   0  0  0  0  0  0  0  0  0  0  0  0
    9.5389    2.7805  -13.2898 C   0  0  0  0  0  0  0  0  0  0  0  0
   11.7644   10.0518   -3.9953 C   0  0  0  0  0  0  0  0  0  0  0  0
   11.8955    9.5084   -2.8252 C   0  0  0  0  0  0  0  0  0  0  0  0
   11.0758    6.0367   -4.1510 S   0  0  1  0  0  0  0  0  0  0  0  0
   11.6922    8.1401   -2.8680 C   0  0  0  0  0  0  0  0  0  0  0  0
   12.1003    5.5248   -4.9696 O   0  0  0  0  0  0  0  0  0  0  0  0
   11.3209    5.7135   -2.5737 C   0  0  0  0  0  0  0  0  0  0  0  0
   11.8087    7.1451   -1.6537 S   0  0  0  0  0  0  0  0  0  0  0  0
  1  2  1  0  0  0  0
  2  3  1  0  0  0  0
  2  7  2  0  0  0  0
  4  3  1  6  0  0  0
  4  5  1  0  0  0  0
  4  6  1  0  0  0  0
  4  8  1  0  0  0  0
  5  9  2  0  0  0  0
  6 13  1  0  0  0  0
  7 12  1  0  0  0  0
  8 19  2  0  0  0  0
 10  7  1  1  0  0  0
 10 14  1  0  0  0  0
 10 17  1  0  0  0  0
 11  8  1  6  0  0  0
 11 20  1  0  0  0  0
 11 32  1  0  0  0  0
 12 18  1  0  0  0  0
 12 30  1  1  0  0  0
 12 32  1  0  0  0  0
 13 16  2  0  0  0  0
 13 21  1  0  0  0  0
 14  5  1  1  0  0  0
 14 15  1  0  0  0  0
 14 20  1  0  0  0  0
 15 31  1  0  0  0  0
 15 42  1  0  0  0  0
 17 18  1  0  0  0  0
 17 23  1  0  0  0  0
 18 25  1  0  0  0  0
 18 26  1  0  0  0  0
 19 21  1  0  0  0  0
 19 35  1  0  0  0  0
 20 23  1  0  0  0  0
 21 22  2  0  0  0  0
 22 27  1  0  0  0  0
 23 24  1  0  0  0  0
 23 42  1  0  0  0  0
 24 26  1  0  0  0  0
 26 28  2  0  0  0  0
 27 34  2  0  0  0  0
 27 36  1  0  0  0  0
 28 29  1  0  0  0  0
 28 32  1  0  0  0  0
 29 39  2  0  0  0  0
 31 33  2  0  0  0  0
 31 38  1  0  0  0  0
 34 35  1  0  0  0  0
 35 39  1  0  0  0  0
 36 37  1  0  0  0  0
 36 40  2  0  0  0  0
 37 41  1  0  0  0  0
 37 43  2  0  0  0  0
 40 45  1  0  0  0  0
 40 46  1  0  0  0  0
 43 44  1  0  0  0  0
 44 46  2  0  0  0  0
 45 47  2  0  0  0  0
 45 48  2  0  0  0  0
 46 49  1  0  0  0  0
 48 49  1  0  0  0  0
M  END
$$$$

 OpenBabel10082411353D

 49 60  0  0  0  0  0  0  0  0999 V2000
    8.0806    9.0240  -12.7589 C   0  0  0  0  0  0  0  0  0  0  0  0
    8.6514    7.8645  -12.2948 C   0  0  0  0  0  0  0  0  0  0  0  0
    9.9575    7.9974  -11.8426 C   0  0  0  0  0  0  0  0  0  0  0  0
   10.7657    6.8667  -11.6050 C   0  0  1  0  0  0  0  0  0  0  0  0
   10.7682    5.9590  -12.8271 C   0  0  0  0  0  0  0  0  0  0  0  0
   12.1553    7.3846  -11.2315 C   0  0  0  0  0  0  0  0  0  0  0  0
    8.0676    6.6451  -12.2974 C   0  0  0  0  0  0  0  0  0  0  0  0
   10.1892    6.1240  -10.3860 C   0  0  0  0  0  0  0  0  0  0  0  0
   11.8375    5.4373  -13.3240 O   0  0  0  0  0  0  0  0  0  0  0  0
    8.6785    5.4761  -13.0273 C   0  0  1  0  0  0  0  0  0  0  0  0
    9.1969    5.2405  -10.4969 C   0  0  2  0  0  0  0  0  0  0  0  0
    7.2213    6.2210  -11.3074 C   0  0  2  0  0  0  0  0  0  0  0  0
   12.5590    7.6872   -9.9896 C   0  0  0  0  0  0  0  0  0  0  0  0
    9.7633    5.0333  -12.9720 C   0  0  1  0  0  0  0  0  0  0  0  0
   10.0661    4.0167  -14.0373 N   0  0  0  0  0  0  0  0  0  0  0  0
   13.6906    8.3004   -9.6233 O   0  0  0  0  0  0  0  0  0  0  0  0
    7.6357    4.5123  -12.6317 C   0  0  2  0  0  0  0  0  0  0  0  0
    6.8831    4.9171  -11.7031 C   0  0  2  0  0  0  0  0  0  0  0  0
   10.5937    6.6967   -9.1779 C   0  0  0  0  0  0  0  0  0  0  0  0
    9.5087    4.3263  -11.6925 C   0  0  2  0  0  0  0  0  0  0  0  0
   11.6359    7.4449   -8.9125 C   0  0  0  0  0  0  0  0  0  0  0  0
   11.9716    7.9159   -7.6200 C   0  0  0  0  0  0  0  0  0  0  0  0
    8.4648    3.6122  -12.2840 C   0  0  1  0  0  0  0  0  0  0  0  0
    7.9253    2.8004  -11.3926 C   0  0  0  0  0  0  0  0  0  0  0  0
    5.6047    4.5059  -11.7589 C   0  0  0  0  0  0  0  0  0  0  0  0
    7.6606    4.1297  -10.5699 C   0  0  0  0  0  0  0  0  0  0  0  0
   10.9559    7.6849   -6.6057 C   0  0  0  0  0  0  0  0  0  0  0  0
    8.0094    4.5092   -9.5664 C   0  0  0  0  0  0  0  0  0  0  0  0
    8.3033    4.0627   -8.4980 C   0  0  0  0  0  0  0  0  0  0  0  0
    6.3587    7.1012  -11.0392 O   0  0  0  0  0  0  0  0  0  0  0  0
   11.1885    8.2709   -5.2029 C   0  0  0  0  0  0  0  0  0  0  0  0
    8.1551    5.8688  -10.2415 C   0  0  1  0  0  0  0  0  0  0  0  0
    9.3562    2.8931  -13.4173 C   0  0  0  0  0  0  0  0  0  0  0  0
    9.4006    1.8057  -13.6789 O   0  0  0  0  0  0  0  0  0  0  0  0
   10.6448    3.9324  -15.2556 C   0  0  0  0  0  0  0  0  0  0  0  0
    9.9004    6.8953   -6.7235 C   0  0  0  0  0  0  0  0  0  0  0  0
    8.1584    4.7418   -7.5351 O   0  0  0  0  0  0  0  0  0  0  0  0
    8.5999    2.9050   -8.2804 O   0  0  0  0  0  0  0  0  0  0  0  0
   11.6420    7.3504   -4.2035 C   0  0  0  0  0  0  0  0  0  0  0  0
    9.6081    6.4128   -8.0398 C   0  0  1  0  0  0  0  0  0  0  0  0
    8.3828    5.9446   -7.9275 C   0  0  1  0  0  0  0  0  0  0  0  0
   11.1933    9.6919   -4.9542 C   0  0  0  0  0  0  0  0  0  0  0  0
   10.7525   10.6554   -6.1095 F   0  0  0  0  0  0  0  0  0  0  0  0
   11.7302    5.9412   -4.4414 F   0  0  0  0  0  0  0  0  0  0  0  0
   11.9547    7.8788   -2.9448 C   0  0  0  0  0  0  0  0  0  0  0  0
   11.9390    9.5065   -2.7723 C   0  0  0  0  0  0  0  0  0  0  0  0
   12.2340    9.9162   -1.5883 F   0  0  0  0  0  0  0  0  0  0  0  0
   11.5018   10.2451   -3.7815 C   0  0  0  0  0  0  0  0  0  0  0  0
    8.7451    6.3089   -9.0817 O   0  0  0  0  0  0  0  0  0  0  0  0
  1  2  1  0  0  0  0
  2  3  1  0  0  0  0
  2  7  2  0  0  0  0
  4  3  1  6  0  0  0
  4  5  1  0  0  0  0
  4  6  1  0  0  0  0
  4  8  1  0  0  0  0
  5  9  2  0  0  0  0
  6 13  1  0  0  0  0
  7 12  1  0  0  0  0
  8 19  2  0  0  0  0
 10  7  1  1  0  0  0
 10 14  1  0  0  0  0
 10 17  1  0  0  0  0
 11  8  1  6  0  0  0
 11 20  1  0  0  0  0
 11 32  1  0  0  0  0
 12 18  1  0  0  0  0
 12 30  1  6  0  0  0
 13 16  2  0  0  0  0
 13 21  1  0  0  0  0
 14  5  1  1  0  0  0
 14 15  1  0  0  0  0
 14 20  1  0  0  0  0
 15 33  1  0  0  0  0
 15 35  1  0  0  0  0
 17 18  1  0  0  0  0
 17 23  1  0  0  0  0
 18 25  1  0  0  0  0
 18 26  1  0  0  0  0
 19 21  1  0  0  0  0
 19 40  1  0  0  0  0
 20 23  1  0  0  0  0
 21 22  2  0  0  0  0
 22 27  1  0  0  0  0
 23 24  1  0  0  0  0
 23 33  1  0  0  0  0
 24 26  1  0  0  0  0
 26 28  2  0  0  0  0
 27 31  1  0  0  0  0
 27 36  2  0  0  0  0
 28 29  1  0  0  0  0
 28 32  1  0  0  0  0
 29 37  1  0  0  0  0
 29 38  2  0  0  0  0
 31 39  1  0  0  0  0
 31 42  2  0  0  0  0
 32 49  1  0  0  0  0
 33 34  2  0  0  0  0
 36 40  1  0  0  0  0
 37 41  1  0  0  0  0
 39 44  1  0  0  0  0
 39 45  2  0  0  0  0
 40 41  1  0  0  0  0
 41 49  1  0  0  0  0
 42 43  1  0  0  0  0
 42 48  1  0  0  0  0
 45 46  1  0  0  0  0
 46 47  1  0  0  0  0
 46 48  2  0  0  0  0
M  END
$$$$

 OpenBabel10082411353D

 49 61  0  0  0  0  0  0  0  0999 V2000
    8.0806    9.0240  -12.7589 C   0  0  0  0  0  0  0  0  0  0  0  0
    8.6514    7.8645  -12.2948 C   0  0  0  0  0  0  0  0  0  0  0  0
    9.9575    7.9974  -11.8426 C   0  0  0  0  0  0  0  0  0  0  0  0
   10.7657    6.8667  -11.6050 C   0  0  1  0  0  0  0  0  0  0  0  0
   10.7682    5.9590  -12.8271 C   0  0  0  0  0  0  0  0  0  0  0  0
   12.1553    7.3846  -11.2315 C   0  0  0  0  0  0  0  0  0  0  0  0
    8.0676    6.6451  -12.2974 C   0  0  0  0  0  0  0  0  0  0  0  0
   10.1892    6.1240  -10.3860 C   0  0  0  0  0  0  0  0  0  0  0  0
   11.8375    5.4373  -13.3240 O   0  0  0  0  0  0  0  0  0  0  0  0
    8.6785    5.4761  -13.0273 C   0  0  1  0  0  0  0  0  0  0  0  0
    9.1969    5.2405  -10.4969 C   0  0  2  0  0  0  0  0  0  0  0  0
    7.2213    6.2210  -11.3074 C   0  0  2  0  0  0  0  0  0  0  0  0
   12.5590    7.6872   -9.9896 C   0  0  0  0  0  0  0  0  0  0  0  0
    9.7633    5.0333  -12.9720 C   0  0  1  0  0  0  0  0  0  0  0  0
   10.0661    4.0167  -14.0373 N   0  0  0  0  0  0  0  0  0  0  0  0
   13.6906    8.3004   -9.6233 O   0  0  0  0  0  0  0  0  0  0  0  0
    7.6357    4.5123  -12.6317 C   0  0  2  0  0  0  0  0  0  0  0  0
    6.8831    4.9171  -11.7031 C   0  0  2  0  0  0  0  0  0  0  0  0
   10.5937    6.6967   -9.1779 C   0  0  0  0  0  0  0  0  0  0  0  0
    9.5087    4.3263  -11.6925 C   0  0  2  0  0  0  0  0  0  0  0  0
   11.6359    7.4449   -8.9125 C   0  0  0  0  0  0  0  0  0  0  0  0
   11.9716    7.9159   -7.6200 C   0  0  0  0  0  0  0  0  0  0  0  0
    8.4648    3.6122  -12.2840 C   0  0  1  0  0  0  0  0  0  0  0  0
    7.9253    2.8004  -11.3926 C   0  0  0  0  0  0  0  0  0  0  0  0
    5.6047    4.5059  -11.7589 C   0  0  0  0  0  0  0  0  0  0  0  0
    7.6606    4.1297  -10.5699 C   0  0  0  0  0  0  0  0  0  0  0  0
   10.9559    7.6849   -6.6057 C   0  0  0  0  0  0  0  0  0  0  0  0
    8.0094    4.5092   -9.5664 C   0  0  0  0  0  0  0  0  0  0  0  0
    8.3033    4.0627   -8.4980 C   0  0  0  0  0  0  0  0  0  0  0  0
    6.3587    7.1012  -11.0392 O   0  0  0  0  0  0  0  0  0  0  0  0
   11.0186    3.9598  -14.9226 C   0  0  0  0  0  0  0  0  0  0  0  0
    8.1758    5.8633  -10.2511 C   0  0  1  0  0  0  0  0  0  0  0  0
   11.4648    2.7104  -15.2650 O   0  0  0  0  0  0  0  0  0  0  0  0
    9.9512    6.8220   -6.8436 C   0  0  0  0  0  0  0  0  0  0  0  0
    9.6899    6.3705   -8.1082 C   0  0  2  0  0  0  0  0  0  0  0  0
   11.2597    8.2901   -5.2396 C   0  0  0  0  0  0  0  0  0  0  0  0
   11.7295    4.9426  -15.4284 O   0  0  0  0  0  0  0  0  0  0  0  0
    9.2745    4.9481   -7.8103 C   0  0  0  0  0  0  0  0  0  0  0  0
    9.1757    2.9301  -13.7559 C   0  0  0  0  0  0  0  0  0  0  0  0
   11.9187    7.5856   -4.3294 C   0  0  0  0  0  0  0  0  0  0  0  0
   11.7781    6.4587   -4.0864 C   0  0  0  0  0  0  0  0  0  0  0  0
   10.9546    9.6992   -5.1271 C   0  0  0  0  0  0  0  0  0  0  0  0
   10.2713   10.5528   -6.1587 F   0  0  0  0  0  0  0  0  0  0  0  0
   12.3228    8.5445   -3.1024 C   0  0  2  0  0  0  0  0  0  0  0  0
   11.4237   10.4607   -4.0195 C   0  0  0  0  0  0  0  0  0  0  0  0
   12.9105    7.7538   -2.0110 C   0  0  0  0  0  0  0  0  0  0  0  0
   12.0168    9.8147   -3.0135 C   0  0  0  0  0  0  0  0  0  0  0  0
   12.4197    5.7344   -3.0364 C   0  0  0  0  0  0  0  0  0  0  0  0
   12.7844    6.4077   -2.0471 C   0  0  0  0  0  0  0  0  0  0  0  0
  1  2  1  0  0  0  0
  2  3  1  0  0  0  0
  2  7  2  0  0  0  0
  4  3  1  6  0  0  0
  4  5  1  0  0  0  0
  4  6  1  0  0  0  0
  4  8  1  0  0  0  0
  5  9  2  0  0  0  0
  6 13  1  0  0  0  0
  7 12  1  0  0  0  0
  8 19  2  0  0  0  0
 10  7  1  1  0  0  0
 10 14  1  0  0  0  0
 10 17  1  0  0  0  0
 11  8  1  6  0  0  0
 11 20  1  0  0  0  0
 11 32  1  0  0  0  0
 12 18  1  0  0  0  0
 12 30  1  1  0  0  0
 12 32  1  0  0  0  0
 13 16  2  0  0  0  0
 13 21  1  0  0  0  0
 14  5  1  1  0  0  0
 14 15  1  0  0  0  0
 14 20  1  0  0  0  0
 15 31  1  0  0  0  0
 15 39  1  0  0  0  0
 17 18  1  0  0  0  0
 17 23  1  0  0  0  0
 18 25  1  0  0  0  0
 18 26  1  0  0  0  0
 19 21  1  0  0  0  0
 19 35  1  0  0  0  0
 20 23  1  0  0  0  0
 21 22  2  0  0  0  0
 22 27  1  0  0  0  0
 23 24  1  0  0  0  0
 23 39  1  0  0  0  0
 24 26  1  0  0  0  0
 26 28  2  0  0  0  0
 27 34  2  0  0  0  0
 27 36  1  0  0  0  0
 28 29  1  0  0  0  0
 28 32  1  0  0  0  0
 29 38  1  0  0  0  0
 31 33  2  0  0  0  0
 31 37  1  0  0  0  0
 34 35  1  0  0  0  0
 35 38  1  0  0  0  0
 36 40  1  0  0  0  0
 36 42  2  0  0  0  0
 40 41  2  0  0  0  0
 40 44  1  0  0  0  0
 41 48  1  0  0  0  0
 42 43  1  0  0  0  0
 42 45  1  0  0  0  0
 44 46  1  0  0  0  0
 44 47  1  0  0  0  0
 45 47  1  0  0  0  0
 46 49  1  0  0  0  0
 48 49  2  0  0  0  0
M  END
$$$$

 OpenBabel10082411353D

 49 61  0  0  0  0  0  0  0  0999 V2000
    8.0806    9.0240  -12.7589 C   0  0  0  0  0  0  0  0  0  0  0  0
    8.6514    7.8645  -12.2948 C   0  0  0  0  0  0  0  0  0  0  0  0
    9.9575    7.9974  -11.8426 C   0  0  0  0  0  0  0  0  0  0  0  0
   10.7657    6.8667  -11.6050 C   0  0  1  0  0  0  0  0  0  0  0  0
   10.7682    5.9590  -12.8271 C   0  0  0  0  0  0  0  0  0  0  0  0
   12.1553    7.3846  -11.2315 C   0  0  0  0  0  0  0  0  0  0  0  0
    8.0676    6.6451  -12.2974 C   0  0  0  0  0  0  0  0  0  0  0  0
   10.1892    6.1240  -10.3860 C   0  0  0  0  0  0  0  0  0  0  0  0
   11.8375    5.4373  -13.3240 O   0  0  0  0  0  0  0  0  0  0  0  0
    8.6785    5.4761  -13.0273 C   0  0  1  0  0  0  0  0  0  0  0  0
    9.1969    5.2405  -10.4969 C   0  0  2  0  0  0  0  0  0  0  0  0
    7.2213    6.2210  -11.3074 C   0  0  2  0  0  0  0  0  0  0  0  0
   12.5590    7.6872   -9.9896 C   0  0  0  0  0  0  0  0  0  0  0  0
    9.7633    5.0333  -12.9720 C   0  0  1  0  0  0  0  0  0  0  0  0
   10.0661    4.0167  -14.0373 N   0  0  0  0  0  0  0  0  0  0  0  0
   13.6906    8.3004   -9.6233 O   0  0  0  0  0  0  0  0  0  0  0  0
    7.6357    4.5123  -12.6317 C   0  0  2  0  0  0  0  0  0  0  0  0
    6.8831    4.9171  -11.7031 C   0  0  2  0  0  0  0  0  0  0  0  0
   10.5937    6.6967   -9.1779 C   0  0  0  0  0  0  0  0  0  0  0  0
    9.5087    4.3263  -11.6925 C   0  0  2  0  0  0  0  0  0  0  0  0
   11.6359    7.4449   -8.9125 C   0  0  0  0  0  0  0  0  0  0  0  0
   11.9716    7.9159   -7.6200 C   0  0  0  0  0  0  0  0  0  0  0  0
    8.4648    3.6122  -12.2840 C   0  0  1  0  0  0  0  0  0  0  0  0
    7.9253    2.8004  -11.3926 C   0  0  0  0  0  0  0  0  0  0  0  0
    5.6047    4.5059  -11.7589 C   0  0  0  0  0  0  0  0  0  0  0  0
    7.6606    4.1297  -10.5699 C   0  0  0  0  0  0  0  0  0  0  0  0
   10.9559    7.6849   -6.6057 C   0  0  0  0  0  0  0  0  0  0  0  0
    8.0094    4.5092   -9.5664 C   0  0  0  0  0  0  0  0  0  0  0  0
    8.3033    4.0627   -8.4980 C   0  0  0  0  0  0  0  0  0  0  0  0
    6.3587    7.1012  -11.0392 O   0  0  0  0  0  0  0  0  0  0  0  0
   11.0186    3.9598  -14.9226 C   0  0  0  0  0  0  0  0  0  0  0  0
    8.1758    5.8633  -10.2511 C   0  0  1  0  0  0  0  0  0  0  0  0
   11.4648    2.7104  -15.2650 O   0  0  0  0  0  0  0  0  0  0  0  0
    9.9512    6.8220   -6.8436 C   0  0  0  0  0  0  0  0  0  0  0  0
    9.6899    6.3705   -8.1082 C   0  0  2  0  0  0  0  0  0  0  0  0
   11.2597    8.2901   -5.2396 C   0  0  0  0  0  0  0  0  0  0  0  0
   11.7295    4.9426  -15.4284 O   0  0  0  0  0  0  0  0  0  0  0  0
    9.2745    4.9481   -7.8103 C   0  0  0  0  0  0  0  0  0  0  0  0
    9.1757    2.9301  -13.7559 C   0  0  0  0  0  0  0  0  0  0  0  0
   11.9187    7.5856   -4.3294 C   0  0  0  0  0  0  0  0  0  0  0  0
   11.7781    6.4587   -4.0864 C   0  0  0  0  0  0  0  0  0  0  0  0
   10.9546    9.6992   -5.1271 C   0  0  0  0  0  0  0  0  0  0  0  0
   10.2713   10.5528   -6.1587 F   0  0  0  0  0  0  0  0  0  0  0  0
   12.3228    8.5445   -3.1024 C   0  0  0  0  0  0  0  0  0  0  0  0
   11.4087   10.4760   -4.0709 C   0  0  0  0  0  0  0  0  0  0  0  0
   12.0547    9.7306   -3.0952 C   0  0  0  0  0  0  0  0  0  0  0  0
   12.8684    7.8599   -2.0290 C   0  0  0  0  0  0  0  0  0  0  0  0
   12.7712    6.2829   -2.2219 S   0  0  0  0  0  0  0  0  0  0  0  0
   12.2436    5.8167   -3.1322 C   0  0  0  0  0  0  0  0  0  0  0  0
  1  2  1  0  0  0  0
  2  3  1  0  0  0  0
  2  7  2  0  0  0  0
  4  3  1  6  0  0  0
  4  5  1  0  0  0  0
  4  6  1  0  0  0  0
  4  8  1  0  0  0  0
  5  9  2  0  0  0  0
  6 13  1  0  0  0  0
  7 12  1  0  0  0  0
  8 19  2  0  0  0  0
 10  7  1  1  0  0  0
 10 14  1  0  0  0  0
 10 17  1  0  0  0  0
 11  8  1  6  0  0  0
 11 20  1  0  0  0  0
 11 32  1  0  0  0  0
 12 18  1  0  0  0  0
 12 30  1  1  0  0  0
 12 32  1  0  0  0  0
 13 16  2  0  0  0  0
 13 21  1  0  0  0  0
 14  5  1  1  0  0  0
 14 15  1  0  0  0  0
 14 20  1  0  0  0  0
 15 31  1  0  0  0  0
 15 39  1  0  0  0  0
 17 18  1  0  0  0  0
 17 23  1  0  0  0  0
 18 25  1  0  0  0  0
 18 26  1  0  0  0  0
 19 21  1  0  0  0  0
 19 35  1  0  0  0  0
 20 23  1  0  0  0  0
 21 22  2  0  0  0  0
 22 27  1  0  0  0  0
 23 24  1  0  0  0  0
 23 39  1  0  0  0  0
 24 26  1  0  0  0  0
 26 28  2  0  0  0  0
 27 34  2  0  0  0  0
 27 36  1  0  0  0  0
 28 29  1  0  0  0  0
 28 32  1  0  0  0  0
 29 38  1  0  0  0  0
 31 33  2  0  0  0  0
 31 37  1  0  0  0  0
 34 35  1  0  0  0  0
 35 38  1  0  0  0  0
 36 40  1  0  0  0  0
 36 42  2  0  0  0  0
 40 41  2  0  0  0  0
 40 44  1  0  0  0  0
 41 49  1  0  0  0  0
 42 43  1  0  0  0  0
 42 45  1  0  0  0  0
 44 46  1  0  0  0  0
 44 47  2  0  0  0  0
 45 46  2  0  0  0  0
 47 48  1  0  0  0  0
 48 49  2  0  0  0  0
M  END
$$$$

 OpenBabel10082411353D

 49 61  0  0  0  0  0  0  0  0999 V2000
    8.0806    9.0240  -12.7589 C   0  0  0  0  0  0  0  0  0  0  0  0
    8.6514    7.8645  -12.2948 C   0  0  0  0  0  0  0  0  0  0  0  0
    9.9575    7.9974  -11.8426 C   0  0  0  0  0  0  0  0  0  0  0  0
   10.7657    6.8667  -11.6050 C   0  0  1  0  0  0  0  0  0  0  0  0
   10.7682    5.9590  -12.8271 C   0  0  0  0  0  0  0  0  0  0  0  0
   12.1553    7.3846  -11.2315 C   0  0  0  0  0  0  0  0  0  0  0  0
    8.0676    6.6451  -12.2974 C   0  0  0  0  0  0  0  0  0  0  0  0
   10.1892    6.1240  -10.3860 C   0  0  0  0  0  0  0  0  0  0  0  0
   11.8375    5.4373  -13.3240 O   0  0  0  0  0  0  0  0  0  0  0  0
    8.6785    5.4761  -13.0273 C   0  0  1  0  0  0  0  0  0  0  0  0
    9.1969    5.2405  -10.4969 C   0  0  2  0  0  0  0  0  0  0  0  0
    7.2213    6.2210  -11.3074 C   0  0  2  0  0  0  0  0  0  0  0  0
   12.5590    7.6872   -9.9896 C   0  0  0  0  0  0  0  0  0  0  0  0
    9.7633    5.0333  -12.9720 C   0  0  1  0  0  0  0  0  0  0  0  0
   10.0661    4.0167  -14.0373 N   0  0  0  0  0  0  0  0  0  0  0  0
   13.6906    8.3004   -9.6233 O   0  0  0  0  0  0  0  0  0  0  0  0
    7.6357    4.5123  -12.6317 C   0  0  2  0  0  0  0  0  0  0  0  0
    6.8831    4.9171  -11.7031 C   0  0  2  0  0  0  0  0  0  0  0  0
   10.5937    6.6967   -9.1779 C   0  0  0  0  0  0  0  0  0  0  0  0
    9.5087    4.3263  -11.6925 C   0  0  2  0  0  0  0  0  0  0  0  0
   11.6359    7.4449   -8.9125 C   0  0  0  0  0  0  0  0  0  0  0  0
   11.9716    7.9159   -7.6200 C   0  0  0  0  0  0  0  0  0  0  0  0
    8.4648    3.6122  -12.2840 C   0  0  1  0  0  0  0  0  0  0  0  0
    7.9253    2.8004  -11.3926 C   0  0  0  0  0  0  0  0  0  0  0  0
    5.6047    4.5059  -11.7589 C   0  0  0  0  0  0  0  0  0  0  0  0
    7.6606    4.1297  -10.5699 C   0  0  0  0  0  0  0  0  0  0  0  0
   10.9559    7.6849   -6.6057 C   0  0  0  0  0  0  0  0  0  0  0  0
    8.0094    4.5092   -9.5664 C   0  0  0  0  0  0  0  0  0  0  0  0
    8.3033    4.0627   -8.4980 C   0  0  0  0  0  0  0  0  0  0  0  0
    6.3587    7.1012  -11.0392 O   0  0  0  0  0  0  0  0  0  0  0  0
   11.0186    3.9598  -14.9226 C   0  0  0  0  0  0  0  0  0  0  0  0
    8.1758    5.8633  -10.2511 C   0  0  1  0  0  0  0  0  0  0  0  0
    9.4315    2.8557  -13.5931 C   0  0  0  0  0  0  0  0  0  0  0  0
   11.5906    2.6986  -15.1672 C   0  0  0  0  0  0  0  0  0  0  0  0
    9.9783    6.7760   -6.8364 C   0  0  0  0  0  0  0  0  0  0  0  0
    9.7446    6.4267   -8.0721 C   0  0  2  0  0  0  0  0  0  0  0  0
   11.2061    4.8269  -15.6646 O   0  0  0  0  0  0  0  0  0  0  0  0
    9.0742    5.1188   -7.7353 C   0  0  0  0  0  0  0  0  0  0  0  0
   11.2514    8.3570   -5.2635 C   0  0  0  0  0  0  0  0  0  0  0  0
   11.7290    9.7516   -5.2520 C   0  0  0  0  0  0  0  0  0  0  0  0
   11.3145    7.7538   -4.0409 C   0  0  0  0  0  0  0  0  0  0  0  0
   11.6152   10.5942   -6.5063 C   0  0  0  0  0  0  0  0  0  0  0  0
   12.0480   10.3279   -4.0742 C   0  0  0  0  0  0  0  0  0  0  0  0
   10.9624    6.1690   -4.0166 C   0  0  0  0  0  0  0  0  0  0  0  0
   11.7028    8.2322   -2.8377 C   0  0  0  0  0  0  0  0  0  0  0  0
   11.7575    7.5028   -1.5461 C   0  0  0  0  0  0  0  0  0  0  0  0
   11.6642    6.1761   -1.7642 C   0  0  0  0  0  0  0  0  0  0  0  0
   11.3118    5.6968   -2.9718 C   0  0  0  0  0  0  0  0  0  0  0  0
   12.0256    9.6375   -2.8585 C   0  0  0  0  0  0  0  0  0  0  0  0
  1  2  1  0  0  0  0
  2  3  1  0  0  0  0
  2  7  2  0  0  0  0
  4  3  1  6  0  0  0
  4  5  1  0  0  0  0
  4  6  1  0  0  0  0
  4  8  1  0  0  0  0
  5  9  2  0  0  0  0
  6 13  1  0  0  0  0
  7 12  1  0  0  0  0
  8 19  2  0  0  0  0
 10  7  1  1  0  0  0
 10 14  1  0  0  0  0
 10 17  1  0  0  0  0
 11  8  1  6  0  0  0
 11 20  1  0  0  0  0
 11 32  1  0  0  0  0
 12 18  1  0  0  0  0
 12 30  1  1  0  0  0
 12 32  1  0  0  0  0
 13 16  2  0  0  0  0
 13 21  1  0  0  0  0
 14  5  1  1  0  0  0
 14 15  1  0  0  0  0
 14 20  1  0  0  0  0
 15 31  1  0  0  0  0
 15 33  1  0  0  0  0
 17 18  1  0  0  0  0
 17 23  1  0  0  0  0
 18 25  1  0  0  0  0
 18 26  1  0  0  0  0
 19 21  1  0  0  0  0
 19 36  1  0  0  0  0
 20 23  1  0  0  0  0
 21 22  2  0  0  0  0
 22 27  1  0  0  0  0
 23 24  1  0  0  0  0
 23 33  1  0  0  0  0
 24 26  1  0  0  0  0
 26 28  2  0  0  0  0
 27 35  2  0  0  0  0
 27 39  1  0  0  0  0
 28 29  1  0  0  0  0
 28 32  1  0  0  0  0
 29 38  1  0  0  0  0
 31 34  1  0  0  0  0
 31 37  2  0  0  0  0
 35 36  1  0  0  0  0
 36 38  1  0  0  0  0
 39 40  1  0  0  0  0
 39 41  2  0  0  0  0
 40 42  1  0  0  0  0
 40 43  2  0  0  0  0
 41 44  1  0  0  0  0
 41 45  1  0  0  0  0
 43 49  1  0  0  0  0
 44 48  2  0  0  0  0
 45 46  1  0  0  0  0
 45 49  2  0  0  0  0
 46 47  2  0  0  0  0
 47 48  1  0  0  0  0
M  END
$$$$

 OpenBabel10082411353D

 49 61  0  0  0  0  0  0  0  0999 V2000
    8.0806    9.0240  -12.7589 C   0  0  0  0  0  0  0  0  0  0  0  0
    8.6514    7.8645  -12.2948 C   0  0  0  0  0  0  0  0  0  0  0  0
    9.9575    7.9974  -11.8426 C   0  0  0  0  0  0  0  0  0  0  0  0
   10.7657    6.8667  -11.6050 C   0  0  1  0  0  0  0  0  0  0  0  0
   10.7682    5.9590  -12.8271 C   0  0  0  0  0  0  0  0  0  0  0  0
   12.1553    7.3846  -11.2315 C   0  0  0  0  0  0  0  0  0  0  0  0
    8.0676    6.6451  -12.2974 C   0  0  0  0  0  0  0  0  0  0  0  0
   10.1892    6.1240  -10.3860 C   0  0  0  0  0  0  0  0  0  0  0  0
   11.8375    5.4373  -13.3240 O   0  0  0  0  0  0  0  0  0  0  0  0
    8.6785    5.4761  -13.0273 C   0  0  1  0  0  0  0  0  0  0  0  0
    9.1969    5.2405  -10.4969 C   0  0  2  0  0  0  0  0  0  0  0  0
    7.2213    6.2210  -11.3074 C   0  0  2  0  0  0  0  0  0  0  0  0
   12.5590    7.6872   -9.9896 C   0  0  0  0  0  0  0  0  0  0  0  0
    9.7633    5.0333  -12.9720 C   0  0  1  0  0  0  0  0  0  0  0  0
   10.0661    4.0167  -14.0373 N   0  0  0  0  0  0  0  0  0  0  0  0
   13.6906    8.3004   -9.6233 O   0  0  0  0  0  0  0  0  0  0  0  0
    7.6357    4.5123  -12.6317 C   0  0  2  0  0  0  0  0  0  0  0  0
    6.8831    4.9171  -11.7031 C   0  0  2  0  0  0  0  0  0  0  0  0
   10.5937    6.6967   -9.1779 C   0  0  0  0  0  0  0  0  0  0  0  0
    9.5087    4.3263  -11.6925 C   0  0  2  0  0  0  0  0  0  0  0  0
   11.6359    7.4449   -8.9125 C   0  0  0  0  0  0  0  0  0  0  0  0
   11.9716    7.9159   -7.6200 C   0  0  0  0  0  0  0  0  0  0  0  0
    8.4648    3.6122  -12.2840 C   0  0  1  0  0  0  0  0  0  0  0  0
    7.9253    2.8004  -11.3926 C   0  0  0  0  0  0  0  0  0  0  0  0
    5.6047    4.5059  -11.7589 C   0  0  0  0  0  0  0  0  0  0  0  0
    7.6606    4.1297  -10.5699 C   0  0  0  0  0  0  0  0  0  0  0  0
   10.9559    7.6849   -6.6057 C   0  0  0  0  0  0  0  0  0  0  0  0
    8.0094    4.5092   -9.5664 C   0  0  0  0  0  0  0  0  0  0  0  0
    8.3033    4.0627   -8.4980 C   0  0  0  0  0  0  0  0  0  0  0  0
    6.3587    7.1012  -11.0392 O   0  0  0  0  0  0  0  0  0  0  0  0
   11.0186    3.9598  -14.9226 C   0  0  0  0  0  0  0  0  0  0  0  0
    8.1758    5.8633  -10.2511 C   0  0  1  0  0  0  0  0  0  0  0  0
   11.4648    2.7104  -15.2650 O   0  0  0  0  0  0  0  0  0  0  0  0
    9.9512    6.8220   -6.8436 C   0  0  0  0  0  0  0  0  0  0  0  0
    9.6899    6.3705   -8.1082 C   0  0  2  0  0  0  0  0  0  0  0  0
   11.2597    8.2901   -5.2396 C   0  0  0  0  0  0  0  0  0  0  0  0
   11.7295    4.9426  -15.4284 O   0  0  0  0  0  0  0  0  0  0  0  0
    9.2745    4.9481   -7.8103 C   0  0  0  0  0  0  0  0  0  0  0  0
    9.1757    2.9301  -13.7559 C   0  0  0  0  0  0  0  0  0  0  0  0
   11.9187    7.5856   -4.3294 C   0  0  0  0  0  0  0  0  0  0  0  0
   11.7781    6.4587   -4.0864 C   0  0  0  0  0  0  0  0  0  0  0  0
   10.9546    9.6992   -5.1271 C   0  0  0  0  0  0  0  0  0  0  0  0
   10.2713   10.5528   -6.1587 F   0  0  0  0  0  0  0  0  0  0  0  0
   12.3228    8.5445   -3.1024 C   0  0  0  0  0  0  0  0  0  0  0  0
   11.4237   10.4607   -4.0195 C   0  0  0  0  0  0  0  0  0  0  0  0
   12.9105    7.7538   -2.0110 C   0  0  0  0  0  0  0  0  0  0  0  0
   12.7694    6.4482   -1.9609 C   0  0  0  0  0  0  0  0  0  0  0  0
   12.2541    5.8223   -3.1038 C   0  0  0  0  0  0  0  0  0  0  0  0
   12.1159    9.8541   -3.0545 C   0  0  0  0  0  0  0  0  0  0  0  0
  1  2  1  0  0  0  0
  2  3  1  0  0  0  0
  2  7  2  0  0  0  0
  4  3  1  6  0  0  0
  4  5  1  0  0  0  0
  4  6  1  0  0  0  0
  4  8  1  0  0  0  0
  5  9  2  0  0  0  0
  6 13  1  0  0  0  0
  7 12  1  0  0  0  0
  8 19  2  0  0  0  0
 10  7  1  1  0  0  0
 10 14  1  0  0  0  0
 10 17  1  0  0  0  0
 11  8  1  6  0  0  0
 11 20  1  0  0  0  0
 11 32  1  0  0  0  0
 12 18  1  0  0  0  0
 12 30  1  1  0  0  0
 12 32  1  0  0  0  0
 13 16  2  0  0  0  0
 13 21  1  0  0  0  0
 14  5  1  1  0  0  0
 14 15  1  0  0  0  0
 14 20  1  0  0  0  0
 15 31  1  0  0  0  0
 15 39  1  0  0  0  0
 17 18  1  0  0  0  0
 17 23  1  0  0  0  0
 18 25  1  0  0  0  0
 18 26  1  0  0  0  0
 19 21  1  0  0  0  0
 19 35  1  0  0  0  0
 20 23  1  0  0  0  0
 21 22  2  0  0  0  0
 22 27  1  0  0  0  0
 23 24  1  0  0  0  0
 23 39  1  0  0  0  0
 24 26  1  0  0  0  0
 26 28  2  0  0  0  0
 27 34  2  0  0  0  0
 27 36  1  0  0  0  0
 28 29  1  0  0  0  0
 28 32  1  0  0  0  0
 29 38  1  0  0  0  0
 31 33  2  0  0  0  0
 31 37  1  0  0  0  0
 34 35  1  0  0  0  0
 35 38  1  0  0  0  0
 36 40  1  0  0  0  0
 36 42  2  0  0  0  0
 40 41  2  0  0  0  0
 40 44  1  0  0  0  0
 41 48  1  0  0  0  0
 42 43  1  0  0  0  0
 42 45  1  0  0  0  0
 44 46  1  0  0  0  0
 44 49  2  0  0  0  0
 45 49  2  0  0  0  0
 46 47  2  0  0  0  0
 47 48  1  0  0  0  0
M  END
$$$$

 OpenBabel10082411353D

 50 62  0  0  0  0  0  0  0  0999 V2000
    8.0806    9.0240  -12.7589 C   0  0  0  0  0  0  0  0  0  0  0  0
    8.6514    7.8645  -12.2948 C   0  0  0  0  0  0  0  0  0  0  0  0
    9.9575    7.9974  -11.8426 C   0  0  0  0  0  0  0  0  0  0  0  0
   10.7657    6.8667  -11.6050 C   0  0  1  0  0  0  0  0  0  0  0  0
   10.7682    5.9590  -12.8271 C   0  0  0  0  0  0  0  0  0  0  0  0
   12.1553    7.3846  -11.2315 C   0  0  0  0  0  0  0  0  0  0  0  0
    8.0676    6.6451  -12.2974 C   0  0  0  0  0  0  0  0  0  0  0  0
   10.1892    6.1240  -10.3860 C   0  0  0  0  0  0  0  0  0  0  0  0
   11.8375    5.4373  -13.3240 O   0  0  0  0  0  0  0  0  0  0  0  0
    8.6785    5.4761  -13.0273 C   0  0  1  0  0  0  0  0  0  0  0  0
    9.1969    5.2405  -10.4969 C   0  0  2  0  0  0  0  0  0  0  0  0
    7.2213    6.2210  -11.3074 C   0  0  2  0  0  0  0  0  0  0  0  0
   12.5590    7.6872   -9.9896 C   0  0  0  0  0  0  0  0  0  0  0  0
    9.7633    5.0333  -12.9720 C   0  0  1  0  0  0  0  0  0  0  0  0
   10.0661    4.0167  -14.0373 N   0  0  0  0  0  0  0  0  0  0  0  0
   13.6906    8.3004   -9.6233 O   0  0  0  0  0  0  0  0  0  0  0  0
    7.6357    4.5123  -12.6317 C   0  0  2  0  0  0  0  0  0  0  0  0
    6.8831    4.9171  -11.7031 C   0  0  2  0  0  0  0  0  0  0  0  0
   10.5937    6.6967   -9.1779 C   0  0  0  0  0  0  0  0  0  0  0  0
    9.5087    4.3263  -11.6925 C   0  0  2  0  0  0  0  0  0  0  0  0
   11.6359    7.4449   -8.9125 C   0  0  0  0  0  0  0  0  0  0  0  0
   11.9716    7.9159   -7.6200 C   0  0  0  0  0  0  0  0  0  0  0  0
    8.4648    3.6122  -12.2840 C   0  0  1  0  0  0  0  0  0  0  0  0
    7.9253    2.8004  -11.3926 C   0  0  0  0  0  0  0  0  0  0  0  0
    5.6047    4.5059  -11.7589 C   0  0  0  0  0  0  0  0  0  0  0  0
    7.6606    4.1297  -10.5699 C   0  0  0  0  0  0  0  0  0  0  0  0
   10.9559    7.6849   -6.6057 C   0  0  0  0  0  0  0  0  0  0  0  0
    8.0094    4.5092   -9.5664 C   0  0  0  0  0  0  0  0  0  0  0  0
    8.3033    4.0627   -8.4980 C   0  0  0  0  0  0  0  0  0  0  0  0
    6.3587    7.1012  -11.0392 O   0  0  0  0  0  0  0  0  0  0  0  0
   11.1885    8.2709   -5.2029 C   0  0  0  0  0  0  0  0  0  0  0  0
    8.1551    5.8688  -10.2415 C   0  0  1  0  0  0  0  0  0  0  0  0
    9.3562    2.8931  -13.4173 C   0  0  0  0  0  0  0  0  0  0  0  0
    9.4006    1.8057  -13.6789 O   0  0  0  0  0  0  0  0  0  0  0  0
   10.6448    3.9324  -15.2556 C   0  0  0  0  0  0  0  0  0  0  0  0
    9.9004    6.8953   -6.7235 C   0  0  0  0  0  0  0  0  0  0  0  0
    8.1584    4.7418   -7.5351 O   0  0  0  0  0  0  0  0  0  0  0  0
    8.5999    2.9050   -8.2804 O   0  0  0  0  0  0  0  0  0  0  0  0
   11.6420    7.3504   -4.2035 C   0  0  0  0  0  0  0  0  0  0  0  0
    9.6081    6.4128   -8.0398 C   0  0  2  0  0  0  0  0  0  0  0  0
    8.3828    5.9446   -7.9275 C   0  0  1  0  0  0  0  0  0  0  0  0
   11.1933    9.6919   -4.9542 C   0  0  0  0  0  0  0  0  0  0  0  0
   10.7525   10.6554   -6.1095 F   0  0  0  0  0  0  0  0  0  0  0  0
   11.7302    5.9412   -4.4414 F   0  0  0  0  0  0  0  0  0  0  0  0
   11.9282    7.7409   -2.9586 C   0  0  0  0  0  0  0  0  0  0  0  0
   12.3074    6.8991   -1.8333 C   0  0  0  0  0  0  0  0  0  0  0  0
   11.8763    9.2921   -2.6517 C   0  0  0  0  0  0  0  0  0  0  0  0
   12.2152    9.7279   -1.4571 F   0  0  0  0  0  0  0  0  0  0  0  0
   11.5319   10.1378   -3.6937 C   0  0  0  0  0  0  0  0  0  0  0  0
    8.7289    6.3116   -9.0807 C   0  0  2  0  0  0  0  0  0  0  0  0
  1  2  1  0  0  0  0
  2  3  1  0  0  0  0
  2  7  2  0  0  0  0
  4  3  1  6  0  0  0
  4  5  1  0  0  0  0
  4  6  1  0  0  0  0
  4  8  1  0  0  0  0
  5  9  2  0  0  0  0
  6 13  1  0  0  0  0
  7 12  1  0  0  0  0
  8 19  2  0  0  0  0
 10  7  1  1  0  0  0
 10 14  1  0  0  0  0
 10 17  1  0  0  0  0
 11  8  1  6  0  0  0
 11 20  1  0  0  0  0
 11 32  1  0  0  0  0
 12 18  1  0  0  0  0
 12 30  1  6  0  0  0
 13 16  2  0  0  0  0
 13 21  1  0  0  0  0
 14  5  1  1  0  0  0
 14 15  1  0  0  0  0
 14 20  1  0  0  0  0
 15 33  1  0  0  0  0
 15 35  1  0  0  0  0
 17 18  1  0  0  0  0
 17 23  1  0  0  0  0
 18 25  1  0  0  0  0
 18 26  1  0  0  0  0
 19 21  1  0  0  0  0
 19 40  1  0  0  0  0
 20 23  1  0  0  0  0
 21 22  2  0  0  0  0
 22 27  1  0  0  0  0
 23 24  1  0  0  0  0
 23 33  1  0  0  0  0
 24 26  1  0  0  0  0
 26 28  2  0  0  0  0
 27 31  1  0  0  0  0
 27 36  2  0  0  0  0
 28 29  1  0  0  0  0
 28 32  1  0  0  0  0
 29 37  1  0  0  0  0
 29 38  2  0  0  0  0
 31 39  1  0  0  0  0
 31 42  2  0  0  0  0
 32 50  1  0  0  0  0
 33 34  2  0  0  0  0
 36 40  1  0  0  0  0
 37 41  1  0  0  0  0
 39 44  1  0  0  0  0
 39 45  2  0  0  0  0
 40 41  1  0  0  0  0
 40 50  1  0  0  0  0
 41 50  1  0  0  0  0
 42 43  1  0  0  0  0
 42 49  1  0  0  0  0
 45 46  1  0  0  0  0
 45 47  1  0  0  0  0
 47 48  1  0  0  0  0
 47 49  2  0  0  0  0
M  END
$$$$

 OpenBabel10082411353D

 28 31  0  0  0  0  0  0  0  0999 V2000
   10.5338    9.5630   -5.0683 C   0  0  0  0  0  0  0  0  0  0  0  0
   11.6326    9.3232   -4.4343 C   0  0  0  0  0  0  0  0  0  0  0  0
   10.1175    8.4558   -5.9583 O   0  0  0  0  0  0  0  0  0  0  0  0
   11.2137    7.9307   -6.4519 C   0  0  1  0  0  0  0  0  0  0  0  0
   12.3805    8.4362   -5.4668 C   0  0  0  0  0  0  0  0  0  0  0  0
   11.1829    6.4410   -6.3835 C   0  0  0  0  0  0  0  0  0  0  0  0
   11.5307    8.4278   -7.8431 C   0  0  0  0  0  0  0  0  0  0  0  0
   10.9695    7.6928   -8.9182 C   0  0  0  0  0  0  0  0  0  0  0  0
   10.6724    8.2768  -10.0336 C   0  0  0  0  0  0  0  0  0  0  0  0
   10.0385    7.4564  -11.1366 C   0  0  0  0  0  0  0  0  0  0  0  0
   10.1397    6.1099  -11.1838 C   0  0  0  0  0  0  0  0  0  0  0  0
    9.3255    8.2273  -12.2243 C   0  0  0  0  0  0  0  0  0  0  0  0
    8.1145    8.9106  -11.7538 C   0  0  0  0  0  0  0  0  0  0  0  0
   10.4444    5.4278  -10.0118 C   0  0  0  0  0  0  0  0  0  0  0  0
   10.9789    6.1875   -8.8320 C   0  0  0  0  0  0  0  0  0  0  0  0
   11.2250    5.6168   -7.5866 C   0  0  0  0  0  0  0  0  0  0  0  0
    9.5926    5.1489  -12.1900 C   0  0  0  0  0  0  0  0  0  0  0  0
    8.3818    4.7973  -12.4219 C   0  0  0  0  0  0  0  0  0  0  0  0
   10.6536    4.7130  -13.0933 C   0  0  0  0  0  0  0  0  0  0  0  0
    7.3334    5.1704  -11.3902 C   0  0  0  0  0  0  0  0  0  0  0  0
    8.2200    3.9214  -13.3882 C   0  0  0  0  0  0  0  0  0  0  0  0
    6.2242    4.7346  -11.6188 O   0  0  0  0  0  0  0  0  0  0  0  0
    6.7603    3.4184  -13.6559 O   0  0  0  0  0  0  0  0  0  0  0  0
    6.7347    2.0241  -13.6053 C   0  0  0  0  0  0  0  0  0  0  0  0
    7.5263    5.8629  -10.3725 O   0  0  0  0  0  0  0  0  0  0  0  0
   10.3754    3.9039  -14.1236 C   0  0  0  0  0  0  0  0  0  0  0  0
    9.0960    3.4892  -14.2677 C   0  0  0  0  0  0  0  0  0  0  0  0
   11.5708    3.4831  -15.0571 C   0  0  0  0  0  0  0  0  0  0  0  0
  1  2  1  0  0  0  0
  1  3  1  0  0  0  0
  2  5  1  0  0  0  0
  3  4  1  0  0  0  0
  4  5  1  1  0  0  0
  4  6  1  0  0  0  0
  4  7  1  0  0  0  0
  6 16  1  0  0  0  0
  7  8  1  0  0  0  0
  8  9  2  0  0  0  0
  8 15  1  0  0  0  0
  9 10  1  0  0  0  0
 10 11  2  0  0  0  0
 10 12  1  0  0  0  0
 11 14  1  0  0  0  0
 11 17  1  0  0  0  0
 12 13  1  0  0  0  0
 14 15  2  0  0  0  0
 15 16  1  0  0  0  0
 17 18  1  0  0  0  0
 17 19  2  0  0  0  0
 18 20  1  0  0  0  0
 18 21  2  0  0  0  0
 19 26  1  0  0  0  0
 20 22  2  0  0  0  0
 20 25  1  0  0  0  0
 21 23  1  0  0  0  0
 21 27  1  0  0  0  0
 23 24  1  0  0  0  0
 26 27  2  0  0  0  0
 26 28  1  0  0  0  0
M  END
$$$$

 OpenBabel10082411353D

 50 61  0  0  0  0  0  0  0  0999 V2000
    8.0806    9.0240  -12.7589 C   0  0  0  0  0  0  0  0  0  0  0  0
    8.6514    7.8645  -12.2948 C   0  0  0  0  0  0  0  0  0  0  0  0
    9.9575    7.9974  -11.8426 C   0  0  0  0  0  0  0  0  0  0  0  0
   10.7657    6.8667  -11.6050 C   0  0  1  0  0  0  0  0  0  0  0  0
   10.7682    5.9590  -12.8271 C   0  0  0  0  0  0  0  0  0  0  0  0
   12.1553    7.3846  -11.2315 C   0  0  0  0  0  0  0  0  0  0  0  0
    8.0676    6.6451  -12.2974 C   0  0  0  0  0  0  0  0  0  0  0  0
   10.1892    6.1240  -10.3860 C   0  0  0  0  0  0  0  0  0  0  0  0
   11.8375    5.4373  -13.3240 O   0  0  0  0  0  0  0  0  0  0  0  0
    8.6785    5.4761  -13.0273 C   0  0  1  0  0  0  0  0  0  0  0  0
    9.1969    5.2405  -10.4969 C   0  0  2  0  0  0  0  0  0  0  0  0
    7.2213    6.2210  -11.3074 C   0  0  2  0  0  0  0  0  0  0  0  0
   12.5590    7.6872   -9.9896 C   0  0  0  0  0  0  0  0  0  0  0  0
    9.7633    5.0333  -12.9720 C   0  0  1  0  0  0  0  0  0  0  0  0
   10.0661    4.0167  -14.0373 N   0  0  0  0  0  0  0  0  0  0  0  0
   13.6906    8.3004   -9.6233 O   0  0  0  0  0  0  0  0  0  0  0  0
    7.6357    4.5123  -12.6317 C   0  0  2  0  0  0  0  0  0  0  0  0
    6.8831    4.9171  -11.7031 C   0  0  2  0  0  0  0  0  0  0  0  0
   10.5937    6.6967   -9.1779 C   0  0  0  0  0  0  0  0  0  0  0  0
    9.5087    4.3263  -11.6925 C   0  0  2  0  0  0  0  0  0  0  0  0
   11.6359    7.4449   -8.9125 C   0  0  0  0  0  0  0  0  0  0  0  0
   11.9716    7.9159   -7.6200 C   0  0  0  0  0  0  0  0  0  0  0  0
    8.4648    3.6122  -12.2840 C   0  0  1  0  0  0  0  0  0  0  0  0
    7.9253    2.8004  -11.3926 C   0  0  0  0  0  0  0  0  0  0  0  0
    5.6047    4.5059  -11.7589 C   0  0  0  0  0  0  0  0  0  0  0  0
    7.6606    4.1297  -10.5699 C   0  0  0  0  0  0  0  0  0  0  0  0
   10.9559    7.6849   -6.6057 C   0  0  0  0  0  0  0  0  0  0  0  0
    8.0094    4.5092   -9.5664 C   0  0  0  0  0  0  0  0  0  0  0  0
    8.3033    4.0627   -8.4980 C   0  0  0  0  0  0  0  0  0  0  0  0
    6.3587    7.1012  -11.0392 O   0  0  0  0  0  0  0  0  0  0  0  0
   11.1885    8.2709   -5.2029 C   0  0  0  0  0  0  0  0  0  0  0  0
    8.1551    5.8688  -10.2415 C   0  0  1  0  0  0  0  0  0  0  0  0
    9.3562    2.8931  -13.4173 C   0  0  0  0  0  0  0  0  0  0  0  0
    9.4006    1.8057  -13.6789 O   0  0  0  0  0  0  0  0  0  0  0  0
   10.6448    3.9324  -15.2556 C   0  0  0  0  0  0  0  0  0  0  0  0
    9.9004    6.8953   -6.7235 C   0  0  0  0  0  0  0  0  0  0  0  0
    8.1584    4.7418   -7.5351 O   0  0  0  0  0  0  0  0  0  0  0  0
    8.5999    2.9050   -8.2804 O   0  0  0  0  0  0  0  0  0  0  0  0
   11.6420    7.3504   -4.2035 C   0  0  0  0  0  0  0  0  0  0  0  0
    9.6081    6.4128   -8.0398 C   0  0  1  0  0  0  0  0  0  0  0  0
    8.3828    5.9446   -7.9275 C   0  0  1  0  0  0  0  0  0  0  0  0
   11.1933    9.6919   -4.9542 C   0  0  0  0  0  0  0  0  0  0  0  0
   10.7525   10.6554   -6.1095 F   0  0  0  0  0  0  0  0  0  0  0  0
   11.7302    5.9412   -4.4414 F   0  0  0  0  0  0  0  0  0  0  0  0
   11.9282    7.7409   -2.9586 C   0  0  0  0  0  0  0  0  0  0  0  0
   12.3074    6.8991   -1.8333 C   0  0  0  0  0  0  0  0  0  0  0  0
   11.8763    9.2921   -2.6517 C   0  0  0  0  0  0  0  0  0  0  0  0
   12.2152    9.7279   -1.4571 F   0  0  0  0  0  0  0  0  0  0  0  0
    8.7646    6.2994   -9.0944 O   0  0  0  0  0  0  0  0  0  0  0  0
   11.5450   10.1886   -3.6356 C   0  0  0  0  0  0  0  0  0  0  0  0
  1  2  1  0  0  0  0
  2  3  1  0  0  0  0
  2  7  2  0  0  0  0
  4  3  1  6  0  0  0
  4  5  1  0  0  0  0
  4  6  1  0  0  0  0
  4  8  1  0  0  0  0
  5  9  2  0  0  0  0
  6 13  1  0  0  0  0
  7 12  1  0  0  0  0
  8 19  2  0  0  0  0
 10  7  1  1  0  0  0
 10 14  1  0  0  0  0
 10 17  1  0  0  0  0
 11  8  1  6  0  0  0
 11 20  1  0  0  0  0
 11 32  1  0  0  0  0
 12 18  1  0  0  0  0
 12 30  1  6  0  0  0
 13 16  2  0  0  0  0
 13 21  1  0  0  0  0
 14  5  1  1  0  0  0
 14 15  1  0  0  0  0
 14 20  1  0  0  0  0
 15 33  1  0  0  0  0
 15 35  1  0  0  0  0
 17 18  1  0  0  0  0
 17 23  1  0  0  0  0
 18 25  1  0  0  0  0
 18 26  1  0  0  0  0
 19 21  1  0  0  0  0
 19 40  1  0  0  0  0
 20 23  1  0  0  0  0
 21 22  2  0  0  0  0
 22 27  1  0  0  0  0
 23 24  1  0  0  0  0
 23 33  1  0  0  0  0
 24 26  1  0  0  0  0
 26 28  2  0  0  0  0
 27 31  1  0  0  0  0
 27 36  2  0  0  0  0
 28 29  1  0  0  0  0
 28 32  1  0  0  0  0
 29 37  1  0  0  0  0
 29 38  2  0  0  0  0
 31 39  1  0  0  0  0
 31 42  2  0  0  0  0
 32 49  1  0  0  0  0
 33 34  2  0  0  0  0
 36 40  1  0  0  0  0
 37 41  1  0  0  0  0
 39 44  1  0  0  0  0
 39 45  2  0  0  0  0
 40 41  1  0  0  0  0
 41 49  1  0  0  0  0
 42 43  1  0  0  0  0
 42 50  1  0  0  0  0
 45 46  1  0  0  0  0
 45 47  1  0  0  0  0
 47 48  1  0  0  0  0
 47 50  2  0  0  0  0
M  END
$$$$

 OpenBabel10082411353D

 50 62  0  0  0  0  0  0  0  0999 V2000
    8.0806    9.0240  -12.7589 C   0  0  0  0  0  0  0  0  0  0  0  0
    8.6514    7.8645  -12.2948 C   0  0  0  0  0  0  0  0  0  0  0  0
    9.9575    7.9974  -11.8426 C   0  0  0  0  0  0  0  0  0  0  0  0
   10.7657    6.8667  -11.6050 C   0  0  1  0  0  0  0  0  0  0  0  0
   10.7682    5.9590  -12.8271 C   0  0  0  0  0  0  0  0  0  0  0  0
   12.1553    7.3846  -11.2315 C   0  0  0  0  0  0  0  0  0  0  0  0
    8.0676    6.6451  -12.2974 C   0  0  0  0  0  0  0  0  0  0  0  0
   10.1892    6.1240  -10.3860 C   0  0  0  0  0  0  0  0  0  0  0  0
   11.8375    5.4373  -13.3240 O   0  0  0  0  0  0  0  0  0  0  0  0
    8.6785    5.4761  -13.0273 C   0  0  1  0  0  0  0  0  0  0  0  0
    9.1969    5.2405  -10.4969 C   0  0  2  0  0  0  0  0  0  0  0  0
    7.2213    6.2210  -11.3074 C   0  0  2  0  0  0  0  0  0  0  0  0
   12.5590    7.6872   -9.9896 C   0  0  0  0  0  0  0  0  0  0  0  0
    9.7633    5.0333  -12.9720 C   0  0  1  0  0  0  0  0  0  0  0  0
   10.0661    4.0167  -14.0373 N   0  0  0  0  0  0  0  0  0  0  0  0
   13.6906    8.3004   -9.6233 O   0  0  0  0  0  0  0  0  0  0  0  0
    7.6357    4.5123  -12.6317 C   0  0  2  0  0  0  0  0  0  0  0  0
    6.8831    4.9171  -11.7031 C   0  0  2  0  0  0  0  0  0  0  0  0
   10.5937    6.6967   -9.1779 C   0  0  0  0  0  0  0  0  0  0  0  0
    9.5087    4.3263  -11.6925 C   0  0  2  0  0  0  0  0  0  0  0  0
   11.6359    7.4449   -8.9125 C   0  0  0  0  0  0  0  0  0  0  0  0
   11.9716    7.9159   -7.6200 C   0  0  0  0  0  0  0  0  0  0  0  0
    8.4648    3.6122  -12.2840 C   0  0  1  0  0  0  0  0  0  0  0  0
    7.9253    2.8004  -11.3926 C   0  0  0  0  0  0  0  0  0  0  0  0
    5.6047    4.5059  -11.7589 C   0  0  0  0  0  0  0  0  0  0  0  0
    7.6606    4.1297  -10.5699 C   0  0  0  0  0  0  0  0  0  0  0  0
   10.9559    7.6849   -6.6057 C   0  0  0  0  0  0  0  0  0  0  0  0
    8.0094    4.5092   -9.5664 C   0  0  0  0  0  0  0  0  0  0  0  0
    8.3033    4.0627   -8.4980 C   0  0  0  0  0  0  0  0  0  0  0  0
    6.3587    7.1012  -11.0392 O   0  0  0  0  0  0  0  0  0  0  0  0
   11.0186    3.9598  -14.9226 C   0  0  0  0  0  0  0  0  0  0  0  0
    8.1758    5.8633  -10.2511 C   0  0  1  0  0  0  0  0  0  0  0  0
   11.4648    2.7104  -15.2650 O   0  0  0  0  0  0  0  0  0  0  0  0
    9.9512    6.8220   -6.8436 C   0  0  0  0  0  0  0  0  0  0  0  0
    9.6899    6.3705   -8.1082 C   0  0  2  0  0  0  0  0  0  0  0  0
   11.2597    8.2901   -5.2396 C   0  0  0  0  0  0  0  0  0  0  0  0
   11.6068    9.7354   -5.2006 C   0  0  0  0  0  0  0  0  0  0  0  0
   10.9469    4.9352  -15.8306 C   0  0  0  0  0  0  0  0  0  0  0  0
    9.2417    4.9555   -7.8256 C   0  0  0  0  0  0  0  0  0  0  0  0
   11.3657    7.7043   -4.0379 C   0  0  0  0  0  0  0  0  0  0  0  0
   11.4469   10.6225   -6.4157 C   0  0  0  0  0  0  0  0  0  0  0  0
   11.9077   10.2897   -3.9889 C   0  0  0  0  0  0  0  0  0  0  0  0
   11.9472    9.5143   -2.8307 C   0  0  0  0  0  0  0  0  0  0  0  0
    9.3030    2.8335  -13.6243 C   0  0  0  0  0  0  0  0  0  0  0  0
   11.0706    6.0966   -4.1041 S   0  0  0  0  0  0  0  0  0  0  0  0
   11.7685    8.3184   -2.7897 C   0  0  0  0  0  0  0  0  0  0  0  0
   12.1427    5.5065   -4.8531 O   0  0  0  0  0  0  0  0  0  0  0  0
    9.8916    5.5767   -4.4833 O   0  0  0  0  0  0  0  0  0  0  0  0
   11.3436    5.7702   -2.3627 C   0  0  0  0  0  0  0  0  0  0  0  0
   11.8250    7.1875   -1.8601 C   0  0  0  0  0  0  0  0  0  0  0  0
  1  2  1  0  0  0  0
  2  3  1  0  0  0  0
  2  7  2  0  0  0  0
  4  3  1  6  0  0  0
  4  5  1  0  0  0  0
  4  6  1  0  0  0  0
  4  8  1  0  0  0  0
  5  9  2  0  0  0  0
  6 13  1  0  0  0  0
  7 12  1  0  0  0  0
  8 19  2  0  0  0  0
 10  7  1  1  0  0  0
 10 14  1  0  0  0  0
 10 17  1  0  0  0  0
 11  8  1  6  0  0  0
 11 20  1  0  0  0  0
 11 32  1  0  0  0  0
 12 18  1  0  0  0  0
 12 30  1  1  0  0  0
 12 32  1  0  0  0  0
 13 16  2  0  0  0  0
 13 21  1  0  0  0  0
 14  5  1  1  0  0  0
 14 15  1  0  0  0  0
 14 20  1  0  0  0  0
 15 31  1  0  0  0  0
 15 44  1  0  0  0  0
 17 18  1  0  0  0  0
 17 23  1  0  0  0  0
 18 25  1  0  0  0  0
 18 26  1  0  0  0  0
 19 21  1  0  0  0  0
 19 35  1  0  0  0  0
 20 23  1  0  0  0  0
 21 22  2  0  0  0  0
 22 27  1  0  0  0  0
 23 24  1  0  0  0  0
 23 44  1  0  0  0  0
 24 26  1  0  0  0  0
 26 28  2  0  0  0  0
 27 34  2  0  0  0  0
 27 36  1  0  0  0  0
 28 29  1  0  0  0  0
 28 32  1  0  0  0  0
 29 39  2  0  0  0  0
 31 33  2  0  0  0  0
 31 38  1  0  0  0  0
 34 35  1  0  0  0  0
 35 39  1  0  0  0  0
 36 37  1  0  0  0  0
 36 40  2  0  0  0  0
 37 41  1  0  0  0  0
 37 42  2  0  0  0  0
 40 45  1  0  0  0  0
 40 46  1  0  0  0  0
 42 43  1  0  0  0  0
 43 46  2  0  0  0  0
 45 47  2  0  0  0  0
 45 48  2  0  0  0  0
 45 49  1  0  0  0  0
 46 50  1  0  0  0  0
 49 50  2  0  0  0  0
M  END
$$$$

 OpenBabel10082411353D

 50 62  0  0  0  0  0  0  0  0999 V2000
    8.0806    9.0240  -12.7589 C   0  0  0  0  0  0  0  0  0  0  0  0
    8.6514    7.8645  -12.2948 C   0  0  0  0  0  0  0  0  0  0  0  0
    9.9575    7.9974  -11.8426 C   0  0  0  0  0  0  0  0  0  0  0  0
   10.7657    6.8667  -11.6050 C   0  0  1  0  0  0  0  0  0  0  0  0
   10.7682    5.9590  -12.8271 C   0  0  0  0  0  0  0  0  0  0  0  0
   12.1553    7.3846  -11.2315 C   0  0  0  0  0  0  0  0  0  0  0  0
    8.0676    6.6451  -12.2974 C   0  0  0  0  0  0  0  0  0  0  0  0
   10.1892    6.1240  -10.3860 C   0  0  0  0  0  0  0  0  0  0  0  0
   11.8375    5.4373  -13.3240 O   0  0  0  0  0  0  0  0  0  0  0  0
    8.6785    5.4761  -13.0273 C   0  0  1  0  0  0  0  0  0  0  0  0
    9.1969    5.2405  -10.4969 C   0  0  2  0  0  0  0  0  0  0  0  0
    7.2213    6.2210  -11.3074 C   0  0  2  0  0  0  0  0  0  0  0  0
   12.5590    7.6872   -9.9896 C   0  0  0  0  0  0  0  0  0  0  0  0
    9.7633    5.0333  -12.9720 C   0  0  1  0  0  0  0  0  0  0  0  0
   10.0661    4.0167  -14.0373 N   0  0  0  0  0  0  0  0  0  0  0  0
   13.6906    8.3004   -9.6233 O   0  0  0  0  0  0  0  0  0  0  0  0
    7.6357    4.5123  -12.6317 C   0  0  2  0  0  0  0  0  0  0  0  0
    6.8831    4.9171  -11.7031 C   0  0  2  0  0  0  0  0  0  0  0  0
   10.5937    6.6967   -9.1779 C   0  0  0  0  0  0  0  0  0  0  0  0
    9.5087    4.3263  -11.6925 C   0  0  2  0  0  0  0  0  0  0  0  0
   11.6359    7.4449   -8.9125 C   0  0  0  0  0  0  0  0  0  0  0  0
   11.9716    7.9159   -7.6200 C   0  0  0  0  0  0  0  0  0  0  0  0
    8.4648    3.6122  -12.2840 C   0  0  1  0  0  0  0  0  0  0  0  0
    7.9253    2.8004  -11.3926 C   0  0  0  0  0  0  0  0  0  0  0  0
    5.6047    4.5059  -11.7589 C   0  0  0  0  0  0  0  0  0  0  0  0
    7.6606    4.1297  -10.5699 C   0  0  0  0  0  0  0  0  0  0  0  0
   10.9559    7.6849   -6.6057 C   0  0  0  0  0  0  0  0  0  0  0  0
    8.0094    4.5092   -9.5664 C   0  0  0  0  0  0  0  0  0  0  0  0
    8.3033    4.0627   -8.4980 C   0  0  0  0  0  0  0  0  0  0  0  0
    6.3587    7.1012  -11.0392 O   0  0  0  0  0  0  0  0  0  0  0  0
   11.0186    3.9598  -14.9226 C   0  0  0  0  0  0  0  0  0  0  0  0
    8.1758    5.8633  -10.2511 C   0  0  1  0  0  0  0  0  0  0  0  0
   11.4648    2.7104  -15.2650 O   0  0  0  0  0  0  0  0  0  0  0  0
    9.9512    6.8220   -6.8436 C   0  0  0  0  0  0  0  0  0  0  0  0
    9.6899    6.3705   -8.1082 C   0  0  2  0  0  0  0  0  0  0  0  0
   11.2597    8.2901   -5.2396 C   0  0  0  0  0  0  0  0  0  0  0  0
   11.6068    9.7354   -5.2006 C   0  0  0  0  0  0  0  0  0  0  0  0
   10.9469    4.9352  -15.8306 C   0  0  0  0  0  0  0  0  0  0  0  0
    9.2417    4.9555   -7.8256 C   0  0  0  0  0  0  0  0  0  0  0  0
   11.3657    7.7043   -4.0379 C   0  0  0  0  0  0  0  0  0  0  0  0
   11.4469   10.6225   -6.4157 C   0  0  0  0  0  0  0  0  0  0  0  0
   11.9077   10.2897   -3.9889 C   0  0  0  0  0  0  0  0  0  0  0  0
   11.9472    9.5143   -2.8307 C   0  0  0  0  0  0  0  0  0  0  0  0
    9.3030    2.8335  -13.6243 C   0  0  0  0  0  0  0  0  0  0  0  0
   11.0706    6.0966   -4.1041 S   0  0  0  0  0  0  0  0  0  0  0  0
   11.7343    8.3349   -3.0045 C   0  0  0  0  0  0  0  0  0  0  0  0
   12.1398    5.5239   -4.8589 O   0  0  0  0  0  0  0  0  0  0  0  0
   11.2273    5.7924   -2.5132 O   0  0  0  0  0  0  0  0  0  0  0  0
    9.7296    5.7465   -4.5156 C   0  0  0  0  0  0  0  0  0  0  0  0
    9.2797    6.3110   -5.7170 C   0  0  0  0  0  0  0  0  0  0  0  0
  1  2  1  0  0  0  0
  2  3  1  0  0  0  0
  2  7  2  0  0  0  0
  4  3  1  6  0  0  0
  4  5  1  0  0  0  0
  4  6  1  0  0  0  0
  4  8  1  0  0  0  0
  5  9  2  0  0  0  0
  6 13  1  0  0  0  0
  7 12  1  0  0  0  0
  8 19  2  0  0  0  0
 10  7  1  1  0  0  0
 10 14  1  0  0  0  0
 10 17  1  0  0  0  0
 11  8  1  6  0  0  0
 11 20  1  0  0  0  0
 11 32  1  0  0  0  0
 12 18  1  0  0  0  0
 12 30  1  1  0  0  0
 12 32  1  0  0  0  0
 13 16  2  0  0  0  0
 13 21  1  0  0  0  0
 14  5  1  1  0  0  0
 14 15  1  0  0  0  0
 14 20  1  0  0  0  0
 15 31  1  0  0  0  0
 15 44  1  0  0  0  0
 17 18  1  0  0  0  0
 17 23  1  0  0  0  0
 18 25  1  0  0  0  0
 18 26  1  0  0  0  0
 19 21  1  0  0  0  0
 19 35  1  0  0  0  0
 20 23  1  0  0  0  0
 21 22  2  0  0  0  0
 22 27  1  0  0  0  0
 23 24  1  0  0  0  0
 23 44  1  0  0  0  0
 24 26  1  0  0  0  0
 26 28  2  0  0  0  0
 27 34  2  0  0  0  0
 27 36  1  0  0  0  0
 28 29  1  0  0  0  0
 28 32  1  0  0  0  0
 29 39  2  0  0  0  0
 31 33  2  0  0  0  0
 31 38  1  0  0  0  0
 34 35  1  0  0  0  0
 34 50  1  0  0  0  0
 35 39  1  0  0  0  0
 36 37  1  0  0  0  0
 36 40  2  0  0  0  0
 37 41  1  0  0  0  0
 37 42  2  0  0  0  0
 40 45  1  0  0  0  0
 40 46  1  0  0  0  0
 42 43  1  0  0  0  0
 43 46  2  0  0  0  0
 45 47  2  0  0  0  0
 45 48  2  0  0  0  0
 45 49  1  0  0  0  0
 49 50  1  0  0  0  0
M  END
$$$$

 OpenBabel10082411353D

 50 62  0  0  0  0  0  0  0  0999 V2000
    8.0806    9.0240  -12.7589 C   0  0  0  0  0  0  0  0  0  0  0  0
    8.6514    7.8645  -12.2948 C   0  0  0  0  0  0  0  0  0  0  0  0
    9.9575    7.9974  -11.8426 C   0  0  0  0  0  0  0  0  0  0  0  0
   10.7657    6.8667  -11.6050 C   0  0  1  0  0  0  0  0  0  0  0  0
   10.7682    5.9590  -12.8271 C   0  0  0  0  0  0  0  0  0  0  0  0
   12.1553    7.3846  -11.2315 C   0  0  0  0  0  0  0  0  0  0  0  0
    8.0676    6.6451  -12.2974 C   0  0  0  0  0  0  0  0  0  0  0  0
   10.1892    6.1240  -10.3860 C   0  0  0  0  0  0  0  0  0  0  0  0
   11.8375    5.4373  -13.3240 O   0  0  0  0  0  0  0  0  0  0  0  0
    8.6785    5.4761  -13.0273 C   0  0  1  0  0  0  0  0  0  0  0  0
    9.1969    5.2405  -10.4969 C   0  0  2  0  0  0  0  0  0  0  0  0
    7.2213    6.2210  -11.3074 C   0  0  2  0  0  0  0  0  0  0  0  0
   12.5590    7.6872   -9.9896 C   0  0  0  0  0  0  0  0  0  0  0  0
    9.7633    5.0333  -12.9720 C   0  0  1  0  0  0  0  0  0  0  0  0
   10.0661    4.0167  -14.0373 N   0  0  0  0  0  0  0  0  0  0  0  0
   13.6906    8.3004   -9.6233 O   0  0  0  0  0  0  0  0  0  0  0  0
    7.6357    4.5123  -12.6317 C   0  0  2  0  0  0  0  0  0  0  0  0
    6.8831    4.9171  -11.7031 C   0  0  2  0  0  0  0  0  0  0  0  0
   10.5937    6.6967   -9.1779 C   0  0  0  0  0  0  0  0  0  0  0  0
    9.5087    4.3263  -11.6925 C   0  0  2  0  0  0  0  0  0  0  0  0
   11.6359    7.4449   -8.9125 C   0  0  0  0  0  0  0  0  0  0  0  0
   11.9716    7.9159   -7.6200 C   0  0  0  0  0  0  0  0  0  0  0  0
    8.4648    3.6122  -12.2840 C   0  0  1  0  0  0  0  0  0  0  0  0
    7.9253    2.8004  -11.3926 C   0  0  0  0  0  0  0  0  0  0  0  0
    5.6047    4.5059  -11.7589 C   0  0  0  0  0  0  0  0  0  0  0  0
    7.6606    4.1297  -10.5699 C   0  0  0  0  0  0  0  0  0  0  0  0
   10.9559    7.6849   -6.6057 C   0  0  0  0  0  0  0  0  0  0  0  0
    8.0094    4.5092   -9.5664 C   0  0  0  0  0  0  0  0  0  0  0  0
    8.3033    4.0627   -8.4980 C   0  0  0  0  0  0  0  0  0  0  0  0
    6.3587    7.1012  -11.0392 O   0  0  0  0  0  0  0  0  0  0  0  0
   11.0186    3.9598  -14.9226 C   0  0  0  0  0  0  0  0  0  0  0  0
    8.1758    5.8633  -10.2511 C   0  0  1  0  0  0  0  0  0  0  0  0
   11.4648    2.7104  -15.2650 O   0  0  0  0  0  0  0  0  0  0  0  0
    9.9512    6.8220   -6.8436 C   0  0  0  0  0  0  0  0  0  0  0  0
    9.6899    6.3705   -8.1082 C   0  0  2  0  0  0  0  0  0  0  0  0
   11.2597    8.2901   -5.2396 C   0  0  0  0  0  0  0  0  0  0  0  0
   11.6068    9.7354   -5.2006 C   0  0  0  0  0  0  0  0  0  0  0  0
   10.9469    4.9352  -15.8306 C   0  0  0  0  0  0  0  0  0  0  0  0
    9.2417    4.9555   -7.8256 C   0  0  0  0  0  0  0  0  0  0  0  0
   11.3657    7.7043   -4.0379 C   0  0  0  0  0  0  0  0  0  0  0  0
   11.4469   10.6225   -6.4157 C   0  0  0  0  0  0  0  0  0  0  0  0
   11.9077   10.2897   -3.9889 C   0  0  0  0  0  0  0  0  0  0  0  0
   11.9472    9.5143   -2.8307 C   0  0  0  0  0  0  0  0  0  0  0  0
    9.3030    2.8335  -13.6243 C   0  0  0  0  0  0  0  0  0  0  0  0
   11.0706    6.0966   -4.1041 S   0  0  0  0  0  0  0  0  0  0  0  0
   11.7685    8.3184   -2.7897 C   0  0  0  0  0  0  0  0  0  0  0  0
   12.1427    5.5065   -4.8531 O   0  0  0  0  0  0  0  0  0  0  0  0
    9.8916    5.5767   -4.4833 O   0  0  0  0  0  0  0  0  0  0  0  0
   11.3436    5.7702   -2.3627 C   0  0  0  0  0  0  0  0  0  0  0  0
   11.8250    7.1875   -1.8601 C   0  0  0  0  0  0  0  0  0  0  0  0
  1  2  1  0  0  0  0
  2  3  1  0  0  0  0
  2  7  2  0  0  0  0
  4  3  1  6  0  0  0
  4  5  1  0  0  0  0
  4  6  1  0  0  0  0
  4  8  1  0  0  0  0
  5  9  2  0  0  0  0
  6 13  1  0  0  0  0
  7 12  1  0  0  0  0
  8 19  2  0  0  0  0
 10  7  1  1  0  0  0
 10 14  1  0  0  0  0
 10 17  1  0  0  0  0
 11  8  1  6  0  0  0
 11 20  1  0  0  0  0
 11 32  1  0  0  0  0
 12 18  1  0  0  0  0
 12 30  1  1  0  0  0
 12 32  1  0  0  0  0
 13 16  2  0  0  0  0
 13 21  1  0  0  0  0
 14  5  1  1  0  0  0
 14 15  1  0  0  0  0
 14 20  1  0  0  0  0
 15 31  1  0  0  0  0
 15 44  1  0  0  0  0
 17 18  1  0  0  0  0
 17 23  1  0  0  0  0
 18 25  1  0  0  0  0
 18 26  1  0  0  0  0
 19 21  1  0  0  0  0
 19 35  1  0  0  0  0
 20 23  1  0  0  0  0
 21 22  2  0  0  0  0
 22 27  1  0  0  0  0
 23 24  1  0  0  0  0
 23 44  1  0  0  0  0
 24 26  1  0  0  0  0
 26 28  2  0  0  0  0
 27 34  2  0  0  0  0
 27 36  1  0  0  0  0
 28 29  1  0  0  0  0
 28 32  1  0  0  0  0
 29 39  2  0  0  0  0
 31 33  2  0  0  0  0
 31 38  1  0  0  0  0
 34 35  1  0  0  0  0
 35 39  1  0  0  0  0
 36 37  1  0  0  0  0
 36 40  2  0  0  0  0
 37 41  1  0  0  0  0
 37 42  2  0  0  0  0
 40 45  1  0  0  0  0
 40 46  1  0  0  0  0
 42 43  1  0  0  0  0
 43 46  2  0  0  0  0
 45 47  2  0  0  0  0
 45 48  2  0  0  0  0
 45 49  1  0  0  0  0
 46 50  1  0  0  0  0
 49 50  1  0  0  0  0
M  END
$$$$

 OpenBabel10082411353D

 50 61  0  0  0  0  0  0  0  0999 V2000
    8.0806    9.0240  -12.7589 C   0  0  0  0  0  0  0  0  0  0  0  0
    8.6514    7.8645  -12.2948 C   0  0  0  0  0  0  0  0  0  0  0  0
    9.9575    7.9974  -11.8426 C   0  0  0  0  0  0  0  0  0  0  0  0
   10.7657    6.8667  -11.6050 C   0  0  1  0  0  0  0  0  0  0  0  0
   10.7682    5.9590  -12.8271 C   0  0  0  0  0  0  0  0  0  0  0  0
   12.1553    7.3846  -11.2315 C   0  0  0  0  0  0  0  0  0  0  0  0
    8.0676    6.6451  -12.2974 C   0  0  0  0  0  0  0  0  0  0  0  0
   10.1892    6.1240  -10.3860 C   0  0  0  0  0  0  0  0  0  0  0  0
   11.8375    5.4373  -13.3240 O   0  0  0  0  0  0  0  0  0  0  0  0
    8.6785    5.4761  -13.0273 C   0  0  1  0  0  0  0  0  0  0  0  0
    9.1969    5.2405  -10.4969 C   0  0  2  0  0  0  0  0  0  0  0  0
    7.2213    6.2210  -11.3074 C   0  0  2  0  0  0  0  0  0  0  0  0
   12.5590    7.6872   -9.9896 C   0  0  0  0  0  0  0  0  0  0  0  0
    9.7633    5.0333  -12.9720 C   0  0  1  0  0  0  0  0  0  0  0  0
   10.0661    4.0167  -14.0373 N   0  0  0  0  0  0  0  0  0  0  0  0
   13.6906    8.3004   -9.6233 O   0  0  0  0  0  0  0  0  0  0  0  0
    7.6357    4.5123  -12.6317 C   0  0  2  0  0  0  0  0  0  0  0  0
    6.8831    4.9171  -11.7031 C   0  0  2  0  0  0  0  0  0  0  0  0
   10.5937    6.6967   -9.1779 C   0  0  0  0  0  0  0  0  0  0  0  0
    9.5087    4.3263  -11.6925 C   0  0  2  0  0  0  0  0  0  0  0  0
   11.6359    7.4449   -8.9125 C   0  0  0  0  0  0  0  0  0  0  0  0
   11.9716    7.9159   -7.6200 C   0  0  0  0  0  0  0  0  0  0  0  0
    8.4648    3.6122  -12.2840 C   0  0  1  0  0  0  0  0  0  0  0  0
    7.9253    2.8004  -11.3926 C   0  0  0  0  0  0  0  0  0  0  0  0
    5.6047    4.5059  -11.7589 C   0  0  0  0  0  0  0  0  0  0  0  0
    7.6606    4.1297  -10.5699 C   0  0  0  0  0  0  0  0  0  0  0  0
   10.9559    7.6849   -6.6057 C   0  0  0  0  0  0  0  0  0  0  0  0
    8.0094    4.5092   -9.5664 C   0  0  0  0  0  0  0  0  0  0  0  0
    8.3033    4.0627   -8.4980 C   0  0  0  0  0  0  0  0  0  0  0  0
    6.3587    7.1012  -11.0392 O   0  0  0  0  0  0  0  0  0  0  0  0
   11.1885    8.2709   -5.2029 C   0  0  0  0  0  0  0  0  0  0  0  0
    8.1551    5.8688  -10.2415 C   0  0  1  0  0  0  0  0  0  0  0  0
    9.3562    2.8931  -13.4173 C   0  0  0  0  0  0  0  0  0  0  0  0
    9.4006    1.8057  -13.6789 O   0  0  0  0  0  0  0  0  0  0  0  0
   10.6448    3.9324  -15.2556 C   0  0  0  0  0  0  0  0  0  0  0  0
    9.9004    6.8953   -6.7235 C   0  0  0  0  0  0  0  0  0  0  0  0
    8.1584    4.7418   -7.5351 O   0  0  0  0  0  0  0  0  0  0  0  0
    8.5999    2.9050   -8.2804 O   0  0  0  0  0  0  0  0  0  0  0  0
   11.6420    7.3504   -4.2035 C   0  0  0  0  0  0  0  0  0  0  0  0
    9.6081    6.4128   -8.0398 C   0  0  1  0  0  0  0  0  0  0  0  0
    8.3828    5.9446   -7.9275 C   0  0  1  0  0  0  0  0  0  0  0  0
   11.1933    9.6919   -4.9542 C   0  0  0  0  0  0  0  0  0  0  0  0
   10.7525   10.6554   -6.1095 F   0  0  0  0  0  0  0  0  0  0  0  0
   11.7302    5.9412   -4.4414 F   0  0  0  0  0  0  0  0  0  0  0  0
   11.9282    7.7409   -2.9586 C   0  0  0  0  0  0  0  0  0  0  0  0
   12.3074    6.8991   -1.8333 C   0  0  0  0  0  0  0  0  0  0  0  0
   11.8763    9.2921   -2.6517 C   0  0  0  0  0  0  0  0  0  0  0  0
   12.2152    9.7279   -1.4571 F   0  0  0  0  0  0  0  0  0  0  0  0
   11.5352   10.1692   -3.7154 C   0  0  0  0  0  0  0  0  0  0  0  0
    8.7294    6.3115   -9.0809 C   0  0  0  0  0  0  0  0  0  0  0  0
  1  2  1  0  0  0  0
  2  3  1  0  0  0  0
  2  7  2  0  0  0  0
  4  3  1  6  0  0  0
  4  5  1  0  0  0  0
  4  6  1  0  0  0  0
  4  8  1  0  0  0  0
  5  9  2  0  0  0  0
  6 13  1  0  0  0  0
  7 12  1  0  0  0  0
  8 19  2  0  0  0  0
 10  7  1  1  0  0  0
 10 14  1  0  0  0  0
 10 17  1  0  0  0  0
 11  8  1  6  0  0  0
 11 20  1  0  0  0  0
 11 32  1  0  0  0  0
 12 18  1  0  0  0  0
 12 30  1  6  0  0  0
 13 16  2  0  0  0  0
 13 21  1  0  0  0  0
 14  5  1  1  0  0  0
 14 15  1  0  0  0  0
 14 20  1  0  0  0  0
 15 33  1  0  0  0  0
 15 35  1  0  0  0  0
 17 18  1  0  0  0  0
 17 23  1  0  0  0  0
 18 25  1  0  0  0  0
 18 26  1  0  0  0  0
 19 21  1  0  0  0  0
 19 40  1  0  0  0  0
 20 23  1  0  0  0  0
 21 22  2  0  0  0  0
 22 27  1  0  0  0  0
 23 24  1  0  0  0  0
 23 33  1  0  0  0  0
 24 26  1  0  0  0  0
 26 28  2  0  0  0  0
 27 31  1  0  0  0  0
 27 36  2  0  0  0  0
 28 29  1  0  0  0  0
 28 32  1  0  0  0  0
 29 37  1  0  0  0  0
 29 38  2  0  0  0  0
 31 39  1  0  0  0  0
 31 42  2  0  0  0  0
 32 50  1  0  0  0  0
 33 34  2  0  0  0  0
 36 40  1  0  0  0  0
 37 41  1  0  0  0  0
 39 44  1  0  0  0  0
 39 45  2  0  0  0  0
 40 41  1  0  0  0  0
 41 50  1  0  0  0  0
 42 43  1  0  0  0  0
 42 49  1  0  0  0  0
 45 46  1  0  0  0  0
 45 47  1  0  0  0  0
 47 48  1  0  0  0  0
 47 49  2  0  0  0  0
M  END
$$$$

 OpenBabel10082411353D

 50 62  0  0  0  0  0  0  0  0999 V2000
    8.0806    9.0240  -12.7589 C   0  0  0  0  0  0  0  0  0  0  0  0
    8.6514    7.8645  -12.2948 C   0  0  0  0  0  0  0  0  0  0  0  0
    9.9575    7.9974  -11.8426 C   0  0  0  0  0  0  0  0  0  0  0  0
   10.7657    6.8667  -11.6050 C   0  0  1  0  0  0  0  0  0  0  0  0
   10.7682    5.9590  -12.8271 C   0  0  0  0  0  0  0  0  0  0  0  0
   12.1553    7.3846  -11.2315 C   0  0  0  0  0  0  0  0  0  0  0  0
    8.0676    6.6451  -12.2974 C   0  0  0  0  0  0  0  0  0  0  0  0
   10.1892    6.1240  -10.3860 C   0  0  0  0  0  0  0  0  0  0  0  0
   11.8375    5.4373  -13.3240 O   0  0  0  0  0  0  0  0  0  0  0  0
    8.6785    5.4761  -13.0273 C   0  0  1  0  0  0  0  0  0  0  0  0
    9.1969    5.2405  -10.4969 C   0  0  2  0  0  0  0  0  0  0  0  0
    7.2213    6.2210  -11.3074 C   0  0  2  0  0  0  0  0  0  0  0  0
   12.5590    7.6872   -9.9896 C   0  0  0  0  0  0  0  0  0  0  0  0
    9.7633    5.0333  -12.9720 C   0  0  1  0  0  0  0  0  0  0  0  0
   10.0661    4.0167  -14.0373 N   0  0  0  0  0  0  0  0  0  0  0  0
   13.6906    8.3004   -9.6233 O   0  0  0  0  0  0  0  0  0  0  0  0
    7.6357    4.5123  -12.6317 C   0  0  2  0  0  0  0  0  0  0  0  0
    6.8831    4.9171  -11.7031 C   0  0  2  0  0  0  0  0  0  0  0  0
   10.5937    6.6967   -9.1779 C   0  0  0  0  0  0  0  0  0  0  0  0
    9.5087    4.3263  -11.6925 C   0  0  2  0  0  0  0  0  0  0  0  0
   11.6359    7.4449   -8.9125 C   0  0  0  0  0  0  0  0  0  0  0  0
   11.9716    7.9159   -7.6200 C   0  0  0  0  0  0  0  0  0  0  0  0
    8.4648    3.6122  -12.2840 C   0  0  1  0  0  0  0  0  0  0  0  0
    7.9253    2.8004  -11.3926 C   0  0  0  0  0  0  0  0  0  0  0  0
    5.6047    4.5059  -11.7589 C   0  0  0  0  0  0  0  0  0  0  0  0
    7.6606    4.1297  -10.5699 C   0  0  0  0  0  0  0  0  0  0  0  0
   10.9559    7.6849   -6.6057 C   0  0  0  0  0  0  0  0  0  0  0  0
    8.0094    4.5092   -9.5664 C   0  0  0  0  0  0  0  0  0  0  0  0
    8.3033    4.0627   -8.4980 C   0  0  0  0  0  0  0  0  0  0  0  0
    6.3587    7.1012  -11.0392 O   0  0  0  0  0  0  0  0  0  0  0  0
   11.0186    3.9598  -14.9226 C   0  0  0  0  0  0  0  0  0  0  0  0
    8.1758    5.8633  -10.2511 C   0  0  1  0  0  0  0  0  0  0  0  0
   11.4648    2.7104  -15.2650 O   0  0  0  0  0  0  0  0  0  0  0  0
    9.9512    6.8220   -6.8436 C   0  0  0  0  0  0  0  0  0  0  0  0
    9.6899    6.3705   -8.1082 C   0  0  2  0  0  0  0  0  0  0  0  0
   11.2597    8.2901   -5.2396 C   0  0  0  0  0  0  0  0  0  0  0  0
   11.6068    9.7354   -5.2006 C   0  0  0  0  0  0  0  0  0  0  0  0
   10.9469    4.9352  -15.8306 C   0  0  0  0  0  0  0  0  0  0  0  0
    9.2417    4.9555   -7.8256 C   0  0  0  0  0  0  0  0  0  0  0  0
   11.3657    7.7043   -4.0379 C   0  0  0  0  0  0  0  0  0  0  0  0
   11.4469   10.6225   -6.4157 C   0  0  0  0  0  0  0  0  0  0  0  0
   11.9077   10.2897   -3.9889 C   0  0  0  0  0  0  0  0  0  0  0  0
   11.9472    9.5143   -2.8307 C   0  0  0  0  0  0  0  0  0  0  0  0
    9.3030    2.8335  -13.6243 C   0  0  0  0  0  0  0  0  0  0  0  0
   11.0706    6.0966   -4.1041 S   0  0  0  0  0  0  0  0  0  0  0  0
   11.7343    8.3349   -3.0045 C   0  0  0  0  0  0  0  0  0  0  0  0
   12.1398    5.5239   -4.8589 O   0  0  0  0  0  0  0  0  0  0  0  0
   11.2273    5.7924   -2.5132 O   0  0  0  0  0  0  0  0  0  0  0  0
    9.7296    5.7465   -4.5156 C   0  0  0  0  0  0  0  0  0  0  0  0
    9.5337    6.0396   -5.6465 C   0  0  0  0  0  0  0  0  0  0  0  0
  1  2  1  0  0  0  0
  2  3  1  0  0  0  0
  2  7  2  0  0  0  0
  4  3  1  6  0  0  0
  4  5  1  0  0  0  0
  4  6  1  0  0  0  0
  4  8  1  0  0  0  0
  5  9  2  0  0  0  0
  6 13  1  0  0  0  0
  7 12  1  0  0  0  0
  8 19  2  0  0  0  0
 10  7  1  1  0  0  0
 10 14  1  0  0  0  0
 10 17  1  0  0  0  0
 11  8  1  6  0  0  0
 11 20  1  0  0  0  0
 11 32  1  0  0  0  0
 12 18  1  0  0  0  0
 12 30  1  1  0  0  0
 12 32  1  0  0  0  0
 13 16  2  0  0  0  0
 13 21  1  0  0  0  0
 14  5  1  1  0  0  0
 14 15  1  0  0  0  0
 14 20  1  0  0  0  0
 15 31  1  0  0  0  0
 15 44  1  0  0  0  0
 17 18  1  0  0  0  0
 17 23  1  0  0  0  0
 18 25  1  0  0  0  0
 18 26  1  0  0  0  0
 19 21  1  0  0  0  0
 19 35  1  0  0  0  0
 20 23  1  0  0  0  0
 21 22  2  0  0  0  0
 22 27  1  0  0  0  0
 23 24  1  0  0  0  0
 23 44  1  0  0  0  0
 24 26  1  0  0  0  0
 26 28  2  0  0  0  0
 27 34  2  0  0  0  0
 27 36  1  0  0  0  0
 28 29  1  0  0  0  0
 28 32  1  0  0  0  0
 29 39  2  0  0  0  0
 31 33  2  0  0  0  0
 31 38  1  0  0  0  0
 34 35  1  0  0  0  0
 34 50  1  0  0  0  0
 35 39  1  0  0  0  0
 36 37  1  0  0  0  0
 36 40  2  0  0  0  0
 37 41  1  0  0  0  0
 37 42  2  0  0  0  0
 40 45  1  0  0  0  0
 40 46  1  0  0  0  0
 42 43  1  0  0  0  0
 43 46  2  0  0  0  0
 45 47  2  0  0  0  0
 45 48  2  0  0  0  0
 45 49  1  0  0  0  0
 49 50  2  0  0  0  0
M  END
$$$$

 OpenBabel10082411353D

 50 61  0  0  0  0  0  0  0  0999 V2000
    8.0806    9.0240  -12.7589 C   0  0  0  0  0  0  0  0  0  0  0  0
    8.6514    7.8645  -12.2948 C   0  0  0  0  0  0  0  0  0  0  0  0
    9.9575    7.9974  -11.8426 C   0  0  0  0  0  0  0  0  0  0  0  0
   10.7657    6.8667  -11.6050 C   0  0  1  0  0  0  0  0  0  0  0  0
   10.7682    5.9590  -12.8271 C   0  0  0  0  0  0  0  0  0  0  0  0
   12.1553    7.3846  -11.2315 C   0  0  0  0  0  0  0  0  0  0  0  0
    8.0676    6.6451  -12.2974 C   0  0  0  0  0  0  0  0  0  0  0  0
   10.1892    6.1240  -10.3860 C   0  0  0  0  0  0  0  0  0  0  0  0
   11.8375    5.4373  -13.3240 O   0  0  0  0  0  0  0  0  0  0  0  0
    8.6785    5.4761  -13.0273 C   0  0  1  0  0  0  0  0  0  0  0  0
    9.1969    5.2405  -10.4969 C   0  0  2  0  0  0  0  0  0  0  0  0
    7.2213    6.2210  -11.3074 C   0  0  2  0  0  0  0  0  0  0  0  0
   12.5590    7.6872   -9.9896 C   0  0  0  0  0  0  0  0  0  0  0  0
    9.7633    5.0333  -12.9720 C   0  0  1  0  0  0  0  0  0  0  0  0
   10.0661    4.0167  -14.0373 N   0  0  0  0  0  0  0  0  0  0  0  0
   13.6906    8.3004   -9.6233 O   0  0  0  0  0  0  0  0  0  0  0  0
    7.6357    4.5123  -12.6317 C   0  0  2  0  0  0  0  0  0  0  0  0
    6.8831    4.9171  -11.7031 C   0  0  2  0  0  0  0  0  0  0  0  0
   10.5937    6.6967   -9.1779 C   0  0  0  0  0  0  0  0  0  0  0  0
    9.5087    4.3263  -11.6925 C   0  0  2  0  0  0  0  0  0  0  0  0
   11.6359    7.4449   -8.9125 C   0  0  0  0  0  0  0  0  0  0  0  0
   11.9716    7.9159   -7.6200 C   0  0  0  0  0  0  0  0  0  0  0  0
    8.4648    3.6122  -12.2840 C   0  0  1  0  0  0  0  0  0  0  0  0
    7.9253    2.8004  -11.3926 C   0  0  0  0  0  0  0  0  0  0  0  0
    5.6047    4.5059  -11.7589 C   0  0  0  0  0  0  0  0  0  0  0  0
    7.6606    4.1297  -10.5699 C   0  0  0  0  0  0  0  0  0  0  0  0
   10.9559    7.6849   -6.6057 C   0  0  0  0  0  0  0  0  0  0  0  0
    8.0094    4.5092   -9.5664 C   0  0  0  0  0  0  0  0  0  0  0  0
    8.3033    4.0627   -8.4980 C   0  0  0  0  0  0  0  0  0  0  0  0
    6.3587    7.1012  -11.0392 O   0  0  0  0  0  0  0  0  0  0  0  0
   11.1885    8.2709   -5.2029 C   0  0  0  0  0  0  0  0  0  0  0  0
    8.1551    5.8688  -10.2415 C   0  0  0  0  0  0  0  0  0  0  0  0
    9.3562    2.8931  -13.4173 C   0  0  0  0  0  0  0  0  0  0  0  0
    9.4006    1.8057  -13.6789 O   0  0  0  0  0  0  0  0  0  0  0  0
   10.6448    3.9324  -15.2556 C   0  0  0  0  0  0  0  0  0  0  0  0
    9.9004    6.8953   -6.7235 C   0  0  0  0  0  0  0  0  0  0  0  0
    8.1584    4.7418   -7.5351 O   0  0  0  0  0  0  0  0  0  0  0  0
    8.5999    2.9050   -8.2804 O   0  0  0  0  0  0  0  0  0  0  0  0
   11.6420    7.3504   -4.2035 C   0  0  0  0  0  0  0  0  0  0  0  0
    9.6081    6.4128   -8.0398 C   0  0  2  0  0  0  0  0  0  0  0  0
    8.3828    5.9446   -7.9275 C   0  0  1  0  0  0  0  0  0  0  0  0
   11.1933    9.6919   -4.9542 C   0  0  0  0  0  0  0  0  0  0  0  0
   10.7525   10.6554   -6.1095 F   0  0  0  0  0  0  0  0  0  0  0  0
   11.7302    5.9412   -4.4414 F   0  0  0  0  0  0  0  0  0  0  0  0
   11.9282    7.7409   -2.9586 C   0  0  0  0  0  0  0  0  0  0  0  0
   12.3074    6.8991   -1.8333 C   0  0  0  0  0  0  0  0  0  0  0  0
   11.8763    9.2921   -2.6517 C   0  0  0  0  0  0  0  0  0  0  0  0
   12.2152    9.7279   -1.4571 F   0  0  0  0  0  0  0  0  0  0  0  0
   11.5319   10.1378   -3.6937 C   0  0  0  0  0  0  0  0  0  0  0  0
    8.7289    6.3116   -9.0807 C   0  0  0  0  0  0  0  0  0  0  0  0
  1  2  1  0  0  0  0
  2  3  1  0  0  0  0
  2  7  2  0  0  0  0
  4  3  1  6  0  0  0
  4  5  1  0  0  0  0
  4  6  1  0  0  0  0
  4  8  1  0  0  0  0
  5  9  2  0  0  0  0
  6 13  1  0  0  0  0
  7 12  1  0  0  0  0
  8 11  1  0  0  0  0
  8 19  2  0  0  0  0
 10  7  1  1  0  0  0
 10 14  1  0  0  0  0
 10 17  1  0  0  0  0
 11 20  1  0  0  0  0
 11 32  1  6  0  0  0
 12 18  1  0  0  0  0
 12 30  1  6  0  0  0
 13 16  2  0  0  0  0
 13 21  1  0  0  0  0
 14  5  1  1  0  0  0
 14 15  1  0  0  0  0
 14 20  1  0  0  0  0
 15 33  1  0  0  0  0
 15 35  1  0  0  0  0
 17 18  1  0  0  0  0
 17 23  1  0  0  0  0
 18 25  1  0  0  0  0
 18 26  1  0  0  0  0
 19 21  1  0  0  0  0
 19 40  1  0  0  0  0
 20 23  1  0  0  0  0
 21 22  2  0  0  0  0
 22 27  1  0  0  0  0
 23 24  1  0  0  0  0
 23 33  1  0  0  0  0
 24 26  1  0  0  0  0
 26 28  2  0  0  0  0
 27 31  1  0  0  0  0
 27 36  2  0  0  0  0
 28 29  1  0  0  0  0
 28 32  1  0  0  0  0
 29 37  1  0  0  0  0
 29 38  2  0  0  0  0
 31 39  1  0  0  0  0
 31 42  2  0  0  0  0
 33 34  2  0  0  0  0
 36 40  1  0  0  0  0
 37 41  1  0  0  0  0
 39 44  1  0  0  0  0
 39 45  2  0  0  0  0
 40 41  1  0  0  0  0
 40 50  1  0  0  0  0
 41 50  1  0  0  0  0
 42 43  1  0  0  0  0
 42 49  1  0  0  0  0
 45 46  1  0  0  0  0
 45 47  1  0  0  0  0
 47 48  1  0  0  0  0
 47 49  2  0  0  0  0
M  END
$$$$

 OpenBabel10082411353D

 51 64  0  0  0  0  0  0  0  0999 V2000
    8.0806    9.0240  -12.7589 C   0  0  0  0  0  0  0  0  0  0  0  0
    8.6514    7.8645  -12.2948 C   0  0  0  0  0  0  0  0  0  0  0  0
    9.9575    7.9974  -11.8426 C   0  0  0  0  0  0  0  0  0  0  0  0
   10.7657    6.8667  -11.6050 C   0  0  1  0  0  0  0  0  0  0  0  0
   10.7682    5.9590  -12.8271 C   0  0  0  0  0  0  0  0  0  0  0  0
   12.1553    7.3846  -11.2315 C   0  0  0  0  0  0  0  0  0  0  0  0
    8.0676    6.6451  -12.2974 C   0  0  0  0  0  0  0  0  0  0  0  0
   10.1892    6.1240  -10.3860 C   0  0  0  0  0  0  0  0  0  0  0  0
   11.8375    5.4373  -13.3240 O   0  0  0  0  0  0  0  0  0  0  0  0
    8.6785    5.4761  -13.0273 C   0  0  1  0  0  0  0  0  0  0  0  0
    9.1969    5.2405  -10.4969 C   0  0  2  0  0  0  0  0  0  0  0  0
    7.2213    6.2210  -11.3074 C   0  0  2  0  0  0  0  0  0  0  0  0
   12.5590    7.6872   -9.9896 C   0  0  0  0  0  0  0  0  0  0  0  0
    9.7633    5.0333  -12.9720 C   0  0  1  0  0  0  0  0  0  0  0  0
   10.0661    4.0167  -14.0373 N   0  0  0  0  0  0  0  0  0  0  0  0
   13.6906    8.3004   -9.6233 O   0  0  0  0  0  0  0  0  0  0  0  0
    7.6357    4.5123  -12.6317 C   0  0  2  0  0  0  0  0  0  0  0  0
    6.8831    4.9171  -11.7031 C   0  0  2  0  0  0  0  0  0  0  0  0
   10.5937    6.6967   -9.1779 C   0  0  0  0  0  0  0  0  0  0  0  0
    9.5087    4.3263  -11.6925 C   0  0  2  0  0  0  0  0  0  0  0  0
   11.6359    7.4449   -8.9125 C   0  0  0  0  0  0  0  0  0  0  0  0
   11.9716    7.9159   -7.6200 C   0  0  0  0  0  0  0  0  0  0  0  0
    8.4648    3.6122  -12.2840 C   0  0  1  0  0  0  0  0  0  0  0  0
    7.9253    2.8004  -11.3926 C   0  0  0  0  0  0  0  0  0  0  0  0
    5.6047    4.5059  -11.7589 C   0  0  0  0  0  0  0  0  0  0  0  0
    7.6606    4.1297  -10.5699 C   0  0  0  0  0  0  0  0  0  0  0  0
   10.9559    7.6849   -6.6057 C   0  0  0  0  0  0  0  0  0  0  0  0
    8.0094    4.5092   -9.5664 C   0  0  0  0  0  0  0  0  0  0  0  0
    8.3033    4.0627   -8.4980 C   0  0  0  0  0  0  0  0  0  0  0  0
    6.3587    7.1012  -11.0392 O   0  0  0  0  0  0  0  0  0  0  0  0
   11.0186    3.9598  -14.9226 C   0  0  0  0  0  0  0  0  0  0  0  0
    8.1758    5.8633  -10.2511 C   0  0  1  0  0  0  0  0  0  0  0  0
   11.4648    2.7104  -15.2650 O   0  0  0  0  0  0  0  0  0  0  0  0
    9.9512    6.8220   -6.8436 C   0  0  0  0  0  0  0  0  0  0  0  0
    9.6899    6.3705   -8.1082 C   0  0  2  0  0  0  0  0  0  0  0  0
   11.2597    8.2901   -5.2396 C   0  0  0  0  0  0  0  0  0  0  0  0
   11.6068    9.7354   -5.2006 C   0  0  0  0  0  0  0  0  0  0  0  0
   10.9469    4.9352  -15.8306 C   0  0  0  0  0  0  0  0  0  0  0  0
    9.2417    4.9555   -7.8256 C   0  0  0  0  0  0  0  0  0  0  0  0
   11.3657    7.7043   -4.0379 C   0  0  0  0  0  0  0  0  0  0  0  0
   11.4469   10.6225   -6.4157 C   0  0  0  0  0  0  0  0  0  0  0  0
   11.9077   10.2897   -3.9889 C   0  0  0  0  0  0  0  0  0  0  0  0
   11.9472    9.5143   -2.8307 C   0  0  0  0  0  0  0  0  0  0  0  0
    9.3030    2.8335  -13.6243 C   0  0  0  0  0  0  0  0  0  0  0  0
   11.0706    6.0966   -4.1041 S   0  0  0  0  0  0  0  0  0  0  0  0
   11.7343    8.3349   -3.0045 C   0  0  0  0  0  0  0  0  0  0  0  0
   12.1398    5.5239   -4.8589 O   0  0  0  0  0  0  0  0  0  0  0  0
   11.2273    5.7924   -2.5132 O   0  0  0  0  0  0  0  0  0  0  0  0
    9.7296    5.7465   -4.5156 C   0  0  0  0  0  0  0  0  0  0  0  0
    9.5337    6.0396   -5.6465 C   0  0  2  0  0  0  0  0  0  0  0  0
    9.2201    4.7324   -6.3219 C   0  0  0  0  0  0  0  0  0  0  0  0
  1  2  1  0  0  0  0
  2  3  1  0  0  0  0
  2  7  2  0  0  0  0
  4  3  1  6  0  0  0
  4  5  1  0  0  0  0
  4  6  1  0  0  0  0
  4  8  1  0  0  0  0
  5  9  2  0  0  0  0
  6 13  1  0  0  0  0
  7 12  1  0  0  0  0
  8 19  2  0  0  0  0
 10  7  1  1  0  0  0
 10 14  1  0  0  0  0
 10 17  1  0  0  0  0
 11  8  1  6  0  0  0
 11 20  1  0  0  0  0
 11 32  1  0  0  0  0
 12 18  1  0  0  0  0
 12 30  1  1  0  0  0
 12 32  1  0  0  0  0
 13 16  2  0  0  0  0
 13 21  1  0  0  0  0
 14  5  1  1  0  0  0
 14 15  1  0  0  0  0
 14 20  1  0  0  0  0
 15 31  1  0  0  0  0
 15 44  1  0  0  0  0
 17 18  1  0  0  0  0
 17 23  1  0  0  0  0
 18 25  1  0  0  0  0
 18 26  1  0  0  0  0
 19 21  1  0  0  0  0
 19 35  1  0  0  0  0
 20 23  1  0  0  0  0
 21 22  2  0  0  0  0
 22 27  1  0  0  0  0
 23 24  1  0  0  0  0
 23 44  1  0  0  0  0
 24 26  1  0  0  0  0
 26 28  2  0  0  0  0
 27 34  2  0  0  0  0
 27 36  1  0  0  0  0
 28 29  1  0  0  0  0
 28 32  1  0  0  0  0
 29 39  2  0  0  0  0
 31 33  2  0  0  0  0
 31 38  1  0  0  0  0
 34 35  1  0  0  0  0
 34 50  1  0  0  0  0
 35 39  1  0  0  0  0
 36 37  1  0  0  0  0
 36 40  2  0  0  0  0
 37 41  1  0  0  0  0
 37 42  2  0  0  0  0
 39 51  1  0  0  0  0
 40 45  1  0  0  0  0
 40 46  1  0  0  0  0
 42 43  1  0  0  0  0
 43 46  2  0  0  0  0
 45 47  2  0  0  0  0
 45 48  2  0  0  0  0
 45 49  1  0  0  0  0
 49 50  1  0  0  0  0
 50 51  1  0  0  0  0
M  END
$$$$

 OpenBabel10082411353D

 51 63  0  0  0  0  0  0  0  0999 V2000
    8.0806    9.0240  -12.7589 C   0  0  0  0  0  0  0  0  0  0  0  0
    8.6514    7.8645  -12.2948 C   0  0  0  0  0  0  0  0  0  0  0  0
    9.9575    7.9974  -11.8426 C   0  0  0  0  0  0  0  0  0  0  0  0
   10.7657    6.8667  -11.6050 C   0  0  1  0  0  0  0  0  0  0  0  0
   10.7682    5.9590  -12.8271 C   0  0  0  0  0  0  0  0  0  0  0  0
   12.1553    7.3846  -11.2315 C   0  0  0  0  0  0  0  0  0  0  0  0
    8.0676    6.6451  -12.2974 C   0  0  0  0  0  0  0  0  0  0  0  0
   10.1892    6.1240  -10.3860 C   0  0  0  0  0  0  0  0  0  0  0  0
   11.8375    5.4373  -13.3240 O   0  0  0  0  0  0  0  0  0  0  0  0
    8.6785    5.4761  -13.0273 C   0  0  1  0  0  0  0  0  0  0  0  0
    9.1969    5.2405  -10.4969 C   0  0  2  0  0  0  0  0  0  0  0  0
    7.2213    6.2210  -11.3074 C   0  0  2  0  0  0  0  0  0  0  0  0
   12.5590    7.6872   -9.9896 C   0  0  0  0  0  0  0  0  0  0  0  0
    9.7633    5.0333  -12.9720 C   0  0  1  0  0  0  0  0  0  0  0  0
   10.0661    4.0167  -14.0373 N   0  0  0  0  0  0  0  0  0  0  0  0
   13.6906    8.3004   -9.6233 O   0  0  0  0  0  0  0  0  0  0  0  0
    7.6357    4.5123  -12.6317 C   0  0  2  0  0  0  0  0  0  0  0  0
    6.8831    4.9171  -11.7031 C   0  0  2  0  0  0  0  0  0  0  0  0
   10.5937    6.6967   -9.1779 C   0  0  0  0  0  0  0  0  0  0  0  0
    9.5087    4.3263  -11.6925 C   0  0  2  0  0  0  0  0  0  0  0  0
   11.6359    7.4449   -8.9125 C   0  0  0  0  0  0  0  0  0  0  0  0
   11.9716    7.9159   -7.6200 C   0  0  0  0  0  0  0  0  0  0  0  0
    8.4648    3.6122  -12.2840 C   0  0  1  0  0  0  0  0  0  0  0  0
    7.9253    2.8004  -11.3926 C   0  0  0  0  0  0  0  0  0  0  0  0
    5.6047    4.5059  -11.7589 C   0  0  0  0  0  0  0  0  0  0  0  0
    7.6606    4.1297  -10.5699 C   0  0  0  0  0  0  0  0  0  0  0  0
   10.9559    7.6849   -6.6057 C   0  0  0  0  0  0  0  0  0  0  0  0
    8.0094    4.5092   -9.5664 C   0  0  0  0  0  0  0  0  0  0  0  0
    8.3033    4.0627   -8.4980 C   0  0  0  0  0  0  0  0  0  0  0  0
    6.3587    7.1012  -11.0392 O   0  0  0  0  0  0  0  0  0  0  0  0
   11.0186    3.9598  -14.9226 C   0  0  0  0  0  0  0  0  0  0  0  0
    8.1758    5.8633  -10.2511 C   0  0  1  0  0  0  0  0  0  0  0  0
   11.4648    2.7104  -15.2650 O   0  0  0  0  0  0  0  0  0  0  0  0
    9.9512    6.8220   -6.8436 C   0  0  0  0  0  0  0  0  0  0  0  0
    9.6899    6.3705   -8.1082 C   0  0  2  0  0  0  0  0  0  0  0  0
   11.2597    8.2901   -5.2396 C   0  0  0  0  0  0  0  0  0  0  0  0
   11.6068    9.7354   -5.2006 C   0  0  0  0  0  0  0  0  0  0  0  0
   10.9469    4.9352  -15.8306 C   0  0  0  0  0  0  0  0  0  0  0  0
    9.2417    4.9555   -7.8256 C   0  0  0  0  0  0  0  0  0  0  0  0
   11.3657    7.7043   -4.0379 C   0  0  0  0  0  0  0  0  0  0  0  0
    9.3036    2.8311  -13.6285 C   0  0  0  0  0  0  0  0  0  0  0  0
   11.4466   10.6213   -6.4141 C   0  0  0  0  0  0  0  0  0  0  0  0
   11.7652   10.0517   -3.9940 C   0  0  0  0  0  0  0  0  0  0  0  0
   11.8959    9.5083   -2.8248 C   0  0  0  0  0  0  0  0  0  0  0  0
   11.0755    6.0368   -4.1516 S   0  0  0  0  0  0  0  0  0  0  0  0
   11.7806    8.1542   -2.7730 C   0  0  0  0  0  0  0  0  0  0  0  0
   12.0908    5.5103   -4.9828 O   0  0  0  0  0  0  0  0  0  0  0  0
    9.7712    5.6609   -4.5901 O   0  0  0  0  0  0  0  0  0  0  0  0
   11.2045    5.6549   -2.4614 C   0  0  0  0  0  0  0  0  0  0  0  0
   10.7819    6.6260   -1.6716 C   0  0  0  0  0  0  0  0  0  0  0  0
   11.9884    7.4908   -1.6183 C   0  0  0  0  0  0  0  0  0  0  0  0
  1  2  1  0  0  0  0
  2  3  1  0  0  0  0
  2  7  2  0  0  0  0
  4  3  1  6  0  0  0
  4  5  1  0  0  0  0
  4  6  1  0  0  0  0
  4  8  1  0  0  0  0
  5  9  2  0  0  0  0
  6 13  1  0  0  0  0
  7 12  1  0  0  0  0
  8 19  2  0  0  0  0
 10  7  1  1  0  0  0
 10 14  1  0  0  0  0
 10 17  1  0  0  0  0
 11  8  1  6  0  0  0
 11 20  1  0  0  0  0
 11 32  1  0  0  0  0
 12 18  1  0  0  0  0
 12 30  1  1  0  0  0
 12 32  1  0  0  0  0
 13 16  2  0  0  0  0
 13 21  1  0  0  0  0
 14  5  1  1  0  0  0
 14 15  1  0  0  0  0
 14 20  1  0  0  0  0
 15 31  1  0  0  0  0
 15 41  1  0  0  0  0
 17 18  1  0  0  0  0
 17 23  1  0  0  0  0
 18 25  1  0  0  0  0
 18 26  1  0  0  0  0
 19 21  1  0  0  0  0
 19 35  1  0  0  0  0
 20 23  1  0  0  0  0
 21 22  2  0  0  0  0
 22 27  1  0  0  0  0
 23 24  1  0  0  0  0
 23 41  1  0  0  0  0
 24 26  1  0  0  0  0
 26 28  2  0  0  0  0
 27 34  2  0  0  0  0
 27 36  1  0  0  0  0
 28 29  1  0  0  0  0
 28 32  1  0  0  0  0
 29 39  2  0  0  0  0
 31 33  2  0  0  0  0
 31 38  1  0  0  0  0
 34 35  1  0  0  0  0
 35 39  1  0  0  0  0
 36 37  1  0  0  0  0
 36 40  2  0  0  0  0
 37 42  1  0  0  0  0
 37 43  2  0  0  0  0
 40 45  1  0  0  0  0
 40 46  1  0  0  0  0
 43 44  1  0  0  0  0
 44 46  2  0  0  0  0
 45 47  2  0  0  0  0
 45 48  2  0  0  0  0
 45 49  1  0  0  0  0
 46 51  1  0  0  0  0
 49 50  1  0  0  0  0
 50 51  1  0  0  0  0
M  END
$$$$

 OpenBabel10082411353D

 51 63  0  0  0  0  0  0  0  0999 V2000
    8.0806    9.0240  -12.7589 C   0  0  0  0  0  0  0  0  0  0  0  0
    8.6514    7.8645  -12.2948 C   0  0  0  0  0  0  0  0  0  0  0  0
    9.9575    7.9974  -11.8426 C   0  0  0  0  0  0  0  0  0  0  0  0
   10.7657    6.8667  -11.6050 C   0  0  1  0  0  0  0  0  0  0  0  0
   10.7682    5.9590  -12.8271 C   0  0  0  0  0  0  0  0  0  0  0  0
   12.1553    7.3846  -11.2315 C   0  0  0  0  0  0  0  0  0  0  0  0
    8.0676    6.6451  -12.2974 C   0  0  0  0  0  0  0  0  0  0  0  0
   10.1892    6.1240  -10.3860 C   0  0  0  0  0  0  0  0  0  0  0  0
   11.8375    5.4373  -13.3240 O   0  0  0  0  0  0  0  0  0  0  0  0
    8.6785    5.4761  -13.0273 C   0  0  1  0  0  0  0  0  0  0  0  0
    9.1969    5.2405  -10.4969 C   0  0  2  0  0  0  0  0  0  0  0  0
    7.2213    6.2210  -11.3074 C   0  0  2  0  0  0  0  0  0  0  0  0
   12.5590    7.6872   -9.9896 C   0  0  0  0  0  0  0  0  0  0  0  0
    9.7633    5.0333  -12.9720 C   0  0  1  0  0  0  0  0  0  0  0  0
   10.0661    4.0167  -14.0373 N   0  0  0  0  0  0  0  0  0  0  0  0
   13.6906    8.3004   -9.6233 O   0  0  0  0  0  0  0  0  0  0  0  0
    7.6357    4.5123  -12.6317 C   0  0  2  0  0  0  0  0  0  0  0  0
    6.8831    4.9171  -11.7031 C   0  0  2  0  0  0  0  0  0  0  0  0
   10.5937    6.6967   -9.1779 C   0  0  0  0  0  0  0  0  0  0  0  0
    9.5087    4.3263  -11.6925 C   0  0  2  0  0  0  0  0  0  0  0  0
   11.6359    7.4449   -8.9125 C   0  0  0  0  0  0  0  0  0  0  0  0
   11.9716    7.9159   -7.6200 C   0  0  0  0  0  0  0  0  0  0  0  0
    8.4648    3.6122  -12.2840 C   0  0  1  0  0  0  0  0  0  0  0  0
    7.9253    2.8004  -11.3926 C   0  0  0  0  0  0  0  0  0  0  0  0
    5.6047    4.5059  -11.7589 C   0  0  0  0  0  0  0  0  0  0  0  0
    7.6606    4.1297  -10.5699 C   0  0  0  0  0  0  0  0  0  0  0  0
   10.9559    7.6849   -6.6057 C   0  0  0  0  0  0  0  0  0  0  0  0
    8.0094    4.5092   -9.5664 C   0  0  0  0  0  0  0  0  0  0  0  0
    8.3033    4.0627   -8.4980 C   0  0  0  0  0  0  0  0  0  0  0  0
    6.3587    7.1012  -11.0392 O   0  0  0  0  0  0  0  0  0  0  0  0
   11.0186    3.9598  -14.9226 C   0  0  0  0  0  0  0  0  0  0  0  0
    8.1758    5.8633  -10.2511 C   0  0  1  0  0  0  0  0  0  0  0  0
   11.4648    2.7104  -15.2650 O   0  0  0  0  0  0  0  0  0  0  0  0
    9.9512    6.8220   -6.8436 C   0  0  0  0  0  0  0  0  0  0  0  0
    9.6899    6.3705   -8.1082 C   0  0  2  0  0  0  0  0  0  0  0  0
   11.2597    8.2901   -5.2396 C   0  0  0  0  0  0  0  0  0  0  0  0
   11.6068    9.7354   -5.2006 C   0  0  0  0  0  0  0  0  0  0  0  0
   10.9469    4.9352  -15.8306 C   0  0  0  0  0  0  0  0  0  0  0  0
    9.2417    4.9555   -7.8256 C   0  0  0  0  0  0  0  0  0  0  0  0
   11.3657    7.7043   -4.0379 C   0  0  0  0  0  0  0  0  0  0  0  0
    9.3036    2.8311  -13.6285 C   0  0  0  0  0  0  0  0  0  0  0  0
   11.4466   10.6213   -6.4141 C   0  0  0  0  0  0  0  0  0  0  0  0
   11.7652   10.0517   -3.9940 C   0  0  0  0  0  0  0  0  0  0  0  0
   11.8959    9.5083   -2.8248 C   0  0  0  0  0  0  0  0  0  0  0  0
   11.0755    6.0368   -4.1516 S   0  0  0  0  0  0  0  0  0  0  0  0
   11.7806    8.1542   -2.7730 C   0  0  0  0  0  0  0  0  0  0  0  0
   12.0908    5.5103   -4.9828 O   0  0  0  0  0  0  0  0  0  0  0  0
    9.7712    5.6609   -4.5901 O   0  0  0  0  0  0  0  0  0  0  0  0
   11.2045    5.6549   -2.4614 C   0  0  0  0  0  0  0  0  0  0  0  0
   11.7642    6.4399   -1.5971 C   0  0  0  0  0  0  0  0  0  0  0  0
   12.0172    7.6723   -1.6767 C   0  0  0  0  0  0  0  0  0  0  0  0
  1  2  1  0  0  0  0
  2  3  1  0  0  0  0
  2  7  2  0  0  0  0
  4  3  1  6  0  0  0
  4  5  1  0  0  0  0
  4  6  1  0  0  0  0
  4  8  1  0  0  0  0
  5  9  2  0  0  0  0
  6 13  1  0  0  0  0
  7 12  1  0  0  0  0
  8 19  2  0  0  0  0
 10  7  1  1  0  0  0
 10 14  1  0  0  0  0
 10 17  1  0  0  0  0
 11  8  1  6  0  0  0
 11 20  1  0  0  0  0
 11 32  1  0  0  0  0
 12 18  1  0  0  0  0
 12 30  1  1  0  0  0
 12 32  1  0  0  0  0
 13 16  2  0  0  0  0
 13 21  1  0  0  0  0
 14  5  1  1  0  0  0
 14 15  1  0  0  0  0
 14 20  1  0  0  0  0
 15 31  1  0  0  0  0
 15 41  1  0  0  0  0
 17 18  1  0  0  0  0
 17 23  1  0  0  0  0
 18 25  1  0  0  0  0
 18 26  1  0  0  0  0
 19 21  1  0  0  0  0
 19 35  1  0  0  0  0
 20 23  1  0  0  0  0
 21 22  2  0  0  0  0
 22 27  1  0  0  0  0
 23 24  1  0  0  0  0
 23 41  1  0  0  0  0
 24 26  1  0  0  0  0
 26 28  2  0  0  0  0
 27 34  2  0  0  0  0
 27 36  1  0  0  0  0
 28 29  1  0  0  0  0
 28 32  1  0  0  0  0
 29 39  2  0  0  0  0
 31 33  2  0  0  0  0
 31 38  1  0  0  0  0
 34 35  1  0  0  0  0
 35 39  1  0  0  0  0
 36 37  1  0  0  0  0
 36 40  2  0  0  0  0
 37 42  1  0  0  0  0
 37 43  2  0  0  0  0
 40 45  1  0  0  0  0
 40 46  1  0  0  0  0
 43 44  1  0  0  0  0
 44 46  2  0  0  0  0
 45 47  2  0  0  0  0
 45 48  2  0  0  0  0
 45 49  1  0  0  0  0
 46 51  1  0  0  0  0
 49 50  1  0  0  0  0
 50 51  2  0  0  0  0
M  END
$$$$

 OpenBabel10082411353D

 28 31  0  0  0  0  0  0  0  0999 V2000
   12.7863    7.8241  -14.2109 C   0  0  0  0  0  0  0  0  0  0  0  0
   12.4233    7.7158  -13.0289 C   0  0  0  0  0  0  0  0  0  0  0  0
   12.9219    8.1949  -11.8668 C   0  0  0  0  0  0  0  0  0  0  0  0
   11.4275    6.6086  -12.7931 C   0  0  0  0  0  0  0  0  0  0  0  0
   10.3411    6.8404  -12.0679 C   0  0  0  0  0  0  0  0  0  0  0  0
   10.7226    7.4332  -10.7281 C   0  0  0  0  0  0  0  0  0  0  0  0
    9.0684    5.8539  -11.9851 C   0  0  0  0  0  0  0  0  0  0  0  0
    9.8080    7.4062   -9.6015 C   0  0  0  0  0  0  0  0  0  0  0  0
   11.9300    8.1400  -10.6702 C   0  0  0  0  0  0  0  0  0  0  0  0
   11.0289    6.0120  -14.2884 C   0  0  0  0  0  0  0  0  0  0  0  0
    9.9681    6.1425   -8.6941 C   0  0  0  0  0  0  0  0  0  0  0  0
    7.9946    6.5885  -12.1474 C   0  0  0  0  0  0  0  0  0  0  0  0
   10.2822    6.4890   -7.2771 C   0  0  0  0  0  0  0  0  0  0  0  0
   11.5540    6.8919   -6.8963 C   0  0  0  0  0  0  0  0  0  0  0  0
   11.8977    7.2299   -5.5785 C   0  0  0  0  0  0  0  0  0  0  0  0
   11.9395    6.5440  -15.2769 C   0  0  0  0  0  0  0  0  0  0  0  0
    6.8195    5.8154  -12.4332 C   0  0  0  0  0  0  0  0  0  0  0  0
    9.1018    4.4928  -12.2349 C   0  0  0  0  0  0  0  0  0  0  0  0
    7.8393    8.0280  -12.0617 O   0  0  0  0  0  0  0  0  0  0  0  0
    6.5522    8.5841  -12.4171 C   0  0  0  0  0  0  0  0  0  0  0  0
    8.0414    3.8199  -12.3660 C   0  0  0  0  0  0  0  0  0  0  0  0
    6.9185    4.4293  -12.5299 C   0  0  0  0  0  0  0  0  0  0  0  0
    5.5548    3.6510  -12.7065 C   0  0  0  0  0  0  0  0  0  0  0  0
   11.8545    6.3601   -4.6291 C   0  0  0  0  0  0  0  0  0  0  0  0
   12.3635    8.6235   -5.3377 C   0  0  0  0  0  0  0  0  0  0  0  0
   12.7058    8.9820   -4.0760 C   0  0  0  0  0  0  0  0  0  0  0  0
   12.7339    8.0355   -3.0519 C   0  0  0  0  0  0  0  0  0  0  0  0
   12.2673    6.7118   -3.2936 C   0  0  0  0  0  0  0  0  0  0  0  0
  1  2  1  0  0  0  0
  1 16  1  0  0  0  0
  2  3  1  0  0  0  0
  2  4  2  0  0  0  0
  3  9  2  0  0  0  0
  4  5  1  0  0  0  0
  4 10  1  0  0  0  0
  5  6  2  0  0  0  0
  5  7  1  0  0  0  0
  6  8  1  0  0  0  0
  6  9  1  0  0  0  0
  7 12  1  0  0  0  0
  7 18  2  0  0  0  0
  8 11  1  0  0  0  0
 10 16  1  0  0  0  0
 11 13  1  0  0  0  0
 12 17  2  0  0  0  0
 12 19  1  0  0  0  0
 13 14  2  3  0  0  0
 14 15  1  0  0  0  0
 15 24  2  0  0  0  0
 15 25  1  0  0  0  0
 17 22  1  0  0  0  0
 18 21  1  0  0  0  0
 19 20  1  0  0  0  0
 21 22  2  0  0  0  0
 22 23  1  0  0  0  0
 24 28  1  0  0  0  0
 25 26  2  0  0  0  0
 26 27  1  0  0  0  0
 27 28  2  0  0  0  0
M  END
$$$$

 OpenBabel10082411353D

 51 63  0  0  0  0  0  0  0  0999 V2000
    8.0806    9.0240  -12.7589 C   0  0  0  0  0  0  0  0  0  0  0  0
    8.6514    7.8645  -12.2948 C   0  0  0  0  0  0  0  0  0  0  0  0
    9.9575    7.9974  -11.8426 C   0  0  0  0  0  0  0  0  0  0  0  0
   10.7657    6.8667  -11.6050 C   0  0  1  0  0  0  0  0  0  0  0  0
   10.7682    5.9590  -12.8271 C   0  0  0  0  0  0  0  0  0  0  0  0
   12.1553    7.3846  -11.2315 C   0  0  0  0  0  0  0  0  0  0  0  0
    8.0676    6.6451  -12.2974 C   0  0  0  0  0  0  0  0  0  0  0  0
   10.1892    6.1240  -10.3860 C   0  0  0  0  0  0  0  0  0  0  0  0
   11.8375    5.4373  -13.3240 O   0  0  0  0  0  0  0  0  0  0  0  0
    8.6785    5.4761  -13.0273 C   0  0  1  0  0  0  0  0  0  0  0  0
    9.1969    5.2405  -10.4969 C   0  0  2  0  0  0  0  0  0  0  0  0
    7.2213    6.2210  -11.3074 C   0  0  2  0  0  0  0  0  0  0  0  0
   12.5590    7.6872   -9.9896 C   0  0  0  0  0  0  0  0  0  0  0  0
    9.7633    5.0333  -12.9720 C   0  0  1  0  0  0  0  0  0  0  0  0
   10.0661    4.0167  -14.0373 N   0  0  0  0  0  0  0  0  0  0  0  0
   13.6906    8.3004   -9.6233 O   0  0  0  0  0  0  0  0  0  0  0  0
    7.6357    4.5123  -12.6317 C   0  0  2  0  0  0  0  0  0  0  0  0
    6.8831    4.9171  -11.7031 C   0  0  2  0  0  0  0  0  0  0  0  0
   10.5937    6.6967   -9.1779 C   0  0  0  0  0  0  0  0  0  0  0  0
    9.5087    4.3263  -11.6925 C   0  0  2  0  0  0  0  0  0  0  0  0
   11.6359    7.4449   -8.9125 C   0  0  0  0  0  0  0  0  0  0  0  0
   11.9716    7.9159   -7.6200 C   0  0  0  0  0  0  0  0  0  0  0  0
    8.4648    3.6122  -12.2840 C   0  0  1  0  0  0  0  0  0  0  0  0
    7.9253    2.8004  -11.3926 C   0  0  0  0  0  0  0  0  0  0  0  0
    5.6047    4.5059  -11.7589 C   0  0  0  0  0  0  0  0  0  0  0  0
    7.6606    4.1297  -10.5699 C   0  0  0  0  0  0  0  0  0  0  0  0
   10.9559    7.6849   -6.6057 C   0  0  0  0  0  0  0  0  0  0  0  0
    8.0094    4.5092   -9.5664 C   0  0  0  0  0  0  0  0  0  0  0  0
    8.3033    4.0627   -8.4980 C   0  0  0  0  0  0  0  0  0  0  0  0
    6.3587    7.1012  -11.0392 O   0  0  0  0  0  0  0  0  0  0  0  0
   11.0186    3.9598  -14.9226 C   0  0  0  0  0  0  0  0  0  0  0  0
    8.1758    5.8633  -10.2511 C   0  0  1  0  0  0  0  0  0  0  0  0
   11.4648    2.7104  -15.2650 O   0  0  0  0  0  0  0  0  0  0  0  0
    9.9512    6.8220   -6.8436 C   0  0  0  0  0  0  0  0  0  0  0  0
    9.6899    6.3705   -8.1082 C   0  0  2  0  0  0  0  0  0  0  0  0
   11.2597    8.2901   -5.2396 C   0  0  0  0  0  0  0  0  0  0  0  0
   11.6068    9.7354   -5.2006 C   0  0  0  0  0  0  0  0  0  0  0  0
   10.9469    4.9352  -15.8306 C   0  0  0  0  0  0  0  0  0  0  0  0
    9.2417    4.9555   -7.8256 C   0  0  0  0  0  0  0  0  0  0  0  0
   11.3657    7.7043   -4.0379 C   0  0  0  0  0  0  0  0  0  0  0  0
   11.4469   10.6225   -6.4157 C   0  0  0  0  0  0  0  0  0  0  0  0
   11.9077   10.2897   -3.9889 C   0  0  0  0  0  0  0  0  0  0  0  0
   11.9472    9.5143   -2.8307 C   0  0  0  0  0  0  0  0  0  0  0  0
    9.3030    2.8335  -13.6243 C   0  0  0  0  0  0  0  0  0  0  0  0
   11.0706    6.0966   -4.1041 S   0  0  0  0  0  0  0  0  0  0  0  0
   11.7343    8.3349   -3.0045 C   0  0  0  0  0  0  0  0  0  0  0  0
   12.1398    5.5239   -4.8589 O   0  0  0  0  0  0  0  0  0  0  0  0
   11.2273    5.7924   -2.5132 O   0  0  0  0  0  0  0  0  0  0  0  0
    9.7296    5.7465   -4.5156 C   0  0  0  0  0  0  0  0  0  0  0  0
    8.8786    6.8007   -5.9523 C   0  0  0  0  0  0  0  0  0  0  0  0
    8.9400    5.6567   -5.2137 C   0  0  0  0  0  0  0  0  0  0  0  0
  1  2  1  0  0  0  0
  2  3  1  0  0  0  0
  2  7  2  0  0  0  0
  4  3  1  6  0  0  0
  4  5  1  0  0  0  0
  4  6  1  0  0  0  0
  4  8  1  0  0  0  0
  5  9  2  0  0  0  0
  6 13  1  0  0  0  0
  7 12  1  0  0  0  0
  8 19  2  0  0  0  0
 10  7  1  1  0  0  0
 10 14  1  0  0  0  0
 10 17  1  0  0  0  0
 11  8  1  6  0  0  0
 11 20  1  0  0  0  0
 11 32  1  0  0  0  0
 12 18  1  0  0  0  0
 12 30  1  1  0  0  0
 12 32  1  0  0  0  0
 13 16  2  0  0  0  0
 13 21  1  0  0  0  0
 14  5  1  1  0  0  0
 14 15  1  0  0  0  0
 14 20  1  0  0  0  0
 15 31  1  0  0  0  0
 15 44  1  0  0  0  0
 17 18  1  0  0  0  0
 17 23  1  0  0  0  0
 18 25  1  0  0  0  0
 18 26  1  0  0  0  0
 19 21  1  0  0  0  0
 19 35  1  0  0  0  0
 20 23  1  0  0  0  0
 21 22  2  0  0  0  0
 22 27  1  0  0  0  0
 23 24  1  0  0  0  0
 23 44  1  0  0  0  0
 24 26  1  0  0  0  0
 26 28  2  0  0  0  0
 27 34  2  0  0  0  0
 27 36  1  0  0  0  0
 28 29  1  0  0  0  0
 28 32  1  0  0  0  0
 29 39  2  0  0  0  0
 31 33  2  0  0  0  0
 31 38  1  0  0  0  0
 34 35  1  0  0  0  0
 34 50  1  0  0  0  0
 35 39  1  0  0  0  0
 36 37  1  0  0  0  0
 36 40  2  0  0  0  0
 37 41  1  0  0  0  0
 37 42  2  0  0  0  0
 40 45  1  0  0  0  0
 40 46  1  0  0  0  0
 42 43  1  0  0  0  0
 43 46  2  0  0  0  0
 45 47  2  0  0  0  0
 45 48  2  0  0  0  0
 45 49  1  0  0  0  0
 49 51  1  0  0  0  0
 50 51  1  0  0  0  0
M  END
$$$$

 OpenBabel10082411353D

 51 63  0  0  0  0  0  0  0  0999 V2000
    8.0806    9.0240  -12.7589 C   0  0  0  0  0  0  0  0  0  0  0  0
    8.6514    7.8645  -12.2948 C   0  0  0  0  0  0  0  0  0  0  0  0
    9.9575    7.9974  -11.8426 C   0  0  0  0  0  0  0  0  0  0  0  0
   10.7657    6.8667  -11.6050 C   0  0  1  0  0  0  0  0  0  0  0  0
   10.7682    5.9590  -12.8271 C   0  0  0  0  0  0  0  0  0  0  0  0
   12.1553    7.3846  -11.2315 C   0  0  0  0  0  0  0  0  0  0  0  0
    8.0676    6.6451  -12.2974 C   0  0  0  0  0  0  0  0  0  0  0  0
   10.1892    6.1240  -10.3860 C   0  0  0  0  0  0  0  0  0  0  0  0
   11.8375    5.4373  -13.3240 O   0  0  0  0  0  0  0  0  0  0  0  0
    8.6785    5.4761  -13.0273 C   0  0  1  0  0  0  0  0  0  0  0  0
    9.1969    5.2405  -10.4969 C   0  0  2  0  0  0  0  0  0  0  0  0
    7.2213    6.2210  -11.3074 C   0  0  2  0  0  0  0  0  0  0  0  0
   12.5590    7.6872   -9.9896 C   0  0  0  0  0  0  0  0  0  0  0  0
    9.7633    5.0333  -12.9720 C   0  0  1  0  0  0  0  0  0  0  0  0
   10.0661    4.0167  -14.0373 N   0  0  0  0  0  0  0  0  0  0  0  0
   13.6906    8.3004   -9.6233 O   0  0  0  0  0  0  0  0  0  0  0  0
    7.6357    4.5123  -12.6317 C   0  0  2  0  0  0  0  0  0  0  0  0
    6.8831    4.9171  -11.7031 C   0  0  2  0  0  0  0  0  0  0  0  0
   10.5937    6.6967   -9.1779 C   0  0  0  0  0  0  0  0  0  0  0  0
    9.5087    4.3263  -11.6925 C   0  0  2  0  0  0  0  0  0  0  0  0
   11.6359    7.4449   -8.9125 C   0  0  0  0  0  0  0  0  0  0  0  0
   11.9716    7.9159   -7.6200 C   0  0  0  0  0  0  0  0  0  0  0  0
    8.4648    3.6122  -12.2840 C   0  0  1  0  0  0  0  0  0  0  0  0
    7.9253    2.8004  -11.3926 C   0  0  0  0  0  0  0  0  0  0  0  0
    5.6047    4.5059  -11.7589 C   0  0  0  0  0  0  0  0  0  0  0  0
    7.6606    4.1297  -10.5699 C   0  0  0  0  0  0  0  0  0  0  0  0
   10.9559    7.6849   -6.6057 C   0  0  0  0  0  0  0  0  0  0  0  0
    8.0094    4.5092   -9.5664 C   0  0  0  0  0  0  0  0  0  0  0  0
    8.3033    4.0627   -8.4980 C   0  0  0  0  0  0  0  0  0  0  0  0
    6.3587    7.1012  -11.0392 O   0  0  0  0  0  0  0  0  0  0  0  0
   11.0186    3.9598  -14.9226 C   0  0  0  0  0  0  0  0  0  0  0  0
    8.1758    5.8633  -10.2511 C   0  0  1  0  0  0  0  0  0  0  0  0
   11.4648    2.7104  -15.2650 O   0  0  0  0  0  0  0  0  0  0  0  0
    9.9512    6.8220   -6.8436 C   0  0  0  0  0  0  0  0  0  0  0  0
    9.6899    6.3705   -8.1082 C   0  0  2  0  0  0  0  0  0  0  0  0
   11.2597    8.2901   -5.2396 C   0  0  0  0  0  0  0  0  0  0  0  0
   11.6068    9.7354   -5.2006 C   0  0  0  0  0  0  0  0  0  0  0  0
   10.9469    4.9352  -15.8306 C   0  0  0  0  0  0  0  0  0  0  0  0
    9.2417    4.9555   -7.8256 C   0  0  0  0  0  0  0  0  0  0  0  0
   11.3657    7.7043   -4.0379 C   0  0  0  0  0  0  0  0  0  0  0  0
    9.3036    2.8311  -13.6285 C   0  0  0  0  0  0  0  0  0  0  0  0
   11.4466   10.6213   -6.4141 C   0  0  0  0  0  0  0  0  0  0  0  0
   11.7652   10.0517   -3.9940 C   0  0  0  0  0  0  0  0  0  0  0  0
   11.8959    9.5083   -2.8248 C   0  0  0  0  0  0  0  0  0  0  0  0
   11.0755    6.0368   -4.1516 S   0  0  0  0  0  0  0  0  0  0  0  0
   11.7806    8.1542   -2.7730 C   0  0  0  0  0  0  0  0  0  0  0  0
   12.0908    5.5103   -4.9828 O   0  0  0  0  0  0  0  0  0  0  0  0
    9.7712    5.6609   -4.5901 O   0  0  0  0  0  0  0  0  0  0  0  0
   11.2045    5.6549   -2.4614 C   0  0  0  0  0  0  0  0  0  0  0  0
   11.7642    6.4399   -1.5971 C   0  0  0  0  0  0  0  0  0  0  0  0
   11.9425    7.5953   -1.6013 N   0  0  0  0  0  0  0  0  0  0  0  0
  1  2  1  0  0  0  0
  2  3  1  0  0  0  0
  2  7  2  0  0  0  0
  4  3  1  6  0  0  0
  4  5  1  0  0  0  0
  4  6  1  0  0  0  0
  4  8  1  0  0  0  0
  5  9  2  0  0  0  0
  6 13  1  0  0  0  0
  7 12  1  0  0  0  0
  8 19  2  0  0  0  0
 10  7  1  1  0  0  0
 10 14  1  0  0  0  0
 10 17  1  0  0  0  0
 11  8  1  6  0  0  0
 11 20  1  0  0  0  0
 11 32  1  0  0  0  0
 12 18  1  0  0  0  0
 12 30  1  1  0  0  0
 12 32  1  0  0  0  0
 13 16  2  0  0  0  0
 13 21  1  0  0  0  0
 14  5  1  1  0  0  0
 14 15  1  0  0  0  0
 14 20  1  0  0  0  0
 15 31  1  0  0  0  0
 15 41  1  0  0  0  0
 17 18  1  0  0  0  0
 17 23  1  0  0  0  0
 18 25  1  0  0  0  0
 18 26  1  0  0  0  0
 19 21  1  0  0  0  0
 19 35  1  0  0  0  0
 20 23  1  0  0  0  0
 21 22  2  0  0  0  0
 22 27  1  0  0  0  0
 23 24  1  0  0  0  0
 23 41  1  0  0  0  0
 24 26  1  0  0  0  0
 26 28  2  0  0  0  0
 27 34  2  0  0  0  0
 27 36  1  0  0  0  0
 28 29  1  0  0  0  0
 28 32  1  0  0  0  0
 29 39  2  0  0  0  0
 31 33  2  0  0  0  0
 31 38  1  0  0  0  0
 34 35  1  0  0  0  0
 35 39  1  0  0  0  0
 36 37  1  0  0  0  0
 36 40  2  0  0  0  0
 37 42  1  0  0  0  0
 37 43  2  0  0  0  0
 40 45  1  0  0  0  0
 40 46  1  0  0  0  0
 43 44  1  0  0  0  0
 44 46  2  0  0  0  0
 45 47  2  0  0  0  0
 45 48  2  0  0  0  0
 45 49  1  0  0  0  0
 46 51  1  0  0  0  0
 49 50  2  0  0  0  0
 50 51  1  0  0  0  0
M  END
$$$$

 OpenBabel10082411353D

 51 64  0  0  0  0  0  0  0  0999 V2000
    8.0806    9.0240  -12.7589 C   0  0  0  0  0  0  0  0  0  0  0  0
    8.6514    7.8645  -12.2948 C   0  0  0  0  0  0  0  0  0  0  0  0
    9.9575    7.9974  -11.8426 C   0  0  0  0  0  0  0  0  0  0  0  0
   10.7657    6.8667  -11.6050 C   0  0  1  0  0  0  0  0  0  0  0  0
   10.7682    5.9590  -12.8271 C   0  0  0  0  0  0  0  0  0  0  0  0
   12.1553    7.3846  -11.2315 C   0  0  0  0  0  0  0  0  0  0  0  0
    8.0676    6.6451  -12.2974 C   0  0  0  0  0  0  0  0  0  0  0  0
   10.1892    6.1240  -10.3860 C   0  0  0  0  0  0  0  0  0  0  0  0
   11.8375    5.4373  -13.3240 O   0  0  0  0  0  0  0  0  0  0  0  0
    8.6785    5.4761  -13.0273 C   0  0  1  0  0  0  0  0  0  0  0  0
    9.1969    5.2405  -10.4969 C   0  0  2  0  0  0  0  0  0  0  0  0
    7.2213    6.2210  -11.3074 C   0  0  2  0  0  0  0  0  0  0  0  0
   12.5590    7.6872   -9.9896 C   0  0  0  0  0  0  0  0  0  0  0  0
    9.7633    5.0333  -12.9720 C   0  0  1  0  0  0  0  0  0  0  0  0
   10.0661    4.0167  -14.0373 N   0  0  0  0  0  0  0  0  0  0  0  0
   13.6906    8.3004   -9.6233 O   0  0  0  0  0  0  0  0  0  0  0  0
    7.6357    4.5123  -12.6317 C   0  0  2  0  0  0  0  0  0  0  0  0
    6.8831    4.9171  -11.7031 C   0  0  2  0  0  0  0  0  0  0  0  0
   10.5937    6.6967   -9.1779 C   0  0  0  0  0  0  0  0  0  0  0  0
    9.5087    4.3263  -11.6925 C   0  0  2  0  0  0  0  0  0  0  0  0
   11.6359    7.4449   -8.9125 C   0  0  0  0  0  0  0  0  0  0  0  0
   11.9716    7.9159   -7.6200 C   0  0  0  0  0  0  0  0  0  0  0  0
    8.4648    3.6122  -12.2840 C   0  0  1  0  0  0  0  0  0  0  0  0
    7.9253    2.8004  -11.3926 C   0  0  0  0  0  0  0  0  0  0  0  0
    5.6047    4.5059  -11.7589 C   0  0  0  0  0  0  0  0  0  0  0  0
    7.6606    4.1297  -10.5699 C   0  0  0  0  0  0  0  0  0  0  0  0
   10.9559    7.6849   -6.6057 C   0  0  0  0  0  0  0  0  0  0  0  0
    8.0094    4.5092   -9.5664 C   0  0  0  0  0  0  0  0  0  0  0  0
    8.3033    4.0627   -8.4980 C   0  0  0  0  0  0  0  0  0  0  0  0
    6.3587    7.1012  -11.0392 O   0  0  0  0  0  0  0  0  0  0  0  0
   11.0186    3.9598  -14.9226 C   0  0  0  0  0  0  0  0  0  0  0  0
    8.1758    5.8633  -10.2511 C   0  0  1  0  0  0  0  0  0  0  0  0
   11.4648    2.7104  -15.2650 O   0  0  0  0  0  0  0  0  0  0  0  0
    9.9512    6.8220   -6.8436 C   0  0  0  0  0  0  0  0  0  0  0  0
    9.6899    6.3705   -8.1082 C   0  0  2  0  0  0  0  0  0  0  0  0
   11.2597    8.2901   -5.2396 C   0  0  0  0  0  0  0  0  0  0  0  0
   11.6068    9.7354   -5.2006 C   0  0  0  0  0  0  0  0  0  0  0  0
   10.9469    4.9352  -15.8306 C   0  0  0  0  0  0  0  0  0  0  0  0
    9.2417    4.9555   -7.8256 C   0  0  0  0  0  0  0  0  0  0  0  0
   11.3657    7.7043   -4.0379 C   0  0  0  0  0  0  0  0  0  0  0  0
   11.4469   10.6225   -6.4157 C   0  0  0  0  0  0  0  0  0  0  0  0
   11.9077   10.2897   -3.9889 C   0  0  0  0  0  0  0  0  0  0  0  0
   11.9472    9.5143   -2.8307 C   0  0  0  0  0  0  0  0  0  0  0  0
    9.3030    2.8335  -13.6243 C   0  0  0  0  0  0  0  0  0  0  0  0
   11.0706    6.0966   -4.1041 S   0  0  0  0  0  0  0  0  0  0  0  0
   11.7343    8.3349   -3.0045 C   0  0  0  0  0  0  0  0  0  0  0  0
   12.1398    5.5239   -4.8589 O   0  0  0  0  0  0  0  0  0  0  0  0
   11.2273    5.7924   -2.5132 O   0  0  0  0  0  0  0  0  0  0  0  0
    9.7296    5.7465   -4.5156 C   0  0  0  0  0  0  0  0  0  0  0  0
    9.5337    6.0396   -5.6465 C   0  0  2  0  0  0  0  0  0  0  0  0
    9.1947    5.0265   -6.3703 N   0  0  0  0  0  0  0  0  0  0  0  0
  1  2  1  0  0  0  0
  2  3  1  0  0  0  0
  2  7  2  0  0  0  0
  4  3  1  6  0  0  0
  4  5  1  0  0  0  0
  4  6  1  0  0  0  0
  4  8  1  0  0  0  0
  5  9  2  0  0  0  0
  6 13  1  0  0  0  0
  7 12  1  0  0  0  0
  8 19  2  0  0  0  0
 10  7  1  1  0  0  0
 10 14  1  0  0  0  0
 10 17  1  0  0  0  0
 11  8  1  6  0  0  0
 11 20  1  0  0  0  0
 11 32  1  0  0  0  0
 12 18  1  0  0  0  0
 12 30  1  1  0  0  0
 12 32  1  0  0  0  0
 13 16  2  0  0  0  0
 13 21  1  0  0  0  0
 14  5  1  1  0  0  0
 14 15  1  0  0  0  0
 14 20  1  0  0  0  0
 15 31  1  0  0  0  0
 15 44  1  0  0  0  0
 17 18  1  0  0  0  0
 17 23  1  0  0  0  0
 18 25  1  0  0  0  0
 18 26  1  0  0  0  0
 19 21  1  0  0  0  0
 19 35  1  0  0  0  0
 20 23  1  0  0  0  0
 21 22  2  0  0  0  0
 22 27  1  0  0  0  0
 23 24  1  0  0  0  0
 23 44  1  0  0  0  0
 24 26  1  0  0  0  0
 26 28  2  0  0  0  0
 27 34  2  0  0  0  0
 27 36  1  0  0  0  0
 28 29  1  0  0  0  0
 28 32  1  0  0  0  0
 29 39  2  0  0  0  0
 31 33  2  0  0  0  0
 31 38  1  0  0  0  0
 34 35  1  0  0  0  0
 34 50  1  0  0  0  0
 35 39  1  0  0  0  0
 36 37  1  0  0  0  0
 36 40  2  0  0  0  0
 37 41  1  0  0  0  0
 37 42  2  0  0  0  0
 39 51  1  0  0  0  0
 40 45  1  0  0  0  0
 40 46  1  0  0  0  0
 42 43  1  0  0  0  0
 43 46  2  0  0  0  0
 45 47  2  0  0  0  0
 45 48  2  0  0  0  0
 45 49  1  0  0  0  0
 49 50  1  0  0  0  0
 50 51  1  0  0  0  0
M  END
$$$$

 OpenBabel10082411353D

 51 63  0  0  0  0  0  0  0  0999 V2000
    8.0806    9.0240  -12.7589 C   0  0  0  0  0  0  0  0  0  0  0  0
    8.6514    7.8645  -12.2948 C   0  0  0  0  0  0  0  0  0  0  0  0
    9.9575    7.9974  -11.8426 C   0  0  0  0  0  0  0  0  0  0  0  0
   10.7657    6.8667  -11.6050 C   0  0  1  0  0  0  0  0  0  0  0  0
   10.7682    5.9590  -12.8271 C   0  0  0  0  0  0  0  0  0  0  0  0
   12.1553    7.3846  -11.2315 C   0  0  0  0  0  0  0  0  0  0  0  0
    8.0676    6.6451  -12.2974 C   0  0  0  0  0  0  0  0  0  0  0  0
   10.1892    6.1240  -10.3860 C   0  0  0  0  0  0  0  0  0  0  0  0
   11.8375    5.4373  -13.3240 O   0  0  0  0  0  0  0  0  0  0  0  0
    8.6785    5.4761  -13.0273 C   0  0  1  0  0  0  0  0  0  0  0  0
    9.1969    5.2405  -10.4969 C   0  0  2  0  0  0  0  0  0  0  0  0
    7.2213    6.2210  -11.3074 C   0  0  2  0  0  0  0  0  0  0  0  0
   12.5590    7.6872   -9.9896 C   0  0  0  0  0  0  0  0  0  0  0  0
    9.7633    5.0333  -12.9720 C   0  0  1  0  0  0  0  0  0  0  0  0
   10.0661    4.0167  -14.0373 N   0  0  0  0  0  0  0  0  0  0  0  0
   13.6906    8.3004   -9.6233 O   0  0  0  0  0  0  0  0  0  0  0  0
    7.6357    4.5123  -12.6317 C   0  0  2  0  0  0  0  0  0  0  0  0
    6.8831    4.9171  -11.7031 C   0  0  2  0  0  0  0  0  0  0  0  0
   10.5937    6.6967   -9.1779 C   0  0  0  0  0  0  0  0  0  0  0  0
    9.5087    4.3263  -11.6925 C   0  0  2  0  0  0  0  0  0  0  0  0
   11.6359    7.4449   -8.9125 C   0  0  0  0  0  0  0  0  0  0  0  0
   11.9716    7.9159   -7.6200 C   0  0  0  0  0  0  0  0  0  0  0  0
    8.4648    3.6122  -12.2840 C   0  0  1  0  0  0  0  0  0  0  0  0
    7.9253    2.8004  -11.3926 C   0  0  0  0  0  0  0  0  0  0  0  0
    5.6047    4.5059  -11.7589 C   0  0  0  0  0  0  0  0  0  0  0  0
    7.6606    4.1297  -10.5699 C   0  0  0  0  0  0  0  0  0  0  0  0
   10.9559    7.6849   -6.6057 C   0  0  0  0  0  0  0  0  0  0  0  0
    8.0094    4.5092   -9.5664 C   0  0  0  0  0  0  0  0  0  0  0  0
    8.3033    4.0627   -8.4980 C   0  0  0  0  0  0  0  0  0  0  0  0
    6.3587    7.1012  -11.0392 O   0  0  0  0  0  0  0  0  0  0  0  0
   11.0186    3.9598  -14.9226 C   0  0  0  0  0  0  0  0  0  0  0  0
    8.1758    5.8633  -10.2511 C   0  0  1  0  0  0  0  0  0  0  0  0
   11.4648    2.7104  -15.2650 O   0  0  0  0  0  0  0  0  0  0  0  0
    9.9512    6.8220   -6.8436 C   0  0  0  0  0  0  0  0  0  0  0  0
    9.6899    6.3705   -8.1082 C   0  0  2  0  0  0  0  0  0  0  0  0
   11.2597    8.2901   -5.2396 C   0  0  0  0  0  0  0  0  0  0  0  0
   11.6068    9.7354   -5.2006 C   0  0  0  0  0  0  0  0  0  0  0  0
   10.9469    4.9352  -15.8306 C   0  0  0  0  0  0  0  0  0  0  0  0
    9.2417    4.9555   -7.8256 C   0  0  0  0  0  0  0  0  0  0  0  0
   11.3657    7.7043   -4.0379 C   0  0  0  0  0  0  0  0  0  0  0  0
    9.3036    2.8311  -13.6285 C   0  0  0  0  0  0  0  0  0  0  0  0
   11.4466   10.6213   -6.4141 C   0  0  0  0  0  0  0  0  0  0  0  0
   11.7652   10.0517   -3.9940 C   0  0  0  0  0  0  0  0  0  0  0  0
   11.8959    9.5083   -2.8248 C   0  0  0  0  0  0  0  0  0  0  0  0
   11.0755    6.0368   -4.1516 S   0  0  0  0  0  0  0  0  0  0  0  0
   11.7806    8.1542   -2.7730 C   0  0  0  0  0  0  0  0  0  0  0  0
   12.0908    5.5103   -4.9828 O   0  0  0  0  0  0  0  0  0  0  0  0
    9.7712    5.6609   -4.5901 O   0  0  0  0  0  0  0  0  0  0  0  0
   11.2045    5.6549   -2.4614 C   0  0  0  0  0  0  0  0  0  0  0  0
   11.7642    6.4399   -1.5971 C   0  0  0  0  0  0  0  0  0  0  0  0
   12.0676    7.6243   -1.6083 C   0  0  0  0  0  0  0  0  0  0  0  0
  1  2  1  0  0  0  0
  2  3  1  0  0  0  0
  2  7  2  0  0  0  0
  4  3  1  6  0  0  0
  4  5  1  0  0  0  0
  4  6  1  0  0  0  0
  4  8  1  0  0  0  0
  5  9  2  0  0  0  0
  6 13  1  0  0  0  0
  7 12  1  0  0  0  0
  8 19  2  0  0  0  0
 10  7  1  1  0  0  0
 10 14  1  0  0  0  0
 10 17  1  0  0  0  0
 11  8  1  6  0  0  0
 11 20  1  0  0  0  0
 11 32  1  0  0  0  0
 12 18  1  0  0  0  0
 12 30  1  1  0  0  0
 12 32  1  0  0  0  0
 13 16  2  0  0  0  0
 13 21  1  0  0  0  0
 14  5  1  1  0  0  0
 14 15  1  0  0  0  0
 14 20  1  0  0  0  0
 15 31  1  0  0  0  0
 15 41  1  0  0  0  0
 17 18  1  0  0  0  0
 17 23  1  0  0  0  0
 18 25  1  0  0  0  0
 18 26  1  0  0  0  0
 19 21  1  0  0  0  0
 19 35  1  0  0  0  0
 20 23  1  0  0  0  0
 21 22  2  0  0  0  0
 22 27  1  0  0  0  0
 23 24  1  0  0  0  0
 23 41  1  0  0  0  0
 24 26  1  0  0  0  0
 26 28  2  0  0  0  0
 27 34  2  0  0  0  0
 27 36  1  0  0  0  0
 28 29  1  0  0  0  0
 28 32  1  0  0  0  0
 29 39  2  0  0  0  0
 31 33  2  0  0  0  0
 31 38  1  0  0  0  0
 34 35  1  0  0  0  0
 35 39  1  0  0  0  0
 36 37  1  0  0  0  0
 36 40  2  0  0  0  0
 37 42  1  0  0  0  0
 37 43  2  0  0  0  0
 40 45  1  0  0  0  0
 40 46  1  0  0  0  0
 43 44  1  0  0  0  0
 44 46  2  0  0  0  0
 45 47  2  0  0  0  0
 45 48  2  0  0  0  0
 45 49  1  0  0  0  0
 46 51  1  0  0  0  0
 49 50  2  0  0  0  0
 50 51  1  0  0  0  0
M  END
$$$$

 OpenBabel10082411353D

 51 63  0  0  0  0  0  0  0  0999 V2000
    8.0806    9.0240  -12.7589 C   0  0  0  0  0  0  0  0  0  0  0  0
    8.6514    7.8645  -12.2948 C   0  0  0  0  0  0  0  0  0  0  0  0
    9.9575    7.9974  -11.8426 C   0  0  0  0  0  0  0  0  0  0  0  0
   10.7657    6.8667  -11.6050 C   0  0  1  0  0  0  0  0  0  0  0  0
   10.7682    5.9590  -12.8271 C   0  0  0  0  0  0  0  0  0  0  0  0
   12.1553    7.3846  -11.2315 C   0  0  0  0  0  0  0  0  0  0  0  0
    8.0676    6.6451  -12.2974 C   0  0  0  0  0  0  0  0  0  0  0  0
   10.1892    6.1240  -10.3860 C   0  0  0  0  0  0  0  0  0  0  0  0
   11.8375    5.4373  -13.3240 O   0  0  0  0  0  0  0  0  0  0  0  0
    8.6785    5.4761  -13.0273 C   0  0  1  0  0  0  0  0  0  0  0  0
    9.1969    5.2405  -10.4969 C   0  0  2  0  0  0  0  0  0  0  0  0
    7.2213    6.2210  -11.3074 C   0  0  2  0  0  0  0  0  0  0  0  0
   12.5590    7.6872   -9.9896 C   0  0  0  0  0  0  0  0  0  0  0  0
    9.7633    5.0333  -12.9720 C   0  0  1  0  0  0  0  0  0  0  0  0
   10.0661    4.0167  -14.0373 N   0  0  0  0  0  0  0  0  0  0  0  0
   13.6906    8.3004   -9.6233 O   0  0  0  0  0  0  0  0  0  0  0  0
    7.6357    4.5123  -12.6317 C   0  0  2  0  0  0  0  0  0  0  0  0
    6.8831    4.9171  -11.7031 C   0  0  2  0  0  0  0  0  0  0  0  0
   10.5937    6.6967   -9.1779 C   0  0  0  0  0  0  0  0  0  0  0  0
    9.5087    4.3263  -11.6925 C   0  0  2  0  0  0  0  0  0  0  0  0
   11.6359    7.4449   -8.9125 C   0  0  0  0  0  0  0  0  0  0  0  0
   11.9716    7.9159   -7.6200 C   0  0  0  0  0  0  0  0  0  0  0  0
    8.4648    3.6122  -12.2840 C   0  0  1  0  0  0  0  0  0  0  0  0
    7.9253    2.8004  -11.3926 C   0  0  0  0  0  0  0  0  0  0  0  0
    5.6047    4.5059  -11.7589 C   0  0  0  0  0  0  0  0  0  0  0  0
    7.6606    4.1297  -10.5699 C   0  0  0  0  0  0  0  0  0  0  0  0
   10.9559    7.6849   -6.6057 C   0  0  0  0  0  0  0  0  0  0  0  0
    8.0094    4.5092   -9.5664 C   0  0  0  0  0  0  0  0  0  0  0  0
    8.3033    4.0627   -8.4980 C   0  0  0  0  0  0  0  0  0  0  0  0
    6.3587    7.1012  -11.0392 O   0  0  0  0  0  0  0  0  0  0  0  0
   11.0186    3.9598  -14.9226 C   0  0  0  0  0  0  0  0  0  0  0  0
    8.1758    5.8633  -10.2511 C   0  0  1  0  0  0  0  0  0  0  0  0
   11.4648    2.7104  -15.2650 O   0  0  0  0  0  0  0  0  0  0  0  0
    9.9512    6.8220   -6.8436 C   0  0  0  0  0  0  0  0  0  0  0  0
    9.6899    6.3705   -8.1082 C   0  0  2  0  0  0  0  0  0  0  0  0
   11.2597    8.2901   -5.2396 C   0  0  0  0  0  0  0  0  0  0  0  0
   11.6068    9.7354   -5.2006 C   0  0  0  0  0  0  0  0  0  0  0  0
   10.9469    4.9352  -15.8306 C   0  0  0  0  0  0  0  0  0  0  0  0
    9.2417    4.9555   -7.8256 C   0  0  0  0  0  0  0  0  0  0  0  0
   11.3657    7.7043   -4.0379 C   0  0  0  0  0  0  0  0  0  0  0  0
   11.4469   10.6225   -6.4157 C   0  0  0  0  0  0  0  0  0  0  0  0
   11.9077   10.2897   -3.9889 C   0  0  0  0  0  0  0  0  0  0  0  0
   11.9472    9.5143   -2.8307 C   0  0  0  0  0  0  0  0  0  0  0  0
    9.3030    2.8335  -13.6243 C   0  0  0  0  0  0  0  0  0  0  0  0
   11.0706    6.0966   -4.1041 S   0  0  0  0  0  0  0  0  0  0  0  0
   11.7343    8.3349   -3.0045 C   0  0  0  0  0  0  0  0  0  0  0  0
   12.1398    5.5239   -4.8589 O   0  0  0  0  0  0  0  0  0  0  0  0
   11.2273    5.7924   -2.5132 O   0  0  0  0  0  0  0  0  0  0  0  0
    9.7296    5.7465   -4.5156 C   0  0  0  0  0  0  0  0  0  0  0  0
    8.8786    6.8007   -5.9523 C   0  0  0  0  0  0  0  0  0  0  0  0
    8.9400    5.6567   -5.2137 C   0  0  0  0  0  0  0  0  0  0  0  0
  1  2  1  0  0  0  0
  2  3  1  0  0  0  0
  2  7  2  0  0  0  0
  4  3  1  6  0  0  0
  4  5  1  0  0  0  0
  4  6  1  0  0  0  0
  4  8  1  0  0  0  0
  5  9  2  0  0  0  0
  6 13  1  0  0  0  0
  7 12  1  0  0  0  0
  8 19  2  0  0  0  0
 10  7  1  1  0  0  0
 10 14  1  0  0  0  0
 10 17  1  0  0  0  0
 11  8  1  6  0  0  0
 11 20  1  0  0  0  0
 11 32  1  0  0  0  0
 12 18  1  0  0  0  0
 12 30  1  1  0  0  0
 12 32  1  0  0  0  0
 13 16  2  0  0  0  0
 13 21  1  0  0  0  0
 14  5  1  1  0  0  0
 14 15  1  0  0  0  0
 14 20  1  0  0  0  0
 15 31  1  0  0  0  0
 15 44  1  0  0  0  0
 17 18  1  0  0  0  0
 17 23  1  0  0  0  0
 18 25  1  0  0  0  0
 18 26  1  0  0  0  0
 19 21  1  0  0  0  0
 19 35  1  0  0  0  0
 20 23  1  0  0  0  0
 21 22  2  0  0  0  0
 22 27  1  0  0  0  0
 23 24  1  0  0  0  0
 23 44  1  0  0  0  0
 24 26  1  0  0  0  0
 26 28  2  0  0  0  0
 27 34  2  0  0  0  0
 27 36  1  0  0  0  0
 28 29  1  0  0  0  0
 28 32  1  0  0  0  0
 29 39  2  0  0  0  0
 31 33  2  0  0  0  0
 31 38  1  0  0  0  0
 34 35  1  0  0  0  0
 34 50  1  0  0  0  0
 35 39  1  0  0  0  0
 36 37  1  0  0  0  0
 36 40  2  0  0  0  0
 37 41  1  0  0  0  0
 37 42  2  0  0  0  0
 40 45  1  0  0  0  0
 40 46  1  0  0  0  0
 42 43  1  0  0  0  0
 43 46  2  0  0  0  0
 45 47  2  0  0  0  0
 45 48  2  0  0  0  0
 45 49  1  0  0  0  0
 49 51  2  0  0  0  0
 50 51  1  0  0  0  0
M  END
$$$$

 OpenBabel10082411353D

 51 63  0  0  0  0  0  0  0  0999 V2000
    8.0806    9.0240  -12.7589 C   0  0  0  0  0  0  0  0  0  0  0  0
    8.6514    7.8645  -12.2948 C   0  0  0  0  0  0  0  0  0  0  0  0
    9.9575    7.9974  -11.8426 C   0  0  0  0  0  0  0  0  0  0  0  0
   10.7657    6.8667  -11.6050 C   0  0  1  0  0  0  0  0  0  0  0  0
   10.7682    5.9590  -12.8271 C   0  0  0  0  0  0  0  0  0  0  0  0
   12.1553    7.3846  -11.2315 C   0  0  0  0  0  0  0  0  0  0  0  0
    8.0676    6.6451  -12.2974 C   0  0  0  0  0  0  0  0  0  0  0  0
   10.1892    6.1240  -10.3860 C   0  0  0  0  0  0  0  0  0  0  0  0
   11.8375    5.4373  -13.3240 O   0  0  0  0  0  0  0  0  0  0  0  0
    8.6785    5.4761  -13.0273 C   0  0  1  0  0  0  0  0  0  0  0  0
    9.1969    5.2405  -10.4969 C   0  0  2  0  0  0  0  0  0  0  0  0
    7.2213    6.2210  -11.3074 C   0  0  2  0  0  0  0  0  0  0  0  0
   12.5590    7.6872   -9.9896 C   0  0  0  0  0  0  0  0  0  0  0  0
    9.7633    5.0333  -12.9720 C   0  0  1  0  0  0  0  0  0  0  0  0
   10.0661    4.0167  -14.0373 N   0  0  0  0  0  0  0  0  0  0  0  0
   13.6906    8.3004   -9.6233 O   0  0  0  0  0  0  0  0  0  0  0  0
    7.6357    4.5123  -12.6317 C   0  0  2  0  0  0  0  0  0  0  0  0
    6.8831    4.9171  -11.7031 C   0  0  2  0  0  0  0  0  0  0  0  0
   10.5937    6.6967   -9.1779 C   0  0  0  0  0  0  0  0  0  0  0  0
    9.5087    4.3263  -11.6925 C   0  0  2  0  0  0  0  0  0  0  0  0
   11.6359    7.4449   -8.9125 C   0  0  0  0  0  0  0  0  0  0  0  0
   11.9716    7.9159   -7.6200 C   0  0  0  0  0  0  0  0  0  0  0  0
    8.4648    3.6122  -12.2840 C   0  0  1  0  0  0  0  0  0  0  0  0
    7.9253    2.8004  -11.3926 C   0  0  0  0  0  0  0  0  0  0  0  0
    5.6047    4.5059  -11.7589 C   0  0  0  0  0  0  0  0  0  0  0  0
    7.6606    4.1297  -10.5699 C   0  0  0  0  0  0  0  0  0  0  0  0
   10.9559    7.6849   -6.6057 C   0  0  0  0  0  0  0  0  0  0  0  0
    8.0094    4.5092   -9.5664 C   0  0  0  0  0  0  0  0  0  0  0  0
    8.3033    4.0627   -8.4980 C   0  0  0  0  0  0  0  0  0  0  0  0
    6.3587    7.1012  -11.0392 O   0  0  0  0  0  0  0  0  0  0  0  0
   11.0186    3.9598  -14.9226 C   0  0  0  0  0  0  0  0  0  0  0  0
    8.1758    5.8633  -10.2511 C   0  0  1  0  0  0  0  0  0  0  0  0
   11.4648    2.7104  -15.2650 O   0  0  0  0  0  0  0  0  0  0  0  0
    9.9512    6.8220   -6.8436 C   0  0  0  0  0  0  0  0  0  0  0  0
    9.6899    6.3705   -8.1082 C   0  0  2  0  0  0  0  0  0  0  0  0
   11.2597    8.2901   -5.2396 C   0  0  0  0  0  0  0  0  0  0  0  0
   11.6068    9.7354   -5.2006 C   0  0  0  0  0  0  0  0  0  0  0  0
   10.9469    4.9352  -15.8306 C   0  0  0  0  0  0  0  0  0  0  0  0
    9.2417    4.9555   -7.8256 C   0  0  0  0  0  0  0  0  0  0  0  0
   11.3657    7.7043   -4.0379 C   0  0  0  0  0  0  0  0  0  0  0  0
    9.3036    2.8311  -13.6285 C   0  0  0  0  0  0  0  0  0  0  0  0
   11.4466   10.6213   -6.4141 C   0  0  0  0  0  0  0  0  0  0  0  0
   11.7652   10.0517   -3.9940 C   0  0  0  0  0  0  0  0  0  0  0  0
   11.8959    9.5083   -2.8248 C   0  0  0  0  0  0  0  0  0  0  0  0
   11.0755    6.0368   -4.1516 S   0  0  0  0  0  0  0  0  0  0  0  0
   11.7806    8.1542   -2.7730 C   0  0  0  0  0  0  0  0  0  0  0  0
   12.0908    5.5103   -4.9828 O   0  0  0  0  0  0  0  0  0  0  0  0
    9.7712    5.6609   -4.5901 O   0  0  0  0  0  0  0  0  0  0  0  0
   11.2045    5.6549   -2.4614 C   0  0  0  0  0  0  0  0  0  0  0  0
   11.7642    6.4399   -1.5971 C   0  0  0  0  0  0  0  0  0  0  0  0
   11.9013    7.5724   -1.6084 N   0  0  0  0  0  0  0  0  0  0  0  0
  1  2  1  0  0  0  0
  2  3  1  0  0  0  0
  2  7  2  0  0  0  0
  4  3  1  6  0  0  0
  4  5  1  0  0  0  0
  4  6  1  0  0  0  0
  4  8  1  0  0  0  0
  5  9  2  0  0  0  0
  6 13  1  0  0  0  0
  7 12  1  0  0  0  0
  8 19  2  0  0  0  0
 10  7  1  1  0  0  0
 10 14  1  0  0  0  0
 10 17  1  0  0  0  0
 11  8  1  6  0  0  0
 11 20  1  0  0  0  0
 11 32  1  0  0  0  0
 12 18  1  0  0  0  0
 12 30  1  1  0  0  0
 12 32  1  0  0  0  0
 13 16  2  0  0  0  0
 13 21  1  0  0  0  0
 14  5  1  1  0  0  0
 14 15  1  0  0  0  0
 14 20  1  0  0  0  0
 15 31  1  0  0  0  0
 15 41  1  0  0  0  0
 17 18  1  0  0  0  0
 17 23  1  0  0  0  0
 18 25  1  0  0  0  0
 18 26  1  0  0  0  0
 19 21  1  0  0  0  0
 19 35  1  0  0  0  0
 20 23  1  0  0  0  0
 21 22  2  0  0  0  0
 22 27  1  0  0  0  0
 23 24  1  0  0  0  0
 23 41  1  0  0  0  0
 24 26  1  0  0  0  0
 26 28  2  0  0  0  0
 27 34  2  0  0  0  0
 27 36  1  0  0  0  0
 28 29  1  0  0  0  0
 28 32  1  0  0  0  0
 29 39  2  0  0  0  0
 31 33  2  0  0  0  0
 31 38  1  0  0  0  0
 34 35  1  0  0  0  0
 35 39  1  0  0  0  0
 36 37  1  0  0  0  0
 36 40  2  0  0  0  0
 37 42  1  0  0  0  0
 37 43  2  0  0  0  0
 40 45  1  0  0  0  0
 40 46  1  0  0  0  0
 43 44  1  0  0  0  0
 44 46  2  0  0  0  0
 45 47  2  0  0  0  0
 45 48  2  0  0  0  0
 45 49  1  0  0  0  0
 46 51  1  0  0  0  0
 49 50  1  0  0  0  0
 50 51  2  0  0  0  0
M  END
$$$$

 OpenBabel10082411353D

 52 64  0  0  0  0  0  0  0  0999 V2000
    8.0806    9.0240  -12.7589 C   0  0  0  0  0  0  0  0  0  0  0  0
    8.6514    7.8645  -12.2948 C   0  0  0  0  0  0  0  0  0  0  0  0
    9.9575    7.9974  -11.8426 C   0  0  0  0  0  0  0  0  0  0  0  0
   10.7657    6.8667  -11.6050 C   0  0  1  0  0  0  0  0  0  0  0  0
   10.7682    5.9590  -12.8271 C   0  0  0  0  0  0  0  0  0  0  0  0
   12.1553    7.3846  -11.2315 C   0  0  0  0  0  0  0  0  0  0  0  0
    8.0676    6.6451  -12.2974 C   0  0  0  0  0  0  0  0  0  0  0  0
   10.1892    6.1240  -10.3860 C   0  0  0  0  0  0  0  0  0  0  0  0
   11.8375    5.4373  -13.3240 O   0  0  0  0  0  0  0  0  0  0  0  0
    8.6785    5.4761  -13.0273 C   0  0  1  0  0  0  0  0  0  0  0  0
    9.1969    5.2405  -10.4969 C   0  0  2  0  0  0  0  0  0  0  0  0
    7.2213    6.2210  -11.3074 C   0  0  2  0  0  0  0  0  0  0  0  0
   12.5590    7.6872   -9.9896 C   0  0  0  0  0  0  0  0  0  0  0  0
    9.7633    5.0333  -12.9720 C   0  0  1  0  0  0  0  0  0  0  0  0
   10.0661    4.0167  -14.0373 N   0  0  0  0  0  0  0  0  0  0  0  0
   13.6906    8.3004   -9.6233 O   0  0  0  0  0  0  0  0  0  0  0  0
    7.6357    4.5123  -12.6317 C   0  0  2  0  0  0  0  0  0  0  0  0
    6.8831    4.9171  -11.7031 C   0  0  2  0  0  0  0  0  0  0  0  0
   10.5937    6.6967   -9.1779 C   0  0  0  0  0  0  0  0  0  0  0  0
    9.5087    4.3263  -11.6925 C   0  0  2  0  0  0  0  0  0  0  0  0
   11.6359    7.4449   -8.9125 C   0  0  0  0  0  0  0  0  0  0  0  0
   11.9716    7.9159   -7.6200 C   0  0  0  0  0  0  0  0  0  0  0  0
    8.4648    3.6122  -12.2840 C   0  0  1  0  0  0  0  0  0  0  0  0
    7.9253    2.8004  -11.3926 C   0  0  0  0  0  0  0  0  0  0  0  0
    5.6047    4.5059  -11.7589 C   0  0  0  0  0  0  0  0  0  0  0  0
    7.6606    4.1297  -10.5699 C   0  0  0  0  0  0  0  0  0  0  0  0
   10.9559    7.6849   -6.6057 C   0  0  0  0  0  0  0  0  0  0  0  0
    8.0094    4.5092   -9.5664 C   0  0  0  0  0  0  0  0  0  0  0  0
    8.3033    4.0627   -8.4980 C   0  0  0  0  0  0  0  0  0  0  0  0
    6.3587    7.1012  -11.0392 O   0  0  0  0  0  0  0  0  0  0  0  0
   11.0186    3.9598  -14.9226 C   0  0  0  0  0  0  0  0  0  0  0  0
    8.1758    5.8633  -10.2511 C   0  0  1  0  0  0  0  0  0  0  0  0
   11.4648    2.7104  -15.2650 O   0  0  0  0  0  0  0  0  0  0  0  0
    9.9512    6.8220   -6.8436 C   0  0  0  0  0  0  0  0  0  0  0  0
    9.6899    6.3705   -8.1082 C   0  0  2  0  0  0  0  0  0  0  0  0
   11.2597    8.2901   -5.2396 C   0  0  0  0  0  0  0  0  0  0  0  0
   11.6068    9.7354   -5.2006 C   0  0  0  0  0  0  0  0  0  0  0  0
   10.9469    4.9352  -15.8306 C   0  0  0  0  0  0  0  0  0  0  0  0
    9.2417    4.9555   -7.8256 C   0  0  0  0  0  0  0  0  0  0  0  0
   11.3657    7.7043   -4.0379 C   0  0  0  0  0  0  0  0  0  0  0  0
   11.4469   10.6225   -6.4157 C   0  0  0  0  0  0  0  0  0  0  0  0
   11.9077   10.2897   -3.9889 C   0  0  0  0  0  0  0  0  0  0  0  0
   11.9472    9.5143   -2.8307 C   0  0  0  0  0  0  0  0  0  0  0  0
    9.3030    2.8335  -13.6243 C   0  0  0  0  0  0  0  0  0  0  0  0
   11.0706    6.0966   -4.1041 S   0  0  0  0  0  0  0  0  0  0  0  0
   11.7343    8.3349   -3.0045 C   0  0  0  0  0  0  0  0  0  0  0  0
   12.1398    5.5239   -4.8589 O   0  0  0  0  0  0  0  0  0  0  0  0
   11.2273    5.7924   -2.5132 O   0  0  0  0  0  0  0  0  0  0  0  0
    9.7296    5.7465   -4.5156 C   0  0  0  0  0  0  0  0  0  0  0  0
    8.8786    6.8007   -5.9523 C   0  0  0  0  0  0  0  0  0  0  0  0
    7.8637    7.2355   -6.3338 O   0  0  0  0  0  0  0  0  0  0  0  0
    9.0549    6.1378   -4.9092 C   0  0  0  0  0  0  0  0  0  0  0  0
  1  2  1  0  0  0  0
  2  3  1  0  0  0  0
  2  7  2  0  0  0  0
  4  3  1  6  0  0  0
  4  5  1  0  0  0  0
  4  6  1  0  0  0  0
  4  8  1  0  0  0  0
  5  9  2  0  0  0  0
  6 13  1  0  0  0  0
  7 12  1  0  0  0  0
  8 19  2  0  0  0  0
 10  7  1  1  0  0  0
 10 14  1  0  0  0  0
 10 17  1  0  0  0  0
 11  8  1  6  0  0  0
 11 20  1  0  0  0  0
 11 32  1  0  0  0  0
 12 18  1  0  0  0  0
 12 30  1  1  0  0  0
 12 32  1  0  0  0  0
 13 16  2  0  0  0  0
 13 21  1  0  0  0  0
 14  5  1  1  0  0  0
 14 15  1  0  0  0  0
 14 20  1  0  0  0  0
 15 31  1  0  0  0  0
 15 44  1  0  0  0  0
 17 18  1  0  0  0  0
 17 23  1  0  0  0  0
 18 25  1  0  0  0  0
 18 26  1  0  0  0  0
 19 21  1  0  0  0  0
 19 35  1  0  0  0  0
 20 23  1  0  0  0  0
 21 22  2  0  0  0  0
 22 27  1  0  0  0  0
 23 24  1  0  0  0  0
 23 44  1  0  0  0  0
 24 26  1  0  0  0  0
 26 28  2  0  0  0  0
 27 34  2  0  0  0  0
 27 36  1  0  0  0  0
 28 29  1  0  0  0  0
 28 32  1  0  0  0  0
 29 39  2  0  0  0  0
 31 33  2  0  0  0  0
 31 38  1  0  0  0  0
 34 35  1  0  0  0  0
 34 50  1  0  0  0  0
 35 39  1  0  0  0  0
 36 37  1  0  0  0  0
 36 40  2  0  0  0  0
 37 41  1  0  0  0  0
 37 42  2  0  0  0  0
 40 45  1  0  0  0  0
 40 46  1  0  0  0  0
 42 43  1  0  0  0  0
 43 46  2  0  0  0  0
 45 47  2  0  0  0  0
 45 48  2  0  0  0  0
 45 49  1  0  0  0  0
 49 52  1  0  0  0  0
 50 51  2  0  0  0  0
 50 52  1  0  0  0  0
M  END
$$$$

 OpenBabel10082411353D

 53 65  0  0  0  0  0  0  0  0999 V2000
    8.0806    9.0240  -12.7589 C   0  0  0  0  0  0  0  0  0  0  0  0
    8.6514    7.8645  -12.2948 C   0  0  0  0  0  0  0  0  0  0  0  0
    9.9575    7.9974  -11.8426 C   0  0  0  0  0  0  0  0  0  0  0  0
   10.7657    6.8667  -11.6050 C   0  0  1  0  0  0  0  0  0  0  0  0
   10.7682    5.9590  -12.8271 C   0  0  0  0  0  0  0  0  0  0  0  0
   12.1553    7.3846  -11.2315 C   0  0  0  0  0  0  0  0  0  0  0  0
    8.0676    6.6451  -12.2974 C   0  0  0  0  0  0  0  0  0  0  0  0
   10.1892    6.1240  -10.3860 C   0  0  0  0  0  0  0  0  0  0  0  0
   11.8375    5.4373  -13.3240 O   0  0  0  0  0  0  0  0  0  0  0  0
    8.6785    5.4761  -13.0273 C   0  0  1  0  0  0  0  0  0  0  0  0
    9.1969    5.2405  -10.4969 C   0  0  2  0  0  0  0  0  0  0  0  0
    7.2213    6.2210  -11.3074 C   0  0  2  0  0  0  0  0  0  0  0  0
   12.5590    7.6872   -9.9896 C   0  0  0  0  0  0  0  0  0  0  0  0
    9.7633    5.0333  -12.9720 C   0  0  1  0  0  0  0  0  0  0  0  0
   10.0661    4.0167  -14.0373 N   0  0  0  0  0  0  0  0  0  0  0  0
   13.6906    8.3004   -9.6233 O   0  0  0  0  0  0  0  0  0  0  0  0
    7.6357    4.5123  -12.6317 C   0  0  2  0  0  0  0  0  0  0  0  0
    6.8831    4.9171  -11.7031 C   0  0  2  0  0  0  0  0  0  0  0  0
   10.5937    6.6967   -9.1779 C   0  0  0  0  0  0  0  0  0  0  0  0
    9.5087    4.3263  -11.6925 C   0  0  2  0  0  0  0  0  0  0  0  0
   11.6359    7.4449   -8.9125 C   0  0  0  0  0  0  0  0  0  0  0  0
   11.9716    7.9159   -7.6200 C   0  0  0  0  0  0  0  0  0  0  0  0
    8.4648    3.6122  -12.2840 C   0  0  1  0  0  0  0  0  0  0  0  0
    7.9253    2.8004  -11.3926 C   0  0  0  0  0  0  0  0  0  0  0  0
    5.6047    4.5059  -11.7589 C   0  0  0  0  0  0  0  0  0  0  0  0
    7.6606    4.1297  -10.5699 C   0  0  0  0  0  0  0  0  0  0  0  0
   10.9559    7.6849   -6.6057 C   0  0  0  0  0  0  0  0  0  0  0  0
    8.0094    4.5092   -9.5664 C   0  0  0  0  0  0  0  0  0  0  0  0
    8.3033    4.0627   -8.4980 C   0  0  0  0  0  0  0  0  0  0  0  0
    6.3587    7.1012  -11.0392 O   0  0  0  0  0  0  0  0  0  0  0  0
   11.0186    3.9598  -14.9226 C   0  0  0  0  0  0  0  0  0  0  0  0
    8.1758    5.8633  -10.2511 C   0  0  1  0  0  0  0  0  0  0  0  0
   11.4648    2.7104  -15.2650 O   0  0  0  0  0  0  0  0  0  0  0  0
    9.9512    6.8220   -6.8436 C   0  0  0  0  0  0  0  0  0  0  0  0
    9.6899    6.3705   -8.1082 C   0  0  2  0  0  0  0  0  0  0  0  0
   11.2597    8.2901   -5.2396 C   0  0  0  0  0  0  0  0  0  0  0  0
   11.6068    9.7354   -5.2006 C   0  0  0  0  0  0  0  0  0  0  0  0
   10.9469    4.9352  -15.8306 C   0  0  0  0  0  0  0  0  0  0  0  0
    9.2417    4.9555   -7.8256 C   0  0  0  0  0  0  0  0  0  0  0  0
   11.3657    7.7043   -4.0379 C   0  0  0  0  0  0  0  0  0  0  0  0
   11.4469   10.6225   -6.4157 C   0  0  0  0  0  0  0  0  0  0  0  0
   11.9077   10.2897   -3.9889 C   0  0  0  0  0  0  0  0  0  0  0  0
   11.9472    9.5143   -2.8307 C   0  0  0  0  0  0  0  0  0  0  0  0
    9.3030    2.8335  -13.6243 C   0  0  0  0  0  0  0  0  0  0  0  0
   11.0706    6.0966   -4.1041 S   0  0  0  0  0  0  0  0  0  0  0  0
   11.7343    8.3349   -3.0045 C   0  0  0  0  0  0  0  0  0  0  0  0
   12.1398    5.5239   -4.8589 O   0  0  0  0  0  0  0  0  0  0  0  0
   11.2273    5.7924   -2.5132 O   0  0  0  0  0  0  0  0  0  0  0  0
    9.7296    5.7465   -4.5156 C   0  0  0  0  0  0  0  0  0  0  0  0
    8.8786    6.8007   -5.9523 C   0  0  0  0  0  0  0  0  0  0  0  0
    7.8637    7.2355   -6.3338 O   0  0  0  0  0  0  0  0  0  0  0  0
    9.2748    4.5977   -3.7261 C   0  0  0  0  0  0  0  0  0  0  0  0
    8.7641    6.2147   -5.0724 C   0  0  0  0  0  0  0  0  0  0  0  0
  1  2  1  0  0  0  0
  2  3  1  0  0  0  0
  2  7  2  0  0  0  0
  4  3  1  6  0  0  0
  4  5  1  0  0  0  0
  4  6  1  0  0  0  0
  4  8  1  0  0  0  0
  5  9  2  0  0  0  0
  6 13  1  0  0  0  0
  7 12  1  0  0  0  0
  8 19  2  0  0  0  0
 10  7  1  1  0  0  0
 10 14  1  0  0  0  0
 10 17  1  0  0  0  0
 11  8  1  6  0  0  0
 11 20  1  0  0  0  0
 11 32  1  0  0  0  0
 12 18  1  0  0  0  0
 12 30  1  1  0  0  0
 12 32  1  0  0  0  0
 13 16  2  0  0  0  0
 13 21  1  0  0  0  0
 14  5  1  1  0  0  0
 14 15  1  0  0  0  0
 14 20  1  0  0  0  0
 15 31  1  0  0  0  0
 15 44  1  0  0  0  0
 17 18  1  0  0  0  0
 17 23  1  0  0  0  0
 18 25  1  0  0  0  0
 18 26  1  0  0  0  0
 19 21  1  0  0  0  0
 19 35  1  0  0  0  0
 20 23  1  0  0  0  0
 21 22  2  0  0  0  0
 22 27  1  0  0  0  0
 23 24  1  0  0  0  0
 23 44  1  0  0  0  0
 24 26  1  0  0  0  0
 26 28  2  0  0  0  0
 27 34  2  0  0  0  0
 27 36  1  0  0  0  0
 28 29  1  0  0  0  0
 28 32  1  0  0  0  0
 29 39  2  0  0  0  0
 31 33  2  0  0  0  0
 31 38  1  0  0  0  0
 34 35  1  0  0  0  0
 34 50  1  0  0  0  0
 35 39  1  0  0  0  0
 36 37  1  0  0  0  0
 36 40  2  0  0  0  0
 37 41  1  0  0  0  0
 37 42  2  0  0  0  0
 40 45  1  0  0  0  0
 40 46  1  0  0  0  0
 42 43  1  0  0  0  0
 43 46  2  0  0  0  0
 45 47  2  0  0  0  0
 45 48  2  0  0  0  0
 45 49  1  0  0  0  0
 49 52  1  0  0  0  0
 49 53  2  0  0  0  0
 50 51  2  0  0  0  0
 50 53  1  0  0  0  0
M  END
$$$$

 OpenBabel10082411353D

 53 66  0  0  0  0  0  0  0  0999 V2000
    8.0806    9.0240  -12.7589 C   0  0  0  0  0  0  0  0  0  0  0  0
    8.6514    7.8645  -12.2948 C   0  0  0  0  0  0  0  0  0  0  0  0
    9.9575    7.9974  -11.8426 C   0  0  0  0  0  0  0  0  0  0  0  0
   10.7657    6.8667  -11.6050 C   0  0  1  0  0  0  0  0  0  0  0  0
   10.7682    5.9590  -12.8271 C   0  0  0  0  0  0  0  0  0  0  0  0
   12.1553    7.3846  -11.2315 C   0  0  0  0  0  0  0  0  0  0  0  0
    8.0676    6.6451  -12.2974 C   0  0  0  0  0  0  0  0  0  0  0  0
   10.1892    6.1240  -10.3860 C   0  0  0  0  0  0  0  0  0  0  0  0
   11.8375    5.4373  -13.3240 O   0  0  0  0  0  0  0  0  0  0  0  0
    8.6785    5.4761  -13.0273 C   0  0  1  0  0  0  0  0  0  0  0  0
    9.1969    5.2405  -10.4969 C   0  0  2  0  0  0  0  0  0  0  0  0
    7.2213    6.2210  -11.3074 C   0  0  2  0  0  0  0  0  0  0  0  0
   12.5590    7.6872   -9.9896 C   0  0  0  0  0  0  0  0  0  0  0  0
    9.7633    5.0333  -12.9720 C   0  0  1  0  0  0  0  0  0  0  0  0
   10.0661    4.0167  -14.0373 N   0  0  0  0  0  0  0  0  0  0  0  0
   13.6906    8.3004   -9.6233 O   0  0  0  0  0  0  0  0  0  0  0  0
    7.6357    4.5123  -12.6317 C   0  0  2  0  0  0  0  0  0  0  0  0
    6.8831    4.9171  -11.7031 C   0  0  2  0  0  0  0  0  0  0  0  0
   10.5937    6.6967   -9.1779 C   0  0  0  0  0  0  0  0  0  0  0  0
    9.5087    4.3263  -11.6925 C   0  0  2  0  0  0  0  0  0  0  0  0
   11.6359    7.4449   -8.9125 C   0  0  0  0  0  0  0  0  0  0  0  0
   11.9716    7.9159   -7.6200 C   0  0  0  0  0  0  0  0  0  0  0  0
    8.4648    3.6122  -12.2840 C   0  0  1  0  0  0  0  0  0  0  0  0
    7.9253    2.8004  -11.3926 C   0  0  0  0  0  0  0  0  0  0  0  0
    5.6047    4.5059  -11.7589 C   0  0  0  0  0  0  0  0  0  0  0  0
    7.6606    4.1297  -10.5699 C   0  0  0  0  0  0  0  0  0  0  0  0
   10.9559    7.6849   -6.6057 C   0  0  0  0  0  0  0  0  0  0  0  0
    8.0094    4.5092   -9.5664 C   0  0  0  0  0  0  0  0  0  0  0  0
    8.3033    4.0627   -8.4980 C   0  0  0  0  0  0  0  0  0  0  0  0
    6.3587    7.1012  -11.0392 O   0  0  0  0  0  0  0  0  0  0  0  0
   11.0186    3.9598  -14.9226 C   0  0  0  0  0  0  0  0  0  0  0  0
    8.1758    5.8633  -10.2511 C   0  0  1  0  0  0  0  0  0  0  0  0
   11.4648    2.7104  -15.2650 O   0  0  0  0  0  0  0  0  0  0  0  0
    9.9512    6.8220   -6.8436 C   0  0  0  0  0  0  0  0  0  0  0  0
    9.6899    6.3705   -8.1082 C   0  0  2  0  0  0  0  0  0  0  0  0
   11.2597    8.2901   -5.2396 C   0  0  0  0  0  0  0  0  0  0  0  0
   11.6068    9.7354   -5.2006 C   0  0  0  0  0  0  0  0  0  0  0  0
   10.9469    4.9352  -15.8306 C   0  0  0  0  0  0  0  0  0  0  0  0
    9.2417    4.9555   -7.8256 C   0  0  0  0  0  0  0  0  0  0  0  0
   11.3657    7.7043   -4.0379 C   0  0  0  0  0  0  0  0  0  0  0  0
   11.4469   10.6225   -6.4157 C   0  0  0  0  0  0  0  0  0  0  0  0
   11.9077   10.2897   -3.9889 C   0  0  0  0  0  0  0  0  0  0  0  0
   11.9472    9.5143   -2.8307 C   0  0  0  0  0  0  0  0  0  0  0  0
    9.3030    2.8335  -13.6243 C   0  0  0  0  0  0  0  0  0  0  0  0
   11.0706    6.0966   -4.1041 S   0  0  0  0  0  0  0  0  0  0  0  0
   11.7343    8.3349   -3.0045 C   0  0  0  0  0  0  0  0  0  0  0  0
   12.1398    5.5239   -4.8589 O   0  0  0  0  0  0  0  0  0  0  0  0
   11.2273    5.7924   -2.5132 O   0  0  0  0  0  0  0  0  0  0  0  0
    9.7296    5.7465   -4.5156 C   0  0  0  0  0  0  0  0  0  0  0  0
    8.8786    6.8007   -5.9523 C   0  0  0  0  0  0  0  0  0  0  0  0
    7.8637    7.2355   -6.3338 O   0  0  0  0  0  0  0  0  0  0  0  0
    8.9708    5.6024   -5.4691 C   0  0  1  0  0  0  0  0  0  0  0  0
    9.1824    4.5819   -6.4512 C   0  0  0  0  0  0  0  0  0  0  0  0
  1  2  1  0  0  0  0
  2  3  1  0  0  0  0
  2  7  2  0  0  0  0
  4  3  1  6  0  0  0
  4  5  1  0  0  0  0
  4  6  1  0  0  0  0
  4  8  1  0  0  0  0
  5  9  2  0  0  0  0
  6 13  1  0  0  0  0
  7 12  1  0  0  0  0
  8 19  2  0  0  0  0
 10  7  1  1  0  0  0
 10 14  1  0  0  0  0
 10 17  1  0  0  0  0
 11  8  1  6  0  0  0
 11 20  1  0  0  0  0
 11 32  1  0  0  0  0
 12 18  1  0  0  0  0
 12 30  1  1  0  0  0
 12 32  1  0  0  0  0
 13 16  2  0  0  0  0
 13 21  1  0  0  0  0
 14  5  1  1  0  0  0
 14 15  1  0  0  0  0
 14 20  1  0  0  0  0
 15 31  1  0  0  0  0
 15 44  1  0  0  0  0
 17 18  1  0  0  0  0
 17 23  1  0  0  0  0
 18 25  1  0  0  0  0
 18 26  1  0  0  0  0
 19 21  1  0  0  0  0
 19 35  1  0  0  0  0
 20 23  1  0  0  0  0
 21 22  2  0  0  0  0
 22 27  1  0  0  0  0
 23 24  1  0  0  0  0
 23 44  1  0  0  0  0
 24 26  1  0  0  0  0
 26 28  2  0  0  0  0
 27 34  2  0  0  0  0
 27 36  1  0  0  0  0
 28 29  1  0  0  0  0
 28 32  1  0  0  0  0
 29 39  2  0  0  0  0
 31 33  2  0  0  0  0
 31 38  1  0  0  0  0
 34 35  1  0  0  0  0
 34 50  1  0  0  0  0
 35 39  1  0  0  0  0
 36 37  1  0  0  0  0
 36 40  2  0  0  0  0
 37 41  1  0  0  0  0
 37 42  2  0  0  0  0
 39 53  1  0  0  0  0
 40 45  1  0  0  0  0
 40 46  1  0  0  0  0
 42 43  1  0  0  0  0
 43 46  2  0  0  0  0
 45 47  2  0  0  0  0
 45 48  2  0  0  0  0
 45 49  1  0  0  0  0
 49 52  1  0  0  0  0
 50 51  2  0  0  0  0
 50 52  1  0  0  0  0
 52 53  1  0  0  0  0
M  END
$$$$

 OpenBabel10082411353D

 53 66  0  0  0  0  0  0  0  0999 V2000
    8.0806    9.0240  -12.7589 C   0  0  0  0  0  0  0  0  0  0  0  0
    8.6514    7.8645  -12.2948 C   0  0  0  0  0  0  0  0  0  0  0  0
    9.9575    7.9974  -11.8426 C   0  0  0  0  0  0  0  0  0  0  0  0
   10.7657    6.8667  -11.6050 C   0  0  1  0  0  0  0  0  0  0  0  0
   10.7682    5.9590  -12.8271 C   0  0  0  0  0  0  0  0  0  0  0  0
   12.1553    7.3846  -11.2315 C   0  0  0  0  0  0  0  0  0  0  0  0
    8.0676    6.6451  -12.2974 C   0  0  0  0  0  0  0  0  0  0  0  0
   10.1892    6.1240  -10.3860 C   0  0  0  0  0  0  0  0  0  0  0  0
   11.8375    5.4373  -13.3240 O   0  0  0  0  0  0  0  0  0  0  0  0
    8.6785    5.4761  -13.0273 C   0  0  1  0  0  0  0  0  0  0  0  0
    9.1969    5.2405  -10.4969 C   0  0  2  0  0  0  0  0  0  0  0  0
    7.2213    6.2210  -11.3074 C   0  0  2  0  0  0  0  0  0  0  0  0
   12.5590    7.6872   -9.9896 C   0  0  0  0  0  0  0  0  0  0  0  0
    9.7633    5.0333  -12.9720 C   0  0  1  0  0  0  0  0  0  0  0  0
   10.0661    4.0167  -14.0373 N   0  0  0  0  0  0  0  0  0  0  0  0
   13.6906    8.3004   -9.6233 O   0  0  0  0  0  0  0  0  0  0  0  0
    7.6357    4.5123  -12.6317 C   0  0  2  0  0  0  0  0  0  0  0  0
    6.8831    4.9171  -11.7031 C   0  0  2  0  0  0  0  0  0  0  0  0
   10.5937    6.6967   -9.1779 C   0  0  0  0  0  0  0  0  0  0  0  0
    9.5087    4.3263  -11.6925 C   0  0  2  0  0  0  0  0  0  0  0  0
   11.6359    7.4449   -8.9125 C   0  0  0  0  0  0  0  0  0  0  0  0
   11.9716    7.9159   -7.6200 C   0  0  0  0  0  0  0  0  0  0  0  0
    8.4648    3.6122  -12.2840 C   0  0  1  0  0  0  0  0  0  0  0  0
    7.9253    2.8004  -11.3926 C   0  0  0  0  0  0  0  0  0  0  0  0
    5.6047    4.5059  -11.7589 C   0  0  0  0  0  0  0  0  0  0  0  0
    7.6606    4.1297  -10.5699 C   0  0  0  0  0  0  0  0  0  0  0  0
   10.9559    7.6849   -6.6057 C   0  0  0  0  0  0  0  0  0  0  0  0
    8.0094    4.5092   -9.5664 C   0  0  0  0  0  0  0  0  0  0  0  0
    8.3033    4.0627   -8.4980 C   0  0  0  0  0  0  0  0  0  0  0  0
    6.3587    7.1012  -11.0392 O   0  0  0  0  0  0  0  0  0  0  0  0
   11.0186    3.9598  -14.9226 C   0  0  0  0  0  0  0  0  0  0  0  0
    8.1758    5.8633  -10.2511 C   0  0  1  0  0  0  0  0  0  0  0  0
   11.4648    2.7104  -15.2650 O   0  0  0  0  0  0  0  0  0  0  0  0
    9.9512    6.8220   -6.8436 C   0  0  0  0  0  0  0  0  0  0  0  0
    9.6899    6.3705   -8.1082 C   0  0  2  0  0  0  0  0  0  0  0  0
   11.2597    8.2901   -5.2396 C   0  0  0  0  0  0  0  0  0  0  0  0
   11.6068    9.7354   -5.2006 C   0  0  0  0  0  0  0  0  0  0  0  0
   10.9469    4.9352  -15.8306 C   0  0  0  0  0  0  0  0  0  0  0  0
    9.2417    4.9555   -7.8256 C   0  0  0  0  0  0  0  0  0  0  0  0
   11.3657    7.7043   -4.0379 C   0  0  0  0  0  0  0  0  0  0  0  0
   11.4469   10.6225   -6.4157 C   0  0  0  0  0  0  0  0  0  0  0  0
   11.9077   10.2897   -3.9889 C   0  0  0  0  0  0  0  0  0  0  0  0
   11.9472    9.5143   -2.8307 C   0  0  0  0  0  0  0  0  0  0  0  0
    9.3030    2.8335  -13.6243 C   0  0  0  0  0  0  0  0  0  0  0  0
   11.0706    6.0966   -4.1041 S   0  0  0  0  0  0  0  0  0  0  0  0
   11.7343    8.3349   -3.0045 C   0  0  0  0  0  0  0  0  0  0  0  0
   12.1398    5.5239   -4.8589 O   0  0  0  0  0  0  0  0  0  0  0  0
   11.2273    5.7924   -2.5132 O   0  0  0  0  0  0  0  0  0  0  0  0
    9.7296    5.7465   -4.5156 C   0  0  0  0  0  0  0  0  0  0  0  0
    8.8786    6.8007   -5.9523 C   0  0  0  0  0  0  0  0  0  0  0  0
    7.8637    7.2355   -6.3338 O   0  0  0  0  0  0  0  0  0  0  0  0
    8.9708    5.6024   -5.4691 C   0  0  1  0  0  0  0  0  0  0  0  0
    9.2340    4.8334   -6.2840 N   0  0  0  0  0  0  0  0  0  0  0  0
  1  2  1  0  0  0  0
  2  3  1  0  0  0  0
  2  7  2  0  0  0  0
  4  3  1  6  0  0  0
  4  5  1  0  0  0  0
  4  6  1  0  0  0  0
  4  8  1  0  0  0  0
  5  9  2  0  0  0  0
  6 13  1  0  0  0  0
  7 12  1  0  0  0  0
  8 19  2  0  0  0  0
 10  7  1  1  0  0  0
 10 14  1  0  0  0  0
 10 17  1  0  0  0  0
 11  8  1  6  0  0  0
 11 20  1  0  0  0  0
 11 32  1  0  0  0  0
 12 18  1  0  0  0  0
 12 30  1  1  0  0  0
 12 32  1  0  0  0  0
 13 16  2  0  0  0  0
 13 21  1  0  0  0  0
 14  5  1  1  0  0  0
 14 15  1  0  0  0  0
 14 20  1  0  0  0  0
 15 31  1  0  0  0  0
 15 44  1  0  0  0  0
 17 18  1  0  0  0  0
 17 23  1  0  0  0  0
 18 25  1  0  0  0  0
 18 26  1  0  0  0  0
 19 21  1  0  0  0  0
 19 35  1  0  0  0  0
 20 23  1  0  0  0  0
 21 22  2  0  0  0  0
 22 27  1  0  0  0  0
 23 24  1  0  0  0  0
 23 44  1  0  0  0  0
 24 26  1  0  0  0  0
 26 28  2  0  0  0  0
 27 34  2  0  0  0  0
 27 36  1  0  0  0  0
 28 29  1  0  0  0  0
 28 32  1  0  0  0  0
 29 39  2  0  0  0  0
 31 33  2  0  0  0  0
 31 38  1  0  0  0  0
 34 35  1  0  0  0  0
 34 50  1  0  0  0  0
 35 39  1  0  0  0  0
 36 37  1  0  0  0  0
 36 40  2  0  0  0  0
 37 41  1  0  0  0  0
 37 42  2  0  0  0  0
 39 53  1  0  0  0  0
 40 45  1  0  0  0  0
 40 46  1  0  0  0  0
 42 43  1  0  0  0  0
 43 46  2  0  0  0  0
 45 47  2  0  0  0  0
 45 48  2  0  0  0  0
 45 49  1  0  0  0  0
 49 52  1  0  0  0  0
 50 51  2  0  0  0  0
 50 52  1  0  0  0  0
 52 53  1  0  0  0  0
M  END
$$$$

 OpenBabel10082411353D

 28 32  0  0  0  0  0  0  0  0999 V2000
   12.8881    8.7759   -3.5681 C   0  0  0  0  0  0  0  0  0  0  0  0
   11.9416    9.4732   -4.1220 C   0  0  0  0  0  0  0  0  0  0  0  0
   12.1782    9.3707   -5.6407 C   0  0  0  0  0  0  0  0  0  0  0  0
   11.3825    8.3447   -6.3966 C   0  0  0  0  0  0  0  0  0  0  0  0
   11.8188    8.0044   -7.6822 C   0  0  0  0  0  0  0  0  0  0  0  0
   10.3120    7.6600   -5.7120 C   0  0  0  0  0  0  0  0  0  0  0  0
   10.8678    7.0723   -8.2897 C   0  0  0  0  0  0  0  0  0  0  0  0
    9.5717    6.7245   -6.3809 C   0  0  0  0  0  0  0  0  0  0  0  0
    9.8820    6.4468   -7.7081 C   0  0  0  0  0  0  0  0  0  0  0  0
   11.2611    6.6953   -9.7105 C   0  0  1  0  0  0  0  0  0  0  0  0
   10.0425    6.5460  -10.5971 C   0  0  0  0  0  0  0  0  0  0  0  0
   11.8062    7.8130  -10.4883 C   0  0  0  0  0  0  0  0  0  0  0  0
    8.8746    5.5265   -8.4149 C   0  0  0  0  0  0  0  0  0  0  0  0
   13.1546    8.1022  -10.4049 O   0  0  0  0  0  0  0  0  0  0  0  0
   10.3114    6.7627  -11.8786 C   0  0  0  0  0  0  0  0  0  0  0  0
   11.3906    7.6694  -11.8036 N   0  0  0  0  0  0  0  0  0  0  0  0
   11.9779    8.2398  -13.0316 C   0  0  0  0  0  0  0  0  0  0  0  0
    8.8154    6.0162   -9.9613 C   0  0  0  0  0  0  0  0  0  0  0  0
    9.6102    6.3636  -13.0859 C   0  0  0  0  0  0  0  0  0  0  0  0
   11.8804    7.4718  -14.1937 C   0  0  0  0  0  0  0  0  0  0  0  0
   10.7017    6.3981  -14.2482 C   0  0  0  0  0  0  0  0  0  0  0  0
   10.3813    5.8427  -15.4547 C   0  0  0  0  0  0  0  0  0  0  0  0
    9.2579    5.0507  -15.6184 C   0  0  0  0  0  0  0  0  0  0  0  0
   11.6009    5.0735  -15.6795 C   0  0  0  0  0  0  0  0  0  0  0  0
   11.6469    3.8214  -15.1591 C   0  0  0  0  0  0  0  0  0  0  0  0
   10.4803    3.3447  -14.5089 C   0  0  0  0  0  0  0  0  0  0  0  0
   10.5729    2.0537  -13.9541 O   0  0  0  0  0  0  0  0  0  0  0  0
    9.4068    3.7249  -15.1319 C   0  0  0  0  0  0  0  0  0  0  0  0
  1  2  1  0  0  0  0
  2  3  1  0  0  0  0
  3  4  1  0  0  0  0
  4  5  2  0  0  0  0
  4  6  1  0  0  0  0
  5  7  1  0  0  0  0
  6  8  2  0  0  0  0
  7  9  2  0  0  0  0
  8  9  1  0  0  0  0
  9 13  1  0  0  0  0
 10  7  1  1  0  0  0
 10 11  1  0  0  0  0
 10 12  1  0  0  0  0
 11 15  2  0  0  0  0
 11 18  1  0  0  0  0
 12 14  2  0  0  0  0
 12 16  1  0  0  0  0
 13 18  1  0  0  0  0
 15 16  1  0  0  0  0
 15 19  1  0  0  0  0
 16 17  1  0  0  0  0
 17 20  1  0  0  0  0
 19 21  1  0  0  0  0
 20 21  2  0  0  0  0
 21 22  1  0  0  0  0
 22 23  1  0  0  0  0
 22 24  1  0  0  0  0
 23 28  1  0  0  0  0
 24 25  1  0  0  0  0
 25 26  1  0  0  0  0
 26 27  2  0  0  0  0
 26 28  1  0  0  0  0
M  END
$$$$

 OpenBabel10082411353D

 53 66  0  0  0  0  0  0  0  0999 V2000
    8.0806    9.0240  -12.7589 C   0  0  0  0  0  0  0  0  0  0  0  0
    8.6514    7.8645  -12.2948 C   0  0  0  0  0  0  0  0  0  0  0  0
    9.9575    7.9974  -11.8426 C   0  0  0  0  0  0  0  0  0  0  0  0
   10.7657    6.8667  -11.6050 C   0  0  1  0  0  0  0  0  0  0  0  0
   10.7682    5.9590  -12.8271 C   0  0  0  0  0  0  0  0  0  0  0  0
   12.1553    7.3846  -11.2315 C   0  0  0  0  0  0  0  0  0  0  0  0
    8.0676    6.6451  -12.2974 C   0  0  0  0  0  0  0  0  0  0  0  0
   10.1892    6.1240  -10.3860 C   0  0  0  0  0  0  0  0  0  0  0  0
   11.8375    5.4373  -13.3240 O   0  0  0  0  0  0  0  0  0  0  0  0
    8.6785    5.4761  -13.0273 C   0  0  1  0  0  0  0  0  0  0  0  0
    9.1969    5.2405  -10.4969 C   0  0  2  0  0  0  0  0  0  0  0  0
    7.2213    6.2210  -11.3074 C   0  0  2  0  0  0  0  0  0  0  0  0
   12.5590    7.6872   -9.9896 C   0  0  0  0  0  0  0  0  0  0  0  0
    9.7633    5.0333  -12.9720 C   0  0  1  0  0  0  0  0  0  0  0  0
   10.0661    4.0167  -14.0373 N   0  0  0  0  0  0  0  0  0  0  0  0
   13.6906    8.3004   -9.6233 O   0  0  0  0  0  0  0  0  0  0  0  0
    7.6357    4.5123  -12.6317 C   0  0  2  0  0  0  0  0  0  0  0  0
    6.8831    4.9171  -11.7031 C   0  0  2  0  0  0  0  0  0  0  0  0
   10.5937    6.6967   -9.1779 C   0  0  0  0  0  0  0  0  0  0  0  0
    9.5087    4.3263  -11.6925 C   0  0  2  0  0  0  0  0  0  0  0  0
   11.6359    7.4449   -8.9125 C   0  0  0  0  0  0  0  0  0  0  0  0
   11.9716    7.9159   -7.6200 C   0  0  0  0  0  0  0  0  0  0  0  0
    8.4648    3.6122  -12.2840 C   0  0  1  0  0  0  0  0  0  0  0  0
    7.9253    2.8004  -11.3926 C   0  0  0  0  0  0  0  0  0  0  0  0
    5.6047    4.5059  -11.7589 C   0  0  0  0  0  0  0  0  0  0  0  0
    7.6606    4.1297  -10.5699 C   0  0  0  0  0  0  0  0  0  0  0  0
   10.9559    7.6849   -6.6057 C   0  0  0  0  0  0  0  0  0  0  0  0
    8.0094    4.5092   -9.5664 C   0  0  0  0  0  0  0  0  0  0  0  0
    8.3033    4.0627   -8.4980 C   0  0  0  0  0  0  0  0  0  0  0  0
    6.3587    7.1012  -11.0392 O   0  0  0  0  0  0  0  0  0  0  0  0
   11.0186    3.9598  -14.9226 C   0  0  0  0  0  0  0  0  0  0  0  0
    8.1758    5.8633  -10.2511 C   0  0  1  0  0  0  0  0  0  0  0  0
   11.4648    2.7104  -15.2650 O   0  0  0  0  0  0  0  0  0  0  0  0
    9.9512    6.8220   -6.8436 C   0  0  0  0  0  0  0  0  0  0  0  0
    9.6899    6.3705   -8.1082 C   0  0  2  0  0  0  0  0  0  0  0  0
   11.2597    8.2901   -5.2396 C   0  0  0  0  0  0  0  0  0  0  0  0
   11.6068    9.7354   -5.2006 C   0  0  0  0  0  0  0  0  0  0  0  0
   10.9469    4.9352  -15.8306 C   0  0  0  0  0  0  0  0  0  0  0  0
    9.2417    4.9555   -7.8256 C   0  0  0  0  0  0  0  0  0  0  0  0
   11.3657    7.7043   -4.0379 C   0  0  0  0  0  0  0  0  0  0  0  0
   11.4469   10.6225   -6.4157 C   0  0  0  0  0  0  0  0  0  0  0  0
   11.9077   10.2897   -3.9889 C   0  0  0  0  0  0  0  0  0  0  0  0
   11.9472    9.5143   -2.8307 C   0  0  0  0  0  0  0  0  0  0  0  0
    9.3030    2.8335  -13.6243 C   0  0  0  0  0  0  0  0  0  0  0  0
   11.0706    6.0966   -4.1041 S   0  0  0  0  0  0  0  0  0  0  0  0
   11.7343    8.3349   -3.0045 C   0  0  0  0  0  0  0  0  0  0  0  0
   12.1398    5.5239   -4.8589 O   0  0  0  0  0  0  0  0  0  0  0  0
   11.2273    5.7924   -2.5132 O   0  0  0  0  0  0  0  0  0  0  0  0
    9.7296    5.7465   -4.5156 C   0  0  2  0  0  0  0  0  0  0  0  0
    8.8786    6.8007   -5.9523 C   0  0  0  0  0  0  0  0  0  0  0  0
    9.3176    4.5037   -3.9953 C   0  0  0  0  0  0  0  0  0  0  0  0
    8.8600    5.6672   -5.2073 C   0  0  2  0  0  0  0  0  0  0  0  0
    8.2868    4.2279   -4.6404 C   0  0  0  0  0  0  0  0  0  0  0  0
  1  2  1  0  0  0  0
  2  3  1  0  0  0  0
  2  7  2  0  0  0  0
  4  3  1  6  0  0  0
  4  5  1  0  0  0  0
  4  6  1  0  0  0  0
  4  8  1  0  0  0  0
  5  9  2  0  0  0  0
  6 13  1  0  0  0  0
  7 12  1  0  0  0  0
  8 19  2  0  0  0  0
 10  7  1  1  0  0  0
 10 14  1  0  0  0  0
 10 17  1  0  0  0  0
 11  8  1  6  0  0  0
 11 20  1  0  0  0  0
 11 32  1  0  0  0  0
 12 18  1  0  0  0  0
 12 30  1  1  0  0  0
 12 32  1  0  0  0  0
 13 16  2  0  0  0  0
 13 21  1  0  0  0  0
 14  5  1  1  0  0  0
 14 15  1  0  0  0  0
 14 20  1  0  0  0  0
 15 31  1  0  0  0  0
 15 44  1  0  0  0  0
 17 18  1  0  0  0  0
 17 23  1  0  0  0  0
 18 25  1  0  0  0  0
 18 26  1  0  0  0  0
 19 21  1  0  0  0  0
 19 35  1  0  0  0  0
 20 23  1  0  0  0  0
 21 22  2  0  0  0  0
 22 27  1  0  0  0  0
 23 24  1  0  0  0  0
 23 44  1  0  0  0  0
 24 26  1  0  0  0  0
 26 28  2  0  0  0  0
 27 34  2  0  0  0  0
 27 36  1  0  0  0  0
 28 29  1  0  0  0  0
 28 32  1  0  0  0  0
 29 39  2  0  0  0  0
 31 33  2  0  0  0  0
 31 38  1  0  0  0  0
 34 35  1  0  0  0  0
 34 50  1  0  0  0  0
 35 39  1  0  0  0  0
 36 37  1  0  0  0  0
 36 40  2  0  0  0  0
 37 41  1  0  0  0  0
 37 42  2  0  0  0  0
 40 45  1  0  0  0  0
 40 46  1  0  0  0  0
 42 43  1  0  0  0  0
 43 46  2  0  0  0  0
 45 47  2  0  0  0  0
 45 48  2  0  0  0  0
 45 49  1  0  0  0  0
 49 51  1  0  0  0  0
 49 52  1  0  0  0  0
 50 52  1  0  0  0  0
 51 53  1  0  0  0  0
 52 53  1  0  0  0  0
M  END
$$$$

 OpenBabel10082411353D

 54 67  0  0  0  0  0  0  0  0999 V2000
    8.0806    9.0240  -12.7589 C   0  0  0  0  0  0  0  0  0  0  0  0
    8.6514    7.8645  -12.2948 C   0  0  0  0  0  0  0  0  0  0  0  0
    9.9575    7.9974  -11.8426 C   0  0  0  0  0  0  0  0  0  0  0  0
   10.7657    6.8667  -11.6050 C   0  0  1  0  0  0  0  0  0  0  0  0
   10.7682    5.9590  -12.8271 C   0  0  0  0  0  0  0  0  0  0  0  0
   12.1553    7.3846  -11.2315 C   0  0  0  0  0  0  0  0  0  0  0  0
    8.0676    6.6451  -12.2974 C   0  0  0  0  0  0  0  0  0  0  0  0
   10.1892    6.1240  -10.3860 C   0  0  0  0  0  0  0  0  0  0  0  0
   11.8375    5.4373  -13.3240 O   0  0  0  0  0  0  0  0  0  0  0  0
    8.6785    5.4761  -13.0273 C   0  0  1  0  0  0  0  0  0  0  0  0
    9.1969    5.2405  -10.4969 C   0  0  2  0  0  0  0  0  0  0  0  0
    7.2213    6.2210  -11.3074 C   0  0  2  0  0  0  0  0  0  0  0  0
   12.5590    7.6872   -9.9896 C   0  0  0  0  0  0  0  0  0  0  0  0
    9.7633    5.0333  -12.9720 C   0  0  1  0  0  0  0  0  0  0  0  0
   10.0661    4.0167  -14.0373 N   0  0  0  0  0  0  0  0  0  0  0  0
   13.6906    8.3004   -9.6233 O   0  0  0  0  0  0  0  0  0  0  0  0
    7.6357    4.5123  -12.6317 C   0  0  2  0  0  0  0  0  0  0  0  0
    6.8831    4.9171  -11.7031 C   0  0  2  0  0  0  0  0  0  0  0  0
   10.5937    6.6967   -9.1779 C   0  0  0  0  0  0  0  0  0  0  0  0
    9.5087    4.3263  -11.6925 C   0  0  2  0  0  0  0  0  0  0  0  0
   11.6359    7.4449   -8.9125 C   0  0  0  0  0  0  0  0  0  0  0  0
   11.9716    7.9159   -7.6200 C   0  0  0  0  0  0  0  0  0  0  0  0
    8.4648    3.6122  -12.2840 C   0  0  1  0  0  0  0  0  0  0  0  0
    7.9253    2.8004  -11.3926 C   0  0  0  0  0  0  0  0  0  0  0  0
    5.6047    4.5059  -11.7589 C   0  0  0  0  0  0  0  0  0  0  0  0
    7.6606    4.1297  -10.5699 C   0  0  0  0  0  0  0  0  0  0  0  0
   10.9559    7.6849   -6.6057 C   0  0  0  0  0  0  0  0  0  0  0  0
    8.0094    4.5092   -9.5664 C   0  0  0  0  0  0  0  0  0  0  0  0
    8.3033    4.0627   -8.4980 C   0  0  0  0  0  0  0  0  0  0  0  0
    6.3587    7.1012  -11.0392 O   0  0  0  0  0  0  0  0  0  0  0  0
   11.0186    3.9598  -14.9226 C   0  0  0  0  0  0  0  0  0  0  0  0
    8.1758    5.8633  -10.2511 C   0  0  1  0  0  0  0  0  0  0  0  0
   11.4648    2.7104  -15.2650 O   0  0  0  0  0  0  0  0  0  0  0  0
    9.9512    6.8220   -6.8436 C   0  0  0  0  0  0  0  0  0  0  0  0
    9.6899    6.3705   -8.1082 C   0  0  2  0  0  0  0  0  0  0  0  0
   11.2597    8.2901   -5.2396 C   0  0  0  0  0  0  0  0  0  0  0  0
   11.6068    9.7354   -5.2006 C   0  0  0  0  0  0  0  0  0  0  0  0
   10.9469    4.9352  -15.8306 C   0  0  0  0  0  0  0  0  0  0  0  0
    9.2417    4.9555   -7.8256 C   0  0  0  0  0  0  0  0  0  0  0  0
   11.3657    7.7043   -4.0379 C   0  0  0  0  0  0  0  0  0  0  0  0
   11.4469   10.6225   -6.4157 C   0  0  0  0  0  0  0  0  0  0  0  0
   11.9077   10.2897   -3.9889 C   0  0  0  0  0  0  0  0  0  0  0  0
   11.9472    9.5143   -2.8307 C   0  0  0  0  0  0  0  0  0  0  0  0
    9.3030    2.8335  -13.6243 C   0  0  0  0  0  0  0  0  0  0  0  0
   11.0706    6.0966   -4.1041 S   0  0  0  0  0  0  0  0  0  0  0  0
   11.7343    8.3349   -3.0045 C   0  0  0  0  0  0  0  0  0  0  0  0
   12.1398    5.5239   -4.8589 O   0  0  0  0  0  0  0  0  0  0  0  0
   11.2273    5.7924   -2.5132 O   0  0  0  0  0  0  0  0  0  0  0  0
    9.7296    5.7465   -4.5156 C   0  0  1  0  0  0  0  0  0  0  0  0
    8.8786    6.8007   -5.9523 C   0  0  0  0  0  0  0  0  0  0  0  0
    9.3176    4.5037   -3.9953 C   0  0  0  0  0  0  0  0  0  0  0  0
    8.7031    6.1825   -5.0735 C   0  0  1  0  0  0  0  0  0  0  0  0
    7.9283    4.2672   -4.1689 C   0  0  0  0  0  0  0  0  0  0  0  0
    7.5324    5.1735   -4.3324 C   0  0  0  0  0  0  0  0  0  0  0  0
  1  2  1  0  0  0  0
  2  3  1  0  0  0  0
  2  7  2  0  0  0  0
  4  3  1  6  0  0  0
  4  5  1  0  0  0  0
  4  6  1  0  0  0  0
  4  8  1  0  0  0  0
  5  9  2  0  0  0  0
  6 13  1  0  0  0  0
  7 12  1  0  0  0  0
  8 19  2  0  0  0  0
 10  7  1  1  0  0  0
 10 14  1  0  0  0  0
 10 17  1  0  0  0  0
 11  8  1  6  0  0  0
 11 20  1  0  0  0  0
 11 32  1  0  0  0  0
 12 18  1  0  0  0  0
 12 30  1  1  0  0  0
 12 32  1  0  0  0  0
 13 16  2  0  0  0  0
 13 21  1  0  0  0  0
 14  5  1  1  0  0  0
 14 15  1  0  0  0  0
 14 20  1  0  0  0  0
 15 31  1  0  0  0  0
 15 44  1  0  0  0  0
 17 18  1  0  0  0  0
 17 23  1  0  0  0  0
 18 25  1  0  0  0  0
 18 26  1  0  0  0  0
 19 21  1  0  0  0  0
 19 35  1  0  0  0  0
 20 23  1  0  0  0  0
 21 22  2  0  0  0  0
 22 27  1  0  0  0  0
 23 24  1  0  0  0  0
 23 44  1  0  0  0  0
 24 26  1  0  0  0  0
 26 28  2  0  0  0  0
 27 34  2  0  0  0  0
 27 36  1  0  0  0  0
 28 29  1  0  0  0  0
 28 32  1  0  0  0  0
 29 39  2  0  0  0  0
 31 33  2  0  0  0  0
 31 38  1  0  0  0  0
 34 35  1  0  0  0  0
 34 50  1  0  0  0  0
 35 39  1  0  0  0  0
 36 37  1  0  0  0  0
 36 40  2  0  0  0  0
 37 41  1  0  0  0  0
 37 42  2  0  0  0  0
 40 45  1  0  0  0  0
 40 46  1  0  0  0  0
 42 43  1  0  0  0  0
 43 46  2  0  0  0  0
 45 47  2  0  0  0  0
 45 48  2  0  0  0  0
 45 49  1  0  0  0  0
 49 51  1  0  0  0  0
 49 52  1  0  0  0  0
 50 52  1  0  0  0  0
 51 53  1  0  0  0  0
 52 54  1  0  0  0  0
 53 54  1  0  0  0  0
M  END
$$$$

 OpenBabel10082411353D

 54 67  0  0  0  0  0  0  0  0999 V2000
    8.0806    9.0240  -12.7589 C   0  0  0  0  0  0  0  0  0  0  0  0
    8.6514    7.8645  -12.2948 C   0  0  0  0  0  0  0  0  0  0  0  0
    9.9575    7.9974  -11.8426 C   0  0  0  0  0  0  0  0  0  0  0  0
   10.7657    6.8667  -11.6050 C   0  0  1  0  0  0  0  0  0  0  0  0
   10.7682    5.9590  -12.8271 C   0  0  0  0  0  0  0  0  0  0  0  0
   12.1553    7.3846  -11.2315 C   0  0  0  0  0  0  0  0  0  0  0  0
    8.0676    6.6451  -12.2974 C   0  0  0  0  0  0  0  0  0  0  0  0
   10.1892    6.1240  -10.3860 C   0  0  0  0  0  0  0  0  0  0  0  0
   11.8375    5.4373  -13.3240 O   0  0  0  0  0  0  0  0  0  0  0  0
    8.6785    5.4761  -13.0273 C   0  0  1  0  0  0  0  0  0  0  0  0
    9.1969    5.2405  -10.4969 C   0  0  2  0  0  0  0  0  0  0  0  0
    7.2213    6.2210  -11.3074 C   0  0  2  0  0  0  0  0  0  0  0  0
   12.5590    7.6872   -9.9896 C   0  0  0  0  0  0  0  0  0  0  0  0
    9.7633    5.0333  -12.9720 C   0  0  1  0  0  0  0  0  0  0  0  0
   10.0661    4.0167  -14.0373 N   0  0  0  0  0  0  0  0  0  0  0  0
   13.6906    8.3004   -9.6233 O   0  0  0  0  0  0  0  0  0  0  0  0
    7.6357    4.5123  -12.6317 C   0  0  2  0  0  0  0  0  0  0  0  0
    6.8831    4.9171  -11.7031 C   0  0  2  0  0  0  0  0  0  0  0  0
   10.5937    6.6967   -9.1779 C   0  0  0  0  0  0  0  0  0  0  0  0
    9.5087    4.3263  -11.6925 C   0  0  2  0  0  0  0  0  0  0  0  0
   11.6359    7.4449   -8.9125 C   0  0  0  0  0  0  0  0  0  0  0  0
   11.9716    7.9159   -7.6200 C   0  0  0  0  0  0  0  0  0  0  0  0
    8.4648    3.6122  -12.2840 C   0  0  1  0  0  0  0  0  0  0  0  0
    7.9253    2.8004  -11.3926 C   0  0  0  0  0  0  0  0  0  0  0  0
    5.6047    4.5059  -11.7589 C   0  0  0  0  0  0  0  0  0  0  0  0
    7.6606    4.1297  -10.5699 C   0  0  0  0  0  0  0  0  0  0  0  0
   10.9559    7.6849   -6.6057 C   0  0  0  0  0  0  0  0  0  0  0  0
    8.0094    4.5092   -9.5664 C   0  0  0  0  0  0  0  0  0  0  0  0
    8.3033    4.0627   -8.4980 C   0  0  0  0  0  0  0  0  0  0  0  0
    6.3587    7.1012  -11.0392 O   0  0  0  0  0  0  0  0  0  0  0  0
   11.0186    3.9598  -14.9226 C   0  0  0  0  0  0  0  0  0  0  0  0
    8.1758    5.8633  -10.2511 C   0  0  1  0  0  0  0  0  0  0  0  0
   11.4648    2.7104  -15.2650 O   0  0  0  0  0  0  0  0  0  0  0  0
    9.9512    6.8220   -6.8436 C   0  0  0  0  0  0  0  0  0  0  0  0
    9.6899    6.3705   -8.1082 C   0  0  2  0  0  0  0  0  0  0  0  0
   11.2597    8.2901   -5.2396 C   0  0  0  0  0  0  0  0  0  0  0  0
   11.6068    9.7354   -5.2006 C   0  0  0  0  0  0  0  0  0  0  0  0
   10.9469    4.9352  -15.8306 C   0  0  0  0  0  0  0  0  0  0  0  0
    9.2417    4.9555   -7.8256 C   0  0  0  0  0  0  0  0  0  0  0  0
   11.3657    7.7043   -4.0379 C   0  0  0  0  0  0  0  0  0  0  0  0
   11.4469   10.6225   -6.4157 C   0  0  0  0  0  0  0  0  0  0  0  0
   11.9077   10.2897   -3.9889 C   0  0  0  0  0  0  0  0  0  0  0  0
   11.9472    9.5143   -2.8307 C   0  0  0  0  0  0  0  0  0  0  0  0
    9.3030    2.8335  -13.6243 C   0  0  0  0  0  0  0  0  0  0  0  0
   11.0706    6.0966   -4.1041 S   0  0  0  0  0  0  0  0  0  0  0  0
   11.7343    8.3349   -3.0045 C   0  0  0  0  0  0  0  0  0  0  0  0
   12.1398    5.5239   -4.8589 O   0  0  0  0  0  0  0  0  0  0  0  0
   11.2273    5.7924   -2.5132 O   0  0  0  0  0  0  0  0  0  0  0  0
    9.7296    5.7465   -4.5156 C   0  0  1  0  0  0  0  0  0  0  0  0
    8.8786    6.8007   -5.9523 C   0  0  0  0  0  0  0  0  0  0  0  0
    9.3176    4.5037   -3.9953 C   0  0  0  0  0  0  0  0  0  0  0  0
    8.7031    6.1825   -5.0735 C   0  0  0  0  0  0  0  0  0  0  0  0
    7.9491    4.1238   -4.0799 C   0  0  0  0  0  0  0  0  0  0  0  0
    7.3978    5.3554   -4.5837 C   0  0  0  0  0  0  0  0  0  0  0  0
  1  2  1  0  0  0  0
  2  3  1  0  0  0  0
  2  7  2  0  0  0  0
  4  3  1  6  0  0  0
  4  5  1  0  0  0  0
  4  6  1  0  0  0  0
  4  8  1  0  0  0  0
  5  9  2  0  0  0  0
  6 13  1  0  0  0  0
  7 12  1  0  0  0  0
  8 19  2  0  0  0  0
 10  7  1  1  0  0  0
 10 14  1  0  0  0  0
 10 17  1  0  0  0  0
 11  8  1  6  0  0  0
 11 20  1  0  0  0  0
 11 32  1  0  0  0  0
 12 18  1  0  0  0  0
 12 30  1  1  0  0  0
 12 32  1  0  0  0  0
 13 16  2  0  0  0  0
 13 21  1  0  0  0  0
 14  5  1  1  0  0  0
 14 15  1  0  0  0  0
 14 20  1  0  0  0  0
 15 31  1  0  0  0  0
 15 44  1  0  0  0  0
 17 18  1  0  0  0  0
 17 23  1  0  0  0  0
 18 25  1  0  0  0  0
 18 26  1  0  0  0  0
 19 21  1  0  0  0  0
 19 35  1  0  0  0  0
 20 23  1  0  0  0  0
 21 22  2  0  0  0  0
 22 27  1  0  0  0  0
 23 24  1  0  0  0  0
 23 44  1  0  0  0  0
 24 26  1  0  0  0  0
 26 28  2  0  0  0  0
 27 34  2  0  0  0  0
 27 36  1  0  0  0  0
 28 29  1  0  0  0  0
 28 32  1  0  0  0  0
 29 39  2  0  0  0  0
 31 33  2  0  0  0  0
 31 38  1  0  0  0  0
 34 35  1  0  0  0  0
 34 50  1  0  0  0  0
 35 39  1  0  0  0  0
 36 37  1  0  0  0  0
 36 40  2  0  0  0  0
 37 41  1  0  0  0  0
 37 42  2  0  0  0  0
 40 45  1  0  0  0  0
 40 46  1  0  0  0  0
 42 43  1  0  0  0  0
 43 46  2  0  0  0  0
 45 47  2  0  0  0  0
 45 48  2  0  0  0  0
 45 49  1  0  0  0  0
 49 51  1  0  0  0  0
 49 52  1  0  0  0  0
 50 52  2  0  0  0  0
 51 53  1  0  0  0  0
 52 54  1  0  0  0  0
 53 54  1  0  0  0  0
M  END
$$$$

 OpenBabel10082411353D

 54 68  0  0  0  0  0  0  0  0999 V2000
    8.0806    9.0240  -12.7589 C   0  0  0  0  0  0  0  0  0  0  0  0
    8.6514    7.8645  -12.2948 C   0  0  0  0  0  0  0  0  0  0  0  0
    9.9575    7.9974  -11.8426 C   0  0  0  0  0  0  0  0  0  0  0  0
   10.7657    6.8667  -11.6050 C   0  0  1  0  0  0  0  0  0  0  0  0
   10.7682    5.9590  -12.8271 C   0  0  0  0  0  0  0  0  0  0  0  0
   12.1553    7.3846  -11.2315 C   0  0  0  0  0  0  0  0  0  0  0  0
    8.0676    6.6451  -12.2974 C   0  0  0  0  0  0  0  0  0  0  0  0
   10.1892    6.1240  -10.3860 C   0  0  0  0  0  0  0  0  0  0  0  0
   11.8375    5.4373  -13.3240 O   0  0  0  0  0  0  0  0  0  0  0  0
    8.6785    5.4761  -13.0273 C   0  0  1  0  0  0  0  0  0  0  0  0
    9.1969    5.2405  -10.4969 C   0  0  2  0  0  0  0  0  0  0  0  0
    7.2213    6.2210  -11.3074 C   0  0  2  0  0  0  0  0  0  0  0  0
   12.5590    7.6872   -9.9896 C   0  0  0  0  0  0  0  0  0  0  0  0
    9.7633    5.0333  -12.9720 C   0  0  1  0  0  0  0  0  0  0  0  0
   10.0661    4.0167  -14.0373 N   0  0  0  0  0  0  0  0  0  0  0  0
   13.6906    8.3004   -9.6233 O   0  0  0  0  0  0  0  0  0  0  0  0
    7.6357    4.5123  -12.6317 C   0  0  2  0  0  0  0  0  0  0  0  0
    6.8831    4.9171  -11.7031 C   0  0  2  0  0  0  0  0  0  0  0  0
   10.5937    6.6967   -9.1779 C   0  0  0  0  0  0  0  0  0  0  0  0
    9.5087    4.3263  -11.6925 C   0  0  2  0  0  0  0  0  0  0  0  0
   11.6359    7.4449   -8.9125 C   0  0  0  0  0  0  0  0  0  0  0  0
   11.9716    7.9159   -7.6200 C   0  0  0  0  0  0  0  0  0  0  0  0
    8.4648    3.6122  -12.2840 C   0  0  1  0  0  0  0  0  0  0  0  0
    7.9253    2.8004  -11.3926 C   0  0  0  0  0  0  0  0  0  0  0  0
    5.6047    4.5059  -11.7589 C   0  0  0  0  0  0  0  0  0  0  0  0
    7.6606    4.1297  -10.5699 C   0  0  0  0  0  0  0  0  0  0  0  0
   10.9559    7.6849   -6.6057 C   0  0  0  0  0  0  0  0  0  0  0  0
    8.0094    4.5092   -9.5664 C   0  0  0  0  0  0  0  0  0  0  0  0
    8.3033    4.0627   -8.4980 C   0  0  0  0  0  0  0  0  0  0  0  0
    6.3587    7.1012  -11.0392 O   0  0  0  0  0  0  0  0  0  0  0  0
   11.0186    3.9598  -14.9226 C   0  0  0  0  0  0  0  0  0  0  0  0
    8.1758    5.8633  -10.2511 C   0  0  1  0  0  0  0  0  0  0  0  0
   11.4648    2.7104  -15.2650 O   0  0  0  0  0  0  0  0  0  0  0  0
    9.9512    6.8220   -6.8436 C   0  0  0  0  0  0  0  0  0  0  0  0
    9.6899    6.3705   -8.1082 C   0  0  2  0  0  0  0  0  0  0  0  0
   11.2597    8.2901   -5.2396 C   0  0  0  0  0  0  0  0  0  0  0  0
   11.6068    9.7354   -5.2006 C   0  0  0  0  0  0  0  0  0  0  0  0
   10.9469    4.9352  -15.8306 C   0  0  0  0  0  0  0  0  0  0  0  0
    9.2417    4.9555   -7.8256 C   0  0  0  0  0  0  0  0  0  0  0  0
   11.3657    7.7043   -4.0379 C   0  0  0  0  0  0  0  0  0  0  0  0
   11.4469   10.6225   -6.4157 C   0  0  0  0  0  0  0  0  0  0  0  0
   11.9077   10.2897   -3.9889 C   0  0  0  0  0  0  0  0  0  0  0  0
   11.9472    9.5143   -2.8307 C   0  0  0  0  0  0  0  0  0  0  0  0
    9.3030    2.8335  -13.6243 C   0  0  0  0  0  0  0  0  0  0  0  0
   11.0706    6.0966   -4.1041 S   0  0  0  0  0  0  0  0  0  0  0  0
   11.7343    8.3349   -3.0045 C   0  0  0  0  0  0  0  0  0  0  0  0
   12.1398    5.5239   -4.8589 O   0  0  0  0  0  0  0  0  0  0  0  0
   11.2273    5.7924   -2.5132 O   0  0  0  0  0  0  0  0  0  0  0  0
    9.7296    5.7465   -4.5156 C   0  0  2  0  0  0  0  0  0  0  0  0
    8.8786    6.8007   -5.9523 C   0  0  0  0  0  0  0  0  0  0  0  0
    9.3176    4.5037   -3.9953 C   0  0  0  0  0  0  0  0  0  0  0  0
    8.8600    5.6672   -5.2073 C   0  0  1  0  0  0  0  0  0  0  0  0
    8.2868    4.2279   -4.6404 C   0  0  0  0  0  0  0  0  0  0  0  0
    9.1039    4.7349   -6.4431 N   0  0  0  0  0  0  0  0  0  0  0  0
  1  2  1  0  0  0  0
  2  3  1  0  0  0  0
  2  7  2  0  0  0  0
  4  3  1  6  0  0  0
  4  5  1  0  0  0  0
  4  6  1  0  0  0  0
  4  8  1  0  0  0  0
  5  9  2  0  0  0  0
  6 13  1  0  0  0  0
  7 12  1  0  0  0  0
  8 19  2  0  0  0  0
 10  7  1  1  0  0  0
 10 14  1  0  0  0  0
 10 17  1  0  0  0  0
 11  8  1  6  0  0  0
 11 20  1  0  0  0  0
 11 32  1  0  0  0  0
 12 18  1  0  0  0  0
 12 30  1  1  0  0  0
 12 32  1  0  0  0  0
 13 16  2  0  0  0  0
 13 21  1  0  0  0  0
 14  5  1  1  0  0  0
 14 15  1  0  0  0  0
 14 20  1  0  0  0  0
 15 31  1  0  0  0  0
 15 44  1  0  0  0  0
 17 18  1  0  0  0  0
 17 23  1  0  0  0  0
 18 25  1  0  0  0  0
 18 26  1  0  0  0  0
 19 21  1  0  0  0  0
 19 35  1  0  0  0  0
 20 23  1  0  0  0  0
 21 22  2  0  0  0  0
 22 27  1  0  0  0  0
 23 24  1  0  0  0  0
 23 44  1  0  0  0  0
 24 26  1  0  0  0  0
 26 28  2  0  0  0  0
 27 34  2  0  0  0  0
 27 36  1  0  0  0  0
 28 29  1  0  0  0  0
 28 32  1  0  0  0  0
 29 39  2  0  0  0  0
 31 33  2  0  0  0  0
 31 38  1  0  0  0  0
 34 35  1  0  0  0  0
 34 50  1  0  0  0  0
 35 39  1  0  0  0  0
 36 37  1  0  0  0  0
 36 40  2  0  0  0  0
 37 41  1  0  0  0  0
 37 42  2  0  0  0  0
 39 54  1  0  0  0  0
 40 45  1  0  0  0  0
 40 46  1  0  0  0  0
 42 43  1  0  0  0  0
 43 46  2  0  0  0  0
 45 47  2  0  0  0  0
 45 48  2  0  0  0  0
 45 49  1  0  0  0  0
 49 51  1  0  0  0  0
 49 52  1  0  0  0  0
 50 52  1  0  0  0  0
 51 53  1  0  0  0  0
 52 54  1  0  0  0  0
 53 54  1  0  0  0  0
M  END
$$$$

 OpenBabel10082411353D

 54 66  0  0  0  0  0  0  0  0999 V2000
    8.0806    9.0240  -12.7589 C   0  0  0  0  0  0  0  0  0  0  0  0
    8.6514    7.8645  -12.2948 C   0  0  0  0  0  0  0  0  0  0  0  0
    9.9575    7.9974  -11.8426 C   0  0  0  0  0  0  0  0  0  0  0  0
   10.7657    6.8667  -11.6050 C   0  0  1  0  0  0  0  0  0  0  0  0
   10.7682    5.9590  -12.8271 C   0  0  0  0  0  0  0  0  0  0  0  0
   12.1553    7.3846  -11.2315 C   0  0  0  0  0  0  0  0  0  0  0  0
    8.0676    6.6451  -12.2974 C   0  0  0  0  0  0  0  0  0  0  0  0
   10.1892    6.1240  -10.3860 C   0  0  0  0  0  0  0  0  0  0  0  0
   11.8375    5.4373  -13.3240 O   0  0  0  0  0  0  0  0  0  0  0  0
    8.6785    5.4761  -13.0273 C   0  0  1  0  0  0  0  0  0  0  0  0
    9.1969    5.2405  -10.4969 C   0  0  2  0  0  0  0  0  0  0  0  0
    7.2213    6.2210  -11.3074 C   0  0  2  0  0  0  0  0  0  0  0  0
   12.5590    7.6872   -9.9896 C   0  0  0  0  0  0  0  0  0  0  0  0
    9.7633    5.0333  -12.9720 C   0  0  1  0  0  0  0  0  0  0  0  0
   10.0661    4.0167  -14.0373 N   0  0  0  0  0  0  0  0  0  0  0  0
   13.6906    8.3004   -9.6233 O   0  0  0  0  0  0  0  0  0  0  0  0
    7.6357    4.5123  -12.6317 C   0  0  2  0  0  0  0  0  0  0  0  0
    6.8831    4.9171  -11.7031 C   0  0  2  0  0  0  0  0  0  0  0  0
   10.5937    6.6967   -9.1779 C   0  0  0  0  0  0  0  0  0  0  0  0
    9.5087    4.3263  -11.6925 C   0  0  2  0  0  0  0  0  0  0  0  0
   11.6359    7.4449   -8.9125 C   0  0  0  0  0  0  0  0  0  0  0  0
   11.9716    7.9159   -7.6200 C   0  0  0  0  0  0  0  0  0  0  0  0
    8.4648    3.6122  -12.2840 C   0  0  1  0  0  0  0  0  0  0  0  0
    7.9253    2.8004  -11.3926 C   0  0  0  0  0  0  0  0  0  0  0  0
    5.6047    4.5059  -11.7589 C   0  0  0  0  0  0  0  0  0  0  0  0
    7.6606    4.1297  -10.5699 C   0  0  0  0  0  0  0  0  0  0  0  0
   10.9559    7.6849   -6.6057 C   0  0  0  0  0  0  0  0  0  0  0  0
    8.0094    4.5092   -9.5664 C   0  0  0  0  0  0  0  0  0  0  0  0
    8.3033    4.0627   -8.4980 C   0  0  0  0  0  0  0  0  0  0  0  0
    6.3587    7.1012  -11.0392 O   0  0  0  0  0  0  0  0  0  0  0  0
   11.0186    3.9598  -14.9226 C   0  0  0  0  0  0  0  0  0  0  0  0
    8.1758    5.8633  -10.2511 C   0  0  1  0  0  0  0  0  0  0  0  0
   11.4648    2.7104  -15.2650 O   0  0  0  0  0  0  0  0  0  0  0  0
    9.9512    6.8220   -6.8436 C   0  0  0  0  0  0  0  0  0  0  0  0
    9.6899    6.3705   -8.1082 C   0  0  2  0  0  0  0  0  0  0  0  0
   11.2597    8.2901   -5.2396 C   0  0  0  0  0  0  0  0  0  0  0  0
   11.6068    9.7354   -5.2006 C   0  0  0  0  0  0  0  0  0  0  0  0
   10.9469    4.9352  -15.8306 C   0  0  0  0  0  0  0  0  0  0  0  0
    9.2417    4.9555   -7.8256 C   0  0  0  0  0  0  0  0  0  0  0  0
   11.3657    7.7043   -4.0379 C   0  0  0  0  0  0  0  0  0  0  0  0
   11.4469   10.6225   -6.4157 C   0  0  0  0  0  0  0  0  0  0  0  0
   11.9077   10.2897   -3.9889 C   0  0  0  0  0  0  0  0  0  0  0  0
   11.9472    9.5143   -2.8307 C   0  0  0  0  0  0  0  0  0  0  0  0
    9.3030    2.8335  -13.6243 C   0  0  0  0  0  0  0  0  0  0  0  0
   11.0706    6.0966   -4.1041 S   0  0  0  0  0  0  0  0  0  0  0  0
   11.7343    8.3349   -3.0045 C   0  0  0  0  0  0  0  0  0  0  0  0
   12.1398    5.5239   -4.8589 O   0  0  0  0  0  0  0  0  0  0  0  0
   11.2273    5.7924   -2.5132 O   0  0  0  0  0  0  0  0  0  0  0  0
    9.7296    5.7465   -4.5156 C   0  0  2  0  0  0  0  0  0  0  0  0
    8.8786    6.8007   -5.9523 C   0  0  0  0  0  0  0  0  0  0  0  0
    9.3176    4.5037   -3.9953 C   0  0  0  0  0  0  0  0  0  0  0  0
    8.8600    5.6672   -5.2073 C   0  0  1  0  0  0  0  0  0  0  0  0
    8.2868    4.2279   -4.6404 C   0  0  0  0  0  0  0  0  0  0  0  0
    8.9266    4.9318   -6.0092 S   0  0  0  0  0  0  0  0  0  0  0  0
  1  2  1  0  0  0  0
  2  3  1  0  0  0  0
  2  7  2  0  0  0  0
  4  3  1  6  0  0  0
  4  5  1  0  0  0  0
  4  6  1  0  0  0  0
  4  8  1  0  0  0  0
  5  9  2  0  0  0  0
  6 13  1  0  0  0  0
  7 12  1  0  0  0  0
  8 19  2  0  0  0  0
 10  7  1  1  0  0  0
 10 14  1  0  0  0  0
 10 17  1  0  0  0  0
 11  8  1  6  0  0  0
 11 20  1  0  0  0  0
 11 32  1  0  0  0  0
 12 18  1  0  0  0  0
 12 30  1  1  0  0  0
 12 32  1  0  0  0  0
 13 16  2  0  0  0  0
 13 21  1  0  0  0  0
 14  5  1  1  0  0  0
 14 15  1  0  0  0  0
 14 20  1  0  0  0  0
 15 31  1  0  0  0  0
 15 44  1  0  0  0  0
 17 18  1  0  0  0  0
 17 23  1  0  0  0  0
 18 25  1  0  0  0  0
 18 26  1  0  0  0  0
 19 21  1  0  0  0  0
 19 35  1  0  0  0  0
 20 23  1  0  0  0  0
 21 22  2  0  0  0  0
 22 27  1  0  0  0  0
 23 24  1  0  0  0  0
 23 44  1  0  0  0  0
 24 26  1  0  0  0  0
 26 28  2  0  0  0  0
 27 34  2  0  0  0  0
 27 36  1  0  0  0  0
 28 29  1  0  0  0  0
 28 32  1  0  0  0  0
 29 39  2  0  0  0  0
 31 33  2  0  0  0  0
 31 38  1  0  0  0  0
 34 35  1  0  0  0  0
 34 50  1  0  0  0  0
 35 39  1  0  0  0  0
 36 37  1  0  0  0  0
 36 40  2  0  0  0  0
 37 41  1  0  0  0  0
 37 42  2  0  0  0  0
 40 45  1  0  0  0  0
 40 46  1  0  0  0  0
 42 43  1  0  0  0  0
 43 46  2  0  0  0  0
 45 47  2  0  0  0  0
 45 48  2  0  0  0  0
 45 49  1  0  0  0  0
 49 51  1  0  0  0  0
 49 52  1  0  0  0  0
 50 52  1  0  0  0  0
 51 53  1  0  0  0  0
 52 54  1  0  0  0  0
M  END
$$$$

 OpenBabel10082411353D

 54 67  0  0  0  0  0  0  0  0999 V2000
    8.0806    9.0240  -12.7589 C   0  0  0  0  0  0  0  0  0  0  0  0
    8.6514    7.8645  -12.2948 C   0  0  0  0  0  0  0  0  0  0  0  0
    9.9575    7.9974  -11.8426 C   0  0  0  0  0  0  0  0  0  0  0  0
   10.7657    6.8667  -11.6050 C   0  0  1  0  0  0  0  0  0  0  0  0
   10.7682    5.9590  -12.8271 C   0  0  0  0  0  0  0  0  0  0  0  0
   12.1553    7.3846  -11.2315 C   0  0  0  0  0  0  0  0  0  0  0  0
    8.0676    6.6451  -12.2974 C   0  0  0  0  0  0  0  0  0  0  0  0
   10.1892    6.1240  -10.3860 C   0  0  0  0  0  0  0  0  0  0  0  0
   11.8375    5.4373  -13.3240 O   0  0  0  0  0  0  0  0  0  0  0  0
    8.6785    5.4761  -13.0273 C   0  0  1  0  0  0  0  0  0  0  0  0
    9.1969    5.2405  -10.4969 C   0  0  2  0  0  0  0  0  0  0  0  0
    7.2213    6.2210  -11.3074 C   0  0  2  0  0  0  0  0  0  0  0  0
   12.5590    7.6872   -9.9896 C   0  0  0  0  0  0  0  0  0  0  0  0
    9.7633    5.0333  -12.9720 C   0  0  1  0  0  0  0  0  0  0  0  0
   10.0661    4.0167  -14.0373 N   0  0  0  0  0  0  0  0  0  0  0  0
   13.6906    8.3004   -9.6233 O   0  0  0  0  0  0  0  0  0  0  0  0
    7.6357    4.5123  -12.6317 C   0  0  2  0  0  0  0  0  0  0  0  0
    6.8831    4.9171  -11.7031 C   0  0  2  0  0  0  0  0  0  0  0  0
   10.5937    6.6967   -9.1779 C   0  0  0  0  0  0  0  0  0  0  0  0
    9.5087    4.3263  -11.6925 C   0  0  2  0  0  0  0  0  0  0  0  0
   11.6359    7.4449   -8.9125 C   0  0  0  0  0  0  0  0  0  0  0  0
   11.9716    7.9159   -7.6200 C   0  0  0  0  0  0  0  0  0  0  0  0
    8.4648    3.6122  -12.2840 C   0  0  1  0  0  0  0  0  0  0  0  0
    7.9253    2.8004  -11.3926 C   0  0  0  0  0  0  0  0  0  0  0  0
    5.6047    4.5059  -11.7589 C   0  0  0  0  0  0  0  0  0  0  0  0
    7.6606    4.1297  -10.5699 C   0  0  0  0  0  0  0  0  0  0  0  0
   10.9559    7.6849   -6.6057 C   0  0  0  0  0  0  0  0  0  0  0  0
    8.0094    4.5092   -9.5664 C   0  0  0  0  0  0  0  0  0  0  0  0
    8.3033    4.0627   -8.4980 C   0  0  0  0  0  0  0  0  0  0  0  0
    6.3587    7.1012  -11.0392 O   0  0  0  0  0  0  0  0  0  0  0  0
   11.0186    3.9598  -14.9226 C   0  0  0  0  0  0  0  0  0  0  0  0
    8.1758    5.8633  -10.2511 C   0  0  1  0  0  0  0  0  0  0  0  0
   11.4648    2.7104  -15.2650 O   0  0  0  0  0  0  0  0  0  0  0  0
    9.9512    6.8220   -6.8436 C   0  0  0  0  0  0  0  0  0  0  0  0
    9.6899    6.3705   -8.1082 C   0  0  2  0  0  0  0  0  0  0  0  0
   11.2597    8.2901   -5.2396 C   0  0  0  0  0  0  0  0  0  0  0  0
   11.6068    9.7354   -5.2006 C   0  0  0  0  0  0  0  0  0  0  0  0
   10.9469    4.9352  -15.8306 C   0  0  0  0  0  0  0  0  0  0  0  0
    9.2417    4.9555   -7.8256 C   0  0  0  0  0  0  0  0  0  0  0  0
   11.3657    7.7043   -4.0379 C   0  0  0  0  0  0  0  0  0  0  0  0
   11.4469   10.6225   -6.4157 C   0  0  0  0  0  0  0  0  0  0  0  0
   11.9077   10.2897   -3.9889 C   0  0  0  0  0  0  0  0  0  0  0  0
   11.9472    9.5143   -2.8307 C   0  0  0  0  0  0  0  0  0  0  0  0
    9.3030    2.8335  -13.6243 C   0  0  0  0  0  0  0  0  0  0  0  0
   11.0706    6.0966   -4.1041 S   0  0  0  0  0  0  0  0  0  0  0  0
   11.7343    8.3349   -3.0045 C   0  0  0  0  0  0  0  0  0  0  0  0
   12.1398    5.5239   -4.8589 O   0  0  0  0  0  0  0  0  0  0  0  0
   11.2273    5.7924   -2.5132 O   0  0  0  0  0  0  0  0  0  0  0  0
    9.7296    5.7465   -4.5156 C   0  0  2  0  0  0  0  0  0  0  0  0
    8.8786    6.8007   -5.9523 C   0  0  0  0  0  0  0  0  0  0  0  0
    7.8637    7.2355   -6.3338 O   0  0  0  0  0  0  0  0  0  0  0  0
    9.2748    4.5977   -3.7261 C   0  0  0  0  0  0  0  0  0  0  0  0
    8.8685    5.6587   -5.3479 C   0  0  1  0  0  0  0  0  0  0  0  0
    8.9532    4.7964   -6.1202 N   0  0  0  0  0  0  0  0  0  0  0  0
  1  2  1  0  0  0  0
  2  3  1  0  0  0  0
  2  7  2  0  0  0  0
  4  3  1  6  0  0  0
  4  5  1  0  0  0  0
  4  6  1  0  0  0  0
  4  8  1  0  0  0  0
  5  9  2  0  0  0  0
  6 13  1  0  0  0  0
  7 12  1  0  0  0  0
  8 19  2  0  0  0  0
 10  7  1  1  0  0  0
 10 14  1  0  0  0  0
 10 17  1  0  0  0  0
 11  8  1  6  0  0  0
 11 20  1  0  0  0  0
 11 32  1  0  0  0  0
 12 18  1  0  0  0  0
 12 30  1  1  0  0  0
 12 32  1  0  0  0  0
 13 16  2  0  0  0  0
 13 21  1  0  0  0  0
 14  5  1  1  0  0  0
 14 15  1  0  0  0  0
 14 20  1  0  0  0  0
 15 31  1  0  0  0  0
 15 44  1  0  0  0  0
 17 18  1  0  0  0  0
 17 23  1  0  0  0  0
 18 25  1  0  0  0  0
 18 26  1  0  0  0  0
 19 21  1  0  0  0  0
 19 35  1  0  0  0  0
 20 23  1  0  0  0  0
 21 22  2  0  0  0  0
 22 27  1  0  0  0  0
 23 24  1  0  0  0  0
 23 44  1  0  0  0  0
 24 26  1  0  0  0  0
 26 28  2  0  0  0  0
 27 34  2  0  0  0  0
 27 36  1  0  0  0  0
 28 29  1  0  0  0  0
 28 32  1  0  0  0  0
 29 39  2  0  0  0  0
 31 33  2  0  0  0  0
 31 38  1  0  0  0  0
 34 35  1  0  0  0  0
 34 50  1  0  0  0  0
 35 39  1  0  0  0  0
 36 37  1  0  0  0  0
 36 40  2  0  0  0  0
 37 41  1  0  0  0  0
 37 42  2  0  0  0  0
 39 54  1  0  0  0  0
 40 45  1  0  0  0  0
 40 46  1  0  0  0  0
 42 43  1  0  0  0  0
 43 46  2  0  0  0  0
 45 47  2  0  0  0  0
 45 48  2  0  0  0  0
 45 49  1  0  0  0  0
 49 52  1  0  0  0  0
 49 53  1  0  0  0  0
 50 51  2  0  0  0  0
 50 53  1  0  0  0  0
 53 54  1  0  0  0  0
M  END
$$$$

 OpenBabel10082411353D

 55 68  0  0  0  0  0  0  0  0999 V2000
    8.0806    9.0240  -12.7589 C   0  0  0  0  0  0  0  0  0  0  0  0
    8.6514    7.8645  -12.2948 C   0  0  0  0  0  0  0  0  0  0  0  0
    9.9575    7.9974  -11.8426 C   0  0  0  0  0  0  0  0  0  0  0  0
   10.7657    6.8667  -11.6050 C   0  0  1  0  0  0  0  0  0  0  0  0
   10.7682    5.9590  -12.8271 C   0  0  0  0  0  0  0  0  0  0  0  0
   12.1553    7.3846  -11.2315 C   0  0  0  0  0  0  0  0  0  0  0  0
    8.0676    6.6451  -12.2974 C   0  0  0  0  0  0  0  0  0  0  0  0
   10.1892    6.1240  -10.3860 C   0  0  0  0  0  0  0  0  0  0  0  0
   11.8375    5.4373  -13.3240 O   0  0  0  0  0  0  0  0  0  0  0  0
    8.6785    5.4761  -13.0273 C   0  0  1  0  0  0  0  0  0  0  0  0
    9.1969    5.2405  -10.4969 C   0  0  2  0  0  0  0  0  0  0  0  0
    7.2213    6.2210  -11.3074 C   0  0  2  0  0  0  0  0  0  0  0  0
   12.5590    7.6872   -9.9896 C   0  0  0  0  0  0  0  0  0  0  0  0
    9.7633    5.0333  -12.9720 C   0  0  1  0  0  0  0  0  0  0  0  0
   10.0661    4.0167  -14.0373 N   0  0  0  0  0  0  0  0  0  0  0  0
   13.6906    8.3004   -9.6233 O   0  0  0  0  0  0  0  0  0  0  0  0
    7.6357    4.5123  -12.6317 C   0  0  2  0  0  0  0  0  0  0  0  0
    6.8831    4.9171  -11.7031 C   0  0  2  0  0  0  0  0  0  0  0  0
   10.5937    6.6967   -9.1779 C   0  0  0  0  0  0  0  0  0  0  0  0
    9.5087    4.3263  -11.6925 C   0  0  2  0  0  0  0  0  0  0  0  0
   11.6359    7.4449   -8.9125 C   0  0  0  0  0  0  0  0  0  0  0  0
   11.9716    7.9159   -7.6200 C   0  0  0  0  0  0  0  0  0  0  0  0
    8.4648    3.6122  -12.2840 C   0  0  1  0  0  0  0  0  0  0  0  0
    7.9253    2.8004  -11.3926 C   0  0  0  0  0  0  0  0  0  0  0  0
    5.6047    4.5059  -11.7589 C   0  0  0  0  0  0  0  0  0  0  0  0
    7.6606    4.1297  -10.5699 C   0  0  0  0  0  0  0  0  0  0  0  0
   10.9559    7.6849   -6.6057 C   0  0  0  0  0  0  0  0  0  0  0  0
    8.0094    4.5092   -9.5664 C   0  0  0  0  0  0  0  0  0  0  0  0
    8.3033    4.0627   -8.4980 C   0  0  0  0  0  0  0  0  0  0  0  0
    6.3587    7.1012  -11.0392 O   0  0  0  0  0  0  0  0  0  0  0  0
   11.0186    3.9598  -14.9226 C   0  0  0  0  0  0  0  0  0  0  0  0
    8.1758    5.8633  -10.2511 C   0  0  1  0  0  0  0  0  0  0  0  0
   11.4648    2.7104  -15.2650 O   0  0  0  0  0  0  0  0  0  0  0  0
    9.9512    6.8220   -6.8436 C   0  0  0  0  0  0  0  0  0  0  0  0
    9.6899    6.3705   -8.1082 C   0  0  2  0  0  0  0  0  0  0  0  0
   11.2597    8.2901   -5.2396 C   0  0  0  0  0  0  0  0  0  0  0  0
   11.6068    9.7354   -5.2006 C   0  0  0  0  0  0  0  0  0  0  0  0
   10.9469    4.9352  -15.8306 C   0  0  0  0  0  0  0  0  0  0  0  0
    9.2417    4.9555   -7.8256 C   0  0  0  0  0  0  0  0  0  0  0  0
   11.3657    7.7043   -4.0379 C   0  0  0  0  0  0  0  0  0  0  0  0
   11.4469   10.6225   -6.4157 C   0  0  0  0  0  0  0  0  0  0  0  0
   11.9077   10.2897   -3.9889 C   0  0  0  0  0  0  0  0  0  0  0  0
   11.9472    9.5143   -2.8307 C   0  0  0  0  0  0  0  0  0  0  0  0
    9.3030    2.8335  -13.6243 C   0  0  0  0  0  0  0  0  0  0  0  0
   11.0706    6.0966   -4.1041 S   0  0  0  0  0  0  0  0  0  0  0  0
   11.7343    8.3349   -3.0045 C   0  0  0  0  0  0  0  0  0  0  0  0
   12.1398    5.5239   -4.8589 O   0  0  0  0  0  0  0  0  0  0  0  0
   11.2273    5.7924   -2.5132 O   0  0  0  0  0  0  0  0  0  0  0  0
    9.7296    5.7465   -4.5156 C   0  0  2  0  0  0  0  0  0  0  0  0
    8.8786    6.8007   -5.9523 C   0  0  0  0  0  0  0  0  0  0  0  0
    9.3176    4.5037   -3.9953 C   0  0  0  0  0  0  0  0  0  0  0  0
    8.8600    5.6672   -5.2073 C   0  0  2  0  0  0  0  0  0  0  0  0
    7.9313    4.4020   -4.2678 C   0  0  0  0  0  0  0  0  0  0  0  0
    7.7596    5.2144   -5.1313 N   0  0  0  0  0  0  0  0  0  0  0  0
    7.1420    3.6632   -3.6203 O   0  0  0  0  0  0  0  0  0  0  0  0
  1  2  1  0  0  0  0
  2  3  1  0  0  0  0
  2  7  2  0  0  0  0
  4  3  1  6  0  0  0
  4  5  1  0  0  0  0
  4  6  1  0  0  0  0
  4  8  1  0  0  0  0
  5  9  2  0  0  0  0
  6 13  1  0  0  0  0
  7 12  1  0  0  0  0
  8 19  2  0  0  0  0
 10  7  1  1  0  0  0
 10 14  1  0  0  0  0
 10 17  1  0  0  0  0
 11  8  1  6  0  0  0
 11 20  1  0  0  0  0
 11 32  1  0  0  0  0
 12 18  1  0  0  0  0
 12 30  1  1  0  0  0
 12 32  1  0  0  0  0
 13 16  2  0  0  0  0
 13 21  1  0  0  0  0
 14  5  1  1  0  0  0
 14 15  1  0  0  0  0
 14 20  1  0  0  0  0
 15 31  1  0  0  0  0
 15 44  1  0  0  0  0
 17 18  1  0  0  0  0
 17 23  1  0  0  0  0
 18 25  1  0  0  0  0
 18 26  1  0  0  0  0
 19 21  1  0  0  0  0
 19 35  1  0  0  0  0
 20 23  1  0  0  0  0
 21 22  2  0  0  0  0
 22 27  1  0  0  0  0
 23 24  1  0  0  0  0
 23 44  1  0  0  0  0
 24 26  1  0  0  0  0
 26 28  2  0  0  0  0
 27 34  2  0  0  0  0
 27 36  1  0  0  0  0
 28 29  1  0  0  0  0
 28 32  1  0  0  0  0
 29 39  2  0  0  0  0
 31 33  2  0  0  0  0
 31 38  1  0  0  0  0
 34 35  1  0  0  0  0
 34 50  1  0  0  0  0
 35 39  1  0  0  0  0
 36 37  1  0  0  0  0
 36 40  2  0  0  0  0
 37 41  1  0  0  0  0
 37 42  2  0  0  0  0
 40 45  1  0  0  0  0
 40 46  1  0  0  0  0
 42 43  1  0  0  0  0
 43 46  2  0  0  0  0
 45 47  2  0  0  0  0
 45 48  2  0  0  0  0
 45 49  1  0  0  0  0
 49 51  1  0  0  0  0
 49 52  1  0  0  0  0
 50 52  1  0  0  0  0
 51 53  1  0  0  0  0
 52 54  1  0  0  0  0
 53 54  1  0  0  0  0
 53 55  2  0  0  0  0
M  END
$$$$

 OpenBabel10082411353D

 55 69  0  0  0  0  0  0  0  0999 V2000
    8.0806    9.0240  -12.7589 C   0  0  0  0  0  0  0  0  0  0  0  0
    8.6514    7.8645  -12.2948 C   0  0  0  0  0  0  0  0  0  0  0  0
    9.9575    7.9974  -11.8426 C   0  0  0  0  0  0  0  0  0  0  0  0
   10.7657    6.8667  -11.6050 C   0  0  1  0  0  0  0  0  0  0  0  0
   10.7682    5.9590  -12.8271 C   0  0  0  0  0  0  0  0  0  0  0  0
   12.1553    7.3846  -11.2315 C   0  0  0  0  0  0  0  0  0  0  0  0
    8.0676    6.6451  -12.2974 C   0  0  0  0  0  0  0  0  0  0  0  0
   10.1892    6.1240  -10.3860 C   0  0  0  0  0  0  0  0  0  0  0  0
   11.8375    5.4373  -13.3240 O   0  0  0  0  0  0  0  0  0  0  0  0
    8.6785    5.4761  -13.0273 C   0  0  1  0  0  0  0  0  0  0  0  0
    9.1969    5.2405  -10.4969 C   0  0  2  0  0  0  0  0  0  0  0  0
    7.2213    6.2210  -11.3074 C   0  0  2  0  0  0  0  0  0  0  0  0
   12.5590    7.6872   -9.9896 C   0  0  0  0  0  0  0  0  0  0  0  0
    9.7633    5.0333  -12.9720 C   0  0  1  0  0  0  0  0  0  0  0  0
   10.0661    4.0167  -14.0373 N   0  0  0  0  0  0  0  0  0  0  0  0
   13.6906    8.3004   -9.6233 O   0  0  0  0  0  0  0  0  0  0  0  0
    7.6357    4.5123  -12.6317 C   0  0  2  0  0  0  0  0  0  0  0  0
    6.8831    4.9171  -11.7031 C   0  0  2  0  0  0  0  0  0  0  0  0
   10.5937    6.6967   -9.1779 C   0  0  0  0  0  0  0  0  0  0  0  0
    9.5087    4.3263  -11.6925 C   0  0  2  0  0  0  0  0  0  0  0  0
   11.6359    7.4449   -8.9125 C   0  0  0  0  0  0  0  0  0  0  0  0
   11.9716    7.9159   -7.6200 C   0  0  0  0  0  0  0  0  0  0  0  0
    8.4648    3.6122  -12.2840 C   0  0  1  0  0  0  0  0  0  0  0  0
    7.9253    2.8004  -11.3926 C   0  0  0  0  0  0  0  0  0  0  0  0
    5.6047    4.5059  -11.7589 C   0  0  0  0  0  0  0  0  0  0  0  0
    7.6606    4.1297  -10.5699 C   0  0  0  0  0  0  0  0  0  0  0  0
   10.9559    7.6849   -6.6057 C   0  0  0  0  0  0  0  0  0  0  0  0
    8.0094    4.5092   -9.5664 C   0  0  0  0  0  0  0  0  0  0  0  0
    8.3033    4.0627   -8.4980 C   0  0  0  0  0  0  0  0  0  0  0  0
    6.3587    7.1012  -11.0392 O   0  0  0  0  0  0  0  0  0  0  0  0
   11.0186    3.9598  -14.9226 C   0  0  0  0  0  0  0  0  0  0  0  0
    8.1758    5.8633  -10.2511 C   0  0  1  0  0  0  0  0  0  0  0  0
   11.4648    2.7104  -15.2650 O   0  0  0  0  0  0  0  0  0  0  0  0
    9.9512    6.8220   -6.8436 C   0  0  0  0  0  0  0  0  0  0  0  0
    9.6899    6.3705   -8.1082 C   0  0  2  0  0  0  0  0  0  0  0  0
   11.2597    8.2901   -5.2396 C   0  0  0  0  0  0  0  0  0  0  0  0
   11.6068    9.7354   -5.2006 C   0  0  0  0  0  0  0  0  0  0  0  0
   10.9469    4.9352  -15.8306 C   0  0  0  0  0  0  0  0  0  0  0  0
    9.2417    4.9555   -7.8256 C   0  0  0  0  0  0  0  0  0  0  0  0
   11.3657    7.7043   -4.0379 C   0  0  0  0  0  0  0  0  0  0  0  0
   11.4469   10.6225   -6.4157 C   0  0  0  0  0  0  0  0  0  0  0  0
   11.9077   10.2897   -3.9889 C   0  0  0  0  0  0  0  0  0  0  0  0
   11.9472    9.5143   -2.8307 C   0  0  0  0  0  0  0  0  0  0  0  0
    9.3030    2.8335  -13.6243 C   0  0  0  0  0  0  0  0  0  0  0  0
   11.0706    6.0966   -4.1041 S   0  0  0  0  0  0  0  0  0  0  0  0
   11.7343    8.3349   -3.0045 C   0  0  0  0  0  0  0  0  0  0  0  0
   12.1398    5.5239   -4.8589 O   0  0  0  0  0  0  0  0  0  0  0  0
   11.2273    5.7924   -2.5132 O   0  0  0  0  0  0  0  0  0  0  0  0
    9.7296    5.7465   -4.5156 C   0  0  2  0  0  0  0  0  0  0  0  0
    8.8786    6.8007   -5.9523 C   0  0  0  0  0  0  0  0  0  0  0  0
    7.8637    7.2355   -6.3338 O   0  0  0  0  0  0  0  0  0  0  0  0
    9.2748    4.5977   -3.7261 C   0  0  0  0  0  0  0  0  0  0  0  0
    8.8685    5.6587   -5.3479 C   0  0  1  0  0  0  0  0  0  0  0  0
    8.9532    4.7964   -6.1202 C   0  0  2  0  0  0  0  0  0  0  0  0
    8.8056    3.7831   -4.8726 C   0  0  0  0  0  0  0  0  0  0  0  0
  1  2  1  0  0  0  0
  2  3  1  0  0  0  0
  2  7  2  0  0  0  0
  4  3  1  6  0  0  0
  4  5  1  0  0  0  0
  4  6  1  0  0  0  0
  4  8  1  0  0  0  0
  5  9  2  0  0  0  0
  6 13  1  0  0  0  0
  7 12  1  0  0  0  0
  8 19  2  0  0  0  0
 10  7  1  1  0  0  0
 10 14  1  0  0  0  0
 10 17  1  0  0  0  0
 11  8  1  6  0  0  0
 11 20  1  0  0  0  0
 11 32  1  0  0  0  0
 12 18  1  0  0  0  0
 12 30  1  1  0  0  0
 12 32  1  0  0  0  0
 13 16  2  0  0  0  0
 13 21  1  0  0  0  0
 14  5  1  1  0  0  0
 14 15  1  0  0  0  0
 14 20  1  0  0  0  0
 15 31  1  0  0  0  0
 15 44  1  0  0  0  0
 17 18  1  0  0  0  0
 17 23  1  0  0  0  0
 18 25  1  0  0  0  0
 18 26  1  0  0  0  0
 19 21  1  0  0  0  0
 19 35  1  0  0  0  0
 20 23  1  0  0  0  0
 21 22  2  0  0  0  0
 22 27  1  0  0  0  0
 23 24  1  0  0  0  0
 23 44  1  0  0  0  0
 24 26  1  0  0  0  0
 26 28  2  0  0  0  0
 27 34  2  0  0  0  0
 27 36  1  0  0  0  0
 28 29  1  0  0  0  0
 28 32  1  0  0  0  0
 29 39  2  0  0  0  0
 31 33  2  0  0  0  0
 31 38  1  0  0  0  0
 34 35  1  0  0  0  0
 34 50  1  0  0  0  0
 35 39  1  0  0  0  0
 36 37  1  0  0  0  0
 36 40  2  0  0  0  0
 37 41  1  0  0  0  0
 37 42  2  0  0  0  0
 39 54  1  0  0  0  0
 40 45  1  0  0  0  0
 40 46  1  0  0  0  0
 42 43  1  0  0  0  0
 43 46  2  0  0  0  0
 45 47  2  0  0  0  0
 45 48  2  0  0  0  0
 45 49  1  0  0  0  0
 49 52  1  0  0  0  0
 49 53  1  0  0  0  0
 50 51  2  0  0  0  0
 50 53  1  0  0  0  0
 52 55  1  0  0  0  0
 53 54  1  0  0  0  0
 54 55  1  0  0  0  0
M  END
$$$$

 OpenBabel10082411353D

 55 68  0  0  0  0  0  0  0  0999 V2000
    8.0806    9.0240  -12.7589 C   0  0  0  0  0  0  0  0  0  0  0  0
    8.6514    7.8645  -12.2948 C   0  0  0  0  0  0  0  0  0  0  0  0
    9.9575    7.9974  -11.8426 C   0  0  0  0  0  0  0  0  0  0  0  0
   10.7657    6.8667  -11.6050 C   0  0  1  0  0  0  0  0  0  0  0  0
   10.7682    5.9590  -12.8271 C   0  0  0  0  0  0  0  0  0  0  0  0
   12.1553    7.3846  -11.2315 C   0  0  0  0  0  0  0  0  0  0  0  0
    8.0676    6.6451  -12.2974 C   0  0  0  0  0  0  0  0  0  0  0  0
   10.1892    6.1240  -10.3860 C   0  0  0  0  0  0  0  0  0  0  0  0
   11.8375    5.4373  -13.3240 O   0  0  0  0  0  0  0  0  0  0  0  0
    8.6785    5.4761  -13.0273 C   0  0  1  0  0  0  0  0  0  0  0  0
    9.1969    5.2405  -10.4969 C   0  0  2  0  0  0  0  0  0  0  0  0
    7.2213    6.2210  -11.3074 C   0  0  2  0  0  0  0  0  0  0  0  0
   12.5590    7.6872   -9.9896 C   0  0  0  0  0  0  0  0  0  0  0  0
    9.7633    5.0333  -12.9720 C   0  0  1  0  0  0  0  0  0  0  0  0
   10.0661    4.0167  -14.0373 N   0  0  0  0  0  0  0  0  0  0  0  0
   13.6906    8.3004   -9.6233 O   0  0  0  0  0  0  0  0  0  0  0  0
    7.6357    4.5123  -12.6317 C   0  0  2  0  0  0  0  0  0  0  0  0
    6.8831    4.9171  -11.7031 C   0  0  2  0  0  0  0  0  0  0  0  0
   10.5937    6.6967   -9.1779 C   0  0  0  0  0  0  0  0  0  0  0  0
    9.5087    4.3263  -11.6925 C   0  0  2  0  0  0  0  0  0  0  0  0
   11.6359    7.4449   -8.9125 C   0  0  0  0  0  0  0  0  0  0  0  0
   11.9716    7.9159   -7.6200 C   0  0  0  0  0  0  0  0  0  0  0  0
    8.4648    3.6122  -12.2840 C   0  0  1  0  0  0  0  0  0  0  0  0
    7.9253    2.8004  -11.3926 C   0  0  0  0  0  0  0  0  0  0  0  0
    5.6047    4.5059  -11.7589 C   0  0  0  0  0  0  0  0  0  0  0  0
    7.6606    4.1297  -10.5699 C   0  0  0  0  0  0  0  0  0  0  0  0
   10.9559    7.6849   -6.6057 C   0  0  0  0  0  0  0  0  0  0  0  0
    8.0094    4.5092   -9.5664 C   0  0  0  0  0  0  0  0  0  0  0  0
    8.3033    4.0627   -8.4980 C   0  0  0  0  0  0  0  0  0  0  0  0
    6.3587    7.1012  -11.0392 O   0  0  0  0  0  0  0  0  0  0  0  0
   11.0186    3.9598  -14.9226 C   0  0  0  0  0  0  0  0  0  0  0  0
    8.1758    5.8633  -10.2511 C   0  0  1  0  0  0  0  0  0  0  0  0
   11.4648    2.7104  -15.2650 O   0  0  0  0  0  0  0  0  0  0  0  0
    9.9512    6.8220   -6.8436 C   0  0  0  0  0  0  0  0  0  0  0  0
    9.6899    6.3705   -8.1082 C   0  0  2  0  0  0  0  0  0  0  0  0
   11.2597    8.2901   -5.2396 C   0  0  0  0  0  0  0  0  0  0  0  0
   11.6068    9.7354   -5.2006 C   0  0  0  0  0  0  0  0  0  0  0  0
   10.9469    4.9352  -15.8306 C   0  0  0  0  0  0  0  0  0  0  0  0
    9.2417    4.9555   -7.8256 C   0  0  0  0  0  0  0  0  0  0  0  0
   11.3657    7.7043   -4.0379 C   0  0  0  0  0  0  0  0  0  0  0  0
   11.4469   10.6225   -6.4157 C   0  0  0  0  0  0  0  0  0  0  0  0
   11.9077   10.2897   -3.9889 C   0  0  0  0  0  0  0  0  0  0  0  0
   11.9472    9.5143   -2.8307 C   0  0  0  0  0  0  0  0  0  0  0  0
    9.3030    2.8335  -13.6243 C   0  0  0  0  0  0  0  0  0  0  0  0
   11.0706    6.0966   -4.1041 S   0  0  0  0  0  0  0  0  0  0  0  0
   11.7343    8.3349   -3.0045 C   0  0  0  0  0  0  0  0  0  0  0  0
   12.1398    5.5239   -4.8589 O   0  0  0  0  0  0  0  0  0  0  0  0
   11.2273    5.7924   -2.5132 O   0  0  0  0  0  0  0  0  0  0  0  0
    9.7296    5.7465   -4.5156 C   0  0  1  0  0  0  0  0  0  0  0  0
    8.8786    6.8007   -5.9523 C   0  0  0  0  0  0  0  0  0  0  0  0
    7.8637    7.2355   -6.3338 O   0  0  0  0  0  0  0  0  0  0  0  0
    9.2748    4.5977   -3.7261 C   0  0  0  0  0  0  0  0  0  0  0  0
    8.7641    6.2147   -5.0724 C   0  0  1  0  0  0  0  0  0  0  0  0
    8.3238    4.1417   -4.4632 C   0  0  0  0  0  0  0  0  0  0  0  0
    7.7658    5.2028   -5.2255 N   0  0  0  0  0  0  0  0  0  0  0  0
  1  2  1  0  0  0  0
  2  3  1  0  0  0  0
  2  7  2  0  0  0  0
  4  3  1  6  0  0  0
  4  5  1  0  0  0  0
  4  6  1  0  0  0  0
  4  8  1  0  0  0  0
  5  9  2  0  0  0  0
  6 13  1  0  0  0  0
  7 12  1  0  0  0  0
  8 19  2  0  0  0  0
 10  7  1  1  0  0  0
 10 14  1  0  0  0  0
 10 17  1  0  0  0  0
 11  8  1  6  0  0  0
 11 20  1  0  0  0  0
 11 32  1  0  0  0  0
 12 18  1  0  0  0  0
 12 30  1  1  0  0  0
 12 32  1  0  0  0  0
 13 16  2  0  0  0  0
 13 21  1  0  0  0  0
 14  5  1  1  0  0  0
 14 15  1  0  0  0  0
 14 20  1  0  0  0  0
 15 31  1  0  0  0  0
 15 44  1  0  0  0  0
 17 18  1  0  0  0  0
 17 23  1  0  0  0  0
 18 25  1  0  0  0  0
 18 26  1  0  0  0  0
 19 21  1  0  0  0  0
 19 35  1  0  0  0  0
 20 23  1  0  0  0  0
 21 22  2  0  0  0  0
 22 27  1  0  0  0  0
 23 24  1  0  0  0  0
 23 44  1  0  0  0  0
 24 26  1  0  0  0  0
 26 28  2  0  0  0  0
 27 34  2  0  0  0  0
 27 36  1  0  0  0  0
 28 29  1  0  0  0  0
 28 32  1  0  0  0  0
 29 39  2  0  0  0  0
 31 33  2  0  0  0  0
 31 38  1  0  0  0  0
 34 35  1  0  0  0  0
 34 50  1  0  0  0  0
 35 39  1  0  0  0  0
 36 37  1  0  0  0  0
 36 40  2  0  0  0  0
 37 41  1  0  0  0  0
 37 42  2  0  0  0  0
 40 45  1  0  0  0  0
 40 46  1  0  0  0  0
 42 43  1  0  0  0  0
 43 46  2  0  0  0  0
 45 47  2  0  0  0  0
 45 48  2  0  0  0  0
 45 49  1  0  0  0  0
 49 52  1  0  0  0  0
 49 53  1  0  0  0  0
 50 51  2  0  0  0  0
 50 53  1  0  0  0  0
 52 54  1  0  0  0  0
 53 55  1  0  0  0  0
 54 55  1  0  0  0  0
M  END
$$$$

 OpenBabel10082411353D

 55 70  0  0  0  0  0  0  0  0999 V2000
    8.0806    9.0240  -12.7589 C   0  0  0  0  0  0  0  0  0  0  0  0
    8.6514    7.8645  -12.2948 C   0  0  0  0  0  0  0  0  0  0  0  0
    9.9575    7.9974  -11.8426 C   0  0  0  0  0  0  0  0  0  0  0  0
   10.7657    6.8667  -11.6050 C   0  0  1  0  0  0  0  0  0  0  0  0
   10.7682    5.9590  -12.8271 C   0  0  0  0  0  0  0  0  0  0  0  0
   12.1553    7.3846  -11.2315 C   0  0  0  0  0  0  0  0  0  0  0  0
    8.0676    6.6451  -12.2974 C   0  0  0  0  0  0  0  0  0  0  0  0
   10.1892    6.1240  -10.3860 C   0  0  0  0  0  0  0  0  0  0  0  0
   11.8375    5.4373  -13.3240 O   0  0  0  0  0  0  0  0  0  0  0  0
    8.6785    5.4761  -13.0273 C   0  0  1  0  0  0  0  0  0  0  0  0
    9.1969    5.2405  -10.4969 C   0  0  2  0  0  0  0  0  0  0  0  0
    7.2213    6.2210  -11.3074 C   0  0  2  0  0  0  0  0  0  0  0  0
   12.5590    7.6872   -9.9896 C   0  0  0  0  0  0  0  0  0  0  0  0
    9.7633    5.0333  -12.9720 C   0  0  1  0  0  0  0  0  0  0  0  0
   10.0661    4.0167  -14.0373 N   0  0  0  0  0  0  0  0  0  0  0  0
   13.6906    8.3004   -9.6233 O   0  0  0  0  0  0  0  0  0  0  0  0
    7.6357    4.5123  -12.6317 C   0  0  2  0  0  0  0  0  0  0  0  0
    6.8831    4.9171  -11.7031 C   0  0  2  0  0  0  0  0  0  0  0  0
   10.5937    6.6967   -9.1779 C   0  0  0  0  0  0  0  0  0  0  0  0
    9.5087    4.3263  -11.6925 C   0  0  2  0  0  0  0  0  0  0  0  0
   11.6359    7.4449   -8.9125 C   0  0  0  0  0  0  0  0  0  0  0  0
   11.9716    7.9159   -7.6200 C   0  0  0  0  0  0  0  0  0  0  0  0
    8.4648    3.6122  -12.2840 C   0  0  1  0  0  0  0  0  0  0  0  0
    7.9253    2.8004  -11.3926 C   0  0  0  0  0  0  0  0  0  0  0  0
    5.6047    4.5059  -11.7589 C   0  0  0  0  0  0  0  0  0  0  0  0
    7.6606    4.1297  -10.5699 C   0  0  0  0  0  0  0  0  0  0  0  0
   10.9559    7.6849   -6.6057 C   0  0  0  0  0  0  0  0  0  0  0  0
    8.0094    4.5092   -9.5664 C   0  0  0  0  0  0  0  0  0  0  0  0
    8.3033    4.0627   -8.4980 C   0  0  0  0  0  0  0  0  0  0  0  0
    6.3587    7.1012  -11.0392 O   0  0  0  0  0  0  0  0  0  0  0  0
   11.0186    3.9598  -14.9226 C   0  0  0  0  0  0  0  0  0  0  0  0
    8.1758    5.8633  -10.2511 C   0  0  1  0  0  0  0  0  0  0  0  0
   11.4648    2.7104  -15.2650 O   0  0  0  0  0  0  0  0  0  0  0  0
    9.9512    6.8220   -6.8436 C   0  0  0  0  0  0  0  0  0  0  0  0
    9.6899    6.3705   -8.1082 C   0  0  2  0  0  0  0  0  0  0  0  0
   11.2597    8.2901   -5.2396 C   0  0  0  0  0  0  0  0  0  0  0  0
   11.6068    9.7354   -5.2006 C   0  0  0  0  0  0  0  0  0  0  0  0
   10.9469    4.9352  -15.8306 C   0  0  0  0  0  0  0  0  0  0  0  0
    9.2417    4.9555   -7.8256 C   0  0  0  0  0  0  0  0  0  0  0  0
   11.3657    7.7043   -4.0379 C   0  0  0  0  0  0  0  0  0  0  0  0
   11.4469   10.6225   -6.4157 C   0  0  0  0  0  0  0  0  0  0  0  0
   11.9077   10.2897   -3.9889 C   0  0  0  0  0  0  0  0  0  0  0  0
   11.9472    9.5143   -2.8307 C   0  0  0  0  0  0  0  0  0  0  0  0
    9.3030    2.8335  -13.6243 C   0  0  0  0  0  0  0  0  0  0  0  0
   11.0706    6.0966   -4.1041 S   0  0  0  0  0  0  0  0  0  0  0  0
   11.7343    8.3349   -3.0045 C   0  0  0  0  0  0  0  0  0  0  0  0
   12.1398    5.5239   -4.8589 O   0  0  0  0  0  0  0  0  0  0  0  0
   11.2273    5.7924   -2.5132 O   0  0  0  0  0  0  0  0  0  0  0  0
    9.7296    5.7465   -4.5156 C   0  0  2  0  0  0  0  0  0  0  0  0
    8.8786    6.8007   -5.9523 C   0  0  0  0  0  0  0  0  0  0  0  0
    9.3176    4.5037   -3.9953 C   0  0  0  0  0  0  0  0  0  0  0  0
    8.8600    5.6672   -5.2073 C   0  0  2  0  0  0  0  0  0  0  0  0
    8.2868    4.2279   -4.6404 C   0  0  0  0  0  0  0  0  0  0  0  0
    8.2991    4.6502   -5.8225 N   0  0  2  0  0  0  0  0  0  0  0  0
    9.0504    4.6317   -6.5765 N   0  0  0  0  0  0  0  0  0  0  0  0
  1  2  1  0  0  0  0
  2  3  1  0  0  0  0
  2  7  2  0  0  0  0
  4  3  1  6  0  0  0
  4  5  1  0  0  0  0
  4  6  1  0  0  0  0
  4  8  1  0  0  0  0
  5  9  2  0  0  0  0
  6 13  1  0  0  0  0
  7 12  1  0  0  0  0
  8 19  2  0  0  0  0
 10  7  1  1  0  0  0
 10 14  1  0  0  0  0
 10 17  1  0  0  0  0
 11  8  1  6  0  0  0
 11 20  1  0  0  0  0
 11 32  1  0  0  0  0
 12 18  1  0  0  0  0
 12 30  1  1  0  0  0
 12 32  1  0  0  0  0
 13 16  2  0  0  0  0
 13 21  1  0  0  0  0
 14  5  1  1  0  0  0
 14 15  1  0  0  0  0
 14 20  1  0  0  0  0
 15 31  1  0  0  0  0
 15 44  1  0  0  0  0
 17 18  1  0  0  0  0
 17 23  1  0  0  0  0
 18 25  1  0  0  0  0
 18 26  1  0  0  0  0
 19 21  1  0  0  0  0
 19 35  1  0  0  0  0
 20 23  1  0  0  0  0
 21 22  2  0  0  0  0
 22 27  1  0  0  0  0
 23 24  1  0  0  0  0
 23 44  1  0  0  0  0
 24 26  1  0  0  0  0
 26 28  2  0  0  0  0
 27 34  2  0  0  0  0
 27 36  1  0  0  0  0
 28 29  1  0  0  0  0
 28 32  1  0  0  0  0
 29 39  2  0  0  0  0
 31 33  2  0  0  0  0
 31 38  1  0  0  0  0
 34 35  1  0  0  0  0
 34 50  1  0  0  0  0
 35 39  1  0  0  0  0
 36 37  1  0  0  0  0
 36 40  2  0  0  0  0
 37 41  1  0  0  0  0
 37 42  2  0  0  0  0
 39 55  1  0  0  0  0
 40 45  1  0  0  0  0
 40 46  1  0  0  0  0
 42 43  1  0  0  0  0
 43 46  2  0  0  0  0
 45 47  2  0  0  0  0
 45 48  2  0  0  0  0
 45 49  1  0  0  0  0
 49 51  1  0  0  0  0
 49 52  1  0  0  0  0
 50 52  1  0  0  0  0
 51 53  1  0  0  0  0
 52 54  1  0  0  0  0
 52 55  1  0  0  0  0
 53 54  1  0  0  0  0
 54 55  1  0  0  0  0
M  END
$$$$

 OpenBabel10082411353D

 28 30  0  0  0  0  0  0  0  0999 V2000
   12.8881    8.7759   -3.5681 C   0  0  0  0  0  0  0  0  0  0  0  0
   11.9416    9.4732   -4.1220 C   0  0  0  0  0  0  0  0  0  0  0  0
   12.3556    7.6012   -2.6527 C   0  0  0  0  0  0  0  0  0  0  0  0
   11.8805    9.3400   -5.6557 C   0  0  0  0  0  0  0  0  0  0  0  0
   11.7716    6.5414   -3.3821 C   0  0  0  0  0  0  0  0  0  0  0  0
   10.8523    8.6585   -6.3310 C   0  0  0  0  0  0  0  0  0  0  0  0
   11.1142    8.2520   -7.7289 C   0  0  0  0  0  0  0  0  0  0  0  0
   10.0478    7.6568   -8.4887 C   0  0  0  0  0  0  0  0  0  0  0  0
   12.3648    8.4339   -8.3703 C   0  0  0  0  0  0  0  0  0  0  0  0
   12.6142    8.1352   -9.7322 C   0  0  0  0  0  0  0  0  0  0  0  0
   10.2852    7.3833   -9.9138 C   0  0  0  0  0  0  0  0  0  0  0  0
   11.5161    7.5808  -10.4860 C   0  0  0  0  0  0  0  0  0  0  0  0
   11.6641    7.2285  -11.8174 O   0  0  0  0  0  0  0  0  0  0  0  0
   10.8624    6.4419  -12.4395 C   0  0  0  0  0  0  0  0  0  0  0  0
   11.2693    5.8267  -13.4966 C   0  0  0  0  0  0  0  0  0  0  0  0
   10.3973    4.9870  -14.3057 C   0  0  0  0  0  0  0  0  0  0  0  0
    9.1338    4.5860  -13.7335 C   0  0  0  0  0  0  0  0  0  0  0  0
    8.3197    3.6632  -14.4500 O   0  0  0  0  0  0  0  0  0  0  0  0
    9.4187    5.9856  -12.0936 C   0  0  0  0  0  0  0  0  0  0  0  0
    8.7194    5.1663  -12.6549 C   0  0  0  0  0  0  0  0  0  0  0  0
   10.9612    4.2185  -15.3643 O   0  0  0  0  0  0  0  0  0  0  0  0
    7.3624    5.0232  -12.1931 C   0  0  0  0  0  0  0  0  0  0  0  0
    6.7419    6.0368  -11.7390 O   0  0  0  0  0  0  0  0  0  0  0  0
    8.0025    2.5139  -13.8081 C   0  0  0  0  0  0  0  0  0  0  0  0
   12.4745    6.1392  -14.0767 O   0  0  0  0  0  0  0  0  0  0  0  0
   11.6533    3.2652  -15.3433 C   0  0  0  0  0  0  0  0  0  0  0  0
    9.1987    6.8444  -10.7436 C   0  0  0  0  0  0  0  0  0  0  0  0
   12.7124    7.5374  -14.2172 C   0  0  0  0  0  0  0  0  0  0  0  0
  1  2  1  0  0  0  0
  1  3  1  0  0  0  0
  2  4  1  0  0  0  0
  3  5  1  0  0  0  0
  4  6  1  0  0  0  0
  6  7  1  0  0  0  0
  7  8  1  0  0  0  0
  7  9  2  0  0  0  0
  8 11  2  0  0  0  0
  9 10  1  0  0  0  0
 10 12  2  0  0  0  0
 11 12  1  0  0  0  0
 11 27  1  0  0  0  0
 12 13  1  0  0  0  0
 13 14  1  0  0  0  0
 14 15  2  0  0  0  0
 14 19  1  0  0  0  0
 15 16  1  0  0  0  0
 15 25  1  0  0  0  0
 16 17  2  0  0  0  0
 16 21  1  0  0  0  0
 17 18  1  0  0  0  0
 17 20  1  0  0  0  0
 18 24  1  0  0  0  0
 19 20  2  0  0  0  0
 19 27  1  0  0  0  0
 20 22  1  0  0  0  0
 21 26  1  0  0  0  0
 22 23  1  0  0  0  0
 25 28  1  0  0  0  0
M  END
$$$$

 OpenBabel10082411353D

 55 70  0  0  0  0  0  0  0  0999 V2000
    8.0806    9.0240  -12.7589 C   0  0  0  0  0  0  0  0  0  0  0  0
    8.6514    7.8645  -12.2948 C   0  0  0  0  0  0  0  0  0  0  0  0
    9.9575    7.9974  -11.8426 C   0  0  0  0  0  0  0  0  0  0  0  0
   10.7657    6.8667  -11.6050 C   0  0  1  0  0  0  0  0  0  0  0  0
   10.7682    5.9590  -12.8271 C   0  0  0  0  0  0  0  0  0  0  0  0
   12.1553    7.3846  -11.2315 C   0  0  0  0  0  0  0  0  0  0  0  0
    8.0676    6.6451  -12.2974 C   0  0  0  0  0  0  0  0  0  0  0  0
   10.1892    6.1240  -10.3860 C   0  0  0  0  0  0  0  0  0  0  0  0
   11.8375    5.4373  -13.3240 O   0  0  0  0  0  0  0  0  0  0  0  0
    8.6785    5.4761  -13.0273 C   0  0  1  0  0  0  0  0  0  0  0  0
    9.1969    5.2405  -10.4969 C   0  0  2  0  0  0  0  0  0  0  0  0
    7.2213    6.2210  -11.3074 C   0  0  2  0  0  0  0  0  0  0  0  0
   12.5590    7.6872   -9.9896 C   0  0  0  0  0  0  0  0  0  0  0  0
    9.7633    5.0333  -12.9720 C   0  0  1  0  0  0  0  0  0  0  0  0
   10.0661    4.0167  -14.0373 N   0  0  0  0  0  0  0  0  0  0  0  0
   13.6906    8.3004   -9.6233 O   0  0  0  0  0  0  0  0  0  0  0  0
    7.6357    4.5123  -12.6317 C   0  0  2  0  0  0  0  0  0  0  0  0
    6.8831    4.9171  -11.7031 C   0  0  2  0  0  0  0  0  0  0  0  0
   10.5937    6.6967   -9.1779 C   0  0  0  0  0  0  0  0  0  0  0  0
    9.5087    4.3263  -11.6925 C   0  0  2  0  0  0  0  0  0  0  0  0
   11.6359    7.4449   -8.9125 C   0  0  0  0  0  0  0  0  0  0  0  0
   11.9716    7.9159   -7.6200 C   0  0  0  0  0  0  0  0  0  0  0  0
    8.4648    3.6122  -12.2840 C   0  0  1  0  0  0  0  0  0  0  0  0
    7.9253    2.8004  -11.3926 C   0  0  0  0  0  0  0  0  0  0  0  0
    5.6047    4.5059  -11.7589 C   0  0  0  0  0  0  0  0  0  0  0  0
    7.6606    4.1297  -10.5699 C   0  0  0  0  0  0  0  0  0  0  0  0
   10.9559    7.6849   -6.6057 C   0  0  0  0  0  0  0  0  0  0  0  0
    8.0094    4.5092   -9.5664 C   0  0  0  0  0  0  0  0  0  0  0  0
    8.3033    4.0627   -8.4980 C   0  0  0  0  0  0  0  0  0  0  0  0
    6.3587    7.1012  -11.0392 O   0  0  0  0  0  0  0  0  0  0  0  0
   11.0186    3.9598  -14.9226 C   0  0  0  0  0  0  0  0  0  0  0  0
    8.1758    5.8633  -10.2511 C   0  0  1  0  0  0  0  0  0  0  0  0
   11.4648    2.7104  -15.2650 O   0  0  0  0  0  0  0  0  0  0  0  0
    9.9512    6.8220   -6.8436 C   0  0  0  0  0  0  0  0  0  0  0  0
    9.6899    6.3705   -8.1082 C   0  0  2  0  0  0  0  0  0  0  0  0
   11.2597    8.2901   -5.2396 C   0  0  0  0  0  0  0  0  0  0  0  0
   11.6068    9.7354   -5.2006 C   0  0  0  0  0  0  0  0  0  0  0  0
   10.9469    4.9352  -15.8306 C   0  0  0  0  0  0  0  0  0  0  0  0
    9.2417    4.9555   -7.8256 C   0  0  0  0  0  0  0  0  0  0  0  0
   11.3657    7.7043   -4.0379 C   0  0  0  0  0  0  0  0  0  0  0  0
   11.4469   10.6225   -6.4157 C   0  0  0  0  0  0  0  0  0  0  0  0
   11.9077   10.2897   -3.9889 C   0  0  0  0  0  0  0  0  0  0  0  0
   11.9472    9.5143   -2.8307 C   0  0  0  0  0  0  0  0  0  0  0  0
    9.3030    2.8335  -13.6243 C   0  0  0  0  0  0  0  0  0  0  0  0
   11.0706    6.0966   -4.1041 S   0  0  0  0  0  0  0  0  0  0  0  0
   11.7343    8.3349   -3.0045 C   0  0  0  0  0  0  0  0  0  0  0  0
   12.1398    5.5239   -4.8589 O   0  0  0  0  0  0  0  0  0  0  0  0
   11.2273    5.7924   -2.5132 O   0  0  0  0  0  0  0  0  0  0  0  0
    9.7296    5.7465   -4.5156 C   0  0  2  0  0  0  0  0  0  0  0  0
    8.8786    6.8007   -5.9523 C   0  0  0  0  0  0  0  0  0  0  0  0
    9.3176    4.5037   -3.9953 C   0  0  0  0  0  0  0  0  0  0  0  0
    8.8600    5.6672   -5.2073 C   0  0  1  0  0  0  0  0  0  0  0  0
    7.9313    4.4020   -4.2678 C   0  0  0  0  0  0  0  0  0  0  0  0
    8.8972    4.7561   -6.4055 N   0  0  0  0  0  0  0  0  0  0  0  0
    7.8259    4.7492   -5.5040 C   0  0  2  0  0  0  0  0  0  0  0  0
  1  2  1  0  0  0  0
  2  3  1  0  0  0  0
  2  7  2  0  0  0  0
  4  3  1  6  0  0  0
  4  5  1  0  0  0  0
  4  6  1  0  0  0  0
  4  8  1  0  0  0  0
  5  9  2  0  0  0  0
  6 13  1  0  0  0  0
  7 12  1  0  0  0  0
  8 19  2  0  0  0  0
 10  7  1  1  0  0  0
 10 14  1  0  0  0  0
 10 17  1  0  0  0  0
 11  8  1  6  0  0  0
 11 20  1  0  0  0  0
 11 32  1  0  0  0  0
 12 18  1  0  0  0  0
 12 30  1  1  0  0  0
 12 32  1  0  0  0  0
 13 16  2  0  0  0  0
 13 21  1  0  0  0  0
 14  5  1  1  0  0  0
 14 15  1  0  0  0  0
 14 20  1  0  0  0  0
 15 31  1  0  0  0  0
 15 44  1  0  0  0  0
 17 18  1  0  0  0  0
 17 23  1  0  0  0  0
 18 25  1  0  0  0  0
 18 26  1  0  0  0  0
 19 21  1  0  0  0  0
 19 35  1  0  0  0  0
 20 23  1  0  0  0  0
 21 22  2  0  0  0  0
 22 27  1  0  0  0  0
 23 24  1  0  0  0  0
 23 44  1  0  0  0  0
 24 26  1  0  0  0  0
 26 28  2  0  0  0  0
 27 34  2  0  0  0  0
 27 36  1  0  0  0  0
 28 29  1  0  0  0  0
 28 32  1  0  0  0  0
 29 39  2  0  0  0  0
 31 33  2  0  0  0  0
 31 38  1  0  0  0  0
 34 35  1  0  0  0  0
 34 50  1  0  0  0  0
 35 39  1  0  0  0  0
 36 37  1  0  0  0  0
 36 40  2  0  0  0  0
 37 41  1  0  0  0  0
 37 42  2  0  0  0  0
 39 54  1  0  0  0  0
 40 45  1  0  0  0  0
 40 46  1  0  0  0  0
 42 43  1  0  0  0  0
 43 46  2  0  0  0  0
 45 47  2  0  0  0  0
 45 48  2  0  0  0  0
 45 49  1  0  0  0  0
 49 51  1  0  0  0  0
 49 52  1  0  0  0  0
 50 52  1  0  0  0  0
 51 53  1  0  0  0  0
 52 54  1  0  0  0  0
 52 55  1  0  0  0  0
 53 55  1  0  0  0  0
 54 55  1  0  0  0  0
M  END
$$$$

 OpenBabel10082411353D

 55 68  0  0  0  0  0  0  0  0999 V2000
    8.0806    9.0240  -12.7589 C   0  0  0  0  0  0  0  0  0  0  0  0
    8.6514    7.8645  -12.2948 C   0  0  0  0  0  0  0  0  0  0  0  0
    9.9575    7.9974  -11.8426 C   0  0  0  0  0  0  0  0  0  0  0  0
   10.7657    6.8667  -11.6050 C   0  0  1  0  0  0  0  0  0  0  0  0
   10.7682    5.9590  -12.8271 C   0  0  0  0  0  0  0  0  0  0  0  0
   12.1553    7.3846  -11.2315 C   0  0  0  0  0  0  0  0  0  0  0  0
    8.0676    6.6451  -12.2974 C   0  0  0  0  0  0  0  0  0  0  0  0
   10.1892    6.1240  -10.3860 C   0  0  0  0  0  0  0  0  0  0  0  0
   11.8375    5.4373  -13.3240 O   0  0  0  0  0  0  0  0  0  0  0  0
    8.6785    5.4761  -13.0273 C   0  0  1  0  0  0  0  0  0  0  0  0
    9.1969    5.2405  -10.4969 C   0  0  2  0  0  0  0  0  0  0  0  0
    7.2213    6.2210  -11.3074 C   0  0  2  0  0  0  0  0  0  0  0  0
   12.5590    7.6872   -9.9896 C   0  0  0  0  0  0  0  0  0  0  0  0
    9.7633    5.0333  -12.9720 C   0  0  1  0  0  0  0  0  0  0  0  0
   10.0661    4.0167  -14.0373 N   0  0  0  0  0  0  0  0  0  0  0  0
   13.6906    8.3004   -9.6233 O   0  0  0  0  0  0  0  0  0  0  0  0
    7.6357    4.5123  -12.6317 C   0  0  2  0  0  0  0  0  0  0  0  0
    6.8831    4.9171  -11.7031 C   0  0  2  0  0  0  0  0  0  0  0  0
   10.5937    6.6967   -9.1779 C   0  0  0  0  0  0  0  0  0  0  0  0
    9.5087    4.3263  -11.6925 C   0  0  2  0  0  0  0  0  0  0  0  0
   11.6359    7.4449   -8.9125 C   0  0  0  0  0  0  0  0  0  0  0  0
   11.9716    7.9159   -7.6200 C   0  0  0  0  0  0  0  0  0  0  0  0
    8.4648    3.6122  -12.2840 C   0  0  1  0  0  0  0  0  0  0  0  0
    7.9253    2.8004  -11.3926 C   0  0  0  0  0  0  0  0  0  0  0  0
    5.6047    4.5059  -11.7589 C   0  0  0  0  0  0  0  0  0  0  0  0
    7.6606    4.1297  -10.5699 C   0  0  0  0  0  0  0  0  0  0  0  0
   10.9559    7.6849   -6.6057 C   0  0  0  0  0  0  0  0  0  0  0  0
    8.0094    4.5092   -9.5664 C   0  0  0  0  0  0  0  0  0  0  0  0
    8.3033    4.0627   -8.4980 C   0  0  0  0  0  0  0  0  0  0  0  0
    6.3587    7.1012  -11.0392 O   0  0  0  0  0  0  0  0  0  0  0  0
   11.0186    3.9598  -14.9226 C   0  0  0  0  0  0  0  0  0  0  0  0
    8.1758    5.8633  -10.2511 C   0  0  1  0  0  0  0  0  0  0  0  0
   11.4648    2.7104  -15.2650 O   0  0  0  0  0  0  0  0  0  0  0  0
    9.9512    6.8220   -6.8436 C   0  0  0  0  0  0  0  0  0  0  0  0
    9.6899    6.3705   -8.1082 C   0  0  2  0  0  0  0  0  0  0  0  0
   11.2597    8.2901   -5.2396 C   0  0  0  0  0  0  0  0  0  0  0  0
   11.6068    9.7354   -5.2006 C   0  0  0  0  0  0  0  0  0  0  0  0
   10.9469    4.9352  -15.8306 C   0  0  0  0  0  0  0  0  0  0  0  0
    9.2417    4.9555   -7.8256 C   0  0  0  0  0  0  0  0  0  0  0  0
   11.3657    7.7043   -4.0379 C   0  0  0  0  0  0  0  0  0  0  0  0
   11.4469   10.6225   -6.4157 C   0  0  0  0  0  0  0  0  0  0  0  0
   11.9077   10.2897   -3.9889 C   0  0  0  0  0  0  0  0  0  0  0  0
   11.9472    9.5143   -2.8307 C   0  0  0  0  0  0  0  0  0  0  0  0
    9.3030    2.8335  -13.6243 C   0  0  0  0  0  0  0  0  0  0  0  0
   11.0706    6.0966   -4.1041 S   0  0  0  0  0  0  0  0  0  0  0  0
   11.7343    8.3349   -3.0045 C   0  0  0  0  0  0  0  0  0  0  0  0
   12.1398    5.5239   -4.8589 O   0  0  0  0  0  0  0  0  0  0  0  0
   11.2273    5.7924   -2.5132 O   0  0  0  0  0  0  0  0  0  0  0  0
    9.7296    5.7465   -4.5156 C   0  0  1  0  0  0  0  0  0  0  0  0
    8.8786    6.8007   -5.9523 C   0  0  0  0  0  0  0  0  0  0  0  0
    7.8637    7.2355   -6.3338 O   0  0  0  0  0  0  0  0  0  0  0  0
    9.2748    4.5977   -3.7261 C   0  0  0  0  0  0  0  0  0  0  0  0
    8.7641    6.2147   -5.0724 C   0  0  1  0  0  0  0  0  0  0  0  0
    8.3238    4.1417   -4.4632 C   0  0  0  0  0  0  0  0  0  0  0  0
    7.7658    5.2028   -5.2255 C   0  0  0  0  0  0  0  0  0  0  0  0
  1  2  1  0  0  0  0
  2  3  1  0  0  0  0
  2  7  2  0  0  0  0
  4  3  1  6  0  0  0
  4  5  1  0  0  0  0
  4  6  1  0  0  0  0
  4  8  1  0  0  0  0
  5  9  2  0  0  0  0
  6 13  1  0  0  0  0
  7 12  1  0  0  0  0
  8 19  2  0  0  0  0
 10  7  1  1  0  0  0
 10 14  1  0  0  0  0
 10 17  1  0  0  0  0
 11  8  1  6  0  0  0
 11 20  1  0  0  0  0
 11 32  1  0  0  0  0
 12 18  1  0  0  0  0
 12 30  1  1  0  0  0
 12 32  1  0  0  0  0
 13 16  2  0  0  0  0
 13 21  1  0  0  0  0
 14  5  1  1  0  0  0
 14 15  1  0  0  0  0
 14 20  1  0  0  0  0
 15 31  1  0  0  0  0
 15 44  1  0  0  0  0
 17 18  1  0  0  0  0
 17 23  1  0  0  0  0
 18 25  1  0  0  0  0
 18 26  1  0  0  0  0
 19 21  1  0  0  0  0
 19 35  1  0  0  0  0
 20 23  1  0  0  0  0
 21 22  2  0  0  0  0
 22 27  1  0  0  0  0
 23 24  1  0  0  0  0
 23 44  1  0  0  0  0
 24 26  1  0  0  0  0
 26 28  2  0  0  0  0
 27 34  2  0  0  0  0
 27 36  1  0  0  0  0
 28 29  1  0  0  0  0
 28 32  1  0  0  0  0
 29 39  2  0  0  0  0
 31 33  2  0  0  0  0
 31 38  1  0  0  0  0
 34 35  1  0  0  0  0
 34 50  1  0  0  0  0
 35 39  1  0  0  0  0
 36 37  1  0  0  0  0
 36 40  2  0  0  0  0
 37 41  1  0  0  0  0
 37 42  2  0  0  0  0
 40 45  1  0  0  0  0
 40 46  1  0  0  0  0
 42 43  1  0  0  0  0
 43 46  2  0  0  0  0
 45 47  2  0  0  0  0
 45 48  2  0  0  0  0
 45 49  1  0  0  0  0
 49 52  1  0  0  0  0
 49 53  1  0  0  0  0
 50 51  2  0  0  0  0
 50 53  1  0  0  0  0
 52 54  1  0  0  0  0
 53 55  1  0  0  0  0
 54 55  1  0  0  0  0
M  END
$$$$

 OpenBabel10082411353D

 55 68  0  0  0  0  0  0  0  0999 V2000
    8.0806    9.0240  -12.7589 C   0  0  0  0  0  0  0  0  0  0  0  0
    8.6514    7.8645  -12.2948 C   0  0  0  0  0  0  0  0  0  0  0  0
    9.9575    7.9974  -11.8426 C   0  0  0  0  0  0  0  0  0  0  0  0
   10.7657    6.8667  -11.6050 C   0  0  1  0  0  0  0  0  0  0  0  0
   10.7682    5.9590  -12.8271 C   0  0  0  0  0  0  0  0  0  0  0  0
   12.1553    7.3846  -11.2315 C   0  0  0  0  0  0  0  0  0  0  0  0
    8.0676    6.6451  -12.2974 C   0  0  0  0  0  0  0  0  0  0  0  0
   10.1892    6.1240  -10.3860 C   0  0  0  0  0  0  0  0  0  0  0  0
   11.8375    5.4373  -13.3240 O   0  0  0  0  0  0  0  0  0  0  0  0
    8.6785    5.4761  -13.0273 C   0  0  1  0  0  0  0  0  0  0  0  0
    9.1969    5.2405  -10.4969 C   0  0  2  0  0  0  0  0  0  0  0  0
    7.2213    6.2210  -11.3074 C   0  0  2  0  0  0  0  0  0  0  0  0
   12.5590    7.6872   -9.9896 C   0  0  0  0  0  0  0  0  0  0  0  0
    9.7633    5.0333  -12.9720 C   0  0  1  0  0  0  0  0  0  0  0  0
   10.0661    4.0167  -14.0373 N   0  0  0  0  0  0  0  0  0  0  0  0
   13.6906    8.3004   -9.6233 O   0  0  0  0  0  0  0  0  0  0  0  0
    7.6357    4.5123  -12.6317 C   0  0  2  0  0  0  0  0  0  0  0  0
    6.8831    4.9171  -11.7031 C   0  0  2  0  0  0  0  0  0  0  0  0
   10.5937    6.6967   -9.1779 C   0  0  0  0  0  0  0  0  0  0  0  0
    9.5087    4.3263  -11.6925 C   0  0  2  0  0  0  0  0  0  0  0  0
   11.6359    7.4449   -8.9125 C   0  0  0  0  0  0  0  0  0  0  0  0
   11.9716    7.9159   -7.6200 C   0  0  0  0  0  0  0  0  0  0  0  0
    8.4648    3.6122  -12.2840 C   0  0  1  0  0  0  0  0  0  0  0  0
    7.9253    2.8004  -11.3926 C   0  0  0  0  0  0  0  0  0  0  0  0
    5.6047    4.5059  -11.7589 C   0  0  0  0  0  0  0  0  0  0  0  0
    7.6606    4.1297  -10.5699 C   0  0  0  0  0  0  0  0  0  0  0  0
   10.9559    7.6849   -6.6057 C   0  0  0  0  0  0  0  0  0  0  0  0
    8.0094    4.5092   -9.5664 C   0  0  0  0  0  0  0  0  0  0  0  0
    8.3033    4.0627   -8.4980 C   0  0  0  0  0  0  0  0  0  0  0  0
    6.3587    7.1012  -11.0392 O   0  0  0  0  0  0  0  0  0  0  0  0
   11.0186    3.9598  -14.9226 C   0  0  0  0  0  0  0  0  0  0  0  0
    8.1758    5.8633  -10.2511 C   0  0  1  0  0  0  0  0  0  0  0  0
   11.4648    2.7104  -15.2650 O   0  0  0  0  0  0  0  0  0  0  0  0
    9.9512    6.8220   -6.8436 C   0  0  0  0  0  0  0  0  0  0  0  0
    9.6899    6.3705   -8.1082 C   0  0  2  0  0  0  0  0  0  0  0  0
   11.2597    8.2901   -5.2396 C   0  0  0  0  0  0  0  0  0  0  0  0
   11.6068    9.7354   -5.2006 C   0  0  0  0  0  0  0  0  0  0  0  0
   10.9469    4.9352  -15.8306 C   0  0  0  0  0  0  0  0  0  0  0  0
    9.2417    4.9555   -7.8256 C   0  0  0  0  0  0  0  0  0  0  0  0
   11.3657    7.7043   -4.0379 C   0  0  0  0  0  0  0  0  0  0  0  0
   11.4469   10.6225   -6.4157 C   0  0  0  0  0  0  0  0  0  0  0  0
   11.9077   10.2897   -3.9889 C   0  0  0  0  0  0  0  0  0  0  0  0
   11.9472    9.5143   -2.8307 C   0  0  0  0  0  0  0  0  0  0  0  0
    9.3030    2.8335  -13.6243 C   0  0  0  0  0  0  0  0  0  0  0  0
   11.0706    6.0966   -4.1041 S   0  0  0  0  0  0  0  0  0  0  0  0
   11.7343    8.3349   -3.0045 C   0  0  0  0  0  0  0  0  0  0  0  0
   12.1398    5.5239   -4.8589 O   0  0  0  0  0  0  0  0  0  0  0  0
   11.2273    5.7924   -2.5132 O   0  0  0  0  0  0  0  0  0  0  0  0
    9.7296    5.7465   -4.5156 C   0  0  1  0  0  0  0  0  0  0  0  0
    8.8786    6.8007   -5.9523 C   0  0  0  0  0  0  0  0  0  0  0  0
    9.3176    4.5037   -3.9953 C   0  0  0  0  0  0  0  0  0  0  0  0
    8.7031    6.1825   -5.0735 C   0  0  1  0  0  0  0  0  0  0  0  0
    7.9283    4.2672   -4.1689 C   0  0  0  0  0  0  0  0  0  0  0  0
    7.5324    5.1735   -4.3324 C   0  0  0  0  0  0  0  0  0  0  0  0
    7.7799    5.8811   -5.4161 C   0  0  0  0  0  0  0  0  0  0  0  0
  1  2  1  0  0  0  0
  2  3  1  0  0  0  0
  2  7  2  0  0  0  0
  4  3  1  6  0  0  0
  4  5  1  0  0  0  0
  4  6  1  0  0  0  0
  4  8  1  0  0  0  0
  5  9  2  0  0  0  0
  6 13  1  0  0  0  0
  7 12  1  0  0  0  0
  8 19  2  0  0  0  0
 10  7  1  1  0  0  0
 10 14  1  0  0  0  0
 10 17  1  0  0  0  0
 11  8  1  6  0  0  0
 11 20  1  0  0  0  0
 11 32  1  0  0  0  0
 12 18  1  0  0  0  0
 12 30  1  1  0  0  0
 12 32  1  0  0  0  0
 13 16  2  0  0  0  0
 13 21  1  0  0  0  0
 14  5  1  1  0  0  0
 14 15  1  0  0  0  0
 14 20  1  0  0  0  0
 15 31  1  0  0  0  0
 15 44  1  0  0  0  0
 17 18  1  0  0  0  0
 17 23  1  0  0  0  0
 18 25  1  0  0  0  0
 18 26  1  0  0  0  0
 19 21  1  0  0  0  0
 19 35  1  0  0  0  0
 20 23  1  0  0  0  0
 21 22  2  0  0  0  0
 22 27  1  0  0  0  0
 23 24  1  0  0  0  0
 23 44  1  0  0  0  0
 24 26  1  0  0  0  0
 26 28  2  0  0  0  0
 27 34  2  0  0  0  0
 27 36  1  0  0  0  0
 28 29  1  0  0  0  0
 28 32  1  0  0  0  0
 29 39  2  0  0  0  0
 31 33  2  0  0  0  0
 31 38  1  0  0  0  0
 34 35  1  0  0  0  0
 34 50  1  0  0  0  0
 35 39  1  0  0  0  0
 36 37  1  0  0  0  0
 36 40  2  0  0  0  0
 37 41  1  0  0  0  0
 37 42  2  0  0  0  0
 40 45  1  0  0  0  0
 40 46  1  0  0  0  0
 42 43  1  0  0  0  0
 43 46  2  0  0  0  0
 45 47  2  0  0  0  0
 45 48  2  0  0  0  0
 45 49  1  0  0  0  0
 49 51  1  0  0  0  0
 49 52  1  0  0  0  0
 50 52  1  0  0  0  0
 51 53  1  0  0  0  0
 52 55  1  0  0  0  0
 53 54  1  0  0  0  0
 54 55  1  0  0  0  0
M  END
$$$$

 OpenBabel10082411353D

 55 68  0  0  0  0  0  0  0  0999 V2000
    8.0806    9.0240  -12.7589 C   0  0  0  0  0  0  0  0  0  0  0  0
    8.6514    7.8645  -12.2948 C   0  0  0  0  0  0  0  0  0  0  0  0
    9.9575    7.9974  -11.8426 C   0  0  0  0  0  0  0  0  0  0  0  0
   10.7657    6.8667  -11.6050 C   0  0  1  0  0  0  0  0  0  0  0  0
   10.7682    5.9590  -12.8271 C   0  0  0  0  0  0  0  0  0  0  0  0
   12.1553    7.3846  -11.2315 C   0  0  0  0  0  0  0  0  0  0  0  0
    8.0676    6.6451  -12.2974 C   0  0  0  0  0  0  0  0  0  0  0  0
   10.1892    6.1240  -10.3860 C   0  0  0  0  0  0  0  0  0  0  0  0
   11.8375    5.4373  -13.3240 O   0  0  0  0  0  0  0  0  0  0  0  0
    8.6785    5.4761  -13.0273 C   0  0  1  0  0  0  0  0  0  0  0  0
    9.1969    5.2405  -10.4969 C   0  0  2  0  0  0  0  0  0  0  0  0
    7.2213    6.2210  -11.3074 C   0  0  2  0  0  0  0  0  0  0  0  0
   12.5590    7.6872   -9.9896 C   0  0  0  0  0  0  0  0  0  0  0  0
    9.7633    5.0333  -12.9720 C   0  0  1  0  0  0  0  0  0  0  0  0
   10.0661    4.0167  -14.0373 N   0  0  0  0  0  0  0  0  0  0  0  0
   13.6906    8.3004   -9.6233 O   0  0  0  0  0  0  0  0  0  0  0  0
    7.6357    4.5123  -12.6317 C   0  0  2  0  0  0  0  0  0  0  0  0
    6.8831    4.9171  -11.7031 C   0  0  2  0  0  0  0  0  0  0  0  0
   10.5937    6.6967   -9.1779 C   0  0  0  0  0  0  0  0  0  0  0  0
    9.5087    4.3263  -11.6925 C   0  0  2  0  0  0  0  0  0  0  0  0
   11.6359    7.4449   -8.9125 C   0  0  0  0  0  0  0  0  0  0  0  0
   11.9716    7.9159   -7.6200 C   0  0  0  0  0  0  0  0  0  0  0  0
    8.4648    3.6122  -12.2840 C   0  0  1  0  0  0  0  0  0  0  0  0
    7.9253    2.8004  -11.3926 C   0  0  0  0  0  0  0  0  0  0  0  0
    5.6047    4.5059  -11.7589 C   0  0  0  0  0  0  0  0  0  0  0  0
    7.6606    4.1297  -10.5699 C   0  0  0  0  0  0  0  0  0  0  0  0
   10.9559    7.6849   -6.6057 C   0  0  0  0  0  0  0  0  0  0  0  0
    8.0094    4.5092   -9.5664 C   0  0  0  0  0  0  0  0  0  0  0  0
    8.3033    4.0627   -8.4980 C   0  0  0  0  0  0  0  0  0  0  0  0
    6.3587    7.1012  -11.0392 O   0  0  0  0  0  0  0  0  0  0  0  0
   11.0186    3.9598  -14.9226 C   0  0  0  0  0  0  0  0  0  0  0  0
    8.1758    5.8633  -10.2511 C   0  0  1  0  0  0  0  0  0  0  0  0
   11.4648    2.7104  -15.2650 O   0  0  0  0  0  0  0  0  0  0  0  0
    9.9512    6.8220   -6.8436 C   0  0  0  0  0  0  0  0  0  0  0  0
    9.6899    6.3705   -8.1082 C   0  0  2  0  0  0  0  0  0  0  0  0
   11.2597    8.2901   -5.2396 C   0  0  0  0  0  0  0  0  0  0  0  0
   11.6068    9.7354   -5.2006 C   0  0  0  0  0  0  0  0  0  0  0  0
   10.9469    4.9352  -15.8306 C   0  0  0  0  0  0  0  0  0  0  0  0
    9.2417    4.9555   -7.8256 C   0  0  0  0  0  0  0  0  0  0  0  0
   11.3657    7.7043   -4.0379 C   0  0  0  0  0  0  0  0  0  0  0  0
   11.4469   10.6225   -6.4157 C   0  0  0  0  0  0  0  0  0  0  0  0
   11.9077   10.2897   -3.9889 C   0  0  0  0  0  0  0  0  0  0  0  0
   11.9472    9.5143   -2.8307 C   0  0  0  0  0  0  0  0  0  0  0  0
    9.3030    2.8335  -13.6243 C   0  0  0  0  0  0  0  0  0  0  0  0
   11.0706    6.0966   -4.1041 S   0  0  0  0  0  0  0  0  0  0  0  0
   11.7343    8.3349   -3.0045 C   0  0  0  0  0  0  0  0  0  0  0  0
   12.1398    5.5239   -4.8589 O   0  0  0  0  0  0  0  0  0  0  0  0
   11.2273    5.7924   -2.5132 O   0  0  0  0  0  0  0  0  0  0  0  0
    9.7296    5.7465   -4.5156 C   0  0  0  0  0  0  0  0  0  0  0  0
    8.8786    6.8007   -5.9523 C   0  0  0  0  0  0  0  0  0  0  0  0
    7.8637    7.2355   -6.3338 O   0  0  0  0  0  0  0  0  0  0  0  0
    9.2748    4.5977   -3.7261 C   0  0  0  0  0  0  0  0  0  0  0  0
    8.0980    4.2076   -4.4162 C   0  0  0  0  0  0  0  0  0  0  0  0
    8.7721    6.2271   -5.0750 C   0  0  0  0  0  0  0  0  0  0  0  0
    7.6276    5.3960   -4.9865 N   0  0  0  0  0  0  0  0  0  0  0  0
  1  2  1  0  0  0  0
  2  3  1  0  0  0  0
  2  7  2  0  0  0  0
  4  3  1  6  0  0  0
  4  5  1  0  0  0  0
  4  6  1  0  0  0  0
  4  8  1  0  0  0  0
  5  9  2  0  0  0  0
  6 13  1  0  0  0  0
  7 12  1  0  0  0  0
  8 19  2  0  0  0  0
 10  7  1  1  0  0  0
 10 14  1  0  0  0  0
 10 17  1  0  0  0  0
 11  8  1  6  0  0  0
 11 20  1  0  0  0  0
 11 32  1  0  0  0  0
 12 18  1  0  0  0  0
 12 30  1  1  0  0  0
 12 32  1  0  0  0  0
 13 16  2  0  0  0  0
 13 21  1  0  0  0  0
 14  5  1  1  0  0  0
 14 15  1  0  0  0  0
 14 20  1  0  0  0  0
 15 31  1  0  0  0  0
 15 44  1  0  0  0  0
 17 18  1  0  0  0  0
 17 23  1  0  0  0  0
 18 25  1  0  0  0  0
 18 26  1  0  0  0  0
 19 21  1  0  0  0  0
 19 35  1  0  0  0  0
 20 23  1  0  0  0  0
 21 22  2  0  0  0  0
 22 27  1  0  0  0  0
 23 24  1  0  0  0  0
 23 44  1  0  0  0  0
 24 26  1  0  0  0  0
 26 28  2  0  0  0  0
 27 34  2  0  0  0  0
 27 36  1  0  0  0  0
 28 29  1  0  0  0  0
 28 32  1  0  0  0  0
 29 39  2  0  0  0  0
 31 33  2  0  0  0  0
 31 38  1  0  0  0  0
 34 35  1  0  0  0  0
 34 50  1  0  0  0  0
 35 39  1  0  0  0  0
 36 37  1  0  0  0  0
 36 40  2  0  0  0  0
 37 41  1  0  0  0  0
 37 42  2  0  0  0  0
 40 45  1  0  0  0  0
 40 46  1  0  0  0  0
 42 43  1  0  0  0  0
 43 46  2  0  0  0  0
 45 47  2  0  0  0  0
 45 48  2  0  0  0  0
 45 49  1  0  0  0  0
 49 52  1  0  0  0  0
 49 54  2  0  0  0  0
 50 51  2  0  0  0  0
 50 54  1  0  0  0  0
 52 53  1  0  0  0  0
 53 55  1  0  0  0  0
 54 55  1  0  0  0  0
M  END
$$$$

 OpenBabel10082411353D

 55 70  0  0  0  0  0  0  0  0999 V2000
    8.0806    9.0240  -12.7589 C   0  0  0  0  0  0  0  0  0  0  0  0
    8.6514    7.8645  -12.2948 C   0  0  0  0  0  0  0  0  0  0  0  0
    9.9575    7.9974  -11.8426 C   0  0  0  0  0  0  0  0  0  0  0  0
   10.7657    6.8667  -11.6050 C   0  0  1  0  0  0  0  0  0  0  0  0
   10.7682    5.9590  -12.8271 C   0  0  0  0  0  0  0  0  0  0  0  0
   12.1553    7.3846  -11.2315 C   0  0  0  0  0  0  0  0  0  0  0  0
    8.0676    6.6451  -12.2974 C   0  0  0  0  0  0  0  0  0  0  0  0
   10.1892    6.1240  -10.3860 C   0  0  0  0  0  0  0  0  0  0  0  0
   11.8375    5.4373  -13.3240 O   0  0  0  0  0  0  0  0  0  0  0  0
    8.6785    5.4761  -13.0273 C   0  0  1  0  0  0  0  0  0  0  0  0
    9.1969    5.2405  -10.4969 C   0  0  2  0  0  0  0  0  0  0  0  0
    7.2213    6.2210  -11.3074 C   0  0  2  0  0  0  0  0  0  0  0  0
   12.5590    7.6872   -9.9896 C   0  0  0  0  0  0  0  0  0  0  0  0
    9.7633    5.0333  -12.9720 C   0  0  1  0  0  0  0  0  0  0  0  0
   10.0661    4.0167  -14.0373 N   0  0  0  0  0  0  0  0  0  0  0  0
   13.6906    8.3004   -9.6233 O   0  0  0  0  0  0  0  0  0  0  0  0
    7.6357    4.5123  -12.6317 C   0  0  2  0  0  0  0  0  0  0  0  0
    6.8831    4.9171  -11.7031 C   0  0  2  0  0  0  0  0  0  0  0  0
   10.5937    6.6967   -9.1779 C   0  0  0  0  0  0  0  0  0  0  0  0
    9.5087    4.3263  -11.6925 C   0  0  2  0  0  0  0  0  0  0  0  0
   11.6359    7.4449   -8.9125 C   0  0  0  0  0  0  0  0  0  0  0  0
   11.9716    7.9159   -7.6200 C   0  0  0  0  0  0  0  0  0  0  0  0
    8.4648    3.6122  -12.2840 C   0  0  1  0  0  0  0  0  0  0  0  0
    7.9253    2.8004  -11.3926 C   0  0  0  0  0  0  0  0  0  0  0  0
    5.6047    4.5059  -11.7589 C   0  0  0  0  0  0  0  0  0  0  0  0
    7.6606    4.1297  -10.5699 C   0  0  0  0  0  0  0  0  0  0  0  0
   10.9559    7.6849   -6.6057 C   0  0  0  0  0  0  0  0  0  0  0  0
    8.0094    4.5092   -9.5664 C   0  0  0  0  0  0  0  0  0  0  0  0
    8.3033    4.0627   -8.4980 C   0  0  0  0  0  0  0  0  0  0  0  0
    6.3587    7.1012  -11.0392 O   0  0  0  0  0  0  0  0  0  0  0  0
   11.0186    3.9598  -14.9226 C   0  0  0  0  0  0  0  0  0  0  0  0
    8.1758    5.8633  -10.2511 C   0  0  1  0  0  0  0  0  0  0  0  0
   11.4648    2.7104  -15.2650 O   0  0  0  0  0  0  0  0  0  0  0  0
    9.9512    6.8220   -6.8436 C   0  0  0  0  0  0  0  0  0  0  0  0
    9.6899    6.3705   -8.1082 C   0  0  2  0  0  0  0  0  0  0  0  0
   11.2597    8.2901   -5.2396 C   0  0  0  0  0  0  0  0  0  0  0  0
   11.6068    9.7354   -5.2006 C   0  0  0  0  0  0  0  0  0  0  0  0
   10.9469    4.9352  -15.8306 C   0  0  0  0  0  0  0  0  0  0  0  0
    9.2417    4.9555   -7.8256 C   0  0  0  0  0  0  0  0  0  0  0  0
   11.3657    7.7043   -4.0379 C   0  0  0  0  0  0  0  0  0  0  0  0
   11.4469   10.6225   -6.4157 C   0  0  0  0  0  0  0  0  0  0  0  0
   11.9077   10.2897   -3.9889 C   0  0  0  0  0  0  0  0  0  0  0  0
   11.9472    9.5143   -2.8307 C   0  0  0  0  0  0  0  0  0  0  0  0
    9.3030    2.8335  -13.6243 C   0  0  0  0  0  0  0  0  0  0  0  0
   11.0706    6.0966   -4.1041 S   0  0  0  0  0  0  0  0  0  0  0  0
   11.7343    8.3349   -3.0045 C   0  0  0  0  0  0  0  0  0  0  0  0
   12.1398    5.5239   -4.8589 O   0  0  0  0  0  0  0  0  0  0  0  0
   11.2273    5.7924   -2.5132 O   0  0  0  0  0  0  0  0  0  0  0  0
    9.7296    5.7465   -4.5156 C   0  0  2  0  0  0  0  0  0  0  0  0
    8.8786    6.8007   -5.9523 C   0  0  0  0  0  0  0  0  0  0  0  0
    9.3176    4.5037   -3.9953 C   0  0  0  0  0  0  0  0  0  0  0  0
    8.8600    5.6672   -5.2073 C   0  0  1  0  0  0  0  0  0  0  0  0
    7.9313    4.4020   -4.2678 C   0  0  0  0  0  0  0  0  0  0  0  0
    8.8972    4.7561   -6.4055 N   0  0  0  0  0  0  0  0  0  0  0  0
    7.8259    4.7492   -5.5040 C   0  0  0  0  0  0  0  0  0  0  0  0
  1  2  1  0  0  0  0
  2  3  1  0  0  0  0
  2  7  2  0  0  0  0
  4  3  1  6  0  0  0
  4  5  1  0  0  0  0
  4  6  1  0  0  0  0
  4  8  1  0  0  0  0
  5  9  2  0  0  0  0
  6 13  1  0  0  0  0
  7 12  1  0  0  0  0
  8 19  2  0  0  0  0
 10  7  1  1  0  0  0
 10 14  1  0  0  0  0
 10 17  1  0  0  0  0
 11  8  1  6  0  0  0
 11 20  1  0  0  0  0
 11 32  1  0  0  0  0
 12 18  1  0  0  0  0
 12 30  1  1  0  0  0
 12 32  1  0  0  0  0
 13 16  2  0  0  0  0
 13 21  1  0  0  0  0
 14  5  1  1  0  0  0
 14 15  1  0  0  0  0
 14 20  1  0  0  0  0
 15 31  1  0  0  0  0
 15 44  1  0  0  0  0
 17 18  1  0  0  0  0
 17 23  1  0  0  0  0
 18 25  1  0  0  0  0
 18 26  1  0  0  0  0
 19 21  1  0  0  0  0
 19 35  1  0  0  0  0
 20 23  1  0  0  0  0
 21 22  2  0  0  0  0
 22 27  1  0  0  0  0
 23 24  1  0  0  0  0
 23 44  1  0  0  0  0
 24 26  1  0  0  0  0
 26 28  2  0  0  0  0
 27 34  2  0  0  0  0
 27 36  1  0  0  0  0
 28 29  1  0  0  0  0
 28 32  1  0  0  0  0
 29 39  2  0  0  0  0
 31 33  2  0  0  0  0
 31 38  1  0  0  0  0
 34 35  1  0  0  0  0
 34 50  1  0  0  0  0
 35 39  1  0  0  0  0
 36 37  1  0  0  0  0
 36 40  2  0  0  0  0
 37 41  1  0  0  0  0
 37 42  2  0  0  0  0
 39 54  1  0  0  0  0
 40 45  1  0  0  0  0
 40 46  1  0  0  0  0
 42 43  1  0  0  0  0
 43 46  2  0  0  0  0
 45 47  2  0  0  0  0
 45 48  2  0  0  0  0
 45 49  1  0  0  0  0
 49 51  1  0  0  0  0
 49 52  1  0  0  0  0
 50 52  1  0  0  0  0
 51 53  1  0  0  0  0
 52 54  1  0  0  0  0
 52 55  1  0  0  0  0
 53 55  2  3  0  0  0
 54 55  1  0  0  0  0
M  END
$$$$

 OpenBabel10082411353D

 55 70  0  0  0  0  0  0  0  0999 V2000
    8.0806    9.0240  -12.7589 C   0  0  0  0  0  0  0  0  0  0  0  0
    8.6514    7.8645  -12.2948 C   0  0  0  0  0  0  0  0  0  0  0  0
    9.9575    7.9974  -11.8426 C   0  0  0  0  0  0  0  0  0  0  0  0
   10.7657    6.8667  -11.6050 C   0  0  1  0  0  0  0  0  0  0  0  0
   10.7682    5.9590  -12.8271 C   0  0  0  0  0  0  0  0  0  0  0  0
   12.1553    7.3846  -11.2315 C   0  0  0  0  0  0  0  0  0  0  0  0
    8.0676    6.6451  -12.2974 C   0  0  0  0  0  0  0  0  0  0  0  0
   10.1892    6.1240  -10.3860 C   0  0  0  0  0  0  0  0  0  0  0  0
   11.8375    5.4373  -13.3240 O   0  0  0  0  0  0  0  0  0  0  0  0
    8.6785    5.4761  -13.0273 C   0  0  1  0  0  0  0  0  0  0  0  0
    9.1969    5.2405  -10.4969 C   0  0  2  0  0  0  0  0  0  0  0  0
    7.2213    6.2210  -11.3074 C   0  0  2  0  0  0  0  0  0  0  0  0
   12.5590    7.6872   -9.9896 C   0  0  0  0  0  0  0  0  0  0  0  0
    9.7633    5.0333  -12.9720 C   0  0  1  0  0  0  0  0  0  0  0  0
   10.0661    4.0167  -14.0373 N   0  0  0  0  0  0  0  0  0  0  0  0
   13.6906    8.3004   -9.6233 O   0  0  0  0  0  0  0  0  0  0  0  0
    7.6357    4.5123  -12.6317 C   0  0  2  0  0  0  0  0  0  0  0  0
    6.8831    4.9171  -11.7031 C   0  0  2  0  0  0  0  0  0  0  0  0
   10.5937    6.6967   -9.1779 C   0  0  0  0  0  0  0  0  0  0  0  0
    9.5087    4.3263  -11.6925 C   0  0  2  0  0  0  0  0  0  0  0  0
   11.6359    7.4449   -8.9125 C   0  0  0  0  0  0  0  0  0  0  0  0
   11.9716    7.9159   -7.6200 C   0  0  0  0  0  0  0  0  0  0  0  0
    8.4648    3.6122  -12.2840 C   0  0  1  0  0  0  0  0  0  0  0  0
    7.9253    2.8004  -11.3926 C   0  0  0  0  0  0  0  0  0  0  0  0
    5.6047    4.5059  -11.7589 C   0  0  0  0  0  0  0  0  0  0  0  0
    7.6606    4.1297  -10.5699 C   0  0  0  0  0  0  0  0  0  0  0  0
   10.9559    7.6849   -6.6057 C   0  0  0  0  0  0  0  0  0  0  0  0
    8.0094    4.5092   -9.5664 C   0  0  0  0  0  0  0  0  0  0  0  0
    8.3033    4.0627   -8.4980 C   0  0  0  0  0  0  0  0  0  0  0  0
    6.3587    7.1012  -11.0392 O   0  0  0  0  0  0  0  0  0  0  0  0
   11.0186    3.9598  -14.9226 C   0  0  0  0  0  0  0  0  0  0  0  0
    8.1758    5.8633  -10.2511 C   0  0  1  0  0  0  0  0  0  0  0  0
   11.4648    2.7104  -15.2650 O   0  0  0  0  0  0  0  0  0  0  0  0
    9.9512    6.8220   -6.8436 C   0  0  0  0  0  0  0  0  0  0  0  0
    9.6899    6.3705   -8.1082 C   0  0  2  0  0  0  0  0  0  0  0  0
   11.2597    8.2901   -5.2396 C   0  0  0  0  0  0  0  0  0  0  0  0
   11.6068    9.7354   -5.2006 C   0  0  0  0  0  0  0  0  0  0  0  0
   10.9469    4.9352  -15.8306 C   0  0  0  0  0  0  0  0  0  0  0  0
    9.2417    4.9555   -7.8256 C   0  0  0  0  0  0  0  0  0  0  0  0
   11.3657    7.7043   -4.0379 C   0  0  0  0  0  0  0  0  0  0  0  0
   11.4469   10.6225   -6.4157 C   0  0  0  0  0  0  0  0  0  0  0  0
   11.9077   10.2897   -3.9889 C   0  0  0  0  0  0  0  0  0  0  0  0
   11.9472    9.5143   -2.8307 C   0  0  0  0  0  0  0  0  0  0  0  0
    9.3030    2.8335  -13.6243 C   0  0  0  0  0  0  0  0  0  0  0  0
   11.0706    6.0966   -4.1041 S   0  0  0  0  0  0  0  0  0  0  0  0
   11.7343    8.3349   -3.0045 C   0  0  0  0  0  0  0  0  0  0  0  0
   12.1398    5.5239   -4.8589 O   0  0  0  0  0  0  0  0  0  0  0  0
   11.2273    5.7924   -2.5132 O   0  0  0  0  0  0  0  0  0  0  0  0
    9.7296    5.7465   -4.5156 C   0  0  2  0  0  0  0  0  0  0  0  0
    8.8786    6.8007   -5.9523 C   0  0  0  0  0  0  0  0  0  0  0  0
    9.3176    4.5037   -3.9953 C   0  0  0  0  0  0  0  0  0  0  0  0
    8.8600    5.6672   -5.2073 C   0  0  1  0  0  0  0  0  0  0  0  0
    7.9313    4.4020   -4.2678 C   0  0  0  0  0  0  0  0  0  0  0  0
    8.8972    4.7561   -6.4055 C   0  0  1  0  0  0  0  0  0  0  0  0
    7.7400    4.8477   -5.4355 C   0  0  2  0  0  0  0  0  0  0  0  0
  1  2  1  0  0  0  0
  2  3  1  0  0  0  0
  2  7  2  0  0  0  0
  4  3  1  6  0  0  0
  4  5  1  0  0  0  0
  4  6  1  0  0  0  0
  4  8  1  0  0  0  0
  5  9  2  0  0  0  0
  6 13  1  0  0  0  0
  7 12  1  0  0  0  0
  8 19  2  0  0  0  0
 10  7  1  1  0  0  0
 10 14  1  0  0  0  0
 10 17  1  0  0  0  0
 11  8  1  6  0  0  0
 11 20  1  0  0  0  0
 11 32  1  0  0  0  0
 12 18  1  0  0  0  0
 12 30  1  1  0  0  0
 12 32  1  0  0  0  0
 13 16  2  0  0  0  0
 13 21  1  0  0  0  0
 14  5  1  1  0  0  0
 14 15  1  0  0  0  0
 14 20  1  0  0  0  0
 15 31  1  0  0  0  0
 15 44  1  0  0  0  0
 17 18  1  0  0  0  0
 17 23  1  0  0  0  0
 18 25  1  0  0  0  0
 18 26  1  0  0  0  0
 19 21  1  0  0  0  0
 19 35  1  0  0  0  0
 20 23  1  0  0  0  0
 21 22  2  0  0  0  0
 22 27  1  0  0  0  0
 23 24  1  0  0  0  0
 23 44  1  0  0  0  0
 24 26  1  0  0  0  0
 26 28  2  0  0  0  0
 27 34  2  0  0  0  0
 27 36  1  0  0  0  0
 28 29  1  0  0  0  0
 28 32  1  0  0  0  0
 29 39  2  0  0  0  0
 31 33  2  0  0  0  0
 31 38  1  0  0  0  0
 34 35  1  0  0  0  0
 34 50  1  0  0  0  0
 35 39  1  0  0  0  0
 36 37  1  0  0  0  0
 36 40  2  0  0  0  0
 37 41  1  0  0  0  0
 37 42  2  0  0  0  0
 39 54  1  0  0  0  0
 40 45  1  0  0  0  0
 40 46  1  0  0  0  0
 42 43  1  0  0  0  0
 43 46  2  0  0  0  0
 45 47  2  0  0  0  0
 45 48  2  0  0  0  0
 45 49  1  0  0  0  0
 49 51  1  0  0  0  0
 49 52  1  0  0  0  0
 50 52  1  0  0  0  0
 51 53  1  0  0  0  0
 52 54  1  0  0  0  0
 52 55  1  0  0  0  0
 53 55  1  0  0  0  0
 54 55  1  0  0  0  0
M  END
$$$$

 OpenBabel10082411353D

 55 68  0  0  0  0  0  0  0  0999 V2000
    8.0806    9.0240  -12.7589 C   0  0  0  0  0  0  0  0  0  0  0  0
    8.6514    7.8645  -12.2948 C   0  0  0  0  0  0  0  0  0  0  0  0
    9.9575    7.9974  -11.8426 C   0  0  0  0  0  0  0  0  0  0  0  0
   10.7657    6.8667  -11.6050 C   0  0  1  0  0  0  0  0  0  0  0  0
   10.7682    5.9590  -12.8271 C   0  0  0  0  0  0  0  0  0  0  0  0
   12.1553    7.3846  -11.2315 C   0  0  0  0  0  0  0  0  0  0  0  0
    8.0676    6.6451  -12.2974 C   0  0  0  0  0  0  0  0  0  0  0  0
   10.1892    6.1240  -10.3860 C   0  0  0  0  0  0  0  0  0  0  0  0
   11.8375    5.4373  -13.3240 O   0  0  0  0  0  0  0  0  0  0  0  0
    8.6785    5.4761  -13.0273 C   0  0  1  0  0  0  0  0  0  0  0  0
    9.1969    5.2405  -10.4969 C   0  0  2  0  0  0  0  0  0  0  0  0
    7.2213    6.2210  -11.3074 C   0  0  2  0  0  0  0  0  0  0  0  0
   12.5590    7.6872   -9.9896 C   0  0  0  0  0  0  0  0  0  0  0  0
    9.7633    5.0333  -12.9720 C   0  0  1  0  0  0  0  0  0  0  0  0
   10.0661    4.0167  -14.0373 N   0  0  0  0  0  0  0  0  0  0  0  0
   13.6906    8.3004   -9.6233 O   0  0  0  0  0  0  0  0  0  0  0  0
    7.6357    4.5123  -12.6317 C   0  0  2  0  0  0  0  0  0  0  0  0
    6.8831    4.9171  -11.7031 C   0  0  2  0  0  0  0  0  0  0  0  0
   10.5937    6.6967   -9.1779 C   0  0  0  0  0  0  0  0  0  0  0  0
    9.5087    4.3263  -11.6925 C   0  0  2  0  0  0  0  0  0  0  0  0
   11.6359    7.4449   -8.9125 C   0  0  0  0  0  0  0  0  0  0  0  0
   11.9716    7.9159   -7.6200 C   0  0  0  0  0  0  0  0  0  0  0  0
    8.4648    3.6122  -12.2840 C   0  0  1  0  0  0  0  0  0  0  0  0
    7.9253    2.8004  -11.3926 C   0  0  0  0  0  0  0  0  0  0  0  0
    5.6047    4.5059  -11.7589 C   0  0  0  0  0  0  0  0  0  0  0  0
    7.6606    4.1297  -10.5699 C   0  0  0  0  0  0  0  0  0  0  0  0
   10.9559    7.6849   -6.6057 C   0  0  0  0  0  0  0  0  0  0  0  0
    8.0094    4.5092   -9.5664 C   0  0  0  0  0  0  0  0  0  0  0  0
    8.3033    4.0627   -8.4980 C   0  0  0  0  0  0  0  0  0  0  0  0
    6.3587    7.1012  -11.0392 O   0  0  0  0  0  0  0  0  0  0  0  0
   11.0186    3.9598  -14.9226 C   0  0  0  0  0  0  0  0  0  0  0  0
    8.1758    5.8633  -10.2511 C   0  0  1  0  0  0  0  0  0  0  0  0
   11.4648    2.7104  -15.2650 O   0  0  0  0  0  0  0  0  0  0  0  0
    9.9512    6.8220   -6.8436 C   0  0  0  0  0  0  0  0  0  0  0  0
    9.6899    6.3705   -8.1082 C   0  0  2  0  0  0  0  0  0  0  0  0
   11.2597    8.2901   -5.2396 C   0  0  0  0  0  0  0  0  0  0  0  0
   11.6068    9.7354   -5.2006 C   0  0  0  0  0  0  0  0  0  0  0  0
   10.9469    4.9352  -15.8306 C   0  0  0  0  0  0  0  0  0  0  0  0
    9.2417    4.9555   -7.8256 C   0  0  0  0  0  0  0  0  0  0  0  0
   11.3657    7.7043   -4.0379 C   0  0  0  0  0  0  0  0  0  0  0  0
   11.4469   10.6225   -6.4157 C   0  0  0  0  0  0  0  0  0  0  0  0
   11.9077   10.2897   -3.9889 C   0  0  0  0  0  0  0  0  0  0  0  0
   11.9472    9.5143   -2.8307 C   0  0  0  0  0  0  0  0  0  0  0  0
    9.3030    2.8335  -13.6243 C   0  0  0  0  0  0  0  0  0  0  0  0
   11.0706    6.0966   -4.1041 S   0  0  0  0  0  0  0  0  0  0  0  0
   11.7343    8.3349   -3.0045 C   0  0  0  0  0  0  0  0  0  0  0  0
   12.1398    5.5239   -4.8589 O   0  0  0  0  0  0  0  0  0  0  0  0
   11.2273    5.7924   -2.5132 O   0  0  0  0  0  0  0  0  0  0  0  0
    9.7296    5.7465   -4.5156 C   0  0  2  0  0  0  0  0  0  0  0  0
    8.8786    6.8007   -5.9523 C   0  0  0  0  0  0  0  0  0  0  0  0
    9.3176    4.5037   -3.9953 C   0  0  0  0  0  0  0  0  0  0  0  0
    7.8548    7.3603   -6.2401 O   0  0  0  0  0  0  0  0  0  0  0  0
    8.8510    5.6334   -5.4201 C   0  0  1  0  0  0  0  0  0  0  0  0
    9.0519    4.7304   -6.0221 S   0  0  0  0  0  0  0  0  0  0  0  0
    8.5182    4.0088   -4.8830 C   0  0  0  0  0  0  0  0  0  0  0  0
  1  2  1  0  0  0  0
  2  3  1  0  0  0  0
  2  7  2  0  0  0  0
  4  3  1  6  0  0  0
  4  5  1  0  0  0  0
  4  6  1  0  0  0  0
  4  8  1  0  0  0  0
  5  9  2  0  0  0  0
  6 13  1  0  0  0  0
  7 12  1  0  0  0  0
  8 19  2  0  0  0  0
 10  7  1  1  0  0  0
 10 14  1  0  0  0  0
 10 17  1  0  0  0  0
 11  8  1  6  0  0  0
 11 20  1  0  0  0  0
 11 32  1  0  0  0  0
 12 18  1  0  0  0  0
 12 30  1  1  0  0  0
 12 32  1  0  0  0  0
 13 16  2  0  0  0  0
 13 21  1  0  0  0  0
 14  5  1  1  0  0  0
 14 15  1  0  0  0  0
 14 20  1  0  0  0  0
 15 31  1  0  0  0  0
 15 44  1  0  0  0  0
 17 18  1  0  0  0  0
 17 23  1  0  0  0  0
 18 25  1  0  0  0  0
 18 26  1  0  0  0  0
 19 21  1  0  0  0  0
 19 35  1  0  0  0  0
 20 23  1  0  0  0  0
 21 22  2  0  0  0  0
 22 27  1  0  0  0  0
 23 24  1  0  0  0  0
 23 44  1  0  0  0  0
 24 26  1  0  0  0  0
 26 28  2  0  0  0  0
 27 34  2  0  0  0  0
 27 36  1  0  0  0  0
 28 29  1  0  0  0  0
 28 32  1  0  0  0  0
 29 39  2  0  0  0  0
 31 33  2  0  0  0  0
 31 38  1  0  0  0  0
 34 35  1  0  0  0  0
 34 50  1  0  0  0  0
 35 39  1  0  0  0  0
 36 37  1  0  0  0  0
 36 40  2  0  0  0  0
 37 41  1  0  0  0  0
 37 42  2  0  0  0  0
 39 54  1  0  0  0  0
 40 45  1  0  0  0  0
 40 46  1  0  0  0  0
 42 43  1  0  0  0  0
 43 46  2  0  0  0  0
 45 47  2  0  0  0  0
 45 48  2  0  0  0  0
 45 49  1  0  0  0  0
 49 51  1  0  0  0  0
 49 53  1  0  0  0  0
 50 52  2  0  0  0  0
 50 53  1  0  0  0  0
 51 55  1  0  0  0  0
 53 54  1  0  0  0  0
M  END
$$$$

 OpenBabel10082411353D

 55 68  0  0  0  0  0  0  0  0999 V2000
    8.0806    9.0240  -12.7589 C   0  0  0  0  0  0  0  0  0  0  0  0
    8.6514    7.8645  -12.2948 C   0  0  0  0  0  0  0  0  0  0  0  0
    9.9575    7.9974  -11.8426 C   0  0  0  0  0  0  0  0  0  0  0  0
   10.7657    6.8667  -11.6050 C   0  0  1  0  0  0  0  0  0  0  0  0
   10.7682    5.9590  -12.8271 C   0  0  0  0  0  0  0  0  0  0  0  0
   12.1553    7.3846  -11.2315 C   0  0  0  0  0  0  0  0  0  0  0  0
    8.0676    6.6451  -12.2974 C   0  0  0  0  0  0  0  0  0  0  0  0
   10.1892    6.1240  -10.3860 C   0  0  0  0  0  0  0  0  0  0  0  0
   11.8375    5.4373  -13.3240 O   0  0  0  0  0  0  0  0  0  0  0  0
    8.6785    5.4761  -13.0273 C   0  0  1  0  0  0  0  0  0  0  0  0
    9.1969    5.2405  -10.4969 C   0  0  2  0  0  0  0  0  0  0  0  0
    7.2213    6.2210  -11.3074 C   0  0  2  0  0  0  0  0  0  0  0  0
   12.5590    7.6872   -9.9896 C   0  0  0  0  0  0  0  0  0  0  0  0
    9.7633    5.0333  -12.9720 C   0  0  1  0  0  0  0  0  0  0  0  0
   10.0661    4.0167  -14.0373 N   0  0  0  0  0  0  0  0  0  0  0  0
   13.6906    8.3004   -9.6233 O   0  0  0  0  0  0  0  0  0  0  0  0
    7.6357    4.5123  -12.6317 C   0  0  2  0  0  0  0  0  0  0  0  0
    6.8831    4.9171  -11.7031 C   0  0  2  0  0  0  0  0  0  0  0  0
   10.5937    6.6967   -9.1779 C   0  0  0  0  0  0  0  0  0  0  0  0
    9.5087    4.3263  -11.6925 C   0  0  2  0  0  0  0  0  0  0  0  0
   11.6359    7.4449   -8.9125 C   0  0  0  0  0  0  0  0  0  0  0  0
   11.9716    7.9159   -7.6200 C   0  0  0  0  0  0  0  0  0  0  0  0
    8.4648    3.6122  -12.2840 C   0  0  1  0  0  0  0  0  0  0  0  0
    7.9253    2.8004  -11.3926 C   0  0  0  0  0  0  0  0  0  0  0  0
    5.6047    4.5059  -11.7589 C   0  0  0  0  0  0  0  0  0  0  0  0
    7.6606    4.1297  -10.5699 C   0  0  0  0  0  0  0  0  0  0  0  0
   10.9559    7.6849   -6.6057 C   0  0  0  0  0  0  0  0  0  0  0  0
    8.0094    4.5092   -9.5664 C   0  0  0  0  0  0  0  0  0  0  0  0
    8.3033    4.0627   -8.4980 C   0  0  0  0  0  0  0  0  0  0  0  0
    6.3587    7.1012  -11.0392 O   0  0  0  0  0  0  0  0  0  0  0  0
   11.0186    3.9598  -14.9226 C   0  0  0  0  0  0  0  0  0  0  0  0
    8.1758    5.8633  -10.2511 C   0  0  1  0  0  0  0  0  0  0  0  0
   11.4648    2.7104  -15.2650 O   0  0  0  0  0  0  0  0  0  0  0  0
    9.9512    6.8220   -6.8436 C   0  0  0  0  0  0  0  0  0  0  0  0
    9.6899    6.3705   -8.1082 C   0  0  2  0  0  0  0  0  0  0  0  0
   11.2597    8.2901   -5.2396 C   0  0  0  0  0  0  0  0  0  0  0  0
   11.6068    9.7354   -5.2006 C   0  0  0  0  0  0  0  0  0  0  0  0
   10.9469    4.9352  -15.8306 C   0  0  0  0  0  0  0  0  0  0  0  0
    9.2417    4.9555   -7.8256 C   0  0  0  0  0  0  0  0  0  0  0  0
   11.3657    7.7043   -4.0379 C   0  0  0  0  0  0  0  0  0  0  0  0
   11.4469   10.6225   -6.4157 C   0  0  0  0  0  0  0  0  0  0  0  0
   11.9077   10.2897   -3.9889 C   0  0  0  0  0  0  0  0  0  0  0  0
   11.9472    9.5143   -2.8307 C   0  0  0  0  0  0  0  0  0  0  0  0
    9.3030    2.8335  -13.6243 C   0  0  0  0  0  0  0  0  0  0  0  0
   11.0706    6.0966   -4.1041 S   0  0  0  0  0  0  0  0  0  0  0  0
   11.7343    8.3349   -3.0045 C   0  0  0  0  0  0  0  0  0  0  0  0
   12.1398    5.5239   -4.8589 O   0  0  0  0  0  0  0  0  0  0  0  0
   11.2273    5.7924   -2.5132 O   0  0  0  0  0  0  0  0  0  0  0  0
    9.7296    5.7465   -4.5156 C   0  0  0  0  0  0  0  0  0  0  0  0
    8.8786    6.8007   -5.9523 C   0  0  0  0  0  0  0  0  0  0  0  0
    7.8637    7.2355   -6.3338 O   0  0  0  0  0  0  0  0  0  0  0  0
    9.2748    4.5977   -3.7261 C   0  0  0  0  0  0  0  0  0  0  0  0
    8.0980    4.2076   -4.4162 C   0  0  0  0  0  0  0  0  0  0  0  0
    8.7721    6.2271   -5.0750 C   0  0  0  0  0  0  0  0  0  0  0  0
    7.6276    5.3960   -4.9865 C   0  0  0  0  0  0  0  0  0  0  0  0
  1  2  1  0  0  0  0
  2  3  1  0  0  0  0
  2  7  2  0  0  0  0
  4  3  1  6  0  0  0
  4  5  1  0  0  0  0
  4  6  1  0  0  0  0
  4  8  1  0  0  0  0
  5  9  2  0  0  0  0
  6 13  1  0  0  0  0
  7 12  1  0  0  0  0
  8 19  2  0  0  0  0
 10  7  1  1  0  0  0
 10 14  1  0  0  0  0
 10 17  1  0  0  0  0
 11  8  1  6  0  0  0
 11 20  1  0  0  0  0
 11 32  1  0  0  0  0
 12 18  1  0  0  0  0
 12 30  1  1  0  0  0
 12 32  1  0  0  0  0
 13 16  2  0  0  0  0
 13 21  1  0  0  0  0
 14  5  1  1  0  0  0
 14 15  1  0  0  0  0
 14 20  1  0  0  0  0
 15 31  1  0  0  0  0
 15 44  1  0  0  0  0
 17 18  1  0  0  0  0
 17 23  1  0  0  0  0
 18 25  1  0  0  0  0
 18 26  1  0  0  0  0
 19 21  1  0  0  0  0
 19 35  1  0  0  0  0
 20 23  1  0  0  0  0
 21 22  2  0  0  0  0
 22 27  1  0  0  0  0
 23 24  1  0  0  0  0
 23 44  1  0  0  0  0
 24 26  1  0  0  0  0
 26 28  2  0  0  0  0
 27 34  2  0  0  0  0
 27 36  1  0  0  0  0
 28 29  1  0  0  0  0
 28 32  1  0  0  0  0
 29 39  2  0  0  0  0
 31 33  2  0  0  0  0
 31 38  1  0  0  0  0
 34 35  1  0  0  0  0
 34 50  1  0  0  0  0
 35 39  1  0  0  0  0
 36 37  1  0  0  0  0
 36 40  2  0  0  0  0
 37 41  1  0  0  0  0
 37 42  2  0  0  0  0
 40 45  1  0  0  0  0
 40 46  1  0  0  0  0
 42 43  1  0  0  0  0
 43 46  2  0  0  0  0
 45 47  2  0  0  0  0
 45 48  2  0  0  0  0
 45 49  1  0  0  0  0
 49 52  1  0  0  0  0
 49 54  2  0  0  0  0
 50 51  2  0  0  0  0
 50 54  1  0  0  0  0
 52 53  1  0  0  0  0
 53 55  1  0  0  0  0
 54 55  1  0  0  0  0
M  END
$$$$

 OpenBabel10082411353D

 55 69  0  0  0  0  0  0  0  0999 V2000
    8.0806    9.0240  -12.7589 C   0  0  0  0  0  0  0  0  0  0  0  0
    8.6514    7.8645  -12.2948 C   0  0  0  0  0  0  0  0  0  0  0  0
    9.9575    7.9974  -11.8426 C   0  0  0  0  0  0  0  0  0  0  0  0
   10.7657    6.8667  -11.6050 C   0  0  1  0  0  0  0  0  0  0  0  0
   10.7682    5.9590  -12.8271 C   0  0  0  0  0  0  0  0  0  0  0  0
   12.1553    7.3846  -11.2315 C   0  0  0  0  0  0  0  0  0  0  0  0
    8.0676    6.6451  -12.2974 C   0  0  0  0  0  0  0  0  0  0  0  0
   10.1892    6.1240  -10.3860 C   0  0  0  0  0  0  0  0  0  0  0  0
   11.8375    5.4373  -13.3240 O   0  0  0  0  0  0  0  0  0  0  0  0
    8.6785    5.4761  -13.0273 C   0  0  1  0  0  0  0  0  0  0  0  0
    9.1969    5.2405  -10.4969 C   0  0  2  0  0  0  0  0  0  0  0  0
    7.2213    6.2210  -11.3074 C   0  0  2  0  0  0  0  0  0  0  0  0
   12.5590    7.6872   -9.9896 C   0  0  0  0  0  0  0  0  0  0  0  0
    9.7633    5.0333  -12.9720 C   0  0  1  0  0  0  0  0  0  0  0  0
   10.0661    4.0167  -14.0373 N   0  0  0  0  0  0  0  0  0  0  0  0
   13.6906    8.3004   -9.6233 O   0  0  0  0  0  0  0  0  0  0  0  0
    7.6357    4.5123  -12.6317 C   0  0  2  0  0  0  0  0  0  0  0  0
    6.8831    4.9171  -11.7031 C   0  0  2  0  0  0  0  0  0  0  0  0
   10.5937    6.6967   -9.1779 C   0  0  0  0  0  0  0  0  0  0  0  0
    9.5087    4.3263  -11.6925 C   0  0  2  0  0  0  0  0  0  0  0  0
   11.6359    7.4449   -8.9125 C   0  0  0  0  0  0  0  0  0  0  0  0
   11.9716    7.9159   -7.6200 C   0  0  0  0  0  0  0  0  0  0  0  0
    8.4648    3.6122  -12.2840 C   0  0  1  0  0  0  0  0  0  0  0  0
    7.9253    2.8004  -11.3926 C   0  0  0  0  0  0  0  0  0  0  0  0
    5.6047    4.5059  -11.7589 C   0  0  0  0  0  0  0  0  0  0  0  0
    7.6606    4.1297  -10.5699 C   0  0  0  0  0  0  0  0  0  0  0  0
   10.9559    7.6849   -6.6057 C   0  0  0  0  0  0  0  0  0  0  0  0
    8.0094    4.5092   -9.5664 C   0  0  0  0  0  0  0  0  0  0  0  0
    8.3033    4.0627   -8.4980 C   0  0  0  0  0  0  0  0  0  0  0  0
    6.3587    7.1012  -11.0392 O   0  0  0  0  0  0  0  0  0  0  0  0
   11.0186    3.9598  -14.9226 C   0  0  0  0  0  0  0  0  0  0  0  0
    8.1758    5.8633  -10.2511 C   0  0  1  0  0  0  0  0  0  0  0  0
   11.4648    2.7104  -15.2650 O   0  0  0  0  0  0  0  0  0  0  0  0
    9.9512    6.8220   -6.8436 C   0  0  0  0  0  0  0  0  0  0  0  0
    9.6899    6.3705   -8.1082 C   0  0  2  0  0  0  0  0  0  0  0  0
   11.2597    8.2901   -5.2396 C   0  0  0  0  0  0  0  0  0  0  0  0
   11.6068    9.7354   -5.2006 C   0  0  0  0  0  0  0  0  0  0  0  0
   10.9469    4.9352  -15.8306 C   0  0  0  0  0  0  0  0  0  0  0  0
    9.2417    4.9555   -7.8256 C   0  0  0  0  0  0  0  0  0  0  0  0
   11.3657    7.7043   -4.0379 C   0  0  0  0  0  0  0  0  0  0  0  0
   11.4469   10.6225   -6.4157 C   0  0  0  0  0  0  0  0  0  0  0  0
   11.9077   10.2897   -3.9889 C   0  0  0  0  0  0  0  0  0  0  0  0
   11.9472    9.5143   -2.8307 C   0  0  0  0  0  0  0  0  0  0  0  0
    9.3030    2.8335  -13.6243 C   0  0  0  0  0  0  0  0  0  0  0  0
   11.0706    6.0966   -4.1041 S   0  0  0  0  0  0  0  0  0  0  0  0
   11.7343    8.3349   -3.0045 C   0  0  0  0  0  0  0  0  0  0  0  0
   12.1398    5.5239   -4.8589 O   0  0  0  0  0  0  0  0  0  0  0  0
   11.2273    5.7924   -2.5132 O   0  0  0  0  0  0  0  0  0  0  0  0
    9.7296    5.7465   -4.5156 C   0  0  2  0  0  0  0  0  0  0  0  0
    8.8786    6.8007   -5.9523 C   0  0  0  0  0  0  0  0  0  0  0  0
    9.3176    4.5037   -3.9953 C   0  0  0  0  0  0  0  0  0  0  0  0
    8.8600    5.6672   -5.2073 C   0  0  1  0  0  0  0  0  0  0  0  0
    8.2868    4.2279   -4.6404 C   0  0  0  0  0  0  0  0  0  0  0  0
    9.1039    4.7349   -6.4431 N   0  0  0  0  0  0  0  0  0  0  0  0
    8.3616    3.7944   -5.9216 C   0  0  0  0  0  0  0  0  0  0  0  0
  1  2  1  0  0  0  0
  2  3  1  0  0  0  0
  2  7  2  0  0  0  0
  4  3  1  6  0  0  0
  4  5  1  0  0  0  0
  4  6  1  0  0  0  0
  4  8  1  0  0  0  0
  5  9  2  0  0  0  0
  6 13  1  0  0  0  0
  7 12  1  0  0  0  0
  8 19  2  0  0  0  0
 10  7  1  1  0  0  0
 10 14  1  0  0  0  0
 10 17  1  0  0  0  0
 11  8  1  6  0  0  0
 11 20  1  0  0  0  0
 11 32  1  0  0  0  0
 12 18  1  0  0  0  0
 12 30  1  1  0  0  0
 12 32  1  0  0  0  0
 13 16  2  0  0  0  0
 13 21  1  0  0  0  0
 14  5  1  1  0  0  0
 14 15  1  0  0  0  0
 14 20  1  0  0  0  0
 15 31  1  0  0  0  0
 15 44  1  0  0  0  0
 17 18  1  0  0  0  0
 17 23  1  0  0  0  0
 18 25  1  0  0  0  0
 18 26  1  0  0  0  0
 19 21  1  0  0  0  0
 19 35  1  0  0  0  0
 20 23  1  0  0  0  0
 21 22  2  0  0  0  0
 22 27  1  0  0  0  0
 23 24  1  0  0  0  0
 23 44  1  0  0  0  0
 24 26  1  0  0  0  0
 26 28  2  0  0  0  0
 27 34  2  0  0  0  0
 27 36  1  0  0  0  0
 28 29  1  0  0  0  0
 28 32  1  0  0  0  0
 29 39  2  0  0  0  0
 31 33  2  0  0  0  0
 31 38  1  0  0  0  0
 34 35  1  0  0  0  0
 34 50  1  0  0  0  0
 35 39  1  0  0  0  0
 36 37  1  0  0  0  0
 36 40  2  0  0  0  0
 37 41  1  0  0  0  0
 37 42  2  0  0  0  0
 39 54  1  0  0  0  0
 40 45  1  0  0  0  0
 40 46  1  0  0  0  0
 42 43  1  0  0  0  0
 43 46  2  0  0  0  0
 45 47  2  0  0  0  0
 45 48  2  0  0  0  0
 45 49  1  0  0  0  0
 49 51  1  0  0  0  0
 49 52  1  0  0  0  0
 50 52  1  0  0  0  0
 51 53  1  0  0  0  0
 52 54  1  0  0  0  0
 53 55  1  0  0  0  0
 54 55  1  0  0  0  0
M  END
$$$$

 OpenBabel10082411353D

 55 70  0  0  0  0  0  0  0  0999 V2000
    8.0806    9.0240  -12.7589 C   0  0  0  0  0  0  0  0  0  0  0  0
    8.6514    7.8645  -12.2948 C   0  0  0  0  0  0  0  0  0  0  0  0
    9.9575    7.9974  -11.8426 C   0  0  0  0  0  0  0  0  0  0  0  0
   10.7657    6.8667  -11.6050 C   0  0  1  0  0  0  0  0  0  0  0  0
   10.7682    5.9590  -12.8271 C   0  0  0  0  0  0  0  0  0  0  0  0
   12.1553    7.3846  -11.2315 C   0  0  0  0  0  0  0  0  0  0  0  0
    8.0676    6.6451  -12.2974 C   0  0  0  0  0  0  0  0  0  0  0  0
   10.1892    6.1240  -10.3860 C   0  0  0  0  0  0  0  0  0  0  0  0
   11.8375    5.4373  -13.3240 O   0  0  0  0  0  0  0  0  0  0  0  0
    8.6785    5.4761  -13.0273 C   0  0  1  0  0  0  0  0  0  0  0  0
    9.1969    5.2405  -10.4969 C   0  0  2  0  0  0  0  0  0  0  0  0
    7.2213    6.2210  -11.3074 C   0  0  2  0  0  0  0  0  0  0  0  0
   12.5590    7.6872   -9.9896 C   0  0  0  0  0  0  0  0  0  0  0  0
    9.7633    5.0333  -12.9720 C   0  0  1  0  0  0  0  0  0  0  0  0
   10.0661    4.0167  -14.0373 N   0  0  0  0  0  0  0  0  0  0  0  0
   13.6906    8.3004   -9.6233 O   0  0  0  0  0  0  0  0  0  0  0  0
    7.6357    4.5123  -12.6317 C   0  0  2  0  0  0  0  0  0  0  0  0
    6.8831    4.9171  -11.7031 C   0  0  2  0  0  0  0  0  0  0  0  0
   10.5937    6.6967   -9.1779 C   0  0  0  0  0  0  0  0  0  0  0  0
    9.5087    4.3263  -11.6925 C   0  0  2  0  0  0  0  0  0  0  0  0
   11.6359    7.4449   -8.9125 C   0  0  0  0  0  0  0  0  0  0  0  0
   11.9716    7.9159   -7.6200 C   0  0  0  0  0  0  0  0  0  0  0  0
    8.4648    3.6122  -12.2840 C   0  0  1  0  0  0  0  0  0  0  0  0
    7.9253    2.8004  -11.3926 C   0  0  0  0  0  0  0  0  0  0  0  0
    5.6047    4.5059  -11.7589 C   0  0  0  0  0  0  0  0  0  0  0  0
    7.6606    4.1297  -10.5699 C   0  0  0  0  0  0  0  0  0  0  0  0
   10.9559    7.6849   -6.6057 C   0  0  0  0  0  0  0  0  0  0  0  0
    8.0094    4.5092   -9.5664 C   0  0  0  0  0  0  0  0  0  0  0  0
    8.3033    4.0627   -8.4980 C   0  0  0  0  0  0  0  0  0  0  0  0
    6.3587    7.1012  -11.0392 O   0  0  0  0  0  0  0  0  0  0  0  0
   11.0186    3.9598  -14.9226 C   0  0  0  0  0  0  0  0  0  0  0  0
    8.1758    5.8633  -10.2511 C   0  0  1  0  0  0  0  0  0  0  0  0
   11.4648    2.7104  -15.2650 O   0  0  0  0  0  0  0  0  0  0  0  0
    9.9512    6.8220   -6.8436 C   0  0  0  0  0  0  0  0  0  0  0  0
    9.6899    6.3705   -8.1082 C   0  0  2  0  0  0  0  0  0  0  0  0
   11.2597    8.2901   -5.2396 C   0  0  0  0  0  0  0  0  0  0  0  0
   11.6068    9.7354   -5.2006 C   0  0  0  0  0  0  0  0  0  0  0  0
   10.9469    4.9352  -15.8306 C   0  0  0  0  0  0  0  0  0  0  0  0
    9.2417    4.9555   -7.8256 C   0  0  0  0  0  0  0  0  0  0  0  0
   11.3657    7.7043   -4.0379 C   0  0  0  0  0  0  0  0  0  0  0  0
   11.4469   10.6225   -6.4157 C   0  0  0  0  0  0  0  0  0  0  0  0
   11.9077   10.2897   -3.9889 C   0  0  0  0  0  0  0  0  0  0  0  0
   11.9472    9.5143   -2.8307 C   0  0  0  0  0  0  0  0  0  0  0  0
    9.3030    2.8335  -13.6243 C   0  0  0  0  0  0  0  0  0  0  0  0
   11.0706    6.0966   -4.1041 S   0  0  0  0  0  0  0  0  0  0  0  0
   11.7343    8.3349   -3.0045 C   0  0  0  0  0  0  0  0  0  0  0  0
   12.1398    5.5239   -4.8589 O   0  0  0  0  0  0  0  0  0  0  0  0
   11.2273    5.7924   -2.5132 O   0  0  0  0  0  0  0  0  0  0  0  0
    9.7296    5.7465   -4.5156 C   0  0  2  0  0  0  0  0  0  0  0  0
    8.8786    6.8007   -5.9523 C   0  0  0  0  0  0  0  0  0  0  0  0
    9.3176    4.5037   -3.9953 C   0  0  0  0  0  0  0  0  0  0  0  0
    8.8600    5.6672   -5.2073 C   0  0  1  0  0  0  0  0  0  0  0  0
    7.9313    4.4020   -4.2678 C   0  0  0  0  0  0  0  0  0  0  0  0
    8.8972    4.7561   -6.4055 C   0  0  1  0  0  0  0  0  0  0  0  0
    7.7400    4.8477   -5.4355 C   0  0  0  0  0  0  0  0  0  0  0  0
  1  2  1  0  0  0  0
  2  3  1  0  0  0  0
  2  7  2  0  0  0  0
  4  3  1  6  0  0  0
  4  5  1  0  0  0  0
  4  6  1  0  0  0  0
  4  8  1  0  0  0  0
  5  9  2  0  0  0  0
  6 13  1  0  0  0  0
  7 12  1  0  0  0  0
  8 19  2  0  0  0  0
 10  7  1  1  0  0  0
 10 14  1  0  0  0  0
 10 17  1  0  0  0  0
 11  8  1  6  0  0  0
 11 20  1  0  0  0  0
 11 32  1  0  0  0  0
 12 18  1  0  0  0  0
 12 30  1  1  0  0  0
 12 32  1  0  0  0  0
 13 16  2  0  0  0  0
 13 21  1  0  0  0  0
 14  5  1  1  0  0  0
 14 15  1  0  0  0  0
 14 20  1  0  0  0  0
 15 31  1  0  0  0  0
 15 44  1  0  0  0  0
 17 18  1  0  0  0  0
 17 23  1  0  0  0  0
 18 25  1  0  0  0  0
 18 26  1  0  0  0  0
 19 21  1  0  0  0  0
 19 35  1  0  0  0  0
 20 23  1  0  0  0  0
 21 22  2  0  0  0  0
 22 27  1  0  0  0  0
 23 24  1  0  0  0  0
 23 44  1  0  0  0  0
 24 26  1  0  0  0  0
 26 28  2  0  0  0  0
 27 34  2  0  0  0  0
 27 36  1  0  0  0  0
 28 29  1  0  0  0  0
 28 32  1  0  0  0  0
 29 39  2  0  0  0  0
 31 33  2  0  0  0  0
 31 38  1  0  0  0  0
 34 35  1  0  0  0  0
 34 50  1  0  0  0  0
 35 39  1  0  0  0  0
 36 37  1  0  0  0  0
 36 40  2  0  0  0  0
 37 41  1  0  0  0  0
 37 42  2  0  0  0  0
 39 54  1  0  0  0  0
 40 45  1  0  0  0  0
 40 46  1  0  0  0  0
 42 43  1  0  0  0  0
 43 46  2  0  0  0  0
 45 47  2  0  0  0  0
 45 48  2  0  0  0  0
 45 49  1  0  0  0  0
 49 51  1  0  0  0  0
 49 52  1  0  0  0  0
 50 52  1  0  0  0  0
 51 53  1  0  0  0  0
 52 54  1  0  0  0  0
 52 55  1  0  0  0  0
 53 55  2  3  0  0  0
 54 55  1  0  0  0  0
M  END
$$$$

 OpenBabel10082411353D

 28 31  0  0  0  0  0  0  0  0999 V2000
   11.9925    6.6083   -4.7728 C   0  0  0  0  0  0  0  0  0  0  0  0
   11.4477    7.7141   -5.2577 C   0  0  0  0  0  0  0  0  0  0  0  0
   12.2896    6.5964   -3.2881 C   0  0  0  0  0  0  0  0  0  0  0  0
   11.4087    8.9270   -4.5689 C   0  0  0  0  0  0  0  0  0  0  0  0
   12.2969    7.8839   -2.6254 C   0  0  0  0  0  0  0  0  0  0  0  0
   11.0621    7.5900   -6.8322 C   0  0  0  0  0  0  0  0  0  0  0  0
   11.8177    9.0160   -3.2691 C   0  0  0  0  0  0  0  0  0  0  0  0
    9.9102    8.1517   -7.1200 C   0  0  0  0  0  0  0  0  0  0  0  0
    9.6797    8.0249   -8.5601 C   0  0  0  0  0  0  0  0  0  0  0  0
   10.6774    8.4879   -9.3430 C   0  0  0  0  0  0  0  0  0  0  0  0
   10.7443    8.0718  -10.6768 C   0  0  0  0  0  0  0  0  0  0  0  0
    9.5229    7.6343  -11.2834 C   0  0  2  0  0  0  0  0  0  0  0  0
    9.6110    7.1928  -12.6640 C   0  0  2  0  0  0  0  0  0  0  0  0
    8.4667    6.4682  -13.0705 C   0  0  2  0  0  0  0  0  0  0  0  0
   10.9230    6.4426  -12.9123 C   0  0  0  0  0  0  0  0  0  0  0  0
    7.3033    6.6273  -12.3120 C   0  0  0  0  0  0  0  0  0  0  0  0
    8.4743    5.0795  -13.6054 C   0  0  0  0  0  0  0  0  0  0  0  0
    7.1149    8.0520  -12.1379 C   0  0  0  0  0  0  0  0  0  0  0  0
   10.8643    5.1490  -13.4021 C   0  0  0  0  0  0  0  0  0  0  0  0
    9.7339    4.4306  -13.7545 C   0  0  0  0  0  0  0  0  0  0  0  0
    9.8672    3.0921  -14.2404 C   0  0  0  0  0  0  0  0  0  0  0  0
   10.9922    2.6240  -14.6959 C   0  0  0  0  0  0  0  0  0  0  0  0
    8.7427    2.2167  -14.3089 C   0  0  0  0  0  0  0  0  0  0  0  0
    8.4048    8.7558  -11.7385 C   0  0  0  0  0  0  0  0  0  0  0  0
    8.8646    0.9526  -14.7597 C   0  0  0  0  0  0  0  0  0  0  0  0
    7.6476    0.0858  -14.7902 C   0  0  0  0  0  0  0  0  0  0  0  0
   10.9271    1.1751  -15.2666 C   0  0  0  0  0  0  0  0  0  0  0  0
    9.9344    0.4936  -15.2755 C   0  0  0  0  0  0  0  0  0  0  0  0
  1  2  1  0  0  0  0
  1  3  2  0  0  0  0
  2  4  2  0  0  0  0
  2  6  1  0  0  0  0
  3  5  1  0  0  0  0
  4  7  1  0  0  0  0
  5  7  2  0  0  0  0
  6  8  1  0  0  0  0
  8  9  1  0  0  0  0
  9 10  1  0  0  0  0
 10 11  1  0  0  0  0
 12 11  1  6  0  0  0
 12 13  1  0  0  0  0
 12 24  1  0  0  0  0
 13 14  1  0  0  0  0
 13 15  1  1  0  0  0
 14 16  1  1  0  0  0
 14 17  1  0  0  0  0
 15 19  2  0  0  0  0
 16 18  1  0  0  0  0
 17 20  2  0  0  0  0
 18 24  1  0  0  0  0
 19 20  1  0  0  0  0
 20 21  1  0  0  0  0
 21 22  2  0  0  0  0
 21 23  1  0  0  0  0
 22 27  1  0  0  0  0
 23 25  2  0  0  0  0
 25 26  1  0  0  0  0
 25 28  1  0  0  0  0
 27 28  2  0  0  0  0
M  END
$$$$

 OpenBabel10082411353D

 55 69  0  0  0  0  0  0  0  0999 V2000
    8.0806    9.0240  -12.7589 C   0  0  0  0  0  0  0  0  0  0  0  0
    8.6514    7.8645  -12.2948 C   0  0  0  0  0  0  0  0  0  0  0  0
    9.9575    7.9974  -11.8426 C   0  0  0  0  0  0  0  0  0  0  0  0
   10.7657    6.8667  -11.6050 C   0  0  1  0  0  0  0  0  0  0  0  0
   10.7682    5.9590  -12.8271 C   0  0  0  0  0  0  0  0  0  0  0  0
   12.1553    7.3846  -11.2315 C   0  0  0  0  0  0  0  0  0  0  0  0
    8.0676    6.6451  -12.2974 C   0  0  0  0  0  0  0  0  0  0  0  0
   10.1892    6.1240  -10.3860 C   0  0  0  0  0  0  0  0  0  0  0  0
   11.8375    5.4373  -13.3240 O   0  0  0  0  0  0  0  0  0  0  0  0
    8.6785    5.4761  -13.0273 C   0  0  1  0  0  0  0  0  0  0  0  0
    9.1969    5.2405  -10.4969 C   0  0  2  0  0  0  0  0  0  0  0  0
    7.2213    6.2210  -11.3074 C   0  0  2  0  0  0  0  0  0  0  0  0
   12.5590    7.6872   -9.9896 C   0  0  0  0  0  0  0  0  0  0  0  0
    9.7633    5.0333  -12.9720 C   0  0  1  0  0  0  0  0  0  0  0  0
   10.0661    4.0167  -14.0373 N   0  0  0  0  0  0  0  0  0  0  0  0
   13.6906    8.3004   -9.6233 O   0  0  0  0  0  0  0  0  0  0  0  0
    7.6357    4.5123  -12.6317 C   0  0  2  0  0  0  0  0  0  0  0  0
    6.8831    4.9171  -11.7031 C   0  0  2  0  0  0  0  0  0  0  0  0
   10.5937    6.6967   -9.1779 C   0  0  0  0  0  0  0  0  0  0  0  0
    9.5087    4.3263  -11.6925 C   0  0  2  0  0  0  0  0  0  0  0  0
   11.6359    7.4449   -8.9125 C   0  0  0  0  0  0  0  0  0  0  0  0
   11.9716    7.9159   -7.6200 C   0  0  0  0  0  0  0  0  0  0  0  0
    8.4648    3.6122  -12.2840 C   0  0  1  0  0  0  0  0  0  0  0  0
    7.9253    2.8004  -11.3926 C   0  0  0  0  0  0  0  0  0  0  0  0
    5.6047    4.5059  -11.7589 C   0  0  0  0  0  0  0  0  0  0  0  0
    7.6606    4.1297  -10.5699 C   0  0  0  0  0  0  0  0  0  0  0  0
   10.9559    7.6849   -6.6057 C   0  0  0  0  0  0  0  0  0  0  0  0
    8.0094    4.5092   -9.5664 C   0  0  0  0  0  0  0  0  0  0  0  0
    8.3033    4.0627   -8.4980 C   0  0  0  0  0  0  0  0  0  0  0  0
    6.3587    7.1012  -11.0392 O   0  0  0  0  0  0  0  0  0  0  0  0
   11.0186    3.9598  -14.9226 C   0  0  0  0  0  0  0  0  0  0  0  0
    8.1758    5.8633  -10.2511 C   0  0  1  0  0  0  0  0  0  0  0  0
   11.4648    2.7104  -15.2650 O   0  0  0  0  0  0  0  0  0  0  0  0
    9.9512    6.8220   -6.8436 C   0  0  0  0  0  0  0  0  0  0  0  0
    9.6899    6.3705   -8.1082 C   0  0  2  0  0  0  0  0  0  0  0  0
   11.2597    8.2901   -5.2396 C   0  0  0  0  0  0  0  0  0  0  0  0
   11.6068    9.7354   -5.2006 C   0  0  0  0  0  0  0  0  0  0  0  0
   10.9469    4.9352  -15.8306 C   0  0  0  0  0  0  0  0  0  0  0  0
    9.2417    4.9555   -7.8256 C   0  0  0  0  0  0  0  0  0  0  0  0
   11.3657    7.7043   -4.0379 C   0  0  0  0  0  0  0  0  0  0  0  0
   11.4469   10.6225   -6.4157 C   0  0  0  0  0  0  0  0  0  0  0  0
   11.9077   10.2897   -3.9889 C   0  0  0  0  0  0  0  0  0  0  0  0
   11.9472    9.5143   -2.8307 C   0  0  0  0  0  0  0  0  0  0  0  0
    9.3030    2.8335  -13.6243 C   0  0  0  0  0  0  0  0  0  0  0  0
   11.0706    6.0966   -4.1041 S   0  0  0  0  0  0  0  0  0  0  0  0
   11.7343    8.3349   -3.0045 C   0  0  0  0  0  0  0  0  0  0  0  0
   12.1398    5.5239   -4.8589 O   0  0  0  0  0  0  0  0  0  0  0  0
   11.2273    5.7924   -2.5132 O   0  0  0  0  0  0  0  0  0  0  0  0
    9.7296    5.7465   -4.5156 C   0  0  2  0  0  0  0  0  0  0  0  0
    8.8786    6.8007   -5.9523 C   0  0  0  0  0  0  0  0  0  0  0  0
    9.3176    4.5037   -3.9953 C   0  0  0  0  0  0  0  0  0  0  0  0
    8.8600    5.6672   -5.2073 C   0  0  1  0  0  0  0  0  0  0  0  0
    8.2868    4.2279   -4.6404 C   0  0  0  0  0  0  0  0  0  0  0  0
    9.1039    4.7349   -6.4431 N   0  0  0  0  0  0  0  0  0  0  0  0
    8.3616    3.7944   -5.9216 N   0  0  0  0  0  0  0  0  0  0  0  0
  1  2  1  0  0  0  0
  2  3  1  0  0  0  0
  2  7  2  0  0  0  0
  4  3  1  6  0  0  0
  4  5  1  0  0  0  0
  4  6  1  0  0  0  0
  4  8  1  0  0  0  0
  5  9  2  0  0  0  0
  6 13  1  0  0  0  0
  7 12  1  0  0  0  0
  8 19  2  0  0  0  0
 10  7  1  1  0  0  0
 10 14  1  0  0  0  0
 10 17  1  0  0  0  0
 11  8  1  6  0  0  0
 11 20  1  0  0  0  0
 11 32  1  0  0  0  0
 12 18  1  0  0  0  0
 12 30  1  1  0  0  0
 12 32  1  0  0  0  0
 13 16  2  0  0  0  0
 13 21  1  0  0  0  0
 14  5  1  1  0  0  0
 14 15  1  0  0  0  0
 14 20  1  0  0  0  0
 15 31  1  0  0  0  0
 15 44  1  0  0  0  0
 17 18  1  0  0  0  0
 17 23  1  0  0  0  0
 18 25  1  0  0  0  0
 18 26  1  0  0  0  0
 19 21  1  0  0  0  0
 19 35  1  0  0  0  0
 20 23  1  0  0  0  0
 21 22  2  0  0  0  0
 22 27  1  0  0  0  0
 23 24  1  0  0  0  0
 23 44  1  0  0  0  0
 24 26  1  0  0  0  0
 26 28  2  0  0  0  0
 27 34  2  0  0  0  0
 27 36  1  0  0  0  0
 28 29  1  0  0  0  0
 28 32  1  0  0  0  0
 29 39  2  0  0  0  0
 31 33  2  0  0  0  0
 31 38  1  0  0  0  0
 34 35  1  0  0  0  0
 34 50  1  0  0  0  0
 35 39  1  0  0  0  0
 36 37  1  0  0  0  0
 36 40  2  0  0  0  0
 37 41  1  0  0  0  0
 37 42  2  0  0  0  0
 39 54  1  0  0  0  0
 40 45  1  0  0  0  0
 40 46  1  0  0  0  0
 42 43  1  0  0  0  0
 43 46  2  0  0  0  0
 45 47  2  0  0  0  0
 45 48  2  0  0  0  0
 45 49  1  0  0  0  0
 49 51  1  0  0  0  0
 49 52  1  0  0  0  0
 50 52  1  0  0  0  0
 51 53  1  0  0  0  0
 52 54  1  0  0  0  0
 53 55  1  0  0  0  0
 54 55  1  0  0  0  0
M  END
$$$$

 OpenBabel10082411353D

 55 68  0  0  0  0  0  0  0  0999 V2000
    8.0806    9.0240  -12.7589 C   0  0  0  0  0  0  0  0  0  0  0  0
    8.6514    7.8645  -12.2948 C   0  0  0  0  0  0  0  0  0  0  0  0
    9.9575    7.9974  -11.8426 C   0  0  0  0  0  0  0  0  0  0  0  0
   10.7657    6.8667  -11.6050 C   0  0  1  0  0  0  0  0  0  0  0  0
   10.7682    5.9590  -12.8271 C   0  0  0  0  0  0  0  0  0  0  0  0
   12.1553    7.3846  -11.2315 C   0  0  0  0  0  0  0  0  0  0  0  0
    8.0676    6.6451  -12.2974 C   0  0  0  0  0  0  0  0  0  0  0  0
   10.1892    6.1240  -10.3860 C   0  0  0  0  0  0  0  0  0  0  0  0
   11.8375    5.4373  -13.3240 O   0  0  0  0  0  0  0  0  0  0  0  0
    8.6785    5.4761  -13.0273 C   0  0  1  0  0  0  0  0  0  0  0  0
    9.1969    5.2405  -10.4969 C   0  0  2  0  0  0  0  0  0  0  0  0
    7.2213    6.2210  -11.3074 C   0  0  2  0  0  0  0  0  0  0  0  0
   12.5590    7.6872   -9.9896 C   0  0  0  0  0  0  0  0  0  0  0  0
    9.7633    5.0333  -12.9720 C   0  0  1  0  0  0  0  0  0  0  0  0
   10.0661    4.0167  -14.0373 N   0  0  0  0  0  0  0  0  0  0  0  0
   13.6906    8.3004   -9.6233 O   0  0  0  0  0  0  0  0  0  0  0  0
    7.6357    4.5123  -12.6317 C   0  0  2  0  0  0  0  0  0  0  0  0
    6.8831    4.9171  -11.7031 C   0  0  2  0  0  0  0  0  0  0  0  0
   10.5937    6.6967   -9.1779 C   0  0  0  0  0  0  0  0  0  0  0  0
    9.5087    4.3263  -11.6925 C   0  0  2  0  0  0  0  0  0  0  0  0
   11.6359    7.4449   -8.9125 C   0  0  0  0  0  0  0  0  0  0  0  0
   11.9716    7.9159   -7.6200 C   0  0  0  0  0  0  0  0  0  0  0  0
    8.4648    3.6122  -12.2840 C   0  0  1  0  0  0  0  0  0  0  0  0
    7.9253    2.8004  -11.3926 C   0  0  0  0  0  0  0  0  0  0  0  0
    5.6047    4.5059  -11.7589 C   0  0  0  0  0  0  0  0  0  0  0  0
    7.6606    4.1297  -10.5699 C   0  0  0  0  0  0  0  0  0  0  0  0
   10.9559    7.6849   -6.6057 C   0  0  0  0  0  0  0  0  0  0  0  0
    8.0094    4.5092   -9.5664 C   0  0  0  0  0  0  0  0  0  0  0  0
    8.3033    4.0627   -8.4980 C   0  0  0  0  0  0  0  0  0  0  0  0
    6.3587    7.1012  -11.0392 O   0  0  0  0  0  0  0  0  0  0  0  0
   11.0186    3.9598  -14.9226 C   0  0  0  0  0  0  0  0  0  0  0  0
    8.1758    5.8633  -10.2511 C   0  0  1  0  0  0  0  0  0  0  0  0
   11.4648    2.7104  -15.2650 O   0  0  0  0  0  0  0  0  0  0  0  0
    9.9512    6.8220   -6.8436 C   0  0  0  0  0  0  0  0  0  0  0  0
    9.6899    6.3705   -8.1082 C   0  0  2  0  0  0  0  0  0  0  0  0
   11.2597    8.2901   -5.2396 C   0  0  0  0  0  0  0  0  0  0  0  0
   11.6068    9.7354   -5.2006 C   0  0  0  0  0  0  0  0  0  0  0  0
   10.9469    4.9352  -15.8306 C   0  0  0  0  0  0  0  0  0  0  0  0
    9.2417    4.9555   -7.8256 C   0  0  0  0  0  0  0  0  0  0  0  0
   11.3657    7.7043   -4.0379 C   0  0  0  0  0  0  0  0  0  0  0  0
   11.4469   10.6225   -6.4157 C   0  0  0  0  0  0  0  0  0  0  0  0
   11.9077   10.2897   -3.9889 C   0  0  0  0  0  0  0  0  0  0  0  0
   11.9472    9.5143   -2.8307 C   0  0  0  0  0  0  0  0  0  0  0  0
    9.3030    2.8335  -13.6243 C   0  0  0  0  0  0  0  0  0  0  0  0
   11.0706    6.0966   -4.1041 S   0  0  0  0  0  0  0  0  0  0  0  0
   11.7343    8.3349   -3.0045 C   0  0  0  0  0  0  0  0  0  0  0  0
   12.1398    5.5239   -4.8589 O   0  0  0  0  0  0  0  0  0  0  0  0
   11.2273    5.7924   -2.5132 O   0  0  0  0  0  0  0  0  0  0  0  0
    9.7296    5.7465   -4.5156 C   0  0  2  0  0  0  0  0  0  0  0  0
    8.8786    6.8007   -5.9523 C   0  0  0  0  0  0  0  0  0  0  0  0
    9.3176    4.5037   -3.9953 C   0  0  0  0  0  0  0  0  0  0  0  0
    7.8548    7.3603   -6.2401 O   0  0  0  0  0  0  0  0  0  0  0  0
    8.8510    5.6334   -5.4201 C   0  0  1  0  0  0  0  0  0  0  0  0
    9.1691    4.5700   -6.3537 C   0  0  0  0  0  0  0  0  0  0  0  0
    8.4376    4.1992   -4.7973 S   0  0  0  0  0  0  0  0  0  0  0  0
  1  2  1  0  0  0  0
  2  3  1  0  0  0  0
  2  7  2  0  0  0  0
  4  3  1  6  0  0  0
  4  5  1  0  0  0  0
  4  6  1  0  0  0  0
  4  8  1  0  0  0  0
  5  9  2  0  0  0  0
  6 13  1  0  0  0  0
  7 12  1  0  0  0  0
  8 19  2  0  0  0  0
 10  7  1  1  0  0  0
 10 14  1  0  0  0  0
 10 17  1  0  0  0  0
 11  8  1  6  0  0  0
 11 20  1  0  0  0  0
 11 32  1  0  0  0  0
 12 18  1  0  0  0  0
 12 30  1  1  0  0  0
 12 32  1  0  0  0  0
 13 16  2  0  0  0  0
 13 21  1  0  0  0  0
 14  5  1  1  0  0  0
 14 15  1  0  0  0  0
 14 20  1  0  0  0  0
 15 31  1  0  0  0  0
 15 44  1  0  0  0  0
 17 18  1  0  0  0  0
 17 23  1  0  0  0  0
 18 25  1  0  0  0  0
 18 26  1  0  0  0  0
 19 21  1  0  0  0  0
 19 35  1  0  0  0  0
 20 23  1  0  0  0  0
 21 22  2  0  0  0  0
 22 27  1  0  0  0  0
 23 24  1  0  0  0  0
 23 44  1  0  0  0  0
 24 26  1  0  0  0  0
 26 28  2  0  0  0  0
 27 34  2  0  0  0  0
 27 36  1  0  0  0  0
 28 29  1  0  0  0  0
 28 32  1  0  0  0  0
 29 39  2  0  0  0  0
 31 33  2  0  0  0  0
 31 38  1  0  0  0  0
 34 35  1  0  0  0  0
 34 50  1  0  0  0  0
 35 39  1  0  0  0  0
 36 37  1  0  0  0  0
 36 40  2  0  0  0  0
 37 41  1  0  0  0  0
 37 42  2  0  0  0  0
 39 54  1  0  0  0  0
 40 45  1  0  0  0  0
 40 46  1  0  0  0  0
 42 43  1  0  0  0  0
 43 46  2  0  0  0  0
 45 47  2  0  0  0  0
 45 48  2  0  0  0  0
 45 49  1  0  0  0  0
 49 51  1  0  0  0  0
 49 53  1  0  0  0  0
 50 52  2  0  0  0  0
 50 53  1  0  0  0  0
 51 55  1  0  0  0  0
 53 54  1  0  0  0  0
M  END
$$$$

 OpenBabel10082411353D

 55 69  0  0  0  0  0  0  0  0999 V2000
    8.0806    9.0240  -12.7589 C   0  0  0  0  0  0  0  0  0  0  0  0
    8.6514    7.8645  -12.2948 C   0  0  0  0  0  0  0  0  0  0  0  0
    9.9575    7.9974  -11.8426 C   0  0  0  0  0  0  0  0  0  0  0  0
   10.7657    6.8667  -11.6050 C   0  0  1  0  0  0  0  0  0  0  0  0
   10.7682    5.9590  -12.8271 C   0  0  0  0  0  0  0  0  0  0  0  0
   12.1553    7.3846  -11.2315 C   0  0  0  0  0  0  0  0  0  0  0  0
    8.0676    6.6451  -12.2974 C   0  0  0  0  0  0  0  0  0  0  0  0
   10.1892    6.1240  -10.3860 C   0  0  0  0  0  0  0  0  0  0  0  0
   11.8375    5.4373  -13.3240 O   0  0  0  0  0  0  0  0  0  0  0  0
    8.6785    5.4761  -13.0273 C   0  0  1  0  0  0  0  0  0  0  0  0
    9.1969    5.2405  -10.4969 C   0  0  2  0  0  0  0  0  0  0  0  0
    7.2213    6.2210  -11.3074 C   0  0  2  0  0  0  0  0  0  0  0  0
   12.5590    7.6872   -9.9896 C   0  0  0  0  0  0  0  0  0  0  0  0
    9.7633    5.0333  -12.9720 C   0  0  1  0  0  0  0  0  0  0  0  0
   10.0661    4.0167  -14.0373 N   0  0  0  0  0  0  0  0  0  0  0  0
   13.6906    8.3004   -9.6233 O   0  0  0  0  0  0  0  0  0  0  0  0
    7.6357    4.5123  -12.6317 C   0  0  2  0  0  0  0  0  0  0  0  0
    6.8831    4.9171  -11.7031 C   0  0  2  0  0  0  0  0  0  0  0  0
   10.5937    6.6967   -9.1779 C   0  0  0  0  0  0  0  0  0  0  0  0
    9.5087    4.3263  -11.6925 C   0  0  2  0  0  0  0  0  0  0  0  0
   11.6359    7.4449   -8.9125 C   0  0  0  0  0  0  0  0  0  0  0  0
   11.9716    7.9159   -7.6200 C   0  0  0  0  0  0  0  0  0  0  0  0
    8.4648    3.6122  -12.2840 C   0  0  1  0  0  0  0  0  0  0  0  0
    7.9253    2.8004  -11.3926 C   0  0  0  0  0  0  0  0  0  0  0  0
    5.6047    4.5059  -11.7589 C   0  0  0  0  0  0  0  0  0  0  0  0
    7.6606    4.1297  -10.5699 C   0  0  0  0  0  0  0  0  0  0  0  0
   10.9559    7.6849   -6.6057 C   0  0  0  0  0  0  0  0  0  0  0  0
    8.0094    4.5092   -9.5664 C   0  0  0  0  0  0  0  0  0  0  0  0
    8.3033    4.0627   -8.4980 C   0  0  0  0  0  0  0  0  0  0  0  0
    6.3587    7.1012  -11.0392 O   0  0  0  0  0  0  0  0  0  0  0  0
   11.0186    3.9598  -14.9226 C   0  0  0  0  0  0  0  0  0  0  0  0
    8.1758    5.8633  -10.2511 C   0  0  1  0  0  0  0  0  0  0  0  0
   11.4648    2.7104  -15.2650 O   0  0  0  0  0  0  0  0  0  0  0  0
    9.9512    6.8220   -6.8436 C   0  0  0  0  0  0  0  0  0  0  0  0
    9.6899    6.3705   -8.1082 C   0  0  2  0  0  0  0  0  0  0  0  0
   11.2597    8.2901   -5.2396 C   0  0  0  0  0  0  0  0  0  0  0  0
   11.6068    9.7354   -5.2006 C   0  0  0  0  0  0  0  0  0  0  0  0
   10.9469    4.9352  -15.8306 C   0  0  0  0  0  0  0  0  0  0  0  0
    9.2417    4.9555   -7.8256 C   0  0  0  0  0  0  0  0  0  0  0  0
   11.3657    7.7043   -4.0379 C   0  0  0  0  0  0  0  0  0  0  0  0
   11.4469   10.6225   -6.4157 C   0  0  0  0  0  0  0  0  0  0  0  0
   11.9077   10.2897   -3.9889 C   0  0  0  0  0  0  0  0  0  0  0  0
   11.9472    9.5143   -2.8307 C   0  0  0  0  0  0  0  0  0  0  0  0
    9.3030    2.8335  -13.6243 C   0  0  0  0  0  0  0  0  0  0  0  0
   11.0706    6.0966   -4.1041 S   0  0  0  0  0  0  0  0  0  0  0  0
   11.7343    8.3349   -3.0045 C   0  0  0  0  0  0  0  0  0  0  0  0
   12.1398    5.5239   -4.8589 O   0  0  0  0  0  0  0  0  0  0  0  0
   11.2273    5.7924   -2.5132 O   0  0  0  0  0  0  0  0  0  0  0  0
    9.7296    5.7465   -4.5156 C   0  0  2  0  0  0  0  0  0  0  0  0
    8.8786    6.8007   -5.9523 C   0  0  0  0  0  0  0  0  0  0  0  0
    9.3176    4.5037   -3.9953 C   0  0  0  0  0  0  0  0  0  0  0  0
    8.8600    5.6672   -5.2073 C   0  0  1  0  0  0  0  0  0  0  0  0
    8.2868    4.2279   -4.6404 C   0  0  0  0  0  0  0  0  0  0  0  0
    8.2991    4.6502   -5.8225 N   0  0  2  0  0  0  0  0  0  0  0  0
    9.0504    4.6317   -6.5765 N   0  0  0  0  0  0  0  0  0  0  0  0
  1  2  1  0  0  0  0
  2  3  1  0  0  0  0
  2  7  2  0  0  0  0
  4  3  1  6  0  0  0
  4  5  1  0  0  0  0
  4  6  1  0  0  0  0
  4  8  1  0  0  0  0
  5  9  2  0  0  0  0
  6 13  1  0  0  0  0
  7 12  1  0  0  0  0
  8 19  2  0  0  0  0
 10  7  1  1  0  0  0
 10 14  1  0  0  0  0
 10 17  1  0  0  0  0
 11  8  1  6  0  0  0
 11 20  1  0  0  0  0
 11 32  1  0  0  0  0
 12 18  1  0  0  0  0
 12 30  1  1  0  0  0
 12 32  1  0  0  0  0
 13 16  2  0  0  0  0
 13 21  1  0  0  0  0
 14  5  1  1  0  0  0
 14 15  1  0  0  0  0
 14 20  1  0  0  0  0
 15 31  1  0  0  0  0
 15 44  1  0  0  0  0
 17 18  1  0  0  0  0
 17 23  1  0  0  0  0
 18 25  1  0  0  0  0
 18 26  1  0  0  0  0
 19 21  1  0  0  0  0
 19 35  1  0  0  0  0
 20 23  1  0  0  0  0
 21 22  2  0  0  0  0
 22 27  1  0  0  0  0
 23 24  1  0  0  0  0
 23 44  1  0  0  0  0
 24 26  1  0  0  0  0
 26 28  2  0  0  0  0
 27 34  2  0  0  0  0
 27 36  1  0  0  0  0
 28 29  1  0  0  0  0
 28 32  1  0  0  0  0
 29 39  2  0  0  0  0
 31 33  2  0  0  0  0
 31 38  1  0  0  0  0
 34 35  1  0  0  0  0
 34 50  1  0  0  0  0
 35 39  1  0  0  0  0
 36 37  1  0  0  0  0
 36 40  2  0  0  0  0
 37 41  1  0  0  0  0
 37 42  2  0  0  0  0
 39 55  1  0  0  0  0
 40 45  1  0  0  0  0
 40 46  1  0  0  0  0
 42 43  1  0  0  0  0
 43 46  2  0  0  0  0
 45 47  2  0  0  0  0
 45 48  2  0  0  0  0
 45 49  1  0  0  0  0
 49 51  1  0  0  0  0
 49 52  1  0  0  0  0
 50 52  1  0  0  0  0
 51 53  1  0  0  0  0
 52 54  1  0  0  0  0
 53 54  1  0  0  0  0
 54 55  1  0  0  0  0
M  END
$$$$

 OpenBabel10082411353D

 55 68  0  0  0  0  0  0  0  0999 V2000
    8.0806    9.0240  -12.7589 C   0  0  0  0  0  0  0  0  0  0  0  0
    8.6514    7.8645  -12.2948 C   0  0  0  0  0  0  0  0  0  0  0  0
    9.9575    7.9974  -11.8426 C   0  0  0  0  0  0  0  0  0  0  0  0
   10.7657    6.8667  -11.6050 C   0  0  1  0  0  0  0  0  0  0  0  0
   10.7682    5.9590  -12.8271 C   0  0  0  0  0  0  0  0  0  0  0  0
   12.1553    7.3846  -11.2315 C   0  0  0  0  0  0  0  0  0  0  0  0
    8.0676    6.6451  -12.2974 C   0  0  0  0  0  0  0  0  0  0  0  0
   10.1892    6.1240  -10.3860 C   0  0  0  0  0  0  0  0  0  0  0  0
   11.8375    5.4373  -13.3240 O   0  0  0  0  0  0  0  0  0  0  0  0
    8.6785    5.4761  -13.0273 C   0  0  1  0  0  0  0  0  0  0  0  0
    9.1969    5.2405  -10.4969 C   0  0  2  0  0  0  0  0  0  0  0  0
    7.2213    6.2210  -11.3074 C   0  0  2  0  0  0  0  0  0  0  0  0
   12.5590    7.6872   -9.9896 C   0  0  0  0  0  0  0  0  0  0  0  0
    9.7633    5.0333  -12.9720 C   0  0  1  0  0  0  0  0  0  0  0  0
   10.0661    4.0167  -14.0373 N   0  0  0  0  0  0  0  0  0  0  0  0
   13.6906    8.3004   -9.6233 O   0  0  0  0  0  0  0  0  0  0  0  0
    7.6357    4.5123  -12.6317 C   0  0  2  0  0  0  0  0  0  0  0  0
    6.8831    4.9171  -11.7031 C   0  0  2  0  0  0  0  0  0  0  0  0
   10.5937    6.6967   -9.1779 C   0  0  0  0  0  0  0  0  0  0  0  0
    9.5087    4.3263  -11.6925 C   0  0  2  0  0  0  0  0  0  0  0  0
   11.6359    7.4449   -8.9125 C   0  0  0  0  0  0  0  0  0  0  0  0
   11.9716    7.9159   -7.6200 C   0  0  0  0  0  0  0  0  0  0  0  0
    8.4648    3.6122  -12.2840 C   0  0  1  0  0  0  0  0  0  0  0  0
    7.9253    2.8004  -11.3926 C   0  0  0  0  0  0  0  0  0  0  0  0
    5.6047    4.5059  -11.7589 C   0  0  0  0  0  0  0  0  0  0  0  0
    7.6606    4.1297  -10.5699 C   0  0  0  0  0  0  0  0  0  0  0  0
   10.9559    7.6849   -6.6057 C   0  0  0  0  0  0  0  0  0  0  0  0
    8.0094    4.5092   -9.5664 C   0  0  0  0  0  0  0  0  0  0  0  0
    8.3033    4.0627   -8.4980 C   0  0  0  0  0  0  0  0  0  0  0  0
    6.3587    7.1012  -11.0392 O   0  0  0  0  0  0  0  0  0  0  0  0
   11.0186    3.9598  -14.9226 C   0  0  0  0  0  0  0  0  0  0  0  0
    8.1758    5.8633  -10.2511 C   0  0  1  0  0  0  0  0  0  0  0  0
   11.4648    2.7104  -15.2650 O   0  0  0  0  0  0  0  0  0  0  0  0
    9.9512    6.8220   -6.8436 C   0  0  0  0  0  0  0  0  0  0  0  0
    9.6899    6.3705   -8.1082 C   0  0  2  0  0  0  0  0  0  0  0  0
   11.2597    8.2901   -5.2396 C   0  0  0  0  0  0  0  0  0  0  0  0
   11.6068    9.7354   -5.2006 C   0  0  0  0  0  0  0  0  0  0  0  0
   10.9469    4.9352  -15.8306 C   0  0  0  0  0  0  0  0  0  0  0  0
    9.2417    4.9555   -7.8256 C   0  0  0  0  0  0  0  0  0  0  0  0
   11.3657    7.7043   -4.0379 C   0  0  0  0  0  0  0  0  0  0  0  0
   11.4469   10.6225   -6.4157 C   0  0  0  0  0  0  0  0  0  0  0  0
   11.9077   10.2897   -3.9889 C   0  0  0  0  0  0  0  0  0  0  0  0
   11.9472    9.5143   -2.8307 C   0  0  0  0  0  0  0  0  0  0  0  0
    9.3030    2.8335  -13.6243 C   0  0  0  0  0  0  0  0  0  0  0  0
   11.0706    6.0966   -4.1041 S   0  0  0  0  0  0  0  0  0  0  0  0
   11.7343    8.3349   -3.0045 C   0  0  0  0  0  0  0  0  0  0  0  0
   12.1398    5.5239   -4.8589 O   0  0  0  0  0  0  0  0  0  0  0  0
   11.2273    5.7924   -2.5132 O   0  0  0  0  0  0  0  0  0  0  0  0
    9.7296    5.7465   -4.5156 C   0  0  1  0  0  0  0  0  0  0  0  0
    8.8786    6.8007   -5.9523 C   0  0  0  0  0  0  0  0  0  0  0  0
    9.3176    4.5037   -3.9953 C   0  0  0  0  0  0  0  0  0  0  0  0
    8.7031    6.1825   -5.0735 C   0  0  0  0  0  0  0  0  0  0  0  0
    7.9283    4.2672   -4.1689 C   0  0  0  0  0  0  0  0  0  0  0  0
    7.5324    5.1735   -4.3324 C   0  0  0  0  0  0  0  0  0  0  0  0
    7.7906    5.9211   -4.8732 S   0  0  0  0  0  0  0  0  0  0  0  0
  1  2  1  0  0  0  0
  2  3  1  0  0  0  0
  2  7  2  0  0  0  0
  4  3  1  6  0  0  0
  4  5  1  0  0  0  0
  4  6  1  0  0  0  0
  4  8  1  0  0  0  0
  5  9  2  0  0  0  0
  6 13  1  0  0  0  0
  7 12  1  0  0  0  0
  8 19  2  0  0  0  0
 10  7  1  1  0  0  0
 10 14  1  0  0  0  0
 10 17  1  0  0  0  0
 11  8  1  6  0  0  0
 11 20  1  0  0  0  0
 11 32  1  0  0  0  0
 12 18  1  0  0  0  0
 12 30  1  1  0  0  0
 12 32  1  0  0  0  0
 13 16  2  0  0  0  0
 13 21  1  0  0  0  0
 14  5  1  1  0  0  0
 14 15  1  0  0  0  0
 14 20  1  0  0  0  0
 15 31  1  0  0  0  0
 15 44  1  0  0  0  0
 17 18  1  0  0  0  0
 17 23  1  0  0  0  0
 18 25  1  0  0  0  0
 18 26  1  0  0  0  0
 19 21  1  0  0  0  0
 19 35  1  0  0  0  0
 20 23  1  0  0  0  0
 21 22  2  0  0  0  0
 22 27  1  0  0  0  0
 23 24  1  0  0  0  0
 23 44  1  0  0  0  0
 24 26  1  0  0  0  0
 26 28  2  0  0  0  0
 27 34  2  0  0  0  0
 27 36  1  0  0  0  0
 28 29  1  0  0  0  0
 28 32  1  0  0  0  0
 29 39  2  0  0  0  0
 31 33  2  0  0  0  0
 31 38  1  0  0  0  0
 34 35  1  0  0  0  0
 34 50  1  0  0  0  0
 35 39  1  0  0  0  0
 36 37  1  0  0  0  0
 36 40  2  0  0  0  0
 37 41  1  0  0  0  0
 37 42  2  0  0  0  0
 40 45  1  0  0  0  0
 40 46  1  0  0  0  0
 42 43  1  0  0  0  0
 43 46  2  0  0  0  0
 45 47  2  0  0  0  0
 45 48  2  0  0  0  0
 45 49  1  0  0  0  0
 49 51  1  0  0  0  0
 49 52  1  0  0  0  0
 50 52  1  0  0  0  0
 51 53  1  0  0  0  0
 52 55  2  0  0  0  0
 53 54  1  0  0  0  0
 54 55  1  0  0  0  0
M  END
$$$$

 OpenBabel10082411353D

 55 69  0  0  0  0  0  0  0  0999 V2000
    8.0806    9.0240  -12.7589 C   0  0  0  0  0  0  0  0  0  0  0  0
    8.6514    7.8645  -12.2948 C   0  0  0  0  0  0  0  0  0  0  0  0
    9.9575    7.9974  -11.8426 C   0  0  0  0  0  0  0  0  0  0  0  0
   10.7657    6.8667  -11.6050 C   0  0  1  0  0  0  0  0  0  0  0  0
   10.7682    5.9590  -12.8271 C   0  0  0  0  0  0  0  0  0  0  0  0
   12.1553    7.3846  -11.2315 C   0  0  0  0  0  0  0  0  0  0  0  0
    8.0676    6.6451  -12.2974 C   0  0  0  0  0  0  0  0  0  0  0  0
   10.1892    6.1240  -10.3860 C   0  0  0  0  0  0  0  0  0  0  0  0
   11.8375    5.4373  -13.3240 O   0  0  0  0  0  0  0  0  0  0  0  0
    8.6785    5.4761  -13.0273 C   0  0  1  0  0  0  0  0  0  0  0  0
    9.1969    5.2405  -10.4969 C   0  0  2  0  0  0  0  0  0  0  0  0
    7.2213    6.2210  -11.3074 C   0  0  2  0  0  0  0  0  0  0  0  0
   12.5590    7.6872   -9.9896 C   0  0  0  0  0  0  0  0  0  0  0  0
    9.7633    5.0333  -12.9720 C   0  0  1  0  0  0  0  0  0  0  0  0
   10.0661    4.0167  -14.0373 N   0  0  0  0  0  0  0  0  0  0  0  0
   13.6906    8.3004   -9.6233 O   0  0  0  0  0  0  0  0  0  0  0  0
    7.6357    4.5123  -12.6317 C   0  0  2  0  0  0  0  0  0  0  0  0
    6.8831    4.9171  -11.7031 C   0  0  2  0  0  0  0  0  0  0  0  0
   10.5937    6.6967   -9.1779 C   0  0  0  0  0  0  0  0  0  0  0  0
    9.5087    4.3263  -11.6925 C   0  0  2  0  0  0  0  0  0  0  0  0
   11.6359    7.4449   -8.9125 C   0  0  0  0  0  0  0  0  0  0  0  0
   11.9716    7.9159   -7.6200 C   0  0  0  0  0  0  0  0  0  0  0  0
    8.4648    3.6122  -12.2840 C   0  0  1  0  0  0  0  0  0  0  0  0
    7.9253    2.8004  -11.3926 C   0  0  0  0  0  0  0  0  0  0  0  0
    5.6047    4.5059  -11.7589 C   0  0  0  0  0  0  0  0  0  0  0  0
    7.6606    4.1297  -10.5699 C   0  0  0  0  0  0  0  0  0  0  0  0
   10.9559    7.6849   -6.6057 C   0  0  0  0  0  0  0  0  0  0  0  0
    8.0094    4.5092   -9.5664 C   0  0  0  0  0  0  0  0  0  0  0  0
    8.3033    4.0627   -8.4980 C   0  0  0  0  0  0  0  0  0  0  0  0
    6.3587    7.1012  -11.0392 O   0  0  0  0  0  0  0  0  0  0  0  0
   11.0186    3.9598  -14.9226 C   0  0  0  0  0  0  0  0  0  0  0  0
    8.1758    5.8633  -10.2511 C   0  0  1  0  0  0  0  0  0  0  0  0
   11.4648    2.7104  -15.2650 O   0  0  0  0  0  0  0  0  0  0  0  0
    9.9512    6.8220   -6.8436 C   0  0  0  0  0  0  0  0  0  0  0  0
    9.6899    6.3705   -8.1082 C   0  0  2  0  0  0  0  0  0  0  0  0
   11.2597    8.2901   -5.2396 C   0  0  0  0  0  0  0  0  0  0  0  0
   11.6068    9.7354   -5.2006 C   0  0  0  0  0  0  0  0  0  0  0  0
   10.9469    4.9352  -15.8306 C   0  0  0  0  0  0  0  0  0  0  0  0
    9.2417    4.9555   -7.8256 C   0  0  0  0  0  0  0  0  0  0  0  0
   11.3657    7.7043   -4.0379 C   0  0  0  0  0  0  0  0  0  0  0  0
   11.4469   10.6225   -6.4157 C   0  0  0  0  0  0  0  0  0  0  0  0
   11.9077   10.2897   -3.9889 C   0  0  0  0  0  0  0  0  0  0  0  0
   11.9472    9.5143   -2.8307 C   0  0  0  0  0  0  0  0  0  0  0  0
    9.3030    2.8335  -13.6243 C   0  0  0  0  0  0  0  0  0  0  0  0
   11.0706    6.0966   -4.1041 S   0  0  0  0  0  0  0  0  0  0  0  0
   11.7343    8.3349   -3.0045 C   0  0  0  0  0  0  0  0  0  0  0  0
   12.1398    5.5239   -4.8589 O   0  0  0  0  0  0  0  0  0  0  0  0
   11.2273    5.7924   -2.5132 O   0  0  0  0  0  0  0  0  0  0  0  0
    9.7296    5.7465   -4.5156 C   0  0  1  0  0  0  0  0  0  0  0  0
    8.8786    6.8007   -5.9523 C   0  0  2  0  0  0  0  0  0  0  0  0
    9.3176    4.5037   -3.9953 C   0  0  0  0  0  0  0  0  0  0  0  0
    8.7031    6.1825   -5.0735 C   0  0  1  0  0  0  0  0  0  0  0  0
    7.9283    4.2672   -4.1689 C   0  0  0  0  0  0  0  0  0  0  0  0
    7.5324    5.1735   -4.3324 C   0  0  0  0  0  0  0  0  0  0  0  0
    7.7799    5.8811   -5.4161 C   0  0  1  0  0  0  0  0  0  0  0  0
  1  2  1  0  0  0  0
  2  3  1  0  0  0  0
  2  7  2  0  0  0  0
  4  3  1  6  0  0  0
  4  5  1  0  0  0  0
  4  6  1  0  0  0  0
  4  8  1  0  0  0  0
  5  9  2  0  0  0  0
  6 13  1  0  0  0  0
  7 12  1  0  0  0  0
  8 19  2  0  0  0  0
 10  7  1  1  0  0  0
 10 14  1  0  0  0  0
 10 17  1  0  0  0  0
 11  8  1  6  0  0  0
 11 20  1  0  0  0  0
 11 32  1  0  0  0  0
 12 18  1  0  0  0  0
 12 30  1  1  0  0  0
 12 32  1  0  0  0  0
 13 16  2  0  0  0  0
 13 21  1  0  0  0  0
 14  5  1  1  0  0  0
 14 15  1  0  0  0  0
 14 20  1  0  0  0  0
 15 31  1  0  0  0  0
 15 44  1  0  0  0  0
 17 18  1  0  0  0  0
 17 23  1  0  0  0  0
 18 25  1  0  0  0  0
 18 26  1  0  0  0  0
 19 21  1  0  0  0  0
 19 35  1  0  0  0  0
 20 23  1  0  0  0  0
 21 22  2  0  0  0  0
 22 27  1  0  0  0  0
 23 24  1  0  0  0  0
 23 44  1  0  0  0  0
 24 26  1  0  0  0  0
 26 28  2  0  0  0  0
 27 34  2  0  0  0  0
 27 36  1  0  0  0  0
 28 29  1  0  0  0  0
 28 32  1  0  0  0  0
 29 39  2  0  0  0  0
 31 33  2  0  0  0  0
 31 38  1  0  0  0  0
 34 35  1  0  0  0  0
 34 50  1  0  0  0  0
 35 39  1  0  0  0  0
 36 37  1  0  0  0  0
 36 40  2  0  0  0  0
 37 41  1  0  0  0  0
 37 42  2  0  0  0  0
 40 45  1  0  0  0  0
 40 46  1  0  0  0  0
 42 43  1  0  0  0  0
 43 46  2  0  0  0  0
 45 47  2  0  0  0  0
 45 48  2  0  0  0  0
 45 49  1  0  0  0  0
 49 51  1  0  0  0  0
 49 52  1  0  0  0  0
 50 52  1  0  0  0  0
 50 55  1  0  0  0  0
 51 53  1  0  0  0  0
 52 55  1  0  0  0  0
 53 54  1  0  0  0  0
 54 55  1  0  0  0  0
M  END
$$$$

 OpenBabel10082411353D

 56 69  0  0  0  0  0  0  0  0999 V2000
    8.0806    9.0240  -12.7589 C   0  0  0  0  0  0  0  0  0  0  0  0
    8.6514    7.8645  -12.2948 C   0  0  0  0  0  0  0  0  0  0  0  0
    9.9575    7.9974  -11.8426 C   0  0  0  0  0  0  0  0  0  0  0  0
   10.7657    6.8667  -11.6050 C   0  0  1  0  0  0  0  0  0  0  0  0
   10.7682    5.9590  -12.8271 C   0  0  0  0  0  0  0  0  0  0  0  0
   12.1553    7.3846  -11.2315 C   0  0  0  0  0  0  0  0  0  0  0  0
    8.0676    6.6451  -12.2974 C   0  0  0  0  0  0  0  0  0  0  0  0
   10.1892    6.1240  -10.3860 C   0  0  0  0  0  0  0  0  0  0  0  0
   11.8375    5.4373  -13.3240 O   0  0  0  0  0  0  0  0  0  0  0  0
    8.6785    5.4761  -13.0273 C   0  0  1  0  0  0  0  0  0  0  0  0
    9.1969    5.2405  -10.4969 C   0  0  2  0  0  0  0  0  0  0  0  0
    7.2213    6.2210  -11.3074 C   0  0  2  0  0  0  0  0  0  0  0  0
   12.5590    7.6872   -9.9896 C   0  0  0  0  0  0  0  0  0  0  0  0
    9.7633    5.0333  -12.9720 C   0  0  1  0  0  0  0  0  0  0  0  0
   10.0661    4.0167  -14.0373 N   0  0  0  0  0  0  0  0  0  0  0  0
   13.6906    8.3004   -9.6233 O   0  0  0  0  0  0  0  0  0  0  0  0
    7.6357    4.5123  -12.6317 C   0  0  2  0  0  0  0  0  0  0  0  0
    6.8831    4.9171  -11.7031 C   0  0  2  0  0  0  0  0  0  0  0  0
   10.5937    6.6967   -9.1779 C   0  0  0  0  0  0  0  0  0  0  0  0
    9.5087    4.3263  -11.6925 C   0  0  2  0  0  0  0  0  0  0  0  0
   11.6359    7.4449   -8.9125 C   0  0  0  0  0  0  0  0  0  0  0  0
   11.9716    7.9159   -7.6200 C   0  0  0  0  0  0  0  0  0  0  0  0
    8.4648    3.6122  -12.2840 C   0  0  1  0  0  0  0  0  0  0  0  0
    7.9253    2.8004  -11.3926 C   0  0  0  0  0  0  0  0  0  0  0  0
    5.6047    4.5059  -11.7589 C   0  0  0  0  0  0  0  0  0  0  0  0
    7.6606    4.1297  -10.5699 C   0  0  0  0  0  0  0  0  0  0  0  0
   10.9559    7.6849   -6.6057 C   0  0  0  0  0  0  0  0  0  0  0  0
    8.0094    4.5092   -9.5664 C   0  0  0  0  0  0  0  0  0  0  0  0
    8.3033    4.0627   -8.4980 C   0  0  0  0  0  0  0  0  0  0  0  0
    6.3587    7.1012  -11.0392 O   0  0  0  0  0  0  0  0  0  0  0  0
   11.0186    3.9598  -14.9226 C   0  0  0  0  0  0  0  0  0  0  0  0
    8.1758    5.8633  -10.2511 C   0  0  1  0  0  0  0  0  0  0  0  0
   11.4648    2.7104  -15.2650 O   0  0  0  0  0  0  0  0  0  0  0  0
    9.9512    6.8220   -6.8436 C   0  0  0  0  0  0  0  0  0  0  0  0
    9.6899    6.3705   -8.1082 C   0  0  2  0  0  0  0  0  0  0  0  0
   11.2597    8.2901   -5.2396 C   0  0  0  0  0  0  0  0  0  0  0  0
   11.6068    9.7354   -5.2006 C   0  0  0  0  0  0  0  0  0  0  0  0
   10.9469    4.9352  -15.8306 C   0  0  0  0  0  0  0  0  0  0  0  0
    9.2417    4.9555   -7.8256 C   0  0  0  0  0  0  0  0  0  0  0  0
   11.3657    7.7043   -4.0379 C   0  0  0  0  0  0  0  0  0  0  0  0
   11.4469   10.6225   -6.4157 C   0  0  0  0  0  0  0  0  0  0  0  0
   11.9077   10.2897   -3.9889 C   0  0  0  0  0  0  0  0  0  0  0  0
   11.9472    9.5143   -2.8307 C   0  0  0  0  0  0  0  0  0  0  0  0
    9.3030    2.8335  -13.6243 C   0  0  0  0  0  0  0  0  0  0  0  0
   11.0706    6.0966   -4.1041 S   0  0  0  0  0  0  0  0  0  0  0  0
   11.7343    8.3349   -3.0045 C   0  0  0  0  0  0  0  0  0  0  0  0
   12.1398    5.5239   -4.8589 O   0  0  0  0  0  0  0  0  0  0  0  0
   11.2273    5.7924   -2.5132 O   0  0  0  0  0  0  0  0  0  0  0  0
    9.7296    5.7465   -4.5156 C   0  0  1  0  0  0  0  0  0  0  0  0
    8.8786    6.8007   -5.9523 C   0  0  0  0  0  0  0  0  0  0  0  0
    7.8637    7.2355   -6.3338 O   0  0  0  0  0  0  0  0  0  0  0  0
    9.2748    4.5977   -3.7261 C   0  0  0  0  0  0  0  0  0  0  0  0
    8.9272    5.9732   -4.9825 C   0  0  1  0  0  0  0  0  0  0  0  0
    8.0741    4.1655   -4.4505 C   0  0  2  0  0  0  0  0  0  0  0  0
    8.3420    4.8932   -5.3822 N   0  0  0  0  0  0  0  0  0  0  0  0
    7.2017    4.3234   -3.7685 C   0  0  0  0  0  0  0  0  0  0  0  0
  1  2  1  0  0  0  0
  2  3  1  0  0  0  0
  2  7  2  0  0  0  0
  4  3  1  6  0  0  0
  4  5  1  0  0  0  0
  4  6  1  0  0  0  0
  4  8  1  0  0  0  0
  5  9  2  0  0  0  0
  6 13  1  0  0  0  0
  7 12  1  0  0  0  0
  8 19  2  0  0  0  0
 10  7  1  1  0  0  0
 10 14  1  0  0  0  0
 10 17  1  0  0  0  0
 11  8  1  6  0  0  0
 11 20  1  0  0  0  0
 11 32  1  0  0  0  0
 12 18  1  0  0  0  0
 12 30  1  1  0  0  0
 12 32  1  0  0  0  0
 13 16  2  0  0  0  0
 13 21  1  0  0  0  0
 14  5  1  1  0  0  0
 14 15  1  0  0  0  0
 14 20  1  0  0  0  0
 15 31  1  0  0  0  0
 15 44  1  0  0  0  0
 17 18  1  0  0  0  0
 17 23  1  0  0  0  0
 18 25  1  0  0  0  0
 18 26  1  0  0  0  0
 19 21  1  0  0  0  0
 19 35  1  0  0  0  0
 20 23  1  0  0  0  0
 21 22  2  0  0  0  0
 22 27  1  0  0  0  0
 23 24  1  0  0  0  0
 23 44  1  0  0  0  0
 24 26  1  0  0  0  0
 26 28  2  0  0  0  0
 27 34  2  0  0  0  0
 27 36  1  0  0  0  0
 28 29  1  0  0  0  0
 28 32  1  0  0  0  0
 29 39  2  0  0  0  0
 31 33  2  0  0  0  0
 31 38  1  0  0  0  0
 34 35  1  0  0  0  0
 34 50  1  0  0  0  0
 35 39  1  0  0  0  0
 36 37  1  0  0  0  0
 36 40  2  0  0  0  0
 37 41  1  0  0  0  0
 37 42  2  0  0  0  0
 40 45  1  0  0  0  0
 40 46  1  0  0  0  0
 42 43  1  0  0  0  0
 43 46  2  0  0  0  0
 45 47  2  0  0  0  0
 45 48  2  0  0  0  0
 45 49  1  0  0  0  0
 49 52  1  0  0  0  0
 49 53  1  0  0  0  0
 50 51  2  0  0  0  0
 50 53  1  0  0  0  0
 52 54  1  0  0  0  0
 53 55  1  0  0  0  0
 54 55  1  0  0  0  0
 54 56  1  0  0  0  0
M  END
$$$$

 OpenBabel10082411353D

 56 69  0  0  0  0  0  0  0  0999 V2000
    8.0806    9.0240  -12.7589 C   0  0  0  0  0  0  0  0  0  0  0  0
    8.6514    7.8645  -12.2948 C   0  0  0  0  0  0  0  0  0  0  0  0
    9.9575    7.9974  -11.8426 C   0  0  0  0  0  0  0  0  0  0  0  0
   10.7657    6.8667  -11.6050 C   0  0  1  0  0  0  0  0  0  0  0  0
   10.7682    5.9590  -12.8271 C   0  0  0  0  0  0  0  0  0  0  0  0
   12.1553    7.3846  -11.2315 C   0  0  0  0  0  0  0  0  0  0  0  0
    8.0676    6.6451  -12.2974 C   0  0  0  0  0  0  0  0  0  0  0  0
   10.1892    6.1240  -10.3860 C   0  0  0  0  0  0  0  0  0  0  0  0
   11.8375    5.4373  -13.3240 O   0  0  0  0  0  0  0  0  0  0  0  0
    8.6785    5.4761  -13.0273 C   0  0  1  0  0  0  0  0  0  0  0  0
    9.1969    5.2405  -10.4969 C   0  0  2  0  0  0  0  0  0  0  0  0
    7.2213    6.2210  -11.3074 C   0  0  2  0  0  0  0  0  0  0  0  0
   12.5590    7.6872   -9.9896 C   0  0  0  0  0  0  0  0  0  0  0  0
    9.7633    5.0333  -12.9720 C   0  0  1  0  0  0  0  0  0  0  0  0
   10.0661    4.0167  -14.0373 N   0  0  0  0  0  0  0  0  0  0  0  0
   13.6906    8.3004   -9.6233 O   0  0  0  0  0  0  0  0  0  0  0  0
    7.6357    4.5123  -12.6317 C   0  0  2  0  0  0  0  0  0  0  0  0
    6.8831    4.9171  -11.7031 C   0  0  2  0  0  0  0  0  0  0  0  0
   10.5937    6.6967   -9.1779 C   0  0  0  0  0  0  0  0  0  0  0  0
    9.5087    4.3263  -11.6925 C   0  0  2  0  0  0  0  0  0  0  0  0
   11.6359    7.4449   -8.9125 C   0  0  0  0  0  0  0  0  0  0  0  0
   11.9716    7.9159   -7.6200 C   0  0  0  0  0  0  0  0  0  0  0  0
    8.4648    3.6122  -12.2840 C   0  0  1  0  0  0  0  0  0  0  0  0
    7.9253    2.8004  -11.3926 C   0  0  0  0  0  0  0  0  0  0  0  0
    5.6047    4.5059  -11.7589 C   0  0  0  0  0  0  0  0  0  0  0  0
    7.6606    4.1297  -10.5699 C   0  0  0  0  0  0  0  0  0  0  0  0
   10.9559    7.6849   -6.6057 C   0  0  0  0  0  0  0  0  0  0  0  0
    8.0094    4.5092   -9.5664 C   0  0  0  0  0  0  0  0  0  0  0  0
    8.3033    4.0627   -8.4980 C   0  0  0  0  0  0  0  0  0  0  0  0
    6.3587    7.1012  -11.0392 O   0  0  0  0  0  0  0  0  0  0  0  0
   11.0186    3.9598  -14.9226 C   0  0  0  0  0  0  0  0  0  0  0  0
    8.1758    5.8633  -10.2511 C   0  0  1  0  0  0  0  0  0  0  0  0
   11.4648    2.7104  -15.2650 O   0  0  0  0  0  0  0  0  0  0  0  0
    9.9512    6.8220   -6.8436 C   0  0  0  0  0  0  0  0  0  0  0  0
    9.6899    6.3705   -8.1082 C   0  0  2  0  0  0  0  0  0  0  0  0
   11.2597    8.2901   -5.2396 C   0  0  0  0  0  0  0  0  0  0  0  0
   11.6068    9.7354   -5.2006 C   0  0  0  0  0  0  0  0  0  0  0  0
   10.9469    4.9352  -15.8306 C   0  0  0  0  0  0  0  0  0  0  0  0
    9.2417    4.9555   -7.8256 C   0  0  0  0  0  0  0  0  0  0  0  0
   11.3657    7.7043   -4.0379 C   0  0  0  0  0  0  0  0  0  0  0  0
   11.4469   10.6225   -6.4157 C   0  0  0  0  0  0  0  0  0  0  0  0
   11.9077   10.2897   -3.9889 C   0  0  0  0  0  0  0  0  0  0  0  0
   11.9472    9.5143   -2.8307 C   0  0  0  0  0  0  0  0  0  0  0  0
    9.3030    2.8335  -13.6243 C   0  0  0  0  0  0  0  0  0  0  0  0
   11.0706    6.0966   -4.1041 S   0  0  0  0  0  0  0  0  0  0  0  0
   11.7343    8.3349   -3.0045 C   0  0  0  0  0  0  0  0  0  0  0  0
   12.1398    5.5239   -4.8589 O   0  0  0  0  0  0  0  0  0  0  0  0
   11.2273    5.7924   -2.5132 O   0  0  0  0  0  0  0  0  0  0  0  0
    9.7296    5.7465   -4.5156 C   0  0  2  0  0  0  0  0  0  0  0  0
    8.8786    6.8007   -5.9523 C   0  0  0  0  0  0  0  0  0  0  0  0
    9.3176    4.5037   -3.9953 C   0  0  0  0  0  0  0  0  0  0  0  0
    7.8548    7.3603   -6.2401 O   0  0  0  0  0  0  0  0  0  0  0  0
    8.8510    5.6334   -5.4201 C   0  0  1  0  0  0  0  0  0  0  0  0
    9.0519    4.7304   -6.0221 S   0  0  0  0  0  0  0  0  0  0  0  0
    8.1625    4.1956   -4.5172 C   0  0  0  0  0  0  0  0  0  0  0  0
    8.2337    4.1752   -5.7244 N   0  0  0  0  0  0  0  0  0  0  0  0
  1  2  1  0  0  0  0
  2  3  1  0  0  0  0
  2  7  2  0  0  0  0
  4  3  1  6  0  0  0
  4  5  1  0  0  0  0
  4  6  1  0  0  0  0
  4  8  1  0  0  0  0
  5  9  2  0  0  0  0
  6 13  1  0  0  0  0
  7 12  1  0  0  0  0
  8 19  2  0  0  0  0
 10  7  1  1  0  0  0
 10 14  1  0  0  0  0
 10 17  1  0  0  0  0
 11  8  1  6  0  0  0
 11 20  1  0  0  0  0
 11 32  1  0  0  0  0
 12 18  1  0  0  0  0
 12 30  1  1  0  0  0
 12 32  1  0  0  0  0
 13 16  2  0  0  0  0
 13 21  1  0  0  0  0
 14  5  1  1  0  0  0
 14 15  1  0  0  0  0
 14 20  1  0  0  0  0
 15 31  1  0  0  0  0
 15 44  1  0  0  0  0
 17 18  1  0  0  0  0
 17 23  1  0  0  0  0
 18 25  1  0  0  0  0
 18 26  1  0  0  0  0
 19 21  1  0  0  0  0
 19 35  1  0  0  0  0
 20 23  1  0  0  0  0
 21 22  2  0  0  0  0
 22 27  1  0  0  0  0
 23 24  1  0  0  0  0
 23 44  1  0  0  0  0
 24 26  1  0  0  0  0
 26 28  2  0  0  0  0
 27 34  2  0  0  0  0
 27 36  1  0  0  0  0
 28 29  1  0  0  0  0
 28 32  1  0  0  0  0
 29 39  2  0  0  0  0
 31 33  2  0  0  0  0
 31 38  1  0  0  0  0
 34 35  1  0  0  0  0
 34 50  1  0  0  0  0
 35 39  1  0  0  0  0
 36 37  1  0  0  0  0
 36 40  2  0  0  0  0
 37 41  1  0  0  0  0
 37 42  2  0  0  0  0
 40 45  1  0  0  0  0
 40 46  1  0  0  0  0
 42 43  1  0  0  0  0
 43 46  2  0  0  0  0
 45 47  2  0  0  0  0
 45 48  2  0  0  0  0
 45 49  1  0  0  0  0
 49 51  1  0  0  0  0
 49 53  1  0  0  0  0
 50 52  2  0  0  0  0
 50 53  1  0  0  0  0
 51 55  1  0  0  0  0
 53 54  1  0  0  0  0
 54 56  2  3  0  0  0
 55 56  1  0  0  0  0
M  END
$$$$

 OpenBabel10082411353D

 56 71  0  0  0  0  0  0  0  0999 V2000
    8.0806    9.0240  -12.7589 C   0  0  0  0  0  0  0  0  0  0  0  0
    8.6514    7.8645  -12.2948 C   0  0  0  0  0  0  0  0  0  0  0  0
    9.9575    7.9974  -11.8426 C   0  0  0  0  0  0  0  0  0  0  0  0
   10.7657    6.8667  -11.6050 C   0  0  1  0  0  0  0  0  0  0  0  0
   10.7682    5.9590  -12.8271 C   0  0  0  0  0  0  0  0  0  0  0  0
   12.1553    7.3846  -11.2315 C   0  0  0  0  0  0  0  0  0  0  0  0
    8.0676    6.6451  -12.2974 C   0  0  0  0  0  0  0  0  0  0  0  0
   10.1892    6.1240  -10.3860 C   0  0  0  0  0  0  0  0  0  0  0  0
   11.8375    5.4373  -13.3240 O   0  0  0  0  0  0  0  0  0  0  0  0
    8.6785    5.4761  -13.0273 C   0  0  1  0  0  0  0  0  0  0  0  0
    9.1969    5.2405  -10.4969 C   0  0  2  0  0  0  0  0  0  0  0  0
    7.2213    6.2210  -11.3074 C   0  0  2  0  0  0  0  0  0  0  0  0
   12.5590    7.6872   -9.9896 C   0  0  0  0  0  0  0  0  0  0  0  0
    9.7633    5.0333  -12.9720 C   0  0  1  0  0  0  0  0  0  0  0  0
   10.0661    4.0167  -14.0373 N   0  0  0  0  0  0  0  0  0  0  0  0
   13.6906    8.3004   -9.6233 O   0  0  0  0  0  0  0  0  0  0  0  0
    7.6357    4.5123  -12.6317 C   0  0  2  0  0  0  0  0  0  0  0  0
    6.8831    4.9171  -11.7031 C   0  0  2  0  0  0  0  0  0  0  0  0
   10.5937    6.6967   -9.1779 C   0  0  0  0  0  0  0  0  0  0  0  0
    9.5087    4.3263  -11.6925 C   0  0  2  0  0  0  0  0  0  0  0  0
   11.6359    7.4449   -8.9125 C   0  0  0  0  0  0  0  0  0  0  0  0
   11.9716    7.9159   -7.6200 C   0  0  0  0  0  0  0  0  0  0  0  0
    8.4648    3.6122  -12.2840 C   0  0  1  0  0  0  0  0  0  0  0  0
    7.9253    2.8004  -11.3926 C   0  0  0  0  0  0  0  0  0  0  0  0
    5.6047    4.5059  -11.7589 C   0  0  0  0  0  0  0  0  0  0  0  0
    7.6606    4.1297  -10.5699 C   0  0  0  0  0  0  0  0  0  0  0  0
   10.9559    7.6849   -6.6057 C   0  0  0  0  0  0  0  0  0  0  0  0
    8.0094    4.5092   -9.5664 C   0  0  0  0  0  0  0  0  0  0  0  0
    8.3033    4.0627   -8.4980 C   0  0  0  0  0  0  0  0  0  0  0  0
    6.3587    7.1012  -11.0392 O   0  0  0  0  0  0  0  0  0  0  0  0
   11.0186    3.9598  -14.9226 C   0  0  0  0  0  0  0  0  0  0  0  0
    8.1758    5.8633  -10.2511 C   0  0  1  0  0  0  0  0  0  0  0  0
   11.4648    2.7104  -15.2650 O   0  0  0  0  0  0  0  0  0  0  0  0
    9.9512    6.8220   -6.8436 C   0  0  0  0  0  0  0  0  0  0  0  0
    9.6899    6.3705   -8.1082 C   0  0  2  0  0  0  0  0  0  0  0  0
   11.2597    8.2901   -5.2396 C   0  0  0  0  0  0  0  0  0  0  0  0
   11.6068    9.7354   -5.2006 C   0  0  0  0  0  0  0  0  0  0  0  0
   10.9469    4.9352  -15.8306 C   0  0  0  0  0  0  0  0  0  0  0  0
    9.2417    4.9555   -7.8256 C   0  0  0  0  0  0  0  0  0  0  0  0
   11.3657    7.7043   -4.0379 C   0  0  0  0  0  0  0  0  0  0  0  0
   11.4469   10.6225   -6.4157 C   0  0  0  0  0  0  0  0  0  0  0  0
   11.9077   10.2897   -3.9889 C   0  0  0  0  0  0  0  0  0  0  0  0
   11.9472    9.5143   -2.8307 C   0  0  0  0  0  0  0  0  0  0  0  0
    9.3030    2.8335  -13.6243 C   0  0  0  0  0  0  0  0  0  0  0  0
   11.0706    6.0966   -4.1041 S   0  0  0  0  0  0  0  0  0  0  0  0
   11.7343    8.3349   -3.0045 C   0  0  0  0  0  0  0  0  0  0  0  0
   12.1398    5.5239   -4.8589 O   0  0  0  0  0  0  0  0  0  0  0  0
   11.2273    5.7924   -2.5132 O   0  0  0  0  0  0  0  0  0  0  0  0
    9.7296    5.7465   -4.5156 C   0  0  2  0  0  0  0  0  0  0  0  0
    8.8786    6.8007   -5.9523 C   0  0  0  0  0  0  0  0  0  0  0  0
    7.8637    7.2355   -6.3338 O   0  0  0  0  0  0  0  0  0  0  0  0
    9.2748    4.5977   -3.7261 C   0  0  0  0  0  0  0  0  0  0  0  0
    7.8333    4.3200   -3.9940 C   0  0  0  0  0  0  0  0  0  0  0  0
    8.9025    5.6450   -5.3994 C   0  0  1  0  0  0  0  0  0  0  0  0
    9.0388    4.8759   -6.2873 N   0  0  0  0  0  0  0  0  0  0  0  0
    7.5950    5.0805   -5.1238 C   0  0  1  0  0  0  0  0  0  0  0  0
  1  2  1  0  0  0  0
  2  3  1  0  0  0  0
  2  7  2  0  0  0  0
  4  3  1  6  0  0  0
  4  5  1  0  0  0  0
  4  6  1  0  0  0  0
  4  8  1  0  0  0  0
  5  9  2  0  0  0  0
  6 13  1  0  0  0  0
  7 12  1  0  0  0  0
  8 19  2  0  0  0  0
 10  7  1  1  0  0  0
 10 14  1  0  0  0  0
 10 17  1  0  0  0  0
 11  8  1  6  0  0  0
 11 20  1  0  0  0  0
 11 32  1  0  0  0  0
 12 18  1  0  0  0  0
 12 30  1  1  0  0  0
 12 32  1  0  0  0  0
 13 16  2  0  0  0  0
 13 21  1  0  0  0  0
 14  5  1  1  0  0  0
 14 15  1  0  0  0  0
 14 20  1  0  0  0  0
 15 31  1  0  0  0  0
 15 44  1  0  0  0  0
 17 18  1  0  0  0  0
 17 23  1  0  0  0  0
 18 25  1  0  0  0  0
 18 26  1  0  0  0  0
 19 21  1  0  0  0  0
 19 35  1  0  0  0  0
 20 23  1  0  0  0  0
 21 22  2  0  0  0  0
 22 27  1  0  0  0  0
 23 24  1  0  0  0  0
 23 44  1  0  0  0  0
 24 26  1  0  0  0  0
 26 28  2  0  0  0  0
 27 34  2  0  0  0  0
 27 36  1  0  0  0  0
 28 29  1  0  0  0  0
 28 32  1  0  0  0  0
 29 39  2  0  0  0  0
 31 33  2  0  0  0  0
 31 38  1  0  0  0  0
 34 35  1  0  0  0  0
 34 50  1  0  0  0  0
 35 39  1  0  0  0  0
 36 37  1  0  0  0  0
 36 40  2  0  0  0  0
 37 41  1  0  0  0  0
 37 42  2  0  0  0  0
 39 55  1  0  0  0  0
 40 45  1  0  0  0  0
 40 46  1  0  0  0  0
 42 43  1  0  0  0  0
 43 46  2  0  0  0  0
 45 47  2  0  0  0  0
 45 48  2  0  0  0  0
 45 49  1  0  0  0  0
 49 52  1  0  0  0  0
 49 54  1  0  0  0  0
 50 51  2  0  0  0  0
 50 54  1  0  0  0  0
 52 53  1  0  0  0  0
 53 56  1  0  0  0  0
 54 55  1  0  0  0  0
 54 56  1  0  0  0  0
 55 56  1  0  0  0  0
M  END
$$$$

 OpenBabel10082411353D

 56 70  0  0  0  0  0  0  0  0999 V2000
    8.0806    9.0240  -12.7589 C   0  0  0  0  0  0  0  0  0  0  0  0
    8.6514    7.8645  -12.2948 C   0  0  0  0  0  0  0  0  0  0  0  0
    9.9575    7.9974  -11.8426 C   0  0  0  0  0  0  0  0  0  0  0  0
   10.7657    6.8667  -11.6050 C   0  0  1  0  0  0  0  0  0  0  0  0
   10.7682    5.9590  -12.8271 C   0  0  0  0  0  0  0  0  0  0  0  0
   12.1553    7.3846  -11.2315 C   0  0  0  0  0  0  0  0  0  0  0  0
    8.0676    6.6451  -12.2974 C   0  0  0  0  0  0  0  0  0  0  0  0
   10.1892    6.1240  -10.3860 C   0  0  0  0  0  0  0  0  0  0  0  0
   11.8375    5.4373  -13.3240 O   0  0  0  0  0  0  0  0  0  0  0  0
    8.6785    5.4761  -13.0273 C   0  0  1  0  0  0  0  0  0  0  0  0
    9.1969    5.2405  -10.4969 C   0  0  2  0  0  0  0  0  0  0  0  0
    7.2213    6.2210  -11.3074 C   0  0  2  0  0  0  0  0  0  0  0  0
   12.5590    7.6872   -9.9896 C   0  0  0  0  0  0  0  0  0  0  0  0
    9.7633    5.0333  -12.9720 C   0  0  1  0  0  0  0  0  0  0  0  0
   10.0661    4.0167  -14.0373 N   0  0  0  0  0  0  0  0  0  0  0  0
   13.6906    8.3004   -9.6233 O   0  0  0  0  0  0  0  0  0  0  0  0
    7.6357    4.5123  -12.6317 C   0  0  2  0  0  0  0  0  0  0  0  0
    6.8831    4.9171  -11.7031 C   0  0  2  0  0  0  0  0  0  0  0  0
   10.5937    6.6967   -9.1779 C   0  0  0  0  0  0  0  0  0  0  0  0
    9.5087    4.3263  -11.6925 C   0  0  2  0  0  0  0  0  0  0  0  0
   11.6359    7.4449   -8.9125 C   0  0  0  0  0  0  0  0  0  0  0  0
   11.9716    7.9159   -7.6200 C   0  0  0  0  0  0  0  0  0  0  0  0
    8.4648    3.6122  -12.2840 C   0  0  1  0  0  0  0  0  0  0  0  0
    7.9253    2.8004  -11.3926 C   0  0  0  0  0  0  0  0  0  0  0  0
    5.6047    4.5059  -11.7589 C   0  0  0  0  0  0  0  0  0  0  0  0
    7.6606    4.1297  -10.5699 C   0  0  0  0  0  0  0  0  0  0  0  0
   10.9559    7.6849   -6.6057 C   0  0  0  0  0  0  0  0  0  0  0  0
    8.0094    4.5092   -9.5664 C   0  0  0  0  0  0  0  0  0  0  0  0
    8.3033    4.0627   -8.4980 C   0  0  0  0  0  0  0  0  0  0  0  0
    6.3587    7.1012  -11.0392 O   0  0  0  0  0  0  0  0  0  0  0  0
   11.0186    3.9598  -14.9226 C   0  0  0  0  0  0  0  0  0  0  0  0
    8.1758    5.8633  -10.2511 C   0  0  1  0  0  0  0  0  0  0  0  0
   11.4648    2.7104  -15.2650 O   0  0  0  0  0  0  0  0  0  0  0  0
    9.9512    6.8220   -6.8436 C   0  0  0  0  0  0  0  0  0  0  0  0
    9.6899    6.3705   -8.1082 C   0  0  2  0  0  0  0  0  0  0  0  0
   11.2597    8.2901   -5.2396 C   0  0  0  0  0  0  0  0  0  0  0  0
   11.6068    9.7354   -5.2006 C   0  0  0  0  0  0  0  0  0  0  0  0
   10.9469    4.9352  -15.8306 C   0  0  0  0  0  0  0  0  0  0  0  0
    9.2417    4.9555   -7.8256 C   0  0  0  0  0  0  0  0  0  0  0  0
   11.3657    7.7043   -4.0379 C   0  0  0  0  0  0  0  0  0  0  0  0
   11.4469   10.6225   -6.4157 C   0  0  0  0  0  0  0  0  0  0  0  0
   11.9077   10.2897   -3.9889 C   0  0  0  0  0  0  0  0  0  0  0  0
   11.9472    9.5143   -2.8307 C   0  0  0  0  0  0  0  0  0  0  0  0
    9.3030    2.8335  -13.6243 C   0  0  0  0  0  0  0  0  0  0  0  0
   11.0706    6.0966   -4.1041 S   0  0  0  0  0  0  0  0  0  0  0  0
   11.7343    8.3349   -3.0045 C   0  0  0  0  0  0  0  0  0  0  0  0
   12.1398    5.5239   -4.8589 O   0  0  0  0  0  0  0  0  0  0  0  0
   11.2273    5.7924   -2.5132 O   0  0  0  0  0  0  0  0  0  0  0  0
    9.7296    5.7465   -4.5156 C   0  0  2  0  0  0  0  0  0  0  0  0
    8.8786    6.8007   -5.9523 C   0  0  0  0  0  0  0  0  0  0  0  0
    7.8637    7.2355   -6.3338 O   0  0  0  0  0  0  0  0  0  0  0  0
    9.2748    4.5977   -3.7261 C   0  0  0  0  0  0  0  0  0  0  0  0
    8.8685    5.6587   -5.3479 C   0  0  1  0  0  0  0  0  0  0  0  0
    9.1025    4.5766   -6.3267 C   0  0  1  0  0  0  0  0  0  0  0  0
    8.6443    3.6927   -4.5753 C   0  0  0  0  0  0  0  0  0  0  0  0
    8.5496    3.8860   -5.5247 C   0  0  0  0  0  0  0  0  0  0  0  0
  1  2  1  0  0  0  0
  2  3  1  0  0  0  0
  2  7  2  0  0  0  0
  4  3  1  6  0  0  0
  4  5  1  0  0  0  0
  4  6  1  0  0  0  0
  4  8  1  0  0  0  0
  5  9  2  0  0  0  0
  6 13  1  0  0  0  0
  7 12  1  0  0  0  0
  8 19  2  0  0  0  0
 10  7  1  1  0  0  0
 10 14  1  0  0  0  0
 10 17  1  0  0  0  0
 11  8  1  6  0  0  0
 11 20  1  0  0  0  0
 11 32  1  0  0  0  0
 12 18  1  0  0  0  0
 12 30  1  1  0  0  0
 12 32  1  0  0  0  0
 13 16  2  0  0  0  0
 13 21  1  0  0  0  0
 14  5  1  1  0  0  0
 14 15  1  0  0  0  0
 14 20  1  0  0  0  0
 15 31  1  0  0  0  0
 15 44  1  0  0  0  0
 17 18  1  0  0  0  0
 17 23  1  0  0  0  0
 18 25  1  0  0  0  0
 18 26  1  0  0  0  0
 19 21  1  0  0  0  0
 19 35  1  0  0  0  0
 20 23  1  0  0  0  0
 21 22  2  0  0  0  0
 22 27  1  0  0  0  0
 23 24  1  0  0  0  0
 23 44  1  0  0  0  0
 24 26  1  0  0  0  0
 26 28  2  0  0  0  0
 27 34  2  0  0  0  0
 27 36  1  0  0  0  0
 28 29  1  0  0  0  0
 28 32  1  0  0  0  0
 29 39  2  0  0  0  0
 31 33  2  0  0  0  0
 31 38  1  0  0  0  0
 34 35  1  0  0  0  0
 34 50  1  0  0  0  0
 35 39  1  0  0  0  0
 36 37  1  0  0  0  0
 36 40  2  0  0  0  0
 37 41  1  0  0  0  0
 37 42  2  0  0  0  0
 39 54  1  0  0  0  0
 40 45  1  0  0  0  0
 40 46  1  0  0  0  0
 42 43  1  0  0  0  0
 43 46  2  0  0  0  0
 45 47  2  0  0  0  0
 45 48  2  0  0  0  0
 45 49  1  0  0  0  0
 49 52  1  0  0  0  0
 49 53  1  0  0  0  0
 50 51  2  0  0  0  0
 50 53  1  0  0  0  0
 52 55  1  0  0  0  0
 53 54  1  0  0  0  0
 54 56  1  0  0  0  0
 55 56  1  0  0  0  0
M  END
$$$$

 OpenBabel10082411353D

 56 70  0  0  0  0  0  0  0  0999 V2000
    8.0806    9.0240  -12.7589 C   0  0  0  0  0  0  0  0  0  0  0  0
    8.6514    7.8645  -12.2948 C   0  0  0  0  0  0  0  0  0  0  0  0
    9.9575    7.9974  -11.8426 C   0  0  0  0  0  0  0  0  0  0  0  0
   10.7657    6.8667  -11.6050 C   0  0  1  0  0  0  0  0  0  0  0  0
   10.7682    5.9590  -12.8271 C   0  0  0  0  0  0  0  0  0  0  0  0
   12.1553    7.3846  -11.2315 C   0  0  0  0  0  0  0  0  0  0  0  0
    8.0676    6.6451  -12.2974 C   0  0  0  0  0  0  0  0  0  0  0  0
   10.1892    6.1240  -10.3860 C   0  0  0  0  0  0  0  0  0  0  0  0
   11.8375    5.4373  -13.3240 O   0  0  0  0  0  0  0  0  0  0  0  0
    8.6785    5.4761  -13.0273 C   0  0  1  0  0  0  0  0  0  0  0  0
    9.1969    5.2405  -10.4969 C   0  0  2  0  0  0  0  0  0  0  0  0
    7.2213    6.2210  -11.3074 C   0  0  2  0  0  0  0  0  0  0  0  0
   12.5590    7.6872   -9.9896 C   0  0  0  0  0  0  0  0  0  0  0  0
    9.7633    5.0333  -12.9720 C   0  0  1  0  0  0  0  0  0  0  0  0
   10.0661    4.0167  -14.0373 N   0  0  0  0  0  0  0  0  0  0  0  0
   13.6906    8.3004   -9.6233 O   0  0  0  0  0  0  0  0  0  0  0  0
    7.6357    4.5123  -12.6317 C   0  0  2  0  0  0  0  0  0  0  0  0
    6.8831    4.9171  -11.7031 C   0  0  2  0  0  0  0  0  0  0  0  0
   10.5937    6.6967   -9.1779 C   0  0  0  0  0  0  0  0  0  0  0  0
    9.5087    4.3263  -11.6925 C   0  0  2  0  0  0  0  0  0  0  0  0
   11.6359    7.4449   -8.9125 C   0  0  0  0  0  0  0  0  0  0  0  0
   11.9716    7.9159   -7.6200 C   0  0  0  0  0  0  0  0  0  0  0  0
    8.4648    3.6122  -12.2840 C   0  0  1  0  0  0  0  0  0  0  0  0
    7.9253    2.8004  -11.3926 C   0  0  0  0  0  0  0  0  0  0  0  0
    5.6047    4.5059  -11.7589 C   0  0  0  0  0  0  0  0  0  0  0  0
    7.6606    4.1297  -10.5699 C   0  0  0  0  0  0  0  0  0  0  0  0
   10.9559    7.6849   -6.6057 C   0  0  0  0  0  0  0  0  0  0  0  0
    8.0094    4.5092   -9.5664 C   0  0  0  0  0  0  0  0  0  0  0  0
    8.3033    4.0627   -8.4980 C   0  0  0  0  0  0  0  0  0  0  0  0
    6.3587    7.1012  -11.0392 O   0  0  0  0  0  0  0  0  0  0  0  0
   11.0186    3.9598  -14.9226 C   0  0  0  0  0  0  0  0  0  0  0  0
    8.1758    5.8633  -10.2511 C   0  0  1  0  0  0  0  0  0  0  0  0
   11.4648    2.7104  -15.2650 O   0  0  0  0  0  0  0  0  0  0  0  0
    9.9512    6.8220   -6.8436 C   0  0  0  0  0  0  0  0  0  0  0  0
    9.6899    6.3705   -8.1082 C   0  0  2  0  0  0  0  0  0  0  0  0
   11.2597    8.2901   -5.2396 C   0  0  0  0  0  0  0  0  0  0  0  0
   11.6068    9.7354   -5.2006 C   0  0  0  0  0  0  0  0  0  0  0  0
   10.9469    4.9352  -15.8306 C   0  0  0  0  0  0  0  0  0  0  0  0
    9.2417    4.9555   -7.8256 C   0  0  0  0  0  0  0  0  0  0  0  0
   11.3657    7.7043   -4.0379 C   0  0  0  0  0  0  0  0  0  0  0  0
   11.4469   10.6225   -6.4157 C   0  0  0  0  0  0  0  0  0  0  0  0
   11.9077   10.2897   -3.9889 C   0  0  0  0  0  0  0  0  0  0  0  0
   11.9472    9.5143   -2.8307 C   0  0  0  0  0  0  0  0  0  0  0  0
    9.3030    2.8335  -13.6243 C   0  0  0  0  0  0  0  0  0  0  0  0
   11.0706    6.0966   -4.1041 S   0  0  0  0  0  0  0  0  0  0  0  0
   11.7343    8.3349   -3.0045 C   0  0  0  0  0  0  0  0  0  0  0  0
   12.1398    5.5239   -4.8589 O   0  0  0  0  0  0  0  0  0  0  0  0
   11.2273    5.7924   -2.5132 O   0  0  0  0  0  0  0  0  0  0  0  0
    9.7296    5.7465   -4.5156 C   0  0  2  0  0  0  0  0  0  0  0  0
    8.8786    6.8007   -5.9523 C   0  0  0  0  0  0  0  0  0  0  0  0
    9.3176    4.5037   -3.9953 C   0  0  0  0  0  0  0  0  0  0  0  0
    7.8548    7.3603   -6.2401 O   0  0  0  0  0  0  0  0  0  0  0  0
    8.8510    5.6334   -5.4201 C   0  0  1  0  0  0  0  0  0  0  0  0
    9.1691    4.5700   -6.3537 C   0  0  1  0  0  0  0  0  0  0  0  0
    8.4376    4.1992   -4.7973 C   0  0  0  0  0  0  0  0  0  0  0  0
    8.3791    3.9536   -6.0628 N   0  0  0  0  0  0  0  0  0  0  0  0
  1  2  1  0  0  0  0
  2  3  1  0  0  0  0
  2  7  2  0  0  0  0
  4  3  1  6  0  0  0
  4  5  1  0  0  0  0
  4  6  1  0  0  0  0
  4  8  1  0  0  0  0
  5  9  2  0  0  0  0
  6 13  1  0  0  0  0
  7 12  1  0  0  0  0
  8 19  2  0  0  0  0
 10  7  1  1  0  0  0
 10 14  1  0  0  0  0
 10 17  1  0  0  0  0
 11  8  1  6  0  0  0
 11 20  1  0  0  0  0
 11 32  1  0  0  0  0
 12 18  1  0  0  0  0
 12 30  1  1  0  0  0
 12 32  1  0  0  0  0
 13 16  2  0  0  0  0
 13 21  1  0  0  0  0
 14  5  1  1  0  0  0
 14 15  1  0  0  0  0
 14 20  1  0  0  0  0
 15 31  1  0  0  0  0
 15 44  1  0  0  0  0
 17 18  1  0  0  0  0
 17 23  1  0  0  0  0
 18 25  1  0  0  0  0
 18 26  1  0  0  0  0
 19 21  1  0  0  0  0
 19 35  1  0  0  0  0
 20 23  1  0  0  0  0
 21 22  2  0  0  0  0
 22 27  1  0  0  0  0
 23 24  1  0  0  0  0
 23 44  1  0  0  0  0
 24 26  1  0  0  0  0
 26 28  2  0  0  0  0
 27 34  2  0  0  0  0
 27 36  1  0  0  0  0
 28 29  1  0  0  0  0
 28 32  1  0  0  0  0
 29 39  2  0  0  0  0
 31 33  2  0  0  0  0
 31 38  1  0  0  0  0
 34 35  1  0  0  0  0
 34 50  1  0  0  0  0
 35 39  1  0  0  0  0
 36 37  1  0  0  0  0
 36 40  2  0  0  0  0
 37 41  1  0  0  0  0
 37 42  2  0  0  0  0
 39 54  1  0  0  0  0
 40 45  1  0  0  0  0
 40 46  1  0  0  0  0
 42 43  1  0  0  0  0
 43 46  2  0  0  0  0
 45 47  2  0  0  0  0
 45 48  2  0  0  0  0
 45 49  1  0  0  0  0
 49 51  1  0  0  0  0
 49 53  1  0  0  0  0
 50 52  2  0  0  0  0
 50 53  1  0  0  0  0
 51 55  1  0  0  0  0
 53 54  1  0  0  0  0
 54 56  1  0  0  0  0
 55 56  1  0  0  0  0
M  END
$$$$

 OpenBabel10082411353D

 28 32  0  0  0  0  0  0  0  0999 V2000
   12.7863    7.8241  -14.2109 C   0  0  0  0  0  0  0  0  0  0  0  0
   12.4233    7.7158  -13.0289 C   0  0  0  0  0  0  0  0  0  0  0  0
   12.9219    8.1949  -11.8668 C   0  0  0  0  0  0  0  0  0  0  0  0
   11.4275    6.6086  -12.7931 C   0  0  0  0  0  0  0  0  0  0  0  0
   10.3411    6.8404  -12.0679 C   0  0  0  0  0  0  0  0  0  0  0  0
   10.7226    7.4332  -10.7281 C   0  0  0  0  0  0  0  0  0  0  0  0
    9.0684    5.8539  -11.9851 C   0  0  0  0  0  0  0  0  0  0  0  0
    9.8080    7.4062   -9.6015 C   0  0  1  0  0  0  0  0  0  0  0  0
   11.9300    8.1400  -10.6702 C   0  0  0  0  0  0  0  0  0  0  0  0
   11.0289    6.0120  -14.2884 C   0  0  0  0  0  0  0  0  0  0  0  0
    9.9681    6.1425   -8.6941 C   0  0  0  0  0  0  0  0  0  0  0  0
   11.9646    6.5393  -15.2778 C   0  0  0  0  0  0  0  0  0  0  0  0
    9.7799    8.6458   -8.9051 C   0  0  0  0  0  0  0  0  0  0  0  0
   10.3186    4.8592  -14.6682 C   0  0  0  0  0  0  0  0  0  0  0  0
   10.2572    3.7867  -13.8865 C   0  0  0  0  0  0  0  0  0  0  0  0
    8.1840    6.1529  -12.9802 C   0  0  0  0  0  0  0  0  0  0  0  0
    8.9788    2.9888  -13.9279 C   0  0  0  0  0  0  0  0  0  0  0  0
   10.5404    8.5651   -7.5433 C   0  0  1  0  0  0  0  0  0  0  0  0
    9.1252    1.6963  -14.1301 O   0  0  0  0  0  0  0  0  0  0  0  0
    6.8473    5.4043  -12.6964 C   0  0  0  0  0  0  0  0  0  0  0  0
    7.8975    3.5490  -13.9608 N   0  0  0  0  0  0  0  0  0  0  0  0
   10.1223    7.5243   -6.6108 C   0  0  2  0  0  0  0  0  0  0  0  0
   11.9063    8.9297   -7.1578 C   0  0  0  0  0  0  0  0  0  0  0  0
    6.9888    3.6899  -12.8755 C   0  0  0  0  0  0  0  0  0  0  0  0
   11.1496    7.2615   -5.5894 C   0  0  0  0  0  0  0  0  0  0  0  0
    9.6730    6.2270   -7.4225 C   0  0  0  0  0  0  0  0  0  0  0  0
   12.0536    8.4724   -5.7502 C   0  0  2  0  0  0  0  0  0  0  0  0
   11.5968    9.6375   -4.7638 C   0  0  0  0  0  0  0  0  0  0  0  0
  1  2  1  0  0  0  0
  1 12  1  0  0  0  0
  2  3  1  0  0  0  0
  2  4  2  0  0  0  0
  3  9  2  0  0  0  0
  4  5  1  0  0  0  0
  4 10  1  0  0  0  0
  5  6  2  0  0  0  0
  5  7  1  0  0  0  0
  6  9  1  0  0  0  0
  7 16  1  0  0  0  0
  8  6  1  6  0  0  0
  8 11  1  0  0  0  0
  8 13  1  0  0  0  0
 10 12  2  0  0  0  0
 10 14  1  0  0  0  0
 11 26  1  0  0  0  0
 14 15  1  0  0  0  0
 15 17  1  0  0  0  0
 16 20  1  0  0  0  0
 17 19  2  0  0  0  0
 17 21  1  0  0  0  0
 18 13  1  6  0  0  0
 18 22  1  0  0  0  0
 18 23  1  0  0  0  0
 20 24  1  0  0  0  0
 21 24  1  0  0  0  0
 22 25  1  1  0  0  0
 22 26  1  0  0  0  0
 23 27  1  0  0  0  0
 25 27  1  0  0  0  0
 27 28  1  1  0  0  0
M  END
$$$$

 OpenBabel10082411353D

 17 17  0  0  0  0  0  0  0  0999 V2000
   13.2485    9.2493   -6.3668 O   0  0  0  0  0  0  0  0  0  0  0  0
   12.3055    9.1779   -7.4488 C   0  0  1  0  0  0  0  0  0  0  0  0
   12.5005    8.1033   -8.2440 C   0  0  0  0  0  0  0  0  0  0  0  0
   11.7072    8.0925   -9.4886 C   0  0  0  0  0  0  0  0  0  0  0  0
   10.9116    9.4148   -7.0662 C   0  0  0  0  0  0  0  0  0  0  0  0
    9.9386    8.9657   -8.0654 C   0  0  0  0  0  0  0  0  0  0  0  0
   10.3196    7.8315   -8.9317 C   0  0  2  0  0  0  0  0  0  0  0  0
   10.1237    6.6155   -7.9733 C   0  0  0  0  0  0  0  0  0  0  0  0
    9.4711    7.7025  -10.1389 N   0  0  0  0  0  0  0  0  0  0  0  0
    8.9853    6.2010   -7.9545 O   0  0  0  0  0  0  0  0  0  0  0  0
    8.8249    4.9669   -8.5197 C   0  0  0  0  0  0  0  0  0  0  0  0
    9.7653    8.2110  -11.3515 C   0  0  0  0  0  0  0  0  0  0  0  0
    8.9307    8.0689  -12.3117 C   0  0  0  0  0  0  0  0  0  0  0  0
   10.5227    9.7813   -5.8071 C   0  0  0  0  0  0  0  0  0  0  0  0
    7.5703    8.1904  -12.0197 C   0  0  0  0  0  0  0  0  0  0  0  0
   10.9002    8.5327  -11.5633 O   0  0  0  0  0  0  0  0  0  0  0  0
    6.9123    7.1170  -11.9828 O   0  0  0  0  0  0  0  0  0  0  0  0
  2  1  1  1  0  0  0
  2  3  1  0  0  0  0
  2  5  1  0  0  0  0
  3  4  1  0  0  0  0
  4  7  1  0  0  0  0
  5  6  1  0  0  0  0
  5 14  2  0  0  0  0
  6  7  1  0  0  0  0
  7  8  1  1  0  0  0
  7  9  1  0  0  0  0
  8 10  1  0  0  0  0
  9 12  1  0  0  0  0
 10 11  1  0  0  0  0
 12 13  1  0  0  0  0
 12 16  2  0  0  0  0
 13 15  1  0  0  0  0
 15 17  1  0  0  0  0
M  END
$$$$
