Mol: 138_44 - SminaDock
     RDKit          3D

 40 47  0  0  0  0  0  0  0  0999 V2000
    8.5245    5.5709  -12.3825 C   0  0  0  0  0  0  0  0  0  0  0  0
    7.3361    5.2538  -11.7606 C   0  0  0  0  0  0  0  0  0  0  0  0
    6.6061    4.1827  -12.2483 C   0  0  0  0  0  0  0  0  0  0  0  0
    7.0869    3.4753  -13.3296 C   0  0  0  0  0  0  0  0  0  0  0  0
    8.2693    3.7753  -13.9584 C   0  0  0  0  0  0  0  0  0  0  0  0
    8.9902    4.8503  -13.4624 C   0  0  0  0  0  0  0  0  0  0  0  0
    8.7753    2.9376  -15.0333 C   0  0  1  0  0  0  0  0  0  0  0  0
    7.7248    2.1748  -15.7376 C   0  0  0  0  0  0  0  0  0  0  0  0
    6.6101    1.7962  -14.9648 N   0  0  0  0  0  0  0  0  0  0  0  0
    6.2235    2.4231  -13.8659 C   0  0  0  0  0  0  0  0  0  0  0  0
    5.0362    1.8542  -13.3878 C   0  0  0  0  0  0  0  0  0  0  0  0
    4.7030    0.8360  -14.2435 C   0  0  0  0  0  0  0  0  0  0  0  0
    3.6432   -0.0459  -14.2450 C   0  0  0  0  0  0  0  0  0  0  0  0
    3.5456   -0.9857  -15.2351 C   0  0  0  0  0  0  0  0  0  0  0  0
    4.5284   -1.0173  -16.2129 C   0  0  0  0  0  0  0  0  0  0  0  0
    5.5816   -0.1314  -16.2007 C   0  0  0  0  0  0  0  0  0  0  0  0
    5.6808    0.8109  -15.2093 C   0  0  0  0  0  0  0  0  0  0  0  0
    9.5185    3.7512  -16.0913 C   0  0  0  0  0  0  0  0  0  0  0  0
   10.9909    3.5121  -16.1031 C   0  0  0  0  0  0  0  0  0  0  0  0
   11.3455    2.0524  -16.2947 C   0  0  2  0  0  0  0  0  0  0  0  0
   11.1515    1.6018  -17.6368 N   0  0  0  0  0  0  0  0  0  0  0  0
   10.5564    1.1689  -15.3525 C   0  0  0  0  0  0  0  0  0  0  0  0
    9.7463    1.9499  -14.3784 C   0  0  0  0  0  0  0  0  0  0  0  0
   11.3317    7.9549   -6.1048 C   0  0  0  0  0  0  0  0  0  0  0  0
   11.6959    8.9728   -6.9638 C   0  0  0  0  0  0  0  0  0  0  0  0
   11.3542    8.9286   -8.3088 C   0  0  0  0  0  0  0  0  0  0  0  0
   10.6410    7.8580   -8.8057 C   0  0  0  0  0  0  0  0  0  0  0  0
   10.2842    7.7651  -10.0991 N   0  0  0  0  0  0  0  0  0  0  0  0
    9.5899    6.7293  -10.5983 C   0  0  0  0  0  0  0  0  0  0  0  0
    9.2631    6.6794  -11.8676 N   0  0  0  0  0  0  0  0  0  0  0  0
    9.2522    5.7559   -9.7322 N   0  0  0  0  0  0  0  0  0  0  0  0
    9.5790    5.7924   -8.4328 C   0  0  0  0  0  0  0  0  0  0  0  0
   10.2897    6.8605   -7.9405 C   0  0  0  0  0  0  0  0  0  0  0  0
   10.6255    6.8894   -6.5849 C   0  0  0  0  0  0  0  0  0  0  0  0
   12.3984    8.0625   -1.9814 C   0  0  0  0  0  0  0  0  0  0  0  0
   12.4221    9.2251   -2.7166 C   0  0  0  0  0  0  0  0  0  0  0  0
   12.0723    9.1754   -4.0588 C   0  0  0  0  0  0  0  0  0  0  0  0
   11.7003    8.0222   -4.7023 C   0  0  0  0  0  0  0  0  0  0  0  0
   11.6841    6.8552   -3.9345 C   0  0  0  0  0  0  0  0  0  0  0  0
   12.0277    6.8743   -2.5951 C   0  0  0  0  0  0  0  0  0  0  0  0
 35 36  2  0
 36 37  1  0
 37 38  2  0
 38 24  1  0
 24 25  1  0
 25 26  2  0
 26 27  1  0
 27 28  2  0
 28 29  1  0
 29 30  2  0
 30  1  1  0
  1  2  2  0
  2  3  1  0
  3  4  2  0
  4  5  1  0
  5  6  2  0
  5  7  1  0
  7  8  1  6
  8  9  1  0
  9 10  1  0
 10 11  2  0
 11 12  1  0
 12 13  2  0
 13 14  1  0
 14 15  2  0
 15 16  1  0
 16 17  2  0
  7 18  1  0
 18 19  1  0
 20 19  1  0
 20 21  1  6
 20 22  1  0
 22 23  1  0
 29 31  1  0
 31 32  1  0
 32 33  2  0
 33 34  1  0
 38 39  1  0
 39 40  2  0
 40 35  1  0
 34 24  2  0
 33 27  1  0
  6  1  1  0
 23  7  1  0
 10  4  1  0
 17 12  1  0
 17  9  1  0
M  CHG  1  21   1
M  END
>  <minimizedAffinity>  (1) 
-17.77554

$$$$
Mol: 184_37 - SminaDock
     RDKit          3D

 41 48  0  0  0  0  0  0  0  0999 V2000
    7.8928    4.7590  -12.6884 C   0  0  0  0  0  0  0  0  0  0  0  0
    6.6072    4.7020  -12.1978 C   0  0  0  0  0  0  0  0  0  0  0  0
    5.7746    3.6715  -12.5682 C   0  0  0  0  0  0  0  0  0  0  0  0
    6.2698    2.6976  -13.4467 C   0  0  0  0  0  0  0  0  0  0  0  0
    7.5511    2.7440  -13.9429 C   0  0  0  0  0  0  0  0  0  0  0  0
    8.3553    3.7996  -13.5434 C   0  0  0  0  0  0  0  0  0  0  0  0
    7.7573    1.5793  -14.8357 C   0  0  0  0  0  0  0  0  0  0  0  0
    8.8867    0.7387  -14.4158 C   0  0  0  0  0  0  0  0  0  0  0  0
    8.6748   -0.3063  -13.7570 O   0  0  0  0  0  0  0  0  0  0  0  0
   10.2091    1.0914  -14.7436 N   0  0  0  0  0  0  0  0  0  0  0  0
   10.4914    1.9741  -15.8236 C   0  0  0  0  0  0  0  0  0  0  0  0
   11.6431    2.3147  -16.1511 O   0  0  0  0  0  0  0  0  0  0  0  0
    9.3601    2.4631  -16.5317 N   0  0  0  0  0  0  0  0  0  0  0  0
    8.0314    2.1157  -16.2111 C   0  0  0  0  0  0  0  0  0  0  0  0
    7.0568    2.2236  -16.9976 O   0  0  0  0  0  0  0  0  0  0  0  0
    6.4772    0.8629  -14.8009 C   0  0  0  0  0  0  0  0  0  0  0  0
    5.6051    1.5193  -13.9874 C   0  0  0  0  0  0  0  0  0  0  0  0
    4.2987    1.0362  -13.7816 C   0  0  0  0  0  0  0  0  0  0  0  0
    3.8860   -0.1216  -14.4108 C   0  0  0  0  0  0  0  0  0  0  0  0
    4.7692   -0.7951  -15.2406 C   0  0  0  0  0  0  0  0  0  0  0  0
    4.6515   -1.8943  -15.9510 O   0  0  0  0  0  0  0  0  0  0  0  0
    5.7788   -2.1263  -16.5769 N   0  0  0  0  0  0  0  0  0  0  0  0
    6.6690   -1.1606  -16.2775 C   0  0  0  0  0  0  0  0  0  0  0  0
    6.0300   -0.3001  -15.4194 C   0  0  0  0  0  0  0  0  0  0  0  0
   11.2101    7.5661   -6.8277 C   0  0  0  0  0  0  0  0  0  0  0  0
   11.6549    8.3882   -7.8480 C   0  0  0  0  0  0  0  0  0  0  0  0
   11.2487    8.1888   -9.1514 C   0  0  0  0  0  0  0  0  0  0  0  0
   10.3881    7.1694   -9.4925 C   0  0  0  0  0  0  0  0  0  0  0  0
    9.9390    6.3456   -8.4884 C   0  0  0  0  0  0  0  0  0  0  0  0
    9.0766    5.3272   -8.8429 C   0  0  0  0  0  0  0  0  0  0  0  0
    8.6892    5.1460  -10.1215 N   0  0  0  0  0  0  0  0  0  0  0  0
    9.1464    5.9683  -11.0775 C   0  0  0  0  0  0  0  0  0  0  0  0
    8.7876    5.8165  -12.3250 N   0  0  0  0  0  0  0  0  0  0  0  0
    9.9850    6.9644  -10.7565 N   0  0  0  0  0  0  0  0  0  0  0  0
   10.3494    6.5485   -7.1775 C   0  0  0  0  0  0  0  0  0  0  0  0
   12.4575    8.1583   -2.7737 C   0  0  0  0  0  0  0  0  0  0  0  0
   11.7452    7.0324   -3.1588 C   0  0  0  0  0  0  0  0  0  0  0  0
   11.3504    6.8543   -4.4641 C   0  0  0  0  0  0  0  0  0  0  0  0
   11.6387    7.7757   -5.4493 C   0  0  0  0  0  0  0  0  0  0  0  0
   12.3503    8.9017   -5.0673 C   0  0  0  0  0  0  0  0  0  0  0  0
   12.7462    9.0802   -3.7576 C   0  0  0  0  0  0  0  0  0  0  0  0
 36 37  2  0
 37 38  1  0
 38 39  2  0
 39 25  1  0
 25 26  2  0
 26 27  1  0
 27 28  2  0
 28 29  1  0
 29 30  1  0
 30 31  2  0
 31 32  1  0
 32 33  2  0
 33  1  1  0
  1  2  2  0
  2  3  1  0
  3  4  2  0
  4  5  1  0
  5  6  2  0
  5  7  1  0
  7  8  1  0
  8  9  2  0
  8 10  1  0
 10 11  1  0
 11 12  2  0
 11 13  1  0
 13 14  1  0
 14 15  2  0
  7 16  1  0
 16 17  2  0
 17 18  1  0
 18 19  2  0
 19 20  1  0
 20 21  1  0
 21 22  1  0
 22 23  2  0
 23 24  1  0
 32 34  1  0
 29 35  2  0
 39 40  1  0
 40 41  2  0
 41 36  1  0
 35 25  1  0
 34 28  1  0
  6  1  1  0
 14  7  1  0
 24 16  1  0
 17  4  1  0
 24 20  2  0
M  CHG  2  10  -1  13  -1
M  END
>  <minimizedAffinity>  (2) 
-17.24419

$$$$
Mol: 163_12 - SminaDock
     RDKit          3D

 37 43  0  0  0  0  0  0  0  0999 V2000
    6.0927   -1.7900  -16.3984 O   0  0  0  0  0  0  0  0  0  0  0  0
    5.3592   -0.9910  -15.5351 C   0  0  0  0  0  0  0  0  0  0  0  0
    4.1136   -1.2889  -15.1894 N   0  0  0  0  0  0  0  0  0  0  0  0
    3.3538   -0.5413  -14.3493 C   0  0  0  0  0  0  0  0  0  0  0  0
    3.8547    0.6228  -13.7812 C   0  0  0  0  0  0  0  0  0  0  0  0
    5.1417    0.9473  -14.1271 C   0  0  0  0  0  0  0  0  0  0  0  0
    5.7189    2.1125  -13.5899 C   0  0  0  0  0  0  0  0  0  0  0  0
    7.0035    2.4036  -13.9565 C   0  0  0  0  0  0  0  0  0  0  0  0
    7.7512    1.6401  -14.8013 N   0  0  0  0  0  0  0  0  0  0  0  0
    7.2549    0.5101  -15.3497 C   0  0  0  0  0  0  0  0  0  0  0  0
    7.8836   -0.2287  -16.1257 O   0  0  0  0  0  0  0  0  0  0  0  0
    5.9583    0.1551  -15.0223 C   0  0  0  0  0  0  0  0  0  0  0  0
    7.6110    3.6394  -13.4306 C   0  0  0  0  0  0  0  0  0  0  0  0
    8.9237    3.9230  -13.7664 C   0  0  0  0  0  0  0  0  0  0  0  0
    9.5346    5.0602  -13.2606 C   0  0  0  0  0  0  0  0  0  0  0  0
    8.8376    5.9070  -12.4252 C   0  0  0  0  0  0  0  0  0  0  0  0
    7.5354    5.5901  -12.1163 C   0  0  0  0  0  0  0  0  0  0  0  0
    6.8812    4.4519  -12.6063 C   0  0  0  0  0  0  0  0  0  0  0  0
    5.4852    4.2061  -12.2555 C   0  0  0  0  0  0  0  0  0  0  0  0
    4.9537    2.9155  -12.6699 C   0  0  0  0  0  0  0  0  0  0  0  0
    9.4643    7.0894  -11.8957 N   0  0  0  0  0  0  0  0  0  0  0  0
    9.7821    7.1033  -10.6557 C   0  0  0  0  0  0  0  0  0  0  0  0
   10.3744    8.1706  -10.0720 N   0  0  0  0  0  0  0  0  0  0  0  0
   10.7159    8.2094   -8.7794 C   0  0  0  0  0  0  0  0  0  0  0  0
   11.3185    9.2974   -8.1915 C   0  0  0  0  0  0  0  0  0  0  0  0
   11.6473    9.2720   -6.8454 C   0  0  0  0  0  0  0  0  0  0  0  0
   11.3884    8.1730   -6.0520 C   0  0  0  0  0  0  0  0  0  0  0  0
   10.7864    7.0954   -6.6547 C   0  0  0  0  0  0  0  0  0  0  0  0
   10.4507    7.1056   -8.0033 C   0  0  0  0  0  0  0  0  0  0  0  0
    9.8549    6.0141   -8.5603 C   0  0  0  0  0  0  0  0  0  0  0  0
    9.5377    6.0446   -9.8715 N   0  0  0  0  0  0  0  0  0  0  0  0
   11.7098    8.1006   -4.6417 C   0  0  0  0  0  0  0  0  0  0  0  0
   12.0896    9.2094   -3.9165 C   0  0  0  0  0  0  0  0  0  0  0  0
   12.3936    9.0837   -2.5574 C   0  0  0  0  0  0  0  0  0  0  0  0
   12.3184    7.8584   -1.9288 C   0  0  0  0  0  0  0  0  0  0  0  0
   11.9413    6.7561   -2.6480 C   0  0  0  0  0  0  0  0  0  0  0  0
   11.6469    6.9015   -3.9823 C   0  0  0  0  0  0  0  0  0  0  0  0
  1  2  1  0
  2  3  1  0
  3  4  1  0
  4  5  2  0
  5  6  1  0
  6  7  2  0
  7  8  1  0
  8  9  2  0
  9 10  1  0
 10 11  2  0
 10 12  1  0
  8 13  1  0
 13 14  2  0
 14 15  1  0
 15 16  2  0
 16 21  1  0
 21 22  2  0
 22 23  1  0
 23 24  2  0
 24 25  1  0
 25 26  2  0
 26 27  1  0
 27 32  1  0
 32 33  2  0
 33 34  1  0
 34 35  2  0
 35 36  1  0
 36 37  2  0
 27 28  2  0
 28 29  1  0
 29 30  2  0
 30 31  1  0
 16 17  1  0
 17 18  2  0
 18 19  1  0
 19 20  1  0
 12  2  2  0
 18 13  1  0
 12  6  1  0
 31 22  1  0
 20  7  1  0
 29 24  1  0
 37 32  1  0
M  CHG  1   3  -1
M  END
>  <minimizedAffinity>  (3) 
-17.62855

$$$$
