Mol: 160_46 - rDock
     RDKit          3D

 24 27  0  0  0  0  0  0  0  0999 V2000
    8.6626    5.8394  -10.3519 O   0  0  0  0  0  0  0  0  0  0  0  0
    9.5965    6.6364  -10.1629 C   0  0  0  0  0  0  0  0  0  0  0  0
   10.3830    6.7570  -11.3633 C   0  0  0  0  0  0  0  0  0  0  0  0
   11.4675    7.5273  -11.3907 N   0  0  0  0  0  0  0  0  0  0  0  0
   12.2747    7.7151  -12.4241 C   0  0  0  0  0  0  0  0  0  0  0  0
   11.9520    7.0403  -13.5860 C   0  0  0  0  0  0  0  0  0  0  0  0
   12.7287    7.1749  -14.6988 C   0  0  0  0  0  0  0  0  0  0  0  0
   12.4261    6.5109  -15.8692 C   0  0  0  0  0  0  0  0  0  0  0  0
   11.2981    5.6907  -15.8908 C   0  0  0  0  0  0  0  0  0  0  0  0
   10.5032    5.5430  -14.7775 C   0  0  0  0  0  0  0  0  0  0  0  0
   10.8381    6.2298  -13.6087 C   0  0  0  0  0  0  0  0  0  0  0  0
   10.0937    6.1143  -12.5047 N   0  0  0  0  0  0  0  0  0  0  0  0
    9.2835    6.9076   -8.8942 N   0  0  0  0  0  0  0  0  0  0  0  0
    9.8766    6.0370   -7.9387 C   0  0  0  0  0  0  0  0  0  0  0  0
   11.2366    6.4582   -7.4216 C   0  0  0  0  0  0  0  0  0  0  0  0
   10.9606    7.5406   -6.4887 N   0  0  0  0  0  0  0  0  0  0  0  0
   11.7123    7.8538   -5.3548 C   0  0  0  0  0  0  0  0  0  0  0  0
   11.6063    7.0572   -4.2350 C   0  0  0  0  0  0  0  0  0  0  0  0
   12.3288    7.3217   -3.0744 C   0  0  0  0  0  0  0  0  0  0  0  0
   13.1843    8.3982   -2.9997 C   0  0  0  0  0  0  0  0  0  0  0  0
   13.2964    9.2001   -4.1151 C   0  0  0  0  0  0  0  0  0  0  0  0
   12.5707    8.9267   -5.2676 C   0  0  0  0  0  0  0  0  0  0  0  0
    9.7574    8.2866   -6.9074 C   0  0  0  0  0  0  0  0  0  0  0  0
    9.7813    8.2604   -8.3837 C   0  0  0  0  0  0  0  0  0  0  0  0
  1  2  2  0
  2  3  1  0
  2 13  1  0
  3  4  2  0
  4  5  1  0
  5  6  2  0
  6  7  1  0
  7  8  2  0
  8  9  1  0
  9 10  2  0
 10 11  1  0
 11 12  2  0
 11  6  1  0
 12  3  1  0
 13 14  1  0
 14 15  1  0
 15 16  1  0
 16 17  1  0
 16 23  1  0
 17 18  2  0
 18 19  1  0
 19 20  2  0
 20 21  1  0
 21 22  2  0
 22 17  1  0
 23 24  1  0
 24 13  1  0
M  CHG  1  13   1
M  END
>  <CHROM.0>  (1) 
55.34104211,68.78641687,-60.45974919,65.60763845,-178.03994456,62.75040623
169.11916079,63.26881034,58.39532735,17.87195019

>  <CHROM.1>  (1) 
-177.91714314,88.85969912,-75.20038007,11.11674343,7.11964614,-9.45491300
1.64261522,-0.39898923,-1.70416276

>  <Genealogy>  (1) 
O=C(c1ncc2ccccc2n1)[NH+]1CCN(c2ccccc2)CC1 (protonated)
(WARNING: Unable to generate enantiomers)
(WARNING: Unable to generate double-bond variant)
O=C(c1ncc2ccccc2n1)[NH+]1CCN(c2ccccc2)CC1 (3D coordinates assigned)

>  <Name>  (1) 
160_46

>  <RI>  (1) 
1.75223e+08

>  <Rbt.Current_Directory>  (1) 
/shared/morgan/SMILES-RNN/2023_11_13_SMILES-RNN_DRD2_rDock-3x32-Inter_TPSA/rDock/160

>  <Rbt.Executable>  (1) 
rbdock ($Id: //depot/dev/client3/rdock/2021.1/src/exe/rbdock.cxx#4 $)

>  <Rbt.Library>  (1) 
libRbt.so (2021.1, Build901 2021/07/19)

>  <Rbt.Parameter_File>  (1) 
/shared/morgan/software/rDock/data/scripts/dock.prm

>  <Rbt.Receptor>  (1) 
cavity.prm

>  <SCORE>  (1) 
-59.0054

>  <SCORE.INTER>  (1) 
-20.2712

>  <SCORE.INTER.CONST>  (1) 
1

>  <SCORE.INTER.POLAR>  (1) 
-1.40312

>  <SCORE.INTER.REPUL>  (1) 
0.0124093

>  <SCORE.INTER.ROT>  (1) 
3

>  <SCORE.INTER.VDW>  (1) 
-23.9627

>  <SCORE.INTER.norm>  (1) 
-0.844635

>  <SCORE.INTRA>  (1) 
-20.5793

>  <SCORE.INTRA.DIHEDRAL>  (1) 
11.7952

>  <SCORE.INTRA.DIHEDRAL.0>  (1) 
1.35966

>  <SCORE.INTRA.POLAR>  (1) 
0

>  <SCORE.INTRA.POLAR.0>  (1) 
0

>  <SCORE.INTRA.REPUL>  (1) 
0

>  <SCORE.INTRA.REPUL.0>  (1) 
0

>  <SCORE.INTRA.VDW>  (1) 
-26.4769

>  <SCORE.INTRA.VDW.0>  (1) 
23.4122

>  <SCORE.INTRA.norm>  (1) 
-0.857471

>  <SCORE.RESTR>  (1) 
0

>  <SCORE.RESTR.CAVITY>  (1) 
0

>  <SCORE.RESTR.PHARMA>  (1) 
0

$$$$
Mol: 57_10 - rDock
     RDKit          3D

 30 33  0  0  0  0  0  0  0  0999 V2000
   12.4463    6.8982  -11.0630 O   0  0  0  0  0  0  0  0  0  0  0  0
   11.1209    6.6156  -11.2611 C   0  0  0  0  0  0  0  0  0  0  0  0
   10.7644    5.8535  -12.2843 C   0  0  0  0  0  0  0  0  0  0  0  0
   11.6262    5.3012  -13.1997 N   0  0  0  0  0  0  0  0  0  0  0  0
   11.6214    4.5310  -14.1508 C   0  0  0  0  0  0  0  0  0  0  0  0
   12.8786    4.2962  -14.7803 O   0  0  0  0  0  0  0  0  0  0  0  0
   10.4577    3.8242  -14.7110 C   0  0  0  0  0  0  0  0  0  0  0  0
    9.5737    3.2578  -13.8367 C   0  0  0  0  0  0  0  0  0  0  0  0
    8.4709    2.5876  -14.3850 C   0  0  0  0  0  0  0  0  0  0  0  0
    8.3452    2.5392  -15.7244 C   0  0  0  0  0  0  0  0  0  0  0  0
    7.0751    1.7757  -16.7687 S   0  0  0  0  0  0  0  0  0  0  0  0
    7.8290    2.2770  -18.3553 C   0  0  0  0  0  0  0  0  0  0  0  0
    8.9445    2.9588  -17.9538 C   0  0  0  0  0  0  0  0  0  0  0  0
    9.1868    3.0801  -16.6406 C   0  0  0  0  0  0  0  0  0  0  0  0
   10.2988    3.7558  -16.0778 C   0  0  0  0  0  0  0  0  0  0  0  0
   10.1343    7.1243  -10.3924 N   0  0  0  0  0  0  0  0  0  0  0  0
   10.5090    8.4730  -10.0524 C   0  0  0  0  0  0  0  0  0  0  0  0
   11.3946    8.5604   -8.8320 C   0  0  0  0  0  0  0  0  0  0  0  0
   10.7856    7.8673   -7.7229 N   0  0  0  0  0  0  0  0  0  0  0  0
   11.2706    7.9895   -6.3858 C   0  0  0  0  0  0  0  0  0  0  0  0
   10.6392    7.4073   -5.3505 N   0  0  0  0  0  0  0  0  0  0  0  0
   11.0871    7.5151   -4.0866 C   0  0  0  0  0  0  0  0  0  0  0  0
   12.2205    8.2265   -3.7585 C   0  0  0  0  0  0  0  0  0  0  0  0
   12.7008    8.3391   -2.3853 C   0  0  0  0  0  0  0  0  0  0  0  0
   13.0880    9.4277   -1.8923 O   0  0  0  0  0  0  0  0  0  0  0  0
   12.7366    7.1310   -1.5343 C   0  0  0  0  0  0  0  0  0  0  0  0
   12.8917    8.8374   -4.8061 C   0  0  0  0  0  0  0  0  0  0  0  0
   12.4087    8.7091   -6.0907 C   0  0  0  0  0  0  0  0  0  0  0  0
    9.6482    7.0299   -8.0158 C   0  0  0  0  0  0  0  0  0  0  0  0
    9.9721    6.2561   -9.2572 C   0  0  0  0  0  0  0  0  0  0  0  0
  1  2  1  0
  2  3  2  0
  2 16  1  0
  3  4  1  0
  4  5  2  0
  5  6  1  0
  5  7  1  0
  7  8  2  0
  8  9  1  0
  9 10  2  0
 10 11  1  0
 11 12  1  0
 12 13  2  0
 13 14  1  0
 14 15  2  0
 14 10  1  0
 15  7  1  0
 16 17  1  0
 17 18  1  0
 18 19  1  0
 19 20  1  0
 19 29  1  0
 20 21  2  0
 21 22  1  0
 22 23  2  0
 23 24  1  0
 23 27  1  0
 24 25  2  0
 24 26  1  0
 27 28  2  0
 28 20  1  0
 29 30  1  0
 30 16  1  0
M  CHG  1  16   1
M  END
>  <CHROM.0>  (2) 
57.97425349,64.68638727,-177.50311654,66.51391523,-81.82267694,62.98520741
-170.65577520,-178.50156236,62.11173655,-175.02041424

>  <CHROM.1>  (2) 
-4.07511136,156.00460067,174.17531389,175.75656762,-43.28748015,175.55430054
-135.35772392,10.62854309,5.81471574,-10.60002277,-1.85044210,0.58609719
1.31027708

>  <Genealogy>  (2) 
CC(=O)c1ccc(N2CC[NH+](C(=O)CNC(=O)c3ccc4sccc4c3)CC2)nc1 (protonated)
CC(=O)c1ccc(N2CC[NH+](C(O)=CN=C(O)c3ccc4sccc4c3)CC2)nc1 (tautomer)
(WARNING: Unable to generate enantiomers)
CC(=O)c1ccc(N2CC[NH+](/C(O)=C/N=C(/O)c3ccc4sccc4c3)CC2)nc1 (cis-trans isomerization)
CC(=O)c1ccc(N2CC[NH+](/C(O)=C/N=C(/O)c3ccc4sccc4c3)CC2)nc1 (3D coordinates assigned)

>  <Name>  (2) 
57_10

>  <RI>  (2) 
9.79866e+08

>  <Rbt.Current_Directory>  (2) 
/shared/morgan/SMILES-RNN/2023_11_13_SMILES-RNN_DRD2_rDock-3x32-Inter_TPSA/rDock/57

>  <Rbt.Executable>  (2) 
rbdock ($Id: //depot/dev/client3/rdock/2021.1/src/exe/rbdock.cxx#4 $)

>  <Rbt.Library>  (2) 
libRbt.so (2021.1, Build901 2021/07/19)

>  <Rbt.Parameter_File>  (2) 
/shared/morgan/software/rDock/data/scripts/dock.prm

>  <Rbt.Receptor>  (2) 
cavity.prm

>  <SCORE>  (2) 
-64.3178

>  <SCORE.INTER>  (2) 
-9.10277

>  <SCORE.INTER.CONST>  (2) 
1

>  <SCORE.INTER.POLAR>  (2) 
-0.776836

>  <SCORE.INTER.REPUL>  (2) 
0.274923

>  <SCORE.INTER.ROT>  (2) 
5

>  <SCORE.INTER.VDW>  (2) 
-18.2361

>  <SCORE.INTER.norm>  (2) 
-0.303426

>  <SCORE.INTRA>  (2) 
-40.7363

>  <SCORE.INTRA.DIHEDRAL>  (2) 
-55.8901

>  <SCORE.INTRA.DIHEDRAL.0>  (2) 
70.2501

>  <SCORE.INTRA.POLAR>  (2) 
0

>  <SCORE.INTRA.POLAR.0>  (2) 
0

>  <SCORE.INTRA.REPUL>  (2) 
0

>  <SCORE.INTRA.REPUL.0>  (2) 
0

>  <SCORE.INTRA.VDW>  (2) 
-12.7912

>  <SCORE.INTRA.VDW.0>  (2) 
15.7247

>  <SCORE.INTRA.norm>  (2) 
-1.35788

>  <SCORE.RESTR>  (2) 
0

>  <SCORE.RESTR.CAVITY>  (2) 
0

>  <SCORE.RESTR.PHARMA>  (2) 
0

$$$$
Mol: 69_1 - rDock
     RDKit          3D

 19 21  0  0  0  0  0  0  0  0999 V2000
   12.0508    9.9570  -10.0041 H   0  0  0  0  0  0  0  0  0  0  0  0
   11.3017    9.9670   -9.2859 N   0  0  0  0  0  0  0  0  0  0  0  0
   10.5352    8.9797   -9.0355 C   0  0  0  0  0  0  0  0  0  0  0  0
   10.6515    7.7555   -9.7410 N   0  0  0  0  0  0  0  0  0  0  0  0
    9.9468    6.5899   -9.2802 C   0  0  0  0  0  0  0  0  0  0  0  0
    9.6813    5.3240  -10.2596 S   0  0  0  0  0  0  0  0  0  0  0  0
    9.4661    6.5836   -7.8604 C   0  0  0  0  0  0  0  0  0  0  0  0
    9.7755    7.8493   -7.2493 N   0  0  0  0  0  0  0  0  0  0  0  0
   10.3374    7.9506   -5.9944 C   0  0  0  0  0  0  0  0  0  0  0  0
   10.6468    6.4836   -4.9104 S   0  0  0  0  0  0  0  0  0  0  0  0
   11.3312    7.4154   -3.5649 C   0  0  0  0  0  0  0  0  0  0  0  0
   11.8272    7.0169   -2.3308 C   0  0  0  0  0  0  0  0  0  0  0  0
   12.3199    7.9683   -1.4406 C   0  0  0  0  0  0  0  0  0  0  0  0
   12.2631    9.2670   -1.8964 C   0  0  0  0  0  0  0  0  0  0  0  0
   11.7811    9.6102   -3.0854 N   0  0  0  0  0  0  0  0  0  0  0  0
   11.2835    8.7039   -3.9967 C   0  0  0  0  0  0  0  0  0  0  0  0
   10.7811    8.9602   -5.2224 C   0  0  0  0  0  0  0  0  0  0  0  0
   10.6764   10.6357   -5.9028 Cl  0  0  0  0  0  0  0  0  0  0  0  0
    9.4946    8.9994   -8.0334 N   0  0  0  0  0  0  0  0  0  0  0  0
  1  2  1  0
  2  3  2  0
  3  4  1  0
  4  5  1  0
  5  6  2  0
  5  7  1  0
  7  8  1  0
  8  9  1  0
  8 19  1  0
  9 10  1  0
 10 11  1  0
 11 12  2  0
 12 13  1  0
 13 14  2  0
 14 15  1  0
 15 16  2  0
 16 17  1  0
 16 11  1  0
 17 18  1  0
 17  9  2  0
 19  3  1  0
M  CHG  1  19   1
M  END
>  <CHROM.0>  (3) 
52.33193323,65.75613578,-60.66943206,66.75704124,-176.26135335,65.20492660
-179.96968552,62.79900200,60.54614797,16.45561356

>  <CHROM.1>  (3) 
-4.39687310,10.68514811,8.03687946,-6.30354465,-2.92538504,1.32042019,2.68889218

>  <Genealogy>  (3) 
NC1=[NH+]N(c2sc3cccnc3c2Cl)CC(S)=N1 (protonated)
N=C1NC(=S)CN(c2sc3cccnc3c2Cl)[NH2+]1 (tautomer)
(WARNING: Unable to generate enantiomers)
[H]/N=C1\NC(=S)CN(c2sc3cccnc3c2Cl)[NH2+]1 (cis-trans isomerization)
[H]/N=C1\NC(=S)CN(c2sc3cccnc3c2Cl)[NH2+]1 (3D coordinates assigned)

>  <Name>  (3) 
69_1

>  <RI>  (3) 
2.04893e+09

>  <Rbt.Current_Directory>  (3) 
/shared/morgan/SMILES-RNN/2023_11_13_SMILES-RNN_DRD2_rDock-3x32-Inter_TPSA/rDock/69

>  <Rbt.Executable>  (3) 
rbdock ($Id: //depot/dev/client3/rdock/2021.1/src/exe/rbdock.cxx#4 $)

>  <Rbt.Library>  (3) 
libRbt.so (2021.1, Build901 2021/07/19)

>  <Rbt.Parameter_File>  (3) 
/shared/morgan/software/rDock/data/scripts/dock.prm

>  <Rbt.Receptor>  (3) 
cavity.prm

>  <SCORE>  (3) 
-68.3007

>  <SCORE.INTER>  (3) 
-16.3592

>  <SCORE.INTER.CONST>  (3) 
1

>  <SCORE.INTER.POLAR>  (3) 
-0.312358

>  <SCORE.INTER.REPUL>  (3) 
0

>  <SCORE.INTER.ROT>  (3) 
1

>  <SCORE.INTER.VDW>  (3) 
-21.6972

>  <SCORE.INTER.norm>  (3) 
-0.908844

>  <SCORE.INTRA>  (3) 
-34.174

>  <SCORE.INTRA.DIHEDRAL>  (3) 
-80.6816

>  <SCORE.INTRA.DIHEDRAL.0>  (3) 
81.0353

>  <SCORE.INTRA.POLAR>  (3) 
0

>  <SCORE.INTRA.POLAR.0>  (3) 
0

>  <SCORE.INTRA.REPUL>  (3) 
0

>  <SCORE.INTRA.REPUL.0>  (3) 
0

>  <SCORE.INTRA.VDW>  (3) 
6.16681

>  <SCORE.INTRA.VDW.0>  (3) 
-1.99725

>  <SCORE.INTRA.norm>  (3) 
-1.89856

>  <SCORE.RESTR>  (3) 
0.557143

>  <SCORE.RESTR.CAVITY>  (3) 
0

>  <SCORE.RESTR.PHARMA>  (3) 
0.557143

$$$$
